#------------------------------------------------------------------------------
#$Date: 2022-05-14 01:35:42 +0300 (Sat, 14 May 2022) $
#$Revision: 275418 $
#$URL: file:///home/coder/svn-repositories/cod/cif/7/24/49/7244924.cif $
#------------------------------------------------------------------------------
#
# This file is available in the Crystallography Open Database (COD),
# http://www.crystallography.net/
#
# All data on this site have been placed in the public domain by the
# contributors.
#
data_7244924
loop_
_publ_author_name
'Lopes, Gon\,calo'
'Gama, Vasco Pires Silva da'
'Santos, Isabel Cordeiro'
'Branco Lopes, Elsa'
'Brotas, Gra\,ca'
'Pereira, Laura C. J.'
'Cerdeira, Ana C.'
'Paix\~ao, Jos\'e Ant\'onio'
'Raba\,ca, Sandra'
'Almeida, Manuel'
_publ_section_title
;
 Bilayer conducting salts with polymeric anions
;
_journal_name_full               CrystEngComm
_journal_paper_doi               10.1039/D2CE00515H
_journal_year                    2022
_chemical_formula_sum            'C13.5 H7 Ag0.25 N1.5 S6'
_chemical_formula_weight         409.53
_space_group_crystal_system      triclinic
_space_group_IT_number           2
_space_group_name_Hall           '-P 1'
_space_group_name_H-M_alt        'P -1'
_atom_sites_solution_hydrogens   geom
_audit_creation_method           SHELXL-2014/7
_audit_update_record
;
2022-03-28 deposited with the CCDC.	2022-05-13 downloaded from the CCDC.
;
_cell_angle_alpha                89.533(5)
_cell_angle_beta                 87.164(4)
_cell_angle_gamma                84.996(4)
_cell_formula_units_Z            2
_cell_length_a                   4.9017(4)
_cell_length_b                   5.7793(5)
_cell_length_c                   27.0165(15)
_cell_measurement_reflns_used    1183
_cell_measurement_temperature    150(2)
_cell_measurement_theta_max      25.49
_cell_measurement_theta_min      3.78
_cell_volume                     761.48(10)
_computing_cell_refinement       'Bruker SAINT'
_computing_data_collection       'Bruker APEX2'
_computing_data_reduction        'Bruker SAINT'
_computing_structure_refinement  'SHELXL-2014/7 (Sheldrick, 2014)'
_computing_structure_solution    'SHELXS-97 (Sheldrick 2008)'
_diffrn_ambient_temperature      150(2)
_diffrn_measured_fraction_theta_full 0.922
_diffrn_measured_fraction_theta_max 0.920
_diffrn_measurement_device_type  'Bruker APEX-II CCD'
_diffrn_measurement_method       '\f and \w scans'
_diffrn_radiation_type           MoK\a
_diffrn_radiation_wavelength     0.71073
_diffrn_reflns_av_R_equivalents  0.0480
_diffrn_reflns_av_unetI/netI     0.0840
_diffrn_reflns_Laue_measured_fraction_full 0.922
_diffrn_reflns_Laue_measured_fraction_max 0.920
_diffrn_reflns_limit_h_max       5
_diffrn_reflns_limit_h_min       -5
_diffrn_reflns_limit_k_max       5
_diffrn_reflns_limit_k_min       -7
_diffrn_reflns_limit_l_max       32
_diffrn_reflns_limit_l_min       -32
_diffrn_reflns_number            5427
_diffrn_reflns_point_group_measured_fraction_full 0.922
_diffrn_reflns_point_group_measured_fraction_max 0.920
_diffrn_reflns_theta_full        25.242
_diffrn_reflns_theta_max         25.680
_diffrn_reflns_theta_min         3.020
_exptl_absorpt_coefficient_mu    1.201
_exptl_absorpt_correction_T_max  0.976
_exptl_absorpt_correction_T_min  0.715
_exptl_absorpt_correction_type   multi-scan
_exptl_absorpt_process_details   sadabs
_exptl_crystal_colour            'dark brown'
_exptl_crystal_density_diffrn    1.786
_exptl_crystal_description       needle
_exptl_crystal_F_000             412
_exptl_crystal_size_max          0.300
_exptl_crystal_size_mid          0.040
_exptl_crystal_size_min          0.020
_refine_diff_density_max         2.472
_refine_diff_density_min         -1.001
_refine_diff_density_rms         0.241
_refine_ls_extinction_method     none
_refine_ls_goodness_of_fit_ref   1.129
_refine_ls_hydrogen_treatment    constr
_refine_ls_matrix_type           full
_refine_ls_number_parameters     192
_refine_ls_number_reflns         5427
_refine_ls_number_restraints     42
_refine_ls_restrained_S_all      1.240
_refine_ls_R_factor_all          0.1703
_refine_ls_R_factor_gt           0.1352
_refine_ls_shift/su_max          0.000
_refine_ls_shift/su_mean         0.000
_refine_ls_structure_factor_coef Fsqd
_refine_ls_weighting_details
'w=1/[\s^2^(Fo^2^)+(0.0346P)^2^+49.0552P] where P=(Fo^2^+2Fc^2^)/3'
_refine_ls_weighting_scheme      calc
_refine_ls_wR_factor_gt          0.3116
_refine_ls_wR_factor_ref         0.3237
_reflns_Friedel_coverage         0.000
_reflns_number_gt                3901
_reflns_number_total             5427
_reflns_threshold_expression     'I > 2\s(I)'
_cod_data_source_file            d2ce00515h2.cif
_cod_data_source_block           comp1_AgC2N2
_cod_original_formula_sum        'C13.50 H7 Ag0.25 N1.50 S6'
_cod_database_code               7244924
_shelx_shelxl_version_number     2014/7
_shelx_space_group_comment
;
The symmetry employed for this shelxl refinement is uniquely defined
by the following loop, which should always be used as a source of
symmetry information in preference to the above space-group names.
They are only intended as comments.
;
_shelx_estimated_absorpt_t_min   0.715
_shelx_estimated_absorpt_t_max   0.976
_shelx_res_file
;

    shelx.res created by SHELXL-2014/7

TITL 3AgNCN in P-1
CELL  0.71073   4.9017   5.7793  27.0165   89.533   87.164   84.996
ZERR     2.00   0.0004   0.0005   0.0015    0.005    0.004    0.004
LATT   1
SFAC  C    H    N    S    AG
UNIT  27 14 3 12 0.5
MERG   2
OMIT     0.00 180.00
OMIT    -2  -1  13
OMIT     0   0   2
OMIT     0   0   1
shel 7 0.82
DFIX  2.000 0.020 C15 AG1
DFIX  1.150 0.020 C15 N3
DFIX  1.900 0.020 AG1 C14A
DFIX  1.150 0.020 C14A N2A
DFIX  3.00 0.020 AG1 N2A
ISOR  0.001 C14A N2A
ISOR 0.001 Ag1
ISOR  0.001 C13 C15
ISOR  0.0001 N3
EADP   Ag1A Ag1
EADP  N2A N3
EADP  N2A C14A
EADP  N3 C15
EADP  C3 c5
EADP  C12 C13
EADP  C13 C11
DFIX     2.800   0.020 AG1A N2A
FMAP   2
PLAN   10
SIZE     0.020   0.040   0.300
ACTA
BOND   $H
L.S.  20
TEMP  -123.00
WGHT    0.034600   49.055199
BASF   0.00000
FVAR       0.47221   0.38323
S1    4    0.625586    1.192415    0.325398    11.00000    0.03081    0.01698 =
         0.03088   -0.00036   -0.01295   -0.00793
S2    4    0.401535    0.702104    0.389225    11.00000    0.03220    0.02269 =
         0.02099   -0.00010   -0.01035   -0.00316
S3    4    0.287552    1.049125    0.246846    11.00000    0.02340    0.01252 =
         0.01843    0.00261   -0.00499   -0.00463
S4    4    0.096732    0.642330    0.299902    11.00000    0.02991    0.01701 =
         0.01885   -0.00058   -0.00829   -0.00383
S5    4   -0.073416    0.935466    0.153700    11.00000    0.02222    0.01131 =
         0.01631    0.00025   -0.00527   -0.00523
S6    4   -0.250092    0.522735    0.207323    11.00000    0.02515    0.01403 =
         0.01638    0.00292   -0.00888   -0.00424
N1    3   -0.998749    0.249901    0.042431    11.00000    0.02921    0.03479 =
         0.03334   -0.00291    0.00189   -0.01238
C1    1    0.701535    1.083339    0.387650    11.00000    0.03489    0.05079 =
         0.04264   -0.02567   -0.01746   -0.01147
AFIX  23
H1A   2    0.861647    0.966543    0.384735    11.00000   -1.20000
H1B   2    0.754589    1.213817    0.407555    11.00000   -1.20000
AFIX   0
C2    1    0.477624    0.978403    0.414467    11.00000    0.04941    0.06863 =
         0.02380   -0.03203   -0.00724    0.00329
AFIX  23
H2A   2    0.310657    1.087789    0.414062    11.00000   -1.20000
H2B   2    0.524991    0.954877    0.449457    11.00000   -1.20000
AFIX   0
C3    1    0.412838    0.988284    0.305860    11.00000    0.01668    0.01235 =
         0.02417    0.00297   -0.00497   -0.00045
C4    1    0.326985    0.799231    0.328316    11.00000    0.01292    0.02532 =
         0.01130   -0.00450   -0.00008    0.00857
C5    1    0.088693    0.813336    0.246314    11.00000    0.01668    0.01235 =
         0.02417    0.00297   -0.00497   -0.00045
C6    1   -0.056795    0.765585    0.206738    11.00000    0.01681    0.00317 =
         0.01599    0.00192    0.00175    0.00123
C7    1   -0.295570    0.770750    0.123497    11.00000    0.02303    0.01919 =
         0.01396   -0.00601   -0.00226   -0.00208
C8    1   -0.388138    0.574403    0.148680    11.00000    0.01494    0.01317 =
         0.01263    0.00751    0.00514   -0.00263
C9    1   -0.389598    0.836285    0.077472    11.00000    0.03990    0.02509 =
         0.01172   -0.00134   -0.00392   -0.00934
AFIX  43
H9    2   -0.329603    0.968662    0.060488    11.00000   -1.20000
AFIX   0
C10   1   -0.562066    0.444702    0.127869    11.00000    0.02035    0.00662 =
         0.02900   -0.00766    0.00004   -0.00488
AFIX  43
H10   2   -0.621356    0.311612    0.144677    11.00000   -1.20000
AFIX   0
C11   1   -0.580180    0.696470    0.056734    11.00000    0.01735    0.01697 =
         0.01673   -0.00084   -0.00118   -0.00176
AFIX  43
H11   2   -0.654877    0.735534    0.025664    11.00000   -1.20000
AFIX   0
C12   1   -0.654008    0.503168    0.082708    11.00000    0.02255    0.01341 =
         0.02225   -0.00608   -0.01120    0.00976
C13   1   -0.850119    0.359818    0.060585    11.00000    0.01735    0.01697 =
         0.01673   -0.00084   -0.00118   -0.00176
PART    1
AG1   5    0.000000    0.500000    0.500000    20.25000    0.03419    0.03182 =
         0.03018   -0.00019   -0.00281   -0.00236
N3    3    0.000000    0.000000    0.500000    20.50000    0.05917    0.05917 =
         0.05917   -0.00023   -0.00290   -0.00514
C15   1   -0.001566    0.174889    0.483602    20.50000    0.05917    0.05917 =
         0.05917   -0.00023   -0.00290   -0.00514
PART    2
AG1A  5    0.016072    0.602960    0.494243   -20.25000    0.03419    0.03182 =
         0.03018   -0.00019   -0.00281   -0.00236
C14A  1    0.326855    0.637254    0.507452   -20.50000    0.05917    0.05917 =
         0.05917   -0.00023   -0.00290   -0.00514
N2A   3    0.500000    0.500000    0.500000   -20.50000    0.05917    0.05917 =
         0.05917   -0.00023   -0.00290   -0.00514
HKLF    4  1.0  1.00  0.00  0.00  0.00  1.00  0.00  0.00  0.00  1.00

REM  3AgNCN in P-1
REM R1 =  0.1352 for    3901 Fo > 4sig(Fo)  and  0.1703 for all    5427 data
REM    192 parameters refined using     42 restraints

END

WGHT      0.0355     48.8818

REM Highest difference peak  2.472,  deepest hole -1.001,  1-sigma level  0.241
Q1    1   0.0982  0.5537  0.4931  11.00000  0.05    2.47
Q2    1   0.3427  0.5079  0.5019  11.00000  0.05    1.27
Q3    1   0.4590  0.3972  0.4994  11.00000  0.05    1.13
Q4    1   0.0120  0.2320  0.4989  11.00000  0.05    1.13
Q5    1  -0.1007  0.6552  0.5017  11.00000  0.05    1.04
Q6    1  -0.0365  0.1362  0.5010  11.00000  0.05    1.02
Q7    1  -0.0159  0.7054  0.5084  11.00000  0.05    1.00
Q8    1   0.0017  0.3062  0.2402  11.00000  0.05    0.99
Q9    1   0.0652  1.1454  0.3211  11.00000  0.05    0.98
Q10   1  -0.1107  0.8762  0.0192  11.00000  0.05    0.96
;
_shelx_res_checksum              11610
_shelx_hkl_file
;
  -1   0   0   25.70    4.00
  -1   0   0   25.40    4.50
  -1   0   0   25.70    3.80
   1   0   0   30.50    4.20
   1   0   0   24.20    4.00
  -2   0   0  100.99    7.50
  -2   0   0  130.49    7.80
  -2   0   0  118.99    8.30
   2   0   0  136.69    8.30
  -3   0   0  573.94   23.40
   3   0   0  577.94   23.20
  -4   0   0   52.49    9.90
   4   0   0   70.29    9.00
  -5   0   0   23.10   11.90
   5   0   0    9.70    9.70
  -6   0   0   76.79   17.90
   6  -1   0   15.30   14.30
  -6   1   0    9.20   16.70
   5  -1   0    8.40   11.00
  -5   1   0   -0.50   12.80
   4  -1   0   -9.40    8.10
  -4   1   0   12.10    9.40
   3  -1   0  125.69    9.80
   2  -1   0  100.39    8.10
  -2   1   0  100.59    7.30
  -2   1   0   89.09    8.30
   1  -1   0  226.78   10.60
   1  -1   0  213.58   11.00
  -1   1   0  214.48   11.10
  -1   1   0  220.48   10.20
  -1   1   0  206.08   10.10
  -1  -1   0   29.50    5.20
  -1  -1   0   15.90    3.70
   1   1   0   20.70    4.60
  -2  -1   0  432.76   17.30
  -2  -1   0  409.26   16.60
  -2  -1   0  424.66   17.40
   2   1   0  408.76   16.60
   2   1   0  419.46   17.80
  -3  -1   0  365.56   16.30
   3   1   0  349.17   17.10
   3   1   0  363.66   16.00
  -4  -1   0   11.20    7.90
   4   1   0   14.80    7.10
  -5  -1   0  133.09   13.70
   5   1   0  145.49   12.80
  -6  -1   0   13.70   14.70
   5  -2   0    0.80   11.60
  -5   2   0   -2.50   13.50
   4  -2   0  313.77   19.70
  -4   2   0  392.76   21.10
   3  -2   0   66.79    8.70
  -3   2   0   50.09    8.90
   2  -2   0    6.80    6.00
  -2   2   0   18.40    6.60
  -2   2   0   17.90    5.50
   1  -2   0   64.79    6.00
   1  -2   0   68.79    5.90
  -1   2   0   57.29    5.90
  -1  -2   0    0.80    3.30
  -1  -2   0    6.00    4.70
  -2  -2   0  542.05   22.20
  -2  -2   0  508.15   20.40
  -2  -2   0  528.25   19.90
  -3  -2   0  151.18    9.50
  -3  -2   0  133.89    9.50
   3   2   0  142.49   11.50
  -4  -2   0   41.20    8.60
   4   2   0   35.00    7.00
  -5  -2   0  156.28   13.80
  -6  -2   0    6.00   11.90
   5  -3   0    2.10   13.40
  -5   3   0   20.10   17.00
   4  -3   0   14.20   10.30
  -4   3   0   21.10   11.10
   3  -3   0    8.60    7.70
  -3   3   0   13.60    8.50
  -3   3   0   12.30    8.50
   2  -3   0   21.50    6.60
  -2   3   0   26.10    6.50
   1  -3   0  505.25   19.00
   1  -3   0  466.65   18.90
  -2  -3   0  447.46   20.10
  -2  -3   0  427.86   17.40
  -3  -3   0  173.58   14.10
  -4  -3   0   38.80    8.10
  -5  -3   0   49.50    9.90
   4  -4   0  294.17   20.90
   3  -4   0   24.40    9.10
  -3   4   0   24.70    9.30
   2  -4   0    3.00    7.00
   1  -4   0   59.69    6.80
   1  -4   0   54.59    6.30
  -2  -4   0  180.48    9.90
  -2  -4   0  185.48   14.30
  -3  -4   0   58.49   10.70
  -4  -4   0   21.80    7.00
  -5  -4   0   33.50    9.70
   4  -5   0    6.00   12.80
   3  -5   0    9.70    9.80
   2  -5   0   81.29    9.80
  -2  -5   0    7.40    8.30
  -3  -5   0   -2.50   10.00
  -4  -5   0  318.47   23.60
   3  -6   0    4.60   11.00
   2  -6   0   57.09   10.50
  -2  -6   0   -1.20    8.80
  -3  -6   0    6.50   12.10
  -3  -6   1  159.68   17.60
  -2  -6   1  122.49   14.30
   2  -6   1  226.78   15.30
   3  -6   1   16.10   11.30
  -4  -5   1   23.90   12.40
  -3  -5   1   63.49   12.10
  -2  -5   1   48.50   10.20
   1  -5   1   13.20    6.40
   2  -5   1  195.78   13.30
   3  -5   1   19.10   10.00
   4  -5   1    6.50   12.90
  -5  -4   1  110.19   11.60
  -4  -4   1   77.59    8.70
  -3  -4   1   54.69   10.50
  -2  -4   1 1139.59   40.10
  -2  -4   1 1086.69   43.00
   1  -4   1   77.09    7.00
   1  -4   1   77.59    7.30
   2  -4   1    7.60    7.00
  -3   4  -1   49.40    9.90
   3  -4   1   74.79   10.50
   4  -4   1  242.98   17.90
  -5  -3   1    9.40    9.10
  -4  -3   1   50.49    8.30
  -3  -3   1   12.40    8.10
  -3  -3   1   16.50    6.00
  -2  -3   1  529.65   20.60
  -2  -3   1  536.25   23.20
   1  -3   1  541.55   19.70
   1  -3   1  474.45   19.70
  -2   3  -1   90.79    8.00
   2  -3   1   84.89    8.40
  -3   3  -1   34.80    8.90
  -3   3  -1    9.90    7.70
   3  -3   1   19.00    8.10
  -4   3  -1   55.39   11.80
   4  -3   1   50.49   11.20
  -5   3  -1   15.10   14.60
   5  -3   1   -5.40   12.80
  -6  -2   1   44.10   12.80
  -5  -2   1   38.10   10.60
   4   2  -1  118.49    9.30
  -4  -2   1  135.59   11.20
   3   2  -1   10.60    6.60
  -3  -2   1   18.20    5.30
  -3  -2   1   15.30    6.40
  -2  -2   1  776.52   28.60
  -2  -2   1  766.82   27.60
  -2  -2   1  768.82   27.90
  -2  -2   1  777.22   29.80
  -1  -2   1  307.57   12.20
  -1   2  -1  187.88   10.20
   1  -2   1  191.58   10.30
   1  -2   1  180.88   10.20
  -2   2  -1   40.50    7.00
  -2   2  -1   35.30    5.80
   2  -2   1   44.60    6.90
  -3   2  -1   25.50    8.10
   3  -2   1   26.30    7.80
  -4   2  -1   36.20   10.90
   4  -2   1   46.20   10.00
  -5   2  -1   15.30   14.00
   5  -2   1   28.90   12.10
  -6  -1   1  -13.20   12.70
   5   1  -1   55.29    9.80
  -5  -1   1   49.00   11.70
   4   1  -1   28.50    7.40
  -4  -1   1   17.90    8.60
   3   1  -1  706.83   28.00
   3   1  -1  716.53   27.00
  -3  -1   1  719.93   27.40
   2   1  -1   26.40    6.20
   2   1  -1   30.70    5.30
  -2  -1   1   29.30    4.90
  -2  -1   1   35.20    6.00
  -2  -1   1   36.80    5.40
  -1  -1   1   15.30    4.80
  -1  -1   1   16.10    3.20
  -1   1  -1  467.55   19.00
  -1   1  -1  492.45   18.40
  -1   1  -1  483.85   18.30
   1  -1   1  521.25   18.70
   1  -1   1  492.75   18.70
  -2   1  -1   52.39    6.20
  -2   1  -1   43.40    7.10
   2  -1   1   49.10    6.80
  -3   1  -1 1215.88   44.60
   3  -1   1 1226.18   44.50
  -4   1  -1   96.49   11.80
   4  -1   1   83.59   10.30
  -5   1  -1  -12.50   12.20
   5  -1   1    2.20   10.90
  -6   1  -1   77.99   17.90
   6  -1   1   34.80   14.10
  -6   0   1   91.89   17.90
   5   0  -1   46.30   10.50
  -5   0   1   43.70   12.40
   4   0  -1    3.70    7.50
  -4   0   1    9.20    8.40
   3   0  -1    6.30    6.50
  -3   0   1   11.00    7.00
   2   0  -1  254.77   12.80
  -2   0   1  275.87   13.30
  -2   0   1  259.87   12.70
  -2   0   1  245.48   12.20
   1   0  -1   23.30    4.10
   1   0  -1   29.80    4.20
  -1   0   1   30.50    3.90
  -1   0   1   16.70    4.60
   0   0  -1    0.20    0.30
   0   0  -1    0.00    0.10
   0   0   1   -0.10    0.20
   0   0   1   -0.10    0.10
  -1   0  -1    0.80    3.60
  -1   0  -1    8.00    4.20
  -1   0  -1    4.30    3.50
   1   0   1   -1.10    3.70
   1   0   1    4.40    3.90
   1   0   1   -2.00    3.50
  -2   0  -1   93.59    6.80
  -2   0  -1   76.49    7.30
  -2   0  -1   73.09    6.70
   2   0   1   90.99    7.20
  -3   0  -1   98.89    9.00
   3   0   1  106.09    8.60
  -4   0  -1   13.80    8.60
   4   0   1    4.00    7.50
  -5   0  -1   33.40   12.30
   5   0   1   40.70   10.80
  -6   0  -1   79.59   16.00
   6  -1  -1   41.20   17.50
  -6   1   1   99.39   17.40
   5  -1  -1   -3.60   10.50
  -5   1   1   13.50   13.30
   4  -1  -1   14.40    8.80
  -4   1   1   13.80    9.70
   3  -1  -1   86.69    8.90
  -3   1   1   97.79    9.40
   2  -1  -1    5.10    6.10
  -2   1   1    4.90    5.30
  -2   1   1   18.70    6.60
   1  -1  -1 3861.71  131.79
   1  -1  -1 3838.72  131.79
  -1   1   1 3923.21  131.69
  -1   1   1 3941.51  131.79
  -1  -1  -1    8.70    4.70
  -1  -1  -1   10.60    3.90
  -1  -1  -1   19.70    3.80
   1   1   1   13.30    4.70
   1   1   1   15.40    4.30
  -2  -1  -1 1394.26   49.20
  -2  -1  -1 1389.46   48.70
  -2  -1  -1 1383.16   48.50
   2   1   1 1394.76   49.50
   2   1   1 1410.96   48.50
  -3  -1  -1  181.98   11.70
   3   1   1  195.68   12.80
   3   1   1  192.08   11.20
  -4  -1  -1   16.50    8.40
   4   1   1   10.80    7.10
  -5  -1  -1   86.49   12.00
   5   1   1   68.29   10.30
  -6  -1  -1    5.30   13.00
   5  -2  -1   -1.40   11.50
  -5   2   1  -30.40   12.70
   4  -2  -1   -2.20    9.10
  -4   2   1    6.10   10.40
   3  -2  -1   35.20    8.00
  -3   2   1   28.80    8.30
   2  -2  -1  213.08   12.20
  -2   2   1  197.28   12.60
  -2   2   1  231.98   12.20
   1  -2  -1    8.80    4.60
   1  -2  -1   15.80    5.00
  -1   2   1   17.00    5.10
  -1  -2  -1    1.50    3.20
  -1  -2  -1   -1.80    3.90
   1   2   1   -1.00    4.50
  -2  -2  -1  409.16   15.70
  -2  -2  -1  413.06   18.50
  -2  -2  -1  399.76   16.90
   2   2   1  425.36   18.20
  -3  -2  -1   -3.60    5.90
  -3  -2  -1    0.80    4.90
   3   2   1   -8.90    6.20
  -4  -2  -1   52.69    9.00
   4   2   1   67.29    7.40
  -5  -2  -1   29.60    9.80
  -6  -2  -1    4.90   13.70
   5  -3  -1   28.50   13.40
  -5   3   1   61.69   15.80
   4  -3  -1   16.50   10.90
  -4   3   1   30.70   11.10
   3  -3  -1   46.20    8.50
  -3   3   1   15.40    8.60
   2  -3  -1   40.50    7.10
  -2   3   1   30.80    6.70
   1  -3  -1 1343.67   46.80
   1  -3  -1 1326.07   46.80
  -2  -3  -1  142.59    8.80
  -2  -3  -1  162.28   12.20
  -3  -3  -1   54.79    9.00
  -4  -3  -1   47.10    8.10
  -5  -3  -1   35.20    9.40
   4  -4  -1   68.59   12.70
   3  -4  -1   11.80    9.00
  -3   4   1   26.20    9.60
   2  -4  -1   91.19    9.30
   1  -4  -1   11.20    4.90
  -2  -4  -1  333.57   18.50
  -2  -4  -1  356.26   14.90
  -3  -4  -1    2.70    9.10
  -4  -4  -1   39.70    7.60
  -5  -4  -1   15.60    9.40
   4  -5  -1    5.50   11.60
   3  -5  -1   17.20   10.10
   2  -5  -1  100.59   10.60
  -2  -5  -1   65.99    9.90
  -3  -5  -1   27.30   10.60
  -4  -5  -1   54.99   13.50
  -5  -5  -1    6.60    8.50
   3  -6  -1   25.90   11.60
   2  -6  -1  149.29   12.60
  -2  -6  -1    1.00    8.50
  -3  -6  -1  374.26   25.10
  -1  -7  -1   41.20   14.30
  -3  -6   2   62.69   14.30
  -2  -6   2   29.70   11.40
   2  -6   2   31.90    9.50
   3  -6   2   -5.50   11.10
  -4  -5   2  176.18   17.70
  -3  -5   2   13.50   10.70
  -2  -5   2    2.60    8.90
   1  -5   2  497.85   21.20
   2  -5   2   46.60    8.90
   3  -5   2   56.89   10.80
   4  -5   2    7.00   12.50
  -5  -4   2  -13.70    8.70
  -4  -4   2   31.30   11.20
  -4  -4   2   35.80    7.60
  -3  -4   2   93.09   11.80
  -2  -4   2   38.30    8.60
   2  -4   2  101.39    9.50
  -3   4  -2   24.00    9.80
   3  -4   2   19.20    8.60
   4  -4   2  239.68   17.70
  -5  -3   2   52.39   10.10
  -4  -3   2   51.59    8.70
  -3  -3   2  619.64   27.70
  -3  -3   2  667.13   24.70
  -3  -3   2  654.63   25.10
  -2  -3   2   37.80    7.80
  -2  -3   2   50.49    5.30
   1  -3   2  193.78    9.80
   1  -3   2  153.88   10.00
  -2   3  -2   44.40    7.10
   2  -3   2   34.50    7.00
  -3   3  -2  186.28   12.40
  -3   3  -2  188.78   13.00
   3  -3   2  182.18   13.00
  -4   3  -2    5.40   11.40
   4  -3   2    6.50    9.90
  -5   3  -2   -5.50   14.40
   5  -3   2  -12.90   12.30
  -6  -2   2   15.40   11.70
  -5  -2   2   -3.10    9.10
   4   2  -2   22.50    6.90
  -4  -2   2   17.50    8.00
   3   2  -2   23.50    7.10
  -3  -2   2   26.00    5.50
  -3  -2   2   23.80    6.80
  -2  -2   2  211.78    9.70
  -2  -2   2  195.78   12.60
  -2  -2   2  198.58   10.60
  -1  -2   2    9.70    3.40
  -1   2  -2    8.40    5.00
   1  -2   2    0.10    4.70
   1  -2   2    0.10    4.80
  -2   2  -2   45.80    7.20
  -2   2  -2   50.59    6.00
   2  -2   2   44.20    6.80
  -3   2  -2   13.30    7.80
   3  -2   2    5.90    7.10
  -4   2  -2   94.09   12.50
   4  -2   2   98.89   11.50
  -5   2  -2    4.80   13.60
   5  -2   2   29.50   12.10
  -6  -1   2    3.80   14.40
   5   1  -2   35.70    9.50
  -5  -1   2   51.09   11.40
   4   1  -2   -1.00    7.10
  -4  -1   2   -1.00    7.60
   3   1  -2  903.41   32.70
   3   1  -2  894.21   33.70
  -3  -1   2  861.71   33.10
   2   1  -2  268.07   12.50
   2   1  -2  272.17   13.60
  -2  -1   2  282.07   13.20
  -2  -1   2  284.17   12.50
  -1  -1   2    7.00    4.40
  -1  -1   2    2.90    3.70
  -1   1  -2    7.60    5.10
  -1   1  -2   -8.90    4.00
  -1   1  -2   13.70    4.50
   1  -1   2    5.90    5.00
   1  -1   2   -4.80    3.80
   1  -1   2    4.20    4.80
  -2   1  -2   39.70    6.90
  -2   1  -2   29.00    5.80
   2  -1   2   35.10    6.40
  -3   1  -2   10.60    7.50
   3  -1   2    2.40    6.60
  -4   1  -2    7.20    9.20
   4  -1   2   -4.10    8.10
  -5   1  -2   -9.50   12.40
   5  -1   2   12.50   10.80
  -6   1  -2   47.10   16.20
   6  -1   2    0.70   13.60
  -6   0   2   45.30   15.60
   5   0  -2   26.20   10.10
  -5   0   2   29.00   12.30
   4   0  -2   34.90    8.20
  -4   0   2   18.50    8.70
   3   0  -2  120.39    9.30
  -3   0   2  118.49    9.60
   2   0  -2  227.28   12.00
  -2   0   2  220.98   11.30
  -2   0   2  225.38   12.60
   1   0  -2  228.28    9.80
   1   0  -2  213.38    9.60
  -1   0   2  202.58   10.30
  -1   0   2  217.28    9.50
   0   0  -2    0.30    1.20
   0   0  -2   -0.60    0.80
   0   0   2   -0.40    0.90
   0   0   2    0.20    1.00
  -1   0  -2  276.27   11.20
  -1   0  -2  297.77   11.60
  -1   0  -2  262.37   11.90
   1   0   2  259.67   11.60
   1   0   2  290.47   11.90
   1   0   2  269.27   11.40
  -2   0  -2  851.01   30.30
  -2   0  -2  817.02   29.90
  -2   0  -2  802.62   30.20
   2   0   2  816.92   30.00
  -3   0  -2  135.09    9.50
   3   0   2  108.19    8.90
  -4   0  -2   94.59   10.60
   4   0   2   82.39    9.30
  -5   0  -2  345.67   21.20
   5   0   2  297.97   19.70
  -6   0  -2  103.59   18.10
   6  -1  -2   33.90   14.50
  -6   1   2   16.40   16.10
   5  -1  -2   77.19   12.40
  -5   1   2   52.19   13.20
   4  -1  -2   11.20    9.00
  -4   1   2   26.50   10.00
   3  -1  -2   49.40    8.10
  -3   1   2   56.29    8.40
   2  -1  -2  107.89    8.00
  -2   1   2   94.09    8.30
   1  -1  -2   -3.10    4.40
   1  -1  -2   -4.10    4.80
  -1   1   2   -8.80    5.30
  -1   1   2   -3.40    4.20
  -1  -1  -2  157.28    8.50
  -1  -1  -2  162.08    8.70
   1   1   2  147.09    9.20
   1   1   2  165.68    9.10
  -2  -1  -2  109.89    7.80
  -2  -1  -2  112.89    8.10
  -2  -1  -2  135.99    7.90
   2   1   2  128.79    7.30
   2   1   2  104.09    8.10
   2   1   2  119.19    9.70
  -3  -1  -2   56.39    7.00
   3   1   2   44.20    7.30
  -4  -1  -2   14.00    8.40
   4   1   2   13.60    7.20
  -5  -1  -2   63.99   11.70
   5   1   2   51.09   10.30
  -6  -1  -2   15.10   12.80
   5  -2  -2   59.99   13.30
  -5   2   2   41.00   14.60
   4  -2  -2  313.17   19.20
  -4   2   2  324.07   20.40
   3  -2  -2    3.50    7.10
  -3   2   2    8.50    7.90
   2  -2  -2    2.60    5.60
  -2   2   2    5.90    6.40
   1  -2  -2   87.19    6.40
   1  -2  -2   88.49    6.30
  -1   2   2   77.59    6.60
  -1  -2  -2  150.38    8.80
  -1  -2  -2  136.69    7.70
   1   2   2  131.39    9.20
  -2  -2  -2 1581.44   53.69
  -2  -2  -2 1530.35   53.89
  -2  -2  -2 1557.24   55.69
  -2  -2  -2 1580.04   54.69
   2   2   2 1546.95   55.39
  -3  -2  -2   10.40    4.80
  -3  -2  -2   19.10    6.00
   3   2   2   14.80    6.60
  -4  -2  -2  106.49   10.20
   4   2   2  107.19    8.70
  -5  -2  -2   19.50    9.60
  -6  -2  -2   -4.70   12.70
   5  -3  -2   15.90   13.30
  -5   3   2    9.00   14.40
   4  -3  -2   11.30   10.50
  -4   3   2   23.40   12.00
  -3   3   2   91.49   10.10
   2  -3  -2   68.09    7.70
  -2   3   2   62.99    7.40
   1  -3  -2  213.08   10.80
   1  -3  -2  226.38   10.90
  -1  -3  -2  213.48   11.80
  -2  -3  -2  239.68   14.10
  -2  -3  -2  225.38   11.40
  -3  -3  -2  160.88   12.50
  -3  -3  -2  165.88    9.40
  -4  -3  -2   69.59    8.90
  -5  -3  -2   40.00    9.40
   4  -4  -2   -4.70   10.80
   3  -4  -2   -0.90    8.80
  -3   4   2   20.10    8.70
   2  -4  -2  395.86   18.50
   1  -4  -2   21.50    5.10
   1  -4  -2   19.50    5.50
  -3  -4  -2   46.40   10.00
  -4  -4  -2    9.90    6.80
  -5  -4  -2   17.20    9.10
   4  -5  -2    8.30   11.90
   3  -5  -2   10.00    9.30
   2  -5  -2   80.39    9.80
  -2  -5  -2    9.80    7.50
  -3  -5  -2   27.90   10.50
  -4  -5  -2  319.47   23.60
  -5  -5  -2   12.00    8.90
   3  -6  -2   81.09   13.50
   2  -6  -2   49.90    9.70
  -1  -6  -2  129.59   13.90
  -2  -6  -2   20.30    9.00
  -3  -6  -2   22.50   12.10
  -1  -7  -2   66.29   14.60
  -3  -6   3   45.60   14.30
  -2  -6   3  167.68   16.30
   1  -6   3   33.40    9.00
   2  -6   3  188.48   15.20
   3  -6   3    9.70   12.50
  -4  -5   3   -3.00   12.10
  -3  -5   3    6.40   10.90
  -2  -5   3   23.70    9.60
   1  -5   3   16.50    6.40
   2  -5   3   45.70    8.80
   3  -5   3   22.60    9.70
   4  -5   3    6.10   13.90
  -5  -4   3  224.28   15.70
  -4  -4   3  -10.10    6.60
  -4  -4   3    0.30   10.70
  -3  -4   3  135.89   13.40
  -2  -4   3  372.86   15.50
  -2  -4   3  364.86   19.60
   1  -4   3   22.90    5.90
   1  -4   3   27.30    5.70
   2  -4   3   93.99    9.20
  -3   4  -3   99.09   10.90
   3  -4   3  104.89   11.20
   4  -4   3   65.99   13.60
  -5  -3   3   28.90    9.90
  -4  -3   3   30.80    8.20
  -3  -3   3   24.90    6.60
  -3  -3   3   -1.10    7.80
  -3  -3   3   10.50    5.00
  -2  -3   3   17.30    7.00
  -2  -3   3   17.30    4.40
   1  -3   3   -0.30    4.80
   1  -3   3    4.00    5.00
  -2   3  -3   46.50    7.10
   2  -3   3   46.20    7.30
  -3   3  -3  337.57   18.10
  -3   3  -3  344.17   18.00
   3  -3   3  340.77   17.60
  -4   3  -3   15.70   11.00
   4  -3   3    9.40   10.10
  -5   3  -3    5.70   16.60
   5  -3   3   13.80   13.70
  -6  -2   3   27.20   13.90
  -5  -2   3  -12.50    9.10
   4   2  -3   47.80    7.30
  -4  -2   3   51.19    8.90
  -3  -2   3  154.38   10.20
  -3  -2   3  155.18   10.00
  -2  -2   3   39.00    7.30
  -2  -2   3   50.29    5.60
  -2  -2   3   43.80    5.60
  -2  -2   3   40.90    4.80
  -1   2  -3   45.20    5.80
   1  -2   3   43.50    5.70
   1  -2   3   56.89    5.80
  -2   2  -3   22.90    5.60
  -2   2  -3   11.60    6.40
   2  -2   3   10.90    6.00
  -3   2  -3    4.10    7.80
   3  -2   3    7.80    7.00
  -4   2  -3   37.00   11.20
   4  -2   3    2.20    9.10
  -5   2  -3   -6.30   13.50
   5  -2   3   16.30   11.80
  -6  -1   3   -5.20   12.80
   5   1  -3   15.70    9.30
  -5  -1   3    5.50   10.10
   4   1  -3  173.08   12.40
  -4  -1   3  157.28   12.20
   3   1  -3  424.56   18.70
   3   1  -3  455.85   19.60
  -3  -1   3  459.65   19.40
   2   1  -3   13.10    5.30
   2   1  -3   13.00    5.70
  -2  -1   3   21.40    4.80
  -2  -1   3    3.70    5.70
  -2  -1   3   14.30    5.70
   1   1  -3   46.30    3.90
   1   1  -3   44.80    3.80
  -1  -1   3   51.39    4.60
  -1  -1   3   44.20    4.10
  -1  -1   3   22.90    4.70
   0  -1   3  294.77   11.00
  -1   1  -3  158.78    9.40
  -1   1  -3  148.19    8.70
  -1   1  -3  159.18    8.30
   1  -1   3  159.28    8.80
   1  -1   3  131.09    8.30
  -2   1  -3   38.00    6.80
  -2   1  -3   18.20    5.60
   2  -1   3   30.20    6.10
  -3   1  -3  331.57   16.80
   3  -1   3  333.97   16.30
  -4   1  -3   51.19   10.30
   4  -1   3   48.90    9.50
  -5   1  -3   49.50   13.20
   5  -1   3   33.60   11.50
  -6   1  -3   -9.80   16.60
   6  -1   3    6.80   13.50
  -6   0   3   29.70   16.10
   5   0  -3   22.80   10.00
  -5   0   3    8.30   11.90
   4   0  -3  653.53   28.70
   4   0  -3  715.83   28.10
  -4   0   3  655.83   28.40
   3   0  -3    2.90    6.60
   3   0  -3   10.60    5.80
  -3   0   3   12.80    7.10
   2   0  -3  281.87   13.40
  -2   0   3  281.07   12.90
  -2   0   3  279.47   14.00
   1   0  -3  934.01   32.20
   1   0  -3  911.91   31.90
   1   0  -3  916.31   32.20
  -1   0   3  913.61   32.40
  -1   0   3  924.81   32.20
   0   0  -3    0.40    1.40
   0   0  -3   -0.40    2.00
   0   0   3   -1.00    1.70
   0   0   3   -1.40    1.70
  -1   0  -3  468.85   17.00
  -1   0  -3  473.15   17.40
  -1   0  -3  448.26   17.50
   1   0   3  451.35   17.20
   1   0   3  454.95   17.40
   1   0   3  436.16   17.20
  -2   0  -3   67.99    6.30
  -2   0  -3   71.29    7.20
  -2   0  -3   57.39    6.30
   2   0   3   54.09    6.50
   2   0   3   71.09    6.60
  -3   0  -3   27.10    7.10
   3   0   3   22.60    6.50
  -4   0  -3    9.10    8.70
   4   0   3   11.90    7.60
  -5   0  -3   -8.40   11.10
   5   0   3    7.50    9.60
  -6   0  -3   28.80   15.60
   6  -1  -3   11.30   13.80
  -6   1   3   -6.50   16.10
   5  -1  -3   61.29   12.30
  -5   1   3   40.80   14.10
   4  -1  -3   19.40    9.20
  -4   1   3   30.70    9.80
   3  -1  -3    7.70    7.10
  -3   1   3   10.20    7.70
   2  -1  -3  262.27   13.40
  -2   1   3  270.57   14.00
   1  -1  -3 9713.93  333.27
   1  -1  -3 9947.10  333.27
  -1   1   3 9904.11  333.27
  -1   1   3 9999.00  333.17
   0  -1  -3  508.75   17.90
  -1  -1  -3   78.09    5.90
  -1  -1  -3   91.69    7.10
  -1  -1  -3   81.89    6.60
  -1  -1  -3  110.39    5.80
   1   1   3  102.49    6.70
   1   1   3   90.19    6.40
  -2  -1  -3 1103.09   40.30
  -2  -1  -3 1134.59   39.60
  -2  -1  -3 1144.69   39.90
   2   1   3 1141.29   40.80
   2   1   3 1104.29   39.60
   2   1   3 1132.99   40.60
  -3  -1  -3  482.15   19.80
   3   1   3  466.65   19.40
   3   1   3  469.35   20.90
  -4  -1  -3  132.59   11.10
   4   1   3  155.68   11.00
  -5  -1  -3  271.97   19.60
   5   1   3  303.37   17.70
  -6  -1  -3   20.70   13.60
   5  -2  -3   62.39   13.30
  -5   2   3   52.89   15.40
   4  -2  -3   14.70    9.60
  -4   2   3    4.20   10.30
   3  -2  -3  155.88   11.50
  -3   2   3  149.88   11.70
   2  -2  -3   12.30    5.80
  -2   2   3    0.20    6.20
   1  -2  -3    1.30    4.60
   1  -2  -3   -1.30    4.60
  -1   2   3    6.40    5.10
  -1  -2  -3   94.09    7.00
  -1  -2  -3  110.09    7.50
   1   2   3  107.29    7.20
  -2  -2  -3  305.77   13.50
  -2  -2  -3  324.97   14.30
  -2  -2  -3  324.77   12.80
  -2  -2  -3  315.77   15.30
   2   2   3  301.27   15.10
   2   2   3  312.97   15.10
  -3  -2  -3   10.70    6.10
  -3  -2  -3    1.70    4.60
   3   2   3    3.70    7.40
  -4  -2  -3  100.09    9.80
   4   2   3   76.69    7.80
  -5  -2  -3  105.49   12.20
  -6  -2  -3   36.70   14.70
   5  -3  -3   86.49   15.80
  -5   3   3  116.69   17.20
   4  -3  -3   22.00   10.70
  -4   3   3   37.80   12.80
   3  -3  -3   61.39    9.20
  -3   3   3   85.59   10.00
   2  -3  -3  162.08   10.30
  -2   3   3  156.38   10.00
   1  -3  -3   15.00    4.70
   1  -3  -3    8.10    4.80
  -1  -3  -3  450.05   19.10
  -2  -3  -3  163.68    9.80
  -2  -3  -3  157.98   11.90
  -3  -3  -3   83.99    7.30
  -4  -3  -3  338.57   17.30
  -5  -3  -3   32.50    9.20
   4  -4  -3    7.90   11.10
   3  -4  -3    4.20    8.60
  -3   4   3    4.70    8.80
   2  -4  -3   94.69    9.20
   1  -4  -3    8.80    4.90
   1  -4  -3   -2.20    4.90
  -1  -4  -3  351.86   17.80
  -2  -4  -3  295.87   13.30
  -2  -4  -3  274.17   16.20
  -3  -4  -3   58.79   10.20
  -4  -4  -3   34.60    7.30
  -5  -4  -3   36.80    9.50
   4  -5  -3   16.00   13.60
   3  -5  -3   10.10    9.80
   2  -5  -3    7.30    7.90
  -1  -5  -3  226.58   15.90
  -2  -5  -3  147.79   13.00
  -3  -5  -3   32.70   10.60
   3  -6  -3    8.40   10.80
   2  -6  -3   42.90    9.70
  -1  -6  -3    5.50    9.40
  -2  -6  -3   29.00    9.30
  -3  -6  -3  346.87   24.10
  -1  -7  -3   24.40   11.40
  -3  -6   4    2.10   12.90
  -2  -6   4  132.99   15.50
   1  -6   4    0.20    8.10
   2  -6   4   28.30   10.90
   3  -6   4  -12.60   11.60
  -4  -5   4   40.90   13.60
  -3  -5   4   89.99   14.00
  -2  -5   4  266.57   19.00
   1  -5   4  477.65   21.10
   2  -5   4   20.60    8.40
   3  -5   4   45.10   11.40
   4  -5   4   14.80   13.10
  -5  -4   4   13.30    9.90
  -4  -4   4   52.79   12.20
  -4  -4   4   30.80    7.90
  -3  -4   4   95.59   12.00
  -2  -4   4   20.90    8.30
  -2  -4   4   14.20    4.30
   1  -4   4   99.89    7.80
   1  -4   4  107.49    7.80
   2  -4   4   30.90    7.50
  -3   4  -4   17.00    9.60
   3  -4   4   16.40    9.10
   4  -4   4    2.00   11.20
  -5  -3   4   41.90   10.10
  -4  -3   4   28.30    8.30
  -3  -3   4 1218.88   42.80
  -3  -3   4 1167.68   45.70
  -3  -3   4 1210.48   43.30
  -2  -3   4   -3.20    3.80
  -2  -3   4   11.60    6.90
   1  -3   4   22.00    5.20
   1  -3   4   16.90    5.10
  -2   3  -4  190.58   11.90
   2  -3   4  175.48   11.60
  -3   3  -4  827.72   32.70
  -3   3  -4  789.62   31.80
   3  -3   4  841.62   32.30
  -4   3  -4    8.20   11.70
   4  -3   4   22.00   10.70
  -5   3  -4   12.40   14.70
   5  -3   4    7.20   13.20
  -6  -2   4   11.00   12.70
  -5  -2   4    8.90   10.60
   4   2  -4   48.00    7.10
  -4  -2   4   51.59    9.40
  -3  -2   4  172.28   11.60
  -3  -2   4  179.08   10.60
  -3  -2   4  176.78   12.90
  -2  -2   4   75.19    5.70
  -2  -2   4   64.39    7.90
  -2  -2   4   87.69    6.60
  -1   2  -4  139.99    9.30
   1  -2   4  147.39    9.00
   1  -2   4  158.38    9.50
  -2   2  -4    2.40    6.30
  -2   2  -4   -2.60    5.00
   2  -2   4    5.80    5.60
  -3   2  -4   15.60    8.00
   3  -2   4    9.60    7.00
  -4   2  -4   70.79   11.70
   4  -2   4   53.39   10.60
  -5   2  -4   31.50   14.40
   5  -2   4    3.10   11.50
  -6  -1   4   26.80   14.20
   5   1  -4   49.90   10.20
  -5  -1   4   50.19   11.80
   4   1  -4   38.10    8.00
  -4  -1   4   47.10    9.00
   3   1  -4  145.99   10.70
   3   1  -4  153.58   11.00
  -3  -1   4  142.39    9.90
   2   1  -4  138.29   10.00
   2   1  -4  149.69    8.50
  -2  -1   4  145.59   10.00
  -2  -1   4  132.29    8.90
  -2  -1   4  131.59    8.60
   1   1  -4 1423.16   48.20
   1   1  -4 1381.76   48.10
  -1  -1   4 1401.36   48.20
  -1  -1   4 1417.56   48.40
   0   1  -4  103.09    6.00
   0   1  -4  101.89    5.80
   0  -1   4  103.89    6.20
   0  -1   4  105.69    6.00
  -1   1  -4   15.40    4.70
  -1   1  -4   13.00    4.40
   1  -1   4    7.20    4.10
   1  -1   4   22.60    4.80
  -2   1  -4  508.05   19.80
  -2   1  -4  476.15   19.90
   2  -1   4  475.65   19.40
   2  -1   4  477.65   19.60
  -3   1  -4   -0.90    7.20
   3  -1   4   -7.10    6.50
  -4   1  -4   58.29   10.60
   4  -1   4   68.29    9.90
  -5   1  -4   -1.60   12.80
   5  -1   4   26.40   11.20
  -6   1  -4   29.50   16.50
   6  -1   4   19.80   13.80
  -6   0   4   17.30   16.60
   5   0  -4    0.20    9.80
  -5   0   4   20.60   12.00
   4   0  -4  392.56   19.40
   4   0  -4  384.06   19.40
  -4   0   4  387.46   20.30
   3   0  -4   28.80    6.20
   3   0  -4   21.40    7.10
  -3   0   4   25.10    7.70
   2   0  -4  317.27   14.40
   2   0  -4  322.77   13.70
  -2   0   4  320.57   15.00
  -2   0   4  315.47   14.10
   1   0  -4 3305.57  110.49
   1   0  -4 3144.79  110.49
  -1   0   4 3328.47  110.69
  -1   0   4 3262.97  110.49
   0   0  -4    2.20    2.20
   0   0  -4    4.80    2.90
   0   0   4   -0.50    2.50
   0   0   4    1.80    2.50
  -1   0  -4  151.58    9.10
  -1   0  -4  146.39    8.40
  -1   0  -4  156.08    8.70
   1   0   4  152.88    8.40
   1   0   4  145.89    8.90
   1   0   4  154.18    8.80
  -2   0  -4  570.14   21.80
  -2   0  -4  547.55   22.20
  -2   0  -4  578.04   22.20
   2   0   4  586.54   22.00
   2   0   4  554.24   22.50
  -3   0  -4    9.80    6.80
   3   0   4    3.70    6.30
  -4   0  -4   30.10    9.10
   4   0   4   41.40    8.60
  -5   0  -4  133.49   14.80
   5   0   4  147.49   14.10
  -6   0  -4   17.70   14.60
   6  -1  -4   -6.90   13.60
  -6   1   4  -14.20   16.30
   5  -1  -4   51.29   12.60
  -5   1   4   52.69   14.20
   4  -1  -4   52.99   10.10
  -4   1   4   64.49   10.90
   3  -1  -4    1.10    6.90
  -3   1   4   16.80    7.70
   2  -1  -4  491.65   20.20
  -2   1   4  515.35   20.90
   1  -1  -4 1308.77   46.00
   1  -1  -4 1320.57   45.90
  -1   1   4 1320.27   45.70
  -1   1   4 1337.17   46.10
   0  -1  -4  473.25   16.80
   0  -1  -4  488.75   16.90
   0  -1  -4  449.16   16.60
   0   1   4  431.06   16.60
  -1  -1  -4   78.09    5.40
  -1  -1  -4   75.79    5.80
  -1  -1  -4   82.69    5.00
   1   1   4   74.19    5.20
   1   1   4   60.59    6.00
   1   1   4   69.39    6.20
   1   1   4   82.19    4.90
  -2  -1  -4    9.70    4.50
  -2  -1  -4   11.30    5.30
  -2  -1  -4    4.20    5.50
   2   1   4    9.20    5.50
   2   1   4   15.10    4.90
   2   1   4   14.00    6.20
  -3  -1  -4  169.88   11.10
  -4  -1  -4   13.10    7.90
   4   1   4   -6.70    6.70
  -5  -1  -4   47.10   11.00
   5   1   4   26.00    9.40
  -6  -1  -4   13.40   14.10
   5  -2  -4   31.00   12.90
  -5   2   4   59.89   15.10
   4  -2  -4  100.79   12.30
  -4   2   4  100.99   13.10
   3  -2  -4   14.90    7.60
  -3   2   4   17.20    8.20
   2  -2  -4 1275.37   45.00
  -2   2   4 1237.08   45.00
   1  -2  -4   -7.50    4.60
   1  -2  -4    6.50    4.80
  -1   2   4    1.80    5.20
  -1  -2  -4 1911.91   65.39
  -1  -2  -4 1894.71   66.29
   1   2   4 1897.11   65.59
  -2  -2  -4   62.89    6.90
  -2  -2  -4   49.50    6.10
  -2  -2  -4   66.59    5.30
  -2  -2  -4   56.09    5.80
   2   2   4   58.29    7.10
   2   2   4   63.29    7.00
  -3  -2  -4  119.59    7.80
  -3  -2  -4  116.99    8.60
   3   2   4  111.89    7.20
  -4  -2  -4   55.39    8.80
  -5  -2  -4   29.50    9.80
  -6  -2  -4    5.80   13.30
   5  -3  -4   35.40   14.10
  -5   3   4   40.50   14.90
   4  -3  -4   16.40   10.70
  -4   3   4   13.00   11.80
   3  -3  -4   23.40    8.40
  -3   3   4   13.40    8.70
   2  -3  -4   12.30    6.30
  -2   3   4    5.20    6.40
   1  -3  -4   -0.60    4.60
   1  -3  -4    5.00    4.60
  -1  -3  -4   72.19    7.40
  -2  -3  -4    9.80    5.90
  -2  -3  -4    8.30    4.70
   2   3   4    6.00    5.90
  -3  -3  -4  177.08   10.40
  -3  -3  -4  147.39    9.20
  -4  -3  -4   54.29    8.50
  -5  -3  -4   10.30    8.60
   4  -4  -4   19.50   11.70
   3  -4  -4    9.90    9.20
  -3   4   4   10.10    9.50
   2  -4  -4  492.05   21.40
   1  -4  -4   53.89    6.20
   1  -4  -4   57.69    6.40
  -1  -4  -4  163.88   12.30
  -2  -4  -4  134.69   11.10
  -2  -4  -4  158.38    9.50
  -3  -4  -4  180.78   14.10
  -4  -4  -4   36.50    7.30
  -5  -4  -4   16.40    8.70
   4  -5  -4   -1.70   11.80
   3  -5  -4   46.40   10.50
   2  -5  -4    4.50    7.80
  -1  -5  -4   32.30    8.40
  -2  -5  -4    0.90    7.20
  -3  -5  -4   43.00   10.60
   3  -6  -4   57.19   12.10
   2  -6  -4   36.30    9.60
  -1  -6  -4   29.80   10.00
  -2  -6  -4   50.39   10.60
  -3  -6  -4   60.29   13.30
  -1  -7  -4   67.79   13.40
  -3  -6   5  135.59   17.50
  -2  -6   5   55.39   12.90
   1  -6   5   70.09   10.80
   2  -6   5   77.09   12.10
   3  -6   5   75.09   15.30
  -4  -5   5   -9.20   12.30
  -3  -5   5  107.89   14.30
  -2  -5   5   -0.60    9.70
   1  -5   5   46.80    7.80
   2  -5   5   29.00    9.30
   3  -5   5    6.20   10.20
   4  -5   5   -6.80   12.00
  -5  -4   5   98.49   12.20
  -4  -4   5    4.90    7.40
  -4  -4   5   -1.60   10.80
  -3  -4   5    9.20    9.80
  -2  -4   5   82.79   11.00
  -2  -4   5   90.79    6.80
   1  -4   5   34.50    6.30
   1  -4   5   18.70    5.70
   2  -4   5  226.78   14.00
  -3   4  -5   13.80    9.80
   3  -4   5   20.60    9.20
   4  -4   5   18.20   11.40
  -5  -3   5   18.20    9.80
  -4  -3   5   69.69    9.50
  -3  -3   5   22.70    5.60
  -3  -3   5   14.20    8.50
  -2  -3   5   20.20    4.60
  -2  -3   5   25.60    7.40
   1  -3   5  120.29    8.10
   1  -3   5  127.99    8.00
  -2   3  -5    9.50    6.70
   2  -3   5    5.70    6.00
  -3   3  -5  175.88   13.10
  -3   3  -5  200.98   13.40
   3  -3   5  214.08   14.50
  -4   3  -5   68.79   12.80
   4  -3   5   69.89   11.80
  -5   3  -5    2.80   14.60
   5  -3   5   12.90   13.20
  -6  -2   5   57.09   14.60
  -5  -2   5   22.30   11.30
   4   2  -5  497.35   21.00
  -4  -2   5  487.75   23.00
  -3  -2   5   19.70    5.70
  -3  -2   5   25.00    7.30
  -3  -2   5   24.80    6.90
  -2  -2   5   85.09    8.30
  -2  -2   5  101.39    7.20
  -2  -2   5  106.79    7.50
   0  -2   5    9.40    3.80
  -1   2  -5   24.00    5.40
   1  -2   5   22.60    5.10
   1  -2   5   22.60    5.20
  -2   2  -5 1065.89   37.80
  -2   2  -5 1032.10   38.50
   2  -2   5 1059.29   37.80
   2  -2   5 1070.19   38.40
  -3   2  -5    3.30    8.10
   3  -2   5   10.10    7.10
  -4   2  -5   -0.10   10.40
   4  -2   5    2.40    8.90
  -5   2  -5  217.08   20.20
   5  -2   5  230.08   18.60
  -6  -1   5    9.00   14.70
   5   1  -5   -4.60    8.80
  -5  -1   5   -6.10   10.50
   4   1  -5  106.29    9.90
  -4  -1   5  105.19   11.00
   3   1  -5   -2.50    6.00
   3   1  -5    1.10    6.00
  -3  -1   5    1.10    6.70
   2   1  -5   47.20    5.80
  -2  -1   5   45.40    6.30
  -2  -1   5   39.90    5.50
  -2  -1   5   42.40    6.10
   1   1  -5 1222.58   41.40
   1   1  -5 1186.48   41.40
  -1  -1   5 1174.08   41.60
  -1  -1   5 1184.08   41.40
  -1  -1   5 1223.68   41.60
   0   1  -5  287.87   11.40
   0   1  -5  280.47   11.70
   0  -1   5  300.17   11.70
   0  -1   5  294.47   11.70
  -1   1  -5  161.18   10.00
  -1   1  -5  150.08    8.80
   1  -1   5  153.58    9.10
   1  -1   5  153.78    8.70
  -2   1  -5  467.65   20.00
  -2   1  -5  483.35   19.50
   2  -1   5  491.25   19.70
   2  -1   5  483.05   19.60
  -3   1  -5   43.30    8.20
   3  -1   5   55.09    7.70
  -4   1  -5    7.60    9.50
   4  -1   5   -8.20    8.20
  -5   1  -5  201.88   17.00
   5  -1   5  228.28   16.90
  -6   1  -5   65.09   18.50
   6  -1   5   36.20   14.40
  -6   0   5   15.30   15.60
   5   0  -5    7.10   10.30
  -5   0   5   12.40   11.40
   4   0  -5  439.26   20.20
   4   0  -5  413.36   20.50
  -4   0   5  388.96   21.00
   3   0  -5    2.00    6.70
   3   0  -5    2.30    5.60
  -3   0   5  -14.70    7.10
   2   0  -5  338.67   15.30
   2   0  -5  356.76   14.70
  -2   0   5  345.47   16.00
   1   0  -5  257.87   11.30
   1   0  -5  228.68   11.20
  -1   0   5  233.98   11.00
  -1   0   5  288.57   12.00
   0   0  -5  487.25   16.60
   0   0  -5  445.96   16.90
   0   0   5  455.05   16.70
   0   0   5  439.96   16.80
  -1   0  -5 1333.67   46.10
  -1   0  -5 1354.06   46.10
  -1   0  -5 1278.67   45.90
   1   0   5 1272.47   45.90
   1   0   5 1391.86   46.00
  -2   0  -5  368.76   15.20
  -2   0  -5  356.16   15.70
  -2   0  -5  350.26   15.80
   2   0   5  359.06   15.60
   2   0   5  350.66   16.30
  -3   0  -5  182.18   12.30
   3   0   5  175.48   12.60
   3   0   5  170.48   11.90
  -4   0  -5  139.49   11.80
   4   0   5  139.49   11.20
  -5   0  -5   -3.50   11.40
   5   0   5   17.70   10.00
  -6   0  -5   -8.00   15.20
  -6   1   5   -5.80   16.70
   5  -1  -5   36.00   12.30
  -5   1   5   19.80   13.30
   4  -1  -5   95.19   11.40
  -4   1   5  118.19   13.00
   3  -1  -5   12.00    6.90
  -3   1   5    3.10    7.50
   2  -1  -5  841.22   31.20
  -2   1   5  848.12   31.60
   1  -1  -5  390.16   15.80
   1  -1  -5  379.76   15.90
  -1   1   5  379.26   15.40
  -1   1   5  420.16   16.30
   0  -1  -5  132.49    6.80
   0  -1  -5  125.09    7.10
   0  -1  -5  114.79    7.30
   0   1   5  112.29    7.20
   0   1   5  111.49    6.90
  -1  -1  -5  237.58   11.30
  -1  -1  -5  300.97   10.80
  -1  -1  -5  233.38   11.60
   1   1   5  235.68   11.90
   1   1   5  272.47   11.00
  -2  -1  -5   24.00    5.80
  -2  -1  -5   36.00    5.20
  -2  -1  -5   21.90    5.70
   2   1   5   38.80    6.20
   2   1   5   39.40    5.40
   2   1   5   32.20    6.80
  -3  -1  -5   70.29    7.30
   3   1   5   57.99    7.80
   3   1   5   62.89    7.10
   3   1   5   53.39    7.80
  -4  -1  -5  551.54   24.10
   4   1   5  576.14   23.80
  -5  -1  -5   89.19   12.50
   5   1   5   95.79   11.00
  -6  -1  -5   12.20   17.50
   5  -2  -5   17.20   13.20
  -5   2   5    9.70   14.10
   4  -2  -5    2.30    9.50
  -4   2   5   -0.10   10.90
   3  -2  -5   16.30    7.60
  -3   2   5   25.70    8.70
   2  -2  -5  687.63   26.50
  -2   2   5  695.33   26.80
   1  -2  -5   27.90    5.30
   1  -2  -5   32.90    5.30
  -1   2   5   20.40    5.70
   0  -2  -5    8.00    3.70
  -1  -2  -5  164.68   10.40
   1   2   5  153.18    9.90
  -2  -2  -5   27.50    4.50
  -2  -2  -5   26.30    5.20
  -2  -2  -5   27.80    5.50
   2   2   5   25.40    6.10
   2   2   5   26.20    6.50
  -3  -2  -5   29.50    5.30
  -3  -2  -5   43.10    6.50
   3   2   5   42.70    7.70
  -4  -2  -5   16.00    7.50
   4   2   5   29.40    6.60
  -5  -2  -5    7.10    9.20
  -6  -2  -5    3.30   13.10
   5  -3  -5  139.89   17.20
  -5   3   5  143.39   17.90
   4  -3  -5   17.80   11.00
  -4   3   5   40.90   12.60
   3  -3  -5   12.10    8.10
  -3   3   5   19.50    8.90
   2  -3  -5  159.28   11.00
  -2   3   5  154.78   11.20
   1  -3  -5   76.69    6.70
   1  -3  -5   83.29    6.60
  -1  -3  -5  932.11   35.50
   1   3   5  962.00   34.10
  -2  -3  -5   -4.20    4.90
  -2  -3  -5    5.70    4.60
   2   3   5    4.20    5.90
  -3  -3  -5   77.09    7.20
  -3  -3  -5   66.09    5.90
  -4  -3  -5   37.10    7.90
  -5  -3  -5   27.50    9.20
   4  -4  -5   17.70   11.50
   3  -4  -5   52.89   10.00
   2  -4  -5   46.40    7.80
   1  -4  -5    2.80    5.10
   1  -4  -5    4.70    5.30
  -1  -4  -5  155.88   11.90
  -2  -4  -5   48.50    7.90
   2   4   5   32.70    7.30
  -3  -4  -5   78.59   10.50
  -4  -4  -5    0.50    6.60
  -5  -4  -5   11.80    8.70
   4  -5  -5   -5.30   12.30
   3  -5  -5  265.17   18.70
   2  -5  -5   -0.60    7.60
  -1  -5  -5   19.60    7.80
  -2  -5  -5  113.99   11.60
  -3  -5  -5   49.30   10.40
   3  -6  -5   28.00   11.20
   2  -6  -5   14.20    8.90
  -1  -6  -5   16.80    9.40
  -2  -6  -5   62.49   11.20
  -3  -6  -5  238.88   18.60
   0  -7  -5   19.80   10.40
  -1  -7  -5   10.40   10.70
  -3  -6   6   34.80   16.40
  -2  -6   6  285.47   22.60
   1  -6   6   74.19   11.00
   2  -6   6   59.49   12.50
   3  -6   6  -12.30   13.70
  -4  -5   6   11.90   12.40
  -3  -5   6   69.69   13.40
  -2  -5   6   35.90   10.90
   1  -5   6  201.48   12.40
   2  -5   6   12.40    9.00
   3  -5   6  711.43   32.40
   4  -5   6   34.40   14.30
  -5  -4   6    3.30    9.20
  -4  -4   6   18.30   11.20
  -4  -4   6   27.30    8.10
  -3  -4   6   55.09   11.10
  -2  -4   6   -3.30    8.60
  -2  -4   6    1.50    3.90
   1  -4   6  138.59    9.30
   1  -4   6  138.59    8.90
   2  -4   6   44.50    8.30
  -3   4  -6    9.20   10.90
   3  -4   6    3.40    9.10
   4  -4   6   -3.80   11.80
  -5  -3   6   22.60   10.70
  -4  -3   6  171.88   12.40
  -3  -3   6  233.98   12.20
  -3  -3   6  221.08   15.80
  -3  -3   6  238.78   13.30
  -2  -3   6   26.30    7.70
   1  -3   6   21.70    5.40
   1  -3   6   20.70    5.40
  -2   3  -6  292.47   14.90
   2  -3   6  306.27   15.00
  -3   3  -6   56.39    9.50
   3  -3   6   79.29    9.70
  -4   3  -6   36.80   13.20
   4  -3   6    8.30   10.00
  -5   3  -6   62.19   16.10
   5  -3   6   49.20   14.40
  -6  -2   6    2.60   14.50
  -5  -2   6  -21.60   10.20
   4   2  -6   63.09    8.00
  -4  -2   6   81.59   10.30
  -3  -2   6  113.19    8.90
  -2  -2   6   23.20    4.70
  -2  -2   6   22.10    5.80
  -2  -2   6   12.10    6.40
   0  -2   6   19.00    4.20
   0  -2   6   16.50    4.10
  -1   2  -6   67.79    6.40
   1  -2   6   81.49    6.60
   1  -2   6   74.09    6.40
  -2   2  -6  556.74   21.80
  -2   2  -6  530.65   20.80
   2  -2   6  543.65   20.90
   2  -2   6  502.85   21.30
  -3   2  -6    4.80    8.00
   3  -2   6    8.40    7.10
  -4   2  -6   11.80   10.50
   4  -2   6   13.70    9.60
  -5   2  -6  188.88   18.80
   5  -2   6  158.08   16.50
  -6  -1   6   23.00   17.70
   5   1  -6   11.10    9.30
  -5  -1   6   26.20   11.40
   4   1  -6    5.90    7.60
  -4  -1   6    8.70    8.90
   3   1  -6   59.49    7.30
   3   1  -6   50.29    7.10
  -3  -1   6   51.49    8.00
   2   1  -6   54.09    6.00
  -2  -1   6   60.79    6.60
  -2  -1   6   51.19    6.00
  -2  -1   6   62.89    6.90
   1   1  -6 1779.02   60.19
   1   1  -6 1731.03   60.19
  -1  -1   6 1771.32   60.49
  -1  -1   6 1757.72   60.29
  -1  -1   6 1758.52   60.39
   0   1  -6  177.38    9.00
   0   1  -6  169.98    8.40
   0  -1   6  181.48    8.80
   0  -1   6  189.38    9.00
  -1   1  -6    9.00    5.40
  -1   1  -6   21.40    4.90
   1  -1   6   15.00    4.50
   1  -1   6   17.30    5.00
   1  -1   6   19.30    5.00
  -2   1  -6  185.58   11.10
  -2   1  -6  183.48   12.10
   2  -1   6  194.98   11.40
   2  -1   6  201.28   11.50
  -3   1  -6   13.30    7.50
   3  -1   6    3.10    6.60
   3  -1   6    9.30    6.90
  -4   1  -6  168.68   13.80
   4  -1   6  200.88   13.70
  -5   1  -6   22.30   12.70
   5  -1   6   38.00   11.70
  -6   1  -6    9.20   16.40
   6  -1   6   -1.80   14.30
  -6   0   6   29.50   15.20
   5   0  -6   15.30   10.50
  -5   0   6    7.60   12.00
   4   0  -6  105.09   10.80
   4   0  -6  104.29   10.40
  -4   0   6  103.09   11.60
   3   0  -6  159.88   11.60
   3   0  -6  147.49   10.30
  -3   0   6  162.38   11.20
   2   0  -6   22.50    6.00
  -2   0   6   30.30    6.80
   1   0  -6  238.68   11.60
   1   0  -6  242.98   11.70
  -1   0   6  298.57   12.30
  -1   0   6  260.27   11.40
   0   0  -6  171.88    9.20
   0   0  -6  168.98    8.30
   0   0   6  175.28    8.90
   0   0   6  174.98    8.70
  -1   0  -6  796.82   28.50
  -1   0  -6  787.32   28.10
   1   0   6  737.13   28.00
   1   0   6  818.22   28.60
   1   0   6  787.32   28.10
  -2   0  -6 1018.10   38.20
  -2   0  -6 1108.79   38.50
   2   0   6 1063.09   38.00
   2   0   6 1056.89   38.70
  -3   0  -6   -2.60    6.80
   3   0   6    7.00    6.60
   3   0   6    5.20    6.40
  -4   0  -6   85.09   10.50
   4   0   6   94.49   10.10
  -5   0  -6   93.89   14.00
   5   0   6   88.19   11.80
  -6   0  -6   15.30   14.60
   5  -1  -6  343.97   22.30
  -5   1   6  315.97   22.70
   4  -1  -6  164.58   13.20
  -4   1   6  141.09   13.30
   3  -1  -6   10.00    7.00
  -3   1   6   23.90    8.20
   2  -1  -6  491.15   19.60
  -2   1   6  464.55   20.20
   1  -1  -6  279.57   12.60
   1  -1  -6  283.07   12.40
  -1   1   6  260.87   12.40
  -1   1   6  272.77   12.90
   0  -1  -6  256.87   10.70
   0  -1  -6  255.27   11.20
   0   1   6  253.67   10.90
   0   1   6  247.18   11.00
  -1  -1  -6  421.16   17.50
  -1  -1  -6  442.96   17.00
   1   1   6  453.05   17.70
   1   1   6  432.26   18.10
   1   1   6  474.25   16.80
   1   1   6  483.65   17.20
  -2  -1  -6  180.48   10.20
  -2  -1  -6  187.68   11.00
  -2  -1  -6  171.48   10.30
   2   1   6  183.08    9.90
   2   1   6  184.08   11.00
   2   1   6  199.48   12.10
  -3  -1  -6    3.50    6.20
   3   1   6    3.00    5.60
   3   1   6    8.50    6.20
   3   1   6    9.80    6.90
  -4  -1  -6  217.18   14.30
   4   1   6  182.08   13.40
  -5  -1  -6   11.90   10.10
   5   1   6   14.10    9.20
  -6  -1  -6   10.20   12.80
   5  -2  -6  -16.20   12.20
  -5   2   6    6.40   14.40
   4  -2  -6    6.30    9.80
  -4   2   6   13.50   10.80
   3  -2  -6   -0.50    7.10
  -3   2   6    8.20    8.50
   2  -2  -6 2653.93   90.89
  -2   2   6 2609.54   90.89
   1  -2  -6   21.00    5.20
   1  -2  -6   10.90    5.20
  -1   2   6   19.20    5.60
   0  -2  -6   -2.10    3.40
   0  -2  -6    7.00    4.30
  -1  -2  -6 2712.33   93.39
   1   2   6 2676.23   93.29
   1   2   6 2739.13   92.89
  -2  -2  -6  457.15   18.00
  -2  -2  -6  455.45   18.90
  -2  -2  -6  478.55   17.90
   2   2   6  462.85   19.70
   2   2   6  449.56   19.50
  -3  -2  -6  229.78   11.80
  -3  -2  -6  246.88   12.90
   3   2   6  254.17   11.80
   3   2   6  240.58   14.90
  -4  -2  -6  299.47   16.80
   4   2   6  313.27   14.90
  -5  -2  -6   -5.70    9.00
  -6  -2  -6   -1.90   12.80
   5  -3  -6   -0.20   13.60
  -5   3   6   20.40   16.50
   4  -3  -6   12.00   10.50
  -4   3   6   22.20   12.30
   3  -3  -6   16.50    8.10
  -3   3   6   24.70    9.40
   2  -3  -6   36.40    6.80
  -2   3   6   39.10    7.40
   1  -3  -6  148.19    9.50
   1  -3  -6  142.99    9.20
  -1  -3  -6   58.39    7.30
   1   3   6   41.10    5.90
  -2  -3  -6   11.20    5.70
  -2  -3  -6   24.20    5.30
   2   3   6   22.80    6.70
  -4  -3  -6  131.19   10.50
  -5  -3  -6   26.70    9.10
   4  -4  -6   -6.60   11.10
   3  -4  -6  200.78   14.60
   2  -4  -6   34.00    7.50
   1  -4  -6   42.40    6.00
   1  -4  -6   41.50    6.30
  -1  -4  -6  147.79   12.10
  -2  -4  -6   39.30    7.50
   2   4   6   20.50    7.00
  -3  -4  -6  544.05   25.40
  -4  -4  -6   22.30    7.00
  -5  -4  -6  159.98   12.30
   4  -5  -6    8.40   12.20
   3  -5  -6    5.20    9.70
   2  -5  -6    7.80    7.70
   1  -5  -6   35.70    6.70
  -1  -5  -6  116.09   11.50
  -2  -5  -6   77.19   10.40
  -3  -5  -6   42.60    9.60
   3  -6  -6   26.50   11.60
   2  -6  -6   24.80    9.10
  -1  -6  -6  109.39   12.80
  -2  -6  -6  122.19   14.20
  -3  -6  -6   -3.20    8.90
   0  -7  -6    7.60   10.30
  -1  -7  -6   20.00   11.00
  -2  -6   7   67.69   14.00
   1  -6   7   19.30    9.80
   2  -6   7    2.90   12.00
   3  -6   7  108.09   17.50
  -4  -5   7   30.20   13.50
  -3  -5   7  235.58   18.80
  -2  -5   7   12.60   10.90
   1  -5   7   13.30    7.50
   2  -5   7   35.50   10.60
   3  -5   7   41.30   11.70
   4  -5   7  -17.40   13.60
  -5  -4   7   35.50   10.20
  -4  -4   7   13.30   11.30
  -4  -4   7   39.70    8.70
  -3  -4   7   87.19   12.50
  -2  -4   7    1.40    9.10
  -2  -4   7   13.10    4.20
   1  -4   7    6.50    6.00
   1  -4   7    5.60    5.80
   2  -4   7  110.99   10.20
   3  -4   7   36.90   10.10
   4  -4   7  -19.00   11.40
  -5  -3   7   54.49   11.10
  -4  -3   7   20.30    8.60
  -3  -3   7   77.39    8.40
  -3  -3   7   95.29    7.80
  -3  -3   7   82.19   10.40
  -2  -3   7    0.40    7.30
   1  -3   7    0.20    5.20
   1  -3   7   -5.20    4.90
  -2   3  -7   18.60    6.90
   2  -3   7   18.50    6.40
  -3   3  -7    9.60    9.40
   3  -3   7    3.30    7.90
  -4   3  -7   30.90   11.80
   4  -3   7   31.60   11.20
  -5   3  -7   30.60   17.50
   5  -3   7   19.70   13.70
  -5  -2   7   14.10   10.40
   4   2  -7  605.84   24.80
  -4  -2   7  629.14   26.50
   3   2  -7   41.30    6.20
  -3  -2   7   75.19    8.10
  -3  -2   7   58.39    8.30
  -3  -2   7   56.39    7.00
  -2  -2   7   15.00    6.40
  -2  -2   7   29.80    6.10
  -2  -2   7   28.90    4.90
  -1  -2   7  218.58   10.50
   0  -2   7    2.20    4.00
   0  -2   7   -2.50    4.10
  -1   2  -7  159.08    9.80
   1  -2   7  160.58    9.80
   1  -2   7  151.78    9.70
  -2   2  -7 2061.09   72.39
   2  -2   7 2016.10   72.19
   2  -2   7 2136.09   71.99
  -3   2  -7  195.78   12.80
   3  -2   7  167.38   12.10
  -4   2  -7   17.00   11.00
   4  -2   7   -2.50    9.30
  -5   2  -7   67.59   15.60
   5  -2   7   57.59   13.60
  -6  -1   7   31.90   17.00
   5   1  -7   25.40   10.00
  -5  -1   7   44.40   12.40
   4   1  -7   47.10    9.70
   4   1  -7   47.20    8.70
  -4  -1   7   53.79    9.90
   3   1  -7   18.90    6.50
  -3  -1   7   10.60    7.30
   2   1  -7   60.79    6.20
  -2  -1   7   48.30    5.80
  -2  -1   7   46.40    6.30
  -2  -1   7   50.89    6.80
   1   1  -7   42.90    5.50
   1   1  -7   41.20    5.30
  -1  -1   7   50.99    5.10
  -1  -1   7   50.59    5.50
   0   1  -7 1184.18   41.90
   0   1  -7 1200.98   41.60
   0  -1   7 1205.28   41.80
   0  -1   7 1221.18   41.90
  -1   1  -7   19.80    5.60
   1  -1   7   25.40    5.30
   1  -1   7   28.00    5.50
   1  -1   7   27.00    5.40
  -2   1  -7  124.29    9.20
  -2   1  -7  130.19    9.80
   2  -1   7  117.09    8.60
   2  -1   7  135.99    8.90
  -3   1  -7   87.09    9.30
   3  -1   7   89.49    8.80
   3  -1   7   77.29    8.70
  -4   1  -7  101.89   12.10
   4  -1   7  110.69   11.20
  -5   1  -7   90.99   15.30
   5  -1   7   84.09   13.30
  -6   1  -7   29.20   17.70
   6  -1   7   29.10   14.30
  -6   0   7   27.40   17.30
   5   0  -7   77.39   12.90
  -5   0   7   57.49   13.50
   4   0  -7  104.49   10.70
   4   0  -7  118.79   11.20
  -4   0   7  102.69   11.90
   3   0  -7  184.88   11.10
   3   0  -7  188.08   12.20
  -3   0   7  173.98   11.90
   2   0  -7  462.85   18.90
  -2   0   7  461.35   19.40
   1   0  -7  331.47   14.00
   1   0  -7  329.87   13.80
   1   0  -7  320.97   13.90
  -1   0   7  320.97   13.70
  -1   0   7  338.77   14.60
   0   0  -7  456.55   17.80
   0   0  -7  469.75   17.30
   0   0   7  455.75   17.70
   0   0   7  447.96   17.50
  -1   0  -7  258.97   12.40
  -1   0  -7  241.28   11.60
   1   0   7  256.97   11.80
   1   0   7  273.97   12.60
   1   0   7  258.37   11.90
  -2   0  -7   50.89    6.30
  -2   0  -7   50.19    7.00
   2   0   7   47.20    6.90
   2   0   7   55.79    6.60
  -3   0  -7   24.80    7.30
   3   0   7   25.40    7.30
   3   0   7   21.20    6.60
  -4   0  -7  150.78   11.90
   4   0   7  161.98   12.30
  -5   0  -7   32.20   11.80
   5   0   7   29.10   11.50
  -6   0  -7   -3.10   14.10
   5  -1  -7   96.69   14.30
  -5   1   7  104.99   15.60
   4  -1  -7   47.60   10.80
   4  -1  -7   48.60    9.10
  -4   1   7   74.59   11.90
   3  -1  -7   -1.00    7.10
  -3   1   7    9.10    7.90
   2  -1  -7  483.35   19.70
  -2   1   7  477.25   20.10
   1  -1  -7  148.09    9.30
   1  -1  -7  132.39    8.10
  -1   1   7  138.29    8.60
   0  -1  -7  481.15   18.10
   0  -1  -7  488.95   18.50
   0   1   7  499.25   18.30
   0   1   7  468.35   18.20
  -1  -1  -7  556.64   21.60
  -1  -1  -7  561.44   22.10
   1   1   7  622.14   22.80
   1   1   7  610.74   22.20
   1   1   7  607.54   21.70
   1   1   7  599.94   21.50
  -2  -1  -7  247.08   11.60
  -2  -1  -7  238.68   12.40
  -2  -1  -7  214.88   12.00
   2   1   7  224.08   11.10
   2   1   7  245.28   13.20
  -3  -1  -7    2.20    6.00
   3   1   7   -1.60    7.00
   3   1   7    0.40    5.60
   3   1   7    2.00    6.10
  -4  -1  -7  552.04   24.20
   4   1   7  557.24   23.70
  -5  -1  -7   69.49   11.80
   5   1   7   82.59   10.50
  -6  -1  -7   35.80   13.20
   5  -2  -7    1.80   12.80
  -5   2   7    8.40   14.10
   4  -2  -7   25.20   10.50
  -4   2   7   -2.20   11.00
   3  -2  -7  141.29   11.20
  -3   2   7  148.99   11.90
   2  -2  -7  342.87   15.30
  -2   2   7  309.27   15.90
   1  -2  -7   51.09    6.20
   1  -2  -7   66.19    6.30
  -1   2   7   60.29    6.50
   0  -2  -7    2.10    4.50
   0  -2  -7    5.80    3.70
   0  -2  -7   -3.00    4.60
  -1  -2  -7   57.99    5.50
  -1  -2  -7   52.19    6.80
   1   2   7   57.99    6.40
   1   2   7   58.09    6.30
  -2  -2  -7    1.50    4.30
  -2  -2  -7   -7.10    4.90
  -2  -2  -7   -0.70    5.00
   2   2   7   10.90    6.50
   2   2   7    2.00    5.20
  -3  -2  -7  226.98   12.50
  -3  -2  -7  225.48   11.80
   3   2   7  241.98   11.80
   3   2   7  234.58   14.80
  -4  -2  -7   98.39    9.50
   4   2   7   68.49    7.30
  -5  -2  -7    8.20    9.80
  -6  -2  -7   20.20   13.80
   5  -3  -7   25.00   14.60
  -5   3   7   -4.50   16.50
   4  -3  -7   25.20   11.50
  -4   3   7    6.30   11.70
   3  -3  -7  439.36   21.20
  -3   3   7  450.85   22.00
   2  -3  -7  113.49    8.90
  -2   3   7   93.19    8.70
   1  -3  -7   13.70    5.30
   1  -3  -7    6.40    5.20
   0  -3  -7 1852.61   63.69
  -2  -3  -7   74.09    8.20
   2   3   7   94.79    8.50
  -3  -3  -7    5.50    4.70
  -3  -3  -7    3.90    5.80
   3   3   7    7.60    7.60
  -4  -3  -7   23.70    7.70
  -5  -3  -7   37.50    9.30
   4  -4  -7   20.90   11.80
   3  -4  -7    0.10    8.80
   2  -4  -7   16.30    7.30
  -2   4   7   12.40    7.00
   1  -4  -7   36.90    6.40
   1  -4  -7   38.40    6.30
  -1  -4  -7   19.60    7.10
  -2  -4  -7    6.60    7.10
   2   4   7   12.80    6.50
  -4  -4  -7   10.40    7.00
  -5  -4  -7   34.10    9.50
   4  -5  -7   29.40   12.50
   3  -5  -7  125.09   13.30
   2  -5  -7   59.69    9.20
   1  -5  -7   14.90    6.20
  -1  -5  -7  195.48   14.90
  -2  -5  -7  324.77   19.20
  -3  -5  -7   95.69   11.60
   2  -6  -7   24.30    9.00
   0  -6  -7   12.60    9.20
  -1  -6  -7   10.80    9.30
  -2  -6  -7   31.30   10.60
  -3  -6  -7   32.20   11.20
   0  -7  -7   -8.40    9.40
  -1  -7  -7   33.70   11.90
  -2  -6   8   94.49   15.60
   1  -6   8   87.39   11.70
   2  -6   8   -1.90   11.60
  -4  -5   8  158.18   18.10
  -3  -5   8   44.90   12.60
   1  -5   8  141.99   11.00
   2  -5   8  168.88   13.60
   3  -5   8  102.39   14.30
   4  -5   8   -1.40   14.00
  -5  -4   8    0.00    9.30
  -4  -4   8  182.38   12.90
  -4  -4   8  211.28   17.20
  -3  -4   8    2.00    9.70
   1  -4   8   54.39    7.10
   1  -4   8   21.50    6.20
  -2   4  -8   90.79    8.50
   2  -4   8   90.79   10.00
   3  -4   8   25.10    9.40
   4  -4   8   -2.80   11.60
  -5  -3   8   15.80   10.60
  -4  -3   8   11.30    8.50
  -3  -3   8   90.19    8.90
  -3  -3   8   89.89    8.30
  -3  -3   8  100.79   10.90
  -2  -3   8  400.36   19.90
  -1   3  -8  266.67   12.40
   1  -3   8  287.27   13.40
   1  -3   8  283.77   13.30
  -2   3  -8  265.57   14.10
   2  -3   8  253.87   14.10
  -3   3  -8   37.20    9.70
   3  -3   8   35.60    8.90
  -4   3  -8   -1.00   12.30
   4  -3   8   45.60   11.50
  -5   3  -8  139.39   22.10
   5  -3   8  155.18   17.90
  -5  -2   8   36.30   11.30
   4   2  -8  116.79    9.70
  -4  -2   8  118.19   11.70
  -3  -2   8   74.49    8.20
  -3  -2   8   57.69    8.30
   2   2  -8  196.08   10.00
  -2  -2   8  214.28   11.80
  -2  -2   8  180.78   12.20
  -2  -2   8  226.88   10.50
  -1  -2   8  121.69    7.60
  -1  -2   8  110.89    7.30
   0   2  -8  180.18    9.10
   0  -2   8  169.98    9.60
   0  -2   8  179.98    9.30
  -1   2  -8  129.39    9.40
   1  -2   8  144.59    9.60
   1  -2   8  134.69    9.40
   1  -2   8  142.59    8.80
  -2   2  -8  118.59    9.50
   2  -2   8  130.09    9.80
   2  -2   8  134.69    9.20
  -3   2  -8  242.78   14.70
   3  -2   8  197.38   14.00
   3  -2   8  201.68   14.20
  -4   2  -8   -9.70   10.70
   4  -2   8   12.90    9.60
  -5   2  -8   37.80   15.30
   5  -2   8   24.50   12.90
  -6  -1   8   63.19   15.90
   5   1  -8  240.38   15.90
  -5  -1   8  202.38   17.30
   4   1  -8    1.90    7.80
  -4  -1   8   -1.10    8.70
   3   1  -8    1.80    6.10
  -3  -1   8   -9.90    6.70
   2   1  -8  775.62   28.40
  -2  -1   8  759.72   28.40
  -2  -1   8  756.62   28.80
  -2  -1   8  794.52   28.70
   1   1  -8    4.50    4.80
  -1  -1   8    9.60    5.00
  -1  -1   8   -1.60    4.50
   0   1  -8   43.90    4.70
   0   1  -8   62.89    6.00
   0  -1   8   50.09    5.40
   0  -1   8   51.39    5.60
  -1   1  -8 1284.17   46.20
   1  -1   8 1298.57   46.20
   1  -1   8 1334.97   46.30
   1  -1   8 1345.17   46.30
  -2   1  -8  319.07   15.80
  -2   1  -8  316.77   14.70
   2  -1   8  303.17   15.00
   2  -1   8  320.17   14.80
  -3   1  -8   -4.00    7.40
   3  -1   8   10.40    7.00
   3  -1   8    2.10    6.90
  -4   1  -8  526.35   24.40
   4  -1   8  468.05   23.40
  -5   1  -8   60.29   14.40
   5  -1   8   49.80   11.90
  -6   1  -8    3.80   16.00
   6  -1   8   17.70   17.90
  -6   0   8   13.30   16.20
   5   0  -8  -11.70   10.30
  -5   0   8   13.90   12.40
   4   0  -8   -0.10    7.60
   4   0  -8   -1.20    8.60
  -4   0   8   -8.40    9.30
   3   0  -8   86.99    8.70
  -3   0   8   85.99    9.30
   2   0  -8   91.09    7.60
  -2   0   8   88.39    8.20
   1   0  -8  193.68   10.30
   1   0  -8  159.28    9.60
  -1   0   8  178.88    9.90
  -1   0   8  194.68   10.90
   0   0  -8   29.70    4.60
   0   0  -8   24.10    5.50
   0   0   8   35.10    5.40
   0   0   8   32.00    5.20
  -1   0  -8   57.89    5.70
  -1   0  -8   63.69    6.40
   1   0   8   49.99    5.80
   1   0   8   53.39    6.50
   1   0   8   49.50    6.00
  -2   0  -8  183.48   11.90
  -2   0  -8  195.88   11.50
   2   0   8  193.48   11.40
   2   0   8  197.98   12.00
  -3   0  -8   53.59    8.20
   3   0   8   40.30    7.30
   3   0   8   55.19    8.50
  -4   0  -8  323.87   18.20
   4   0   8  334.87   18.10
  -5   0  -8   18.50   12.20
   5   0   8   18.60   10.30
  -6   0  -8    0.10   15.30
   5  -1  -8  230.08   18.10
  -5   1   8  227.78   19.70
   4  -1  -8   88.89    9.80
   4  -1  -8   73.49   11.20
  -4   1   8   95.69   12.70
   3  -1  -8   -6.60    6.60
  -3   1   8    7.10    8.20
   2  -1  -8 1003.20   36.60
  -2   1   8  999.40   36.90
   1  -1  -8    3.20    4.80
   0  -1  -8  160.18    9.40
   0  -1  -8  157.28    8.60
   0   1   8  168.58    8.80
   0   1   8  155.98    9.30
   0   1   8  158.18    8.90
  -1  -1  -8  101.69    7.00
  -1  -1  -8   87.49    6.00
   1   1   8  104.99    7.80
   1   1   8   94.29    6.70
   1   1   8   99.29    6.30
  -2  -1  -8    9.80    5.90
  -2  -1  -8   14.90    5.20
  -2  -1  -8   15.20    5.60
   2   1   8   14.10    6.00
   2   1   8   23.10    5.40
  -3  -1  -8    4.30    6.60
   3   1   8   20.60    7.80
   3   1   8    5.20    5.70
  -4  -1  -8   18.30    8.20
   4   1   8   10.30    7.30
   4   1   8    4.30    9.20
  -5  -1  -8   -6.50    9.90
   5   1   8   10.70    9.70
  -6  -1  -8   44.50   14.00
   5  -2  -8   -1.70   12.50
  -5   2   8  -21.60   14.30
   4  -2  -8  -10.50    9.50
  -4   2   8   12.90   11.60
   3  -2  -8  149.29   11.60
  -3   2   8  174.68   12.60
   2  -2  -8   17.70    6.30
  -2   2   8    4.10    7.00
   1  -2  -8  143.19    8.70
   1  -2  -8  152.28    9.70
  -1   2   8  148.09    9.90
   0  -2  -8  157.08    9.50
   0  -2  -8  162.18    8.20
   0  -2  -8  137.89    9.00
   0   2   8  145.19    8.50
  -1  -2  -8  123.29    7.40
  -1  -2  -8  105.99    8.40
  -1  -2  -8  100.39    6.90
   1   2   8  134.49    8.30
   1   2   8  133.39    8.70
  -2  -2  -8  115.29    8.20
  -2  -2  -8  110.19    8.00
  -2  -2  -8  119.09    7.40
   2   2   8  116.59    9.40
   2   2   8   98.49    8.70
  -3  -2  -8  991.30   36.20
  -3  -2  -8  941.81   35.70
   3   2   8  990.50   38.10
   3   2   8 1001.10   35.50
  -4  -2  -8   80.19    9.10
   4   2   8   63.79    7.50
   4   2   8   79.99   11.40
  -5  -2  -8    3.80    9.70
  -6  -2  -8    0.10   11.80
   5  -3  -8    0.10   13.90
  -5   3   8   14.90   17.90
   4  -3  -8  111.09   13.90
  -4   3   8  130.29   14.50
   3  -3  -8  363.86   19.10
  -3   3   8  366.86   19.80
   2  -3  -8   13.30    6.30
  -2   3   8   18.30    7.10
   1  -3  -8    5.00    5.10
   1  -3  -8   10.00    5.40
  -1   3   8   20.30    5.30
   0  -3  -8  127.49    8.80
   0  -3  -8  149.69    7.80
   0  -3  -8  140.49   10.20
  -1  -3  -8   10.30    6.20
   1   3   8   11.80    5.30
  -2  -3  -8    5.60    5.90
   2   3   8   15.90    6.80
  -3  -3  -8   16.70    5.00
  -3  -3  -8   20.00    6.20
   3   3   8   39.60    8.30
  -4  -3  -8   24.10    7.80
  -5  -3  -8   16.80    9.20
   4  -4  -8   -2.30   11.40
   3  -4  -8   37.40    9.70
   2  -4  -8  238.78   14.40
  -2   4   8  264.27   14.40
   1  -4  -8  164.58   10.80
   1  -4  -8  180.98   11.00
   0  -4  -8  292.77   15.70
  -1  -4  -8   46.50    7.70
  -2  -4  -8    4.80    7.10
   2   4   8   21.50    7.20
   3   4   8   43.70    9.70
  -4  -4  -8   56.99    8.10
  -5  -4  -8  343.47   18.90
   3  -5  -8   -2.10   10.20
   2  -5  -8   26.00    8.40
   0  -5  -8   44.40    8.80
  -1  -5  -8   10.20    7.90
  -2  -5  -8   33.50    9.30
   2   5   8   35.70    8.50
  -3  -5  -8   27.70    9.00
   2  -6  -8    5.80    8.80
   0  -6  -8   64.09   10.90
  -1  -6  -8   98.39   12.50
  -2  -6  -8   70.89   12.30
  -3  -6  -8   29.80   11.10
   0  -7  -8   59.29   11.80
  -1  -7  -8   14.40   11.10
  -2  -6   9   34.70   13.50
   2  -6   9   19.50   11.90
  -4  -5   9   55.99   15.00
  -3  -5   9  282.67   21.80
   1  -5   9   86.59    9.80
   2  -5   9   89.79   11.60
   3  -5   9    9.70   11.70
  -5  -4   9   30.90   10.40
  -4  -4   9   71.19   13.10
  -4  -4   9   62.39    9.60
  -3  -4   9    2.00   10.00
   1  -4   9   28.90    6.80
   1  -4   9    8.20    6.20
  -2   4  -9  837.82   31.80
   2  -4   9  851.61   33.10
   3  -4   9   76.19   11.40
   4  -4   9   54.69   13.00
  -5  -3   9   35.90   11.20
  -4  -3   9   34.40    9.30
  -3  -3   9   36.00    8.80
  -3  -3   9   24.30    7.50
  -3  -3   9   38.90    9.30
  -2  -3   9  265.17   13.30
   0  -3   9  407.86   16.30
  -1   3  -9   22.20    5.50
   1  -3   9   31.60    6.20
   1  -3   9   16.10    5.90
  -2   3  -9   46.80    7.50
   2  -3   9   33.10    7.20
  -3   3  -9   19.50    9.30
   3  -3   9   44.50    9.00
  -4   3  -9   48.40   13.10
   4  -3   9   63.59   11.90
  -5   3  -9   19.00   16.00
   5  -3   9   -2.00   14.60
  -5  -2   9  183.48   15.60
   4   2  -9  110.69   10.00
  -4  -2   9  126.19   11.60
   3   2  -9   43.00    6.50
  -3  -2   9   28.20    8.10
  -3  -2   9   55.79    8.00
  -2  -2   9  167.48   11.00
  -2  -2   9  159.88    9.50
  -2  -2   9  144.69   11.00
  -1  -2   9   35.40    5.60
  -1  -2   9   38.00    4.90
   0   2  -9  141.59    8.40
   0  -2   9  132.89    8.90
   0  -2   9  135.09    8.60
  -1   2  -9  983.70   36.30
   1  -2   9 1028.40   36.60
   1  -2   9 1035.40   36.60
  -2   2  -9   49.40    7.70
   2  -2   9   39.80    6.50
   2  -2   9   35.70    6.80
  -3   2  -9   23.30    8.70
   3  -2   9   18.10    7.70
   3  -2   9   20.00    7.50
  -4   2  -9   39.90   12.10
   4  -2   9   28.10   10.30
  -5   2  -9   21.10   14.70
   5  -2   9    2.40   12.40
   5   1  -9  103.69   17.70
  -5  -1   9   98.59   14.10
   4   1  -9    8.90    8.00
  -4  -1   9   27.90    9.80
   3   1  -9    1.00    6.10
  -3  -1   9    8.70    7.10
   2   1  -9   30.40    5.80
  -2  -1   9   49.70    7.30
  -2  -1   9   28.30    5.70
  -2  -1   9   35.10    5.80
   1   1  -9   42.20    5.60
  -1  -1   9   28.30    5.60
  -1  -1   9   33.00    5.20
   0   1  -9  195.98   10.90
   0  -1   9  220.98   10.60
   0  -1   9  197.58   10.60
  -1   1  -9    5.10    5.70
   1  -1   9   15.30    5.70
   1  -1   9    4.70    5.30
  -2   1  -9  330.87   16.30
   2  -1   9  330.37   15.40
   2  -1   9  327.27   15.60
  -3   1  -9   28.70    8.30
   3  -1   9   29.60    7.30
   3  -1   9   17.20    7.70
  -4   1  -9  148.29   13.70
   4  -1   9  143.89   12.60
  -5   1  -9  234.48   17.90
   5  -1   9  237.08   17.90
  -6   1  -9    4.80   16.40
   5   0  -9  -10.00   10.50
  -5   0   9   -4.50   12.60
   4   0  -9    1.90    7.70
   4   0  -9   17.60    9.10
  -4   0   9    3.10    9.70
  -3   0   9  385.26   18.90
   2   0  -9  957.20   34.60
  -2   0   9  926.81   34.80
   1   0  -9   83.99    7.10
  -1   0   9   92.29    7.40
  -1   0   9   71.29    6.40
   0   0  -9  806.62   29.30
   0   0  -9  801.02   28.90
   0   0   9  815.32   29.20
   0   0   9  803.82   29.10
  -1   0  -9  576.74   21.70
  -1   0  -9  590.94   22.20
   1   0   9  550.74   21.80
  -2   0  -9  192.08   12.30
   2   0   9  191.48   12.30
   2   0   9  199.78   11.40
  -3   0  -9  234.08   14.50
   3   0   9  245.98   13.90
   3   0   9  271.57   15.70
  -4   0  -9   37.90    9.40
   4   0   9   35.30   10.40
   4   0   9   42.80    8.80
  -5   0  -9   47.70   12.40
   5   0   9   35.40   10.80
  -6   0  -9    2.50   17.70
   5  -1  -9   -7.70   12.00
  -5   1   9   11.10   14.70
   4  -1  -9   19.30    9.80
  -4   1   9   23.00   11.00
   3  -1  -9   22.00    7.80
  -3   1   9   44.00    8.90
   2  -1  -9   37.40    6.70
  -2   1   9   41.10    7.40
   1  -1  -9    7.00    5.10
   0  -1  -9   48.20    5.20
   0  -1  -9   63.19    6.30
   0   1   9   51.89    5.60
   0   1   9   56.79    6.20
  -1  -1  -9  242.98   11.90
  -1  -1  -9  212.58   10.70
   1   1   9  242.58   12.60
   1   1   9  233.48   10.80
  -2  -1  -9  306.27   13.50
  -2  -1  -9  284.97   14.20
   2   1   9  288.57   15.00
   2   1   9  277.17   13.40
  -3  -1  -9   19.30    6.80
   3   1   9   15.80    7.70
   3   1   9    7.40    5.70
  -4  -1  -9  109.79   11.70
   4   1   9  115.39   13.20
   4   1   9  110.09    9.80
  -5  -1  -9   58.09   11.90
   5   1   9   75.79   11.30
  -6  -1  -9   70.99   14.60
   5  -2  -9    1.60   12.80
  -5   2   9    3.50   14.20
   4  -2  -9   47.00   11.30
  -4   2   9   67.19   12.80
   3  -2  -9  978.90   38.10
  -3   2   9 1013.80   38.70
   2  -2  -9   53.69    7.40
  -2   2   9   56.99    7.90
   1  -2  -9   10.30    5.40
   1  -2  -9    9.10    5.30
   0  -2  -9   51.89    6.00
   0  -2  -9   46.80    4.90
   0  -2  -9   54.59    6.00
   0   2   9   45.90    5.50
  -1  -2  -9   62.89    5.10
  -1  -2  -9   65.79    6.30
   1   2   9   71.19    6.60
   1   2   9   76.79    7.50
  -2  -2  -9   48.60    6.50
  -2  -2  -9   54.79    5.70
   2   2   9   52.69    6.90
   2   2   9   46.20    7.10
  -3  -2  -9  429.86   18.20
  -3  -2  -9  387.46   17.50
   3   2   9  381.36   16.20
   3   2   9  346.17   19.60
  -4  -2  -9  103.59   10.40
   4   2   9  121.09    9.10
   4   2   9   98.79   12.10
  -5  -2  -9   -0.20   10.00
  -6  -2  -9   31.50   12.30
   5  -3  -9   15.30   14.50
   4  -3  -9   37.30   11.70
  -4   3   9   26.00   13.60
   3  -3  -9  289.47   17.00
  -3   3   9  283.67   17.40
   2  -3  -9   14.30    6.80
  -2   3   9   14.10    7.20
   1  -3  -9   39.70    6.30
   1  -3  -9   41.50    6.10
  -1   3   9   36.80    6.00
   0  -3  -9  819.02   30.30
   0  -3  -9  838.42   30.00
   0  -3  -9  849.32   31.20
  -1  -3  -9  644.44   25.10
   1   3   9  590.74   23.90
  -2  -3  -9  522.05   20.30
   2   3   9  502.15   23.00
   2   3   9  520.65   22.00
  -3  -3  -9  271.77   13.70
  -3  -3  -9  250.97   13.00
   3   3   9  265.97   16.70
  -4  -3  -9   13.50    7.60
   4   3   9   15.20   10.80
  -5  -3  -9   75.49   10.90
   4  -4  -9   10.80   12.00
   3  -4  -9   -0.10    8.70
   2  -4  -9   90.79    9.50
  -2   4   9  114.29    9.70
   1  -4  -9  290.57   14.10
   1  -4  -9  273.37   14.30
   0  -4  -9   41.00    7.10
  -1  -4  -9   74.59    9.60
  -2  -4  -9   86.59    9.90
   2   4   9   89.89    9.10
   3   4   9  108.79   11.90
  -4  -4  -9   15.20    7.20
  -5  -4  -9   10.70    8.50
   3  -5  -9   12.90   10.00
   2  -5  -9   72.39   10.10
   1  -5  -9   18.70    6.60
   0  -5  -9   86.89    9.90
  -1  -5  -9   34.50    8.70
  -2  -5  -9  265.77   18.60
   2   5   9  323.77   17.40
  -3  -5  -9   38.10   10.20
   2  -6  -9   22.50    9.20
   0  -6  -9   16.20    8.70
  -1  -6  -9   64.39   11.60
  -2  -6  -9   51.79   11.50
  -3  -6  -9  112.19   14.60
   0  -7  -9   57.99   11.80
  -1  -7  -9  166.28   17.00
   1  -6  10   11.50   10.10
   2  -6  10   82.29   14.40
  -4  -5  10  -11.30   13.00
  -3  -5  10   16.30   12.00
   1  -5  10   19.10    8.50
   2  -5  10  260.17   17.90
   3  -5  10   13.40   12.30
  -5  -4  10   21.30   10.70
  -4  -4  10  132.19   11.70
  -4  -4  10  149.29   15.20
  -3  -4  10   14.00   10.30
  -3  -4  10    8.90    7.20
   0  -4  10   13.60    5.30
   0  -4  10   10.20    5.50
   1  -4  10  206.88   13.30
   1  -4  10  263.57   13.50
   2  -4  10  149.79   11.80
   3  -4  10   25.80   10.90
   4  -4  10   -0.30   12.30
  -5  -3  10   10.80   11.10
  -4  -3  10   35.40    9.30
  -3  -3  10   -0.30    7.20
  -3  -3  10   -4.40    8.50
  -2  -3  10  340.17   15.60
  -2  -3  10  335.77   14.80
  -1  -3  10  394.46   16.10
  -1  -3  10  399.86   16.30
   0  -3  10   28.70    5.30
   0  -3  10   28.40    5.40
  -1   3 -10  111.39    7.90
   1  -3  10  106.69    8.40
   1  -3  10  124.99    8.50
  -2   3 -10   48.40    7.60
   2  -3  10   43.00    7.60
  -3   3 -10   86.59   11.20
   3  -3  10   77.89   10.60
  -4   3 -10  438.46   26.60
   4  -3  10  395.56   24.40
  -5   3 -10   36.10   16.90
   5  -3  10   61.59   15.00
  -5  -2  10  109.99   13.70
   4   2 -10   23.10    8.00
  -4  -2  10   26.60    9.50
   3   2 -10   20.80    6.10
  -3  -2  10    8.20    7.40
  -3  -2  10   20.90    7.50
   2   2 -10  245.98   11.70
  -2  -2  10  246.68   13.50
  -2  -2  10  259.87   13.40
  -2  -2  10  249.97   12.20
  -1  -2  10   19.30    5.00
  -1  -2  10   22.90    5.60
   0   2 -10    5.70    5.00
   0  -2  10    5.50    4.80
   0  -2  10    4.60    4.90
  -1   2 -10   11.30    5.60
   1  -2  10   21.60    5.70
   1  -2  10   24.20    6.10
  -2   2 -10   62.39    7.90
   2  -2  10   72.59    7.30
   2  -2  10   52.79    7.50
  -3   2 -10   26.10    9.20
   3  -2  10   74.59    9.10
   3  -2  10   75.89    9.00
  -4   2 -10   -2.90   10.70
   4  -2  10   19.20   10.00
  -5   2 -10    8.50   14.20
   5  -2  10    3.80   12.10
  -5  -1  10  197.48   18.60
   4   1 -10   31.80    9.30
  -4  -1  10   49.10   10.40
   3   1 -10    9.70    6.40
  -3  -1  10   14.50    7.40
   2   1 -10  183.38   10.50
  -2  -1  10  175.48   10.20
  -2  -1  10  162.88   11.70
   1   1 -10   51.59    6.10
  -1  -1  10   54.19    5.80
  -1  -1  10   42.90    6.20
   0   1 -10  885.01   31.60
   0  -1  10  862.91   31.50
   0  -1  10  870.51   31.50
  -1   1 -10 2510.75   85.89
   1  -1  10 2582.74   86.09
   1  -1  10 2409.56   85.79
  -2   1 -10  162.78   10.20
   2  -1  10  116.99    9.20
   2  -1  10  143.89    9.50
  -3   1 -10  118.29   10.60
   3  -1  10  110.79   10.50
   3  -1  10  105.09    9.80
  -4   1 -10  354.56   20.00
   4  -1  10  302.67   19.90
   4  -1  10  285.77   18.60
  -5   1 -10  213.58   19.20
   5  -1  10  205.48   17.20
   5   0 -10   51.39   12.30
  -5   0  10   39.80   13.50
   4   0 -10   15.30    9.00
  -4   0  10   13.00    9.80
   2   0 -10  129.79    9.20
  -2   0  10  144.99    9.70
   1   0 -10   76.59    7.40
  -1   0  10   71.39    7.40
   0   0 -10  308.57   13.40
   0   0 -10  307.27   14.20
   0   0  10  318.77   13.90
   0   0  10  310.27   13.80
  -1   0 -10  110.19    7.90
  -1   0 -10  102.29    7.90
   1   0  10  110.59    7.60
  -2   0 -10  200.38   12.60
   2   0  10  219.58   12.70
   2   0  10  202.18   11.60
  -3   0 -10    6.80    7.30
   3   0  10    7.00    6.60
   3   0  10   11.50    7.70
  -4   0 -10    2.80    9.00
   4   0  10    3.90    7.60
   4   0  10   -1.50    9.50
  -5   0 -10    7.80   12.30
   5   0  10    5.20   10.00
  -6   0 -10  -18.70   15.60
   5  -1 -10   26.00   12.60
  -5   1  10   -3.10   13.70
   4  -1 -10   10.60    9.70
  -4   1  10   26.60   11.00
   3  -1 -10  286.37   16.10
  -3   1  10  294.67   17.20
   2  -1 -10   24.50    6.60
  -2   1  10   26.90    7.10
   0  -1 -10 2079.49   70.49
   0  -1 -10 2058.09   70.69
   0   1  10 2040.30   70.39
   0   1  10 2012.20   70.49
  -1  -1 -10  109.19    6.90
  -1  -1 -10  114.09    7.80
   1   1  10  108.09    7.10
  -2  -1 -10   14.30    6.30
  -2  -1 -10   20.20    5.60
   2   1  10   13.20    6.30
   2   1  10    5.10    5.20
  -3  -1 -10   11.30    6.80
   3   1  10    2.00    5.50
   3   1  10    6.00    7.60
  -4  -1 -10   10.30    8.20
   4   1  10   14.20    7.30
   4   1  10    0.20    9.50
  -5  -1 -10   16.60   10.60
   5   1  10    9.40    8.60
  -6  -1 -10   61.99   14.20
   5  -2 -10    1.10   13.00
  -5   2  10   -9.00   14.70
   4  -2 -10   26.80   10.90
  -4   2  10   12.70   12.10
   3  -2 -10  194.08   13.30
  -3   2  10  217.08   14.30
   2  -2 -10   70.89    7.90
  -2   2  10   53.09    8.30
   1  -2 -10   31.50    5.50
   1  -2 -10   36.10    6.30
  -1   2  10   53.09    6.50
   0  -2 -10   -6.90    4.70
   0  -2 -10   -0.60    3.80
   0  -2 -10   -6.40    5.10
   0   2  10   -3.50    4.90
  -1  -2 -10   68.19    6.30
  -1  -2 -10   53.99    5.10
   1   2  10   57.59    7.20
   1   2  10   64.09    6.20
  -2  -2 -10   75.79    6.70
  -2  -2 -10   61.89    6.90
   2   2  10   68.39    5.70
   2   2  10   72.09    7.40
   2   2  10   66.69    8.00
  -3  -2 -10  570.14   23.70
   3   2  10  587.84   25.90
   3   2  10  600.64   22.80
  -4  -2 -10  251.07   15.80
   4   2  10  243.08   14.00
   4   2  10  248.48   18.40
  -5  -2 -10   48.60   11.10
  -6  -2 -10   -2.30   11.30
   5  -3 -10    5.80   13.90
   4  -3 -10  316.17   20.30
  -4   3  10  288.87   21.30
   3  -3 -10  176.38   13.30
  -3   3  10  189.78   13.70
   2  -3 -10    9.10    6.90
  -2   3  10    8.80    7.40
   1  -3 -10  110.09    8.50
   1  -3 -10  116.59    8.40
  -1   3  10  128.29    8.30
   0  -3 -10   10.90    4.00
   0  -3 -10   10.40    5.10
   0  -3 -10   24.80    6.00
  -1  -3 -10    2.60    3.70
  -1  -3 -10   12.10    6.20
   1   3  10   11.90    5.50
  -2  -3 -10  463.85   19.00
   2   3  10  483.85   20.80
  -3  -3 -10   67.09    7.10
  -3  -3 -10   78.69    7.90
   3   3  10   62.79   10.00
  -4  -3 -10   18.30    7.80
   4   3  10   35.00   11.60
  -5  -3 -10   86.59   11.30
   4  -4 -10   61.79   13.50
   3  -4 -10  -11.50    8.80
   2  -4 -10   11.20    7.10
  -2   4  10   18.20    7.50
   1  -4 -10  754.22   28.20
   1  -4 -10  703.93   28.00
   0  -4 -10   -1.10    5.40
   0  -4 -10    0.80    3.90
   0  -4 -10   13.50    6.30
  -1  -4 -10  111.19   10.70
   1   4  10  120.99    8.90
  -2  -4 -10   10.40    7.20
   2   4  10   30.30    7.40
   3   4  10   -3.80    7.90
  -4  -4 -10   97.69    9.30
  -5  -4 -10  168.28   12.90
   3  -5 -10    5.10   10.20
   2  -5 -10   71.09    9.90
   1  -5 -10    5.40    6.40
   0  -5 -10   17.70    7.60
  -1  -5 -10   55.09    9.30
  -2  -5 -10   -9.30    7.90
   2   5  10   15.60    7.60
   3   5  10   10.80    9.70
   2  -6 -10   -8.90    8.50
   1  -6 -10  111.29   10.20
   0  -6 -10  110.79   12.00
  -1  -6 -10  217.58   17.30
  -2  -6 -10   41.20   11.40
  -3  -6 -10   -8.10   10.70
   0  -7 -10   -4.00    9.30
  -1  -7 -10   11.60   11.10
   1  -6  11   10.00   10.10
   2  -6  11    9.90   11.70
  -4  -5  11   41.60   14.70
  -4  -5  11   24.00    8.90
  -3  -5  11  113.69   14.90
   1  -5  11   -1.20    8.20
   2  -5  11  212.38   16.00
   3  -5  11   21.40   12.40
  -5  -4  11   49.90   11.60
  -4  -4  11   20.60   11.60
  -3  -4  11   14.70    7.40
  -3  -4  11    5.90   10.30
   0  -4  11   50.99    6.90
   0  -4  11   51.99    6.50
   1  -4  11  251.57   14.20
   1  -4  11  275.97   14.70
  -2   4 -11   43.20    8.00
   2  -4  11   32.40    9.00
   3  -4  11   63.19   11.60
   4  -4  11   13.40   12.80
  -5  -3  11   73.99   12.90
  -4  -3  11   14.80    9.10
  -4  -3  11   21.20   10.20
  -3  -3  11  159.58   11.80
  -3  -3  11  182.38   13.80
  -2  -3  11  159.28   10.50
  -2  -3  11  211.98   11.90
  -1  -3  11  105.49    7.60
  -1  -3  11  100.89    7.30
   0  -3  11   15.90    5.40
   0  -3  11    5.90    5.10
  -1   3 -11  298.57   14.50
   1  -3  11  317.37   15.00
   1  -3  11  327.27   15.00
  -2   3 -11   26.20    7.50
   2  -3  11   22.80    7.40
  -3   3 -11    4.20    9.40
   3  -3  11   26.50    8.30
   3  -3  11   33.60    9.00
  -4   3 -11   63.09   14.00
   4  -3  11   53.99   12.10
  -5   3 -11  -18.70   15.80
   5  -3  11   -6.90   13.70
  -5  -2  11   30.90   11.50
   4   2 -11   -2.60    9.50
  -4  -2  11    5.60    9.00
   3   2 -11  114.99    8.70
  -3  -2  11  118.19   10.20
  -3  -2  11  113.29   10.00
   2   2 -11  526.45   20.70
  -2  -2  11  562.74   22.20
  -2  -2  11  546.75   21.40
  -2  -2  11  533.45   22.40
   1   2 -11   15.00    4.80
  -1  -2  11    6.30    4.90
  -1  -2  11   21.00    5.60
   0   2 -11  339.97   14.20
   0  -2  11  331.07   14.30
   0  -2  11  320.17   14.40
  -1   2 -11  701.43   25.90
   1  -2  11  682.63   26.00
   1  -2  11  677.13   26.40
  -2   2 -11  248.98   14.20
   2  -2  11  247.58   13.80
   2  -2  11  261.87   14.30
  -3   2 -11  106.39   11.30
   3  -2  11  127.49   11.20
   3  -2  11  147.79   11.10
  -4   2 -11  236.38   17.50
   4  -2  11  259.97   17.80
  -5   2 -11   15.60   15.10
   5  -2  11   28.90   13.30
  -5  -1  11   33.00   13.00
   4   1 -11   12.30    8.70
  -4  -1  11   17.30    9.80
   3   1 -11   99.79    8.90
  -3  -1  11   88.29    9.60
   2   1 -11  380.96   17.00
  -2  -1  11  417.36   17.80
   1   1 -11    3.00    5.60
  -1  -1  11    0.30    5.40
  -1  -1  11   -2.40    5.00
   0   1 -11  223.48   11.80
   0  -1  11  221.38   11.40
   0  -1  11  213.68   11.60
  -1   1 -11  161.88   10.80
   1  -1  11  159.88   10.60
  -2   1 -11   46.20    7.60
   2  -1  11   42.20    7.10
   2  -1  11   40.30    7.10
  -3   1 -11    4.60    8.40
   3  -1  11   27.80    8.20
   3  -1  11   38.40    7.80
  -4   1 -11   54.19   11.50
   4  -1  11   91.19   11.80
   4  -1  11   74.69   10.80
  -5   1 -11   45.70   14.50
   5  -1  11   30.40   12.30
   5   0 -11   28.00   12.20
  -5   0  11   27.40   12.60
   4   0 -11  134.19   12.50
  -4   0  11  135.99   13.50
   3   0 -11  385.86   18.50
  -3   0  11  383.26   19.00
   2   0 -11  111.89    8.70
  -2   0  11   99.79    9.00
   1   0 -11  125.99    8.70
  -1   0  11  132.69    9.00
   0   0 -11 3259.97  112.49
   0   0  11 3331.37  112.49
  -1   0 -11   45.50    6.80
   1   0  11   61.19    6.60
  -2   0 -11  172.88   12.10
   2   0  11  164.58   10.90
   2   0  11  187.18   12.00
  -3   0 -11 1862.61   65.49
   3   0  11 1836.22   65.19
   3   0  11 1822.72   66.59
  -4   0 -11   27.80    9.80
   4   0  11   38.40    9.10
   4   0  11   38.80   10.90
  -5   0 -11    1.30   11.90
   5   0  11    5.70   10.40
  -6   0 -11   58.69   15.80
   5  -1 -11   18.90   12.70
  -5   1  11   -4.60   13.60
   4  -1 -11  -10.70    9.30
  -4   1  11   -5.70   10.80
   3  -1 -11   24.20    8.30
  -3   1  11   33.40    8.90
   2  -1 -11   12.90    6.70
  -2   1  11    7.70    6.90
   1  -1 -11  115.49    8.60
  -1   1  11  106.79    8.50
   0  -1 -11  335.67   15.40
   0  -1 -11  357.66   14.90
   0   1  11  349.37   14.80
  -1  -1 -11    0.90    4.30
  -1  -1 -11    1.00    5.50
   1   1  11    0.50    4.70
  -2  -1 -11   88.49    7.90
   2   1  11   76.59    8.10
   2   1  11   97.09    7.40
  -3  -1 -11   41.50    7.80
   3   1  11   49.70    7.10
   3   1  11   61.09    9.10
  -4  -1 -11   -5.10    8.20
   4   1  11   18.60   10.60
   4   1  11   17.60    7.10
  -5  -1 -11   38.40   11.80
   5   1  11   57.99   10.30
  -6  -1 -11  114.89   16.10
   5  -2 -11   19.80   14.20
  -5   2  11  -28.70   14.20
   4  -2 -11   11.00   10.60
  -4   2  11    4.60   11.50
   3  -2 -11  304.27   17.40
  -3   2  11  300.87   18.40
   2  -2 -11   40.20    7.40
  -2   2  11   38.80    8.10
   1  -2 -11  655.93   25.20
  -1   2  11  651.13   25.10
   0  -2 -11  318.27   13.80
   0  -2 -11  325.97   14.60
   0   2  11  337.07   14.10
  -1  -2 -11   40.90    6.00
  -1  -2 -11   38.30    4.90
   1   2  11   35.80    6.70
   1   2  11   39.50    4.80
   1   2  11   43.70    5.70
  -2  -2 -11  252.17   13.30
  -2  -2 -11  290.87   12.90
   2   2  11  251.47   13.50
   2   2  11  236.88   11.40
   2   2  11  258.87   14.50
  -3  -2 -11   19.80    6.90
   3   2  11   15.40    5.60
   3   2  11   29.00    8.40
  -4  -2 -11   21.20    8.50
   4   2  11   17.90    6.80
   4   2  11   36.80   10.40
  -5  -2 -11   84.99   12.20
   5  -3 -11   -4.20   13.90
   4  -3 -11   92.89   13.80
  -4   3  11  105.99   14.30
   3  -3 -11    9.40    8.60
  -3   3  11   28.60    9.60
   2  -3 -11   16.70    7.20
  -2   3  11   22.40    7.80
   1  -3 -11   51.59    6.90
   1  -3 -11   41.10    5.80
  -1   3  11   64.89    6.80
   0  -3 -11   18.70    6.00
   0  -3 -11   24.10    4.60
   0  -3 -11   15.00    5.50
  -1  -3 -11    0.10    3.90
  -1  -3 -11   22.30    5.60
  -2  -3 -11  673.63   24.50
  -2  -3 -11  628.34   24.70
   2   3  11  630.44   26.40
  -3  -3 -11    4.80    6.70
   3   3  11    7.90    8.30
  -4  -3 -11   12.20    8.00
   4   3  11   12.10   10.20
  -5  -3 -11   44.90   10.40
   4  -4 -11  187.58   17.50
   3  -4 -11    0.50    9.30
   2  -4 -11   28.40    8.10
  -2   4  11   22.70    8.50
   1  -4 -11  292.97   14.60
   1  -4 -11  276.57   14.90
   0  -4 -11   12.30    6.30
   0  -4 -11   -1.10    4.20
  -1  -4 -11   99.09    9.90
   1   4  11  111.99    8.80
  -2  -4 -11   -7.70    7.00
   2   4  11   -3.60    6.90
   3   4  11   -0.50    8.70
  -4  -4 -11   44.90    8.50
   4   4  11   22.60   12.80
  -5  -4 -11    5.00    8.40
   3  -5 -11   35.90   11.40
   2  -5 -11   88.49   10.50
   1  -5 -11   43.20    7.90
   0  -5 -11   36.70    8.20
  -1  -5 -11   34.60    8.60
  -2  -5 -11   93.59   11.90
   2   5  11   92.89   10.20
   3   5  11  143.89   13.90
   2  -6 -11   50.09   10.80
   1  -6 -11    5.20    8.60
   0  -6 -11    1.20    8.40
  -1  -6 -11   13.10    9.40
  -2  -6 -11   23.00   10.60
   0  -7 -11   43.00   11.10
  -1  -7 -11   65.19   13.50
   2  -6  12  149.29   16.90
  -4  -5  12   68.19   15.40
  -3  -5  12   68.19   13.60
   1  -5  12   56.09    9.30
   2  -5  12   25.30   10.70
   3  -5  12    1.90   12.10
  -4  -4  12  212.58   17.30
  -4  -4  12  173.48   13.70
  -3  -4  12   16.40   10.60
  -3  -4  12    9.90    7.70
  -2  -4  12  341.17   16.80
  -1  -4  12  384.76   16.60
   0  -4  12   69.69    7.60
   0  -4  12   71.39    7.30
   1  -4  12  346.37   16.90
  -2   4 -12   16.60    9.70
   2  -4  12    3.80    8.50
   3  -4  12   16.70   10.60
   4  -4  12   30.70   13.60
  -5  -3  12    3.40   11.10
  -4  -3  12   46.70    9.90
  -4  -3  12   26.50   10.40
  -3  -3  12   97.69    9.80
  -3  -3  12   86.79   11.00
  -2  -3  12   79.89    8.20
  -1  -3  12   38.50    6.20
  -1  -3  12   40.50    6.10
   0  -3  12   33.40    6.00
   0  -3  12   30.80    5.90
  -1   3 -12  699.73   25.10
   1  -3  12  525.95   27.50
   1  -3  12  676.83   25.30
  -2   3 -12   85.99    9.10
   2  -3  12  103.89    8.90
   2  -3  12   77.89    9.10
  -3   3 -12   63.19   11.00
   3  -3  12   87.49   11.20
   3  -3  12   93.29   10.30
  -4   3 -12  392.66   23.40
   4  -3  12  325.57   23.10
   5  -3  12   39.00   14.80
  -5  -2  12   38.40   12.10
  -4  -2  12   20.10    9.80
   3   2 -12  302.17   14.30
  -3  -2  12  285.87   16.30
  -3  -2  12  266.17   15.60
   2   2 -12  110.99    7.80
  -2  -2  12  123.09    9.80
  -2  -2  12  136.29    9.00
  -2  -2  12  121.89    9.50
   1   2 -12  293.97   12.80
  -1  -2  12  288.17   13.40
  -1  -2  12  286.57   13.90
   0   2 -12   83.79    7.00
   0  -2  12   94.39    7.00
   0  -2  12   80.09    7.10
  -1   2 -12  156.08   11.10
   1  -2  12  172.38   10.30
  -2   2 -12   35.00    7.90
   2  -2  12   37.90    7.20
   2  -2  12   35.20    7.40
  -3   2 -12  224.58   15.40
   3  -2  12  222.88   13.90
   3  -2  12  192.78   13.90
  -4   2 -12   25.00   12.40
   4  -2  12   23.90   11.30
   4  -2  12   19.10   10.70
  -5   2 -12  -13.70   14.60
   5  -2  12    5.50   12.70
  -5  -1  12   31.90   13.00
   4   1 -12   20.80    8.70
  -4  -1  12   22.00   10.20
   3   1 -12   35.10    7.40
  -3  -1  12   42.70    8.40
   2   1 -12    8.40    6.00
  -2  -1  12   18.80    6.90
   1   1 -12   42.60    6.50
  -1  -1  12   31.50    5.80
  -1  -1  12   32.30    6.10
   0   1 -12 1164.78   41.20
   0  -1  12 1180.88   41.10
   0  -1  12 1108.99   41.00
  -1   1 -12  133.09    9.00
   1  -1  12  143.29    9.30
  -2   1 -12   39.50    7.60
   2  -1  12   27.70    6.90
   2  -1  12   38.70    6.90
  -3   1 -12   46.30    9.30
   3  -1  12   48.60    9.40
   3  -1  12   70.99    8.70
  -4   1 -12   70.19   12.20
   4  -1  12   55.79   10.30
   4  -1  12   55.19   11.10
  -5   1 -12   20.10   13.50
   5  -1  12   27.40   12.10
   5   0 -12   38.90   12.10
  -5   0  12   45.00   14.00
   4   0 -12   18.30    9.50
  -4   0  12   18.40   10.60
   3   0 -12   90.59    9.50
  -3   0  12   78.69   10.00
   2   0 -12   25.20    6.90
  -2   0  12   19.60    7.10
   1   0 -12   62.39    7.20
  -1   0  12   39.20    7.10
   0   0 -12  135.29    9.10
   0   0  12  143.39   10.00
  -1   0 -12   10.90    5.90
   1   0  12    3.20    5.80
  -2   0 -12   27.90    7.10
   2   0  12   24.70    6.70
   2   0  12   30.10    6.50
  -3   0 -12  266.37   16.00
   3   0  12  295.87   15.00
   3   0  12  275.97   17.20
  -4   0 -12  100.09   11.90
   4   0  12   86.09   13.10
   4   0  12   70.69   10.30
  -5   0 -12   19.50   12.70
   5   0  12   21.80   10.60
   5  -1 -12   12.00   13.10
  -5   1  12  -22.60   14.00
   4  -1 -12   59.59   11.40
  -4   1  12   51.59   12.50
   3  -1 -12   78.89    9.80
  -3   1  12   70.89   10.10
   2  -1 -12   47.90    7.60
  -2   1  12   19.30    7.50
   1  -1 -12    2.40    6.10
  -1   1  12   15.20    6.30
   0  -1 -12  386.76   16.30
   0  -1 -12  392.46   17.00
   0   1  12  395.26   16.30
  -1  -1 -12   53.49    5.80
  -1  -1 -12   57.89    6.80
   1   1  12   74.59    6.30
  -2  -1 -12  925.31   33.10
   2   1  12  861.01   32.50
   2   1  12  871.91   33.80
  -3  -1 -12  146.29   11.30
   3   1  12  175.18   12.60
   3   1  12  183.98   11.10
  -4  -1 -12   20.80    9.10
   4   1  12   28.50    7.30
   4   1  12   20.30   10.40
  -5  -1 -12  109.09   13.30
  -6  -1 -12   15.20   13.40
   5  -2 -12   15.00   14.00
  -5   2  12  -14.00   14.70
   4  -2 -12    8.60   10.60
  -4   2  12   -3.50   12.10
   3  -2 -12   69.39    9.90
  -3   2  12  107.09   11.50
   2  -2 -12   94.19    9.30
  -2   2  12  118.49   10.00
   1  -2 -12   26.50    6.70
  -1   2  12   35.30    6.70
   0  -2 -12  336.07   15.30
   0  -2 -12  364.46   14.80
   0   2  12  336.97   14.80
  -1  -2 -12    3.90    5.70
  -1  -2 -12    5.90    4.20
   1   2  12    4.30    4.20
   1   2  12    8.00    4.30
  -2  -2 -12  164.08   11.20
  -2  -2 -12  182.38   10.80
   2   2  12  182.38   12.40
   2   2  12  157.38    9.20
   2   2  12  165.48   11.10
  -3  -2 -12  144.69   10.80
   3   2  12  153.78   12.40
   3   2  12  137.49   10.10
  -4  -2 -12   29.70    9.00
   4   2  12   26.00   10.40
   4   2  12   20.20    6.70
  -5  -2 -12  128.09   13.10
   4  -3 -12  502.35   27.00
  -4   3  12  523.75   28.10
   3  -3 -12   83.79   10.90
  -3   3  12  103.79   12.60
   2  -3 -12   24.20    7.60
  -2   3  12   21.10    8.00
   0  -3 -12  161.18    9.50
   0  -3 -12  132.29    8.60
   0  -3 -12  128.69   10.20
  -1  -3 -12   63.79    5.80
  -1  -3 -12   80.39    7.60
  -1  -3 -12   73.99    8.00
   1   3  12   83.29    8.00
  -2  -3 -12  684.63   25.50
  -2  -3 -12  664.33   25.60
   2   3  12  634.14   27.30
  -3  -3 -12  -20.20    6.20
   3   3  12   -0.50    8.30
  -4  -3 -12    1.40    7.80
   4   3  12   20.20   10.60
  -5  -3 -12   13.00    9.70
   4  -4 -12   40.20   13.40
   3  -4 -12   -2.70    9.10
   2  -4 -12   13.90    7.70
   1  -4 -12  262.57   14.10
   0  -4 -12  159.08   11.30
   0  -4 -12  167.28   10.40
  -1  -4 -12  272.37   16.10
   1   4  12  296.07   14.70
   2   4  12   71.29    9.20
  -3  -4 -12   98.09    8.70
   3   4  12   81.89   11.10
  -4  -4 -12  123.59   10.80
   4   4  12  147.09   14.50
  -5  -4 -12   85.39   11.10
   3  -5 -12   -4.60   10.30
   2  -5 -12  214.08   14.40
   1  -5 -12   34.50    7.90
   1  -5 -12   32.20    8.10
   0  -5 -12   59.59    9.00
  -1  -5 -12  158.98   13.30
  -2  -5 -12   60.19   10.70
   2   5  12   59.89    9.40
   3   5  12    2.90    9.50
   2  -6 -12   26.50    9.50
   1  -6 -12   94.29    9.60
   1  -6 -12   66.39   10.30
   0  -6 -12    1.00    8.30
  -1  -6 -12  164.58   15.00
  -2  -6 -12   18.60   10.20
   1  -6  13   -1.90    9.60
   2  -6  13   13.80   13.30
  -4  -5  13   13.90   14.10
  -3  -5  13   31.00   12.80
   0  -5  13   17.40    7.10
   1  -5  13   73.99    9.90
   2  -5  13   83.79   12.50
   3  -5  13   -5.90   12.50
  -4  -4  13    0.30    9.00
  -4  -4  13   -6.00   11.40
  -3  -4  13   -5.50    7.70
  -3  -4  13   -0.30   10.60
  -2  -4  13   29.10    7.90
   0  -4  13   39.60    6.80
   0  -4  13   30.60    6.90
   1  -4  13  180.88   11.70
   2  -4  13   25.00    9.10
   3  -4  13   -5.50   10.30
   4  -4  13   47.10   14.40
  -5  -3  13   52.09   12.80
  -4  -3  13   12.20   10.20
  -3  -3  13    9.20    8.90
  -3  -3  13    9.60    8.00
  -2  -3  13  251.57   13.00
  -2  -3  13  250.67   14.10
  -2  -3  13  243.68   14.10
  -1  -3  13   46.00    6.50
  -1  -3  13   28.50    6.20
   0  -3  13  337.37   15.50
   0  -3  13  360.56   15.70
  -1   3 -13  165.78   10.20
   1  -3  13  145.99    9.90
  -2   3 -13   27.50    8.00
   2  -3  13   30.40    7.90
   2  -3  13   24.20    7.20
  -3   3 -13   42.10   10.20
   3  -3  13   56.29   10.30
   3  -3  13   49.50    9.90
  -4   3 -13   67.79   15.00
   4  -3  13   58.99   12.20
   5  -3  13   19.40   14.10
  -5  -2  13   -3.50   11.80
  -4  -2  13   45.80   10.70
   3   2 -13   57.19    7.60
  -3  -2  13   59.79    9.20
  -3  -2  13   54.19    8.60
   2   2 -13  173.98   10.30
  -2  -2  13  179.28   11.30
   1   2 -13   38.80    6.00
  -1  -2  13   46.70    6.40
  -1  -2  13   40.90    6.70
   0   2 -13   19.60    5.80
   0  -2  13   23.40    5.70
   0  -2  13   27.10    5.90
  -2   2 -13   65.69    8.60
   2  -2  13   53.69    8.10
   2  -2  13   71.69    8.30
  -3   2 -13  624.64   26.70
   3  -2  13  607.74   26.40
   3  -2  13  594.14   26.90
  -4   2 -13    6.80   12.10
   4  -2  13    1.40   11.40
   4  -2  13   10.20   10.40
  -5   2 -13   11.40   15.80
   5  -2  13   17.60   13.10
  -5  -1  13   -7.00   11.90
   4   1 -13   25.70    9.20
  -4  -1  13   22.90   10.40
   3   1 -13  176.88   12.70
  -3  -1  13  187.28   12.60
   2   1 -13  332.87   15.60
  -2  -1  13  337.57   16.60
   1   1 -13  157.88   10.40
  -1  -1  13  141.09    9.20
   0   1 -13  532.25   21.70
   0  -1  13  559.64   21.60
  -1   1 -13   11.60    6.40
   1  -1  13    5.80    5.90
  -2   1 -13    6.80    7.30
   2  -1  13    6.00    6.30
   2  -1  13    8.40    6.40
  -3   1 -13    4.10    8.40
   3  -1  13    3.20    8.30
   3  -1  13   11.90    7.80
  -4   1 -13  -17.20   10.50
   4  -1  13   -5.20    9.50
   4  -1  13   13.60   11.90
  -5   1 -13  -20.00   13.30
   5  -1  13   18.40   12.20
   5   0 -13   14.90   12.10
  -5   0  13   48.80   14.40
   4   0 -13   37.30   10.10
  -4   0  13   36.70   11.40
   3   0 -13  164.58   12.00
  -3   0  13  173.88   12.80
   2   0 -13   38.80    7.60
  -2   0  13   49.90    7.90
   1   0 -13   16.30    6.50
  -1   0  13    8.90    6.40
   0   0 -13  345.17   15.80
   0   0  13  336.47   15.40
  -1   0 -13  403.36   17.90
   1   0  13  417.16   17.40
  -2   0 -13   -2.20    6.60
   2   0  13    6.80    6.60
   2   0  13   11.10    6.40
  -3   0 -13  309.57   16.60
   3   0  13  277.17   15.00
   3   0  13  286.07   17.60
  -4   0 -13  682.83   29.30
   4   0  13  606.64   30.40
   4   0  13  631.14   27.80
  -5   0 -13  113.49   15.00
   5   0  13  102.99   12.80
   5  -1 -13   15.30   13.90
  -5   1  13   16.70   15.10
   4  -1 -13  109.79   13.00
  -4   1  13   98.79   14.00
   3  -1 -13    0.20    8.00
  -3   1  13   -4.40    8.60
   2  -1 -13   87.89    8.90
  -2   1  13   62.89    8.60
   1  -1 -13   60.39    7.50
  -1   1  13   51.69    7.30
   0  -1 -13  159.18    9.90
   0   1  13  157.68    9.30
  -1  -1 -13  311.67   14.50
   1   1  13  275.87   13.40
  -2  -1 -13   -3.10    6.10
   2   1  13   -6.00    5.40
   2   1  13    9.40    6.30
  -3  -1 -13    1.70    7.40
   3   1  13    3.90    8.20
   3   1  13    2.70    6.30
  -4  -1 -13    3.40    8.70
   4   1  13    1.10   10.40
   4   1  13   13.00    7.60
  -5  -1 -13   45.50   11.70
   5   1  13   34.70   15.20
   5  -2 -13    0.90   14.00
  -5   2  13   13.70   16.20
   4  -2 -13   33.00   11.60
  -4   2  13   17.80   13.20
   3  -2 -13   22.30    8.70
  -3   2  13   54.99   10.20
   2  -2 -13   29.10    7.70
  -2   2  13   32.00    8.70
   1  -2 -13  739.43   28.50
  -1   2  13  742.03   28.30
   0  -2 -13   27.00    5.30
   0  -2 -13   41.40    6.50
   0   2  13   30.00    6.00
  -1  -2 -13   40.50    5.30
  -1  -2 -13   53.09    7.00
   1   2  13   66.59    6.30
   1   2  13   70.39    5.90
  -2  -2 -13   27.40    5.90
  -2  -2 -13   25.20    6.90
   2   2  13   36.70    6.30
   2   2  13   29.60    7.30
   2   2  13   29.00    5.20
  -3  -2 -13   28.10    7.40
   3   2  13   29.10    6.00
   3   2  13   54.19    9.20
  -4  -2 -13   26.80    8.60
   4   2  13   17.40    6.90
   4   2  13   23.30   11.60
  -5  -2 -13  157.68   14.20
   5   2  13  169.68   19.30
   4  -3 -13    1.30   11.40
  -4   3  13   15.70   13.50
   3  -3 -13   32.60    9.70
  -3   3  13   38.70   10.70
   2  -3 -13   -5.30    7.30
  -2   3  13   10.60    8.10
   1  -3 -13   38.50    7.20
  -1   3  13   44.20    6.90
   0  -3 -13  143.99   10.30
   0  -3 -13  174.08   10.90
   0  -3 -13  164.38    9.60
  -1  -3 -13    1.70    4.30
  -1  -3 -13   -6.00    6.00
   1   3  13   14.70    6.10
  -2  -3 -13  513.85   20.20
  -2  -3 -13  480.25   20.30
   2   3  13  459.75   21.80
  -3  -3 -13  153.58   10.80
   3   3  13  158.18   13.00
  -4  -3 -13   58.89    9.40
   4   3  13   56.09   11.70
  -5  -3 -13   20.90    9.80
   4  -4 -13   25.10   12.40
   3  -4 -13    4.80    9.60
   2  -4 -13   48.80    9.00
   1  -4 -13    7.70    6.60
   0  -4 -13   61.79    7.60
   0  -4 -13   58.29    8.00
   0  -4 -13   67.69    6.60
  -1  -4 -13  505.45   22.90
  -1  -4 -13  535.75   21.00
   1   4  13  501.15   21.60
   2   4  13  183.78   12.80
  -3  -4 -13   35.60    7.40
   3   4  13   31.00    9.70
  -4  -4 -13  237.88   15.20
   4   4  13  242.98   18.70
  -5  -4 -13   23.60    9.50
   3  -5 -13  -14.10    9.70
   2  -5 -13  197.58   14.40
   1  -5 -13    7.40    7.20
   1  -5 -13    8.80    7.20
   0  -5 -13  106.19    9.10
   0  -5 -13  102.19   10.80
  -1  -5 -13   26.60    8.90
  -2  -5 -13   35.00    9.90
   2   5  13   33.00    8.80
   3   5  13  193.48   15.10
   2  -6 -13   20.30    9.70
   1  -6 -13    4.10    7.40
   0  -6 -13   13.70    8.90
  -1  -6 -13   20.70    9.90
  -2  -6 -13   18.60   10.20
   1  -6  14  277.57   19.60
   2  -6  14   32.90   14.10
  -4  -5  14    4.20    8.90
  -4  -5  14   -0.20   16.30
  -3  -5  14   75.79   14.30
   0  -5  14   16.50    7.50
   1  -5  14    3.60    8.20
   2  -5  14   51.59   12.00
   3  -5  14    0.00   13.00
  -4  -4  14   20.80    9.60
  -4  -4  14   48.10   12.30
  -3  -4  14   99.39   10.40
  -3  -4  14  115.39   13.30
  -1  -4  14   74.59    8.00
   0  -4  14   52.29    7.60
   1  -4  14  495.75   21.20
   2  -4  14   51.69   10.40
   3  -4  14   61.79   12.70
   4  -4  14    6.00   13.20
  -5  -3  14    0.40   10.90
  -4  -3  14   30.60    9.90
  -4  -3  14   21.80   10.30
  -3  -3  14   25.20    9.00
  -3  -3  14   27.10    9.30
  -2  -3  14   14.40    7.30
  -2  -3  14    4.00    6.10
  -2  -3  14    2.00    7.10
  -1  -3  14    1.70    6.00
  -1  -3  14   13.50    6.40
   0  -3  14  138.79    9.20
   0  -3  14  128.99    9.10
  -1   3 -14   -4.50    6.70
   1  -3  14   11.10    6.40
  -2   3 -14   55.79    8.50
   2  -3  14   48.30    8.20
   2  -3  14   56.29    9.10
  -3   3 -14   58.09   11.50
   3  -3  14   45.00    9.80
   3  -3  14   44.10   10.20
  -4   3 -14  137.79   17.40
   4  -3  14  162.18   16.30
   5  -3  14   20.30   14.30
  -5  -2  14   18.40   12.30
  -4  -2  14  130.89   12.60
   3   2 -14  204.18   12.60
  -3  -2  14  192.78   13.70
  -3  -2  14  220.78   14.80
   2   2 -14   45.80    6.70
  -2  -2  14   36.70    7.90
   1   2 -14   14.80    5.60
  -1  -2  14   19.90    6.50
  -1  -2  14   13.20    6.10
   0   2 -14  634.94   24.30
   0  -2  14  632.14   28.10
   0  -2  14  636.84   24.60
  -1   2 -14   18.90    6.90
   1  -2  14   15.20    6.40
  -2   2 -14  125.89   10.50
   2  -2  14  157.08   10.70
   2  -2  14  141.79   10.50
  -3   2 -14  433.96   20.70
   3  -2  14  391.76   21.10
   3  -2  14  354.56   20.30
  -4   2 -14   10.40   12.10
   4  -2  14   -6.10   10.10
   4  -2  14   11.10   10.50
  -5   2 -14   14.90   15.60
   5  -2  14   15.00   13.20
  -5  -1  14    8.40   12.30
   4   1 -14   29.90    9.40
  -4  -1  14   43.80   11.00
   3   1 -14  306.07   16.10
  -3  -1  14  295.47   17.10
   2   1 -14   42.70    7.30
  -2  -1  14   44.00    8.10
   1   1 -14  428.56   18.40
  -1  -1  14  431.56   18.40
   0   1 -14 1197.48   42.40
   0  -1  14 1162.48   42.30
  -1   1 -14  257.47   14.10
   1  -1  14  248.88   13.40
  -2   1 -14   19.60    7.40
   2  -1  14   26.30    7.40
   2  -1  14   20.70    6.80
  -3   1 -14   74.49   10.10
   3  -1  14   68.29    9.20
   3  -1  14   62.69   10.10
  -4   1 -14   67.49   11.90
   4  -1  14   48.00   11.90
   4  -1  14   70.99   11.30
  -5   1 -14    2.50   13.40
   5  -1  14   25.70   12.60
   5   0 -14   -2.40   12.80
  -5   0  14   41.60   14.30
   4   0 -14   32.80   10.60
  -4   0  14   61.59   12.10
   3   0 -14   65.99    9.50
  -3   0  14   74.29   10.10
   2   0 -14   53.49    8.20
  -2   0  14   60.09    8.50
   1   0 -14  790.72   29.70
  -1   0  14  770.72   29.80
   0   0 -14   14.10    6.70
   0   0  14   18.50    6.00
  -1   0 -14  104.69    8.90
   1   0  14  120.49    8.50
  -2   0 -14  168.48   11.00
   2   0  14  151.88   10.20
   2   0  14  131.29   10.50
  -3   0 -14   13.50    8.20
   3   0  14   15.90    8.50
   3   0  14   21.20    7.20
  -4   0 -14   19.80   10.60
   4   0  14   24.70   11.10
   4   0  14    4.70    8.10
  -5   0 -14    7.20   11.90
   5   0  14    9.50   14.60
   5   0  14    9.40   10.10
   5  -1 -14    6.80   13.50
  -5   1  14   -6.10   14.00
   4  -1 -14  257.47   17.60
  -4   1  14  251.37   18.50
   3  -1 -14   -4.50    8.00
  -3   1  14  -11.40    8.90
   2  -1 -14  196.08   12.40
  -2   1  14  190.28   12.20
   1  -1 -14  164.48   11.70
  -1   1  14  161.08   11.30
   0  -1 -14  488.25   19.60
   0   1  14  445.26   18.90
  -1  -1 -14    4.90    6.30
   1   1  14   -0.30    5.00
  -2  -1 -14 1470.15   54.69
   2   1  14 1557.34   55.59
   2   1  14 1577.64   54.29
  -3  -1 -14  378.76   18.70
   3   1  14  371.56   17.50
   3   1  14  388.66   20.10
  -4  -1 -14   31.40    9.80
   4   1  14   25.60    8.10
   4   1  14   24.30   10.90
  -5  -1 -14   75.99   13.40
   5   1  14   91.19   18.30
   5  -2 -14   27.20   15.30
  -5   2  14   31.90   16.20
   4  -2 -14   -1.60   11.10
  -4   2  14   -0.90   11.90
   3  -2 -14   37.50    9.30
  -3   2  14   58.99   10.80
   2  -2 -14   65.79    9.20
  -2   2  14   73.49    9.30
   1  -2 -14   -4.10    6.50
  -1   2  14   -5.70    6.40
   0  -2 -14  439.96   18.10
   0   2  14  402.06   17.60
  -1  -2 -14   -2.00    6.10
  -1  -2 -14    6.40    4.60
   1   2  14   11.20    4.80
   1   2  14    6.20    4.20
  -2  -2 -14  119.19    9.40
   2   2  14  129.69    8.30
   2   2  14  129.29   10.30
   2   2  14  129.99   10.10
  -3  -2 -14  117.89   10.20
   3   2  14  133.19    8.90
   3   2  14  132.39   12.00
  -4  -2 -14    9.70    9.00
   4   2  14   -4.50   10.80
  -5  -2 -14  148.19   14.00
   5   2  14  161.88   17.80
   4  -3 -14   76.89   13.80
  -4   3  14  133.19   16.90
   3  -3 -14   -9.10    9.00
  -3   3  14    1.10   10.40
   2  -3 -14  220.68   13.80
  -2   3  14  200.98   14.70
   1  -3 -14   -6.20    6.70
  -1   3  14   15.60    6.70
   0  -3 -14   23.90    5.40
   0  -3 -14   28.20    6.30
   0   3  14   25.20    5.60
  -1  -3 -14  243.38   13.80
  -1  -3 -14  232.78   12.00
   1   3  14  266.87   14.10
  -2  -3 -14   54.89    7.30
  -2  -3 -14   59.59    7.40
   2   3  14   57.29    8.50
  -3  -3 -14   60.99    8.50
   3   3  14   66.59   10.60
  -4  -3 -14  143.29   11.70
   4   3  14  133.99   14.80
  -5  -3 -14   52.99   11.20
   5   3  14   75.19   17.00
   4  -4 -14    9.20   12.80
   3  -4 -14    0.30    9.70
   2  -4 -14   10.90    8.20
   1  -4 -14   59.59    8.10
   0  -4 -14   18.40    6.70
   0  -4 -14    9.10    6.60
  -1  -4 -14  197.28   12.00
  -1  -4 -14  211.88   13.90
   1   4  14  182.68   12.60
  -2  -4 -14    0.30    6.20
   2   4  14   15.40    8.10
  -3  -4 -14    2.60    7.00
   3   4  14    0.50    9.70
  -4  -4 -14   76.99    9.80
   4   4  14  103.09   16.00
  -5  -4 -14   70.29   10.90
   3  -5 -14   14.40   11.00
   2  -5 -14  186.28   14.00
   1  -5 -14   14.80    7.50
   1  -5 -14    8.00    7.30
   0  -5 -14   96.49   10.40
   0  -5 -14   98.39    9.20
  -1  -5 -14   17.10    8.00
   1   5  14   14.90    7.50
   2   5  14   31.20    9.10
   3   5  14  155.08   14.20
   4   5  14    0.40   12.70
   2  -6 -14    6.10    9.60
   1  -6 -14   56.19    9.10
   0  -6 -14   11.80    8.70
  -1  -6 -14   27.10    9.70
  -2  -6 -14   62.89   12.00
   1  -6  15   12.40   11.00
   2  -6  15   -4.10   12.50
  -3  -5  15   44.70   13.60
  -1  -5  15   22.20    8.10
   0  -5  15  200.68   13.90
   1  -5  15  117.39   12.30
   2  -5  15   25.30   11.30
   3  -5  15   38.00   14.40
  -4  -4  15   21.30    9.90
  -4  -4  15   26.50   12.20
  -3  -4  15    8.20   10.70
  -3  -4  15    8.70    8.20
  -2  -4  15    6.50    7.80
  -1  -4  15   92.99    9.10
   0  -4  15   81.89    8.60
   1  -4  15   64.59    9.00
   2  -4  15    4.80    9.20
   3  -4  15   13.40   11.70
   4  -4  15   34.50   14.40
  -5  -3  15   68.79   13.30
  -4  -3  15   12.20   10.00
  -4  -3  15   24.90   10.10
  -3  -3  15  191.48   13.40
  -3  -3  15  201.28   14.50
  -2  -3  15  202.08   13.90
  -2  -3  15  210.28   13.80
  -1  -3  15  109.49    8.90
  -1  -3  15   98.19    8.70
   0  -3  15 1058.19   38.20
   0  -3  15  980.00   37.40
  -1   3 -15  101.19    9.50
   1  -3  15  115.89    9.70
  -2   3 -15   53.79    9.10
   2  -3  15   69.79    9.20
   2  -3  15   60.09    9.00
  -3   3 -15    6.70    9.80
   3  -3  15   -1.20    9.40
   3  -3  15   -6.20    9.40
  -4   3 -15    7.50   14.00
   4  -3  15    3.90   11.30
   4  -3  15  -10.30   13.00
  -5  -2  15   16.50   12.70
  -4  -2  15   45.80   11.00
   3   2 -15   -7.50    6.80
  -3  -2  15    1.80    7.70
  -3  -2  15    5.40    8.30
   2   2 -15    8.60    6.00
  -2  -2  15    6.60    7.60
   1   2 -15  121.19    8.50
  -1  -2  15  124.09    9.30
   0   2 -15  398.76   17.00
   0  -2  15  388.36   17.40
  -1   2 -15   70.59    8.40
   1  -2  15   80.39    8.20
  -2   2 -15  122.59   10.40
   2  -2  15  129.69    9.90
   2  -2  15  112.49   10.00
  -3   2 -15  566.24   24.80
   3  -2  15  539.45   25.90
   3  -2  15  483.95   24.40
  -4   2 -15   60.49   13.40
   4  -2  15   62.89   13.80
   4  -2  15   83.29   13.40
  -5   2 -15  -17.70   14.90
   5  -2  15   -3.40   13.10
  -5  -1  15    6.50   13.00
   4   1 -15  240.68   16.20
  -4  -1  15  216.98   16.30
   3   1 -15   30.90    8.30
  -3  -1  15   26.50    8.80
   2   1 -15  247.58   14.30
  -2  -1  15  293.17   15.50
   1   1 -15   13.30    6.60
  -1  -1  15   -5.60    6.00
   0   1 -15   66.29    7.70
   0  -1  15   61.89    7.10
  -1   1 -15    2.10    6.90
   1  -1  15    3.90    6.00
  -2   1 -15  771.02   30.60
   2  -1  15  762.52   30.50
   2  -1  15  816.82   31.20
  -3   1 -15    2.90    8.80
   3  -1  15    0.30    7.50
   3  -1  15    2.40    8.50
  -4   1 -15   76.59   12.90
   4  -1  15   66.29   13.30
   4  -1  15   87.99   11.50
  -5   1 -15    3.00   14.20
   5  -1  15   21.90   15.50
   5  -1  15   23.70   12.70
   5   0 -15  -12.70   12.30
  -5   0  15   17.90   14.60
   4   0 -15   39.30   10.80
  -4   0  15   10.10   11.20
   3   0 -15   76.59    9.50
  -3   0  15   48.60    9.80
   2   0 -15  175.78   11.60
  -2   0  15  155.78   11.50
   1   0 -15 1578.54   55.59
  -1   0  15 1550.74   55.59
   0   0 -15    8.20    6.70
   0   0  15   11.90    6.00
  -2   0 -15  185.08   11.70
   2   0  15  177.78   13.40
   2   0  15  173.88   11.90
  -3   0 -15   51.19    9.40
   3   0  15   47.90    9.60
   3   0  15   59.39    8.60
  -4   0 -15   -3.90    9.90
   4   0  15   -5.20   11.10
   4   0  15    4.00    7.90
  -5   0 -15  215.48   18.70
   5   0  15  189.08   15.10
   5   0  15  219.18   22.50
   5  -1 -15    9.20   13.80
  -5   1  15   38.10   16.10
   4  -1 -15   57.59   12.60
  -4   1  15   83.39   13.80
   3  -1 -15   -1.30    8.60
  -3   1  15   -2.70    9.00
   2  -1 -15  390.36   19.20
  -2   1  15  416.46   19.50
   1  -1 -15  121.69    9.60
  -1   1  15  121.49    9.60
   0  -1 -15   46.50    7.10
   0   1  15   34.40    6.20
  -1  -1 -15  238.28   13.90
   1   1  15  246.18   12.30
  -2  -1 -15   11.60    7.00
   2   1  15   13.40    5.70
   2   1  15   26.40    7.60
  -3  -1 -15  104.79   10.50
   3   1  15  137.09   12.10
   3   1  15  145.49   10.10
  -4  -1 -15   -0.20    9.10
   4   1  15   18.50   11.30
   4   1  15   27.70    8.60
  -5  -1 -15   -6.30   11.10
   5   1  15    1.70   14.10
   5  -2 -15   44.90   15.80
  -5   2  15   40.40   17.00
   4  -2 -15   28.80   12.10
  -4   2  15   10.70   12.70
   3  -2 -15   11.00    9.30
  -3   2  15    1.80   10.20
   2  -2 -15  160.98   11.90
  -2   2  15  147.39   11.70
   1  -2 -15  272.97   14.80
  -1   2  15  275.37   14.60
   0  -2 -15  109.99    8.70
   0   2  15   92.59    8.00
  -1  -2 -15  327.07   16.20
   1   2  15  322.37   14.20
   1   2  15  331.07   14.60
  -2  -2 -15   10.30    6.70
   2   2  15   17.50    7.20
   2   2  15   17.10    5.90
   2   2  15   15.10    5.30
  -3  -2 -15   17.40    7.60
   3   2  15   36.40    9.50
   3   2  15   15.10    5.90
  -4  -2 -15  295.27   18.00
   4   2  15  271.67   19.50
  -5  -2 -15   -0.80   10.60
   5   2  15   12.00   14.60
   4  -3 -15   20.50   12.30
  -4   3  15   18.20   13.70
   3  -3 -15  -18.10    9.10
  -3   3  15    9.30   11.10
   2  -3 -15   30.50    8.70
  -2   3  15   62.89    9.70
   1  -3 -15   15.40    7.10
  -1   3  15    8.80    6.80
   0  -3 -15  272.97   14.10
  -1  -3 -15    5.10    4.70
  -1  -3 -15   16.20    7.10
   1   3  15   -4.90    5.90
  -2  -3 -15   10.20    6.50
  -2  -3 -15    8.50    6.60
   2   3  15   20.90    7.40
  -3  -3 -15   16.40    7.50
   3   3  15    0.70    8.90
  -4  -3 -15   65.69   10.00
   4   3  15  105.59   14.90
  -5  -3 -15    8.40   10.00
   5   3  15   18.10   15.50
   4  -4 -15   24.10   13.00
   3  -4 -15   20.30   10.50
   2  -4 -15   41.40    8.90
   1  -4 -15   66.59    8.70
   0  -4 -15   83.29    8.70
   0  -4 -15   85.09    8.90
  -1  -4 -15  396.86   18.00
   1   4  15  407.36   18.90
  -2  -4 -15   66.59    8.20
   2   4  15   90.19   10.50
  -3  -4 -15   27.80    7.50
   3   4  15   38.60   10.20
  -4  -4 -15   27.20    8.50
   4   4  15   24.70   12.60
   3  -5 -15    8.00   10.60
   2  -5 -15   82.99   11.20
   1  -5 -15   55.99    9.10
   1  -5 -15   42.20    8.40
   0  -5 -15  109.09   11.00
   0  -5 -15  114.99    9.80
  -1  -5 -15    0.20    7.50
   1   5  15   -5.70    6.90
   2   5  15  122.19   12.20
   3   5  15   83.09   12.50
  -4  -5 -15   39.80    8.60
   4   5  15   36.00   14.50
   1  -6 -15   29.30    8.70
   0  -6 -15  103.19   12.20
  -1  -6 -15    6.60    9.40
   0  -6  16  107.49   11.60
   1  -6  16   78.99   13.50
  -3  -5  16   36.20   13.40
  -3  -5  16   19.50    8.50
  -2  -5  16  118.59   11.40
   0  -5  16   50.59    9.10
   1  -5  16   23.90   10.30
   2  -5  16  106.89   13.70
   3  -5  16   21.10   13.50
  -4  -4  16    9.90   11.70
  -4  -4  16    0.10    9.60
  -3  -4  16  142.99   12.00
  -3  -4  16  177.98   15.50
  -2  -4  16   -7.00    8.00
  -1  -4  16   18.50    7.40
   0  -4  16   40.40    8.00
   1  -4  16   12.60    8.30
   2  -4  16   72.19   10.60
   3  -4  16  222.18   18.00
   4  -4  16   -6.60   13.30
  -5  -3  16   22.80   12.80
  -4  -3  16   19.10   10.40
  -4  -3  16   -3.40    9.60
  -3  -3  16   58.49   10.10
  -3  -3  16   49.40    9.70
  -2  -3  16    9.70    7.70
  -2  -3  16   14.90    7.80
  -1  -3  16   18.00    7.00
   0  -3  16   63.69    7.70
  -1   3 -16   26.60    7.80
   1  -3  16   10.10    7.60
  -2   3 -16   48.50    9.00
   2  -3  16   28.30    8.40
   2  -3  16   26.70    8.20
  -3   3 -16   -0.30   10.30
   3  -3  16    1.10    9.80
   3  -3  16   13.50    9.80
  -4   3 -16   14.70   14.50
   4  -3  16   29.10   12.80
   4  -3  16    5.70   12.50
  -5  -2  16   -2.00   12.80
  -4  -2  16   40.30   11.10
   3   2 -16  175.38   12.50
  -3  -2  16  171.48   13.00
  -3  -2  16  187.18   13.20
  -2  -2  16   82.99    9.40
   1   2 -16  614.14   24.30
  -1  -2  16  629.24   24.90
   0   2 -16    3.90    6.20
   0  -2  16    6.40    6.20
  -1   2 -16    0.90    7.40
   1  -2  16   12.70    6.60
  -2   2 -16  189.18   13.90
   2  -2  16  188.58   14.00
   2  -2  16  205.78   13.70
  -3   2 -16   50.39   10.60
   3  -2  16   34.10    9.60
   3  -2  16   30.10    9.60
  -4   2 -16   10.60   12.20
   4  -2  16    9.40   12.60
   4  -2  16   -1.30   11.00
  -5   2 -16  145.79   20.00
   5  -2  16  174.38   18.50
  -5  -1  16    9.90   13.70
   4   1 -16   57.49   10.20
  -4  -1  16   61.29   11.90
   3   1 -16   15.30    8.40
  -3  -1  16   25.40    9.10
   2   1 -16   47.10    8.10
  -2  -1  16   62.49    8.80
   1   1 -16   30.00    7.10
  -1  -1  16   39.90    7.10
   0   1 -16   40.30    7.30
   0  -1  16   36.10    6.70
  -1   1 -16  109.79    9.70
   1  -1  16   99.29    8.90
  -2   1 -16  934.91   36.00
   2  -1  16  972.90   36.60
   2  -1  16  928.11   36.00
  -3   1 -16   -7.20    8.70
   3  -1  16    3.90    7.30
   3  -1  16   -1.60    8.50
  -4   1 -16   65.49   12.90
   4  -1  16   47.60   10.90
   4  -1  16   57.69   12.50
  -5   1 -16   96.19   16.50
   5  -1  16   93.39   14.60
   5  -1  16   98.59   20.00
   5   0 -16   15.50   12.80
  -5   0  16    6.70   14.40
   4   0 -16   33.00   11.00
  -4   0  16   34.70   12.30
   3   0 -16   -1.90    8.40
  -3   0  16   -1.20    8.90
   2   0 -16  112.59   10.10
  -2   0  16  100.39   10.20
   1   0 -16  375.16   17.60
  -1   0  16  354.96   17.40
  -1   0  16  364.26   16.90
   0   0 -16  304.17   15.30
   0   0  16  300.57   14.90
  -1   0 -16  229.08   14.10
   1   0  16  249.78   12.90
  -2   0 -16   78.59    8.90
   2   0  16   87.69    8.40
   2   0  16   68.39    8.90
  -3   0 -16   83.09   10.20
   3   0  16   96.69   10.10
   3   0  16   91.59   11.20
  -4   0 -16   42.00   11.30
   4   0  16   55.19   12.60
   4   0  16   56.39    9.90
  -5   0 -16   40.40   13.90
   5   0  16   13.50   16.20
   5   0  16   23.70   10.30
   5  -1 -16   16.30   14.10
  -5   1  16    8.30   15.30
   4  -1 -16   20.50   11.70
  -4   1  16    7.80   12.00
   3  -1 -16   46.70    9.90
  -3   1  16   46.30   10.20
   2  -1 -16  175.08   12.40
  -2   1  16  185.68   12.60
   1  -1 -16  231.28   14.20
  -1   1  16  239.38   13.80
   0  -1 -16   11.20    6.40
   0   1  16    6.30    5.70
  -1  -1 -16  182.18   12.80
   1   1  16  188.58   11.20
  -2  -1 -16  631.44   25.80
   2   1  16  641.44   25.30
   2   1  16  653.73   26.90
  -3  -1 -16  429.36   21.30
   3   1  16  466.35   20.30
   3   1  16  486.85   23.40
  -4  -1 -16   53.49   10.70
   4   1  16   69.79    9.40
   4   1  16   73.29   13.50
  -5  -1 -16   -2.10   11.30
   5   1  16    3.10   15.00
  -5   2  16   48.70   17.90
   4  -2 -16    7.80   12.20
  -4   2  16    8.60   13.00
   3  -2 -16    6.10    9.40
  -3   2  16   -6.20   10.20
   2  -2 -16    8.90    8.10
  -2   2  16   18.10    8.30
   1  -2 -16   42.70    7.80
  -1   2  16   40.60    7.80
   0  -2 -16    2.30    6.40
   0   2  16   -8.00    5.80
  -1  -2 -16  270.87   15.10
   1   2  16  298.87   13.20
   1   2  16  271.07   13.10
  -2  -2 -16   60.69    8.20
   2   2  16   52.39    6.50
   2   2  16   52.09    8.50
   2   2  16   55.59    8.20
  -3  -2 -16   17.60    7.90
   3   2  16   20.80    9.50
   3   2  16   23.50    6.10
  -4  -2 -16   43.20    9.60
   4   2  16   58.79   12.40
  -5  -2 -16  -10.20   10.30
   5   2  16   14.70   15.00
   4  -3 -16   44.10   12.90
  -4   3  16   32.70   14.90
   3  -3 -16   30.70   10.10
  -3   3  16   39.10   11.20
   2  -3 -16  527.95   23.70
  -2   3  16  515.35   24.20
   1  -3 -16    0.70    7.20
  -1   3  16   -0.10    7.00
   0  -3 -16   13.70    6.50
   0   3  16   15.90    6.20
  -1  -3 -16  122.39   10.00
  -1  -3 -16  108.49    8.00
   1   3  16  118.39    9.80
  -2  -3 -16   37.20    7.20
   2   3  16   44.10    8.70
  -3  -3 -16   43.70    8.70
   3   3  16   41.80   10.10
  -4  -3 -16  151.58   12.40
   4   3  16  142.49   16.80
  -5  -3 -16   14.70   10.10
   5   3  16    7.30   14.70
   3  -4 -16   20.40   10.40
   2  -4 -16    3.20    8.40
   1  -4 -16    2.20    7.30
   0  -4 -16   11.10    6.50
   0  -4 -16    2.30    6.90
  -1  -4 -16  168.28   11.00
   1   4  16  142.69   10.90
  -2  -4 -16   34.90    7.80
   2   4  16   23.10    8.50
  -3  -4 -16   63.09    8.70
   3   4  16   64.49   12.30
  -4  -4 -16   78.59   10.20
   4   4  16  104.29   14.40
   3  -5 -16   70.79   12.60
   2  -5 -16    6.40    8.90
   1  -5 -16   60.19    9.60
   0  -5 -16  227.08   15.70
   0  -5 -16  251.97   14.60
  -1  -5 -16  119.99   12.10
   1   5  16  124.09   11.20
   2   5  16   26.40    9.50
   3   5  16  456.15   26.10
  -4  -5 -16   16.90    8.00
   4   5  16    2.80   13.20
   1  -6 -16   51.19    9.20
   0  -6 -16   44.50   10.80
   0  -6 -16   36.60    8.10
  -1  -6 -16   30.10    9.80
   0  -6  17   -0.30    9.00
   1  -6  17  121.69   14.20
  -3  -5  17    3.30   12.80
  -3  -5  17   20.80    8.40
  -2  -5  17   26.10    9.50
  -1  -5  17   47.40    9.20
   0  -5  17  236.18   15.80
   1  -5  17    1.90   10.40
   2  -5  17   13.50   11.20
   3  -5  17   29.70   13.60
  -4  -4  17   10.80   10.10
  -4  -4  17   -5.50   11.60
  -3  -4  17   92.29   13.20
  -3  -4  17   70.29    9.90
  -2  -4  17   19.90    9.00
  -1  -4  17   12.90    7.80
   0  -4  17   52.99    8.30
   1  -4  17   16.70    9.00
   2  -4  17    6.80    8.50
   3  -4  17  -19.30   11.00
   4  -4  17   10.90   13.40
  -4  -3  17   50.59   11.80
  -4  -3  17   45.30   11.10
  -3  -3  17   79.99   10.60
  -3  -3  17  100.09   11.40
  -2  -3  17   33.10    8.50
  -2  -3  17   35.40    8.60
  -1  -3  17   97.89    9.30
   0   3 -17  549.54   21.80
   0  -3  17  524.65   22.60
  -1   3 -17   75.39    9.00
   1  -3  17   78.49    9.30
  -2   3 -17  185.88   13.20
   2  -3  17  183.18   12.90
   2  -3  17  169.88   13.20
  -3   3 -17   -0.60   10.20
   3  -3  17    8.50   10.20
   3  -3  17    4.00    9.90
  -4   3 -17   15.80   14.70
   4  -3  17   16.20   12.60
   4  -3  17   -5.60   11.60
  -5  -2  17   -2.70   12.60
  -4  -2  17   31.10   10.70
   3   2 -17   48.40    8.60
  -3  -2  17   34.70    9.30
  -3  -2  17   50.39    8.50
   2   2 -17   -6.00    6.60
  -2  -2  17   20.70    8.20
   1   2 -17   25.90    7.00
  -1  -2  17   32.20    7.20
   0   2 -17   10.40    6.60
   0  -2  17   17.40    6.70
  -1   2 -17   35.40    8.40
   1  -2  17   39.60    7.60
  -2   2 -17   44.10    9.00
   2  -2  17   61.09    9.00
   2  -2  17   57.79    9.00
  -3   2 -17   -0.50    9.80
   3  -2  17   11.50    8.90
   3  -2  17  -14.60    8.80
  -4   2 -17   10.50   12.70
   4  -2  17    4.60   12.60
   4  -2  17   17.60   11.50
  -5   2 -17   46.70   17.70
   5  -2  17   45.10   17.30
  -5  -1  17   93.09   16.20
   4   1 -17  156.08   13.60
  -4  -1  17  152.28   15.10
   3   1 -17   25.90    8.60
  -3  -1  17   34.00    9.60
   2   1 -17  123.79   10.60
  -2  -1  17  153.28   11.40
   1   1 -17  188.48   12.40
  -1  -1  17  169.18   12.30
   0   1 -17   50.09    7.70
   0  -1  17   36.70    7.20
  -1   1 -17  219.98   14.50
   1  -1  17  235.58   13.70
  -2   1 -17  487.45   22.20
   2  -1  17  520.05   22.10
   2  -1  17  481.35   22.50
  -3   1 -17   11.00    9.50
   3  -1  17    4.60    9.30
   3  -1  17    4.50    8.20
  -4   1 -17   17.60   12.00
   4  -1  17   16.20    9.90
   4  -1  17   25.00   12.00
  -5   1 -17    9.60   14.80
   5  -1  17   12.20   12.50
   5  -1  17   17.00   14.90
   5   0 -17   29.20   13.30
  -5   0  17  -14.00   13.60
   4   0 -17   74.99   12.60
  -4   0  17   38.30   12.60
   3   0 -17   93.69   11.00
  -3   0  17   96.79   11.40
   2   0 -17   36.60    8.40
  -2   0  17   32.00    8.60
   1   0 -17  145.59   11.00
  -1   0  17  163.58   11.00
  -1   0  17  173.18   11.90
   0   0 -17  711.93   27.90
   0   0  17  710.43   27.60
  -1   0 -17  129.89   10.60
   1   0  17  137.99    9.80
  -2   0 -17  106.79   10.10
   2   0  17  122.09    9.70
   2   0  17  105.69   10.40
  -3   0 -17  334.87   18.20
   3   0  17  291.47   19.40
   3   0  17  321.37   17.40
  -4   0 -17  100.59   13.20
   4   0  17   89.69   11.80
   4   0  17   92.29   15.20
  -5   0 -17  151.18   16.90
   5   0  17  138.29   14.70
   5   0  17  155.98   19.90
   5  -1 -17   15.60   14.40
  -5   1  17    6.40   15.80
   4  -1 -17   80.09   13.50
  -4   1  17   69.59   14.60
   3  -1 -17    2.90    9.40
  -3   1  17    1.70    9.50
   2  -1 -17  342.87   17.90
  -2   1  17  334.67   18.00
   1  -1 -17  108.59    9.80
  -1   1  17  100.89    9.40
   0  -1 -17   71.19    8.20
   0   1  17   68.49    7.50
  -1  -1 -17  124.69   10.30
   1   1  17  116.79    8.80
  -2  -1 -17  183.98   13.10
   2   1  17  170.28   11.30
   2   1  17  181.08   13.60
  -3  -1 -17   49.50    9.10
   3   1  17   44.20    7.90
   3   1  17   40.30   10.10
  -4  -1 -17  126.39   12.70
   4   1  17  125.29   11.00
   4   1  17  118.49   15.90
  -5  -1 -17    8.20   12.00
   5   1  17   17.20   15.60
   4  -2 -17   -0.70   12.00
  -4   2  17    5.30   13.00
   3  -2 -17    2.50    9.60
  -3   2  17   -4.30   10.20
   2  -2 -17   52.69    9.60
  -2   2  17   74.19   10.30
   1  -2 -17   13.20    7.50
  -1   2  17   18.70    7.50
   0  -2 -17   57.39    7.80
   0   2  17   58.89    7.60
  -1  -2 -17 1747.13   63.49
   1   2  17 1787.22   62.79
   1   2  17 1813.82   62.39
  -2  -2 -17  352.46   16.60
   2   2  17  288.47   14.70
   2   2  17  331.97   17.80
  -3  -2 -17   -9.10    7.80
   3   2  17   -4.60    9.00
   3   2  17   -2.50    6.00
  -4  -2 -17  200.78   14.40
   4   2  17  198.98   17.10
  -5  -2 -17   79.59   12.80
   5   2  17   73.79   17.70
   4  -3 -17   10.50   12.90
   3  -3 -17   24.40   10.20
  -3   3  17   23.40   11.90
   2  -3 -17   19.20    9.00
  -2   3  17   14.00    9.20
   1  -3 -17   27.40    8.20
  -1   3  17   50.79    8.10
   0  -3 -17  254.67   13.90
   0   3  17  212.08   12.70
  -1  -3 -17   11.80    7.20
  -2  -3 -17   65.49    8.60
   2   3  17   60.39    9.10
  -3  -3 -17   62.39    9.20
   3   3  17   75.79   11.20
  -4  -3 -17   55.29    9.90
   4   3  17   61.89   13.40
  -5  -3 -17    7.40   10.50
   5   3  17   13.60   15.70
   3  -4 -17  102.69   13.10
   2  -4 -17   29.30    9.40
   1  -4 -17   25.10    8.10
   0  -4 -17  402.06   19.10
  -1  -4 -17   39.40    7.90
   1   4  17   46.60    7.70
  -2  -4 -17   74.59    9.40
   2   4  17   80.39   10.50
  -3  -4 -17   63.49    9.00
   3   4  17   88.89   12.40
  -4  -4 -17   50.49    9.60
   4   4  17   74.19   14.70
   2  -5 -17    5.70    9.20
   1  -5 -17    2.50    8.10
   0  -5 -17   57.59    8.90
   0  -5 -17   65.39    8.70
   0   5  17   57.89    7.80
  -1  -5 -17    6.30    6.40
   1   5  17    6.60    7.70
  -2  -5 -17   18.00    7.50
   2   5  17   11.20    8.90
  -3  -5 -17  115.49   10.30
   3   5  17  128.79   15.40
  -4  -5 -17   83.69   10.20
   4   5  17  105.99   15.30
   1  -6 -17   63.29    9.80
   0  -6 -17   10.40    7.50
  -1  -6 -17    2.50    9.30
   0  -6  18   23.30   10.50
   1  -6  18   19.10   11.40
  -3  -5  18   41.70   13.90
  -3  -5  18   38.70    9.30
  -2  -5  18    3.30    9.50
  -1  -5  18  102.49   11.00
   0  -5  18   91.49   10.40
   1  -5  18    2.20   10.00
   2  -5  18   15.30   12.20
   3  -5  18   -3.00   12.80
  -4  -4  18   28.90   11.00
  -4  -4  18   31.70   12.60
  -3  -4  18   15.80    9.00
  -3  -4  18   22.00   11.30
  -2  -4  18   23.70    9.10
  -2  -4  18   15.90    8.50
  -1  -4  18   87.69   10.10
   0  -4  18   34.70    8.30
   1  -4  18    1.80    8.50
   2  -4  18  102.49   12.80
   3  -4  18   92.89   13.90
  -4  -3  18   57.59   11.40
  -4  -3  18   50.39   11.70
  -3  -3  18   11.20    9.40
  -3  -3  18   20.70    9.40
  -2  -3  18   57.49    9.30
  -2  -3  18   65.29    9.40
  -1  -3  18   10.60    7.40
   0   3 -18  161.18   11.50
   0  -3  18  147.49   10.90
  -1   3 -18    6.20    7.70
   1  -3  18   17.10    7.70
  -2   3 -18   32.30    9.80
   2  -3  18   18.30    9.20
   2  -3  18   20.20    8.80
  -3   3 -18   30.80   11.70
   3  -3  18   14.30   10.80
   3  -3  18   46.30   11.90
  -4   3 -18   68.39   16.90
   4  -3  18   67.79   15.10
   4  -3  18   56.99   13.90
  -5  -2  18   25.10   13.20
  -4  -2  18   61.19   11.90
   3   2 -18  133.99   11.10
  -3  -2  18  110.09   12.00
   2   2 -18  142.09   10.20
  -2  -2  18  138.29   11.40
   1   2 -18 1443.66   51.29
  -1  -2  18 1425.96   51.79
   0   2 -18  185.58   12.30
   0  -2  18  187.18   12.70
  -1   2 -18   49.50    9.10
   1  -2  18   61.99    8.30
  -2   2 -18   49.80    9.50
   2  -2  18   34.40    8.70
   2  -2  18   21.50    9.00
  -3   2 -18   -3.50   10.00
   3  -2  18    6.90    9.00
   3  -2  18    4.50   10.10
  -4   2 -18   11.40   13.20
   4  -2  18   30.60   11.70
   4  -2  18   35.60   14.10
  -5   2 -18  150.38   20.40
   5  -2  18  169.18   20.00
   5  -2  18   98.79   20.50
  -5  -1  18    2.70   13.40
   4   1 -18   31.30   10.30
  -4  -1  18   19.80   11.20
   3   1 -18   29.10    9.30
  -3  -1  18   26.10    9.70
   2   1 -18  180.18   12.20
  -2  -1  18  169.98   12.50
   1   1 -18   45.10    7.90
  -1  -1  18   52.39    8.00
   0   1 -18  141.39   10.30
   0  -1  18  146.89   10.40
  -1   1 -18    0.60    7.80
   1  -1  18   10.20    6.80
  -2   1 -18  251.37   15.80
   2  -1  18  257.87   16.60
   2  -1  18  301.87   15.80
  -3   1 -18  176.38   14.10
   3  -1  18  209.28   15.90
   3  -1  18  214.88   14.70
  -4   1 -18   10.10   11.60
   4  -1  18   11.70   12.90
   4  -1  18   -2.00    9.90
  -5   1 -18   -0.60   14.40
   5  -1  18   -0.40   11.80
   5  -1  18   13.60   16.50
  -5   0  18   88.39   16.70
   4   0 -18   19.10   11.70
  -4   0  18   27.80   12.50
   3   0 -18   98.69   11.60
  -3   0  18   71.19   11.20
   2   0 -18  117.49   10.70
  -2   0  18  102.89   10.70
   1   0 -18  236.78   14.50
  -1   0  18  210.98   13.40
  -1   0  18  223.38   14.10
   0   0 -18    9.30    7.30
   0   0  18   24.50    6.80
  -1   0 -18  467.25   21.00
   1   0  18  447.86   19.80
  -2   0 -18   19.20    7.90
   2   0  18   15.30    8.40
   2   0  18   38.10    7.50
  -3   0 -18   20.00    9.30
   3   0  18   15.40    9.80
   3   0  18    5.10    7.60
  -4   0 -18   67.79   12.40
   4   0  18   88.59   14.20
   4   0  18   79.79   11.60
  -5   0 -18    4.50   13.00
   5   0  18    7.00   15.30
   5   0  18   40.50   12.00
   5  -1 -18    7.30   14.70
  -5   1  18   24.00   15.60
   4  -1 -18   20.50   12.10
  -4   1  18   16.90   12.40
   3  -1 -18   10.50   10.00
  -3   1  18    0.90   10.00
   2  -1 -18  321.27   17.70
  -2   1  18  316.97   17.90
   1  -1 -18  150.48   11.50
  -1   1  18  146.59   10.90
   0  -1 -18   50.09    8.00
   0   1  18   57.39    7.30
  -1  -1 -18  155.08   11.40
   1   1  18  141.29    9.80
  -2  -1 -18  605.34   24.40
   2   1  18  566.24   25.50
   2   1  18  561.24   23.50
  -3  -1 -18   16.20    8.80
   3   1  18    8.60    7.10
   3   1  18    8.00    9.40
  -4  -1 -18  366.96   20.70
   4   1  18  318.77   18.20
   4   1  18  353.76   23.90
  -5  -1 -18   15.50   11.90
   5   1  18   -8.70   15.30
   4  -2 -18   24.50   13.30
  -4   2  18   32.30   13.90
   3  -2 -18   10.60   10.30
  -3   2  18    2.70   10.80
   2  -2 -18    0.00    8.40
  -2   2  18   14.00    9.10
   1  -2 -18   73.19    9.40
  -1   2  18   99.59    9.60
   0  -2 -18  187.68   11.90
   0   2  18  175.08   11.90
  -1  -2 -18   26.50    8.20
   1   2  18   35.40    6.30
   1   2  18   24.50    5.10
  -2  -2 -18   12.10    7.50
   2   2  18   10.70    7.90
   2   2  18   26.50    6.10
  -3  -2 -18   23.00    8.40
   3   2  18   25.50    9.90
   3   2  18   16.60    6.50
  -4  -2 -18   51.29   10.40
   4   2  18   51.99   12.90
  -5  -2 -18   11.10   11.40
   5   2  18   21.10   16.00
   4  -3 -18    1.50   12.90
   3  -3 -18   13.50   10.50
  -3   3  18   25.80   11.70
   2  -3 -18  117.39   12.20
  -2   3  18  125.99   12.00
   1  -3 -18   39.30    8.90
  -1   3  18   48.80    8.60
   0  -3 -18  371.06   17.80
   0   3  18  358.46   17.10
  -1  -3 -18   -3.00    7.00
   1   3  18   18.90    6.30
  -2  -3 -18   49.30    8.80
   2   3  18   46.80    9.10
  -3  -3 -18  539.05   24.20
   3   3  18  549.95   26.90
  -4  -3 -18    1.80    8.90
   4   3  18   14.80   11.90
  -5  -3 -18   52.39   11.30
   5   3  18   77.69   17.90
   3  -4 -18   12.90   10.50
   2  -4 -18   10.10    9.10
   1  -4 -18   -1.30    7.80
   0  -4 -18   22.10    8.00
  -1  -4 -18    8.40    7.30
   1   4  18    5.20    6.80
  -2  -4 -18   -5.30    7.70
   2   4  18    2.80    8.00
  -3  -4 -18   47.40    8.50
   3   4  18   43.50   10.90
  -4  -4 -18    7.80    8.70
   4   4  18   17.60   12.50
   2  -5 -18   88.19   12.10
   1  -5 -18   71.49   10.30
   0  -5 -18  240.78   15.00
  -1  -5 -18   55.19    8.20
   1   5  18   50.79    8.90
  -2  -5 -18   -5.80    7.10
   2   5  18    6.00    9.40
  -3  -5 -18   40.00    8.60
   3   5  18   35.70   11.60
   1  -6 -18   10.10    8.80
   0  -6 -18    2.10    7.60
  -1  -6  19  -20.00    9.60
   0  -6  19    0.80    9.80
  -3  -5  19   35.60    9.60
  -3  -5  19   47.30   14.10
  -2  -5  19   26.50   10.20
  -1  -5  19  222.18   14.70
   0  -5  19   71.59   10.60
   1  -5  19   -6.00    9.60
   2  -5  19   21.60   13.20
  -4  -4  19   22.90   10.80
  -3  -4  19   91.49   13.30
  -3  -4  19   69.99   10.90
  -2  -4  19   53.79    9.60
  -2  -4  19   68.79   10.70
  -1  -4  19  149.59   12.10
   0  -4  19    9.10    8.30
   1  -4  19  140.19   12.70
   2  -4  19  -10.10   10.60
   3  -4  19   -1.80   10.70
  -4  -3  19  105.59   13.10
  -3  -3  19  -12.80    8.60
  -3  -3  19    2.70    9.40
  -2  -3  19   -9.00    8.50
  -2  -3  19    2.80    8.20
  -1  -3  19   42.50    8.50
   0   3 -19   37.00    7.70
   0  -3  19   26.40    7.90
  -1   3 -19   48.70    8.90
   1  -3  19   49.50    8.90
  -2   3 -19  464.75   22.70
   2  -3  19  440.86   22.20
   2  -3  19  438.76   22.70
  -3   3 -19   53.49   12.10
   3  -3  19   32.80   11.10
   3  -3  19   30.90   11.50
   4  -3  19   10.80   12.20
   4  -3  19    7.60   12.80
  -4  -2  19  -13.20   10.80
   3   2 -19   -1.70    8.20
  -3  -2  19   13.30    9.70
   2   2 -19    9.90    7.70
  -2  -2  19    8.40    8.40
   1   2 -19    0.60    7.30
  -1  -2  19    2.10    7.40
   0   2 -19    0.70    7.00
   0  -2  19   19.50    7.30
  -1   2 -19   77.79   10.00
   1  -2  19   82.99    9.50
  -2   2 -19    5.80    9.00
   2  -2  19   -7.60    8.00
   2  -2  19   -0.90    8.40
  -3   2 -19  -12.90   10.00
   3  -2  19   -0.80   10.10
   3  -2  19    4.30    9.80
  -4   2 -19    1.40   13.10
   4  -2  19   10.10   12.90
   4  -2  19    9.00   10.90
  -5  -1  19   23.30   14.30
   4   1 -19  100.69   12.40
  -4  -1  19   77.39   13.40
   3   1 -19   53.49    9.70
  -3  -1  19   36.90   10.20
   2   1 -19  384.46   18.90
  -2  -1  19  363.96   19.50
   1   1 -19   19.10    7.70
  -1  -1  19    0.60    6.90
   0   1 -19   81.09    9.00
   0  -1  19   62.19    8.40
  -1   1 -19  522.25   23.60
   1  -1  19  533.95   22.80
  -2   1 -19  216.68   15.00
   2  -1  19  202.48   13.90
   2  -1  19  210.18   13.50
  -3   1 -19   -0.70    9.80
   3  -1  19   13.70    9.60
   3  -1  19   -2.00   10.00
  -4   1 -19  179.18   16.70
   4  -1  19  163.48   16.90
   4  -1  19  192.38   16.00
  -5   1 -19   -6.90   14.70
   5  -1  19   -0.40   12.30
   5  -1  19    2.50   15.20
  -5   0  19  -27.40   13.80
   4   0 -19   14.20   11.60
  -4   0  19   -0.40   12.20
   3   0 -19   11.40   10.00
  -3   0  19   24.90   10.30
   2   0 -19   14.50    8.50
  -2   0  19    4.50    8.20
  -1   0  19   20.00    7.80
   0   0 -19   -1.60    7.20
   0   0  19    8.90    6.70
  -1   0 -19  157.88   11.90
   1   0  19  169.88   11.20
  -2   0 -19   65.09    9.10
   2   0  19   47.30    9.70
   2   0  19   53.59    8.20
  -3   0 -19   36.90   10.10
   3   0  19   41.90    8.70
   3   0  19   21.80   11.00
  -4   0 -19   86.89   13.00
   4   0  19   94.79   15.60
   4   0  19  115.59   12.40
  -5   0 -19   25.10   13.90
   5   0  19   19.80   12.10
   5   0  19    9.10   16.20
   4  -1 -19   53.79   13.30
  -4   1  19   74.19   14.50
   3  -1 -19  147.89   13.90
  -3   1  19  160.48   14.30
   2  -1 -19  662.23   27.80
  -2   1  19  636.74   27.80
   1  -1 -19   46.30    8.90
  -1   1  19   55.89    8.40
   0  -1 -19   23.90    7.60
   0   1  19   40.10    6.90
  -1  -1 -19   34.90    8.40
   1   1  19   38.80    6.80
  -2  -1 -19   33.70    8.40
   2   1  19   56.79    9.20
   2   1  19   44.20    7.40
  -3  -1 -19   42.00    9.50
   3   1  19   33.90    7.90
   3   1  19   21.80   10.20
  -4  -1 -19   49.99   11.40
   4   1  19   53.29    9.20
   4   1  19   66.99   15.00
  -5  -1 -19   14.90   12.60
   5   1  19   13.80   16.20
   4  -2 -19   24.40   13.30
  -4   2  19   28.50   13.90
   3  -2 -19   -2.10   10.40
  -3   2  19    5.30   11.10
   2  -2 -19   -2.90    8.70
  -2   2  19    6.70    9.20
   1  -2 -19   14.90    8.20
  -1   2  19   39.10    8.20
   0  -2 -19   42.20    8.00
   0   2  19   43.80    7.70
  -2  -2 -19  386.16   18.90
   2   2  19  388.66   17.00
   2   2  19  353.56   19.60
  -3  -2 -19  133.89   11.70
   3   2  19  114.39    9.50
   3   2  19   92.29   12.30
  -4  -2 -19    4.10    9.70
   4   2  19   -9.10   11.40
  -5  -2 -19   60.49   12.60
   5   2  19   71.79   17.90
   4  -3 -19    8.50   13.20
   3  -3 -19   -8.40   10.30
  -3   3  19   20.30   12.00
   2  -3 -19   17.00    9.60
  -2   3  19    2.70    9.50
   1  -3 -19   23.10    8.50
  -1   3  19    2.90    7.90
   0  -3 -19   90.89    9.60
   0   3  19   75.29    8.80
  -1  -3 -19   -8.80    7.50
   1   3  19    5.90    6.30
  -2  -3 -19   15.20    8.20
   2   3  19   17.00    8.30
  -3  -3 -19   53.49    9.30
   3   3  19   53.89   11.30
  -4  -3 -19    5.40    9.50
   4   3  19   10.00   12.30
  -5  -3 -19    4.50   10.70
   3  -4 -19   77.09   12.70
   2  -4 -19    1.70    9.20
   1  -4 -19   28.80    8.90
   0  -4 -19  116.59   11.00
  -1  -4 -19  116.39   10.20
   1   4  19   97.49   10.30
  -2  -4 -19   74.99   10.00
   2   4  19   73.89   10.50
  -3  -4 -19  134.89   11.30
   3   4  19  111.79   13.60
  -4  -4 -19    8.90    9.00
   4   4  19    0.20   13.40
   2  -5 -19   17.70   10.50
   1  -5 -19   17.50    8.80
   0  -5 -19   29.80    8.30
  -1  -5 -19    0.50    7.00
   1   5  19   18.60    7.90
  -2  -5 -19   17.50    8.00
   2   5  19   49.00   11.20
  -3  -5 -19   55.39    9.80
   3   5  19   84.59   13.20
   0  -6 -19   36.60    8.60
  -3  -5  20   17.10   13.50
  -3  -5  20   25.40    9.70
  -2  -5  20   14.90   10.30
  -2  -5  20    5.40    8.40
  -1  -5  20    7.50    9.40
   0  -5  20  159.38   13.40
   1  -5  20   51.29   11.70
   2  -5  20  163.38   17.00
  -3  -4  20   -2.30   11.20
  -3  -4  20  -10.10    8.80
  -2  -4  20   86.19   11.40
  -2  -4  20  101.09   10.80
  -1  -4  20  226.48   14.50
   0  -4  20    3.40    8.30
   1  -4  20    3.00    7.80
   1  -4  20   13.50    9.40
   2  -4  20  -11.10   10.70
   2  -4  20  -14.20    9.20
   3  -4  20   26.50   12.80
  -4  -3  20  100.29   13.50
  -3  -3  20    6.00    9.30
  -3  -3  20   -5.30    9.40
  -2  -3  20   46.40    9.50
  -2  -3  20   30.70    9.60
   1   3 -20    4.60    7.00
  -1  -3  20  -10.60    8.00
   0   3 -20  118.59    9.90
   0  -3  20  110.79   10.60
  -1   3 -20   45.50    9.10
   1  -3  20   21.10    8.70
  -2   3 -20   -6.30   10.30
   2  -3  20   10.50    9.60
   2  -3  20   13.10   10.40
  -3   3 -20   12.50   11.90
   3  -3  20   16.60   10.80
   3  -3  20   20.00   11.50
   4  -3  20   16.40   13.40
   4  -3  20    3.70   12.40
  -4  -2  20   14.30   11.40
  -3  -2  20   16.10   10.10
   2   2 -20  207.28   14.30
  -2  -2  20  206.98   13.90
   1   2 -20  234.28   14.40
  -1  -2  20  218.68   14.90
   0   2 -20  170.48   11.30
   0  -2  20  148.59   11.20
  -1   2 -20   91.29   10.60
   1  -2  20   88.69    9.90
  -2   2 -20  -11.90    9.50
   2  -2  20   -5.70    8.50
   2  -2  20    2.10    8.60
  -3   2 -20   52.89   11.80
   3  -2  20   25.90   11.40
   3  -2  20   48.60   11.40
  -4   2 -20  182.98   18.40
   4  -2  20  201.78   19.50
   4  -2  20  208.88   17.80
   4   1 -20   44.60   13.30
  -4  -1  20   42.80   12.90
   3   1 -20    7.40    9.30
  -3  -1  20   17.50   10.00
   2   1 -20   37.10    9.10
  -2  -1  20   33.90    9.40
   1   1 -20   13.80    8.10
  -1  -1  20    6.90    7.70
   0   1 -20    9.00    7.60
   0  -1  20    2.70    7.30
  -1   1 -20   43.20    9.50
   1  -1  20   53.09    8.50
  -2   1 -20  149.79   12.50
   2  -1  20  145.89   12.80
   2  -1  20  173.88   12.40
  -3   1 -20    2.90    9.80
   3  -1  20   -0.20    9.20
   3  -1  20   -9.10   10.00
  -4   1 -20  -16.40   12.50
   4  -1  20    7.70   12.90
   4  -1  20    4.40   11.10
  -5   1 -20   41.20   17.00
   5  -1  20   50.09   14.70
   5  -1  20   31.00   16.50
   4   0 -20  -21.40   11.50
  -4   0  20    0.40   12.20
   3   0 -20   16.30   10.60
  -3   0  20   12.90   10.20
   2   0 -20   46.50   10.00
  -2   0  20   49.40    9.60
   1   0 -20   76.99    9.70
  -1   0  20   87.99    8.90
  -1   0  20   81.39    9.60
   0   0 -20  635.64   26.90
   0   0  20  687.33   26.80
  -1   0 -20  892.21   36.40
   1   0  20  968.00   35.50
  -2   0 -20   29.90    8.90
   2   0  20   20.40    9.20
   2   0  20   27.50    7.70
  -3   0 -20   13.70    9.60
   3   0  20   26.60    8.40
   3   0  20   23.00   10.50
  -4   0 -20   99.89   13.80
   4   0  20   96.39   12.30
   4   0  20  127.39   15.70
  -5   0 -20    1.60   13.90
   5   0  20   27.20   14.80
   5   0  20    1.60   17.40
   4  -1 -20   51.09   13.60
  -4   1  20   35.90   13.80
   3  -1 -20    5.80   10.50
  -3   1  20  -13.20   10.20
   2  -1 -20  122.19   12.10
  -2   1  20  127.79   11.90
   1  -1 -20   59.29    9.80
  -1   1  20   75.69    9.40
   0  -1 -20   11.20    7.80
   0   1  20   22.40    6.70
  -1  -1 -20   24.90    8.60
   1   1  20    4.30    6.30
  -2  -1 -20  148.59   12.10
   2   1  20  174.58   11.40
   2   1  20  167.68   13.10
  -3  -1 -20   34.00    9.60
   3   1  20   49.00    8.30
   3   1  20   47.70   10.90
  -4  -1 -20  103.09   12.90
   4   1  20   96.39   15.00
   4   1  20   69.69   10.10
  -5  -1 -20   64.79   14.10
   5   1  20   67.49   17.10
   4  -2 -20   14.00   13.20
  -4   2  20    0.50   13.30
   3  -2 -20  336.87   21.10
  -3   2  20  288.97   21.10
   2  -2 -20   16.70    9.70
  -2   2  20   29.70   10.00
   1  -2 -20   13.00    8.40
  -1   2  20   20.30    8.10
   0  -2 -20  470.75   21.60
   0   2  20  500.65   21.10
  -1  -2 -20   25.70    8.60
   1   2  20   24.40    6.20
   1   2  20   16.10    4.80
  -2  -2 -20   20.00    8.60
   2   2  20   14.90    6.40
   2   2  20    0.90    8.00
  -3  -2 -20   43.70    9.60
   3   2  20   59.59   11.40
   3   2  20   33.30    7.50
  -4  -2 -20   11.60   10.40
   4   2  20    7.20   12.60
  -5  -2 -20    2.70   11.90
   5   2  20   -6.50   15.60
   4  -3 -20   36.40   14.00
   3  -3 -20   -6.70   10.80
  -3   3  20   11.00   12.20
   2  -3 -20   25.90   10.20
  -2   3  20   10.40   10.40
   1  -3 -20   -5.50    8.20
  -1   3  20    9.80    8.50
   0  -3 -20  387.46   19.60
   0   3  20  401.66   18.60
  -1  -3 -20  317.07   17.10
   1   3  20  309.47   15.40
  -2  -3 -20   28.10    8.90
   2   3  20   42.20    9.20
  -3  -3 -20  218.88   15.70
   3   3  20  217.58   16.60
  -4  -3 -20  177.28   14.80
   4   3  20  249.78   20.40
   3  -4 -20   15.60   11.20
   2  -4 -20   11.80   10.00
   1  -4 -20   13.00    8.80
   0  -4 -20    0.10    8.10
  -1  -4 -20  100.09   10.00
   1   4  20   80.39    9.90
  -2  -4 -20   98.09   11.40
   2   4  20   92.79   11.30
  -3  -4 -20   12.70    8.50
   3   4  20    2.50   10.30
  -4  -4 -20   14.90    9.30
   4   4  20   11.60   14.30
   2  -5 -20   36.90   10.80
   1  -5 -20  221.28   15.20
   0  -5 -20   30.80    8.50
  -1  -5 -20   49.70    8.70
   1   5  20   67.09    9.70
  -2  -5 -20    2.90    7.90
   2   5  20    8.20    9.70
  -3  -5 -20   50.39   10.10
   3   5  20   63.29   12.70
   0  -6 -20   -0.50    8.20
  -1  -6 -20   10.10    8.00
  -2  -5  21   17.30    9.30
  -2  -5  21   12.20   10.90
  -1  -5  21    3.30    9.70
   0  -5  21  -21.30    9.50
   1  -5  21   43.40   11.60
   2  -5  21  172.48   17.90
  -3  -4  21   30.20   11.80
  -3  -4  21   38.00   10.10
  -2  -4  21   98.69   12.00
  -2  -4  21   82.09   10.90
  -1  -4  21  109.89   11.70
   0  -4  21  -18.70    8.70
   1  -4  21   54.09   11.30
   1  -4  21   48.00    9.30
   2  -4  21    4.80    9.90
   2  -4  21   14.80   11.20
   3  -4  21   -6.70   12.90
  -4  -3  21    5.80   11.10
  -3  -3  21    7.10    9.60
  -3  -3  21   -2.80    9.30
  -2  -3  21   11.20    9.20
  -2  -3  21   35.70    9.70
  -1  -3  21   25.40    8.90
   0   3 -21    4.50    7.90
   0  -3  21    9.30    8.20
  -1   3 -21  246.38   16.60
   1  -3  21  268.77   17.20
  -2   3 -21   69.69   12.40
   2  -3  21   81.89   11.90
   2  -3  21   92.39   11.20
  -3   3 -21   88.09   13.60
   3  -3  21   85.49   14.30
   3  -3  21   69.19   13.20
   4  -3  21   45.00   15.80
   4  -3  21   56.29   15.00
  -4  -2  21   20.00   11.80
  -3  -2  21   30.70   10.60
   2   2 -21   56.39    9.70
  -2  -2  21   56.49   10.10
   1   2 -21  119.99   10.30
  -1  -2  21   99.29   10.40
   0   2 -21   58.19    8.90
   0  -2  21   69.29    9.30
  -1   2 -21   56.29    9.80
   1  -2  21   67.19    9.50
  -2   2 -21   87.99   11.80
   2  -2  21   35.70    9.90
   2  -2  21   63.59   10.60
  -3   2 -21   36.70   11.70
   3  -2  21   58.19   12.20
   3  -2  21   55.09   12.00
  -4   2 -21   22.90   14.00
   4  -2  21   -0.30   12.60
   4  -2  21   10.30   12.50
  -4  -1  21   58.69   13.10
   3   1 -21   48.40   10.80
  -3  -1  21   40.50   11.10
   2   1 -21  927.21   35.60
  -2  -1  21  882.31   36.00
   1   1 -21  186.18   12.60
  -1  -1  21  172.78   12.30
   0   1 -21  189.48   13.70
   0  -1  21  184.38   12.60
  -1   1 -21   70.49   10.20
   1  -1  21   67.89    9.20
  -2   1 -21   71.59   10.80
   2  -1  21   61.39   10.70
   2  -1  21   51.39    9.70
  -3   1 -21  114.49   13.30
   3  -1  21  147.39   12.90
   3  -1  21  109.79   13.70
  -4   1 -21  248.98   19.50
   4  -1  21  221.08   19.50
   4  -1  21  247.08   18.80
  -5   1 -21   22.30   15.60
   5  -1  21   19.30   16.10
   4   0 -21   -0.20   12.30
  -4   0  21   29.00   13.00
   3   0 -21   70.89   12.00
  -3   0  21   64.69   11.70
   2   0 -21   55.79   10.40
  -2   0  21   61.49   10.10
   1   0 -21   17.10    8.70
  -1   0  21   15.80    8.30
   0   0 -21   19.90    8.00
   0   0  21   16.50    7.40
  -1   0 -21  207.48   14.00
   1   0  21  184.28   13.30
  -2   0 -21   28.80    9.60
   2   0  21   30.20    9.70
   2   0  21   39.10    8.30
  -3   0 -21   18.20   10.40
   3   0  21   50.59    9.30
   3   0  21   39.40   11.00
  -4   0 -21   14.70   12.20
   4   0  21   11.50   12.70
   4   0  21   12.30    9.80
  -5   0 -21   49.40   15.10
   5   0  21   44.80   14.80
   5   0  21   40.70   18.00
   4  -1 -21  -11.90   12.80
  -4   1  21   10.10   13.60
   3  -1 -21   78.99   12.50
  -3   1  21   56.89   12.40
   2  -1 -21   -3.00    9.30
  -2   1  21   14.40    9.50
   1  -1 -21   66.49   10.20
  -1   1  21   55.09    9.40
   0  -1 -21  693.63   28.20
   0   1  21  685.03   27.50
  -1  -1 -21   55.39    9.60
   1   1  21   55.99    7.80
  -2  -1 -21  158.48   12.90
   2   1  21  157.58   11.10
   2   1  21  135.09   12.80
  -3  -1 -21  606.94   26.30
   3   1  21  557.44   24.70
   3   1  21  530.85   27.50
  -4  -1 -21   15.20   11.10
   4   1  21   13.60   13.00
   4   1  21   15.40    8.90
  -5  -1 -21    0.40   12.80
   5   1  21    4.60   18.10
   4  -2 -21    0.60   13.40
  -4   2  21    2.40   14.20
   3  -2 -21  128.59   14.20
  -3   2  21  110.79   14.20
   2  -2 -21   31.70   10.30
  -2   2  21   29.90   10.30
   1  -2 -21   31.20    9.20
  -1   2  21   50.89    9.10
   0  -2 -21  274.57   16.40
   0   2  21  309.77   15.70
  -1  -2 -21  340.07   17.80
   1   2  21  298.37   15.30
   1   2  21  307.27   14.20
  -2  -2 -21   92.29   10.90
   2   2  21   81.69   10.70
   2   2  21   82.19    8.50
  -3  -2 -21   82.49   11.40
   3   2  21   85.09   12.70
   3   2  21  102.19    9.60
  -4  -2 -21    7.40   10.50
   4   2  21  -10.70   13.00
  -5  -2 -21    2.20   11.50
   5   2  21    3.20   17.60
   3  -3 -21   18.40   11.50
   2  -3 -21    6.70   10.10
  -2   3  21    3.70   10.20
   1  -3 -21  356.26   19.80
  -1   3  21  377.36   19.70
   0  -3 -21   25.00    8.70
   0   3  21   16.80    7.80
  -1  -3 -21   37.20    9.10
   1   3  21   29.00    7.50
  -2  -3 -21   27.50    9.30
   2   3  21   23.30    9.00
  -3  -3 -21   13.20    8.70
   3   3  21   19.50   10.90
  -4  -3 -21   -0.70    9.90
   4   3  21    9.40   14.10
   3  -4 -21   20.30   11.80
   2  -4 -21   16.40   10.40
   1  -4 -21   45.80   10.10
   0  -4 -21   -1.10    8.50
  -1  -4 -21   37.50    8.50
   1   4  21   33.60    8.40
  -2  -4 -21  396.66   21.10
   2   4  21  411.96   22.40
  -3  -4 -21    9.50    8.90
   3   4  21    5.30   11.00
  -4  -4 -21   48.60   10.50
   4   4  21   41.60   13.80
   2  -5 -21   52.19   11.50
   1  -5 -21   40.90   10.00
   0  -5 -21   -3.70    8.30
  -1  -5 -21    2.70    7.60
   1   5  21   -5.80    7.90
  -2  -5 -21   14.80    8.50
   2   5  21    9.60    9.70
  -3  -5 -21   10.00    9.30
   3   5  21   20.60   11.80
  -2  -5  22   -8.90    8.50
  -2  -5  22   -8.60   10.90
  -1  -5  22   21.70   10.00
   0  -5  22    5.70   10.30
   1  -5  22  156.88   15.40
   2  -5  22  187.78   18.70
  -3  -4  22   20.70   11.70
  -3  -4  22   25.10   10.40
  -2  -4  22  109.39   11.50
  -2  -4  22   94.99   12.50
  -1  -4  22    7.90    9.30
   0  -4  22    8.40    9.50
   1  -4  22    8.10   10.30
   2  -4  22   34.80   12.40
   2  -4  22   28.90   12.10
   3  -4  22    2.30   13.60
  -4  -3  22   36.20   12.20
  -3  -3  22   24.30   10.50
  -3  -3  22   43.20   10.80
  -2  -3  22  116.59   11.80
  -2  -3  22  121.69   12.40
  -1  -3  22   67.99   10.40
   0   3 -22  136.09   11.20
   0  -3  22  116.79   11.30
  -1   3 -22   -2.10    9.10
   1  -3  22    5.00    9.00
  -2   3 -22    0.20   11.20
   2  -3  22   -1.10    9.40
   2  -3  22   10.20   10.20
   3  -3  22   10.80   12.00
   3  -3  22  -11.80   12.00
   4  -3  22  119.49   17.20
   4  -3  22   99.79   16.60
  -4  -2  22   10.10   11.80
  -3  -2  22   -3.90   10.10
   2   2 -22   51.59   10.00
  -2  -2  22   61.89   10.40
   1   2 -22   58.49    9.20
  -1  -2  22   41.00    9.30
   0   2 -22   61.89    9.40
   0  -2  22   49.10    9.20
  -1   2 -22  403.26   20.70
   1  -2  22  396.36   20.50
  -2   2 -22  113.09   12.70
   2  -2  22  101.09   11.80
   2  -2  22   82.29   11.40
  -3   2 -22   28.40   12.00
   3  -2  22    7.50   11.80
   3  -2  22   37.90   11.70
  -4   2 -22   65.49   15.50
   4  -2  22   61.79   14.60
   4  -2  22   81.39   15.60
  -4  -1  22    6.40   12.40
   3   1 -22   55.99   11.60
  -3  -1  22   65.99   11.60
   2   1 -22   88.79   10.80
  -2  -1  22   54.09   10.50
   1   1 -22   19.90    8.90
  -1  -1  22   15.40    8.40
   0   1 -22   43.40    9.00
   0  -1  22   37.70    8.60
  -1   1 -22   35.60    9.90
   1  -1  22   46.10    8.90
  -2   1 -22   -4.70    9.90
   2  -1  22    7.70    8.60
   2  -1  22    1.10    9.40
  -3   1 -22  -10.30   10.50
   3  -1  22    2.10   10.60
   3  -1  22    4.10    9.60
  -4   1 -22   71.99   15.10
   4  -1  22   85.59   14.00
   4  -1  22   72.09   14.80
   4   0 -22   27.50   13.30
  -4   0  22   31.20   12.70
   3   0 -22  147.99   14.50
  -3   0  22  147.39   14.20
   2   0 -22   60.29   11.00
  -2   0  22   34.50   10.20
   1   0 -22    6.00    9.00
  -1   0  22   -3.40    8.30
   0   0 -22  398.06   19.40
   0   0  22  374.36   18.90
  -1   0 -22   15.00    9.40
   1   0  22   12.90    7.70
  -2   0 -22  110.59   12.10
   2   0  22  104.89   12.10
   2   0  22   98.29   10.20
  -3   0 -22  224.78   16.20
   3   0  22  242.48   17.40
   3   0  22  228.38   15.40
  -4   0 -22   12.10   12.20
   4   0  22    5.40   13.40
   4   0  22   24.00   10.10
  -5   0 -22   51.29   15.10
   5   0  22   59.09   18.80
   4  -1 -22   34.40   14.20
  -4   1  22   -0.90   13.90
   3  -1 -22   12.80   11.20
  -3   1  22    3.00   11.20
   2  -1 -22   19.40   10.20
  -2   1  22   26.90   10.10
   1  -1 -22   17.60    9.30
  -1   1  22    0.50    8.40
   0  -1 -22  126.79   11.40
   0   1  22  134.69   11.10
   0   1  22  119.69   10.30
  -1  -1 -22   12.20    9.10
   1   1  22    8.20    6.90
  -2  -1 -22  190.68   14.10
   2   1  22  192.18   14.50
   2   1  22  187.68   12.70
  -3  -1 -22  228.48   15.50
   3   1  22  209.08   16.60
   3   1  22  213.98   14.80
  -4  -1 -22   34.90   12.10
   4   1  22   30.00    9.60
   4   1  22   30.70   13.50
  -5  -1 -22   24.20   13.70
   5   1  22   22.00   17.50
   4  -2 -22   71.39   15.30
  -4   2  22   64.29   15.60
   3  -2 -22  215.48   17.50
  -3   2  22  231.08   17.90
   2  -2 -22  114.49   12.90
  -2   2  22  143.29   13.10
   1  -2 -22   25.90    9.60
  -1   2  22   28.50    8.90
   0  -2 -22    6.60    8.10
   0   2  22    1.70    7.40
  -1  -2 -22  245.18   16.20
   1   2  22  240.58   13.80
   1   2  22  255.37   12.50
  -2  -2 -22  266.37   17.50
   2   2  22  258.97   17.50
   2   2  22  258.57   14.40
  -3  -2 -22   42.10    9.90
   3   2  22   68.49   12.20
  -4  -2 -22    8.10   11.00
   4   2  22   17.70   13.20
   3  -3 -22   13.90   11.70
   2  -3 -22    5.30   10.40
  -2   3  22   12.70   10.60
   1  -3 -22   98.39   11.80
  -1   3  22   96.19   11.10
   0  -3 -22   81.59   10.70
   0   3  22   63.79    9.20
  -1  -3 -22   18.30    8.70
  -2  -3 -22   16.00    9.50
   2   3  22   18.30    9.10
  -3  -3 -22   -5.00    8.90
   3   3  22    3.30   10.70
  -4  -3 -22   68.69   11.80
   4   3  22   77.09   17.10
   2  -4 -22   28.30   11.00
   1  -4 -22   67.69   10.80
   0  -4 -22    2.30    8.70
  -1  -4 -22   -7.20    8.00
   1   4  22   10.40    8.20
  -2  -4 -22  134.59   13.00
   2   4  22  150.88   13.70
  -3  -4 -22   -7.20    9.30
   3   4  22   -5.50   11.20
  -4  -4 -22   16.90    9.70
   4   4  22    5.60   13.10
   1  -5 -22   89.39   11.60
   0  -5 -22   92.39   11.20
  -1  -5 -22   31.80    8.70
   1   5  22   51.89   10.40
  -2  -5 -22   35.90    9.40
   2   5  22   66.69   11.70
  -3  -5 -22   -0.10    9.40
   3   5  22   -5.30   11.60
  -2  -5  23   17.70    9.50
  -2  -5  23    6.80   11.50
  -1  -5  23   46.00   11.40
   0  -5  23   49.40   11.90
   1  -5  23   47.60   12.50
  -3  -4  23   28.60   10.90
  -2  -4  23   63.59   10.60
  -2  -4  23   65.29   11.90
  -1  -4  23  189.48   14.40
   0  -4  23   43.80   10.40
   1  -4  23  176.88   15.10
   2  -4  23   47.60   13.30
   3  -4  23   64.79   15.70
  -3  -3  23    7.00   10.20
  -2  -3  23   48.10   10.50
  -2  -3  23   39.90   10.90
  -1  -3  23   -2.20    8.90
   0   3 -23   30.90   11.10
   0  -3  23   26.10    9.40
  -1   3 -23   14.10    9.60
   1  -3  23   11.00    9.40
  -2   3 -23   -4.30   11.60
   2  -3  23   -5.90   11.20
   2  -3  23  -11.50    9.40
   3  -3  23   77.89   14.70
   3  -3  23   81.19   13.30
  -4  -2  23    3.50   11.90
  -3  -2  23   32.20   11.00
   2   2 -23  100.99   11.60
  -2  -2  23  132.59   12.60
   1   2 -23   82.79   10.40
  -1  -2  23   96.69   10.80
   0   2 -23  105.29   10.80
   0  -2  23  103.59   11.10
  -1   2 -23   12.60    9.70
   1  -2  23    6.70    8.90
  -2   2 -23   77.99   12.60
   2  -2  23   45.20   10.90
   2  -2  23   60.29   11.10
  -3   2 -23   41.50   13.50
   3  -2  23   70.99   12.70
   3  -2  23   47.60   12.90
  -4   2 -23   33.60   15.30
   4  -2  23   17.90   15.10
   4  -2  23   13.30   13.90
  -4  -1  23    4.90   12.50
   3   1 -23  122.99   13.40
  -3  -1  23   91.99   13.00
   2   1 -23   31.70    9.90
  -2  -1  23   16.70   10.00
   1   1 -23   16.60    9.20
  -1  -1  23   23.80    8.80
   0   1 -23   78.19   10.20
   0  -1  23   62.69    9.60
  -1   1 -23   30.10   10.10
   1  -1  23   36.70    9.10
  -2   1 -23   31.00   11.00
   2  -1  23   32.60   10.60
   2  -1  23   29.80    9.50
  -3   1 -23  262.27   19.30
   3  -1  23  274.17   18.80
   3  -1  23  290.57   21.00
  -4   1 -23   17.10   13.70
   4  -1  23   17.40   12.30
   4  -1  23   12.50   13.10
   4   0 -23   23.20   13.60
  -4   0  23   13.80   12.90
   3   0 -23   43.10   11.90
  -3   0  23   42.60   11.90
   2   0 -23    6.90   10.00
  -2   0  23   -2.40    9.50
   1   0 -23   26.30    9.60
  -1   0  23   23.00    9.30
   0   0 -23   56.69    9.80
   0   0  23   57.69    9.20
  -1   0 -23   29.80    9.80
   1   0  23   37.90    8.70
  -2   0 -23   36.10   10.70
   2   0  23   26.10   10.30
   2   0  23   25.80    8.70
  -3   0 -23   -8.00   10.20
   3   0  23  -11.50    8.80
   3   0  23    8.30   11.00
  -4   0 -23    1.80   12.70
   4   0  23   14.10   10.50
   4   0  23   13.30   13.40
   4  -1 -23   34.60   14.40
  -4   1  23   32.10   14.40
   3  -1 -23   16.10   11.60
  -3   1  23   23.50   11.90
   2  -1 -23   42.40   11.20
  -2   1  23   50.49   10.80
   1  -1 -23  139.39   12.70
  -1   1  23  125.59   11.80
   0  -1 -23  298.17   17.00
   0   1  23  274.47   16.70
   0   1  23  279.57   15.70
  -1  -1 -23   21.70    9.40
   1   1  23   17.10    7.30
  -2  -1 -23   25.90   10.10
   2   1  23   20.70    7.70
   2   1  23   23.70    9.80
  -3  -1 -23   45.40   10.80
   3   1  23   54.19    9.60
   3   1  23   51.99   11.80
  -4  -1 -23   84.09   13.60
   4   1  23   78.39   17.10
   4  -2 -23   13.80   14.50
  -4   2  23    8.60   14.60
   3  -2 -23    3.80   12.00
  -3   2  23   24.20   12.40
   2  -2 -23   92.69   12.70
  -2   2  23   87.29   12.40
   1  -2 -23  -12.90    8.90
  -1   2  23   -5.90    8.60
   0  -2 -23   40.20    9.30
   0   2  23   47.10    8.80
  -1  -2 -23  121.29   11.60
   1   2  23  118.19    9.30
   1   2  23  116.29    9.70
  -2  -2 -23  185.48   14.50
   2   2  23  173.18   11.90
   2   2  23  150.88   13.70
  -3  -2 -23   69.69   11.10
   3   2  23   54.19   12.40
  -4  -2 -23   19.60   11.00
   4   2  23   17.00   14.80
   3  -3 -23   65.19   13.60
   2  -3 -23   20.20   10.90
  -2   3  23   -2.00   12.30
   1  -3 -23  220.18   16.20
  -1   3  23  272.67   16.20
   0  -3 -23  136.59   12.80
   0   3  23  123.69   11.10
  -1  -3 -23   94.89   11.20
  -2  -3 -23   66.49   11.10
   2   3  23   42.50   10.20
  -3  -3 -23   38.60   10.50
   3   3  23   55.39   12.30
  -4  -3 -23   16.60   10.30
   4   3  23   11.20   14.90
   2  -4 -23   13.50   11.10
   1  -4 -23  179.18   14.50
   0  -4 -23   54.49   10.70
  -1  -4 -23   16.20    8.80
   1   4  23   22.70    8.50
  -2  -4 -23  221.18   15.60
   2   4  23  218.68   16.30
  -3  -4 -23  267.87   18.80
   3   4  23  262.87   19.60
   1  -5 -23   19.50   10.40
   0  -5 -23   25.40    9.30
  -1  -5 -23  131.49   12.40
   1   5  23  129.69   12.80
  -2  -5 -23   -7.70    8.60
   2   5  23    6.60   10.50
  -1  -5  24   20.70   11.00
   0  -5  24   43.30   11.70
   1  -5  24  149.49   15.60
  -3  -4  24   -9.20   10.00
  -2  -4  24   -4.60    9.30
  -2  -4  24   -6.90   10.90
  -1  -4  24    9.50   10.10
   0  -4  24   41.70   10.50
   1  -4  24   54.19   11.60
   2  -4  24   60.29   13.00
  -3  -3  24  114.89   12.80
  -2  -3  24  162.28   13.80
  -1  -3  24   21.40    9.80
   0  -3  24   63.59   10.60
  -1   3 -24   -5.50   14.10
   1  -3  24    2.70   10.30
   2  -3  24   -3.80    9.80
   2  -3  24   -2.10   10.90
   3  -3  24  238.58   19.30
   3  -3  24  200.78   17.60
  -4  -2  24   43.00   13.30
  -3  -2  24   -1.60   10.60
   2   2 -24    4.80    9.60
  -2  -2  24   15.70   10.20
   1   2 -24   19.00    9.40
  -1  -2  24   27.10    9.50
   0   2 -24  189.48   13.40
   0  -2  24  185.78   14.00
  -1   2 -24   32.40   10.50
   1  -2  24   -1.20    9.30
  -2   2 -24  113.19   13.80
   2  -2  24   75.19   12.20
   2  -2  24   90.29   12.40
  -3   2 -24   15.90   12.70
   3  -2  24   13.20   11.50
   3  -2  24   17.30   12.30
  -4   2 -24   18.20   15.20
   4  -2  24    2.50   15.20
   4  -2  24   35.00   14.00
  -4  -1  24   25.60   13.10
   3   1 -24   28.40   11.50
  -3  -1  24   38.60   11.70
   2   1 -24   18.30   10.00
  -2  -1  24   16.30   10.20
   1   1 -24   22.70    9.80
  -1  -1  24   19.80    9.40
   0   1 -24  122.79   11.70
   0  -1  24  145.39   12.20
  -1   1 -24   43.10   10.40
   1  -1  24   44.40    9.60
  -2   1 -24   78.69   13.00
   2  -1  24  100.39   12.80
   2  -1  24   78.99   11.40
  -3   1 -24   61.19   12.90
   3  -1  24   38.10   12.30
   3  -1  24   62.49   11.80
  -4   1 -24   -0.90   14.10
   4  -1  24   -4.10   13.20
   4  -1  24    5.90   12.50
   4   0 -24   30.80   14.00
  -4   0  24    7.70   13.60
   3   0 -24  363.96   22.40
  -3   0  24  363.36   22.50
   2   0 -24   92.29   12.40
  -2   0  24   88.89   11.90
   1   0 -24  137.59   12.90
  -1   0  24  144.79   12.60
   0   0 -24  393.56   20.20
   0   0  24  386.56   19.60
  -1   0 -24   46.30   10.40
   1   0  24   38.00    8.90
  -2   0 -24   27.70   11.00
   2   0  24   20.20   10.60
   2   0  24   23.70    8.80
  -3   0 -24  140.29   14.30
   3   0  24  101.09   14.30
   3   0  24  135.19   12.90
  -4   0 -24  101.69   15.30
   4   0  24  112.69   16.50
   4   0  24  116.59   13.90
   4  -1 -24   17.60   13.90
  -4   1  24   24.80   14.60
   3  -1 -24   -2.10   11.90
  -3   1  24   25.40   12.00
   2  -1 -24   10.20   10.70
  -2   1  24   21.20   10.60
   1  -1 -24  157.38   13.80
  -1   1  24  169.98   13.30
   0  -1 -24   39.60    9.70
   0   1  24   36.00    8.20
   0   1  24   48.50    9.50
  -1  -1 -24  134.09   12.70
   1   1  24  123.59   10.80
  -2  -1 -24    4.20   10.50
   2   1  24   18.00    7.70
   2   1  24   13.40   10.00
  -3  -1 -24   14.80   10.60
   3   1  24   -4.80    8.60
   3   1  24    8.50   11.10
  -4  -1 -24   76.69   13.70
   4   1  24   64.19   15.10
   3  -2 -24   15.30   12.40
  -3   2  24   -2.90   12.00
   2  -2 -24   10.30   10.80
  -2   2  24   28.10   10.90
   1  -2 -24  135.29   13.10
  -1   2  24  146.39   12.70
   0  -2 -24   40.90    9.70
   0   2  24   43.90    9.10
  -1  -2 -24   62.79   10.50
   1   2  24   50.39    8.00
   1   2  24   34.30    6.50
  -2  -2 -24  406.16   22.70
   2   2  24  422.86   23.20
   2   2  24  419.56   19.80
  -3  -2 -24   34.40   10.90
   3   2  24   27.80   11.70
  -4  -2 -24   32.60   11.60
   4   2  24   54.99   15.20
   3  -3 -24   36.30   13.00
   2  -3 -24   -8.60   10.60
   1  -3 -24   19.40   10.60
  -1   3  24   21.40   13.10
   0  -3 -24  321.17   19.50
  -1  -3 -24   -6.90    8.80
  -2  -3 -24   19.60   10.80
   2   3  24   41.50   10.50
  -3  -3 -24   62.79   11.50
   3   3  24   32.30   12.20
  -4  -3 -24   14.80   10.40
   4   3  24   28.90   14.50
   2  -4 -24  135.79   14.90
   1  -4 -24   30.80   10.40
   0  -4 -24  132.89   13.10
  -1  -4 -24   36.30    9.40
   1   4  24   35.90    9.20
  -2  -4 -24   41.00   10.40
   2   4  24   56.49   11.40
  -3  -4 -24   17.10   10.60
   3   4  24   20.00   12.10
   1  -5 -24    3.90   10.20
   0  -5 -24   16.20    9.80
  -1  -5 -24  202.88   15.20
   1   5  24  197.98   15.50
  -2  -5 -24   18.80    9.20
   2   5  24    2.50   10.30
   0  -5  25   29.90   11.80
  -2  -4  25   19.80   11.60
  -2  -4  25   13.40   10.20
  -1  -4  25   15.30   10.50
   0  -4  25  272.87   19.10
   1  -4  25  321.57   21.90
   2  -4  25   43.80   14.70
  -3  -3  25   14.70   10.80
  -2  -3  25   -8.40    9.60
  -1  -3  25   34.50   10.60
   0  -3  25  100.09   12.10
   1  -3  25   19.30   10.40
   2  -3  25  -14.90   11.30
   2  -3  25    4.00   10.40
   3  -3  25   92.59   14.70
   3  -3  25   88.39   15.10
  -3  -2  25   86.59   13.00
  -2  -2  25   85.79   12.10
   1   2 -25   89.09   11.30
  -1  -2  25  102.99   11.90
   0   2 -25   35.20   10.20
   0  -2  25   25.30   10.10
  -1   2 -25  -15.30   10.10
   1  -2  25   -3.80    9.50
  -2   2 -25    5.00   12.30
   2  -2  25    4.80   10.80
   2  -2  25    1.90   10.20
  -3   2 -25  126.39   17.30
   3  -2  25  145.49   15.70
   3  -2  25  146.49   16.00
  -4   2 -25    3.40   14.90
   4  -2  25    0.00   13.80
   4  -2  25   -8.00   15.20
  -4  -1  25   13.40   13.30
   3   1 -25   27.90   12.00
  -3  -1  25    4.50   11.50
   2   1 -25   39.80   11.10
  -2  -1  25   37.00   10.90
   1   1 -25   41.90   10.30
  -1  -1  25   51.29   10.80
  -1  -1  25   40.30    9.90
   0   1 -25  213.88   14.90
   0  -1  25  236.88   15.20
  -1   1 -25   37.80   10.80
   1  -1  25   54.29   10.10
  -2   1 -25   21.60   12.10
   2  -1  25   70.79   11.30
   2  -1  25   53.29   11.90
  -3   1 -25  150.98   16.30
   3  -1  25  190.78   16.30
   3  -1  25  186.58   16.80
  -4   1 -25  145.39   17.70
   4  -1  25  140.09   16.70
   4  -1  25  107.09   17.70
   4   0 -25   48.80   14.70
  -4   0  25   59.69   15.20
   3   0 -25   63.59   13.30
  -3   0  25   69.59   13.10
   2   0 -25  132.99   14.00
  -2   0  25  154.68   14.10
   1   0 -25   13.30   10.10
  -1   0  25   25.70    9.70
   0   0 -25   11.10    9.40
   0   0  25   16.70    8.50
  -1   0 -25   12.80   10.00
   1   0  25   24.50    8.90
  -2   0 -25  195.78   16.30
   2   0  25  248.28   15.70
   2   0  25  203.28   16.40
  -3   0 -25   43.10   12.30
   3   0  25   29.20   12.40
   3   0  25   57.29   10.80
  -4   0 -25   21.10   13.70
   4   0  25   30.10   14.50
   4   0  25   35.60   11.80
   3  -1 -25   -3.90   12.00
  -3   1  25    0.80   12.10
   2  -1 -25   32.80   11.70
  -2   1  25   44.20   11.40
   1  -1 -25  555.74   25.80
  -1   1  25  519.95   25.10
   0  -1 -25   69.39   10.80
   0   1  25   55.29    9.00
   0   1  25   55.69   10.20
  -1  -1 -25   -5.70    9.50
   1   1  25   -8.00    7.40
  -2  -1 -25   10.80   10.80
   2   1  25   26.00    8.80
   2   1  25   10.40   10.30
  -3  -1 -25   -5.30   10.90
   3   1  25    7.50   11.60
   3   1  25   38.10    9.80
  -4  -1 -25   50.49   13.40
   4   1  25   28.70   14.80
   3  -2 -25   -4.10   12.50
  -3   2  25   31.60   13.00
   2  -2 -25   51.59   12.20
  -2   2  25   77.79   12.50
   1  -2 -25  -11.40    9.80
  -1   2  25  -12.60    9.20
   0  -2 -25   13.80    9.60
   0   2  25   38.00    9.20
  -1  -2 -25   65.19   11.10
   1   2  25   81.29   10.40
   1   2  25   78.19    9.00
  -2  -2 -25   -0.10   10.60
   2   2  25   -1.00    9.80
   2   2  25    9.70    7.60
  -3  -2 -25   95.49   13.30
   3   2  25   81.89   13.60
  -4  -2 -25   23.10   11.40
   4   2  25   -1.80   13.50
   3  -3 -25   19.10   13.00
   2  -3 -25   50.69   12.20
   1  -3 -25   57.09   11.70
   0  -3 -25  204.38   15.50
  -1  -3 -25   89.89   11.90
  -2  -3 -25   58.49   11.70
   2   3  25   56.59   11.20
  -3  -3 -25    6.20   10.70
   3   3  25   15.30   11.90
  -4  -3 -25   -2.20   10.30
   4   3  25    5.00   14.10
   2  -4 -25   15.60   12.00
   1  -4 -25   26.00   10.70
   0  -4 -25   54.79   10.80
  -1  -4 -25    7.40    9.00
   1   4  25    7.30    8.50
  -2  -4 -25   -9.90    9.30
   2   4  25    6.30   10.10
  -3  -4 -25   31.00   11.30
   3   4  25   28.90   12.90
   0  -5 -25   -1.20    9.80
  -1  -5 -25   71.29   11.50
   1   5  25   73.59   11.60
  -2  -4  26   46.60   12.70
  -2  -4  26   38.10   11.20
  -1  -4  26   51.99   12.20
   0  -4  26   21.70   11.20
   1  -4  26    9.30   11.60
   2  -4  26   43.50   14.10
  -3  -3  26   62.19   12.10
  -2  -3  26   28.60   10.70
  -1  -3  26   82.69   12.00
   0  -3  26  238.28   16.60
   1  -3  26   63.39   12.30
   2  -3  26  161.88   16.20
   2  -3  26  159.58   14.90
   3  -3  26  187.78   17.60
   3  -3  26  209.18   19.20
  -3  -2  26   19.80   11.70
  -2  -2  26    2.30   10.40
   1   2 -26   70.69   11.20
  -1  -2  26   53.09   10.90
   0   2 -26   -1.80   10.10
   0  -2  26    9.40    9.80
  -1   2 -26    3.90   10.50
   1  -2  26   24.10   10.30
  -2   2 -26   44.30   13.60
   2  -2  26   36.50   11.60
   2  -2  26   34.50   12.00
  -3   2 -26  128.39   17.20
   3  -2  26  128.19   15.60
   3  -2  26  133.39   15.70
   3   1 -26   71.29   13.50
  -3  -1  26   68.49   13.30
   2   1 -26  144.39   13.90
  -2  -1  26  137.99   14.00
   1   1 -26  116.59   12.50
  -1  -1  26  120.79   12.90
  -1  -1  26  113.59   12.30
   0   1 -26    1.00    9.80
   0  -1  26    2.40    9.20
  -1   1 -26   34.90   11.20
   1  -1  26   32.60    9.80
  -2   1 -26   61.19   13.30
   2  -1  26   68.69   11.80
   2  -1  26   58.09   12.40
  -3   1 -26  -15.70   12.30
   3  -1  26   -6.30   12.10
   3  -1  26    8.70   11.10
  -4   1 -26    2.60   14.40
   4  -1  26   29.30   13.30
   4  -1  26   11.00   14.40
   3   0 -26   25.60   12.80
  -3   0  26   28.80   12.30
   2   0 -26   37.80   11.90
  -2   0  26   53.59   11.90
   1   0 -26   29.40   10.40
  -1   0  26   15.00   10.00
   0   0 -26  -18.10    9.40
   0   0  26   -2.70    8.30
  -1   0 -26  100.69   12.50
   1   0  26   84.39   11.10
  -2   0 -26  566.34   27.80
   2   0  26  588.44   26.10
   2   0  26  494.95   27.80
  -3   0 -26   27.80   12.20
   3   0  26   19.90   12.70
   3   0  26   25.20   10.40
  -4   0 -26    1.30   13.00
   4   0  26   15.00   14.40
   4   0  26   17.30   11.90
   3  -1 -26    4.60   12.80
  -3   1  26    8.40   12.60
   2  -1 -26    3.70   11.20
  -2   1  26   21.10   11.20
   1  -1 -26   16.70   10.60
  -1   1  26   25.60   10.20
   0  -1 -26   -8.70    9.40
   0   1  26   -3.10    7.90
   0   1  26    3.30    8.90
  -1  -1 -26   31.20   10.90
   1   1  26   49.80    9.20
  -2  -1 -26   -0.20   11.40
   2   1  26   42.80    9.30
   2   1  26   35.30   11.20
  -3  -1 -26   31.50   12.40
   3   1  26   14.20   12.40
   3   1  26   36.80    9.60
  -4  -1 -26   21.80   12.60
   4   1  26   44.80   15.80
   3  -2 -26   44.10   13.80
  -3   2  26   24.00   13.50
   2  -2 -26  203.98   17.00
  -2   2  26  224.18   17.10
   1  -2 -26  187.18   15.90
  -1   2  26  233.38   15.90
   0  -2 -26   28.70   10.80
   0   2  26   41.00    9.70
  -1  -2 -26   34.90   10.80
   1   2  26   49.50    9.70
   1   2  26   14.70    7.50
  -2  -2 -26  137.59   14.80
   2   2  26  140.29   11.80
   2   2  26  123.19   14.00
  -3  -2 -26   57.49   12.40
   3   2  26   44.90   13.00
  -4  -2 -26  239.68   18.30
   4   2  26  212.78   20.50
   2  -3 -26    8.40   11.80
   1  -3 -26   -7.10   10.30
   0  -3 -26   51.19   11.50
  -1  -3 -26   18.30   10.20
  -2  -3 -26  -14.50   10.20
   2   3  26    6.40    9.90
  -3  -3 -26   16.50   11.60
   3   3  26   20.80   12.50
   1  -4 -26   68.59   12.30
   0  -4 -26   13.30   10.40
  -1  -4 -26   -5.50    9.10
   1   4  26   -7.40    8.60
  -2  -4 -26   35.30   11.00
   2   4  26   18.80   10.80
   3   4  26   33.40   12.80
  -2  -4  27   19.90   10.80
  -1  -4  27   23.20   11.60
   0  -4  27  174.68   15.90
   1  -4  27   20.20   12.90
  -2  -3  27   10.10   10.50
  -1  -3  27    4.10   10.60
   0  -3  27   49.60   11.70
   1  -3  27   36.60   11.80
   2  -3  27   46.20   12.90
   2  -3  27   22.40   11.30
   3  -3  27   65.49   14.30
  -3  -2  27   49.40   12.80
  -2  -2  27    9.60   11.10
   1   2 -27    1.10   10.30
  -1  -2  27    3.20   10.20
   0   2 -27   36.80   11.10
   0  -2  27   45.80   11.20
  -1   2 -27   10.20   11.30
   1  -2  27   27.30   10.80
  -2   2 -27  421.56   26.30
   2  -2  27  394.06   24.00
   2  -2  27  398.96   24.00
  -3   2 -27   -8.20   15.40
   3  -2  27    8.00   13.10
   3  -2  27   -1.10   12.30
  -3  -1  27    8.40   11.90
   2   1 -27   40.00   11.80
  -2  -1  27   41.80   11.60
   1   1 -27   45.90   11.30
  -1  -1  27   50.39   10.90
  -1  -1  27   49.70   11.50
   0   1 -27   50.19   11.20
   0  -1  27   49.60   10.80
  -1   1 -27   68.39   12.60
   1  -1  27   79.59   11.80
  -2   1 -27  -13.30   12.30
   2  -1  27    4.70   11.50
   2  -1  27    7.60   10.50
  -3   1 -27    8.00   13.50
   3  -1  27    6.00   11.70
   3  -1  27   -1.30   12.70
  -4   1 -27  108.69   17.90
   4  -1  27  120.39   17.60
   3   0 -27   28.80   13.00
  -3   0  27   -6.40   11.90
   2   0 -27   36.80   12.20
  -2   0  27   50.09   12.00
   1   0 -27   37.70   11.10
  -1   0  27   12.90   10.40
   0   0 -27   93.19   12.20
   0   0  27   95.99   11.30
  -1   0 -27   39.50   11.50
   1   0  27   36.40   10.00
  -2   0 -27   67.79   13.50
   2   0  27   69.29   13.00
   2   0  27   62.29   11.20
  -3   0 -27   36.90   13.60
   3   0  27   25.90   13.20
   3   0  27   34.80   11.20
  -4   0 -27   19.90   13.70
   4   0  27   23.40   12.70
   4   0  27   -5.30   15.00
   3  -1 -27   32.80   13.70
  -3   1  27    2.70   12.80
   2  -1 -27   50.99   12.70
  -2   1  27   43.20   12.10
   1  -1 -27   77.39   12.80
  -1   1  27   91.09   12.40
   0  -1 -27  176.08   14.70
   0   1  27  180.28   14.20
   0   1  27  175.98   13.30
  -1  -1 -27   70.89   12.00
   1   1  27   73.89   10.20
  -2  -1 -27  170.18   16.30
   2   1  27  167.78   13.30
   2   1  27  146.29   15.30
  -3  -1 -27   20.30   12.40
   3   1  27   16.10    9.90
   3   1  27   28.40   12.90
  -4  -1 -27  133.69   16.30
   4   1  27  148.49   18.40
   3  -2 -27    7.60   13.10
  -3   2  27   -0.70   13.50
   2  -2 -27   87.39   13.80
  -2   2  27  102.79   13.90
   1  -2 -27   24.90   11.50
  -1   2  27   13.10   10.40
   0  -2 -27   -2.60   10.50
   0   2  27   12.90    9.30
  -1  -2 -27   46.20   11.60
   1   2  27   70.19    9.40
   1   2  27   61.49   10.50
  -2  -2 -27    8.40   11.80
   2   2  27   -3.90   10.60
  -3  -2 -27   19.90   12.00
   3   2  27   27.80   12.90
   2  -3 -27   94.49   14.50
   1  -3 -27   22.60   11.60
   0  -3 -27   70.29   12.30
  -1  -3 -27  524.95   25.90
  -2  -3 -27    5.20   10.90
   2   3  27    4.10   10.20
  -3  -3 -27   27.40   12.50
   3   3  27   16.80   12.60
   1  -4 -27   43.10   11.90
   0  -4 -27   36.70   11.20
  -1  -4 -27    4.40   10.00
   1   4  27    5.50    9.00
  -2  -4 -27   49.99   11.40
   2   4  27   27.60   11.30
  -1  -4  28   20.90   11.80
   0  -4  28   16.70   11.80
   1  -4  28   63.79   13.60
  -2  -3  28   11.50   11.30
  -1  -3  28  195.38   15.90
   0  -3  28  237.88   17.40
   1  -3  28   30.20   12.10
   2  -3  28  155.48   15.30
   2  -3  28  133.19   16.40
  -3  -2  28   15.00   12.40
  -2  -2  28   18.50   11.30
   1   2 -28   43.70   17.60
  -1  -2  28   52.49   11.80
   0   2 -28   20.00   11.40
   0  -2  28   22.60   10.70
  -1   2 -28    2.20   11.30
   1  -2  28  -18.90   10.30
  -2   2 -28   31.40   14.10
   2  -2  28   34.50   12.60
   2  -2  28   11.70   11.90
  -3   2 -28   12.80   15.40
   3  -2  28   26.40   13.50
   3  -2  28   22.90   13.30
  -3  -1  28    5.50   12.50
   2   1 -28   69.89   13.00
  -2  -1  28   57.19   12.50
   1   1 -28   94.79   12.80
  -1  -1  28   81.79   12.20
  -1  -1  28   88.19   12.70
   0   1 -28   26.00   11.10
   0  -1  28    3.90   10.20
  -1   1 -28   25.00   11.60
   1  -1  28    7.10   10.50
  -2   1 -28   65.69   14.40
   2  -1  28   54.59   13.30
   2  -1  28   57.79   12.50
  -3   1 -28   -0.20   15.20
   3  -1  28   -8.20   12.90
   3  -1  28   -7.00   12.00
   3   0 -28    8.00   13.20
  -3   0  28  -30.50   12.20
   2   0 -28    5.70   11.80
  -2   0  28   17.80   11.60
   1   0 -28   26.80   11.60
  -1   0  28   37.40   11.50
   0   0 -28   62.09   12.20
   0   0  28   74.69   11.40
  -1   0 -28    1.70   11.30
   1   0  28    7.20    9.50
  -2   0 -28   75.89   14.10
   2   0  28   50.69   13.20
   2   0  28   88.49   12.10
  -3   0 -28  416.76   25.20
   3   0  28  381.06   23.40
   3   0  28  381.36   26.30
   3  -1 -28   -2.20   13.20
  -3   1  28    6.50   13.20
   2  -1 -28   11.60   12.00
  -2   1  28   16.70   11.90
   1  -1 -28   69.59   12.60
  -1   1  28   66.99   12.20
   0  -1 -28  -11.10   10.70
   0   1  28   -5.50    8.70
   0   1  28    3.20    9.90
  -1  -1 -28  167.98   15.50
   1   1  28  204.38   14.20
  -2  -1 -28   95.69   14.90
   2   1  28  109.59   11.90
   2   1  28  106.69   14.20
  -3  -1 -28   14.20   13.00
   3   1  28    6.00   10.20
   3   1  28    0.50   13.00
   2  -2 -28  235.48   18.80
  -2   2  28  254.87   18.50
   1  -2 -28   51.49   12.30
  -1   2  28   31.80   11.30
   0  -2 -28   12.60   10.90
   0   2  28   -2.80    9.50
  -1  -2 -28   14.10   11.20
   1   2  28    1.00    9.30
   1   2  28    6.30    7.90
  -2  -2 -28   -7.20   11.50
   2   2  28    7.90   11.40
  -3  -2 -28  171.08   17.00
   3   2  28  157.88   17.40
   2  -3 -28   17.40   12.60
   1  -3 -28    6.80   11.70
   0  -3 -28   71.79   12.80
  -1  -3 -28   -1.50   10.20
  -2  -3 -28   -0.60   11.10
   2   3  28    9.70   10.80
  -3  -3 -28   -2.30   12.20
   3   3  28   -2.70   12.60
   1  -4 -28  199.48   16.80
   0  -4 -28   82.79   13.00
  -1  -4 -28   32.40   10.90
   1   4  28   41.30   10.70
  -2  -4 -28    3.50   11.00
   2   4  28   -2.70   10.80
  -2  -3  29   69.19   12.50
  -1  -3  29   11.20   11.50
   0  -3  29    5.50   11.10
   1  -3  29   79.49   13.80
   2  -3  29   -4.10   12.20
   2  -3  29    2.40   12.10
  -2  -2  29    8.80   11.40
  -1  -2  29  149.59   14.80
   0   2 -29   87.19   13.10
   0  -2  29   75.89   12.90
  -1   2 -29  192.88   16.30
   1  -2  29  246.58   17.70
  -2   2 -29  481.85   27.40
   2  -2  29  358.16   25.40
   2  -2  29  400.46   24.90
  -3   2 -29   17.20   15.60
   3  -2  29   52.09   14.40
   3  -2  29   22.30   14.30
  -3  -1  29    6.70   12.70
   2   1 -29   32.40   12.60
  -2  -1  29    9.10   11.70
   1   1 -29    8.50   11.10
  -1  -1  29   18.00   11.40
  -1  -1  29   -7.60   10.30
   0   1 -29    0.40   11.40
   0  -1  29   -3.40   10.00
  -1   1 -29   10.30   11.50
   1  -1  29   31.60   11.10
  -2   1 -29   38.50   13.70
   2  -1  29   25.10   13.10
   2  -1  29   36.60   12.40
  -3   1 -29   50.39   16.00
   3  -1  29   37.30   13.50
   3  -1  29   35.60   14.50
   3   0 -29   45.60   14.40
  -3   0  29   33.20   14.10
   2   0 -29  122.79   14.90
  -2   0  29  106.89   14.00
   1   0 -29   11.90   11.40
  -1   0  29   12.70   11.30
   0   0 -29   42.00   12.10
   0   0  29   35.90   10.40
  -1   0 -29  -12.90   11.00
   1   0  29   14.00   10.10
  -2   0 -29    3.70   12.80
   2   0  29    5.70   11.90
   2   0  29   29.10   11.10
  -3   0 -29   -2.00   14.20
   3   0  29   15.70   13.60
   3   0  29  -13.90   11.20
  -3   1  29   -5.40   13.30
   2  -1 -29   -6.20   12.20
  -2   1  29   13.70   12.10
   1  -1 -29    6.60   11.50
  -1   1  29   -0.20   10.80
   0  -1 -29    4.80   11.50
   0   1  29    0.00    8.70
   0   1  29  -17.70    9.70
  -1  -1 -29  168.68   16.00
   1   1  29  237.48   16.20
  -2  -1 -29   65.69   13.90
   2   1  29   90.89   12.00
   2   1  29   71.49   13.30
  -3  -1 -29    2.60   12.90
   3   1  29  -18.00   13.30
   2  -2 -29   96.69   14.70
  -2   2  29   88.09   14.50
   1  -2 -29   18.50   12.00
  -1   2  29   41.10   11.60
   0  -2 -29   22.90   12.00
   0   2  29   21.30   10.30
  -1  -2 -29    9.70   11.20
   1   2  29    5.80   10.50
   1   2  29   10.70   10.00
  -2  -2 -29    6.80   11.80
   2   2  29    5.60   11.40
  -3  -2 -29    0.80   13.40
   3   2  29   40.10   14.10
   1  -3 -29   13.70   12.20
   0  -3 -29    5.60   11.70
  -1  -3 -29   16.30   10.80
  -2  -3 -29  193.48   16.80
   2   3  29  176.98   16.50
   0  -4 -29   16.80   11.70
  -1  -4 -29   15.00   10.50
   1   4  29   24.90   10.50
  -1  -3  30  187.28   16.10
   0  -3  30   10.60   12.00
   1  -3  30   13.10   12.40
  -2  -2  30   35.90   12.20
  -1  -2  30   -5.10   10.60
   0   2 -30    4.60   14.40
   0  -2  30   11.50   11.30
  -1   2 -30    4.60   12.30
   1  -2  30   -7.10   11.80
  -2   2 -30   41.90   15.30
   2  -2  30   25.40   13.20
   2  -2  30   30.60   13.60
   2   1 -30   48.80   13.10
  -2  -1  30   38.40   13.10
   1   1 -30   25.40   11.90
  -1  -1  30   46.20   12.50
  -1  -1  30   45.20   11.80
   0   1 -30  101.89   14.00
   0  -1  30   96.19   13.20
  -1   1 -30  348.77   23.30
   1  -1  30  422.56   23.30
  -2   1 -30   14.30   13.60
   2  -1  30  -14.20   12.30
   2  -1  30    5.30   12.10
  -3   1 -30   17.50   15.70
   3  -1  30   -7.90   14.00
   3  -1  30    4.90   12.70
   2   0 -30    4.60   12.90
  -2   0  30   -6.40   11.70
   1   0 -30   -2.70   11.60
  -1   0  30    7.40   11.30
   0   0 -30    0.10   11.90
   0   0  30    8.30   10.40
  -1   0 -30   48.80   13.10
   1   0  30   59.09   11.60
  -2   0 -30   19.10   13.30
   2   0  30   27.40   13.30
   2   0  30   48.90   12.20
  -3   0 -30   -5.30   14.20
   3   0  30   -2.50   14.00
   3   0  30    5.20   12.00
   2  -1 -30   21.30   13.00
  -2   1  30   25.00   12.80
   1  -1 -30   17.50   12.10
  -1   1  30   12.40   11.50
   0  -1 -30  141.69   15.50
   0   1  30  166.88   15.00
  -1  -1 -30  167.68   15.90
   1   1  30  181.98   14.40
  -2  -1 -30   10.10   12.90
   2   1  30    7.60   12.10
   2   1  30   12.20   10.10
  -3  -1 -30   -9.00   13.80
   3   1  30    0.10   13.80
   2  -2 -30   69.19   14.50
  -2   2  30   48.90   14.00
   1  -2 -30  -10.70   11.80
  -1   2  30   11.20   11.50
   0  -2 -30   12.50   12.00
   0   2  30    2.10   10.30
  -1  -2 -30   12.10   11.50
  -2  -2 -30  -11.40   12.00
   2   2  30    5.60   12.00
  -3  -2 -30   50.39   14.50
   3   2  30   66.99   15.70
   1  -3 -30   37.40   12.80
   0  -3 -30   -5.70   11.80
  -1  -3 -30    0.90   11.00
  -2  -3 -30   -1.70   12.00
   2   3  30   22.90   12.40
   0  -3  31    1.70   12.00
   1  -3  31    2.80   13.00
  -2  -2  31  103.79   14.50
  -1  -2  31  132.69   14.80
  -1  -2  31  101.49   15.00
   0  -2  31   80.09   13.50
  -1   2 -31  206.88   22.40
   1  -2  31  242.68   18.70
  -2   2 -31   60.79   17.80
   2  -2  31   33.80   14.00
   2  -2  31   48.70   14.60
  -2  -1  31   15.90   12.80
   1   1 -31   19.50   12.40
  -1  -1  31   14.70   12.00
  -1  -1  31   18.60   11.70
   0   1 -31   20.50   12.40
   0  -1  31   28.30   11.50
  -1   1 -31   21.50   12.50
   1  -1  31   19.80   11.60
  -2   1 -31   20.40   14.00
   2  -1  31   14.00   12.60
   2  -1  31   14.70   13.90
   2   0 -31   55.89   14.30
  -2   0  31   28.30   13.10
   1   0 -31   33.80   12.90
  -1   0  31   74.29   13.30
   0   0 -31   21.50   12.70
   0   0  31   29.70   11.20
  -1   0 -31   22.20   12.60
   1   0  31   10.90   11.20
  -2   0 -31   -6.10   13.00
   2   0  31    4.00   12.90
   2   0  31   24.40   11.90
  -3   0 -31   77.89   16.90
   3   0  31  128.09   16.00
   3   0  31   81.09   16.80
   2  -1 -31   55.09   14.30
  -2   1  31   41.20   13.70
   1  -1 -31   10.30   12.50
  -1   1  31   20.40   11.90
   0  -1 -31   33.60   13.00
   0   1  31   39.20   12.00
  -1  -1 -31  111.09   14.70
   1   1  31  105.59   12.90
  -2  -1 -31  181.48   17.70
   2   1  31  175.18   17.70
   2   1  31  168.48   14.90
  -3  -1 -31   -6.80   15.10
   3   1  31   36.50   15.40
   1  -2 -31   54.49   14.00
   0  -2 -31  243.18   18.90
  -1  -2 -31    4.20   11.80
  -2  -2 -31    3.60   12.60
   2   2  31   10.10   13.00
   0  -3 -31   61.19   13.40
  -1  -3 -31    6.10   11.40
  -1  -2  32    8.30   12.10
  -1  -2  32    3.80   12.60
   0  -2  32   83.59   13.80
   1  -2  32   23.00   13.20
  -2  -1  32   55.79   13.80
   1   1 -32   -4.10   12.50
  -1  -1  32   27.20   12.80
   0   1 -32  164.58   16.90
   0  -1  32  182.28   16.20
  -1   1 -32  363.06   23.20
   1  -1  32  344.37   23.50
  -2   1 -32  121.39   16.90
   2  -1  32   83.39   16.20
   2  -1  32  120.09   16.20
   2   0 -32   11.90   13.10
  -2   0  32  -18.10   12.30
   1   0 -32   37.90   13.10
  -1   0  32   20.50   12.90
   0   0 -32   23.80   13.40
   0   0  32    4.00   11.20
   0   0  32   22.70   12.80
  -1   0 -32   64.89   13.70
   1   0  32   56.19   12.70
  -2   0 -32    7.60   13.50
   2   0  32   25.10   12.20
   2   0  32    3.40   13.50
   1  -1 -32    9.80   12.70
  -1   1  32    5.00   11.90
   0  -1 -32   38.30   13.60
   0   1  32   34.30   12.30
  -1  -1 -32   -3.30   12.20
   1   1  32   -1.10   10.40
  -2  -1 -32   74.09   15.10
   2   1  32   68.79   15.20
   2   1  32  104.49   14.70
   1  -2 -32    9.90   13.30
   0  -2 -32  116.79   15.60
  -1  -2 -32   28.80   12.70
  -2  -2 -32   75.59   14.90
   2   2  32   70.59   15.00
   0  -2  33    3.20   12.20
   1   1 -33   -9.20   12.90
  -1  -1  33   -2.20   12.60
   0   1 -33   52.69   14.30
   0  -1  33   67.29   13.60
  -1   1 -33    8.30   13.20
   1  -1  33    5.40   12.40
   1   0 -33    8.40   13.00
  -1   0  33   24.10   13.10
   0   0 -33  185.88   17.90
   0   0  33  217.18   18.00
   0   0  33  200.08   17.10
  -1   0 -33   19.10   12.70
   1   0  33    1.70   11.60
  -2   0 -33  -10.10   13.80
   2   0  33    5.90   13.10
   2   0  33    5.00   14.20
   1  -1 -33   -0.80   13.10
  -1   1  33    2.10   12.50
   0  -1 -33    4.10   13.00
   0   1  33    0.20   12.10
  -1  -1 -33    6.70   12.70
   1   1  33    2.90   10.60
  -2  -1 -33   24.50   14.40
   2   1  33   20.50   14.50
   0  -2 -33   22.30   13.60
  -1  -2 -33   64.29   13.80
   0   1 -34  167.18   17.70
   0  -1  34  190.58   17.30
  -1   1 -34   -1.60   13.50
   0   0 -34  109.39   15.90
   0   0  34  120.09   15.20
   0   0  34  115.29   15.60
  -1   0 -34   16.10   13.30
   1   0  34   -1.40   11.60
   0  -1 -34   24.60   13.90
   0   1  34   44.20   13.30
  -1  -1 -34  -20.80   12.40
   1   1  34    5.60   10.90
   1   1  34   -5.80   12.60

_computing_structure_solution     'SHELXT 2014/4 (Sheldrick, 2014)'
;
_shelx_hkl_checksum              4609
loop_
_space_group_symop_operation_xyz
'x, y, z'
'-x, -y, -z'
loop_
_atom_site_label
_atom_site_type_symbol
_atom_site_fract_x
_atom_site_fract_y
_atom_site_fract_z
_atom_site_U_iso_or_equiv
_atom_site_adp_type
_atom_site_occupancy
_atom_site_site_symmetry_order
_atom_site_calc_flag
_atom_site_refinement_flags_posn
_atom_site_refinement_flags_adp
_atom_site_refinement_flags_occupancy
_atom_site_disorder_assembly
_atom_site_disorder_group
S1 S 0.6256(9) 1.1924(9) 0.32540(16) 0.0255(11) Uani 1 1 d . . . . .
S2 S 0.4015(9) 0.7021(9) 0.38923(15) 0.0249(11) Uani 1 1 d . . . . .
S3 S 0.2876(8) 1.0491(8) 0.24685(14) 0.0178(10) Uani 1 1 d . . . . .
S4 S 0.0967(9) 0.6423(8) 0.29990(15) 0.0216(11) Uani 1 1 d . . . . .
S5 S -0.0734(8) 0.9355(8) 0.15370(14) 0.0162(9) Uani 1 1 d . . . . .
S6 S -0.2501(8) 0.5227(8) 0.20732(14) 0.0181(10) Uani 1 1 d . . . . .
N1 N -0.999(3) 0.250(3) 0.0424(6) 0.032(4) Uani 1 1 d . . . . .
C1 C 0.702(4) 1.083(4) 0.3876(7) 0.042(6) Uani 1 1 d . . . . .
H1A H 0.8616 0.9665 0.3847 0.050 Uiso 1 1 calc R U . . .
H1B H 0.7546 1.2138 0.4076 0.050 Uiso 1 1 calc R U . . .
C2 C 0.478(4) 0.978(4) 0.4145(7) 0.047(7) Uani 1 1 d . . . . .
H2A H 0.3107 1.0878 0.4141 0.057 Uiso 1 1 calc R U . . .
H2B H 0.5250 0.9549 0.4495 0.057 Uiso 1 1 calc R U . . .
C3 C 0.413(3) 0.988(3) 0.3059(6) 0.018(3) Uani 1 1 d . . . . .
C4 C 0.327(3) 0.799(3) 0.3283(5) 0.017(4) Uani 1 1 d . . . . .
C5 C 0.089(3) 0.813(3) 0.2463(6) 0.018(3) Uani 1 1 d . . . . .
C6 C -0.057(3) 0.766(3) 0.2067(5) 0.012(3) Uani 1 1 d . . . . .
C7 C -0.296(3) 0.771(3) 0.1235(5) 0.019(4) Uani 1 1 d . . . . .
C8 C -0.388(3) 0.574(3) 0.1487(5) 0.014(3) Uani 1 1 d . . . . .
C9 C -0.390(4) 0.836(3) 0.0775(6) 0.025(4) Uani 1 1 d . . . . .
H9 H -0.3296 0.9687 0.0605 0.030 Uiso 1 1 calc R U . . .
C10 C -0.562(3) 0.445(3) 0.1279(6) 0.018(4) Uani 1 1 d . . . . .
H10 H -0.6214 0.3116 0.1447 0.022 Uiso 1 1 calc R U . . .
C11 C -0.580(3) 0.696(3) 0.0567(6) 0.017(2) Uani 1 1 d . . . . .
H11 H -0.6549 0.7355 0.0257 0.020 Uiso 1 1 calc R U . . .
C12 C -0.654(3) 0.503(3) 0.0827(6) 0.020(4) Uani 1 1 d . . . . .
C13 C -0.850(3) 0.360(3) 0.0606(5) 0.017(2) Uani 1 1 d . U . . .
Ag1 Ag 0.0000 0.5000 0.5000 0.0321(18) Uani 0.192(8) 2 d DS U P A 1
N3 N 0.0000 0.0000 0.5000 0.059(4) Uani 0.383(16) 2 d DS U P A 1
C15 C 0.00(3) 0.175(4) 0.484(2) 0.059(4) Uani 0.192(8) 1 d D U P A 1
Ag1A Ag 0.0161(19) 0.603(3) 0.4942(4) 0.0321(18) Uani 0.154(4) 1 d D . P A 2
C14A C 0.327(5) 0.637(7) 0.507(3) 0.059(4) Uani 0.308(8) 1 d D U P A 2
N2A N 0.5000 0.5000 0.5000 0.059(4) Uani 0.617(16) 2 d DS U P A 2
loop_
_atom_site_aniso_label
_atom_site_aniso_U_11
_atom_site_aniso_U_22
_atom_site_aniso_U_33
_atom_site_aniso_U_23
_atom_site_aniso_U_13
_atom_site_aniso_U_12
S1 0.031(3) 0.017(3) 0.031(2) -0.0004(19) -0.0130(19) -0.008(2)
S2 0.032(3) 0.023(3) 0.021(2) -0.0001(18) -0.0103(18) -0.003(2)
S3 0.023(2) 0.013(3) 0.018(2) 0.0026(17) -0.0050(16) -0.0046(17)
S4 0.030(2) 0.017(3) 0.019(2) -0.0006(18) -0.0083(17) -0.0038(19)
S5 0.022(2) 0.011(3) 0.0163(19) 0.0002(16) -0.0053(15) -0.0052(17)
S6 0.025(2) 0.014(3) 0.0164(19) 0.0029(17) -0.0089(16) -0.0042(18)
N1 0.029(9) 0.035(12) 0.033(9) -0.003(7) 0.002(7) -0.012(7)
C1 0.035(12) 0.051(17) 0.043(12) -0.026(11) -0.017(9) -0.011(10)
C2 0.049(13) 0.07(2) 0.024(10) -0.032(11) -0.007(9) 0.003(12)
C3 0.017(6) 0.012(8) 0.024(6) 0.003(5) -0.005(5) 0.000(5)
C4 0.013(8) 0.025(12) 0.011(7) -0.005(7) 0.000(6) 0.009(7)
C5 0.017(6) 0.012(8) 0.024(6) 0.003(5) -0.005(5) 0.000(5)
C6 0.017(8) 0.003(9) 0.016(8) 0.002(6) 0.002(6) 0.001(6)
C7 0.023(9) 0.019(11) 0.014(8) -0.006(7) -0.002(6) -0.002(7)
C8 0.015(8) 0.013(10) 0.013(7) 0.008(6) 0.005(6) -0.003(7)
C9 0.040(11) 0.025(13) 0.012(8) -0.001(7) -0.004(7) -0.009(9)
C10 0.020(9) 0.007(10) 0.029(9) -0.008(7) 0.000(7) -0.005(7)
C11 0.017(3) 0.017(3) 0.017(3) -0.0008(14) -0.0012(14) -0.0018(14)
C12 0.023(9) 0.013(11) 0.022(8) -0.006(7) -0.011(7) 0.010(7)
C13 0.017(3) 0.017(3) 0.017(3) -0.0008(14) -0.0012(14) -0.0018(14)
Ag1 0.034(2) 0.032(2) 0.030(2) -0.0002(15) -0.0028(13) -0.0024(14)
N3 0.059(4) 0.059(4) 0.059(4) -0.00023(15) -0.0029(2) -0.0051(3)
C15 0.059(4) 0.059(4) 0.059(4) -0.00023(15) -0.0029(2) -0.0051(3)
Ag1A 0.034(2) 0.032(2) 0.030(2) -0.0002(15) -0.0028(13) -0.0024(14)
C14A 0.059(4) 0.059(4) 0.059(4) -0.00023(15) -0.0029(2) -0.0051(3)
N2A 0.059(4) 0.059(4) 0.059(4) -0.00023(15) -0.0029(2) -0.0051(3)
loop_
_atom_type_symbol
_atom_type_description
_atom_type_scat_dispersion_real
_atom_type_scat_dispersion_imag
_atom_type_scat_source
C C 0.0033 0.0016 'International Tables Vol C Tables 4.2.6.8 and 6.1.1.4'
H H 0.0000 0.0000 'International Tables Vol C Tables 4.2.6.8 and 6.1.1.4'
N N 0.0061 0.0033 'International Tables Vol C Tables 4.2.6.8 and 6.1.1.4'
S S 0.1246 0.1234 'International Tables Vol C Tables 4.2.6.8 and 6.1.1.4'
Ag Ag -0.8971 1.1015 'International Tables Vol C Tables 4.2.6.8 and 6.1.1.4'
loop_
_geom_angle_atom_site_label_1
_geom_angle_atom_site_label_2
_geom_angle_atom_site_label_3
_geom_angle
_geom_angle_site_symmetry_1
_geom_angle_site_symmetry_3
_geom_angle_publ_flag
C3 S1 C1 101.2(8) . . ?
C4 S2 C2 98.1(10) . . ?
C5 S3 C3 95.2(8) . . ?
C4 S4 C5 94.8(8) . . ?
C6 S5 C7 96.1(8) . . ?
C6 S6 C8 96.4(7) . . ?
C2 C1 S1 115.3(13) . . ?
C2 C1 H1A 108.5 . . ?
S1 C1 H1A 108.5 . . ?
C2 C1 H1B 108.5 . . ?
S1 C1 H1B 108.5 . . ?
H1A C1 H1B 107.5 . . ?
C1 C2 S2 113.9(14) . . ?
C1 C2 H2A 108.8 . . ?
S2 C2 H2A 108.8 . . ?
C1 C2 H2B 108.8 . . ?
S2 C2 H2B 108.8 . . ?
H2A C2 H2B 107.7 . . ?
C4 C3 S1 131.1(12) . . ?
C4 C3 S3 115.7(11) . . ?
S1 C3 S3 113.3(10) . . ?
C3 C4 S4 119.3(11) . . ?
C3 C4 S2 126.2(12) . . ?
S4 C4 S2 114.2(10) . . ?
C6 C5 S3 122.1(12) . . ?
C6 C5 S4 123.0(13) . . ?
S3 C5 S4 114.9(8) . . ?
C5 C6 S5 123.9(12) . . ?
C5 C6 S6 120.6(12) . . ?
S5 C6 S6 115.5(8) . . ?
C9 C7 C8 121.0(14) . . ?
C9 C7 S5 121.2(14) . . ?
C8 C7 S5 117.7(11) . . ?
C10 C8 C7 120.4(15) . . ?
C10 C8 S6 125.3(14) . . ?
C7 C8 S6 114.2(11) . . ?
C7 C9 C11 117.1(17) . . ?
C7 C9 H9 121.5 . . ?
C11 C9 H9 121.5 . . ?
C8 C10 C12 119.7(18) . . ?
C8 C10 H10 120.1 . . ?
C12 C10 H10 120.1 . . ?
C12 C11 C9 118.6(14) . . ?
C12 C11 H11 120.7 . . ?
C9 C11 H11 120.7 . . ?
C10 C12 C11 123.1(15) . . ?
C10 C12 C13 119.0(17) . . ?
C11 C12 C13 117.9(14) . . ?
N1 C13 C12 178.4(18) . . ?
C15 Ag1 C15 180.00(4) . 2_566 ?
C15 N3 C15 180.00(6) . 2_556 ?
N3 C15 Ag1 143(5) . . ?
Ag1A Ag1A C14A 105(2) 2_566 . ?
Ag1A Ag1A C14A 43.3(15) 2_566 2_566 ?
C14A Ag1A C14A 147.9(11) . 2_566 ?
Ag1A Ag1A N2A 86.6(9) 2_566 . ?
C14A Ag1A N2A 23.2(12) . . ?
C14A Ag1A N2A 128.2(11) 2_566 . ?
N2A C14A Ag1A 122(3) . . ?
N2A C14A Ag1A 96(2) . 2_566 ?
Ag1A C14A Ag1A 32.1(11) . 2_566 ?
C14A N2A C14A 180.00(3) . 2_666 ?
C14A N2A Ag1A 145.6(18) . 2_666 ?
C14A N2A Ag1A 34.4(18) 2_666 2_666 ?
C14A N2A Ag1A 34.4(18) . . ?
C14A N2A Ag1A 145.6(18) 2_666 . ?
Ag1A N2A Ag1A 180.0 2_666 . ?
loop_
_geom_bond_atom_site_label_1
_geom_bond_atom_site_label_2
_geom_bond_distance
_geom_bond_site_symmetry_2
_geom_bond_publ_flag
S1 C3 1.743(17) . ?
S1 C1 1.84(2) . ?
S2 C4 1.779(15) . ?
S2 C2 1.82(2) . ?
S3 C5 1.744(18) . ?
S3 C3 1.759(15) . ?
S4 C4 1.721(16) . ?
S4 C5 1.746(17) . ?
S5 C6 1.732(15) . ?
S5 C7 1.743(15) . ?
S6 C6 1.760(16) . ?
S6 C8 1.766(14) . ?
N1 C13 1.14(2) . ?
C1 C2 1.46(3) . ?
C1 H1A 0.9900 . ?
C1 H1B 0.9900 . ?
C2 H2A 0.9900 . ?
C2 H2B 0.9900 . ?
C3 C4 1.34(2) . ?
C5 C6 1.357(19) . ?
C7 C9 1.39(2) . ?
C7 C8 1.42(2) . ?
C8 C10 1.33(2) . ?
C9 C11 1.42(2) . ?
C9 H9 0.9500 . ?
C10 C12 1.35(2) . ?
C10 H10 0.9500 . ?
C11 C12 1.38(2) . ?
C11 H11 0.9500 . ?
C12 C13 1.47(2) . ?
Ag1 C15 1.93(3) . ?
Ag1 C15 1.93(3) 2_566 ?
N3 C15 1.10(3) . ?
N3 C15 1.10(3) 2_556 ?
Ag1A Ag1A 1.25(3) 2_566 ?
Ag1A C14A 1.61(3) . ?
Ag1A C14A 2.27(4) 2_566 ?
Ag1A N2A 2.407(9) . ?
C14A N2A 1.12(3) . ?
C14A Ag1A 2.27(3) 2_566 ?
N2A C14A 1.12(3) 2_666 ?
N2A Ag1A 2.407(9) 2_666 ?
