#------------------------------------------------------------------------------
#$Date: 2022-02-04 21:19:41 +0200 (Fri, 04 Feb 2022) $
#$Revision: 272610 $
#$URL: file:///home/coder/svn-repositories/cod/cif/7/24/41/7244178.cif $
#------------------------------------------------------------------------------
#
# This file is available in the Crystallography Open Database (COD),
# http://www.crystallography.net/
#
# All data on this site have been placed in the public domain by the
# contributors.
#
data_7244178
loop_
_publ_author_name
'Vaganova, Tamara A.'
'Benassi, Enrico'
'Gatilov, Yurij V.'
'Chuikov, Igor P.'
'Pishchur, Denis P.'
'Malykhin, Evgenij V.'
_publ_section_title
;
 Polyhalogenated aminobenzonitriles vs. their co-crystals with 18-crown-6:
 amino group position as a tool to control crystal packing and solid-state
 fluorescence
;
_journal_issue                   5
_journal_name_full               CrystEngComm
_journal_page_first              987
_journal_page_last               1001
_journal_paper_doi               10.1039/D1CE01469B
_journal_volume                  24
_journal_year                    2022
_chemical_formula_moiety         'C7 H3 F3 N2'
_chemical_formula_sum            'C7 H3 F3 N2'
_chemical_formula_weight         172.11
_chemical_melting_point          367
_chemical_name_systematic        4-amino-2,3,6-trifluorobenzonitrile
_space_group_crystal_system      monoclinic
_space_group_IT_number           14
_space_group_name_Hall           '-P 2ybc'
_space_group_name_H-M_alt        'P 1 21/c 1'
_atom_sites_solution_hydrogens   mixed
_atom_sites_solution_primary     direct
_atom_sites_solution_secondary   difmap
_audit_creation_method           SHELXL-2018/3
_audit_update_record
;
2021-10-27 deposited with the CCDC.	2021-12-20 downloaded from the CCDC.
;
_cell_angle_alpha                90
_cell_angle_beta                 96.846(3)
_cell_angle_gamma                90
_cell_formula_units_Z            4
_cell_length_a                   7.5702(5)
_cell_length_b                   5.8303(3)
_cell_length_c                   15.8912(11)
_cell_measurement_reflns_used    3475
_cell_measurement_temperature    296(2)
_cell_measurement_theta_max      27.18
_cell_measurement_theta_min      2.58
_cell_volume                     696.38(8)
_computing_cell_refinement       'Bruker SAINT'
_computing_data_collection       'Bruker APEX2'
_computing_data_reduction        'Bruker SAINT'
_computing_molecular_graphics    'Bruker SHELXTL'
_computing_publication_material  'Bruker SHELXTL'
_computing_structure_refinement  'SHELXL-2018/3 (Sheldrick, 2018)'
_computing_structure_solution    'SHELXS-97 (Sheldrick, 2008)'
_diffrn_ambient_temperature      296(2)
_diffrn_measured_fraction_theta_full 0.999
_diffrn_measured_fraction_theta_max 0.992
_diffrn_measurement_device_type  'Bruker APEX-II CCD'
_diffrn_measurement_method       '\f and \w scans'
_diffrn_radiation_type           MoK\a
_diffrn_radiation_wavelength     0.71073
_diffrn_reflns_av_R_equivalents  0.0270
_diffrn_reflns_av_unetI/netI     0.0211
_diffrn_reflns_Laue_measured_fraction_full 0.999
_diffrn_reflns_Laue_measured_fraction_max 0.992
_diffrn_reflns_limit_h_max       9
_diffrn_reflns_limit_h_min       -9
_diffrn_reflns_limit_k_max       7
_diffrn_reflns_limit_k_min       -7
_diffrn_reflns_limit_l_max       20
_diffrn_reflns_limit_l_min       -18
_diffrn_reflns_number            7627
_diffrn_reflns_point_group_measured_fraction_full 0.999
_diffrn_reflns_point_group_measured_fraction_max 0.992
_diffrn_reflns_theta_full        25.242
_diffrn_reflns_theta_max         27.497
_diffrn_reflns_theta_min         2.582
_diffrn_source                   'sealed tube'
_exptl_absorpt_coefficient_mu    0.159
_exptl_absorpt_correction_T_max  0.9562
_exptl_absorpt_correction_T_min  0.8518
_exptl_absorpt_correction_type   multi-scan
_exptl_absorpt_process_details   SADABS-2008/1
_exptl_crystal_colour            colourless
_exptl_crystal_density_diffrn    1.642
_exptl_crystal_description       plate
_exptl_crystal_F_000             344
_exptl_crystal_size_max          0.610
_exptl_crystal_size_mid          0.280
_exptl_crystal_size_min          0.080
_refine_diff_density_max         0.196
_refine_diff_density_min         -0.147
_refine_diff_density_rms         0.040
_refine_ls_extinction_method     none
_refine_ls_goodness_of_fit_ref   1.026
_refine_ls_hydrogen_treatment    mixed
_refine_ls_matrix_type           full
_refine_ls_number_parameters     117
_refine_ls_number_reflns         1587
_refine_ls_number_restraints     2
_refine_ls_restrained_S_all      1.026
_refine_ls_R_factor_all          0.0709
_refine_ls_R_factor_gt           0.0455
_refine_ls_shift/su_max          0.000
_refine_ls_shift/su_mean         0.000
_refine_ls_structure_factor_coef Fsqd
_refine_ls_weighting_details
'w=1/[\s^2^(Fo^2^)+(0.0536P)^2^+0.4947P] where P=(Fo^2^+2Fc^2^)/3'
_refine_ls_weighting_scheme      calc
_refine_ls_wR_factor_gt          0.1199
_refine_ls_wR_factor_ref         0.1410
_reflns_Friedel_coverage         0.000
_reflns_number_gt                1084
_reflns_number_total             1587
_reflns_threshold_expression     'I > 2\s(I)'
_cod_data_source_file            d1ce01469b2.cif
_cod_data_source_block           B-M98
_cod_depositor_comments
'Adding full bibliography for 7244175--7244182.cif.'
_cod_original_sg_symbol_H-M      'P 21/c'
_cod_database_code               7244178
_shelx_shelxl_version_number     2018/3
_shelx_space_group_comment
;
The symmetry employed for this shelxl refinement is uniquely defined
by the following loop, which should always be used as a source of
symmetry information in preference to the above space-group names.
They are only intended as comments.
;
_shelx_estimated_absorpt_t_min   0.909
_shelx_estimated_absorpt_t_max   0.987
_shelx_res_file
;
TITL M98_0m in P2(1)/c
    M98.res
    created by SHELXL-2018/3 at 15:31:26 on 01-May-2020
CELL 0.71073   7.5702   5.8303  15.8912  90.000  96.846  90.000
ZERR    4.00   0.0005   0.0003   0.0011   0.000   0.003   0.000
LATT  1
SYMM -X, 0.5+Y, 0.5-Z
SFAC C H N F
UNIT 28 12 8 12
TEMP 23.000
SIZE 0.08 0.28 0.61
L.S. 12
ACTA
BOND $H
FMAP 2
PLAN 5
HTAB
CONF
dfix 0.90 n1 h1  n1 h2
REM   EXTI    0.003(3)
WGHT    0.053600    0.494700
FVAR       0.26493
N1    3    0.195393    0.712236   -0.041188    11.00000    0.06726    0.05847 =
         0.05496    0.00816    0.00930    0.00396
H2    2    0.126263    0.837645   -0.042336    11.00000    0.09045
H1    2    0.236811    0.652209   -0.087445    11.00000    0.07855
F1    4    0.117898    0.627079    0.248160    11.00000    0.07774    0.07266 =
         0.05730   -0.00909    0.02003    0.00488
C1    1    0.273960    0.339384    0.184267    11.00000    0.04099    0.04432 =
         0.04768    0.00340    0.00525   -0.00735
F2    4    0.063947    0.864768    0.101551    11.00000    0.07015    0.04969 =
         0.07879    0.00299    0.01417    0.01455
N2    3    0.319836    0.100521    0.321084    11.00000    0.08354    0.08769 =
         0.06329    0.02263    0.00358    0.00377
C2    1    0.182053    0.545169    0.178980    11.00000    0.04156    0.04603 =
         0.04787   -0.00485    0.00991   -0.00564
C3    1    0.155872    0.664871    0.104570    11.00000    0.04130    0.03515 =
         0.05792   -0.00139    0.00727   -0.00194
F3    4    0.430093    0.065756    0.115044    11.00000    0.07300    0.05015 =
         0.08778    0.00889    0.02136    0.01566
C4    1    0.220960    0.587300    0.031484    11.00000    0.04093    0.04125 =
         0.04894    0.00171    0.00331   -0.00855
C5    1    0.313790    0.379119    0.035935    11.00000    0.04623    0.04656 =
         0.04959   -0.00479    0.01314   -0.00633
AFIX  43
H5    2    0.358432    0.320379   -0.011676    11.00000   -1.20000
AFIX   0
C6    1    0.337735    0.264138    0.110773    11.00000    0.04090    0.03823 =
         0.06395    0.00103    0.01053   -0.00266
C7    1    0.300070    0.209623    0.260796    11.00000    0.04838    0.06096 =
         0.05909    0.00554    0.00494   -0.00240

HKLF 4 1 1 0 0 0 1 0 0 0 1




REM  M98_0m in P2(1)/c
REM wR2 = 0.1410, GooF = S = 1.026, Restrained GooF = 1.026 for all data
REM R1 = 0.0455 for 1084 Fo > 4sig(Fo) and 0.0709 for all 1587 data
REM 117 parameters refined using 2 restraints

END

WGHT      0.0404      0.4489

REM Instructions for potential hydrogen bonds
EQIV $1 -x, -y+2, -z
HTAB N1 F2_$1
EQIV $2 x, -y+1/2, z-1/2
HTAB N1 N2_$2
HTAB C5 N2_$2

REM Highest difference peak  0.196,  deepest hole -0.147,  1-sigma level  0.040
Q1    1   0.3753  0.2810 -0.0356  11.00000  0.05    0.20
Q2    1   0.2216  0.6363  0.1445  11.00000  0.05    0.18
Q3    1   0.2846  0.4666  0.1932  11.00000  0.05    0.16
Q4    1   0.0473  0.9646  0.0357  11.00000  0.05    0.15
Q5    1   0.3616  0.3400  0.1514  11.00000  0.05    0.15
;
_shelx_res_checksum              72992
_shelx_hkl_file
;
   1   0   0   20.95    0.63
   1   0   0   21.01    0.63
   1   0   0   21.03    0.73
  -1   0   0   21.04    0.73
  -1   0   0   21.04    0.63
  -1   0   0   20.95    0.63
  -2   0   0  416.23   13.91
  -2   0   0  406.03   12.03
  -2   0   0  414.19   12.04
   2   0   0  428.25   12.05
   2   0   0  421.57   12.03
   2   0   0  406.50   13.91
   3   0   0   -0.01    0.04
   3   0   0   -0.01    0.04
  -3   0   0   -0.03    0.04
   3   0   0   -0.07    0.04
  -3   0   0   -0.03    0.04
  -3   0   0   -0.07    0.04
   4   0   0   14.69    0.46
  -4   0   0   14.51    0.52
   4   0   0   14.20    0.47
   4   0   0   14.26    0.53
  -4   0   0   14.38    0.47
  -5   0   0    8.66    0.35
   5   0   0    8.69    0.33
   5   0   0    8.78    0.31
  -5   0   0    8.65    0.32
  -6   0   0    2.01    0.15
  -6   0   0    2.11    0.17
   6   0   0    2.17    0.17
  -7   0   0    0.42    0.11
  -7   0   0    0.62    0.10
   7   0   0    0.51    0.12
   8   0   0    8.70    0.39
  -8   0   0    8.50    0.38
  -8   0   0    8.30    0.38
  -9   0   0    0.00    0.09
  -9   0   0   -0.20    0.11
   0  -1   0    0.06    0.02
   0  -1   0    0.05    0.02
   0   1   0    0.08    0.02
   0   1   0    0.04    0.02
  -1  -1   0    1.28    0.09
  -1  -1   0    1.16    0.07
  -1  -1   0    1.10    0.08
   1  -1   0    1.27    0.05
   1   1   0    1.21    0.08
   1   1   0    1.23    0.08
  -1   1   0    1.21    0.05
  -2  -1   0  945.39   27.85
  -2  -1   0 1000.00   27.86
  -2  -1   0  927.41   32.23
   2   1   0  987.76   27.85
   2   1   0  959.37   27.86
  -3  -1   0   37.60    1.17
  -3  -1   0   38.27    1.18
   3  -1   0   39.78    1.15
   3  -1   0   38.70    1.32
  -3  -1   0   39.17    1.35
   3  -1   0   40.57    1.15
  -3   1   0   41.32    1.32
  -3   1   0   39.21    1.15
   3   1   0   39.32    1.17
   3   1   0   38.90    1.18
  -4  -1   0   66.86    1.99
   4  -1   0   65.94    2.26
  -4  -1   0   65.49    1.98
  -4  -1   0   67.44    2.29
   4  -1   0   69.31    1.96
   4  -1   0   66.59    1.96
  -4   1   0   66.54    1.96
   4   1   0   67.33    1.99
  -4   1   0   70.36    2.26
   4   1   0   65.98    1.98
  -5  -1   0    0.00    0.07
  -5  -1   0   -0.02    0.08
  -5  -1   0   -0.03    0.08
   5  -1   0   -0.04    0.05
   5  -1   0   -0.03    0.05
   5  -1   0   -0.03    0.06
   5   1   0   -0.02    0.06
  -5   1   0    0.04    0.06
   5   1   0   -0.06    0.08
  -5   1   0    0.02    0.05
   6  -1   0   13.34    0.45
  -6  -1   0   14.04    0.54
   6  -1   0   13.25    0.47
  -6  -1   0   13.66    0.49
  -6   1   0   13.78    0.50
   6   1   0   13.74    0.50
  -6   1   0   14.06    0.47
  -7  -1   0    0.75    0.13
   7  -1   0    0.73    0.11
  -7  -1   0    0.93    0.13
  -7   1   0    0.80    0.11
   7   1   0    0.71    0.14
  -7   1   0    0.79    0.11
  -8  -1   0    0.02    0.11
  -8  -1   0   -0.05    0.11
  -8   1   0   -0.06    0.09
  -8   1   0    0.03    0.07
   8   1   0   -0.03    0.13
  -9  -1   0   -0.12    0.13
  -9  -1   0   -0.11    0.13
  -9   1   0   -0.03    0.11
   0  -2   0   34.72    1.03
   0  -2   0   31.93    1.03
   0   2   0   37.69    1.03
   0   2   0   35.44    1.03
  -1  -2   0    8.21    0.29
   1  -2   0    9.03    0.27
   1  -2   0    8.67    0.27
  -1  -2   0    8.82    0.29
   1   2   0    8.52    0.29
  -1   2   0    8.87    0.27
   1   2   0    8.98    0.29
  -2  -2   0   34.05    1.02
   2  -2   0   34.41    0.99
  -2  -2   0   33.24    1.18
  -2  -2   0   33.01    1.02
  -2   2   0   34.45    0.99
   2   2   0   34.94    1.03
   2   2   0   33.33    1.02
  -2   2   0   34.11    0.98
  -3  -2   0   15.00    0.50
   3  -2   0   15.00    0.45
  -3  -2   0   15.15    0.49
   3  -2   0   14.76    0.51
  -3  -2   0   14.84    0.57
  -3   2   0   15.40    0.45
   3   2   0   14.73    0.50
   3   2   0   14.58    0.49
  -3   2   0   15.01    0.45
   4  -2   0    0.06    0.05
   4  -2   0   -0.03    0.05
  -4   2   0   -0.02    0.06
  -5  -2   0    7.42    0.32
   5  -2   0    7.08    0.26
  -5  -2   0    7.13    0.30
   5  -2   0    7.25    0.25
   5  -2   0    7.13    0.28
  -5  -2   0    7.53    0.35
  -5   2   0    7.06    0.26
   5   2   0    7.40    0.33
   5   2   0    7.29    0.30
   6  -2   0    4.80    0.21
  -6  -2   0    4.90    0.28
  -6  -2   0    4.64    0.25
   6  -2   0    4.73    0.19
  -6  -2   0    5.06    0.29
  -6   2   0    4.90    0.21
   6   2   0    4.96    0.28
  -7  -2   0   -0.12    0.11
  -7  -2   0   -0.08    0.12
   7  -2   0    0.07    0.08
   7   2   0   -0.24    0.12
  -7   2   0    0.04    0.07
  -8  -2   0   -0.31    0.13
   8   2   0   -0.21    0.13
  -8   2   0   -0.07    0.08
  -9  -2   0   -0.09    0.14
  -9  -2   0   -0.11    0.14
  -9   2   0   -0.04    0.09
   9   2   0    0.04    0.16
   0  -3   0   -0.05    0.04
   0  -3   0   -0.02    0.04
   0   3   0   -0.08    0.04
   0   3   0   -0.11    0.04
   1  -3   0    9.16    0.29
  -1  -3   0    9.39    0.32
   1  -3   0    9.12    0.27
  -1  -3   0    8.92    0.38
  -1  -3   0    9.41    0.32
   1  -3   0    9.12    0.29
   1   3   0    9.75    0.33
   1   3   0    9.37    0.32
  -1   3   0    8.80    0.29
  -1   3   0    9.21    0.30
   2  -3   0   59.04    1.65
  -2  -3   0   56.03    1.69
  -2  -3   0   57.77    1.96
  -2  -3   0   55.57    1.69
   2   3   0   56.06    1.69
  -2   3   0   58.85    1.65
  -2   3   0   57.95    1.64
   2   3   0   53.02    1.69
  -3  -3   0   -0.11    0.08
  -3  -3   0   -0.03    0.06
   3  -3   0   -0.02    0.02
  -3  -3   0   -0.09    0.07
   3   3   0   -0.06    0.06
   3   3   0   -0.09    0.07
  -4  -3   0    6.64    0.33
   4  -3   0    6.04    0.21
  -4  -3   0    6.42    0.28
   4  -3   0    6.32    0.24
  -4  -3   0    6.83    0.29
   4  -3   0    6.15    0.20
  -4   3   0    6.34    0.20
  -4   3   0    6.29    0.21
   4   3   0    6.94    0.30
   4   3   0    6.66    0.28
   5  -3   0    1.53    0.08
   5  -3   0    1.31    0.09
   5  -3   0    1.36    0.08
  -5  -3   0    1.19    0.17
  -5  -3   0    1.15    0.14
   5   3   0    1.23    0.16
  -5   3   0    1.31    0.09
  -5   3   0    1.40    0.08
   6  -3   0    1.22    0.09
  -6  -3   0    1.11    0.16
   6  -3   0    1.37    0.11
  -6  -3   0    1.34    0.19
   6   3   0    1.24    0.18
  -6   3   0    1.50    0.09
  -6   3   0    1.23    0.11
  -7  -3   0    0.15    0.15
  -7  -3   0    0.13    0.13
  -7   3   0    0.04    0.06
   7   3   0    0.13    0.15
  -8  -3   0    0.63    0.16
  -8  -3   0    0.86    0.18
   8   3   0    0.77    0.18
  -8   3   0    0.65    0.09
   0  -4   0   55.51    1.53
   0  -4   0   50.70    1.53
   0   4   0   46.93    1.52
   0   4   0   52.81    1.53
   1  -4   0   15.99    0.49
  -1  -4   0   16.09    0.52
   1  -4   0   16.11    0.49
  -1  -4   0   15.49    0.51
  -1  -4   0   15.49    0.61
  -1   4   0   15.70    0.49
   1   4   0   14.51    0.51
  -1   4   0   15.99    0.49
   1   4   0   16.15    0.52
   2  -4   0    0.74    0.06
   2  -4   0    0.73    0.07
   2  -4   0    0.58    0.06
  -2  -4   0    0.68    0.09
  -2  -4   0    0.69    0.13
  -2  -4   0    0.61    0.09
   2   4   0    0.62    0.10
  -2   4   0    0.70    0.07
  -2   4   0    0.70    0.07
   2   4   0    0.70    0.09
  -3  -4   0    0.17    0.09
   3  -4   0    0.41    0.05
  -3  -4   0    0.08    0.12
   3   4   0    0.05    0.09
  -3   4   0    0.39    0.04
   3   4   0    0.24    0.08
  -3   4   0    0.34    0.04
  -4  -4   0    0.04    0.10
  -4  -4   0   -0.05    0.13
   4   4   0   -0.09    0.10
   4   4   0    0.02    0.08
   5  -4   0    4.63    0.19
  -5  -4   0    4.77    0.33
  -5  -4   0    4.92    0.30
   5   4   0    5.44    0.31
  -6  -4   0    1.11    0.16
  -6  -4   0    1.34    0.20
   6   4   0    1.05    0.17
  -7  -4   0    0.13    0.16
  -7  -4   0   -0.07    0.12
   7   4   0   -0.03    0.14
  -8  -4   0    0.12    0.17
  -8  -4   0   -0.12    0.14
   8   4   0   -0.13    0.16
   0  -5   0    0.04    0.06
   0   5   0   -0.01    0.07
   0   5   0   -0.06    0.05
   1  -5   0    0.44    0.12
  -1  -5   0    0.67    0.14
   1  -5   0    0.75    0.09
  -1  -5   0    0.57    0.09
   1  -5   0    0.77    0.10
  -1   5   0    0.65    0.08
   1   5   0    0.41    0.10
   1   5   0    0.63    0.09
  -1   5   0    0.85    0.09
  -2  -5   0    0.25    0.13
   2  -5   0    0.21    0.05
  -2  -5   0    0.05    0.09
   2  -5   0    0.18    0.05
  -2   5   0    0.15    0.05
   2   5   0   -0.06    0.10
  -2   5   0    0.20    0.05
   2   5   0    0.04    0.08
  -3  -5   0   19.00    0.73
  -3  -5   0   17.37    0.62
   3  -5   0   16.92    0.52
   3   5   0   17.27    0.60
  -3   5   0   16.84    0.52
  -3   5   0   17.15    0.51
   3   5   0   18.03    0.52
   3   5   0   17.84    0.63
  -4  -5   0    0.27    0.11
  -4  -5   0    0.34    0.16
   4   5   0    0.17    0.12
  -5  -5   0   -0.13    0.15
  -5  -5   0    0.09    0.11
   5   5   0    0.01    0.13
  -6  -5   0   -0.03    0.12
  -6  -5   0   -0.03    0.16
   6   5   0   -0.05    0.14
  -7  -5   0    0.29    0.18
  -7  -5   0   -0.20    0.12
   7   5   0   -0.21    0.15
   0  -6   0    0.68    0.16
   0   6   0    0.52    0.10
  -1  -6   0    2.37    0.29
   1  -6   0    2.36    0.24
  -1  -6   0    2.57    0.19
   1   6   0    2.58    0.21
  -1   6   0    2.62    0.17
  -2  -6   0   -0.22    0.14
  -2  -6   0    0.00    0.08
   2  -6   0   -0.03    0.10
  -2   6   0    0.05    0.05
   2   6   0   -0.06    0.10
  -3  -6   0    0.06    0.10
   3  -6   0    0.00    0.09
  -3  -6   0    0.00    0.16
   3   6   0   -0.03    0.11
  -4  -6   0    0.06    0.16
  -4  -6   0   -0.07    0.10
   4   6   0   -0.10    0.12
  -5  -6   0    0.19    0.12
  -5  -6   0    0.26    0.18
   5   6   0    0.23    0.15
   0  -7   0    0.11    0.14
   0   7   0    0.05    0.09
  -1  -7   0    0.13    0.16
   1  -7   0    0.41    0.14
  -1   7   0    0.17    0.08
   1   7   0    0.30    0.11
  -2  -7   0   -0.12    0.17
   2   7   0    0.15    0.12
  -3  -7   0   -0.20    0.17
   3   7   0    0.14    0.14
  -9   0   1   -0.01    0.10
  -9   0   1   -0.05    0.12
   8   0  -1    0.08    0.11
  -8   0   1    0.06    0.10
  -8   0   1    0.01    0.10
  -7   0   1    0.07    0.09
  -7   0   1   -0.03    0.08
   7   0  -1   -0.01    0.10
   6   0  -1   -0.07    0.07
  -6   0   1   -0.01    0.08
  -6   0   1    0.00    0.07
   6   0  -1   -0.06    0.07
  -5   0   1    0.20    0.07
   5   0  -1    0.06    0.07
   5   0  -1    0.10    0.06
  -5   0   1    0.11    0.07
   5   0  -1    0.01    0.07
   4   0  -1    0.00    0.04
   4   0  -1   -0.05    0.05
  -4   0   1   -0.05    0.05
  -4   0   1   -0.04    0.05
   4   0  -1   -0.04    0.05
   3   0  -1   -0.06    0.04
  -3   0   1   -0.08    0.04
   3   0  -1   -0.05    0.04
  -3   0   1   -0.05    0.04
   3   0  -1   -0.04    0.04
  -2   0   1   -0.06    0.03
   2   0  -1    0.01    0.03
   2   0  -1   -0.10    0.03
  -2   0   1    0.01    0.03
   2   0  -1   -0.03    0.03
   1   0  -1    0.00    0.02
  -1   0   1   -0.01    0.02
  -1   0   1   -0.01    0.02
   1   0  -1   -0.01    0.02
   0   0   1    0.00    0.00
   0   0   1    0.00    0.00
   0   0  -1    0.00    0.00
   0   0  -1   -0.01    0.00
   1   0   1   -0.01    0.02
   1   0   1    0.01    0.02
  -1   0  -1   -0.02    0.02
  -1   0  -1   -0.02    0.02
   2   0   1    0.00    0.03
  -2   0  -1   -0.05    0.04
   2   0   1   -0.05    0.04
  -2   0  -1    0.05    0.04
   3   0   1   -0.01    0.05
  -3   0  -1   -0.02    0.04
   3   0   1   -0.06    0.04
  -3   0  -1   -0.02    0.05
  -3   0  -1   -0.04    0.04
  -4   0  -1   -0.05    0.05
  -4   0  -1   -0.03    0.05
   4   0   1   -0.05    0.05
   4   0   1   -0.08    0.05
  -4   0  -1   -0.02    0.05
   5   0   1   -0.05    0.07
  -5   0  -1   -0.02    0.06
   5   0   1    0.03    0.06
  -5   0  -1   -0.01    0.07
   6   0   1   -0.05    0.08
  -6   0  -1   -0.02    0.08
  -6   0  -1   -0.06    0.06
   7   0   1    0.20    0.10
  -7   0  -1    0.16    0.09
  -7   0  -1    0.11    0.08
   8   0   1    0.27    0.12
  -8   0  -1    0.13    0.09
  -8   0  -1    0.13    0.11
  -9   0  -1    0.04    0.12
  -9  -1   1    0.08    0.14
  -9  -1   1    0.04    0.14
   9   1  -1    0.16    0.15
  -9   1   1    0.27    0.12
  -8  -1   1   -0.07    0.11
  -8  -1   1    0.05    0.12
  -8   1   1    0.00    0.09
   8   1  -1    0.01    0.13
  -8   1   1    0.06    0.08
   7  -1  -1    0.63    0.11
  -7  -1   1    0.75    0.13
  -7  -1   1    0.52    0.12
  -7   1   1    0.66    0.09
   7   1  -1    0.62    0.13
  -7   1   1    0.64    0.11
   6  -1  -1    6.35    0.28
   6  -1  -1    6.39    0.25
  -6  -1   1    6.70    0.31
  -6  -1   1    6.21    0.30
   6  -1  -1    6.11    0.27
   6   1  -1    6.25    0.30
  -6   1   1    6.77    0.27
  -6   1   1    6.55    0.27
   5  -1  -1    8.78    0.29
  -5  -1   1    8.26    0.33
   5  -1  -1    8.26    0.33
   5  -1  -1    8.44    0.30
  -5  -1   1    8.25    0.36
   5   1  -1    8.36    0.32
   5   1  -1    8.28    0.36
  -5   1   1    8.49    0.31
   5   1  -1    8.26    0.33
  -5   1   1    8.68    0.32
  -4  -1   1    0.33    0.08
   4  -1  -1    0.65    0.08
  -4  -1   1    0.49    0.09
   4  -1  -1    0.36    0.06
   4   1  -1    0.43    0.07
   4   1  -1    0.40    0.08
   4   1  -1    0.37    0.08
  -4   1   1    0.40    0.06
   3  -1  -1   17.77    0.52
  -3  -1   1   17.07    0.55
   3  -1  -1   17.20    0.60
  -3  -1   1   17.06    0.62
  -3  -1   1   16.53    0.54
  -3   1   1   17.25    0.52
   3   1  -1   17.04    0.62
  -3   1   1   17.90    0.60
   3   1  -1   17.24    0.55
   3   1  -1   17.27    0.54
  -2  -1   1   18.38    0.57
   2  -1  -1   17.84    0.63
   2  -1  -1   18.53    0.54
  -2  -1   1   18.79    0.65
  -2  -1   1   18.52    0.56
   2   1  -1   18.69    0.56
   2   1  -1   18.39    0.57
   2   1  -1   18.51    0.65
  -2   1   1   17.66    0.55
  -1  -1   1   31.88    1.05
  -1  -1   1   32.91    0.91
   1  -1  -1   32.17    0.90
   1  -1  -1   28.84    0.90
  -1  -1   1   30.63    0.91
   1   1  -1   31.05    0.91
  -1   1   1   29.17    0.90
   1   1  -1   31.82    1.05
  -1   1   1   31.44    0.90
   1   1  -1   28.64    0.91
   0  -1  -1   73.04    1.91
   0  -1  -1   66.23    1.91
   0  -1   1   64.09    2.20
   0  -1   1   61.23    1.90
   0  -1   1   56.17    1.86
   0   1   1   66.39    1.91
   0   1   1   66.56    1.90
   0   1  -1   60.31    1.88
   0   1  -1   62.84    2.16
   0   1  -1   70.35    1.91
  -1  -1  -1    8.78    0.27
  -1  -1  -1    8.32    0.27
   1   1   1    8.55    0.27
   1   1   1    7.99    0.27
   2  -1   1  707.34   20.17
  -2  -1  -1  668.67   20.30
  -2  -1  -1  690.20   23.50
  -2  -1  -1  730.84   20.32
   2   1   1  724.27   20.32
   2   1   1  665.66   20.29
  -2   1  -1  719.65   20.17
   3  -1   1    7.94    0.29
   3  -1   1    8.31    0.26
  -3  -1  -1    8.17    0.29
   3  -1   1    8.08    0.27
  -3  -1  -1    8.18    0.29
  -3  -1  -1    8.27    0.33
   3   1   1    8.13    0.29
   3   1   1    8.21    0.30
  -3   1  -1    8.48    0.29
  -3   1  -1    8.21    0.27
   4  -1   1   16.37    0.48
  -4  -1  -1   15.03    0.51
  -4  -1  -1   15.07    0.50
   4  -1   1   15.72    0.49
  -4  -1  -1   15.47    0.58
  -4   1  -1   15.73    0.54
   4   1   1   15.36    0.50
   4   1   1   14.86    0.51
  -4   1  -1   15.66    0.49
  -5  -1  -1    7.98    0.35
   5  -1   1    8.29    0.30
  -5  -1  -1    7.87    0.32
   5  -1   1    8.15    0.28
  -5  -1  -1    7.95    0.31
  -5   1  -1    8.08    0.29
  -5   1  -1    8.26    0.30
   5   1   1    7.76    0.32
   5   1   1    7.95    0.31
   6  -1   1    9.29    0.34
  -6  -1  -1   10.01    0.42
  -6  -1  -1    9.91    0.39
  -6  -1  -1    9.23    0.37
   6  -1   1    9.64    0.36
  -6   1  -1    9.76    0.36
   6   1   1    9.98    0.39
  -6   1  -1    9.55    0.37
  -7  -1  -1   -0.01    0.09
   7  -1   1   -0.02    0.08
  -7  -1  -1   -0.08    0.10
  -7   1  -1    0.02    0.08
  -7   1  -1    0.00    0.06
   7   1   1   -0.13    0.10
  -8  -1  -1    0.12    0.12
  -8  -1  -1   -0.09    0.11
  -8   1  -1    0.01    0.10
  -8   1  -1    0.05    0.07
   8   1   1   -0.05    0.12
  -9  -1  -1   -0.02    0.12
  -9  -1  -1   -0.27    0.12
  -9   1  -1    0.03    0.10
  -9  -2   1    0.14    0.15
  -9  -2   1   -0.06    0.15
   9   2  -1   -0.12    0.15
  -9   2   1   -0.08    0.10
  -8  -2   1   -0.25    0.14
  -8  -2   1   -0.13    0.13
  -8   2   1    0.08    0.09
   8   2  -1   -0.25    0.13
  -7  -2   1    2.29    0.24
   7  -2  -1    2.62    0.16
   7  -2  -1    2.38    0.18
  -7  -2   1    2.42    0.24
   7   2  -1    1.89    0.25
  -7   2   1    2.55    0.18
  -6  -2   1    0.28    0.12
   6  -2  -1    0.36    0.06
   6  -2  -1    0.46    0.07
   6  -2  -1    0.27    0.07
  -6  -2   1    0.21    0.11
   6   2  -1    0.32    0.12
  -6   2   1    0.27    0.07
   5  -2  -1    0.27    0.05
  -5  -2   1    0.24    0.10
   5  -2  -1    0.20    0.05
  -5  -2   1    0.06    0.07
  -5  -2   1    0.05    0.09
   5  -2  -1    0.11    0.06
   5   2  -1    0.11    0.07
  -5   2   1    0.09    0.06
   5   2  -1    0.11    0.10
  -4  -2   1   37.45    1.12
  -4  -2   1   35.30    1.13
   4  -2  -1   36.74    1.09
  -4  -2   1   36.96    1.30
   4  -2  -1   36.67    1.08
   4  -2  -1   36.68    1.25
   4   2  -1   37.64    1.12
  -4   2   1   36.99    1.09
   4   2  -1   35.89    1.13
  -3  -2   1   11.76    0.42
   3  -2  -1   12.36    0.44
  -3  -2   1   12.89    0.43
   3  -2  -1   12.72    0.38
  -3  -2   1   12.50    0.49
   3   2  -1   12.63    0.42
   3   2  -1   12.85    0.43
  -3   2   1   12.89    0.39
  -2  -2   1   23.20    0.72
  -2  -2   1   23.32    0.83
  -2  -2   1   21.97    0.71
   2  -2  -1   22.80    0.68
   2   2  -1   23.18    0.71
   2   2  -1   24.31    0.72
  -2   2   1   23.80    0.68
   1  -2  -1    2.17    0.09
  -1  -2   1    2.30    0.11
   1  -2  -1    2.40    0.10
  -1  -2   1    2.10    0.13
  -1  -2   1    2.28    0.12
  -1   2   1    2.03    0.09
   1   2  -1    2.29    0.11
  -1   2   1    2.27    0.10
   1   2  -1    2.42    0.12
   0  -2   1  120.97    3.26
   0  -2   1  110.51    3.73
   0  -2   1  111.92    3.24
   0  -2  -1  112.07    3.27
   0  -2  -1  108.50    3.26
   0   2  -1  118.09    3.28
   0   2   1  112.15    3.24
   0   2  -1  102.05    3.23
   0   2   1  106.40    3.22
  -1  -2  -1    0.77    0.08
  -1  -2  -1    0.73    0.08
   1  -2   1    0.68    0.05
   1  -2   1    0.79    0.05
   1  -2   1    0.75    0.05
   1   2   1    0.83    0.08
  -1   2  -1    0.77    0.05
   1   2   1    0.76    0.08
  -1   2  -1    0.81    0.05
  -2  -2  -1    3.65    0.17
  -2  -2  -1    3.60    0.17
   2   2   1    3.92    0.17
   2   2   1    3.73    0.17
   3  -2   1   40.84    1.39
  -3  -2  -1   41.76    1.26
  -3  -2  -1   42.25    1.26
   3  -2   1   41.87    1.21
  -3  -2  -1   41.16    1.45
   3  -2   1   41.28    1.21
  -3   2  -1   41.95    1.21
   3   2   1   42.08    1.26
   3   2   1   42.62    1.26
  -4  -2  -1  211.80    6.36
  -4  -2  -1  218.00    7.37
   4  -2   1  222.42    6.36
   4  -2   1  219.15    6.32
  -4  -2  -1  221.69    6.37
  -4   2  -1  221.72    6.32
   4   2   1  222.76    6.37
   4   2   1  219.21    6.36
  -5  -2  -1    0.23    0.09
  -5  -2  -1    0.44    0.12
  -5  -2  -1    0.35    0.10
   5  -2   1    0.24    0.05
   5  -2   1    0.23    0.06
   5   2   1    0.36    0.11
  -5   2  -1    0.16    0.06
   5   2   1    0.30    0.09
  -6  -2  -1    5.72    0.28
   6  -2   1    6.23    0.25
   6  -2   1    6.17    0.23
  -6  -2  -1    6.35    0.33
  -6  -2  -1    6.13    0.31
  -6   2  -1    6.36    0.25
   6   2   1    6.23    0.33
  -7  -2  -1    0.16    0.12
  -7  -2  -1    0.52    0.14
   7  -2   1    0.48    0.10
   7   2   1    0.20    0.14
  -7   2  -1    0.38    0.08
  -8  -2  -1    0.12    0.14
  -8  -2  -1   -0.15    0.12
  -8   2  -1   -0.02    0.08
  -9  -2  -1    0.66    0.17
  -9   2  -1    0.50    0.11
   9   2   1    0.37    0.17
  -9  -3   1    0.49    0.18
   9   3  -1    0.21    0.18
  -8  -3   1    0.03    0.14
  -8  -3   1    0.22    0.16
  -8   3   1    0.02    0.08
   8   3  -1    0.00    0.15
  -7  -3   1   -0.09    0.12
  -7  -3   1   -0.14    0.14
  -7   3   1    0.04    0.07
   7   3  -1   -0.11    0.14
   6  -3  -1    0.23    0.06
  -6  -3   1   -0.16    0.14
   6  -3  -1    0.14    0.06
  -6  -3   1    0.06    0.12
   6  -3  -1    0.14    0.05
  -6   3   1    0.18    0.05
   6   3  -1   -0.08    0.13
  -6   3   1    0.17    0.06
   5  -3  -1    0.26    0.05
   5  -3  -1    0.34    0.05
  -5  -3   1    0.21    0.13
  -5  -3   1    0.18    0.10
   5  -3  -1    0.30    0.05
  -5   3   1    0.26    0.05
   5   3  -1    0.13    0.11
  -5   3   1    0.34    0.05
  -4  -3   1    3.18    0.21
  -4  -3   1    3.33    0.19
   4  -3  -1    3.22    0.13
   4  -3  -1    3.24    0.15
  -4  -3   1    3.27    0.23
   4   3  -1    3.41    0.22
   4   3  -1    3.48    0.19
  -4   3   1    3.29    0.13
  -4   3   1    3.33    0.13
  -3  -3   1   -0.10    0.09
  -3  -3   1   -0.06    0.05
  -3  -3   1   -0.12    0.06
   3   3  -1   -0.05    0.05
   3   3  -1   -0.14    0.07
  -3   3   1   -0.03    0.03
  -3   3   1   -0.05    0.03
  -2  -3   1   22.30    0.73
   2  -3  -1   24.43    0.70
  -2  -3   1   23.23    0.73
  -2  -3   1   23.12    0.85
   2  -3  -1   23.58    0.70
   2   3  -1   23.41    0.73
  -2   3   1   24.23    0.70
   2   3  -1   23.11    0.74
  -1  -3   1    2.75    0.15
  -1  -3   1    3.22    0.16
   1  -3  -1    3.29    0.13
  -1  -3   1    3.10    0.19
   1  -3  -1    3.08    0.13
   1   3  -1    3.32    0.16
  -1   3   1    3.11    0.13
   1   3  -1    3.15    0.15
  -1   3   1    3.23    0.14
   0  -3   1   27.08    0.84
   0  -3   1   28.73    0.99
   0  -3  -1   30.71    0.85
   0  -3   1   28.38    0.84
   0  -3  -1   25.57    0.85
   0   3  -1   25.69    0.84
   0   3   1   30.75    0.86
   0   3  -1   29.35    0.85
   0   3   1   27.95    0.85
   1  -3   1   31.26    0.92
  -1  -3  -1   30.10    0.94
   1  -3   1   31.78    0.92
  -1  -3  -1   30.73    0.95
  -1   3  -1   31.42    0.92
   1   3   1   31.52    0.95
   1   3   1   32.49    0.88
   1   3   1   30.02    0.94
  -2  -3  -1   35.90    1.10
   2  -3   1   37.12    1.04
  -2  -3  -1   34.94    1.10
   2   3   1   34.59    1.10
   2   3   1   36.59    1.10
  -2   3  -1   36.77    1.04
  -2   3  -1   36.78    1.04
  -3  -3  -1    1.71    0.17
  -3  -3  -1    1.89    0.14
  -3  -3  -1    1.91    0.15
   3   3   1    2.02    0.15
   3   3   1    1.79    0.15
   4  -3   1    0.05    0.02
  -4  -3  -1   -0.05    0.08
  -4  -3  -1   -0.04    0.07
  -4  -3  -1   -0.02    0.10
   4   3   1   -0.03    0.07
   4   3   1   -0.17    0.08
  -5  -3  -1    1.51    0.21
   5  -3   1    1.48    0.07
   5  -3   1    1.47    0.08
  -5  -3  -1    1.30    0.15
   5   3   1    1.18    0.16
  -5   3  -1    1.57    0.07
  -5   3  -1    1.42    0.08
  -6  -3  -1    9.82    0.45
  -6  -3  -1    9.01    0.40
   6  -3   1    8.40    0.29
   6  -3   1    8.91    0.30
  -6   3  -1    8.88    0.30
   6   3   1    9.34    0.42
  -6   3  -1    8.99    0.29
  -7  -3  -1    5.94    0.37
  -7  -3  -1    5.53    0.34
  -7   3  -1    4.75    0.21
   7   3   1    6.13    0.36
  -8  -3  -1    0.62    0.17
  -8  -3  -1    0.40    0.14
  -8   3  -1    0.43    0.08
   8   3   1    0.49    0.16
  -8  -4   1   -0.04    0.14
  -8  -4   1    0.17    0.17
   8   4  -1   -0.09    0.16
  -7  -4   1    0.16    0.16
  -7  -4   1   -0.04    0.13
   7   4  -1   -0.05    0.14
  -6  -4   1    0.77    0.18
  -6  -4   1    0.66    0.14
  -6   4   1    0.47    0.04
   6   4  -1    0.51    0.15
  -6   4   1    0.44    0.04
   5  -4  -1    0.59    0.06
   5  -4  -1    0.59    0.09
   5  -4  -1    0.63    0.06
  -5  -4   1    0.54    0.13
  -5  -4   1    0.53    0.17
  -5   4   1    0.63    0.06
   5   4  -1    0.53    0.14
  -5   4   1    0.60    0.06
  -4  -4   1    0.22    0.15
  -4  -4   1    0.38    0.11
   4  -4  -1    0.57    0.06
  -4   4   1    0.51    0.06
   4   4  -1    0.38    0.10
  -4   4   1    0.63    0.06
   4   4  -1    0.43    0.12
  -3  -4   1    1.18    0.13
  -3  -4   1    1.19    0.16
   3  -4  -1    1.43    0.08
   3   4  -1    1.34    0.14
  -3   4   1    1.34    0.08
  -3   4   1    1.38    0.09
   3   4  -1    1.21    0.14
  -2  -4   1    5.55    0.25
  -2  -4   1    6.22    0.32
  -2  -4   1    5.60    0.26
   2  -4  -1    6.28    0.21
   2  -4  -1    6.36    0.22
  -2   4   1    6.19    0.21
   2   4  -1    5.61    0.26
   2   4  -1    5.96    0.25
   1  -4  -1    7.25    0.25
  -1  -4   1    6.82    0.26
  -1  -4   1    6.45    0.27
  -1  -4   1    7.09    0.33
   1  -4  -1    7.05    0.25
  -1   4   1    7.42    0.25
  -1   4   1    7.38    0.26
   1   4  -1    6.85    0.26
   1   4  -1    6.50    0.27
   0  -4   1   17.24    0.57
   0  -4   1   18.10    0.57
   0  -4  -1   17.59    0.58
   0  -4   1   18.70    0.68
   0  -4  -1   19.28    0.58
   0   4  -1   18.38    0.58
   0   4   1   18.69    0.58
   0   4  -1   18.11    0.57
   0   4   1   17.95    0.58
  -1  -4  -1    0.06    0.06
   1  -4   1    0.15    0.08
   1  -4   1    0.07    0.04
  -1  -4  -1    0.10    0.07
   1  -4   1    0.11    0.04
  -1   4  -1    0.03    0.02
   1   4   1    0.16    0.07
  -1   4  -1    0.16    0.05
   1   4   1    0.03    0.06
  -2  -4  -1    6.98    0.34
  -2  -4  -1    7.03    0.29
   2  -4   1    6.57    0.29
  -2  -4  -1    6.81    0.28
   2  -4   1    6.85    0.22
   2  -4   1    6.91    0.22
   2   4   1    6.91    0.22
   2   4   1    7.07    0.29
   2   4   1    6.77    0.28
  -2   4  -1    7.00    0.22
  -2   4  -1    6.85    0.22
   3  -4   1    0.84    0.10
  -3  -4  -1    0.66    0.14
  -3  -4  -1    0.67    0.11
   3   4   1    0.62    0.12
   3   4   1    0.94    0.11
  -4  -4  -1    0.01    0.10
  -4  -4  -1    0.07    0.13
   4  -4   1    0.20    0.05
   4   4   1    0.13    0.09
   4   4   1   -0.18    0.11
  -5  -4  -1    8.10    0.44
  -5  -4  -1    7.74    0.37
   5   4   1    7.97    0.38
  -6  -4  -1    0.18    0.15
  -6  -4  -1    0.15    0.12
   6   4   1   -0.05    0.12
  -7  -4  -1    0.10    0.16
  -7  -4  -1   -0.08    0.12
   7   4   1   -0.02    0.14
  -8  -4  -1    0.62    0.18
  -8  -4  -1    0.84    0.20
   8   4   1    0.62    0.19
  -7  -5   1    0.19    0.18
  -7  -5   1    0.14    0.14
   7   5  -1    0.05    0.16
  -6  -5   1   -0.02    0.16
  -6  -5   1   -0.09    0.12
   6   5  -1   -0.13    0.14
  -5  -5   1   -0.09    0.10
  -5  -5   1   -0.08    0.15
   5   5  -1   -0.11    0.12
  -4  -5   1    0.88    0.18
  -4  -5   1    0.61    0.13
   4   5  -1    0.74    0.14
  -3  -5   1    0.22    0.11
   3  -5  -1    0.44    0.06
   3  -5  -1    0.31    0.05
  -3  -5   1    0.55    0.16
  -3   5   1    0.41    0.05
  -3   5   1    0.38    0.05
   3   5  -1    0.29    0.10
   3   5  -1    0.23    0.12
  -2  -5   1    0.16    0.13
  -2  -5   1   -0.04    0.08
   2  -5  -1    0.11    0.05
   2  -5  -1    0.18    0.05
  -2   5   1    0.19    0.05
   2   5  -1   -0.04    0.07
   2   5  -1   -0.10    0.09
  -2   5   1    0.05    0.03
  -1  -5   1    0.10    0.07
  -1  -5   1   -0.07    0.11
   1  -5  -1    0.33    0.07
   1  -5  -1    0.22    0.06
  -1   5   1    0.23    0.06
   1   5  -1    0.08    0.06
   1   5  -1    0.02    0.08
  -1   5   1    0.20    0.07
   0  -5   1    1.32    0.16
   0  -5   1    1.52    0.12
   0  -5   1    1.47    0.12
   0  -5  -1    1.43    0.13
   0   5   1    1.32    0.15
   0   5  -1    1.68    0.12
   0   5  -1    1.46    0.14
   0   5   1    1.44    0.13
  -1  -5  -1   -0.07    0.11
  -1  -5  -1   -0.14    0.07
   1  -5   1    0.12    0.05
   1  -5   1    0.11    0.05
  -1   5  -1    0.13    0.06
  -1   5  -1    0.11    0.04
  -2  -5  -1    2.97    0.25
  -2  -5  -1    2.57    0.20
   2  -5   1    3.09    0.12
   2  -5   1    2.73    0.20
   2   5   1    2.39    0.21
   2   5   1    2.40    0.19
  -2   5  -1    3.16    0.12
  -2   5  -1    3.03    0.12
   3  -5   1    2.27    0.17
  -3  -5  -1    2.54    0.26
   3  -5   1    1.94    0.11
  -3  -5  -1    2.23    0.20
   3   5   1    2.24    0.12
   3   5   1    2.15    0.20
   3   5   1    2.35    0.22
   4  -5   1    0.53    0.07
  -4  -5  -1    0.46    0.12
  -4  -5  -1    0.60    0.17
   4  -5   1    0.46    0.07
   4   5   1    0.59    0.14
   4   5   1    0.39    0.07
  -5  -5  -1   -0.21    0.15
   5  -5   1   -0.07    0.07
  -5  -5  -1   -0.02    0.10
   5   5   1   -0.02    0.12
  -6  -5  -1   -0.02    0.12
  -6  -5  -1   -0.12    0.16
   6   5   1   -0.10    0.14
  -7  -5  -1    0.01    0.12
  -7  -5  -1    0.10    0.18
   7   5   1   -0.06    0.15
  -5  -6   1    0.11    0.17
  -5  -6   1   -0.07    0.11
   5   6  -1   -0.17    0.13
  -4  -6   1    0.06    0.16
  -4  -6   1   -0.04    0.10
   4   6  -1   -0.02    0.12
   3  -6  -1    0.10    0.10
  -3  -6   1    0.11    0.15
  -3  -6   1    0.07    0.10
  -3   6   1    0.07    0.04
   3   6  -1   -0.03    0.11
   2  -6  -1    0.20    0.11
  -2  -6   1    0.12    0.09
  -2  -6   1    0.18    0.16
   2   6  -1    0.21    0.11
  -2   6   1    0.21    0.07
   1  -6  -1    2.88    0.25
  -1  -6   1    2.87    0.20
  -1  -6   1    2.61    0.29
   1   6  -1    3.09    0.21
  -1   6   1    2.93    0.18
   0  -6  -1    0.94    0.11
   0  -6  -1    1.15    0.18
   0  -6   1    0.85    0.17
   0   6   1    0.92    0.12
   0   6  -1    0.97    0.11
   1  -6   1    1.93    0.22
  -1  -6  -1    1.68    0.26
  -1  -6  -1    1.84    0.18
   1   6   1    2.08    0.20
  -1   6  -1    2.10    0.15
   2  -6   1    0.03    0.10
  -2  -6  -1   -0.14    0.14
  -2  -6  -1   -0.01    0.08
  -2   6  -1    0.10    0.04
   2   6   1    0.08    0.10
  -3  -6  -1    0.51    0.12
  -3  -6  -1    0.66    0.18
   3   6   1    0.53    0.14
  -4  -6  -1    0.20    0.12
  -4  -6  -1    0.35    0.18
   4   6   1    0.19    0.13
  -5  -6  -1    0.38    0.19
  -5  -6  -1    0.13    0.12
   5   6   1    0.28    0.15
  -3  -7   1   -0.05    0.17
   3   7  -1    0.26    0.13
  -2  -7   1   -0.03    0.15
   2  -7  -1   -0.01    0.13
  -2   7   1   -0.11    0.06
   2   7  -1    0.04    0.11
   1  -7  -1    0.09    0.14
  -1  -7   1   -0.03    0.15
   1   7  -1    0.07    0.10
  -1   7   1   -0.09    0.08
   0  -7  -1    0.31    0.15
   0  -7   1    0.34    0.15
   0   7   1    0.29    0.10
   0   7  -1    0.33    0.09
   1  -7   1    3.08    0.29
  -1  -7  -1    2.96    0.33
   1   7   1    2.90    0.24
  -1   7  -1    2.61    0.17
  -2  -7  -1    0.39    0.19
   2   7   1    0.59    0.14
  -3  -7  -1   -0.37    0.17
  -9   0   2    0.36    0.13
  -9   0   2    0.41    0.14
  -8   0   2   -0.04    0.10
  -8   0   2   -0.14    0.09
   8   0  -2   -0.14    0.11
  -7   0   2    1.40    0.18
  -7   0   2    1.43    0.16
   7   0  -2    1.12    0.16
   7   0  -2    1.49    0.18
   6   0  -2    0.10    0.08
   6   0  -2    0.10    0.08
  -6   0   2    0.10    0.07
  -6   0   2    0.01    0.08
   5   0  -2   63.55    1.88
  -5   0   2   63.74    1.87
  -5   0   2   62.92    2.15
   5   0  -2   61.66    2.15
   5   0  -2   63.57    1.86
  -4   0   2    4.62    0.21
  -4   0   2    4.71    0.19
   4   0  -2    4.82    0.20
   4   0  -2    4.73    0.19
   4   0  -2    4.48    0.21
  -3   0   2   55.20    1.85
   3   0  -2   54.79    1.85
   3   0  -2   54.18    1.61
  -3   0   2   54.09    1.60
   3   0  -2   55.21    1.60
   2   0  -2    5.48    0.21
  -2   0   2    5.36    0.19
  -2   0   2    5.45    0.21
   2   0  -2    5.50    0.19
   1   0  -2  278.71    8.14
   1   0  -2  282.97    9.43
  -1   0   2  280.05    9.43
  -1   0   2  279.86    8.14
   0   0   2    2.47    0.08
   0   0  -2    2.38    0.08
   0   0  -2    2.38    0.08
   0   0   2    2.38    0.08
   1   0   2  331.55   10.02
  -1   0  -2  348.81   10.03
   1   0   2  363.58    9.73
  -1   0  -2  335.42   10.03
   1   0   2  352.76   10.03
  -2   0  -2    2.65    0.12
   2   0   2    2.81    0.12
  -2   0  -2    2.67    0.12
   2   0   2    2.68    0.12
  -3   0  -2  102.79    2.98
   3   0   2  101.58    2.98
  -3   0  -2  102.10    2.98
  -3   0  -2  103.13    3.44
   3   0   2  103.28    2.98
   4   0   2   12.69    0.41
  -4   0  -2   12.47    0.42
  -4   0  -2   12.66    0.41
   4   0   2   12.48    0.42
  -4   0  -2   12.62    0.46
   5   0   2   10.33    0.36
   5   0   2   10.17    0.37
  -5   0  -2   10.14    0.39
  -5   0  -2    9.88    0.36
  -5   0  -2   10.25    0.36
  -6   0  -2    0.13    0.07
  -6   0  -2    0.09    0.08
   6   0   2    0.09    0.09
   7   0   2   13.59    0.50
  -7   0  -2   13.70    0.50
  -7   0  -2   13.08    0.52
  -8   0  -2    1.23    0.17
   8   0   2    1.18    0.15
  -8   0  -2    1.02    0.14
  -9   0  -2    0.54    0.14
  -9  -1   2    0.17    0.14
  -9  -1   2    0.29    0.15
  -9   1   2    0.21    0.12
   9   1  -2    0.31    0.15
   8  -1  -2    0.29    0.12
  -8  -1   2    0.27    0.13
  -8  -1   2    0.48    0.14
   8   1  -2    0.24    0.14
  -8   1   2    0.44    0.10
  -8   1   2    0.38    0.11
   7  -1  -2    0.75    0.11
  -7  -1   2    0.80    0.13
  -7  -1   2    0.90    0.14
   7  -1  -2    0.73    0.12
  -7   1   2    0.80    0.11
  -7   1   2    0.89    0.11
   7   1  -2    0.89    0.14
  -6  -1   2    1.49    0.17
   6  -1  -2    1.38    0.15
  -6  -1   2    1.78    0.17
   6  -1  -2    1.43    0.13
   6  -1  -2    1.41    0.14
   6   1  -2    1.66    0.16
   6   1  -2    1.48    0.17
  -6   1   2    1.58    0.13
  -6   1   2    1.33    0.15
   5  -1  -2    7.31    0.31
   5  -1  -2    7.73    0.29
   5  -1  -2    7.76    0.27
  -5  -1   2    7.75    0.33
  -5  -1   2    7.60    0.31
  -5   1   2    7.70    0.28
   5   1  -2    7.58    0.31
  -5   1   2    7.95    0.30
   5   1  -2    7.56    0.34
   5   1  -2    7.38    0.29
  -4  -1   2    0.56    0.08
   4  -1  -2    0.85    0.08
  -4  -1   2    0.55    0.09
   4   1  -2    0.53    0.07
   4   1  -2    0.55    0.09
   4   1  -2    0.72    0.09
  -3  -1   2   25.26    0.79
  -3  -1   2   25.35    0.90
   3  -1  -2   25.93    0.88
   3  -1  -2   27.61    0.77
  -3   1   2   25.75    0.77
   3   1  -2   26.04    0.91
   3   1  -2   25.15    0.79
   3   1  -2   24.91    0.78
  -2  -1   2   24.63    0.75
  -2  -1   2   25.41    0.87
   2  -1  -2   25.68    0.74
   2  -1  -2   25.37    0.85
  -2   1   2   23.61    0.74
   2   1  -2   26.13    0.76
   2   1  -2   24.64    0.75
   2   1  -2   25.13    0.87
   1  -1  -2    9.82    0.31
  -1  -1   2   10.50    0.32
  -1  -1   2   10.15    0.37
   1  -1  -2   10.46    0.31
  -1   1   2   10.20    0.31
   1   1  -2   10.35    0.37
   1   1  -2   10.16    0.32
   1   1  -2   10.88    0.32
  -1   1   2    9.96    0.31
   0  -1   2    0.95    0.05
   0  -1  -2    0.63    0.06
   0  -1   2    1.02    0.06
   0  -1  -2    0.74    0.06
   0   1  -2    0.82    0.05
   0   1  -2    0.99    0.06
   0   1   2    0.80    0.06
   0   1   2    0.64    0.06
  -1  -1  -2  418.93   12.38
  -1  -1  -2  411.94   12.38
   1  -1   2  434.09   11.95
   1   1   2  427.05   11.96
   1   1   2  429.06   12.39
   1   1   2  437.84   12.40
  -2  -1  -2   11.78    0.39
   2  -1   2   12.47    0.37
   2  -1   2   11.95    0.36
  -2  -1  -2   12.56    0.39
   2   1   2   12.64    0.39
  -2   1  -2   11.97    0.36
   2   1   2   11.97    0.40
  -3  -1  -2   87.97    2.52
  -3  -1  -2   84.06    2.90
  -3  -1  -2   87.62    2.52
   3  -1   2   85.00    2.49
   3  -1   2   87.21    2.49
   3   1   2   87.09    2.52
  -3   1  -2   85.39    2.88
   3   1   2   88.35    2.52
  -3   1  -2   81.81    2.49
  -3   1  -2   85.63    2.49
  -4  -1  -2    2.73    0.18
  -4  -1  -2    2.69    0.16
   4  -1   2    2.83    0.14
   4  -1   2    2.78    0.12
  -4  -1  -2    2.79    0.17
   4   1   2    2.77    0.16
   4   1   2    2.66    0.17
  -4   1  -2    2.84    0.13
  -4   1  -2    2.61    0.12
   5  -1   2    5.16    0.20
  -5  -1  -2    5.07    0.23
  -5  -1  -2    5.06    0.24
   5  -1   2    5.14    0.22
  -5  -1  -2    4.89    0.26
  -5   1  -2    5.27    0.22
   5   1   2    5.25    0.25
   5   1   2    4.89    0.23
  -5   1  -2    4.81    0.20
  -6  -1  -2    0.81    0.12
  -6  -1  -2    0.64    0.11
   6  -1   2    0.72    0.08
  -6  -1  -2    0.70    0.10
   6  -1   2    0.70    0.10
  -6   1  -2    0.71    0.09
   6   1   2    0.63    0.12
  -6   1  -2    0.65    0.09
  -7  -1  -2    0.06    0.10
  -7  -1  -2    0.22    0.10
   7  -1   2    0.16    0.09
   7   1   2    0.12    0.11
  -7   1  -2    0.15    0.06
  -7   1  -2    0.16    0.09
  -8  -1  -2    0.20    0.12
  -8  -1  -2    0.04    0.12
  -8   1  -2    0.15    0.07
   8   1   2    0.04    0.13
  -8   1  -2    0.18    0.10
  -9  -1  -2    0.93    0.16
  -9  -1  -2    0.76    0.16
  -9   1  -2    0.84    0.13
  -9  -2   2    0.33    0.17
  -9  -2   2    0.40    0.16
   9   2  -2    0.31    0.17
  -9   2   2    0.51    0.11
  -8  -2   2    0.09    0.14
  -8  -2   2    0.29    0.14
  -8   2   2    0.36    0.10
   8   2  -2    0.28    0.15
  -7  -2   2    0.33    0.14
   7  -2  -2    0.42    0.09
  -7  -2   2    0.23    0.12
   7  -2  -2    0.29    0.09
   7   2  -2    0.09    0.13
  -7   2   2    0.33    0.09
  -6  -2   2    0.48    0.12
   6  -2  -2    1.04    0.11
   6  -2  -2    0.83    0.10
   6  -2  -2    0.74    0.09
  -6  -2   2    0.71    0.14
  -6   2   2    0.82    0.09
   6   2  -2    0.55    0.13
   5  -2  -2    0.06    0.06
   5  -2  -2    0.09    0.05
  -5  -2   2    0.04    0.09
   5  -2  -2    0.21    0.05
  -5  -2   2   -0.03    0.08
  -5   2   2    0.07    0.06
   5   2  -2   -0.02    0.09
   5   2  -2    0.03    0.07
   4  -2  -2   18.40    0.64
   4  -2  -2   18.69    0.56
  -4  -2   2   18.52    0.69
  -4  -2   2   18.02    0.60
   4   2  -2   17.55    0.60
   4   2  -2   18.50    0.59
  -4   2   2   18.31    0.56
   4   2  -2   18.20    0.69
  -3  -2   2   19.66    0.63
  -3  -2   2   20.18    0.73
   3  -2  -2   20.08    0.69
  -3  -2   2   19.89    0.64
   3  -2  -2   20.92    0.60
   3   2  -2   20.06    0.73
  -3   2   2   20.13    0.60
   3   2  -2   19.63    0.64
   3   2  -2   20.10    0.63
  -3   2   2   19.81    0.60
   2  -2  -2    1.77    0.08
  -2  -2   2    1.60    0.12
  -2  -2   2    1.56    0.10
  -2  -2   2    1.44    0.13
   2   2  -2    1.43    0.13
  -2   2   2    1.81    0.09
   2   2  -2    1.58    0.12
  -2   2   2    1.59    0.08
   2   2  -2    1.59    0.11
  -1  -2   2    5.46    0.19
   1  -2  -2    5.52    0.18
  -1  -2   2    5.15    0.22
   1  -2  -2    4.95    0.18
  -1  -2   2    5.21    0.19
   1   2  -2    4.75    0.22
   1   2  -2    5.06    0.19
   1   2  -2    5.16    0.19
  -1   2   2    5.54    0.18
  -1   2   2    5.00    0.18
   0  -2   2    3.51    0.13
   0  -2   2    3.75    0.16
   0  -2  -2    3.07    0.11
   0  -2  -2    3.38    0.14
   0  -2  -2    3.50    0.14
   0   2  -2    3.02    0.11
   0   2  -2    3.78    0.13
   0   2  -2    3.71    0.13
   0   2   2    3.48    0.14
   0   2   2    3.49    0.14
   1  -2   2   11.73    0.34
  -1  -2  -2   10.78    0.37
   1  -2   2   11.57    0.34
  -1  -2  -2   11.52    0.37
   1  -2   2   11.49    0.40
   1   2   2   11.15    0.38
  -1   2  -2   11.62    0.34
   1   2   2   11.81    0.34
  -1   2  -2   11.65    0.34
   1   2   2   11.26    0.37
  -2  -2  -2    1.59    0.12
  -2  -2  -2    1.57    0.12
   2  -2   2    1.58    0.07
   2   2   2    1.45    0.13
   2   2   2    1.55    0.12
  -3  -2  -2    4.55    0.24
  -3  -2  -2    4.52    0.22
  -3  -2  -2    4.30    0.20
   3  -2   2    4.57    0.14
   3  -2   2    4.48    0.14
   3   2   2    4.57    0.22
  -3   2  -2    4.49    0.14
   3   2   2    4.66    0.21
  -4  -2  -2   49.54    1.73
  -4  -2  -2   48.71    1.49
  -4  -2  -2   50.71    1.50
   4  -2   2   50.35    1.44
   4  -2   2   48.27    1.44
   4   2   2   49.83    1.50
  -4   2  -2   49.34    1.44
   4   2   2   49.24    1.50
  -5  -2  -2   15.77    0.57
   5  -2   2   16.36    0.52
  -5  -2  -2   17.26    0.58
  -5  -2  -2   16.64    0.65
   5  -2   2   16.46    0.51
  -5   2  -2   16.43    0.52
   5   2   2   16.42    0.58
   5   2   2   17.80    0.59
  -6  -2  -2    3.83    0.24
  -6  -2  -2    4.73    0.28
   6  -2   2    4.09    0.19
  -6  -2  -2    3.91    0.25
   6  -2   2    4.03    0.17
  -6   2  -2    4.02    0.19
   6   2   2    3.56    0.26
  -7  -2  -2    1.06    0.16
  -7  -2  -2    1.58    0.22
   7   2   2    1.09    0.17
  -7   2  -2    1.28    0.14
  -8  -2  -2   -0.16    0.12
  -8  -2  -2   -0.15    0.13
  -8   2  -2    0.01    0.08
   8   2   2   -0.13    0.13
  -9  -2  -2    0.88    0.18
   9   2   2    0.55    0.18
  -9   2  -2    0.56    0.11
  -9  -3   2    0.42    0.18
  -9   3   2    0.13    0.09
   9   3  -2    0.14    0.18
  -8  -3   2    0.13    0.16
  -8  -3   2   -0.01    0.14
   8   3  -2    0.05    0.16
  -8   3   2    0.08    0.08
  -7  -3   2    1.78    0.23
  -7  -3   2    1.61    0.21
   7   3  -2    1.53    0.19
  -7   3   2    1.71    0.15
   6  -3  -2    0.05    0.06
   6  -3  -2   -0.04    0.06
  -6  -3   2   -0.16    0.10
  -6  -3   2   -0.29    0.13
   6  -3  -2    0.03    0.05
  -6   3   2    0.03    0.06
   6   3  -2   -0.22    0.11
  -6   3   2   -0.04    0.03
   5  -3  -2    3.89    0.16
  -5  -3   2    3.74    0.23
   5  -3  -2    3.89    0.18
  -5  -3   2    3.64    0.26
  -5   3   2    4.04    0.17
   5   3  -2    3.87    0.24
   4  -3  -2    0.76    0.09
  -4  -3   2    0.69    0.11
  -4  -3   2    0.63    0.09
   4  -3  -2    0.71    0.07
  -4  -3   2    0.70    0.13
   4   3  -2    0.76    0.11
  -4   3   2    0.79    0.08
   4   3  -2    0.79    0.10
  -3  -3   2    5.46    0.23
  -3  -3   2    5.15    0.28
  -3  -3   2    5.33    0.24
   3  -3  -2    5.39    0.19
   3   3  -2    5.67    0.23
   3   3  -2    5.56    0.25
  -3   3   2    5.57    0.19
  -2  -3   2    6.53    0.25
  -2  -3   2    6.62    0.26
   2  -3  -2    6.68    0.23
   2  -3  -2    6.48    0.22
  -2  -3   2    6.64    0.30
   2   3  -2    6.53    0.26
   2   3  -2    6.59    0.25
  -2   3   2    6.56    0.23
  -2   3   2    6.82    0.23
  -1  -3   2   65.06    2.02
  -1  -3   2   69.11    2.03
   1  -3  -2   67.82    2.01
   1  -3  -2   66.63    2.01
  -1  -3   2   73.64    2.35
   1   3  -2   70.18    2.03
  -1   3   2   70.89    2.02
  -1   3   2   67.56    2.01
   1   3  -2   70.30    2.02
   0  -3  -2   18.93    0.61
   0  -3  -2   20.04    0.62
   0  -3   2   21.18    0.60
   0  -3   2   20.16    0.61
   0  -3   2   19.57    0.71
   0   3   2   18.57    0.61
   0   3  -2   19.05    0.60
   0   3   2   20.26    0.62
   0   3  -2   20.66    0.61
   1  -3   2    4.90    0.21
  -1  -3  -2    5.01    0.20
  -1  -3  -2    5.13    0.20
   1  -3   2    4.66    0.16
  -1   3  -2    4.74    0.16
   1   3   2    4.95    0.21
  -1   3  -2    4.55    0.17
   1   3   2    5.01    0.21
   2  -3   2   35.40    1.02
  -2  -3  -2   35.67    1.09
   2  -3   2   34.59    1.21
  -2  -3  -2   34.91    1.09
   2   3   2   36.51    1.09
   2   3   2   35.51    1.09
   2   3   2   36.78    1.02
   3  -3   2    0.10    0.03
  -3  -3  -2   -0.03    0.07
  -3  -3  -2    0.02    0.09
  -3  -3  -2   -0.03    0.06
   3   3   2    0.02    0.07
   3   3   2    0.07    0.08
  -4  -3  -2    0.29    0.10
  -4  -3  -2    0.40    0.09
  -4  -3  -2    0.49    0.12
   4   3   2    0.43    0.11
   4   3   2    0.48    0.09
  -5  -3  -2    0.39    0.14
  -5  -3  -2    0.33    0.12
   5   3   2    0.21    0.12
  -6  -3  -2    8.98    0.41
   6  -3   2    8.48    0.28
  -6  -3  -2   10.17    0.46
   6  -3   2    8.50    0.28
  -6   3  -2    8.83    0.28
  -6   3  -2    9.07    0.28
   6   3   2    9.54    0.42
  -7  -3  -2    7.77    0.42
  -7  -3  -2    6.80    0.37
  -7   3  -2    6.44    0.25
   7   3   2    8.21    0.41
  -8  -3  -2    1.26    0.20
  -8  -3  -2    1.22    0.18
   8   3   2    1.29    0.20
  -8  -4   2    0.23    0.17
  -8  -4   2    0.04    0.14
   8   4  -2    0.02    0.17
  -7  -4   2    0.11    0.12
  -7  -4   2    0.33    0.16
   7   4  -2   -0.03    0.14
  -7   4   2    0.09    0.06
  -6  -4   2    0.10    0.15
  -6  -4   2    0.00    0.11
   6   4  -2    0.09    0.13
  -6   4   2   -0.07    0.05
  -5  -4   2    4.97    0.35
   5  -4  -2    5.19    0.23
  -5  -4   2    5.45    0.30
   5  -4  -2    4.93    0.19
   5   4  -2    5.46    0.31
  -5   4   2    5.29    0.19
  -5   4   2    5.31    0.19
  -4  -4   2    1.86    0.21
  -4  -4   2    2.27    0.19
   4  -4  -2    2.33    0.11
  -4   4   2    2.19    0.11
   4   4  -2    2.21    0.20
   4   4  -2    2.30    0.18
  -4   4   2    2.36    0.11
  -3  -4   2    5.78    0.32
   3  -4  -2    6.21    0.22
  -3  -4   2    6.09    0.28
   3   4  -2    5.97    0.28
   3   4  -2    6.02    0.26
  -3   4   2    6.11    0.21
   2  -4  -2    9.36    0.31
  -2  -4   2    8.88    0.34
   2  -4  -2    9.65    0.30
  -2  -4   2    8.75    0.33
  -2  -4   2    9.17    0.41
  -2   4   2    9.38    0.31
  -2   4   2    9.37    0.31
   2   4  -2    9.01    0.34
   2   4  -2    8.75    0.35
   1  -4  -2    0.24    0.06
  -1  -4   2    0.26    0.09
   1  -4  -2    0.26    0.05
  -1  -4   2    0.14    0.07
  -1  -4   2    0.23    0.06
   1   4  -2    0.26    0.06
  -1   4   2    0.29    0.06
   1   4  -2    0.15    0.07
  -1   4   2    0.21    0.06
   0  -4   2    0.15    0.06
   0  -4  -2    0.15    0.06
   0  -4   2    0.11    0.05
   0  -4  -2    0.15    0.06
   0  -4   2    0.33    0.09
   0   4   2    0.19    0.07
   0   4  -2    0.13    0.05
   0   4  -2    0.10    0.06
   0   4   2    0.20    0.06
  -1  -4  -2    5.27    0.22
  -1  -4  -2    5.10    0.22
   1  -4   2    4.94    0.18
   1  -4   2    4.83    0.24
   1   4   2    5.27    0.23
  -1   4  -2    4.87    0.18
   1   4   2    5.26    0.22
  -1   4  -2    4.43    0.17
  -2  -4  -2   16.45    0.56
  -2  -4  -2   16.76    0.56
   2  -4   2   16.57    0.60
   2  -4   2   16.40    0.49
   2   4   2   16.66    0.56
   2   4   2   15.50    0.56
   2   4   2   16.99    0.49
  -3  -4  -2   -0.20    0.11
   3  -4   2   -0.09    0.05
  -3  -4  -2   -0.17    0.08
   3   4   2   -0.14    0.07
   3   4   2   -0.25    0.09
   4  -4   2    0.38    0.09
  -4  -4  -2    0.66    0.15
  -4  -4  -2    0.35    0.12
   4   4   2    0.38    0.13
  -5  -4  -2    2.50    0.29
  -5  -4  -2    2.74    0.24
   5   4   2    2.69    0.26
  -6  -4  -2    0.61    0.18
  -6  -4  -2    0.42    0.13
   6   4   2    0.48    0.15
  -7  -4  -2    0.20    0.13
  -7  -4  -2    0.18    0.17
   7   4   2    0.17    0.15
  -8  -4  -2    2.38    0.31
   8   4   2    1.46    0.23
  -7  -5   2    0.03    0.13
  -7  -5   2    0.23    0.18
   7   5  -2   -0.05    0.16
  -6  -5   2    0.06    0.13
  -6  -5   2    0.10    0.17
   6   5  -2    0.03    0.14
  -5  -5   2   -0.08    0.15
  -5  -5   2   -0.07    0.11
   5   5  -2   -0.11    0.12
  -4  -5   2    1.11    0.15
  -4  -5   2    1.35    0.19
   4  -5  -2    1.19    0.09
  -4   5   2    1.23    0.09
   4   5  -2    1.06    0.15
  -4   5   2    1.09    0.08
   3  -5  -2    0.15    0.05
  -3  -5   2    0.29    0.15
  -3  -5   2   -0.01    0.09
  -3   5   2    0.19    0.05
  -3   5   2    0.13    0.05
   3   5  -2    0.02    0.11
   3   5  -2    0.08    0.08
   2  -5  -2    4.94    0.19
   2  -5  -2    4.86    0.20
  -2  -5   2    4.38    0.31
  -2  -5   2    4.39    0.24
  -2   5   2    4.79    0.20
  -2   5   2    4.96    0.20
   2   5  -2    4.70    0.23
   2   5  -2    4.73    0.26
   1  -5  -2    0.04    0.05
  -1  -5   2   -0.06    0.06
   1   5  -2    0.09    0.06
  -1   5   2    0.05    0.06
   1   5  -2   -0.06    0.07
  -1   5   2    0.00    0.07
   0  -5  -2   10.27    0.37
   0  -5   2    9.21    0.44
   0  -5   2   10.39    0.36
   0   5   2   10.18    0.37
   0   5   2   10.42    0.38
   0   5  -2   10.04    0.35
   0   5  -2   10.50    0.36
   1  -5   2    0.02    0.04
  -1   5  -2    0.00    0.05
  -1   5  -2    0.05    0.03
   2  -5   2    4.08    0.23
  -2  -5  -2    4.46    0.31
  -2  -5  -2    3.67    0.24
   2  -5   2    4.35    0.14
   2   5   2    3.56    0.25
  -2   5  -2    4.31    0.14
  -2   5  -2    4.31    0.14
   2   5   2    3.89    0.23
   3  -5   2    0.09    0.05
  -3  -5  -2    0.32    0.15
  -3  -5  -2    0.18    0.11
   3   5   2    0.06    0.05
   3   5   2    0.10    0.09
   3   5   2    0.09    0.12
   4  -5   2    3.58    0.17
  -4  -5  -2    3.82    0.33
  -4  -5  -2    3.72    0.26
   4   5   2    3.69    0.18
   4   5   2    4.22    0.28
  -5  -5  -2    0.34    0.12
  -5  -5  -2    0.38    0.18
   5  -5   2    0.23    0.08
   5   5   2    0.18    0.08
   5   5   2    0.34    0.13
   6  -5   2    0.13    0.09
  -6  -5  -2    0.19    0.13
  -6  -5  -2    0.08    0.17
   6   5   2    0.10    0.15
   6   5   2    0.04    0.09
  -7  -5  -2    0.03    0.13
  -7  -5  -2    0.07    0.19
   7   5   2   -0.07    0.10
  -5  -6   2    0.17    0.17
  -5  -6   2   -0.05    0.12
   5   6  -2   -0.18    0.13
  -4  -6   2    0.14    0.11
  -4  -6   2    0.34    0.17
   4   6  -2   -0.04    0.12
  -3  -6   2    0.16    0.16
  -3  -6   2    0.20    0.10
   3   6  -2    0.16    0.12
  -3   6   2    0.24    0.06
  -2  -6   2    6.00    0.38
  -2  -6   2    5.79    0.29
  -2   6   2    5.81    0.24
   2   6  -2    6.01    0.30
  -1  -6   2    0.17    0.09
  -1  -6   2    0.14    0.14
  -1   6   2    0.08    0.08
   1   6  -2    0.16    0.10
   0  -6   2    0.57    0.15
   0  -6  -2    0.75    0.17
   0  -6  -2    0.48    0.10
   0   6   2    0.55    0.11
   0   6  -2    0.58    0.10
   1  -6   2   -0.16    0.10
  -1  -6  -2   -0.05    0.08
  -1  -6  -2   -0.30    0.13
  -1   6  -2   -0.02    0.06
   1   6   2   -0.06    0.09
  -2  -6  -2    0.18    0.15
  -2  -6  -2    0.08    0.09
   2  -6   2    0.11    0.10
   2   6   2    0.02    0.11
  -2   6  -2    0.16    0.03
  -3  -6  -2    0.50    0.18
  -3  -6  -2    0.23    0.11
   3   6   2    0.26    0.13
  -4  -6  -2    0.98    0.16
  -4  -6  -2    1.58    0.24
   4   6   2    1.29    0.18
  -5  -6  -2    0.04    0.12
  -5  -6  -2    0.05    0.18
   5   6   2    0.08    0.15
  -3  -7   2    0.30    0.18
   3   7  -2    0.25    0.13
  -2  -7   2    0.13    0.16
   2  -7  -2    0.01    0.12
  -2   7   2    0.00    0.07
   2   7  -2    0.05    0.10
   1  -7  -2    0.02    0.14
  -1  -7   2    0.16    0.15
  -1   7   2   -0.05    0.08
   1   7  -2    0.06    0.10
   0  -7   2    0.39    0.15
   0  -7  -2    0.27    0.16
   0   7   2    0.18    0.10
   0   7  -2    0.19    0.09
   1  -7   2    0.35    0.13
  -1  -7  -2    0.25    0.16
   1   7   2    0.27    0.11
  -1   7  -2    0.12    0.07
  -2  -7  -2    0.51    0.19
   2   7   2    0.46    0.14
  -3  -7  -2    0.04    0.19
  -9   0   3   -0.02    0.11
  -9   0   3    0.26    0.13
  -8   0   3   -0.08    0.10
   8   0  -3   -0.01    0.11
  -8   0   3   -0.13    0.10
   7   0  -3   -0.09    0.09
  -7   0   3   -0.06    0.08
  -7   0   3    0.03    0.09
   7   0  -3   -0.06    0.09
   6   0  -3   -0.09    0.08
  -6   0   3   -0.01    0.07
   6   0  -3   -0.09    0.07
  -6   0   3   -0.10    0.07
  -5   0   3    0.15    0.07
   5   0  -3    0.12    0.06
   5   0  -3    0.15    0.07
  -5   0   3    0.14    0.07
   5   0  -3    0.12    0.07
  -4   0   3    0.06    0.06
   4   0  -3    0.00    0.05
  -4   0   3    0.01    0.06
   4   0  -3    0.03    0.05
   4   0  -3    0.13    0.06
  -3   0   3   -0.04    0.04
  -3   0   3   -0.03    0.04
   3   0  -3   -0.06    0.04
   3   0  -3   -0.07    0.04
  -2   0   3   -0.04    0.04
   2   0  -3   -0.06    0.03
  -2   0   3   -0.09    0.04
   2   0  -3   -0.07    0.03
   0   0  -3   -0.06    0.02
   0   0   3    0.00    0.03
   0   0   3   -0.07    0.02
   0   0  -3   -0.05    0.02
   1   0   3   -0.05    0.03
  -1   0  -3   -0.06    0.03
   1   0   3   -0.12    0.03
   1   0   3   -0.07    0.03
  -1   0  -3   -0.07    0.03
  -1   0  -3   -0.07    0.03
   2   0   3   -0.05    0.04
  -2   0  -3   -0.02    0.04
   2   0   3   -0.05    0.04
  -2   0  -3   -0.02    0.04
   3   0   3   -0.13    0.05
  -4   0  -3   -0.15    0.05
  -4   0  -3    0.02    0.05
   4   0   3   -0.11    0.06
  -5   0  -3   -0.04    0.07
  -5   0  -3   -0.07    0.06
   5   0   3   -0.05    0.06
  -5   0  -3    0.03    0.06
   5   0   3   -0.10    0.07
  -6   0  -3   -0.06    0.06
  -6   0  -3   -0.08    0.08
  -6   0  -3    0.03    0.06
   6   0   3   -0.03    0.08
  -7   0  -3    0.29    0.10
  -7   0  -3    0.11    0.08
   7   0   3    0.17    0.10
  -8   0  -3    0.09    0.10
  -8   0  -3    0.05    0.08
  -9   0  -3    0.03    0.11
  -9  -1   3    1.99    0.24
  -9  -1   3    1.31    0.18
   9   1  -3    1.49    0.20
  -9   1   3    1.91    0.23
  -8  -1   3    0.19    0.12
  -8  -1   3    0.33    0.13
   8  -1  -3    0.13    0.12
   8   1  -3    0.24    0.14
  -8   1   3    0.13    0.11
  -7  -1   3    0.18    0.11
   7  -1  -3   -0.04    0.09
   7  -1  -3   -0.09    0.09
  -7  -1   3    0.21    0.10
  -7   1   3    0.21    0.09
  -7   1   3    0.08    0.09
   7   1  -3    0.16    0.11
  -6  -1   3    3.43    0.22
  -6  -1   3    3.08    0.22
   6  -1  -3    3.25    0.19
   6  -1  -3    3.13    0.19
  -6   1   3    3.13    0.19
   6   1  -3    3.37    0.22
   6   1  -3    3.15    0.22
  -6   1   3    3.58    0.19
  -5  -1   3    3.10    0.20
   5  -1  -3    3.31    0.16
  -5  -1   3    3.31    0.20
   5  -1  -3    3.63    0.18
   5  -1  -3    3.46    0.18
   5   1  -3    3.25    0.18
   5   1  -3    3.00    0.19
   5   1  -3    3.23    0.20
  -5   1   3    3.51    0.17
  -5   1   3    3.50    0.18
   4  -1  -3    4.51    0.17
  -4  -1   3    4.12    0.20
   4  -1  -3    4.40    0.19
  -4  -1   3    4.13    0.21
  -4   1   3    4.50    0.18
   4   1  -3    4.20    0.22
   4   1  -3    4.38    0.21
   4   1  -3    4.31    0.19
   3  -1  -3  101.39    2.97
  -3  -1   3   98.59    2.98
  -3  -1   3  102.39    3.45
   3  -1  -3  102.64    3.43
   3   1  -3  106.88    2.98
   3   1  -3  100.39    2.99
   3   1  -3  101.50    3.45
  -3   1   3  105.87    2.97
  -2  -1   3    0.19    0.06
   2  -1  -3    0.23    0.04
  -2  -1   3    0.22    0.05
   2  -1  -3    0.26    0.04
  -2   1   3    0.25    0.04
   2   1  -3    0.17    0.04
   2   1  -3    0.15    0.05
   1  -1  -3   26.33    0.75
  -1  -1   3   25.00    0.87
   1  -1  -3   24.62    0.75
  -1  -1   3   24.82    0.75
   1   1  -3   24.98    0.75
  -1   1   3   24.90    0.75
   1   1  -3   25.70    0.87
  -1   1   3   25.83    0.75
   0  -1   3    0.01    0.02
   0  -1  -3    0.02    0.03
   0  -1  -3   -0.02    0.03
   0  -1   3   -0.01    0.03
   0   1  -3    0.01    0.03
   0   1   3    0.00    0.03
   0   1   3    0.02    0.03
   0   1  -3   -0.01    0.02
   1  -1   3    0.12    0.03
  -1  -1  -3    0.30    0.05
  -1  -1  -3    0.18    0.04
   1  -1   3    0.23    0.04
   1  -1   3    0.13    0.04
  -1  -1  -3    0.16    0.04
   1   1   3    0.16    0.04
   1   1   3    0.30    0.05
   1   1   3    0.22    0.05
  -1   1  -3    0.17    0.04
  -2  -1  -3   80.76    2.39
  -2  -1  -3   78.47    2.39
   2  -1   3   83.34    2.37
   2  -1   3   83.65    2.31
   2  -1   3   86.72    2.37
  -2   1  -3   84.60    2.37
   2   1   3   82.38    2.39
   2   1   3   76.34    2.39
  -3  -1  -3   75.12    2.15
   3  -1   3   72.69    2.12
  -3  -1  -3   70.98    2.15
   3  -1   3   74.98    2.12
   3   1   3   72.18    2.15
  -3   1  -3   73.37    2.12
  -3   1  -3   71.46    2.12
  -3   1  -3   73.14    2.44
   3   1   3   74.53    2.15
   4  -1   3    0.13    0.05
  -4  -1  -3    0.05    0.08
   4  -1   3    0.13    0.04
  -4  -1  -3    0.09    0.06
  -4  -1  -3    0.05    0.07
   4   1   3    0.09    0.07
  -4   1  -3    0.13    0.04
  -4   1  -3    0.02    0.03
  -4   1  -3    0.16    0.05
   4   1   3    0.12    0.06
  -5  -1  -3   11.02    0.40
  -5  -1  -3   11.16    0.46
  -5  -1  -3   11.37    0.41
   5  -1   3   11.40    0.37
   5  -1   3   11.06    0.38
  -5   1  -3   10.95    0.38
   5   1   3   11.74    0.42
   5   1   3   11.12    0.40
  -5   1  -3   10.77    0.40
   6  -1   3    4.28    0.21
  -6  -1  -3    4.41    0.25
   6  -1   3    4.36    0.20
  -6  -1  -3    4.44    0.26
  -6  -1  -3    4.43    0.23
   6   1   3    4.04    0.25
  -6   1  -3    4.29    0.19
  -6   1  -3    4.58    0.22
  -7  -1  -3    1.83    0.21
  -7  -1  -3    2.06    0.18
   7  -1   3    2.23    0.18
  -7  -1  -3    2.14    0.20
  -7   1  -3    2.29    0.18
   7   1   3    2.24    0.24
  -7   1  -3    2.14    0.13
  -8  -1  -3   -0.15    0.11
  -8  -1  -3    0.06    0.11
   8   1   3   -0.05    0.12
  -8   1  -3    0.04    0.09
  -9  -1  -3    0.53    0.15
  -9  -1  -3    0.46    0.13
  -9   1  -3    0.49    0.12
  -9  -2   3    0.14    0.15
  -9  -2   3    0.09    0.17
  -9   2   3    0.16    0.11
   9   2  -3    0.06    0.15
  -8  -2   3    1.02    0.17
  -8  -2   3    1.36    0.20
  -8   2   3    1.37    0.18
   8   2  -3    1.25    0.19
   7  -2  -3    4.78    0.25
   7  -2  -3    4.85    0.25
  -7  -2   3    4.99    0.31
  -7  -2   3    4.85    0.30
   7   2  -3    4.59    0.31
  -7   2   3    4.73    0.24
  -6  -2   3    0.83    0.13
   6  -2  -3    1.26    0.12
   6  -2  -3    1.11    0.13
  -6  -2   3    1.05    0.15
  -6   2   3    0.95    0.10
   6   2  -3    0.95    0.14
   5  -2  -3    7.03    0.29
  -5  -2   3    7.06    0.34
   5  -2  -3    7.31    0.25
  -5  -2   3    6.83    0.30
   5   2  -3    7.23    0.29
   5   2  -3    6.78    0.33
   5   2  -3    6.87    0.31
  -5   2   3    7.19    0.26
   4  -2  -3    0.46    0.05
  -4  -2   3    0.12    0.08
   4  -2  -3    0.34    0.06
  -4  -2   3    0.33    0.09
   4   2  -3    0.36    0.09
   4   2  -3    0.17    0.07
  -4   2   3    0.33    0.06
   4   2  -3    0.10    0.08
  -3  -2   3   -0.01    0.06
   3  -2  -3    0.05    0.04
   3  -2  -3    0.04    0.04
  -3  -2   3    0.06    0.07
  -3   2   3    0.05    0.04
   3   2  -3   -0.03    0.06
   3   2  -3   -0.01    0.06
   3   2  -3   -0.03    0.05
  -3   2   3    0.05    0.03
  -2  -2   3    1.02    0.12
   2  -2  -3    1.02    0.08
  -2  -2   3    1.17    0.10
   2   2  -3    1.22    0.10
  -2   2   3    1.04    0.08
   2   2  -3    1.00    0.11
   2   2  -3    1.12    0.10
  -2   2   3    1.11    0.08
  -1  -2   3  184.08    6.32
   1  -2  -3  189.50    5.53
   1  -2  -3  189.46    5.50
  -1  -2   3  200.34    5.52
  -1   2   3  174.73    5.47
   1   2  -3  203.41    5.57
   1   2  -3  188.96    5.51
   1   2  -3  184.97    6.41
  -1   2   3  180.38    5.52
   0  -2  -3   83.24    2.30
   0  -2  -3   79.84    2.39
   0  -2  -3   82.16    2.40
   0  -2   3   78.76    2.38
   0  -2   3   80.11    2.76
   0   2  -3   86.11    2.30
   0   2   3   78.49    2.40
   0   2   3   83.24    2.40
   0   2  -3   79.50    2.38
   0   2  -3   82.66    2.77
   0   2  -3   91.47    2.45
   1  -2   3   23.39    0.80
  -1  -2  -3   23.53    0.72
   1  -2   3   23.81    0.69
  -1  -2  -3   22.78    0.72
   1  -2   3   24.39    0.68
   1   2   3   24.53    0.68
   1   2   3   21.65    0.72
  -1   2  -3   23.92    0.69
   1   2   3   23.99    0.73
  -1   2  -3   24.24    0.69
  -2  -2  -3    0.16    0.06
  -2  -2  -3    0.14    0.06
   2  -2   3    0.17    0.05
   2   2   3    0.05    0.06
   2   2   3    0.10    0.06
   2   2   3    0.13    0.05
   3  -2   3   54.47    1.53
   3  -2   3   54.12    1.53
  -3  -2  -3   51.82    1.59
  -3  -2  -3   52.65    1.60
   3   2   3   52.78    1.60
   3   2   3   53.04    1.59
  -3   2  -3   54.17    1.53
  -4  -2  -3   24.55    0.93
  -4  -2  -3   24.98    0.81
   4  -2   3   25.95    0.74
  -4  -2  -3   26.10    0.81
   4  -2   3   24.64    0.74
   4   2   3   24.07    0.80
  -4   2  -3   25.53    0.75
   4   2   3   25.94    0.81
  -5  -2  -3   31.43    1.00
  -5  -2  -3   32.53    1.15
   5  -2   3   31.19    0.94
  -5  -2  -3   32.00    1.01
   5  -2   3   30.88    0.94
  -5   2  -3   31.44    0.94
   5   2   3   32.64    1.01
  -6  -2  -3    0.62    0.14
  -6  -2  -3    0.47    0.12
   6  -2   3    0.43    0.07
   6  -2   3    0.42    0.06
  -6  -2  -3    0.33    0.10
  -6   2  -3    0.53    0.07
   6   2   3    0.34    0.13
  -7  -2  -3   -0.17    0.11
  -7  -2  -3    0.05    0.13
   7   2   3   -0.11    0.13
  -7   2  -3   -0.06    0.07
  -8  -2  -3   -0.23    0.12
  -8  -2  -3    0.19    0.14
   8   2   3   -0.21    0.14
  -8   2  -3   -0.10    0.08
  -9  -2  -3    0.14    0.14
  -9  -3   3   -0.01    0.17
  -9   3   3    0.00    0.09
   9   3  -3   -0.20    0.16
  -8  -3   3    0.03    0.16
  -8  -3   3   -0.03    0.13
  -8   3   3    0.10    0.09
   8   3  -3   -0.04    0.15
  -7  -3   3   -0.05    0.11
  -7  -3   3   -0.03    0.14
  -7   3   3    0.00    0.07
   7   3  -3   -0.18    0.12
  -6  -3   3   -0.29    0.10
   6  -3  -3   -0.06    0.06
   6  -3  -3   -0.02    0.06
  -6   3   3   -0.01    0.04
  -6   3   3    0.07    0.06
  -5  -3   3    0.76    0.12
   5  -3  -3    0.98    0.09
   5  -3  -3    1.04    0.10
  -5   3   3    0.92    0.09
   5   3  -3    0.65    0.13
  -5   3   3    1.01    0.11
  -4  -3   3    3.89    0.23
   4  -3  -3    3.95    0.18
  -4  -3   3    3.84    0.25
   4  -3  -3    3.80    0.16
   4   3  -3    3.93    0.20
   4   3  -3    3.76    0.23
  -4   3   3    3.88    0.16
  -4   3   3    3.89    0.16
  -3  -3   3   13.60    0.55
   3  -3  -3   14.15    0.44
  -3  -3   3   14.01    0.48
   3   3  -3   14.01    0.48
   3   3  -3   13.92    0.47
  -3   3   3   13.98    0.44
  -3   3   3   14.08    0.44
   2  -3  -3   21.06    0.61
  -2  -3   3   18.83    0.63
  -2  -3   3   19.76    0.73
   2  -3  -3   19.34    0.61
   2   3  -3   20.32    0.64
  -2   3   3   20.07    0.61
  -2   3   3   19.95    0.61
   2   3  -3   19.97    0.63
  -1  -3   3    5.84    0.27
   1  -3  -3    6.21    0.22
  -1  -3   3    5.92    0.23
   1  -3  -3    6.11    0.22
  -1   3   3    6.23    0.23
  -1   3   3    6.00    0.22
   1   3  -3    6.00    0.23
   1   3  -3    5.72    0.22
   0  -3  -3    0.06    0.05
   0  -3  -3    0.00    0.04
   0  -3  -3    0.01    0.02
   0  -3   3   -0.05    0.06
   0  -3   3   -0.02    0.04
   0   3  -3   -0.03    0.04
   0   3   3    0.01    0.05
   0   3  -3    0.02    0.03
   0   3  -3   -0.02    0.03
   0   3   3    0.01    0.06
   1  -3   3    2.71    0.14
   1  -3   3    2.72    0.11
  -1  -3  -3    2.62    0.15
  -1  -3  -3    2.61    0.15
  -1   3  -3    2.79    0.10
  -1   3  -3    2.56    0.11
   1   3   3    2.78    0.16
   1   3   3    2.68    0.16
  -2  -3  -3   33.99    1.02
   2  -3   3   32.78    1.12
  -2  -3  -3   32.01    1.02
   2  -3   3   32.91    0.95
   2   3   3   34.80    0.96
   2   3   3   34.10    1.02
   2   3   3   30.58    1.02
  -3  -3  -3    0.35    0.09
  -3  -3  -3    0.26    0.08
   3  -3   3    0.36    0.06
   3   3   3    0.34    0.06
   3   3   3    0.31    0.09
   3   3   3    0.35    0.08
  -4  -3  -3    1.45    0.16
  -4  -3  -3    1.43    0.17
  -4  -3  -3    1.54    0.19
   4   3   3    1.44    0.18
   4   3   3    1.43    0.15
  -5  -3  -3   10.19    0.42
  -5  -3  -3   10.47    0.47
   5   3   3    9.95    0.43
  -6  -3  -3    3.12    0.28
  -6  -3  -3    3.31    0.29
   6   3   3    3.08    0.29
  -7  -3  -3    5.28    0.34
  -7  -3  -3    5.51    0.36
   7   3   3    5.54    0.36
  -7   3  -3    4.11    0.17
  -8  -3  -3    2.28    0.29
  -8  -3  -3    2.41    0.29
   8   3   3    2.36    0.31
  -8  -4   3    0.09    0.16
  -8  -4   3   -0.11    0.13
   8   4  -3   -0.07    0.15
  -7  -4   3    0.31    0.16
  -7  -4   3    0.12    0.12
  -7   4   3    0.06    0.07
   7   4  -3    0.30    0.15
  -6  -4   3    1.35    0.19
  -6  -4   3    1.18    0.16
  -6   4   3    1.50    0.12
   6   4  -3    1.29    0.17
  -5  -4   3    1.52    0.20
   5  -4  -3    1.71    0.11
   5  -4  -3    1.64    0.13
  -5  -4   3    1.65    0.21
  -5   4   3    1.72    0.12
  -5   4   3    1.77    0.11
   5   4  -3    1.57    0.17
  -4  -4   3   -0.03    0.08
   4  -4  -3    0.02    0.04
  -4   4   3    0.02    0.02
   4   4  -3   -0.07    0.09
   4   4  -3    0.01    0.07
  -4   4   3    0.00    0.05
  -3  -4   3    1.17    0.17
   3  -4  -3    1.74    0.11
  -3  -4   3    1.70    0.17
   3   4  -3    1.80    0.17
  -3   4   3    1.69    0.11
   3   4  -3    1.83    0.14
  -3   4   3    1.71    0.11
  -2  -4   3   -0.08    0.06
   2  -4  -3   -0.01    0.04
  -2  -4   3   -0.13    0.10
   2  -4  -3    0.07    0.04
  -2   4   3   -0.02    0.05
   2   4  -3   -0.02    0.07
  -2   4   3   -0.03    0.05
   2   4  -3    0.03    0.06
   1  -4  -3    0.07    0.02
  -1  -4   3    0.08    0.09
  -1  -4   3   -0.02    0.06
   1  -4  -3    0.09    0.05
   1  -4  -3    0.04    0.05
   1   4  -3    0.05    0.02
   1   4  -3   -0.03    0.06
   1   4  -3    0.00    0.05
  -1   4   3    0.06    0.06
  -1   4   3    0.09    0.06
   0  -4   3   15.88    0.59
   0  -4   3   15.63    0.50
   0  -4  -3   16.58    0.52
   0  -4  -3   14.92    0.51
   0   4   3   15.03    0.52
   0   4  -3   15.48    0.50
   0   4  -3   15.69    0.49
   0   4   3   16.24    0.52
   1  -4   3   14.81    0.46
  -1  -4  -3   15.21    0.51
  -1  -4  -3   14.43    0.50
   1  -4   3   15.11    0.56
   1   4   3   15.49    0.51
  -1   4  -3   15.01    0.46
   1   4   3   15.01    0.51
  -1   4  -3   14.87    0.46
   2  -4   3    0.80    0.09
  -2  -4  -3    1.09    0.12
   2   4   3    0.91    0.11
   2   4   3    1.09    0.12
   2   4   3    1.03    0.09
   3  -4   3    0.45    0.06
   3  -4   3    0.34    0.05
  -3  -4  -3    0.32    0.10
   3   4   3    0.42    0.07
   3   4   3    0.32    0.10
   3   4   3    0.36    0.11
  -4  -4  -3    2.28    0.26
  -4  -4  -3    1.79    0.21
   4  -4   3    1.79    0.15
   4   4   3    1.65    0.15
   4   4   3    1.99    0.23
  -5  -4  -3   -0.03    0.10
  -5  -4  -3   -0.12    0.15
   5  -4   3    0.00    0.08
   5   4   3    0.11    0.08
   5   4   3    0.18    0.12
  -6  -4  -3    0.27    0.12
   6  -4   3    0.13    0.10
  -6  -4  -3    0.05    0.16
   6   4   3    0.23    0.14
  -7  -4  -3    0.82    0.16
  -7  -4  -3    0.97    0.20
   7  -4   3    0.64    0.14
   7   4   3    1.04    0.19
   8  -4   3    1.33    0.18
  -7  -5   3    0.13    0.18
  -7  -5   3   -0.05    0.13
  -6  -5   3    0.68    0.19
  -6  -5   3    0.61    0.15
   6   5  -3    0.90    0.17
  -5  -5   3   -0.04    0.11
  -5  -5   3    0.00    0.15
  -5   5   3    0.00    0.05
   5   5  -3   -0.03    0.12
  -4  -5   3    0.06    0.10
  -4  -5   3    0.40    0.15
   4   5  -3    0.01    0.11
   4   5  -3    0.25    0.09
  -4   5   3    0.17    0.06
  -4   5   3    0.08    0.05
  -3  -5   3    4.17    0.31
   3  -5  -3    4.39    0.20
  -3  -5   3    3.75    0.24
   3   5  -3    4.39    0.23
  -3   5   3    4.24    0.18
   3   5  -3    3.74    0.26
   2  -5  -3    1.02    0.11
  -2  -5   3    0.97    0.17
  -2  -5   3    0.81    0.11
  -2   5   3    1.08    0.12
   2   5  -3    0.92    0.12
   2   5  -3    1.05    0.13
  -2   5   3    1.04    0.11
  -1  -5   3    0.45    0.14
  -1  -5   3    0.76    0.10
   1  -5  -3    0.77    0.09
   1   5  -3    0.79    0.10
  -1   5   3    0.79    0.09
  -1   5   3    0.82    0.10
   1   5  -3    0.85    0.09
   0  -5   3    2.41    0.24
   0  -5   3    3.60    0.17
   0  -5  -3    3.09    0.19
   0   5   3    2.86    0.21
   0   5  -3    3.67    0.18
   0   5  -3    3.49    0.16
   0   5   3    3.09    0.19
   1  -5   3    0.13    0.05
   1   5   3   -0.22    0.08
  -1   5  -3    0.17    0.06
  -1   5  -3    0.09    0.04
  -3  -5  -3    3.66    0.32
  -3  -5  -3    4.02    0.26
   3  -5   3    4.12    0.18
   3   5   3    3.95    0.24
   3   5   3    3.68    0.27
   3   5   3    3.49    0.16
   4  -5   3    1.59    0.13
  -4  -5  -3    1.77    0.22
  -4  -5  -3    2.05    0.26
   4   5   3    1.62    0.13
   4   5   3    1.41    0.17
   5  -5   3    0.25    0.08
  -5  -5  -3    0.21    0.16
  -5  -5  -3    0.11    0.11
   5   5   3    0.26    0.13
   5   5   3    0.27    0.08
   6  -5   3    1.47    0.18
  -6  -5  -3    1.29    0.23
  -6  -5  -3    1.31    0.18
   6   5   3    1.39    0.20
   6   5   3    1.58    0.18
  -7  -5  -3    0.03    0.14
   7   5   3    0.00    0.11
  -5  -6   3    0.06    0.13
  -5  -6   3    0.32    0.18
   5   6  -3    0.03    0.14
  -4  -6   3    2.43    0.24
  -4  -6   3    3.10    0.30
  -4   6   3    2.48    0.13
   4   6  -3    2.90    0.27
  -3  -6   3    0.72    0.18
  -3  -6   3    0.57    0.12
  -3   6   3    0.60    0.08
   3   6  -3    0.59    0.14
  -2  -6   3    4.98    0.27
  -2  -6   3    5.65    0.36
  -2   6   3    4.84    0.23
   2   6  -3    5.18    0.28
  -1  -6   3    0.74    0.16
   1   6  -3    0.65    0.11
  -1   6   3    0.65    0.11
   0  -6  -3    0.79    0.11
   0  -6   3    0.96    0.16
   0   6  -3    0.93    0.11
   0   6   3    0.84    0.12
   1  -6   3    0.16    0.11
  -1  -6  -3    0.23    0.09
  -1   6  -3    0.28    0.06
   1   6   3    0.23    0.11
  -2  -6  -3    0.61    0.17
   2  -6   3    0.61    0.11
  -2  -6  -3    0.61    0.12
   2   6   3    0.50    0.13
  -3  -6  -3    0.12    0.11
  -3  -6  -3    0.10    0.16
   3   6   3   -0.02    0.13
  -4  -6  -3   -0.10    0.16
  -4  -6  -3   -0.16    0.11
   4   6   3   -0.09    0.13
  -5  -6  -3    0.53    0.21
  -5  -6  -3    0.46    0.15
  -3  -7   3    0.79    0.20
   3   7  -3    0.69    0.15
  -2  -7   3    0.18    0.16
   2   7  -3    0.13    0.10
  -2   7   3   -0.04    0.07
   1  -7  -3    0.13    0.14
  -1  -7   3    0.11    0.15
  -1   7   3   -0.02    0.09
   1   7  -3    0.04    0.09
   0  -7  -3    0.42    0.16
   0  -7   3    0.12    0.14
   0   7  -3    0.11    0.08
   0   7   3    0.30    0.11
  -1  -7  -3    0.32    0.17
   1   7   3    0.36    0.12
  -1   7  -3    0.29    0.07
  -2  -7  -3    0.32    0.19
   2   7   3    0.49    0.14
  -3  -7  -3    0.30    0.20
  -9   0   4    0.45    0.14
  -9   0   4    0.47    0.14
  -8   0   4    0.05    0.11
   8   0  -4   -0.09    0.11
  -8   0   4   -0.01    0.11
   7   0  -4    0.61    0.12
  -7   0   4    0.83    0.12
  -7   0   4    0.66    0.12
  -6   0   4    0.02    0.08
  -6   0   4    0.12    0.08
   6   0  -4   -0.02    0.08
   6   0  -4    0.16    0.08
  -5   0   4    9.54    0.36
   5   0  -4    9.70    0.36
   5   0  -4    9.80    0.34
   5   0  -4    9.52    0.39
  -5   0   4    9.78    0.39
  -4   0   4   71.52    2.34
  -4   0   4   66.57    2.03
   4   0  -4   68.33    2.34
   4   0  -4   69.60    2.03
   3   0  -4   10.38    0.40
   3   0  -4   10.50    0.35
  -3   0   4   11.05    0.36
  -3   0   4   11.04    0.40
   2   0  -4  391.24   10.97
  -2   0   4  373.77   10.96
   2   0  -4  370.71   12.68
  -2   0   4  371.63   12.69
   1   0  -4   74.67    2.16
  -1   0   4   71.90    2.16
   1   0  -4   77.33    2.50
   0   0   4    6.28    0.20
   0   0  -4    6.05    0.20
   0   0   4    6.11    0.20
   0   0  -4    5.95    0.20
  -1   0  -4    2.50    0.11
   1   0   4    2.61    0.12
  -1   0  -4    2.56    0.12
   1   0   4    2.53    0.11
  -1   0  -4    2.43    0.11
   1   0   4    2.55    0.11
   2   0   4    9.98    0.34
  -2   0  -4   10.22    0.34
   2   0   4   10.74    0.34
  -2   0  -4   10.63    0.34
   2   0   4   10.45    0.34
  -3   0  -4   36.66    1.12
   3   0   4   37.32    1.12
  -3   0  -4   37.77    1.12
   3   0   4   38.74    1.12
   4   0   4   20.48    0.66
  -4   0  -4   20.66    0.66
  -4   0  -4   21.10    0.66
  -4   0  -4   21.09    0.74
   4   0   4   21.48    0.66
   5   0   4    2.92    0.17
   5   0   4    2.89    0.18
  -5   0  -4    3.14    0.18
  -5   0  -4    3.18    0.18
  -5   0  -4    3.07    0.17
  -6   0  -4    0.23    0.08
  -6   0  -4    0.32    0.09
   6   0   4    0.27    0.09
  -6   0  -4    0.29    0.08
  -7   0  -4    0.46    0.09
  -7   0  -4    0.46    0.11
   7   0   4    0.46    0.11
  -7   0  -4    0.60    0.10
  -8   0  -4    2.31    0.22
  -8   0  -4    2.11    0.17
  -9   0  -4    0.16    0.12
  -9  -1   4    2.08    0.26
   9   1  -4    2.15    0.28
  -9   1   4    2.02    0.24
   8  -1  -4    8.71    0.40
  -8  -1   4    9.69    0.44
  -8  -1   4    9.17    0.42
  -8   1   4    8.84    0.40
   8   1  -4    9.44    0.43
  -7  -1   4    2.41    0.22
   7  -1  -4    1.67    0.18
   7  -1  -4    2.01    0.19
  -7  -1   4    2.29    0.22
   7   1  -4    2.03    0.22
  -7   1   4    2.18    0.19
  -7   1   4    2.60    0.19
   6  -1  -4    7.24    0.34
  -6  -1   4    8.01    0.34
   6  -1  -4    8.02    0.32
  -6  -1   4    8.06    0.36
  -6   1   4    7.93    0.32
   6   1  -4    7.66    0.34
  -6   1   4    8.21    0.34
  -5  -1   4    0.37    0.09
   5  -1  -4    0.56    0.08
  -5  -1   4    0.57    0.10
   5  -1  -4    0.56    0.07
   5   1  -4    0.38    0.08
   5   1  -4    0.59    0.10
  -5   1   4    0.61    0.08
   5   1  -4    0.42    0.10
   4  -1  -4   35.39    1.22
  -4  -1   4   34.59    1.07
  -4  -1   4   34.80    1.23
   4  -1  -4   36.46    1.06
   4   1  -4   34.49    1.23
   4   1  -4   35.54    1.07
  -4   1   4   34.92    1.06
   4   1  -4   36.08    1.08
   3  -1  -4    4.84    0.20
  -3  -1   4    4.65    0.19
   3  -1  -4    4.79    0.18
  -3  -1   4    4.52    0.21
   3   1  -4    4.39    0.22
   3   1  -4    4.75    0.19
  -3   1   4    4.82    0.18
  -2  -1   4   25.68    0.90
   2  -1  -4   25.67    0.89
   2  -1  -4   26.79    0.77
  -2  -1   4   24.84    0.78
  -2   1   4   26.00    0.77
   2   1  -4   25.72    0.90
  -2   1   4   26.16    0.77
   2   1  -4   25.59    0.78
   1  -1  -4    4.69    0.17
  -1  -1   4    4.80    0.19
   1  -1  -4    4.34    0.17
  -1  -1   4    4.91    0.17
  -1   1   4    4.47    0.17
  -1   1   4    4.52    0.17
   1   1  -4    4.84    0.17
   1   1  -4    4.85    0.19
   0  -1   4   22.14    0.66
   0  -1   4   22.92    0.76
   0  -1  -4   22.42    0.68
   0  -1  -4   22.11    0.67
   0   1   4   22.29    0.67
   0   1   4   22.53    0.67
   0   1  -4   22.28    0.76
   0   1  -4   22.07    0.66
  -1  -1  -4   40.53    1.22
   1  -1   4   42.13    1.20
   1  -1   4   41.19    1.18
   1  -1   4   40.75    1.20
  -1  -1  -4   43.05    1.18
  -1  -1  -4   38.02    1.22
  -1   1  -4   41.56    1.20
  -1   1  -4   41.95    1.18
  -1   1  -4   41.69    1.42
  -1   1  -4   42.29    1.20
   1   1   4   40.34    1.22
   1   1   4   41.30    1.18
   1   1   4   40.90    1.22
  -2  -1  -4   10.32    0.35
  -2  -1  -4    9.84    0.35
   2  -1   4   10.57    0.32
   2  -1   4   10.63    0.32
   2  -1   4   10.34    0.34
   2   1   4    9.75    0.35
   2   1   4   10.25    0.35
   2   1   4   10.46    0.34
  -2   1  -4   10.76    0.32
   3  -1   4    0.14    0.04
  -3  -1  -4   -0.04    0.06
  -3  -1  -4    0.06    0.06
   3  -1   4    0.13    0.04
  -3   1  -4    0.12    0.04
   3   1   4    0.01    0.06
  -3   1  -4    0.10    0.04
   3   1   4    0.02    0.06
  -4  -1  -4    3.38    0.18
  -4  -1  -4    3.33    0.19
   4  -1   4    3.57    0.15
   4  -1   4    3.62    0.15
  -4   1  -4    3.45    0.15
   4   1   4    3.38    0.19
  -4   1  -4    3.56    0.15
  -4   1  -4    3.21    0.14
   4   1   4    3.53    0.18
   5  -1   4    1.04    0.11
  -5  -1  -4    1.33    0.15
  -5  -1  -4    1.08    0.14
   5  -1   4    1.22    0.11
  -5  -1  -4    1.11    0.16
  -5   1  -4    1.03    0.08
   5   1   4    1.03    0.12
  -5   1  -4    1.30    0.11
   5   1   4    1.06    0.13
  -5   1  -4    1.21    0.12
  -6  -1  -4    2.54    0.21
  -6  -1  -4    2.53    0.19
   6  -1   4    2.69    0.17
  -6  -1  -4    2.91    0.21
   6   1   4    2.64    0.22
  -6   1  -4    2.66    0.17
  -6   1  -4    2.71    0.14
   7  -1   4    0.05    0.08
  -7  -1  -4    0.16    0.11
  -7  -1  -4    0.06    0.09
  -7  -1  -4    0.06    0.10
   7   1   4    0.02    0.11
  -7   1  -4    0.13    0.08
  -7   1  -4    0.12    0.05
  -8  -1  -4    0.18    0.12
  -8  -1  -4    0.27    0.11
  -8   1  -4    0.22    0.10
   8   1   4    0.08    0.13
  -9  -1  -4    0.13    0.14
  -9   1  -4    0.11    0.12
  -9  -2   4    0.22    0.15
  -9  -2   4    0.03    0.16
  -9   2   4    0.10    0.11
   9   2  -4    0.08    0.15
  -8  -2   4    0.60    0.17
  -8  -2   4    0.43    0.15
  -8   2   4    0.62    0.12
   8   2  -4    0.42    0.16
  -7  -2   4    5.13    0.30
   7  -2  -4    5.13    0.26
  -7  -2   4    5.41    0.33
   7  -2  -4    5.07    0.26
  -7   2   4    5.27    0.26
   7   2  -4    4.90    0.31
   6  -2  -4    1.38    0.15
  -6  -2   4    2.27    0.22
  -6  -2   4    1.67    0.21
   6  -2  -4    2.09    0.16
   6   2  -4    1.72    0.20
  -6   2   4    1.65    0.17
  -5  -2   4    0.66    0.11
   5  -2  -4    0.58    0.08
   5  -2  -4    0.75    0.07
  -5  -2   4    0.70    0.12
   5   2  -4    0.61    0.11
  -5   2   4    0.63    0.08
   5   2  -4    0.60    0.09
   4  -2  -4    0.80    0.08
   4  -2  -4    0.75    0.09
  -4  -2   4    0.56    0.10
  -4  -2   4    0.64    0.10
  -4   2   4    0.67    0.07
  -4   2   4    0.73    0.08
   4   2  -4    0.66    0.10
   4   2  -4    0.69    0.10
   4   2  -4    0.64    0.08
   3  -2  -4    0.36    0.05
  -3  -2   4    0.31    0.07
  -3  -2   4    0.33    0.08
   3  -2  -4    0.42    0.06
  -3   2   4    0.28    0.05
   3   2  -4    0.27    0.07
   3   2  -4    0.20    0.06
   3   2  -4    0.39    0.08
  -3   2   4    0.31    0.05
  -2  -2   4    3.15    0.16
   2  -2  -4    3.23    0.14
  -2  -2   4    3.11    0.18
   2   2  -4    3.40    0.16
  -2   2   4    3.19    0.14
   2   2  -4    3.30    0.15
  -2   2   4    3.31    0.14
   2   2  -4    2.99    0.17
   1  -2  -4   29.03    0.85
   1  -2  -4   29.27    0.85
  -1  -2   4   26.88    0.85
  -1  -2   4   28.34    0.98
  -1   2   4   27.00    0.85
   1   2  -4   28.26    0.85
  -1   2   4   28.69    0.85
   1   2  -4   28.68    0.99
   1   2  -4   29.22    0.85
   0  -2   4    6.74    0.23
   0  -2  -4    7.16    0.25
   0  -2  -4    6.88    0.25
   0  -2   4    6.80    0.27
   0  -2  -4    7.26    0.23
   0   2   4    7.07    0.25
   0   2  -4    7.28    0.23
   0   2  -4    6.84    0.27
   0   2   4    7.09    0.25
   0   2  -4    7.26    0.23
   1  -2   4    0.39    0.05
   1  -2   4    0.45    0.05
   1  -2   4    0.52    0.04
  -1  -2  -4    0.35    0.06
  -1  -2  -4    0.38    0.06
   1  -2   4    0.45    0.04
   1   2   4    0.31    0.06
   1   2   4    0.38    0.07
   1   2   4    0.34    0.05
  -1   2  -4    0.40    0.04
  -1   2  -4    0.34    0.05
  -1   2  -4    0.39    0.06
  -2  -2  -4    0.09    0.06
   2  -2   4    0.18    0.02
   2  -2   4    0.17    0.02
   2  -2   4    0.11    0.05
  -2  -2  -4    0.09    0.06
   2   2   4    0.17    0.05
   2   2   4    0.09    0.06
  -2   2  -4    0.18    0.02
   2   2   4    0.12    0.07
  -3  -2  -4    7.15    0.30
   3  -2   4    7.46    0.22
   3  -2   4    7.65    0.22
  -3  -2  -4    7.34    0.29
   3  -2   4    7.51    0.27
   3   2   4    7.20    0.29
   3   2   4    7.52    0.27
   3   2   4    7.34    0.29
  -3   2  -4    7.08    0.22
  -4  -2  -4   -0.09    0.08
  -4  -2  -4   -0.08    0.07
   4  -2   4    0.08    0.03
   4  -2   4    0.08    0.03
  -4   2  -4    0.07    0.04
   4   2   4   -0.08    0.09
   4   2   4   -0.12    0.07
  -5  -2  -4    3.83    0.23
   5  -2   4    3.60    0.15
   5  -2   4    3.62    0.15
  -5  -2  -4    3.47    0.22
  -5  -2  -4    3.88    0.26
  -5   2  -4    3.88    0.16
   5   2   4    3.97    0.24
  -6  -2  -4    0.96    0.14
   6  -2   4    1.20    0.12
  -6  -2  -4    1.57    0.21
   6  -2   4    1.20    0.10
  -6  -2  -4    0.97    0.13
  -6   2  -4    1.20    0.12
   6   2   4    1.13    0.16
  -7  -2  -4   -0.23    0.11
  -7  -2  -4    0.09    0.13
   7   2   4   -0.29    0.12
  -7   2  -4   -0.16    0.07
  -8  -2  -4    0.69    0.16
  -8  -2  -4    0.46    0.15
   8   2   4    0.40    0.16
  -8   2  -4    0.34    0.09
  -8  -3   4    0.01    0.12
  -8  -3   4    0.12    0.16
   8   3  -4    0.12    0.15
  -8   3   4    0.08    0.09
  -7  -3   4   -0.06    0.11
  -7  -3   4   -0.12    0.14
  -7   3   4    0.01    0.08
   7   3  -4    0.05    0.13
  -6  -3   4   -0.19    0.10
  -6  -3   4   -0.10    0.13
   6  -3  -4    0.16    0.07
  -6   3   4    0.04    0.05
  -6   3   4    0.19    0.07
   6   3  -4   -0.07    0.11
  -5  -3   4    1.03    0.16
  -5  -3   4    1.50    0.19
   5  -3  -4    1.53    0.13
   5  -3  -4    1.41    0.11
  -5   3   4    1.66    0.13
  -5   3   4    1.15    0.11
   5   3  -4    1.17    0.14
  -4  -3   4   17.72    0.62
  -4  -3   4   18.40    0.71
   4  -3  -4   17.76    0.66
   4  -3  -4   18.85    0.58
  -4   3   4   18.57    0.58
   4   3  -4   18.82    0.63
   4   3  -4   18.27    0.61
  -4   3   4   18.50    0.58
   3  -3  -4    9.95    0.33
  -3  -3   4   10.19    0.37
  -3  -3   4   10.34    0.43
  -3   3   4   10.06    0.34
   3   3  -4    9.48    0.42
   3   3  -4   10.06    0.37
  -3   3   4   10.03    0.33
   3   3  -4    9.63    0.36
   2  -3  -4    0.29    0.05
  -2  -3   4    0.24    0.09
   2  -3  -4    0.26    0.05
  -2  -3   4    0.30    0.07
   2   3  -4    0.30    0.08
   2   3  -4    0.27    0.06
  -2   3   4    0.28    0.06
   2   3  -4    0.29    0.07
  -2   3   4    0.22    0.06
  -1  -3   4    2.26    0.15
   1  -3  -4    2.37    0.13
  -1  -3   4    2.14    0.13
   1  -3  -4    2.12    0.12
   1   3  -4    2.11    0.14
   1   3  -4    2.26    0.12
   1   3  -4    2.02    0.13
  -1   3   4    2.16    0.13
  -1   3   4    2.41    0.13
   0  -3   4    0.01    0.06
   0  -3  -4    0.06    0.05
   0  -3  -4    0.03    0.03
   0  -3  -4    0.04    0.05
   0  -3   4   -0.02    0.04
   0   3  -4   -0.03    0.04
   0   3   4    0.03    0.06
   0   3  -4    0.01    0.03
   0   3   4    0.09    0.05
   0   3  -4    0.02    0.03
  -1  -3  -4   14.77    0.48
   1  -3   4   13.94    0.51
   1  -3   4   14.27    0.43
  -1  -3  -4   13.94    0.47
   1   3   4   14.12    0.48
  -1   3  -4   14.35    0.43
   1   3   4   13.90    0.48
  -1   3  -4   14.44    0.43
   2  -3   4    0.86    0.07
  -2  -3  -4    0.72    0.09
  -2  -3  -4    0.71    0.09
   2  -3   4    0.88    0.09
   2   3   4    0.79    0.09
   2   3   4    0.77    0.10
   2   3   4    0.75    0.10
   3  -3   4    0.06    0.05
  -3  -3  -4   -0.06    0.07
  -3  -3  -4    0.01    0.07
   3   3   4    0.01    0.08
   3   3   4   -0.07    0.07
   3   3   4    0.02    0.05
  -4  -3  -4    2.15    0.17
  -4  -3  -4    2.02    0.20
   4  -3   4    1.84    0.16
   4   3   4    2.07    0.21
   4   3   4    2.29    0.18
   4   3   4    1.60    0.17
  -5  -3  -4    5.37    0.32
   5  -3   4    4.16    0.26
  -5  -3  -4    4.86    0.28
   5   3   4    5.10    0.30
  -6  -3  -4    5.46    0.36
  -6  -3  -4    4.85    0.32
   6   3   4    5.42    0.34
  -7  -3  -4    4.52    0.34
  -7  -3  -4    3.76    0.29
   7   3   4    3.96    0.31
  -8  -3  -4    0.76    0.18
  -8  -3  -4    0.52    0.15
   8   3   4    0.71    0.18
  -8  -4   4   -0.01    0.14
  -8  -4   4    0.07    0.17
   8   4  -4   -0.02    0.16
  -8   4   4   -0.02    0.08
  -7  -4   4    0.52    0.14
  -7  -4   4    0.81    0.19
  -7   4   4    0.63    0.09
   7   4  -4    0.81    0.16
  -6  -4   4    2.24    0.28
  -6  -4   4    2.44    0.23
   6   4  -4    2.09    0.23
  -6   4   4    2.13    0.15
   5  -4  -4    0.45    0.08
  -5  -4   4    0.29    0.12
  -5  -4   4    0.12    0.15
  -5   4   4    0.43    0.07
  -5   4   4    0.74    0.09
   5   4  -4    0.44    0.13
   4  -4  -4    2.33    0.13
  -4  -4   4    2.09    0.20
  -4  -4   4    1.99    0.21
  -4   4   4    2.47    0.14
   4   4  -4    1.81    0.21
   4   4  -4    2.27    0.18
  -4   4   4    2.44    0.14
  -3  -4   4    0.35    0.14
   3  -4  -4    0.75    0.10
  -3  -4   4    0.59    0.10
   3   4  -4    0.64    0.09
   3   4  -4    0.69    0.11
  -3   4   4    0.73    0.08
  -3   4   4    0.62    0.07
   2  -4  -4    0.00    0.05
   2  -4  -4   -0.01    0.05
  -2  -4   4   -0.12    0.07
  -2   4   4   -0.02    0.05
   2   4  -4   -0.04    0.06
  -2   4   4   -0.05    0.06
   2   4  -4   -0.13    0.07
   1  -4  -4    2.54    0.15
   1  -4  -4    2.55    0.15
   1  -4  -4    2.58    0.10
  -1  -4   4    2.43    0.15
  -1  -4   4    2.48    0.19
   1   4  -4    2.62    0.10
  -1   4   4    2.55    0.15
   1   4  -4    2.22    0.16
  -1   4   4    2.56    0.16
   1   4  -4    2.68    0.14
   0  -4  -4    0.36    0.07
   0  -4   4    0.18    0.06
   0  -4  -4    0.30    0.07
   0  -4   4    0.36    0.09
   0   4  -4    0.27    0.05
   0   4   4    0.26    0.08
   0   4  -4    0.24    0.06
   0   4   4    0.34    0.08
  -1  -4  -4   12.77    0.47
  -1  -4  -4   13.80    0.47
   1  -4   4   13.50    0.50
   1  -4   4   13.49    0.42
  -1   4  -4   13.62    0.42
  -1   4  -4   13.42    0.41
   1   4   4   13.47    0.47
   1   4   4   13.71    0.47
   2  -4   4    7.72    0.31
  -2  -4  -4    7.77    0.33
   2   4   4    8.32    0.33
   2   4   4    8.37    0.34
   3  -4   4   -0.02    0.03
  -3  -4  -4    0.03    0.09
   3  -4   4    0.08    0.06
   3   4   4    0.03    0.09
   3   4   4   -0.01    0.10
   3   4   4    0.06    0.06
  -4  -4  -4    1.37    0.16
  -4  -4  -4    1.51    0.19
   4  -4   4    1.13    0.11
   4   4   4    1.18    0.16
   4   4   4    1.11    0.11
  -5  -4  -4    0.04    0.10
   5  -4   4   -0.02    0.08
  -5  -4  -4   -0.13    0.14
   5   4   4    0.08    0.12
   5   4   4    0.06    0.08
  -6  -4  -4    0.11    0.12
  -6  -4  -4    0.08    0.16
   6  -4   4    0.03    0.09
   6   4   4   -0.04    0.09
   6   4   4    0.09    0.14
  -7  -4  -4    1.25    0.22
  -7  -4  -4    1.10    0.18
   7  -4   4    1.19    0.16
   7   4   4    1.11    0.16
   7   4   4    1.31    0.20
  -7  -5   4    0.87    0.22
  -7  -5   4    0.95    0.18
  -6  -5   4    0.61    0.19
  -6  -5   4    0.31    0.14
  -6   5   4    0.50    0.07
   6   5  -4    0.44    0.15
  -5  -5   4    0.27    0.12
  -5  -5   4    0.49    0.17
   5   5  -4    0.42    0.14
  -5   5   4    0.24    0.07
  -4  -5   4    0.07    0.14
  -4  -5   4    0.01    0.10
   4   5  -4   -0.15    0.07
   4   5  -4   -0.19    0.10
  -4   5   4   -0.07    0.06
  -3  -5   4    0.32    0.10
  -3  -5   4    0.31    0.14
   3   5  -4    0.35    0.12
   3   5  -4    0.35    0.09
  -3   5   4    0.36    0.07
  -3   5   4    0.39    0.07
   2  -5  -4    2.88    0.16
  -2  -5   4    2.94    0.20
  -2  -5   4    2.56    0.26
   2   5  -4    3.25    0.22
  -2   5   4    3.11    0.17
  -2   5   4    3.21    0.17
   2   5  -4    3.11    0.18
  -1  -5   4    9.12    0.34
  -1  -5   4    8.11    0.42
   1  -5  -4    8.95    0.33
   1   5  -4    9.29    0.34
  -1   5   4    8.99    0.34
  -1   5   4    8.81    0.34
   1   5  -4    8.36    0.32
   0  -5   4   10.49    0.36
   0  -5   4   10.04    0.45
   0  -5  -4    9.56    0.38
   0   5   4    9.76    0.39
   0   5  -4   11.06    0.37
   0   5  -4   10.25    0.35
   0   5   4   10.15    0.39
  -1  -5  -4    1.08    0.13
   1  -5   4    1.24    0.14
   1  -5   4    1.75    0.10
   1   5   4    1.32    0.15
  -1   5  -4    1.92    0.11
  -1   5  -4    1.74    0.09
   1   5   4    1.31    0.17
  -2  -5  -4   -0.19    0.09
   2  -5   4   -0.04    0.07
   2   5   4   -0.09    0.09
   2   5   4   -0.11    0.11
   3  -5   4    2.99    0.14
  -3  -5  -4    2.90    0.23
   3   5   4    2.64    0.25
   4  -5   4    0.01    0.06
  -4  -5  -4    0.22    0.15
  -4  -5  -4    0.19    0.11
   4   5   4    0.06    0.06
   4   5   4    0.05    0.12
  -5  -5  -4    0.21    0.17
  -5  -5  -4    0.16    0.12
   5  -5   4    0.00    0.08
   5   5   4    0.06    0.08
   5   5   4    0.12    0.14
   6  -5   4    0.04    0.10
  -6  -5  -4    0.17    0.14
  -6  -5  -4    0.05    0.18
   6   5   4    0.14    0.09
   6   5   4    0.46    0.16
  -5  -6   4    1.10    0.21
  -5  -6   4    0.72    0.16
   5   6  -4    0.65    0.17
  -4  -6   4    0.94    0.15
  -4   6   4    1.13    0.12
   4   6  -4    1.08    0.17
  -3  -6   4    4.70    0.34
  -3  -6   4    3.58    0.26
   3   6  -4    3.95    0.27
  -3   6   4    3.64    0.20
  -2  -6   4    4.20    0.32
  -2   6   4    3.49    0.21
   2   6  -4    3.85    0.26
  -1  -6   4    9.21    0.44
   1   6  -4    7.89    0.34
  -1   6   4    8.28    0.34
   0  -6  -4    0.05    0.08
   0  -6   4    0.01    0.12
   0   6  -4    0.04    0.07
   0   6   4   -0.01    0.09
   1  -6   4   -0.13    0.10
  -1  -6  -4    0.04    0.08
  -1   6  -4    0.13    0.05
   1   6   4    0.04    0.10
  -2  -6  -4   -0.02    0.14
  -2  -6  -4   -0.05    0.09
   2  -6   4   -0.06    0.09
   2   6   4   -0.02    0.12
  -3  -6  -4    0.13    0.16
  -3  -6  -4   -0.13    0.10
   3   6   4   -0.12    0.12
  -4  -6  -4   -0.17    0.10
  -4  -6  -4    0.26    0.18
   4   6   4   -0.20    0.13
  -5  -6  -4    0.09    0.13
  -5  -6  -4    0.37    0.21
  -3  -7   4    0.97    0.20
  -3   7   4    0.44    0.08
   3   7  -4    0.78    0.15
  -2  -7   4    0.21    0.15
   2   7  -4    0.07    0.10
  -2   7   4    0.05    0.08
  -1  -7   4    0.27    0.14
   1   7  -4    0.20    0.09
  -1   7   4    0.13    0.09
   0  -7   4    0.17    0.14
   0   7  -4    0.03    0.08
   0   7   4    0.06    0.11
  -1  -7  -4    1.41    0.23
   1   7   4    1.28    0.16
  -2  -7  -4    0.51    0.20
   2   7   4    0.52    0.15
  -9   0   5   -0.08    0.12
  -9   0   5   -0.04    0.12
   8   0  -5   -0.09    0.11
  -8   0   5   -0.02    0.12
  -8   0   5    0.02    0.11
  -7   0   5    0.01    0.10
   7   0  -5   -0.05    0.10
  -7   0   5   -0.03    0.09
  -6   0   5   -0.06    0.07
  -6   0   5   -0.09    0.08
   6   0  -5   -0.13    0.07
   6   0  -5    0.01    0.07
   5   0  -5    0.00    0.06
  -5   0   5   -0.01    0.07
  -5   0   5   -0.01    0.07
   5   0  -5   -0.05    0.05
  -4   0   5    0.06    0.06
  -4   0   5    0.00    0.06
   4   0  -5   -0.04    0.05
   4   0  -5    0.06    0.06
   3   0  -5   -0.03    0.04
   3   0  -5   -0.05    0.04
  -3   0   5   -0.03    0.05
  -3   0   5   -0.09    0.05
   2   0  -5    0.00    0.04
   2   0  -5    0.01    0.04
  -2   0   5   -0.01    0.05
  -2   0   5    0.02    0.04
  -1   0   5   -0.01    0.03
   1   0  -5   -0.01    0.03
   1   0  -5   -0.01    0.03
  -1   0   5    0.01    0.04
   0   0  -5    0.01    0.03
   0   0  -5   -0.01    0.03
   0   0   5   -0.02    0.03
   0   0   5   -0.02    0.03
  -1   0  -5   -0.03    0.04
   1   0   5   -0.05    0.04
  -1   0  -5   -0.04    0.04
  -1   0  -5   -0.03    0.04
   1   0   5   -0.07    0.04
   1   0   5   -0.06    0.04
   2   0   5   -0.11    0.04
   2   0   5   -0.12    0.05
  -2   0  -5   -0.08    0.04
   2   0   5   -0.06    0.04
  -2   0  -5   -0.05    0.04
  -3   0  -5   -0.05    0.05
   3   0   5   -0.11    0.05
  -3   0  -5   -0.03    0.05
   3   0   5   -0.06    0.06
   3   0   5   -0.05    0.05
  -4   0  -5   -0.10    0.06
   4   0   5   -0.07    0.06
   4   0   5   -0.07    0.07
  -4   0  -5   -0.10    0.06
  -5   0  -5   -0.07    0.06
  -5   0  -5    0.00    0.07
   5   0   5   -0.06    0.06
  -5   0  -5   -0.02    0.07
   5   0   5   -0.08    0.07
   6   0   5    0.03    0.08
  -6   0  -5   -0.02    0.07
  -6   0  -5   -0.02    0.07
  -6   0  -5    0.02    0.08
  -7   0  -5    0.04    0.07
   7   0   5   -0.01    0.10
  -7   0  -5    0.04    0.09
  -7   0  -5    0.08    0.08
  -8   0  -5    0.01    0.08
  -8   0  -5   -0.03    0.10
  -9   0  -5   -0.13    0.11
  -9  -1   5    0.35    0.15
  -9  -1   5    0.37    0.15
   9   1  -5    0.36    0.15
  -9   1   5    0.09    0.12
   8  -1  -5    6.60    0.35
  -8  -1   5    7.05    0.38
  -8  -1   5    7.61    0.38
  -8   1   5    6.76    0.35
   8   1  -5    7.58    0.38
   7  -1  -5    0.66    0.12
  -7  -1   5    0.88    0.14
   7  -1  -5    0.61    0.11
  -7  -1   5    0.59    0.13
   7   1  -5    0.77    0.14
  -7   1   5    0.79    0.12
   6  -1  -5    8.75    0.39
  -6  -1   5    9.26    0.38
   6  -1  -5    9.34    0.36
  -6  -1   5    9.27    0.41
   6   1  -5    9.22    0.38
  -6   1   5    9.87    0.36
  -5  -1   5    0.16    0.08
   5  -1  -5    0.29    0.07
  -5  -1   5    0.27    0.09
   5  -1  -5    0.26    0.06
   5   1  -5    0.33    0.07
   5   1  -5    0.29    0.08
  -5   1   5    0.18    0.07
   5   1  -5    0.15    0.08
   4  -1  -5    5.61    0.21
  -4  -1   5    5.62    0.24
  -4  -1   5    5.52    0.26
   4  -1  -5    5.39    0.24
  -4   1   5    5.40    0.22
   4   1  -5    5.49    0.26
   4   1  -5    5.78    0.25
   4   1  -5    5.59    0.22
   3  -1  -5   28.20    0.82
   3  -1  -5   27.31    0.95
  -3  -1   5   26.67    0.95
  -3  -1   5   26.74    0.83
  -3   1   5   27.24    0.82
   3   1  -5   26.86    0.96
   3   1  -5   27.43    0.83
  -2  -1   5    2.94    0.14
   2  -1  -5    2.76    0.14
   2  -1  -5    3.06    0.13
  -2  -1   5    2.87    0.15
   2   1  -5    2.84    0.15
  -2   1   5    2.74    0.13
   2   1  -5    2.93    0.13
  -2   1   5    3.05    0.13
   1  -1  -5   12.49    0.40
  -1  -1   5   12.61    0.40
  -1  -1   5   12.98    0.46
   1  -1  -5   12.88    0.40
  -1   1   5   12.61    0.40
   1   1  -5   12.67    0.46
  -1   1   5   12.42    0.40
   1   1  -5   12.81    0.40
   0  -1   5  304.99    8.89
   0  -1   5  299.47    8.85
   0  -1   5  302.59   10.26
   0  -1  -5  309.76    8.89
   0  -1  -5  297.01    8.88
   0   1   5  314.94    8.89
   0   1  -5  298.80    8.86
   0   1  -5  306.89   10.30
   0   1   5  312.25    8.86
   1  -1   5   48.84    1.47
   1  -1   5   50.80    1.47
   1  -1   5   51.35    1.44
  -1  -1  -5   51.64    1.44
  -1  -1  -5   48.07    1.49
  -1  -1  -5   50.60    1.49
   1   1   5   51.37    1.49
  -1   1  -5   50.75    1.73
  -1   1  -5   50.67    1.47
  -1   1  -5   49.66    1.47
  -1   1  -5   51.59    1.44
   1   1   5   49.01    1.49
   1   1   5   51.16    1.44
   2  -1   5    0.06    0.03
   2  -1   5    0.04    0.05
  -2  -1  -5   -0.03    0.06
   2  -1   5    0.06    0.04
  -2  -1  -5   -0.01    0.05
   2   1   5   -0.01    0.05
  -2   1  -5    0.06    0.04
   2   1   5   -0.06    0.06
  -2   1  -5    0.10    0.04
   2   1   5    0.04    0.05
  -3  -1  -5    0.81    0.09
   3  -1   5    1.08    0.11
   3  -1   5    1.17    0.08
   3  -1   5    1.12    0.08
  -3  -1  -5    1.03    0.11
   3   1   5    0.92    0.12
  -3   1  -5    1.24    0.09
  -3   1  -5    1.24    0.09
   3   1   5    1.01    0.12
   3   1   5    1.04    0.12
  -4  -1  -5   -0.04    0.07
   4  -1   5    0.02    0.05
  -4  -1  -5    0.06    0.07
   4  -1   5    0.08    0.05
   4  -1   5    0.04    0.07
  -4   1  -5    0.05    0.05
  -4   1  -5    0.04    0.05
   4   1   5   -0.02    0.07
   4   1   5    0.03    0.08
   4   1   5    0.00    0.06
  -4   1  -5   -0.01    0.04
  -5  -1  -5   -0.07    0.09
  -5  -1  -5    0.06    0.08
  -5  -1  -5   -0.01    0.08
   5  -1   5    0.01    0.05
   5  -1   5    0.03    0.06
  -5   1  -5    0.02    0.04
  -5   1  -5   -0.04    0.05
   5   1   5   -0.02    0.09
  -5   1  -5    0.00    0.06
  -6  -1  -5   -0.01    0.09
   6  -1   5    0.04    0.07
  -6  -1  -5    0.10    0.10
  -6  -1  -5   -0.05    0.08
   6   1   5    0.02    0.10
  -6   1  -5    0.06    0.04
  -6   1  -5    0.09    0.06
  -6   1  -5    0.03    0.07
  -7  -1  -5   -0.03    0.09
  -7  -1  -5   -0.02    0.10
  -7  -1  -5    0.04    0.10
  -7   1  -5    0.03    0.08
   7   1   5   -0.06    0.11
  -7   1  -5    0.02    0.05
  -8  -1  -5    0.11    0.11
  -8  -1  -5    0.05    0.11
  -8   1  -5   -0.03    0.09
   8   1   5    0.14    0.13
  -9   1  -5   -0.18    0.10
  -9  -2   5    0.22    0.16
  -9  -2   5    0.27    0.16
   9   2  -5    0.30    0.17
  -9   2   5    0.14    0.12
  -8  -2   5    9.35    0.46
  -8  -2   5    8.58    0.43
   8   2  -5    8.99    0.45
  -8   2   5    8.56    0.38
   7  -2  -5    0.40    0.10
  -7  -2   5    0.50    0.15
  -7  -2   5    0.25    0.13
  -7   2   5    0.28    0.10
   7   2  -5    0.23    0.13
  -6  -2   5   29.51    0.96
   6  -2  -5   27.56    1.05
  -6  -2   5   30.24    1.09
   6   2  -5   30.43    0.97
  -6   2   5   30.36    0.93
  -5  -2   5    8.19    0.37
  -5  -2   5    8.38    0.34
   5  -2  -5    8.44    0.30
   5  -2  -5    7.92    0.34
   5   2  -5    8.27    0.33
  -5   2   5    8.67    0.31
   5   2  -5    8.50    0.35
   4  -2  -5    6.62    0.28
  -4  -2   5    6.88    0.32
  -4  -2   5    7.20    0.29
   4  -2  -5    7.10    0.25
   4   2  -5    7.12    0.27
   4   2  -5    6.78    0.32
  -4   2   5    7.00    0.26
   4   2  -5    6.76    0.29
  -4   2   5    6.87    0.25
  -3  -2   5   20.03    0.65
  -3  -2   5   19.98    0.74
   3  -2  -5   20.48    0.63
   3   2  -5   21.08    0.65
  -3   2   5   20.97    0.63
   3   2  -5   20.35    0.75
  -3   2   5   19.61    0.63
   3   2  -5   21.00    0.64
   2  -2  -5   57.65    1.63
  -2  -2   5   54.32    1.88
  -2  -2   5   53.18    1.63
  -2   2   5   57.54    1.63
   2   2  -5   55.63    1.63
   2   2  -5   53.87    1.63
   2   2  -5   53.83    1.89
  -2   2   5   55.83    1.62
   1  -2  -5  105.50    2.98
  -1  -2   5  100.75    3.43
   1  -2  -5   99.11    2.97
  -1  -2   5  104.55    2.97
  -1   2   5  103.42    2.97
   1   2  -5  100.66    3.44
   1   2  -5  103.68    2.96
  -1   2   5  100.25    2.97
   0  -2  -5    1.44    0.09
   0  -2  -5    1.56    0.11
   0  -2  -5    1.62    0.12
   0  -2   5    1.74    0.09
   0  -2   5    1.72    0.11
   0   2   5    1.53    0.11
   0   2  -5    1.63    0.08
   0   2  -5    1.43    0.09
   0   2  -5    1.52    0.10
   0   2   5    1.64    0.12
  -1  -2  -5    1.46    0.11
   1  -2   5    1.55    0.08
   1  -2   5    1.75    0.09
  -1  -2  -5    1.60    0.13
   1  -2   5    1.72    0.08
  -1  -2  -5    1.51    0.09
   1   2   5    1.43    0.13
  -1   2  -5    1.56    0.09
   1   2   5    1.47    0.12
  -1   2  -5    1.53    0.10
  -2  -2  -5   43.46    1.29
   2  -2   5   43.23    1.24
   2  -2   5   42.31    1.24
  -2  -2  -5   42.42    1.29
   2  -2   5   42.64    1.24
   2   2   5   42.69    1.29
   2   2   5   43.72    1.29
  -2   2  -5   42.25    1.44
  -2   2  -5   41.85    1.24
   2   2   5   43.40    1.24
  -3  -2  -5   -0.06    0.06
   3  -2   5    0.05    0.02
   3  -2   5    0.00    0.03
   3  -2   5   -0.07    0.06
  -3  -2  -5   -0.13    0.06
  -3   2  -5    0.04    0.03
  -3   2  -5   -0.06    0.03
   3   2   5   -0.08    0.07
   3   2   5   -0.12    0.06
   3   2   5   -0.07    0.08
   4  -2   5    0.47    0.06
   4  -2   5    0.39    0.08
  -4  -2  -5    0.31    0.08
  -4  -2  -5    0.26    0.09
   4  -2   5    0.41    0.04
   4   2   5    0.32    0.08
   4   2   5    0.24    0.10
   4   2   5    0.24    0.09
  -4   2  -5    0.48    0.06
  -4   2  -5    0.42    0.04
   5  -2   5   -0.05    0.04
  -5  -2  -5   -0.18    0.08
   5  -2   5   -0.04    0.04
  -5  -2  -5   -0.09    0.09
   5  -2   5   -0.04    0.09
  -5  -2  -5   -0.16    0.11
   5   2   5    0.00    0.09
   5   2   5   -0.03    0.10
  -5   2  -5   -0.03    0.05
   6  -2   5    0.92    0.11
   6  -2   5    1.01    0.10
  -6  -2  -5    1.01    0.14
  -6  -2  -5    1.13    0.17
  -6  -2  -5    0.81    0.13
   6   2   5    0.96    0.15
  -6   2  -5    0.99    0.09
  -7  -2  -5    0.04    0.14
  -7  -2  -5   -0.16    0.12
   7   2   5    0.08    0.14
  -8  -2  -5    0.08    0.13
   8  -2   5   -0.16    0.13
  -8  -2  -5   -0.04    0.13
   8   2   5    0.04    0.14
  -8   2  -5   -0.02    0.08
  -8  -3   5    0.36    0.14
  -8  -3   5    0.38    0.16
  -8   3   5    0.26    0.10
   8   3  -5    0.32    0.15
  -7  -3   5    0.16    0.15
  -7  -3   5    0.34    0.13
   7   3  -5    0.38    0.14
  -7   3   5    0.31    0.09
   6  -3  -5    3.62    0.21
  -6  -3   5    4.22    0.30
  -6  -3   5    3.58    0.25
   6   3  -5    3.76    0.27
  -6   3   5    3.33    0.18
  -6   3   5    3.96    0.21
  -5  -3   5   13.24    0.49
   5  -3  -5   12.92    0.50
  -5  -3   5   13.25    0.55
  -5   3   5   12.77    0.44
   5   3  -5   13.25    0.50
  -5   3   5   13.48    0.44
  -4  -3   5    7.68    0.33
  -4  -3   5    8.03    0.37
   4  -3  -5    7.19    0.32
   4  -3  -5    7.68    0.28
  -4   3   5    7.60    0.28
   4   3  -5    7.72    0.33
   4   3  -5    7.62    0.31
  -4   3   5    7.56    0.28
   3  -3  -5   34.72    1.11
  -3  -3   5   36.72    1.13
  -3  -3   5   37.64    1.30
   3   3  -5   37.26    1.12
  -3   3   5   37.92    1.11
   3   3  -5   38.71    1.14
  -3   3   5   35.80    1.11
   3   3  -5   36.27    1.31
  -2  -3   5    8.85    0.33
  -2  -3   5    8.87    0.38
   2  -3  -5    9.57    0.32
   2  -3  -5    8.98    0.31
  -2   3   5    8.84    0.31
  -2   3   5    9.23    0.32
   2   3  -5    8.70    0.38
   2   3  -5    9.02    0.33
   2   3  -5    8.89    0.32
   1  -3  -5    3.77    0.17
   1  -3  -5    3.75    0.17
  -1  -3   5    3.73    0.17
  -1  -3   5    3.65    0.19
   1   3  -5    3.77    0.17
   1   3  -5    3.62    0.19
  -1   3   5    3.57    0.17
  -1   3   5    3.46    0.17
   1   3  -5    3.75    0.16
   0  -3   5    3.67    0.15
   0  -3  -5    3.86    0.14
   0  -3  -5    3.85    0.18
   0  -3  -5    3.79    0.18
   0  -3   5    3.78    0.18
   0   3   5    4.10    0.18
   0   3  -5    3.75    0.18
   0   3  -5    3.65    0.16
   0   3   5    3.76    0.18
   0   3  -5    3.81    0.15
   0   3  -5    3.69    0.15
  -1  -3  -5    2.98    0.16
   1  -3   5    2.91    0.12
  -1  -3  -5    3.04    0.17
   1  -3   5    2.82    0.15
   1   3   5    3.36    0.18
  -1   3  -5    3.05    0.11
  -1   3  -5    2.96    0.12
   1   3   5    3.12    0.17
   2  -3   5    1.45    0.11
  -2  -3  -5    1.26    0.15
  -2  -3  -5    1.21    0.12
   2  -3   5    1.26    0.08
   2   3   5    1.26    0.13
   2   3   5    1.24    0.15
   2   3   5    1.35    0.11
  -3  -3  -5    2.18    0.16
   3  -3   5    2.06    0.14
  -3  -3  -5    2.33    0.19
   3   3   5    2.14    0.17
   3   3   5    2.15    0.20
   3   3   5    2.19    0.15
   4  -3   5    1.47    0.17
  -4  -3  -5    2.13    0.21
   4   3   5    1.54    0.14
   4   3   5    1.75    0.22
  -5  -3  -5    0.82    0.14
   5  -3   5    0.58    0.12
  -5  -3  -5    1.18    0.18
   5   3   5    0.49    0.12
   5   3   5    0.74    0.15
  -6  -3  -5    1.14    0.16
   6  -3   5    1.08    0.14
  -6  -3  -5    1.22    0.20
   6   3   5    1.28    0.18
   6   3   5    1.01    0.14
  -7  -3  -5    0.24    0.14
   7  -3   5    0.43    0.13
  -7  -3  -5    0.11    0.17
   7   3   5    0.34    0.16
   7   3   5    0.30    0.13
   8  -3   5    0.13    0.14
  -8  -3  -5    0.49    0.18
   8   3   5    0.32    0.16
   8   3   5    0.16    0.14
  -8  -4   5   -0.04    0.18
  -8  -4   5   -0.01    0.13
  -8   4   5   -0.01    0.08
   8   4  -5    0.04    0.15
  -7  -4   5    1.07    0.17
  -7  -4   5    0.89    0.20
   7   4  -5    1.00    0.18
  -7   4   5    1.16    0.15
  -6  -4   5    0.09    0.16
  -6  -4   5    0.04    0.11
   6   4  -5    0.03    0.12
  -6   4   5    0.03    0.07
   5  -4  -5    5.04    0.25
  -5  -4   5    5.67    0.30
  -5  -4   5    5.14    0.33
   5   4  -5    5.64    0.31
  -5   4   5    5.34    0.23
  -5   4   5    5.34    0.22
  -4  -4   5    1.16    0.14
  -4  -4   5    0.75    0.16
  -4   4   5    1.33    0.12
   4   4  -5    1.03    0.14
  -4   4   5    1.17    0.12
   4   4  -5    0.93    0.11
  -3  -4   5    1.62    0.21
   3  -4  -5    1.92    0.13
  -3  -4   5    1.84    0.17
  -3   4   5    1.81    0.14
   3   4  -5    1.90    0.18
   3   4  -5    1.81    0.15
  -3   4   5    1.80    0.14
  -2  -4   5   10.48    0.44
   2  -4  -5   10.50    0.37
   2  -4  -5   10.31    0.36
  -2  -4   5   10.04    0.38
   2   4  -5   10.79    0.37
  -2   4   5   10.37    0.37
   2   4  -5   10.43    0.38
  -2   4   5   10.54    0.37
   1  -4  -5    0.20    0.04
   1  -4  -5    0.13    0.06
   1  -4  -5    0.17    0.06
  -1  -4   5    0.10    0.06
  -1  -4   5    0.18    0.09
   1   4  -5    0.17    0.07
   1   4  -5    0.15    0.05
   1   4  -5    0.18    0.04
  -1   4   5    0.07    0.07
  -1   4   5    0.07    0.06
   0  -4   5    2.47    0.14
   0  -4  -5    2.38    0.16
   0  -4  -5    2.54    0.16
   0  -4   5    2.77    0.17
   0   4   5    2.51    0.17
   0   4  -5    2.50    0.14
   0   4  -5    2.51    0.12
   0   4   5    2.49    0.17
   0   4  -5    2.60    0.11
   1  -4   5    7.97    0.27
   1  -4   5    8.07    0.33
  -1  -4  -5    8.08    0.33
  -1   4  -5    8.15    0.27
   1   4   5    8.45    0.34
   1   4   5    8.63    0.33
  -1   4  -5    8.11    0.26
   2  -4   5    5.68    0.25
  -2  -4  -5    6.28    0.29
   2   4   5    6.65    0.30
   2   4   5    6.43    0.29
  -3  -4  -5   15.42    0.55
   3  -4   5   14.65    0.48
   3   4   5   14.88    0.48
   3   4   5   14.88    0.54
   3   4   5   15.27    0.55
   4  -4   5   -0.09    0.07
  -4  -4  -5   -0.09    0.10
   4   4   5    0.00    0.08
   4   4   5    0.02    0.12
   5  -4   5    0.10    0.09
  -5  -4  -5    0.05    0.11
  -5  -4  -5   -0.08    0.15
   5   4   5    0.19    0.13
   5   4   5    0.02    0.08
  -6  -4  -5    0.06    0.13
   6  -4   5    0.09    0.11
  -6  -4  -5    0.00    0.16
   6   4   5    0.07    0.10
   6   4   5    0.14    0.15
  -7  -4  -5    0.93    0.22
   7  -4   5    0.86    0.15
  -7  -4  -5    0.93    0.17
   7   4   5    1.00    0.19
   7   4   5    0.87    0.15
  -7  -5   5    0.02    0.13
  -6  -5   5    0.12    0.12
  -6  -5   5   -0.06    0.16
   6   5  -5    0.11    0.14
  -6   5   5    0.05    0.07
  -5  -5   5    0.18    0.11
  -5  -5   5    0.16    0.15
   5   5  -5    0.09    0.12
  -5   5   5    0.02    0.07
  -4  -5   5    0.06    0.10
  -4  -5   5    0.06    0.14
   4   5  -5    0.01    0.10
  -4   5   5   -0.05    0.06
   4   5  -5   -0.06    0.07
  -3  -5   5    0.65    0.16
  -3  -5   5    0.44    0.11
  -3   5   5    0.61    0.08
   3   5  -5    0.56    0.09
  -3   5   5    0.58    0.08
   3   5  -5    0.50    0.12
  -2  -5   5    0.04    0.13
  -2  -5   5    0.12    0.08
   2  -5  -5    0.02    0.07
  -2   5   5    0.15    0.07
   2   5  -5    0.14    0.07
   2   5  -5    0.20    0.09
  -2   5   5    0.07    0.08
  -1  -5   5   15.40    0.62
   1  -5  -5   15.29    0.52
  -1  -5   5   14.99    0.52
   1   5  -5   14.74    0.50
  -1   5   5   14.91    0.53
   1   5  -5   15.10    0.52
  -1   5   5   15.15    0.52
   0  -5  -5    5.61    0.29
   0  -5   5    6.73    0.26
   0  -5   5    6.88    0.33
   0   5   5    6.20    0.30
   0   5   5    6.28    0.30
   0   5  -5    6.75    0.26
   0   5  -5    6.22    0.24
   1  -5   5   14.99    0.56
  -1  -5  -5   13.58    0.52
   1  -5   5   14.40    0.45
   1   5   5   14.94    0.52
  -1   5  -5   14.28    0.45
  -1   5  -5   14.23    0.44
   1   5   5   14.13    0.53
   2  -5   5   -0.09    0.07
  -2  -5  -5   -0.17    0.08
   2   5   5   -0.12    0.10
   2   5   5   -0.09    0.08
  -3  -5  -5    0.40    0.11
   3   5   5    0.45    0.13
   4  -5   5    0.53    0.08
  -4  -5  -5    0.64    0.19
  -4  -5  -5    0.45    0.12
   4   5   5    0.47    0.14
   4   5   5    0.49    0.08
  -5  -5  -5    0.08    0.17
  -5  -5  -5    0.04    0.12
   5  -5   5    0.07    0.08
   5   5   5    0.11    0.14
   5   5   5    0.12    0.08
   6  -5   5    0.03    0.10
  -6  -5  -5    0.19    0.19
  -6  -5  -5    0.13    0.14
   6   5   5    0.11    0.10
   6   5   5    0.33    0.16
  -5  -6   5    0.33    0.18
  -5  -6   5   -0.02    0.12
   5   6  -5    0.02    0.14
  -5   6   5   -0.03    0.06
  -4  -6   5    0.90    0.19
   4   6  -5    0.62    0.15
  -4   6   5    0.46    0.08
  -3  -6   5   12.73    0.57
   3   6  -5   12.24    0.50
  -3   6   5   11.86    0.43
   2   6  -5    0.30    0.11
  -2   6   5    0.32    0.10
  -1  -6   5    3.62    0.28
  -1   6   5    2.81    0.21
   1   6  -5    2.80    0.21
   0  -6  -5    0.28    0.09
   0  -6   5    0.11    0.12
   0   6   5    0.34    0.11
   0   6  -5    0.35    0.08
  -1  -6  -5    0.47    0.11
   1  -6   5    0.32    0.12
  -1   6  -5    0.47    0.06
   1   6   5    0.44    0.12
  -2  -6  -5    0.06    0.10
   2   6   5    0.08    0.12
  -3  -6  -5    0.32    0.17
  -3  -6  -5    0.05    0.11
   3   6   5    0.27    0.14
  -4  -6  -5    0.13    0.17
  -4  -6  -5   -0.08    0.11
   4   6   5   -0.04    0.14
  -5  -6  -5    3.88    0.31
  -3   7   5    0.77    0.10
  -2  -7   5    0.44    0.16
  -2   7   5    0.15    0.09
   2   7  -5    0.18    0.10
  -1  -7   5    1.90    0.25
   1   7  -5    1.53    0.17
  -1   7   5    1.11    0.13
   0  -7   5    0.23    0.13
   0   7   5    0.04    0.11
   0   7  -5   -0.03    0.07
   1   7   5    0.09    0.12
  -2  -7  -5    0.19    0.18
  -9   0   6    0.28    0.14
  -9   0   6    0.22    0.14
  -8   0   6   -0.01    0.12
   8   0  -6   -0.09    0.11
  -8   0   6   -0.05    0.11
   7   0  -6    3.61    0.24
  -7   0   6    3.69    0.24
  -7   0   6    3.65    0.24
   6   0  -6    0.72    0.11
  -6   0   6    0.73    0.11
   6   0  -6    0.98    0.14
  -6   0   6    0.66    0.11
  -5   0   6   12.41    0.44
   5   0  -6   12.13    0.49
   5   0  -6   12.73    0.43
  -5   0   6   12.70    0.49
   4   0  -6   52.97    1.83
  -4   0   6   52.19    1.59
  -4   0   6   54.41    1.83
   4   0  -6   54.36    1.59
  -3   0   6   48.15    1.42
   3   0  -6   47.69    1.63
  -3   0   6   48.13    1.63
   3   0  -6   46.81    1.41
   2   0  -6   56.91    1.97
  -2   0   6   59.57    1.71
   2   0  -6   58.21    1.71
   1   0  -6  168.43    4.73
   1   0  -6  158.48    5.48
  -1   0   6  160.46    4.74
  -1   0   6  164.08    4.71
   0   0   6   62.87    1.84
   0   0  -6   61.73    1.84
   0   0   6   63.63    1.84
   0   0  -6   64.06    1.84
   1   0   6    3.74    0.16
   1   0   6    3.94    0.17
  -1   0  -6    3.80    0.16
  -1   0  -6    3.68    0.16
  -1   0  -6    3.83    0.16
   1   0   6    3.99    0.16
   2   0   6   55.78    1.63
  -2   0  -6   54.79    1.63
   2   0   6   55.45    1.63
   2   0   6   56.24    1.59
  -2   0  -6   54.14    1.63
   3   0   6   64.29    1.85
   3   0   6   63.30    1.90
  -3   0  -6   63.76    1.90
  -3   0  -6   65.23    1.90
   3   0   6   65.61    1.90
   4   0   6    8.98    0.33
  -4   0  -6    8.98    0.33
  -4   0  -6    8.97    0.33
   4   0   6    9.38    0.33
   4   0   6    8.77    0.34
  -5   0  -6    1.82    0.15
   5   0   6    1.66    0.16
  -5   0  -6    1.69    0.14
  -5   0  -6    1.73    0.15
   5   0   6    1.70    0.17
  -6   0  -6    0.38    0.09
  -6   0  -6    0.43    0.09
  -6   0  -6    0.48    0.10
   6   0   6    0.48    0.10
   6   0   6    0.43    0.12
   7   0   6    0.48    0.11
  -7   0  -6    0.36    0.11
   7   0   6    0.31    0.13
  -7   0  -6    0.39    0.09
  -8   0  -6   -0.07    0.09
   8   0   6    0.09    0.14
  -9  -1   6    2.67    0.28
  -9  -1   6    3.12    0.29
  -9   1   6    2.62    0.27
   9   1  -6    3.21    0.31
  -8  -1   6    1.06    0.17
  -8  -1   6    0.82    0.16
   8  -1  -6    0.96    0.15
   8   1  -6    0.79    0.16
  -7  -1   6    1.96    0.23
  -7  -1   6    2.05    0.22
   7  -1  -6    2.44    0.20
   7   1  -6    2.00    0.23
  -7   1   6    2.32    0.20
  -6  -1   6    1.26    0.17
  -6  -1   6    1.17    0.14
   6  -1  -6    1.15    0.15
   6   1  -6    1.05    0.13
  -6   1   6    1.52    0.17
  -5  -1   6    0.16    0.08
   5  -1  -6    0.14    0.06
   5  -1  -6    0.15    0.07
  -5  -1   6    0.11    0.08
   5   1  -6    0.14    0.07
   5   1  -6    0.00    0.07
   5   1  -6    0.01    0.08
  -5   1   6    0.07    0.07
   4  -1  -6    2.14    0.12
   4  -1  -6    2.14    0.14
  -4  -1   6    1.89    0.15
  -4  -1   6    1.88    0.15
  -4   1   6    1.90    0.13
   4   1  -6    1.92    0.14
   4   1  -6    1.91    0.13
   3  -1  -6   43.64    1.25
  -3  -1   6   41.06    1.26
  -3  -1   6   41.35    1.45
   3  -1  -6   41.90    1.44
   3   1  -6   42.29    1.45
  -3   1   6   40.71    1.25
   3   1  -6   43.64    1.26
   2  -1  -6   76.24    2.23
  -2  -1   6   77.16    2.58
  -2  -1   6   77.04    2.24
  -2   1   6   75.69    2.23
  -2   1   6   77.16    2.23
   2   1  -6   75.41    2.58
   2   1  -6   76.37    2.23
  -1  -1   6    4.40    0.19
  -1  -1   6    4.61    0.18
   1  -1  -6    4.68    0.18
   1  -1  -6    4.40    0.18
   1   1  -6    4.29    0.19
  -1   1   6    4.25    0.18
  -1   1   6    4.44    0.18
   1   1  -6    4.57    0.17
   0  -1   6   10.95    0.35
   0  -1  -6   11.21    0.36
   0  -1   6   11.25    0.35
   0  -1  -6   11.49    0.35
   0  -1  -6   10.72    0.37
   0   1   6   10.79    0.36
   0   1   6   11.30    0.37
   0   1  -6   11.07    0.35
   0   1  -6   10.96    0.40
   1  -1   6  119.51    3.38
  -1  -1  -6  115.31    3.39
  -1  -1  -6  121.84    3.28
   1  -1   6  117.99    3.37
  -1  -1  -6  112.36    3.39
  -1   1  -6  113.83    3.37
   1   1   6  113.05    3.39
  -1   1  -6  120.25    3.28
  -1   1  -6  116.63    3.98
   1   1   6  114.64    3.39
  -1   1  -6  118.80    3.38
  -2  -1  -6   17.41    0.56
  -2  -1  -6   17.43    0.56
   2  -1   6   17.70    0.54
   2  -1   6   17.33    0.53
   2  -1   6   17.67    0.54
   2   1   6   17.14    0.54
  -2   1  -6   17.70    0.53
   2   1   6   17.81    0.56
   2   1   6   17.26    0.56
  -2   1  -6   17.33    0.54
   3  -1   6    0.56    0.08
   3  -1   6    0.64    0.08
  -3  -1  -6    0.46    0.08
  -3  -1  -6    0.41    0.08
   3  -1   6    0.60    0.08
   3   1   6    0.41    0.07
  -3   1  -6    0.46    0.06
   3   1   6    0.43    0.08
  -3   1  -6    0.61    0.08
   3   1   6    0.44    0.08
  -4  -1  -6    4.32    0.21
   4  -1   6    4.03    0.18
   4  -1   6    4.17    0.21
   4  -1   6    4.30    0.18
  -4  -1  -6    4.21    0.21
   4   1   6    4.13    0.22
  -4   1  -6    4.07    0.18
   4   1   6    4.26    0.22
   4   1   6    3.90    0.21
  -4   1  -6    4.24    0.18
   5  -1   6    0.04    0.06
  -5  -1  -6   -0.06    0.07
   5  -1   6   -0.05    0.06
   5  -1   6    0.04    0.09
  -5  -1  -6    0.07    0.08
  -5  -1  -6    0.01    0.09
  -5   1  -6    0.04    0.06
  -5   1  -6   -0.01    0.04
  -5   1  -6    0.01    0.06
   5   1   6    0.01    0.09
   5   1   6    0.01    0.09
  -6  -1  -6    0.25    0.10
   6  -1   6    0.11    0.11
   6  -1   6    0.19    0.08
  -6  -1  -6    0.35    0.12
  -6  -1  -6    0.32    0.10
   6   1   6    0.17    0.11
  -6   1  -6    0.27    0.08
   6   1   6    0.23    0.11
  -6   1  -6    0.29    0.07
  -6   1  -6    0.33    0.05
   7  -1   6   -0.04    0.12
  -7  -1  -6    0.00    0.11
  -7  -1  -6    0.03    0.11
   7   1   6   -0.07    0.11
   7   1   6   -0.18    0.11
  -7   1  -6   -0.04    0.08
   8  -1   6   -0.11    0.14
  -8  -1  -6    0.06    0.12
  -8  -1  -6    0.22    0.11
  -8   1  -6    0.02    0.09
   8   1   6    0.03    0.15
  -9  -2   6   -0.01    0.15
  -9   2   6   -0.15    0.11
   9   2  -6   -0.04    0.14
  -8  -2   6    3.00    0.29
  -8  -2   6    2.75    0.26
  -8   2   6    2.52    0.24
   8   2  -6    2.93    0.30
  -7  -2   6    2.63    0.26
  -7  -2   6    2.31    0.26
   7  -2  -6    2.21    0.20
  -7   2   6    2.11    0.21
   7   2  -6    2.44    0.26
   6  -2  -6   12.44    0.55
  -6  -2   6   15.29    0.60
  -6  -2   6   15.15    0.54
  -6   2   6   13.82    0.50
   6   2  -6   15.29    0.55
  -5  -2   6    4.81    0.27
   5  -2  -6    4.28    0.23
  -5  -2   6    4.98    0.25
  -5   2   6    4.83    0.23
   5   2  -6    4.77    0.23
   5   2  -6    5.18    0.25
  -5   2   6    4.17    0.20
  -4  -2   6    0.12    0.08
  -4  -2   6    0.08    0.08
   4  -2  -6    0.13    0.05
   4  -2  -6    0.06    0.06
   4   2  -6    0.05    0.07
   4   2  -6    0.04    0.06
  -4   2   6    0.06    0.06
  -4   2   6    0.11    0.05
   4   2  -6    0.03    0.07
   3  -2  -6   10.22    0.34
  -3  -2   6    9.84    0.40
  -3  -2   6    9.84    0.35
   3   2  -6    9.87    0.40
  -3   2   6    9.57    0.34
   3   2  -6    9.84    0.35
   3   2  -6    9.75    0.34
  -3   2   6    9.85    0.34
  -2  -2   6    0.20    0.06
   2  -2  -6    0.23    0.05
  -2  -2   6    0.16    0.07
  -2   2   6    0.17    0.05
  -2   2   6    0.19    0.05
   2   2  -6    0.12    0.06
   2   2  -6    0.10    0.05
   1  -2  -6   49.63    1.48
  -1  -2   6   49.04    1.70
  -1  -2   6   48.68    1.47
   1  -2  -6   52.07    1.49
  -1   2   6   50.29    1.48
  -1   2   6   49.70    1.48
   1   2  -6   50.46    1.71
   1   2  -6   50.19    1.47
   0  -2   6   25.51    0.91
   0  -2  -6   26.09    0.80
   0  -2  -6   25.97    0.81
   0  -2  -6   27.55    0.77
   0  -2   6   25.75    0.78
   0   2  -6   26.19    0.91
   0   2   6   26.28    0.81
   0   2   6   26.25    0.81
   0   2  -6   26.72    0.77
   0   2  -6   25.85    0.78
   1  -2   6   12.23    0.44
   1  -2   6   12.48    0.38
  -1  -2  -6   13.04    0.40
  -1  -2  -6   12.44    0.42
  -1  -2  -6   12.32    0.42
   1  -2   6   12.82    0.39
  -1   2  -6   12.88    0.40
   1   2   6   12.56    0.42
  -1   2  -6   12.31    0.39
  -1   2  -6   12.30    0.45
   1   2   6   12.27    0.42
   2  -2   6   33.82    0.98
   2  -2   6   34.50    0.98
  -2  -2  -6   34.25    1.03
  -2  -2  -6   33.70    1.03
   2  -2   6   33.16    0.98
  -2   2  -6   33.68    1.13
   2   2   6   34.28    0.99
   2   2   6   34.91    1.03
  -2   2  -6   28.85    0.98
   2   2   6   33.81    1.03
   3  -2   6    8.81    0.28
   3  -2   6    8.75    0.27
   3  -2   6    8.76    0.32
  -3  -2  -6    8.52    0.34
  -3  -2  -6    8.38    0.33
   3   2   6    8.64    0.34
   3   2   6    9.04    0.34
  -3   2  -6    8.56    0.28
   3   2   6    8.68    0.32
  -4  -2  -6    0.00    0.07
  -4  -2  -6   -0.08    0.07
   4  -2   6    0.00    0.07
   4  -2   6    0.03    0.03
   4  -2   6   -0.02    0.04
   4   2   6    0.01    0.08
  -4   2  -6   -0.04    0.04
  -4   2  -6   -0.01    0.04
   4   2   6    0.00    0.07
   4   2   6   -0.06    0.09
   5  -2   6    1.36    0.10
  -5  -2  -6    1.59    0.17
   5  -2   6    1.57    0.18
   5  -2   6    1.55    0.10
  -5  -2  -6    1.44    0.18
   5   2   6    1.46    0.17
  -5   2  -6    1.48    0.11
   5   2   6    1.64    0.19
   6  -2   6    0.12    0.11
   6  -2   6    0.11    0.06
  -6  -2  -6    0.21    0.12
  -6  -2  -6    0.25    0.13
  -6   2  -6    0.04    0.06
   6   2   6    0.06    0.12
   6   2   6    0.06    0.13
  -7  -2  -6    1.33    0.19
  -7  -2  -6    1.17    0.17
   7  -2   6    1.12    0.17
   7   2   6    1.31    0.18
  -7   2  -6    0.89    0.10
   7   2   6    1.04    0.17
  -8  -2  -6    0.07    0.14
   8  -2   6   -0.01    0.15
  -8  -2  -6   -0.06    0.12
   8   2   6    0.18    0.15
   8   2   6   -0.16    0.13
  -8   2  -6   -0.01    0.07
  -8  -3   6    0.07    0.16
  -8  -3   6    0.15    0.14
   8   3  -6    0.18    0.15
  -8   3   6    0.18    0.10
  -7  -3   6    0.01    0.12
  -7  -3   6   -0.04    0.14
  -7   3   6   -0.02    0.09
   7   3  -6   -0.05    0.12
   6  -3  -6    6.42    0.30
  -6  -3   6    6.71    0.36
  -6  -3   6    6.69    0.33
   6   3  -6    6.44    0.33
  -6   3   6    5.92    0.26
  -6   3   6    6.43    0.28
  -5  -3   6    8.77    0.40
   5  -3  -6    7.04    0.34
  -5  -3   6    8.32    0.36
  -5   3   6    8.05    0.31
  -5   3   6    7.13    0.30
   5   3  -6    8.10    0.36
   4  -3  -6   31.62    1.03
   4  -3  -6   33.22    1.19
  -4  -3   6   35.44    1.22
  -4  -3   6   34.38    1.06
   4   3  -6   34.35    1.07
   4   3  -6   34.50    1.05
  -4   3   6   33.04    1.03
  -4   3   6   34.52    1.03
   3  -3  -6   12.16    0.41
  -3  -3   6   11.99    0.43
  -3  -3   6   11.90    0.49
  -3   3   6   11.91    0.40
   3   3  -6   12.49    0.43
  -3   3   6   12.58    0.41
   3   3  -6   11.58    0.41
   3   3  -6   11.41    0.49
   2  -3  -6    0.00    0.05
  -2  -3   6    0.01    0.06
  -2  -3   6    0.02    0.08
   2  -3  -6    0.08    0.05
  -2   3   6   -0.03    0.05
  -2   3   6    0.00    0.05
   2   3  -6   -0.03    0.05
   2   3  -6   -0.01    0.05
   2   3  -6   -0.01    0.06
  -1  -3   6    3.16    0.16
   1  -3  -6    3.17    0.16
  -1  -3   6    3.19    0.18
   1  -3  -6    3.33    0.16
   1   3  -6    3.34    0.19
  -1   3   6    3.35    0.17
  -1   3   6    3.34    0.17
   1   3  -6    3.44    0.15
   1   3  -6    3.57    0.16
   0  -3  -6    6.73    0.23
   0  -3  -6    6.75    0.26
   0  -3   6    6.77    0.24
   0  -3   6    6.66    0.28
   0  -3  -6    7.12    0.27
   0   3  -6    6.48    0.28
   0   3   6    6.42    0.27
   0   3  -6    6.80    0.23
   0   3  -6    6.48    0.24
   0   3   6    6.88    0.27
   0   3  -6    6.81    0.23
   1  -3   6   18.07    0.54
  -1  -3  -6   17.64    0.58
   1  -3   6   18.15    0.54
   1  -3   6   17.60    0.63
  -1  -3  -6   18.35    0.59
  -1   3  -6   18.18    0.54
   1   3   6   18.27    0.59
   1   3   6   18.22    0.59
  -1   3  -6   18.37    0.54
  -1   3  -6   15.44    0.53
  -1   3  -6   17.51    0.64
   2  -3   6    0.15    0.06
   2  -3   6    0.10    0.02
  -2  -3  -6    0.12    0.07
   2  -3   6    0.09    0.03
  -2  -3  -6    0.10    0.07
   2   3   6    0.06    0.07
   2   3   6    0.19    0.08
   2   3   6    0.06    0.06
  -2   3  -6    0.06    0.02
  -2   3  -6    0.11    0.03
  -3  -3  -6   22.31    0.74
   3  -3   6   22.59    0.70
  -3  -3  -6   21.76    0.74
   3   3   6   22.34    0.74
   3   3   6   22.75    0.70
   3   3   6   23.51    0.75
   4  -3   6    7.53    0.32
  -4  -3  -6    8.24    0.35
   4   3   6    8.30    0.36
   4   3   6    7.61    0.32
  -5  -3  -6   11.74    0.53
   5  -3   6   10.77    0.43
  -5  -3  -6   11.45    0.46
   5   3   6   11.27    0.47
   5   3   6   10.96    0.43
  -6  -3  -6   -0.18    0.14
  -6  -3  -6    0.16    0.12
   6  -3   6    0.15    0.11
   6   3   6    0.12    0.13
   6   3   6    0.12    0.11
   7  -3   6    0.02    0.12
  -7  -3  -6   -0.01    0.12
  -7  -3  -6   -0.12    0.16
   7   3   6   -0.04    0.12
   7   3   6    0.06    0.14
   8  -3   6    0.11    0.13
  -8  -3  -6    0.05    0.17
   8   3   6    0.31    0.17
   8   3   6    0.13    0.13
  -8  -4   6    0.22    0.15
  -8   4   6    0.33    0.10
  -7  -4   6    0.29    0.13
  -7  -4   6    0.02    0.16
   7   4  -6    0.21    0.14
  -7   4   6    0.28    0.09
  -6  -4   6    0.05    0.15
  -6  -4   6    0.29    0.12
   6   4  -6    0.30    0.14
  -6   4   6    0.22    0.08
   5  -4  -6    0.54    0.10
  -5  -4   6    0.56    0.17
  -5  -4   6    0.62    0.13
  -5   4   6    0.54    0.09
  -5   4   6    0.69    0.09
   5   4  -6    0.59    0.13
  -4  -4   6    5.08    0.32
  -4  -4   6    4.85    0.27
   4   4  -6    4.75    0.25
  -4   4   6    4.90    0.23
   4   4  -6    4.75    0.28
  -4   4   6    5.10    0.22
  -3  -4   6    0.40    0.10
  -3  -4   6    0.68    0.14
   3   4  -6    0.35    0.08
  -3   4   6    0.21    0.08
  -3   4   6    0.08    0.08
   3   4  -6    0.43    0.10
   2  -4  -6   22.55    0.72
  -2  -4   6   23.55    0.74
  -2  -4   6   23.56    0.86
  -2   4   6   20.59    0.73
  -2   4   6   23.17    0.73
   2   4  -6   23.11    0.73
   2   4  -6   24.33    0.75
  -1  -4   6    2.40    0.15
  -1  -4   6    2.41    0.18
   1  -4  -6    2.23    0.11
   1  -4  -6    2.17    0.16
   1  -4  -6    2.35    0.17
   1   4  -6    2.45    0.15
  -1   4   6    2.21    0.16
   1   4  -6    2.47    0.13
  -1   4   6    2.02    0.17
   1   4  -6    2.27    0.11
   0  -4  -6    1.68    0.15
   0  -4   6    2.12    0.16
   0  -4  -6    1.79    0.10
   0  -4   6    1.97    0.12
   0   4  -6    1.80    0.13
   0   4  -6    1.89    0.11
   0   4   6    1.75    0.16
   0   4  -6    1.78    0.10
   0   4   6    1.78    0.17
  -1  -4  -6   38.86    1.22
   1  -4   6   39.59    1.17
   1  -4   6   39.64    1.37
  -1   4  -6   39.49    1.16
  -1   4  -6   39.54    1.17
   1   4   6   40.05    1.23
   1   4   6   40.94    1.23
   2  -4   6    0.18    0.07
  -2  -4  -6    0.35    0.09
  -3  -4  -6   22.67    0.76
   3  -4   6   21.51    0.69
   3   4   6   22.70    0.77
   3   4   6   22.57    0.70
  -4  -4  -6    0.28    0.11
   4  -4   6    0.25    0.08
   4   4   6    0.23    0.09
   4   4   6    0.26    0.13
   5  -4   6    0.05    0.09
  -5  -4  -6    0.04    0.10
  -5  -4  -6    0.07    0.15
   5   4   6    0.11    0.13
   5   4   6    0.03    0.09
  -6  -4  -6    0.29    0.17
   6  -4   6    0.05    0.11
  -6  -4  -6    0.36    0.13
   6   4   6    0.17    0.15
   6   4   6    0.13    0.11
  -7  -4  -6    0.16    0.19
   7  -4   6   -0.02    0.12
  -7  -4  -6    0.04    0.14
   7   4   6    0.17    0.17
   7   4   6    0.00    0.12
  -7  -5   6    0.18    0.13
  -7   5   6   -0.01    0.08
  -6  -5   6    0.06    0.12
  -6  -5   6    0.24    0.18
  -6   5   6    0.08    0.08
   6   5  -6    0.38    0.14
  -5  -5   6   -0.01    0.10
  -5  -5   6    0.01    0.15
  -5   5   6   -0.06    0.07
   5   5  -6    0.06    0.12
  -4  -5   6    0.25    0.15
  -4  -5   6    0.09    0.10
   4   5  -6    0.16    0.09
   4   5  -6    0.22    0.11
  -4   5   6    0.18    0.08
  -3  -5   6   -0.08    0.08
  -3  -5   6   -0.02    0.12
  -3   5   6   -0.04    0.07
   3   5  -6    0.03    0.09
   3   5  -6   -0.03    0.07
  -2  -5   6    4.21    0.29
  -2  -5   6    3.97    0.23
   2  -5  -6    3.54    0.16
   2  -5  -6    3.77    0.21
  -2   5   6    4.16    0.22
  -2   5   6    4.07    0.22
   2   5  -6    3.75    0.20
   2   5  -6    4.15    0.24
   1  -5  -6   18.12    0.62
  -1  -5   6   18.20    0.62
  -1  -5   6   19.51    0.73
   1   5  -6   18.46    0.60
   1   5  -6   19.39    0.63
  -1   5   6   18.92    0.64
   1   5  -6   18.35    0.56
  -1   5   6   19.16    0.63
   0  -5   6   22.24    0.80
   0  -5   6   21.61    0.68
   0  -5  -6   20.84    0.71
   0   5  -6   21.15    0.66
   0   5   6   21.41    0.72
   0   5   6   20.93    0.72
   0   5  -6   21.71    0.68
   1  -5   6    9.80    0.39
   1  -5   6    9.10    0.31
  -1  -5  -6    8.77    0.38
   1   5   6    9.16    0.39
   1   5   6    9.42    0.39
  -1   5  -6    9.35    0.31
  -1   5  -6    9.26    0.30
  -2  -5  -6    0.01    0.09
   2  -5   6    0.04    0.07
   2   5   6    0.02    0.09
   2   5   6   -0.09    0.11
  -3  -5  -6    1.48    0.16
   3   5   6    1.45    0.17
  -4  -5  -6    0.07    0.11
   4   5   6    0.11    0.13
   4   5   6    0.14    0.08
   5  -5   6    0.16    0.09
  -5  -5  -6    0.26    0.18
  -5  -5  -6    0.17    0.13
   5   5   6    0.25    0.15
   5   5   6    0.27    0.09
  -6  -5  -6    0.08    0.18
   6  -5   6    0.12    0.11
  -6  -5  -6    0.05    0.14
   6   5   6    0.07    0.10
   6   5   6    0.16    0.16
  -5  -6   6    0.36    0.19
  -5   6   6    0.09    0.08
  -4  -6   6    0.77    0.19
   4   6  -6    0.64    0.15
  -4   6   6    0.61    0.10
  -3  -6   6    2.04    0.28
  -3   6   6    1.85    0.18
   3   6  -6    1.87    0.24
  -2  -6   6    3.53    0.28
   2   6  -6    2.75    0.23
  -2   6   6    2.96    0.21
  -1  -6   6    0.69    0.15
  -1   6   6    0.51    0.11
   1   6  -6    0.31    0.10
   0  -6   6    0.08    0.12
   0  -6  -6    0.34    0.09
   0   6  -6    0.26    0.07
   0   6   6    0.26    0.11
   1  -6   6    1.02    0.14
  -1  -6  -6    1.43    0.18
  -1   6  -6    1.33    0.10
   1   6   6    1.14    0.15
  -2  -6  -6    2.09    0.21
   2   6   6    2.14    0.24
  -3  -6  -6    0.05    0.11
   3   6   6    0.00    0.14
  -4  -6  -6    0.02    0.12
  -4  -6  -6    0.32    0.18
   4   6   6   -0.08    0.15
  -2  -7   6    0.26    0.15
  -2   7   6    0.14    0.10
   2   7  -6    0.12    0.10
  -1  -7   6    0.21    0.14
  -1   7   6    0.08    0.10
   1   7  -6    0.10    0.08
   0   7   6    0.15    0.12
   0   7  -6    0.15    0.08
   1   7   6   -0.09    0.13
  -2  -7  -6    0.28    0.21
  -9   0   7   -0.25    0.13
  -9   0   7   -0.27    0.13
   9   0  -7   -0.31    0.13
  -8   0   7   -0.13    0.11
  -8   0   7   -0.14    0.11
   8   0  -7   -0.24    0.11
  -7   0   7    0.02    0.10
  -7   0   7   -0.02    0.10
   7   0  -7   -0.01    0.10
  -6   0   7   -0.01    0.09
  -6   0   7   -0.08    0.08
  -5   0   7   -0.10    0.07
   5   0  -7    0.04    0.06
  -5   0   7   -0.01    0.08
   5   0  -7    0.01    0.06
  -4   0   7   -0.06    0.07
   4   0  -7    0.00    0.05
  -4   0   7    0.03    0.07
   4   0  -7    0.04    0.06
  -3   0   7    0.02    0.06
   3   0  -7    0.04    0.05
   3   0  -7    0.02    0.05
  -3   0   7    0.01    0.06
   2   0  -7   -0.07    0.04
   2   0  -7   -0.01    0.04
  -2   0   7   -0.06    0.05
  -1   0   7   -0.10    0.04
   1   0  -7   -0.11    0.04
   1   0  -7   -0.07    0.04
  -1   0   7   -0.09    0.04
   0   0   7   -0.16    0.05
   0   0  -7   -0.20    0.04
   0   0  -7   -0.15    0.04
   0   0   7   -0.16    0.04
  -1   0  -7    0.09    0.05
   1   0   7    0.06    0.05
  -1   0  -7    0.08    0.05
   1   0   7    0.09    0.05
  -1   0  -7    0.04    0.05
  -2   0  -7    0.08    0.05
   2   0   7    0.02    0.06
  -2   0  -7    0.00    0.05
  -2   0  -7    0.08    0.05
   2   0   7    0.05    0.05
   2   0   7   -0.03    0.06
   3   0   7   -0.18    0.06
  -3   0  -7   -0.13    0.06
   3   0   7   -0.13    0.07
   4   0   7   -0.02    0.06
   4   0   7   -0.06    0.08
   4   0   7    0.03    0.07
  -4   0  -7    0.06    0.07
  -4   0  -7   -0.01    0.07
  -5   0  -7   -0.03    0.07
  -5   0  -7   -0.03    0.07
   5   0   7    0.00    0.09
   5   0   7   -0.02    0.07
   6   0   7   -0.14    0.08
  -6   0  -7   -0.15    0.07
  -6   0  -7   -0.03    0.07
  -6   0  -7    0.03    0.08
   6   0   7   -0.06    0.10
  -7   0  -7   -0.10    0.09
  -7   0  -7   -0.02    0.07
   7   0   7   -0.06    0.10
   7   0   7   -0.06    0.12
   8   0   7   -0.03    0.14
  -8   0  -7    0.04    0.10
  -9  -1   7    0.93    0.19
  -9  -1   7    0.89    0.18
  -9   1   7    0.80    0.16
   9   1  -7    0.72    0.17
  -8  -1   7   -0.06    0.13
  -8  -1   7   -0.16    0.14
   8  -1  -7    0.18    0.12
  -8   1   7    0.05    0.12
   8   1  -7   -0.08    0.13
   7  -1  -7    0.17    0.10
  -7  -1   7    0.02    0.12
  -7  -1   7    0.02    0.12
   7   1  -7    0.04    0.12
  -7   1   7    0.24    0.11
  -6  -1   7    2.24    0.20
  -6  -1   7    2.06    0.21
  -6   1   7    2.46    0.18
   6   1  -7    2.24    0.20
  -5  -1   7   19.16    0.71
   5  -1  -7   18.28    0.70
  -5  -1   7   19.26    0.63
   5   1  -7   18.53    0.62
  -5   1   7   19.46    0.62
   4  -1  -7    2.95    0.15
  -4  -1   7    2.89    0.19
   4  -1  -7    2.99    0.17
  -4  -1   7    2.86    0.17
   4   1  -7    2.90    0.16
   4   1  -7    3.01    0.18
  -4   1   7    2.93    0.16
  -3  -1   7   -0.01    0.06
   3  -1  -7    0.02    0.05
  -3  -1   7   -0.02    0.06
   3  -1  -7    0.08    0.06
  -3   1   7    0.04    0.05
  -3   1   7    0.14    0.05
   3   1  -7    0.05    0.05
   3   1  -7    0.03    0.06
  -2  -1   7    7.74    0.28
  -2  -1   7    8.02    0.32
   2  -1  -7    8.10    0.28
  -2   1   7    7.85    0.28
   2   1  -7    7.80    0.32
   2   1  -7    8.12    0.28
  -2   1   7    7.67    0.28
   1  -1  -7   43.54    1.27
  -1  -1   7   41.90    1.46
   1  -1  -7   42.28    1.27
  -1  -1   7   43.51    1.27
  -1   1   7   42.47    1.27
  -1   1   7   41.52    1.27
   1   1  -7   43.96    1.27
   1   1  -7   42.75    1.46
   0  -1  -7    2.97    0.14
   0  -1  -7    2.73    0.14
   0  -1  -7    3.09    0.15
   0  -1   7    2.82    0.13
   0  -1   7    2.71    0.13
   0   1  -7    2.94    0.14
   0   1   7    3.00    0.15
   0   1  -7    2.77    0.13
   0   1   7    2.93    0.15
   0   1  -7    2.52    0.14
   1  -1   7    8.17    0.28
  -1  -1  -7    8.17    0.30
   1  -1   7    8.00    0.28
  -1  -1  -7    8.37    0.29
  -1  -1  -7    8.02    0.29
   1   1   7    8.35    0.30
  -1   1  -7    7.99    0.28
  -1   1  -7    8.48    0.29
   1   1   7    8.48    0.30
  -1   1  -7    8.29    0.31
   2  -1   7    5.20    0.20
   2  -1   7    4.95    0.19
  -2  -1  -7    5.08    0.21
  -2  -1  -7    5.02    0.22
   2  -1   7    5.31    0.21
   2   1   7    5.36    0.22
  -2   1  -7    5.11    0.19
   2   1   7    5.05    0.21
   2   1   7    4.99    0.22
  -2   1  -7    5.05    0.20
  -3  -1  -7    0.73    0.09
   3  -1   7    0.72    0.09
   3  -1   7    0.80    0.09
  -3  -1  -7    0.77    0.09
   3  -1   7    0.98    0.10
   3   1   7    0.73    0.09
   3   1   7    0.77    0.10
   3   1   7    0.83    0.10
  -3   1  -7    0.75    0.09
  -3   1  -7    0.82    0.09
   4  -1   7    1.84    0.13
   4  -1   7    1.85    0.13
   4  -1   7    1.95    0.17
  -4  -1  -7    1.92    0.16
  -4  -1  -7    1.94    0.16
  -4   1  -7    1.95    0.13
   4   1   7    1.90    0.16
   4   1   7    1.98    0.17
   4   1   7    1.97    0.17
  -4   1  -7    1.89    0.13
  -5  -1  -7    8.61    0.36
   5  -1   7    8.77    0.37
   5  -1   7    9.13    0.33
  -5  -1  -7    9.01    0.36
   5  -1   7    8.89    0.32
   5   1   7    8.74    0.37
  -5   1  -7    8.80    0.32
  -5   1  -7    9.12    0.33
  -5   1  -7    8.74    0.34
   5   1   7    8.86    0.36
  -6  -1  -7    0.78    0.12
  -6  -1  -7    0.92    0.13
  -6  -1  -7    0.81    0.13
   6  -1   7    0.74    0.13
   6  -1   7    0.65    0.10
   6   1   7    0.58    0.13
  -6   1  -7    0.67    0.09
  -6   1  -7    0.69    0.10
   6   1   7    0.86    0.13
  -7  -1  -7    0.67    0.13
   7  -1   7    0.72    0.15
  -7  -1  -7    0.81    0.15
   7   1   7    0.52    0.15
   7   1   7    0.71    0.15
  -7   1  -7    0.69    0.11
  -8  -1  -7    0.16    0.11
  -8  -1  -7    0.13    0.12
   8  -1   7   -0.06    0.14
  -8   1  -7    0.01    0.10
   8   1   7   -0.09    0.15
  -9  -2   7    0.15    0.16
  -9   2   7   -0.14    0.12
   9   2  -7   -0.15    0.15
  -8  -2   7    0.42    0.16
  -8  -2   7    0.21    0.14
  -8   2   7    0.10    0.12
   8   2  -7    0.43    0.15
  -7  -2   7   13.34    0.56
  -7  -2   7   12.35    0.51
  -7   2   7   12.47    0.48
   7   2  -7   12.57    0.51
   6  -2  -7    0.04    0.09
  -6  -2   7    0.11    0.12
  -6  -2   7    0.09    0.13
   6   2  -7    0.12    0.12
  -6   2   7    0.14    0.07
  -6   2   7    0.29    0.10
   5  -2  -7    0.80    0.11
  -5  -2   7    0.91    0.14
  -5  -2   7    0.97    0.13
   5   2  -7    1.10    0.13
  -5   2   7    0.91    0.10
  -5   2   7    0.96    0.10
   4  -2  -7    3.76    0.20
  -4  -2   7    3.77    0.23
   4  -2  -7    3.78    0.18
  -4  -2   7    3.73    0.20
   4   2  -7    3.78    0.21
   4   2  -7    3.65    0.22
   4   2  -7    3.76    0.19
  -4   2   7    3.77    0.18
  -4   2   7    3.67    0.19
  -3  -2   7    4.95    0.25
  -3  -2   7    4.95    0.22
   3  -2  -7    4.97    0.23
   3  -2  -7    5.10    0.21
  -3   2   7    5.04    0.21
   3   2  -7    4.82    0.24
  -3   2   7    5.06    0.21
   3   2  -7    4.92    0.21
  -2  -2   7    5.75    0.24
   2  -2  -7    6.14    0.23
  -2  -2   7    5.82    0.27
   2   2  -7    6.30    0.23
   2   2  -7    5.89    0.27
  -2   2   7    6.22    0.23
  -2   2   7    6.07    0.24
   1  -2  -7    2.40    0.13
   1  -2  -7    2.32    0.14
  -1  -2   7    2.15    0.13
  -1  -2   7    2.19    0.14
  -1   2   7    2.59    0.14
  -1   2   7    2.40    0.14
   1   2  -7    2.23    0.12
   1   2  -7    2.29    0.14
   0  -2  -7   20.81    0.66
   0  -2   7   20.26    0.73
   0  -2  -7   20.58    0.65
   0  -2   7   20.60    0.63
   0  -2  -7   21.40    0.63
   0   2  -7   21.06    0.63
   0   2   7   20.71    0.66
   0   2  -7   20.28    0.73
   0   2   7   20.60    0.66
   0   2  -7   21.01    0.63
  -1  -2  -7    9.28    0.34
   1  -2   7    9.41    0.30
  -1  -2  -7    9.83    0.32
   1  -2   7    9.64    0.31
  -1  -2  -7    9.49    0.34
   1   2   7    8.91    0.34
  -1   2  -7    9.55    0.31
  -1   2  -7    9.12    0.35
   1   2   7    9.48    0.35
  -1   2  -7    9.57    0.32
   2  -2   7    0.38    0.07
  -2  -2  -7    0.51    0.09
  -2  -2  -7    0.50    0.08
   2  -2   7    0.60    0.07
   2  -2   7    0.64    0.06
   2   2   7    0.52    0.09
   2   2   7    0.61    0.08
   2   2   7    0.53    0.09
  -2   2  -7    0.66    0.06
   3  -2   7    5.34    0.19
   3  -2   7    5.32    0.23
   3  -2   7    5.52    0.19
  -3  -2  -7    5.33    0.25
  -3  -2  -7    5.53    0.25
   3   2   7    5.41    0.26
   3   2   7    5.64    0.26
   3   2   7    5.44    0.24
  -3   2  -7    5.21    0.20
  -4  -2  -7    3.00    0.21
   4  -2   7    3.11    0.14
  -4  -2  -7    3.22    0.20
   4  -2   7    3.16    0.20
   4  -2   7    3.02    0.13
   4   2   7    3.14    0.22
  -4   2  -7    3.20    0.13
  -4   2  -7    2.79    0.13
   4   2   7    3.17    0.20
   5  -2   7    6.69    0.24
  -5  -2  -7    7.10    0.33
   5  -2   7    6.34    0.24
   5  -2   7    6.88    0.31
  -5  -2  -7    6.88    0.32
  -5   2  -7    6.62    0.24
  -5   2  -7    6.33    0.24
   5   2   7    7.45    0.34
   5   2   7    7.00    0.32
  -6  -2  -7    0.38    0.14
  -6  -2  -7    0.24    0.12
   6  -2   7    0.28    0.13
   6   2   7    0.45    0.14
  -6   2  -7    0.17    0.07
   6   2   7    0.21    0.12
   7  -2   7    5.42    0.33
  -7  -2  -7    6.63    0.38
  -7  -2  -7    6.17    0.35
   7   2   7    6.30    0.36
  -7   2  -7    5.38    0.25
   7   2   7    5.50    0.34
  -8  -2  -7    0.17    0.14
  -8  -2  -7    0.24    0.15
   8  -2   7   -0.01    0.14
   8   2   7    0.14    0.17
  -8   2  -7    0.11    0.08
   8   2   7    0.32    0.15
  -8  -3   7   -0.19    0.16
  -8  -3   7   -0.04    0.13
   8   3  -7    0.01    0.13
  -8   3   7    0.01    0.10
  -7  -3   7    0.02    0.12
  -7  -3   7    0.11    0.15
   7   3  -7    0.04    0.13
  -7   3   7    0.06    0.10
  -6  -3   7    0.31    0.12
  -6  -3   7    0.26    0.15
   6   3  -7    0.14    0.11
  -6   3   7    0.05    0.07
  -6   3   7    0.15    0.10
  -5  -3   7   13.35    0.54
  -5  -3   7   12.55    0.47
   5  -3  -7   11.19    0.48
  -5   3   7   11.06    0.42
   5   3  -7   12.72    0.48
  -5   3   7   12.07    0.44
   4  -3  -7   22.24    0.84
  -4  -3   7   23.54    0.77
  -4  -3   7   23.49    0.87
  -4   3   7   22.56    0.73
   4   3  -7   24.01    0.77
  -4   3   7   23.28    0.74
   4   3  -7   22.80    0.75
  -3  -3   7    1.34    0.16
   3  -3  -7    1.09    0.11
  -3  -3   7    1.36    0.15
   3   3  -7    0.90    0.13
   3   3  -7    1.13    0.14
  -3   3   7    1.11    0.12
  -3   3   7    1.14    0.12
   3   3  -7    1.09    0.13
  -2  -3   7    2.97    0.17
  -2  -3   7    3.01    0.19
   2  -3  -7    3.00    0.16
   2  -3  -7    3.25    0.16
   2   3  -7    3.19    0.17
  -2   3   7    2.97    0.16
   2   3  -7    2.93    0.19
   2   3  -7    2.98    0.16
  -2   3   7    3.21    0.17
   1  -3  -7    2.64    0.15
  -1  -3   7    2.64    0.14
   1  -3  -7    2.41    0.15
  -1  -3   7    2.57    0.17
   1   3  -7    2.69    0.13
   1   3  -7    3.01    0.15
  -1   3   7    2.52    0.16
  -1   3   7    2.62    0.16
   1   3  -7    2.61    0.16
   0  -3   7    0.22    0.07
   0  -3   7    0.34    0.05
   0  -3  -7    0.30    0.05
   0  -3  -7    0.36    0.07
   0  -3  -7    0.30    0.07
   0   3  -7    0.29    0.05
   0   3   7    0.33    0.08
   0   3   7    0.24    0.07
   0   3  -7    0.33    0.07
   0   3  -7    0.24    0.05
   1  -3   7    2.47    0.14
   1  -3   7    2.40    0.11
  -1  -3  -7    2.41    0.17
  -1  -3  -7    2.34    0.13
  -1  -3  -7    2.34    0.16
   1  -3   7    2.39    0.11
   1   3   7    2.56    0.16
  -1   3  -7    2.48    0.13
  -1   3  -7    2.44    0.14
   1   3   7    2.46    0.18
   2  -3   7   13.46    0.40
   2  -3   7   13.15    0.40
  -2  -3  -7   13.27    0.47
  -2  -3  -7   13.35    0.47
   2   3   7   13.11    0.48
  -2   3  -7   13.03    0.40
   2   3   7   13.55    0.48
   3  -3   7    3.18    0.20
  -3  -3  -7    3.80    0.23
  -3  -3  -7    3.55    0.25
   3   3   7    3.67    0.24
   3   3   7    3.65    0.25
   3   3   7    3.19    0.20
   4  -3   7   18.48    0.63
  -4  -3  -7   18.98    0.66
   4   3   7   19.22    0.63
   4   3   7   19.20    0.67
   5  -3   7    5.18    0.29
  -5  -3  -7    5.79    0.33
   5   3   7    5.09    0.29
   5   3   7    5.73    0.34
   6  -3   7   -0.03    0.11
  -6  -3  -7    0.08    0.16
  -6  -3  -7    0.17    0.13
   6   3   7    0.12    0.12
   6   3   7    0.32    0.15
  -7  -3  -7   -0.09    0.16
  -7  -3  -7   -0.10    0.13
   7  -3   7   -0.22    0.11
   7   3   7   -0.04    0.12
   7   3   7   -0.16    0.14
  -8  -4   7   -0.05    0.14
  -8   4   7   -0.02    0.09
  -7  -4   7    0.00    0.13
   7   4  -7   -0.12    0.14
  -7   4   7    0.08    0.09
  -6  -4   7    1.03    0.15
  -6  -4   7    0.96    0.19
   6   4  -7    1.25    0.17
  -6   4   7    1.10    0.12
  -5  -4   7   -0.12    0.09
  -5  -4   7   -0.33    0.14
   5   4  -7   -0.05    0.10
  -5   4   7   -0.10    0.08
  -4  -4   7    2.69    0.22
  -4  -4   7    3.03    0.27
   4   4  -7    2.95    0.23
   4   4  -7    2.71    0.19
  -4   4   7    3.01    0.18
  -4   4   7    2.67    0.19
  -3  -4   7    7.33    0.35
  -3  -4   7    6.78    0.31
   3   4  -7    6.72    0.30
  -3   4   7    5.78    0.28
   3   4  -7    6.25    0.27
  -3   4   7    5.90    0.28
  -2  -4   7   27.74    0.86
   2  -4  -7   25.83    0.85
  -2  -4   7   28.22    0.99
   2   4  -7   28.27    0.86
  -2   4   7   25.50    0.85
   2   4  -7   26.95    0.84
  -2   4   7   27.11    0.85
   1  -4  -7    1.81    0.12
   1  -4  -7    2.01    0.16
  -1  -4   7    2.47    0.19
  -1  -4   7    2.29    0.15
   1   4  -7    2.13    0.13
   1   4  -7    2.36    0.17
   1   4  -7    2.23    0.15
   1   4  -7    1.84    0.12
  -1   4   7    2.17    0.17
  -1   4   7    2.13    0.17
   0  -4  -7    9.61    0.33
   0  -4   7   10.40    0.41
   0  -4   7    9.97    0.34
   0  -4  -7    9.95    0.38
   0   4  -7   10.20    0.33
   0   4  -7   10.01    0.35
   0   4   7    9.79    0.38
   0   4  -7    9.70    0.33
   0   4   7   10.13    0.39
   1  -4   7    6.76    0.25
   1  -4   7    7.14    0.30
   1  -4   7    7.27    0.24
  -1  -4  -7    7.21    0.31
  -1   4  -7    6.74    0.24
   1   4   7    7.69    0.33
   1   4   7    7.32    0.32
  -1   4  -7    6.76    0.25
  -2  -4  -7   20.97    0.71
   2  -4   7   20.19    0.73
   2   4   7   20.74    0.71
   2   4   7   21.86    0.72
  -3  -4  -7    2.13    0.20
   3   4   7    2.30    0.23
   4  -4   7    0.09    0.08
  -4  -4  -7    0.15    0.10
   4   4   7    0.09    0.12
   4   4   7    0.09    0.08
   5  -4   7   -0.04    0.09
  -5  -4  -7   -0.11    0.15
  -5  -4  -7    0.08    0.12
   5   4   7    0.02    0.09
   5   4   7    0.03    0.13
  -6  -4  -7    1.13    0.22
   6  -4   7    1.05    0.15
  -6  -4  -7    0.91    0.17
   6   4   7    1.16    0.18
   6   4   7    1.16    0.15
  -7  -4  -7    0.14    0.19
   7  -4   7   -0.09    0.12
   7   4   7   -0.08    0.12
   7   4   7   -0.06    0.16
  -6  -5   7    0.65    0.15
  -6  -5   7    0.84    0.20
   6   5  -7    0.76    0.16
  -6   5   7    0.59    0.10
  -5  -5   7    0.10    0.16
  -5  -5   7    0.04    0.11
  -5   5   7   -0.10    0.08
   5   5  -7    0.07    0.12
  -4  -5   7    1.73    0.25
  -4  -5   7    1.04    0.14
  -4   5   7    1.18    0.15
   4   5  -7    1.29    0.16
  -3  -5   7    0.07    0.14
  -3  -5   7    0.03    0.09
  -3   5   7   -0.02    0.08
   3   5  -7   -0.06    0.09
   3   5  -7   -0.09    0.07
   2  -5  -7    0.01    0.08
  -2  -5   7    0.01    0.14
  -2  -5   7    0.03    0.09
   2  -5  -7   -0.10    0.05
  -2   5   7    0.07    0.08
  -2   5   7    0.12    0.09
   2   5  -7    0.04    0.09
   2   5  -7   -0.08    0.07
  -1  -5   7    3.43    0.21
  -1  -5   7    4.16    0.28
   1  -5  -7    3.35    0.22
   1  -5  -7    3.20    0.15
   1   5  -7    3.46    0.19
   1   5  -7    3.61    0.22
   1   5  -7    3.07    0.15
  -1   5   7    3.67    0.23
  -1   5   7    3.86    0.24
   0  -5   7    0.65    0.13
   0  -5  -7    0.22    0.10
   0  -5   7    0.39    0.08
   0   5   7    0.34    0.11
   0   5   7    0.37    0.13
   0   5  -7    0.32    0.07
   0   5  -7    0.50    0.09
   1  -5   7    0.61    0.10
  -1  -5  -7    0.34    0.11
  -1   5  -7    0.53    0.07
  -1   5  -7    0.68    0.08
   1   5   7    0.50    0.12
   1   5   7    0.49    0.13
  -2  -5  -7    1.46    0.19
   2  -5   7    1.96    0.14
   2   5   7    1.44    0.17
  -3  -5  -7    0.08    0.10
   3   5   7    0.01    0.12
  -4  -5  -7    1.88    0.24
   4   5   7    1.16    0.18
  -5  -5  -7   -0.12    0.11
  -5  -5  -7    0.33    0.19
   5  -5   7    0.00    0.09
   5   5   7    0.11    0.09
   5   5   7    0.10    0.15
  -6  -5  -7    0.58    0.22
  -6  -5  -7    0.34    0.15
   6   5   7    0.53    0.19
   6   5   7    0.37    0.11
  -5  -6   7    0.23    0.19
  -5   6   7    0.06    0.09
  -4  -6   7    0.30    0.18
  -4   6   7    0.30    0.09
   4   6  -7    0.09    0.13
  -3  -6   7    0.15    0.16
  -3   6   7    0.10    0.09
   3   6  -7   -0.02    0.12
  -2  -6   7    0.23    0.15
   2   6  -7    0.11    0.10
  -2   6   7    0.23    0.10
  -1  -6   7   -0.06    0.12
  -1   6   7   -0.06    0.09
   1   6  -7   -0.06    0.08
   0  -6  -7    0.15    0.09
   0  -6   7   -0.01    0.12
   0   6   7   -0.04    0.11
   0   6  -7   -0.01    0.07
  -1  -6  -7    0.10    0.10
   1  -6   7   -0.06    0.10
   1   6   7    0.11    0.12
  -1   6  -7    0.08    0.05
  -2  -6  -7    0.92    0.15
   2   6   7    0.91    0.16
  -3  -6  -7    0.03    0.11
   3   6   7   -0.04    0.13
  -4  -6  -7    0.27    0.19
  -4  -6  -7   -0.03    0.13
  -2  -7   7    0.04    0.16
  -2   7   7    0.04    0.10
   2   7  -7    0.01    0.10
  -1  -7   7    0.13    0.14
   1   7  -7    0.10    0.09
  -1   7   7    0.03    0.11
   0   7  -7    0.05    0.08
   0   7   7   -0.03    0.12
   9   0  -8    0.00    0.14
  -9   0   8    0.26    0.16
  -9   0   8    0.15    0.16
  -8   0   8   -0.25    0.13
   8   0  -8   -0.02    0.11
  -8   0   8   -0.14    0.11
  -7   0   8   -0.14    0.11
   7   0  -8    0.01    0.11
  -7   0   8   -0.01    0.10
  -6   0   8    4.21    0.24
  -6   0   8    4.13    0.25
   5   0  -8    2.76    0.18
  -5   0   8    2.51    0.18
  -5   0   8    2.67    0.20
   4   0  -8   21.89    0.70
  -4   0   8   22.75    0.81
  -4   0   8   22.69    0.71
   4   0  -8   21.69    0.81
   3   0  -8   69.64    2.34
   3   0  -8   66.65    2.02
  -3   0   8   69.87    2.03
   2   0  -8   13.96    0.46
   2   0  -8   14.10    0.52
  -2   0   8   14.19    0.46
  -2   0   8   14.01    0.46
   1   0  -8    1.54    0.10
  -1   0   8    1.64    0.10
  -1   0   8    1.42    0.11
   1   0  -8    1.64    0.11
   0   0  -8   24.55    0.77
   0   0   8   24.54    0.77
   0   0   8   24.96    0.77
   0   0  -8   26.23    0.76
   0   0  -8   25.40    0.77
   1   0   8    5.96    0.23
  -1   0  -8    6.35    0.24
   1   0   8    6.34    0.24
  -1   0  -8    6.14    0.24
  -1   0  -8    6.11    0.23
   2   0   8   78.03    2.23
  -2   0  -8   76.84    2.29
  -2   0  -8   79.82    2.23
  -2   0  -8   77.47    2.29
   2   0   8   78.10    2.29
   2   0   8   77.54    2.29
   3   0   8   26.34    0.81
   3   0   8   25.98    0.80
  -3   0  -8   25.82    0.80
  -3   0  -8   25.92    0.81
   3   0   8   25.65    0.81
   4   0   8   12.67    0.44
  -4   0  -8   12.37    0.44
   4   0   8   12.35    0.44
  -4   0  -8   12.47    0.43
   4   0   8   12.29    0.43
   5   0   8    3.28    0.20
   5   0   8    3.36    0.23
  -5   0  -8    3.29    0.20
  -5   0  -8    3.52    0.20
  -6   0  -8   -0.02    0.08
  -6   0  -8   -0.02    0.08
   6   0   8    0.14    0.11
   6   0   8   -0.02    0.09
  -6   0  -8    0.01    0.08
  -7   0  -8    0.33    0.10
  -7   0  -8    0.41    0.09
   7   0   8    0.43    0.14
  -8   0  -8    0.20    0.11
   8   0   8    0.24    0.16
  -9  -1   8    0.02    0.15
   9   1  -8    0.02    0.15
  -9   1   8    0.01    0.14
  -8  -1   8   -0.22    0.13
  -8  -1   8   -0.22    0.13
   8  -1  -8    0.09    0.12
  -8   1   8    0.11    0.12
  -7  -1   8    0.15    0.14
  -7  -1   8    0.26    0.12
  -7   1   8    0.43    0.11
   7   1  -8    0.25    0.12
  -6  -1   8    0.63    0.14
  -6  -1   8    0.82    0.13
  -6   1   8    0.97    0.12
   6   1  -8    0.77    0.14
  -5  -1   8    1.09    0.12
  -5  -1   8    1.21    0.17
   5  -1  -8    1.23    0.13
  -5   1   8    1.26    0.15
  -4  -1   8    3.40    0.19
   4  -1  -8    3.34    0.17
  -4  -1   8    3.40    0.21
   4  -1  -8    3.27    0.18
   4   1  -8    3.09    0.17
  -4   1   8    3.26    0.18
   4   1  -8    3.08    0.19
   3  -1  -8    0.01    0.05
  -3  -1   8   -0.05    0.06
   3  -1  -8   -0.02    0.05
  -3  -1   8   -0.02    0.07
  -3   1   8    0.00    0.05
  -3   1   8   -0.01    0.05
   3   1  -8    0.00    0.05
   3   1  -8    0.00    0.05
  -2  -1   8   18.32    0.66
   2  -1  -8   18.67    0.58
  -2  -1   8   18.00    0.58
   2  -1  -8   17.98    0.66
   2   1  -8   18.71    0.58
   2   1  -8   18.55    0.66
  -2   1   8   17.63    0.58
  -2   1   8   18.19    0.58
  -1  -1   8   37.78    1.13
   1  -1  -8   37.66    1.14
   1  -1  -8   37.51    1.14
  -1  -1   8   38.28    1.13
   1   1  -8   38.49    1.31
  -1   1   8   38.65    1.14
   1   1  -8   37.98    1.13
  -1   1   8   36.43    1.14
   0  -1  -8   32.69    0.97
   0  -1  -8   31.87    0.97
   0  -1   8   30.75    0.95
   0  -1  -8   32.72    0.94
   0  -1   8   31.71    0.96
   0   1   8   31.15    0.97
   0   1  -8   31.72    0.96
   0   1  -8   31.36    1.10
   0   1  -8   32.32    0.94
   0   1   8   32.23    0.97
  -1  -1  -8   11.90    0.42
   1  -1   8   12.28    0.40
   1  -1   8   12.65    0.41
  -1  -1  -8   12.54    0.42
  -1  -1  -8   12.72    0.41
   1   1   8   12.45    0.42
  -1   1  -8   12.27    0.45
   1   1   8   12.35    0.42
  -1   1  -8   12.85    0.41
  -1   1  -8   12.81    0.41
  -2  -1  -8   17.22    0.55
  -2  -1  -8   17.04    0.54
   2  -1   8   16.90    0.53
   2  -1   8   16.99    0.54
   2  -1   8   16.67    0.53
  -2  -1  -8   16.93    0.55
   2   1   8   17.22    0.56
  -2   1  -8   17.13    0.53
   2   1   8   16.74    0.55
  -2   1  -8   16.67    0.53
   2   1   8   16.63    0.54
  -2   1  -8   16.75    0.54
  -2   1  -8   16.67    0.60
  -3  -1  -8    3.12    0.17
   3  -1   8    2.98    0.15
   3  -1   8    3.03    0.15
  -3  -1  -8    3.11    0.18
   3  -1   8    3.01    0.18
   3   1   8    2.92    0.18
  -3   1  -8    3.21    0.15
  -3   1  -8    2.92    0.15
   3   1   8    3.31    0.18
   3   1   8    3.21    0.18
   4  -1   8    2.39    0.14
  -4  -1  -8    2.36    0.18
  -4  -1  -8    2.38    0.18
   4  -1   8    2.33    0.18
   4  -1   8    2.28    0.14
   4   1   8    2.47    0.19
  -4   1  -8    2.42    0.15
  -4   1  -8    2.31    0.14
   4   1   8    2.44    0.19
  -5  -1  -8    1.04    0.13
   5  -1   8    0.96    0.13
  -5  -1  -8    1.33    0.16
   5  -1   8    1.07    0.13
   5   1   8    0.88    0.13
  -5   1  -8    1.09    0.11
  -5   1  -8    1.22    0.13
   5   1   8    1.00    0.13
  -5   1  -8    1.13    0.13
  -6  -1  -8    1.75    0.19
  -6  -1  -8    1.80    0.18
   6  -1   8    1.13    0.15
   6  -1   8    1.52    0.15
  -6  -1  -8    1.63    0.20
  -6   1  -8    1.53    0.15
  -6   1  -8    1.51    0.11
   6   1   8    1.64    0.20
   6   1   8    1.22    0.16
   7  -1   8    2.91    0.28
  -7  -1  -8    2.97    0.24
  -7  -1  -8    2.95    0.24
   7   1   8    3.01    0.28
  -7   1  -8    2.84    0.21
   7   1   8    3.33    0.27
   8  -1   8    1.17    0.19
  -8  -1  -8    0.97    0.15
   8   1   8    0.85    0.18
  -8   1  -8    0.92    0.13
  -9  -2   8    0.04    0.16
   9   2  -8   -0.04    0.16
  -8  -2   8   -0.03    0.14
  -8  -2   8   -0.04    0.13
   8   2  -8   -0.15    0.13
  -8   2   8   -0.29    0.11
  -7  -2   8    2.18    0.25
  -7  -2   8    2.32    0.24
   7   2  -8    2.20    0.26
  -7   2   8    1.91    0.21
  -6  -2   8    0.44    0.15
  -6  -2   8    0.55    0.13
  -6   2   8    0.64    0.12
  -6   2   8    0.72    0.09
   6   2  -8    0.72    0.13
  -5  -2   8   -0.03    0.09
   5  -2  -8    0.15    0.08
  -5  -2   8   -0.09    0.10
   5   2  -8   -0.09    0.09
  -5   2   8    0.11    0.08
  -5   2   8    0.11    0.06
  -4  -2   8   -0.08    0.07
  -4  -2   8   -0.13    0.08
   4  -2  -8    0.03    0.06
   4  -2  -8    0.10    0.06
   4   2  -8   -0.10    0.06
  -4   2   8    0.01    0.06
  -4   2   8    0.00    0.05
   3  -2  -8    7.36    0.27
  -3  -2   8    7.08    0.29
  -3  -2   8    7.05    0.32
   3   2  -8    7.19    0.28
  -3   2   8    7.14    0.28
  -3   2   8    7.18    0.28
   3   2  -8    6.91    0.31
  -2  -2   8   29.70    0.91
   2  -2  -8   30.69    0.92
  -2  -2   8   29.13    1.05
   2   2  -8   30.54    0.91
   2   2  -8   29.41    1.05
  -2   2   8   29.46    0.91
  -2   2   8   29.07    0.91
   1  -2  -8    8.04    0.30
   1  -2  -8    8.27    0.30
  -1  -2   8    8.22    0.33
  -1  -2   8    8.35    0.29
   1   2  -8    8.12    0.33
  -1   2   8    8.28    0.30
   1   2  -8    8.37    0.29
  -1   2   8    8.02    0.30
   0  -2   8    3.61    0.17
   0  -2  -8    3.50    0.17
   0  -2   8    3.45    0.15
   0  -2  -8    3.36    0.16
   0  -2  -8    3.51    0.18
   0  -2   8    3.49    0.15
   0   2   8    3.32    0.18
   0   2  -8    3.28    0.17
   0   2  -8    3.27    0.16
   0   2  -8    3.63    0.15
   0   2   8    3.34    0.17
   1  -2   8   18.26    0.56
   1  -2   8   18.04    0.56
  -1  -2  -8   17.93    0.60
  -1  -2  -8   18.36    0.60
  -1  -2  -8   18.39    0.57
  -1   2  -8   18.36    0.56
   1   2   8   18.47    0.60
   1   2   8   18.50    0.60
  -1   2  -8   17.82    0.65
  -1   2  -8   18.58    0.57
  -2  -2  -8    0.05    0.07
  -2  -2  -8    0.10    0.07
   2  -2   8    0.21    0.05
   2  -2   8    0.14    0.04
   2   2   8    0.16    0.07
  -2   2  -8    0.13    0.05
   2   2   8    0.15    0.07
   2   2   8    0.10    0.08
  -2   2  -8    0.19    0.04
   3  -2   8    0.02    0.07
  -3  -2  -8   -0.03    0.07
   3  -2   8    0.07    0.04
  -3  -2  -8   -0.13    0.07
   3  -2   8    0.06    0.05
  -3   2  -8    0.06    0.03
   3   2   8   -0.03    0.07
   3   2   8   -0.13    0.07
  -3   2  -8    0.03    0.02
   3   2   8   -0.13    0.08
   4  -2   8    3.35    0.21
   4  -2   8    3.11    0.14
  -4  -2  -8    2.70    0.21
   4  -2   8    2.98    0.14
  -4  -2  -8    2.98    0.21
   4   2   8    2.94    0.20
  -4   2  -8    3.12    0.14
   4   2   8    2.63    0.21
   5  -2   8    3.15    0.23
   5  -2   8    2.81    0.15
  -5  -2  -8    2.83    0.22
  -5  -2  -8    3.03    0.24
   5  -2   8    2.76    0.15
  -5   2  -8    2.93    0.15
   5   2   8    2.90    0.23
   5   2   8    3.10    0.26
  -6  -2  -8    8.84    0.43
  -6  -2  -8    8.51    0.40
   6  -2   8    8.34    0.39
  -6   2  -8    7.33    0.30
   6   2   8    7.89    0.37
   6   2   8    9.28    0.42
  -7  -2  -8    0.49    0.14
  -7  -2  -8    0.42    0.16
   7  -2   8    0.40    0.15
  -7   2  -8    0.16    0.08
   7   2   8    0.40    0.15
   7   2   8    0.62    0.16
   8  -2   8    0.79    0.17
  -8  -2  -8    0.95    0.19
  -8   2  -8    0.53    0.09
   8   2   8    0.60    0.17
  -8  -3   8    0.33    0.15
  -8  -3   8    0.50    0.18
  -8   3   8    0.43    0.12
   8   3  -8    0.41    0.16
  -7  -3   8   -0.11    0.15
  -7  -3   8   -0.09    0.12
  -7   3   8   -0.06    0.10
   7   3  -8   -0.13    0.12
  -6  -3   8   -0.13    0.14
  -6  -3   8   -0.07    0.11
  -6   3   8   -0.18    0.09
   6   3  -8   -0.15    0.11
  -5  -3   8   15.29    0.55
  -5  -3   8   15.24    0.63
   5   3  -8   15.93    0.56
  -5   3   8   14.31    0.51
  -5   3   8   14.90    0.53
  -4  -3   8    7.46    0.32
  -4  -3   8    6.85    0.35
   4  -3  -8    6.87    0.31
  -4   3   8    6.80    0.29
   4   3  -8    6.66    0.29
  -4   3   8    6.57    0.28
   4   3  -8    7.15    0.32
  -3  -3   8    5.40    0.30
  -3  -3   8    5.50    0.26
   3   3  -8    5.46    0.24
  -3   3   8    5.80    0.24
  -3   3   8    5.64    0.25
   3   3  -8    5.45    0.26
   2  -3  -8    7.18    0.29
  -2  -3   8    7.37    0.29
   2  -3  -8    7.75    0.29
  -2  -3   8    7.27    0.33
  -2   3   8    7.84    0.29
  -2   3   8    7.63    0.29
   2   3  -8    7.15    0.28
   2   3  -8    7.26    0.29
   2   3  -8    6.89    0.33
  -1  -3   8   13.47    0.45
   1  -3  -8   13.94    0.47
  -1  -3   8   13.46    0.52
   1  -3  -8   13.96    0.47
   1   3  -8   13.76    0.45
  -1   3   8   13.64    0.47
  -1   3   8   13.72    0.47
   1   3  -8   13.57    0.53
   0  -3  -8    3.31    0.16
   0  -3   8    3.18    0.18
   0  -3  -8    3.19    0.18
   0  -3  -8    3.43    0.19
   0  -3   8    3.42    0.15
   0   3   8    3.53    0.19
   0   3   8    3.31    0.19
   0   3  -8    3.31    0.16
   0   3  -8    3.17    0.18
   0   3  -8    3.46    0.15
   1  -3   8    5.95    0.21
   1  -3   8    6.05    0.25
  -1  -3  -8    5.64    0.26
  -1  -3  -8    5.74    0.22
   1  -3   8    5.99    0.21
  -1  -3  -8    5.73    0.26
  -1   3  -8    6.10    0.23
   1   3   8    6.09    0.27
  -1   3  -8    5.06    0.20
   1   3   8    5.65    0.26
  -1   3  -8    5.94    0.25
   2  -3   8    2.46    0.11
  -2  -3  -8    2.77    0.20
  -2  -3  -8    2.60    0.18
   2  -3   8    2.32    0.12
  -2   3  -8    2.61    0.14
   2   3   8    3.09    0.21
  -2   3  -8    2.38    0.12
   2   3   8    2.59    0.19
   3  -3   8    9.68    0.37
   3  -3   8    9.14    0.30
   3  -3   8    9.47    0.30
  -3  -3  -8   10.07    0.39
   3   3   8   10.05    0.41
   3   3   8   10.49    0.38
  -3   3  -8    9.17    0.30
   4  -3   8   17.69    0.62
  -4  -3  -8   19.33    0.67
   4   3   8   18.58    0.63
   4   3   8   19.63    0.68
  -5  -3  -8    0.88    0.14
   5  -3   8    0.71    0.13
   5   3   8    1.12    0.17
   5   3   8    0.72    0.13
  -6  -3  -8    0.35    0.17
  -6  -3  -8    0.54    0.14
   6  -3   8    0.44    0.13
   6   3   8    0.54    0.16
   6   3   8    0.54    0.13
  -7  -3  -8   -0.15    0.12
   7  -3   8    0.01    0.12
  -7  -3  -8    0.01    0.16
   7   3   8    0.06    0.16
   7   3   8   -0.13    0.12
  -7  -4   8   -0.08    0.13
  -7  -4   8   -0.15    0.17
   7   4  -8   -0.06    0.14
  -7   4   8    0.11    0.10
  -6  -4   8   -0.02    0.11
  -6  -4   8   -0.21    0.15
   6   4  -8   -0.09    0.12
  -6   4   8   -0.04    0.09
  -5  -4   8    0.06    0.10
  -5  -4   8   -0.14    0.14
   5   4  -8    0.02    0.10
  -5   4   8   -0.04    0.08
  -4  -4   8    3.50    0.24
  -4  -4   8    3.31    0.27
   4   4  -8    3.07    0.23
   4   4  -8    3.04    0.20
  -4   4   8    3.10    0.19
  -4   4   8    2.84    0.20
  -3  -4   8   27.52    0.96
  -3  -4   8   25.88    0.84
   3   4  -8   24.76    0.82
   3   4  -8   25.63    0.84
  -3   4   8   25.59    0.82
  -3   4   8   24.66    0.82
   2  -4  -8    0.24    0.09
  -2  -4   8    0.47    0.09
   2   4  -8    0.32    0.08
   2   4  -8    0.44    0.09
  -2   4   8    0.42    0.10
  -2   4   8    0.34    0.09
  -1  -4   8   14.51    0.54
   1  -4  -8   13.17    0.43
  -1  -4   8   14.12    0.47
   1  -4  -8   13.03    0.47
  -1   4   8   13.59    0.48
  -1   4   8   13.77    0.48
   1   4  -8   13.56    0.54
   1   4  -8   13.71    0.45
   1   4  -8   13.05    0.43
   1   4  -8   12.98    0.46
   0  -4   8    0.35    0.08
   0  -4   8    0.63    0.10
   0  -4  -8    0.34    0.07
   0  -4  -8    0.48    0.10
   0   4  -8    0.48    0.07
   0   4   8    0.47    0.10
   0   4  -8    0.35    0.07
   0   4  -8    0.41    0.08
   0   4   8    0.48    0.11
  -1  -4  -8    2.14    0.20
   1  -4   8    2.30    0.11
   1  -4   8    1.98    0.12
   1  -4   8    2.02    0.16
   1   4   8    2.10    0.20
  -1   4  -8    1.93    0.11
  -1   4  -8    1.79    0.12
   1   4   8    1.87    0.21
   2  -4   8    9.38    0.29
  -2  -4  -8   10.02    0.39
   2  -4   8    9.15    0.29
   2   4   8    9.70    0.40
  -2   4  -8    9.51    0.29
  -2   4  -8    9.31    0.29
  -3  -4  -8    1.06    0.14
   3   4   8    0.89    0.15
  -4  -4  -8    0.04    0.10
   4  -4   8    0.06    0.08
   4   4   8    0.06    0.09
   4   4   8    0.18    0.13
  -5  -4  -8    0.87    0.15
   5  -4   8    0.81    0.13
   5   4   8    1.03    0.17
   5   4   8    0.78    0.13
  -6  -4  -8    0.32    0.14
   6  -4   8    0.22    0.12
  -6  -4  -8    0.36    0.18
   6   4   8    0.35    0.17
   6   4   8    0.19    0.13
  -6  -5   8   -0.06    0.17
  -6  -5   8    0.03    0.12
   6   5  -8    0.03    0.14
  -6   5   8   -0.05    0.09
  -5  -5   8    0.05    0.11
  -5  -5   8    0.06    0.15
  -5   5   8   -0.01    0.09
   5   5  -8    0.14    0.13
  -4  -5   8    0.62    0.13
  -4  -5   8    0.75    0.17
   4   5  -8    0.66    0.14
  -4   5   8    0.63    0.11
  -3  -5   8    0.47    0.11
  -3  -5   8    0.68    0.16
   3   5  -8    0.62    0.13
  -3   5   8    0.57    0.10
  -2  -5   8    0.10    0.10
   2  -5  -8    0.15    0.08
  -2  -5   8    0.17    0.14
  -2   5   8    0.32    0.10
   2   5  -8    0.02    0.06
   2   5  -8    0.07    0.10
  -2   5   8    0.28    0.09
  -1  -5   8   13.94    0.55
  -1  -5   8   12.99    0.47
   1  -5  -8   13.25    0.49
  -1   5   8   13.37    0.50
   1   5  -8   13.10    0.46
  -1   5   8   13.68    0.50
   1   5  -8   11.99    0.42
   1   5  -8   13.80    0.48
   0  -5   8   10.16    0.43
   0  -5  -8    9.55    0.40
   0   5  -8    9.34    0.34
   0   5   8   10.16    0.41
   0   5  -8    9.78    0.36
   0   5   8    9.77    0.41
  -1  -5  -8    5.76    0.30
   1  -5   8    5.60    0.21
   1  -5   8    6.36    0.28
   1   5   8    6.15    0.33
   1   5   8    6.19    0.32
  -1   5  -8    5.83    0.22
  -1   5  -8    5.71    0.21
  -2  -5  -8    0.20    0.11
   2  -5   8    0.07    0.07
   2   5   8    0.00    0.12
  -3  -5  -8   -0.02    0.10
   3   5   8    0.10    0.13
  -4  -5  -8    0.14    0.12
   4   5   8    0.15    0.14
  -5  -5  -8    0.04    0.12
  -5  -5  -8    0.12    0.17
   5   5   8    0.08    0.09
   5   5   8   -0.08    0.14
  -5  -6   8    0.35    0.21
  -5   6   8   -0.11    0.09
  -4  -6   8    0.13    0.17
   4   6  -8   -0.06    0.12
  -4   6   8   -0.09    0.09
  -3  -6   8   -0.14    0.15
  -3   6   8   -0.04    0.09
   3   6  -8    0.12    0.12
  -2  -6   8    1.09    0.18
   2   6  -8    1.13    0.14
  -2   6   8    0.87    0.13
  -1  -6   8   -0.02    0.12
  -1   6   8    0.01    0.10
   1   6  -8    0.02    0.08
   0  -6  -8    0.44    0.11
   0  -6   8    0.43    0.13
   0   6   8    0.39    0.13
   0   6  -8    0.41    0.09
  -1  -6  -8    2.48    0.23
  -1   6  -8    2.46    0.12
   1   6   8    2.62    0.25
  -2  -6  -8    1.37    0.17
   2   6   8    1.38    0.18
  -3  -6  -8    0.48    0.13
   3   6   8    0.66    0.16
  -4  -6  -8    0.54    0.15
   9   0  -9   -0.15    0.15
  -8   0   9   -0.15    0.12
  -8   0   9   -0.10    0.14
   8   0  -9   -0.08    0.13
   7   0  -9   -0.10    0.11
  -7   0   9   -0.12    0.10
  -6   0   9   -0.18    0.11
  -6   0   9    0.04    0.09
  -5   0   9   -0.02    0.08
  -5   0   9   -0.12    0.09
   4   0  -9   -0.04    0.05
  -4   0   9   -0.08    0.07
   4   0  -9   -0.01    0.06
  -3   0   9   -0.04    0.06
   3   0  -9    0.00    0.05
   3   0  -9    0.00    0.05
  -2   0   9   -0.03    0.05
   2   0  -9    0.03    0.05
   2   0  -9   -0.03    0.05
  -2   0   9   -0.07    0.05
  -1   0   9   -0.10    0.05
   1   0  -9   -0.07    0.04
   1   0  -9   -0.09    0.04
  -1   0   9   -0.01    0.05
   0   0   9   -0.05    0.05
   0   0  -9   -0.11    0.05
   0   0  -9   -0.04    0.05
   0   0   9   -0.06    0.05
   0   0  -9   -0.07    0.05
  -1   0  -9   -0.06    0.05
   1   0   9   -0.10    0.05
   1   0   9   -0.08    0.05
  -1   0  -9   -0.05    0.05
  -1   0  -9   -0.04    0.05
  -2   0  -9   -0.03    0.06
  -2   0  -9    0.02    0.06
  -2   0  -9   -0.07    0.06
   2   0   9    0.00    0.06
   2   0   9   -0.02    0.06
  -3   0  -9   -0.06    0.06
  -3   0  -9   -0.07    0.06
   3   0   9   -0.21    0.08
   3   0   9   -0.03    0.06
   3   0   9   -0.08    0.07
   4   0   9    0.01    0.07
   4   0   9   -0.10    0.09
  -4   0  -9   -0.06    0.07
  -4   0  -9    0.01    0.07
   5   0   9   -0.08    0.08
  -5   0  -9    0.07    0.08
   5   0   9    0.05    0.10
  -5   0  -9   -0.05    0.07
  -6   0  -9   -0.04    0.08
  -6   0  -9    0.05    0.08
   6   0   9   -0.06    0.11
   6   0   9    0.04    0.09
   7   0   9   -0.07    0.12
  -7   0  -9    0.04    0.10
  -8   0  -9    0.01    0.11
   8   0   9    0.06    0.15
  -9  -1   9    0.05    0.15
   9   1  -9   -0.05    0.14
  -8  -1   9   -0.24    0.12
   8  -1  -9   -0.02    0.12
  -8  -1   9   -0.10    0.13
  -8   1   9    0.01    0.12
   8   1  -9   -0.24    0.13
  -7  -1   9    0.18    0.13
  -7  -1   9    0.05    0.13
   7   1  -9    0.01    0.12
  -7   1   9    0.28    0.11
  -6  -1   9    0.08    0.12
  -6  -1   9    0.10    0.10
   6   1  -9   -0.01    0.11
  -6   1   9    0.20    0.10
  -5  -1   9    0.75    0.12
  -5  -1   9    0.65    0.11
  -5   1   9    0.70    0.10
   4  -1  -9    4.94    0.25
  -4  -1   9    5.42    0.27
  -4  -1   9    5.39    0.25
   4  -1  -9    5.11    0.23
  -4   1   9    5.24    0.23
   4   1  -9    5.37    0.23
  -4   1   9    5.15    0.24
   3  -1  -9    1.03    0.11
  -3  -1   9    0.99    0.14
  -3  -1   9    0.85    0.09
   3  -1  -9    0.86    0.11
   3   1  -9    0.88    0.10
   3   1  -9    0.87    0.11
  -3   1   9    0.79    0.09
  -3   1   9    0.93    0.11
   2  -1  -9    2.32    0.15
   2  -1  -9    2.30    0.14
  -2  -1   9    2.51    0.14
  -2  -1   9    2.50    0.16
  -2   1   9    2.62    0.14
   2   1  -9    2.63    0.14
   2   1  -9    2.56    0.15
  -2   1   9    2.28    0.15
  -1  -1   9   18.22    0.58
  -1  -1   9   18.45    0.58
   1  -1  -9   18.53    0.59
   1  -1  -9   17.54    0.58
   1   1  -9   18.49    0.66
  -1   1   9   18.78    0.59
   1   1  -9   18.50    0.58
  -1   1   9   17.57    0.58
   0  -1   9   55.57    1.61
   0  -1  -9   54.37    1.62
   0  -1  -9   57.10    1.58
   0  -1   9   53.23    1.61
   0  -1  -9   53.01    1.62
   0   1  -9   54.23    1.61
   0   1   9   53.92    1.63
   0   1  -9   54.22    1.86
   0   1   9   53.38    1.62
   0   1  -9   56.18    1.58
  -1  -1  -9    1.98    0.14
   1  -1   9    2.00    0.12
   1  -1   9    1.83    0.12
  -1  -1  -9    2.02    0.14
  -1  -1  -9    1.76    0.14
   1   1   9    1.96    0.14
  -1   1  -9    2.04    0.12
  -1   1  -9    1.58    0.13
   1   1   9    1.99    0.14
  -1   1  -9    1.96    0.13
   2  -1   9    0.86    0.10
  -2  -1  -9    1.14    0.12
   2  -1   9    0.96    0.10
  -2  -1  -9    1.03    0.12
  -2  -1  -9    1.02    0.13
   2   1   9    1.12    0.12
  -2   1  -9    0.95    0.11
   2   1   9    0.81    0.10
  -2   1  -9    0.95    0.10
  -2   1  -9    0.94    0.08
  -2   1  -9    0.91    0.10
   3  -1   9    1.19    0.12
  -3  -1  -9    1.30    0.14
   3  -1   9    1.12    0.11
  -3  -1  -9    1.15    0.14
   3  -1   9    1.25    0.14
   3   1   9    1.25    0.15
   3   1   9    1.19    0.14
   3   1   9    1.19    0.15
  -3   1  -9    1.16    0.12
  -3   1  -9    1.29    0.11
   4  -1   9    4.85    0.25
   4  -1   9    4.58    0.21
   4  -1   9    4.82    0.21
  -4  -1  -9    4.70    0.24
  -4  -1  -9    4.57    0.24
   4   1   9    4.78    0.26
  -4   1  -9    4.39    0.21
  -4   1  -9    4.76    0.21
   4   1   9    4.30    0.25
   5  -1   9   -0.06    0.10
   5  -1   9    0.06    0.07
  -5  -1  -9    0.04    0.09
  -5  -1  -9    0.03    0.09
  -5   1  -9    0.12    0.07
   5   1   9    0.12    0.11
  -5   1  -9    0.09    0.07
   5   1   9    0.11    0.11
  -6  -1  -9    0.04    0.09
   6  -1   9    0.08    0.12
  -6  -1  -9    0.20    0.11
  -6  -1  -9    0.16    0.12
   6   1   9    0.19    0.12
  -6   1  -9    0.04    0.08
  -6   1  -9    0.12    0.06
   6   1   9    0.16    0.12
   7  -1   9    0.15    0.14
  -7  -1  -9    0.43    0.13
  -7  -1  -9    0.23    0.12
   7   1   9    0.40    0.15
   7   1   9    0.40    0.15
  -7   1  -9    0.26    0.10
   8  -1   9    2.79    0.31
   8   1   9    2.89    0.31
  -8  -2   9    0.01    0.14
  -8  -2   9    0.03    0.15
  -8   2   9   -0.09    0.12
   8   2  -9    0.00    0.15
  -7  -2   9   -0.05    0.11
  -7  -2   9   -0.06    0.13
   7   2  -9   -0.06    0.11
  -7   2   9   -0.14    0.10
  -6  -2   9    0.05    0.12
  -6  -2   9    0.06    0.13
  -6   2   9    0.10    0.10
  -6   2   9    0.12    0.07
   6   2  -9    0.14    0.12
  -5  -2   9   -0.19    0.11
  -5   2   9    0.07    0.09
  -5   2   9    0.10    0.07
  -4  -2   9    0.94    0.12
   4  -2  -9    1.20    0.13
  -4  -2   9    1.08    0.14
   4   2  -9    0.95    0.11
  -4   2   9    1.21    0.12
  -4   2   9    1.30    0.14
  -3  -2   9    2.48    0.19
   3  -2  -9    2.45    0.16
   3  -2  -9    2.51    0.15
  -3  -2   9    2.48    0.16
   3   2  -9    2.44    0.16
  -3   2   9    2.69    0.16
  -3   2   9    2.59    0.16
   3   2  -9    2.34    0.17
   2  -2  -9   16.96    0.55
  -2  -2   9   16.78    0.63
  -2  -2   9   16.54    0.55
   2   2  -9   16.83    0.54
   2   2  -9   16.45    0.63
  -2   2   9   17.13    0.56
  -2   2   9   17.18    0.56
  -1  -2   9    2.26    0.13
   1  -2  -9    2.20    0.14
  -1  -2   9    2.32    0.15
   1  -2  -9    2.08    0.14
   1   2  -9    2.44    0.13
  -1   2   9    2.16    0.15
   1   2  -9    2.18    0.14
  -1   2   9    2.30    0.15
   0  -2   9   19.42    0.61
   0  -2   9   20.09    0.62
   0  -2  -9   19.29    0.64
   0  -2  -9   20.20    0.62
   0  -2  -9   19.74    0.64
   0   2   9   19.76    0.64
   0   2  -9   19.79    0.61
   0   2  -9   19.31    0.71
   0   2   9   19.90    0.64
   0   2  -9   20.09    0.62
   1  -2   9   16.05    0.52
  -1  -2  -9   16.36    0.56
   1  -2   9   16.82    0.53
  -1  -2  -9   17.27    0.57
  -1  -2  -9   17.44    0.54
  -1   2  -9   16.81    0.54
   1   2   9   16.72    0.56
   1   2   9   17.71    0.57
  -1   2  -9   16.93    0.53
  -1   2  -9   16.25    0.60
   2  -2   9    4.47    0.18
  -2  -2  -9    4.70    0.23
  -2  -2  -9    4.59    0.23
   2  -2   9    4.47    0.18
   2   2   9    4.51    0.23
  -2   2  -9    4.38    0.19
   2   2   9    4.43    0.23
  -2   2  -9    4.45    0.18
  -2   2  -9    4.54    0.21
   3  -2   9    1.66    0.11
  -3  -2  -9    1.56    0.16
   3  -2   9    1.53    0.16
  -3  -2  -9    1.43    0.16
   3  -2   9    1.68    0.10
  -3   2  -9    1.68    0.11
   3   2   9    1.66    0.17
   3   2   9    1.41    0.17
  -3   2  -9    1.61    0.09
   4  -2   9    0.02    0.06
  -4  -2  -9   -0.19    0.09
   4  -2   9    0.08    0.10
  -4  -2  -9   -0.05    0.09
   4  -2   9    0.05    0.05
  -4   2  -9   -0.02    0.03
   4   2   9   -0.19    0.10
   4   2   9   -0.01    0.09
  -4   2  -9    0.02    0.03
  -4   2  -9   -0.02    0.05
   5  -2   9    1.09    0.15
  -5  -2  -9    0.86    0.14
   5  -2   9    1.34    0.13
  -5   2  -9    1.17    0.12
   5   2   9    0.95    0.14
   5   2   9    0.88    0.15
  -6  -2  -9   11.78    0.53
   6  -2   9   10.88    0.46
  -6  -2  -9   11.16    0.47
  -6   2  -9   10.50    0.39
   6   2   9   10.99    0.47
   6   2   9   11.04    0.48
  -7  -2  -9    0.27    0.15
  -7  -2  -9    0.18    0.13
   7  -2   9    0.14    0.14
   7   2   9    0.34    0.15
   7   2   9    0.11    0.14
  -7   2  -9    0.14    0.08
  -8  -3   9    0.27    0.15
  -8  -3   9    0.59    0.18
   8   3  -9    0.35    0.17
  -8   3   9    0.40    0.13
  -7  -3   9    1.16    0.19
  -7  -3   9    1.00    0.17
  -7   3   9    1.00    0.14
   7   3  -9    1.19    0.18
  -6  -3   9    1.51    0.17
  -6  -3   9    1.59    0.24
  -6   3   9    1.59    0.19
   6   3  -9    1.57    0.18
  -5  -3   9    0.08    0.11
  -5   3   9    0.04    0.09
   5   3  -9    0.01    0.10
  -5   3   9    0.08    0.07
  -4  -3   9    1.49    0.19
  -4  -3   9    1.38    0.18
  -4   3   9    1.79    0.15
   4   3  -9    1.48    0.16
  -4   3   9    1.64    0.16
   4   3  -9    1.37    0.15
  -3  -3   9    0.08    0.08
  -3  -3   9    0.12    0.11
   3   3  -9    0.04    0.07
   3   3  -9    0.06    0.08
  -3   3   9    0.29    0.08
  -3   3   9    0.25    0.08
  -2  -3   9    2.51    0.17
  -2  -3   9    2.58    0.19
   2  -3  -9    2.72    0.17
  -2   3   9    2.89    0.17
   2   3  -9    2.45    0.15
  -2   3   9    2.85    0.18
   2   3  -9    2.64    0.18
  -1  -3   9    0.34    0.09
  -1  -3   9    0.49    0.08
   1  -3  -9    0.42    0.08
  -1   3   9    0.51    0.09
   1   3  -9    0.48    0.09
   1   3  -9    0.45    0.07
  -1   3   9    0.47    0.09
   0  -3  -9   -0.06    0.07
   0  -3   9    0.04    0.07
   0  -3  -9    0.01    0.05
   0  -3  -9   -0.01    0.06
   0  -3   9   -0.02    0.05
   0  -3   9    0.03    0.05
   0   3  -9    0.02    0.04
   0   3   9   -0.03    0.07
   0   3  -9    0.04    0.05
   0   3   9    0.00    0.08
   0   3  -9   -0.03    0.05
   1  -3   9    0.54    0.06
  -1  -3  -9    0.57    0.08
   1  -3   9    0.66    0.08
  -1  -3  -9    0.48    0.09
  -1   3  -9    0.56    0.06
   1   3   9    0.44    0.10
  -1   3  -9    0.52    0.07
  -1   3  -9    0.50    0.07
   1   3   9    0.35    0.10
   2  -3   9    2.92    0.13
  -2  -3  -9    2.82    0.21
   2  -3   9    3.05    0.13
   2   3   9    2.80    0.21
  -2   3  -9    2.92    0.15
  -2   3  -9    2.67    0.13
  -3  -3  -9   11.50    0.44
   3  -3   9   10.80    0.35
   3  -3   9   10.88    0.34
  -3   3  -9   10.78    0.35
   3   3   9   10.47    0.41
   3   3   9   11.13    0.45
   4  -3   9    1.92    0.09
  -4  -3  -9    2.44    0.23
   4  -3   9    1.66    0.20
   4  -3   9    2.02    0.09
  -4   3  -9    1.89    0.09
   4   3   9    2.46    0.26
   4   3   9    1.83    0.21
  -5  -3  -9    0.98    0.14
   5  -3   9    0.80    0.13
   5   3   9    0.93    0.16
   5   3   9    0.70    0.13
  -6  -3  -9   -0.04    0.11
   6  -3   9    0.05    0.13
  -6  -3  -9   -0.13    0.16
   6   3   9   -0.15    0.13
   6   3   9   -0.16    0.11
   7  -3   9   -0.10    0.13
  -7  -3  -9    0.13    0.17
   7   3   9    0.04    0.13
   7   3   9   -0.05    0.15
  -7  -4   9    0.74    0.17
  -7  -4   9    0.83    0.21
  -7   4   9    0.78    0.13
   7   4  -9    0.82    0.18
  -6  -4   9    0.21    0.13
  -6  -4   9    0.10    0.16
  -6   4   9    0.32    0.11
   6   4  -9    0.45    0.14
  -5  -4   9   -0.18    0.14
  -5  -4   9   -0.03    0.11
  -5   4   9   -0.09    0.09
   5   4  -9   -0.05    0.11
  -4  -4   9    0.17    0.13
  -4  -4   9    0.16    0.10
  -4   4   9    0.21    0.08
  -4   4   9    0.11    0.09
   4   4  -9   -0.02    0.08
   4   4  -9    0.08    0.10
  -3  -4   9    8.05    0.34
  -3  -4   9    8.19    0.39
   3   4  -9    8.20    0.35
  -3   4   9    7.99    0.33
  -3   4   9    7.42    0.33
   3   4  -9    7.60    0.32
  -2  -4   9    8.48    0.34
   2  -4  -9    7.62    0.34
  -2  -4   9    8.62    0.39
  -2   4   9    8.72    0.35
  -2   4   9    8.54    0.35
   2   4  -9    8.08    0.32
   2   4  -9    8.64    0.35
   1  -4  -9    0.01    0.06
   1  -4  -9    0.12    0.08
  -1  -4   9    0.09    0.10
  -1  -4   9    0.12    0.08
  -1   4   9    0.31    0.10
  -1   4   9    0.23    0.09
   1   4  -9    0.13    0.09
   1   4  -9    0.15    0.06
   1   4  -9    0.03    0.06
   1   4  -9    0.05    0.07
   0  -4   9    0.49    0.11
   0  -4  -9    0.45    0.10
   0  -4  -9    0.44    0.07
   0  -4   9    0.23    0.08
   0   4  -9    0.28    0.07
   0   4  -9    0.62    0.10
   0   4  -9    0.48    0.07
   0   4  -9    0.28    0.08
   0   4   9    0.34    0.11
   0   4   9    0.45    0.10
   1  -4   9   -0.02    0.05
   1  -4   9   -0.04    0.05
   1  -4   9   -0.15    0.08
  -1  -4  -9   -0.15    0.08
   1   4   9   -0.13    0.10
  -1   4  -9    0.12    0.06
  -1   4  -9   -0.10    0.05
  -1   4  -9   -0.02    0.04
   1   4   9   -0.09    0.09
   2  -4   9    2.23    0.10
   2  -4   9    2.17    0.10
  -2  -4  -9    2.46    0.20
  -2   4  -9    2.16    0.10
   2   4   9    2.40    0.21
  -2   4  -9    2.07    0.10
  -3  -4  -9    0.29    0.11
   3   4   9    0.28    0.12
  -4  -4  -9    0.11    0.10
   4   4   9    0.06    0.12
   4   4   9    0.02    0.09
  -5  -4  -9    3.21    0.26
   5  -4   9    2.85    0.23
   5   4   9    3.22    0.23
   5   4   9    3.52    0.30
   6  -4   9    0.03    0.12
  -6  -4  -9    0.15    0.18
  -6  -4  -9    0.08    0.13
   6   4   9   -0.03    0.11
   6   4   9    0.02    0.15
  -6  -5   9    0.16    0.18
  -6  -5   9    0.15    0.13
  -6   5   9    0.15    0.10
  -5  -5   9    0.21    0.17
  -5  -5   9    0.33    0.13
   5   5  -9    0.33    0.14
  -5   5   9    0.33    0.10
  -4  -5   9    0.87    0.14
  -4  -5   9    1.35    0.19
   4   5  -9    1.02    0.15
  -4   5   9    1.08    0.13
  -3  -5   9    2.07    0.25
  -3  -5   9    1.93    0.20
  -3   5   9    1.94    0.19
   3   5  -9    1.58    0.20
   2  -5  -9    0.31    0.09
  -2  -5   9    0.21    0.10
  -2  -5   9    0.34    0.13
   2   5  -9    0.23    0.10
  -2   5   9    0.29    0.11
   1  -5  -9   10.38    0.41
  -1  -5   9   10.20    0.41
  -1  -5   9   10.79    0.46
  -1   5   9   10.02    0.41
  -1   5   9   10.49    0.42
   1   5  -9   10.02    0.40
   0  -5  -9    3.30    0.24
   0  -5   9    3.69    0.24
   0   5   9    3.42    0.24
   0   5   9    3.51    0.25
   0   5  -9    3.37    0.20
   1  -5   9    6.03    0.29
  -1  -5  -9    5.87    0.31
   1   5   9    6.22    0.33
  -1   5  -9    5.90    0.23
  -2  -5  -9    0.27    0.11
   2   5   9    0.28    0.13
  -3  -5  -9    0.07    0.11
   3   5   9    0.07    0.13
  -4  -5  -9    0.03    0.11
   4   5   9   -0.02    0.14
  -5  -5  -9    0.40    0.14
   5   5   9    0.54    0.17
  -4  -6   9   -0.12    0.16
   4   6  -9    0.23    0.13
  -4   6   9   -0.06    0.09
  -3  -6   9    0.02    0.15
   3   6  -9    0.03    0.11
  -3   6   9   -0.14    0.09
  -2  -6   9   -0.03    0.13
  -2   6   9    0.07    0.10
   2   6  -9    0.11    0.10
  -1  -6   9    0.07    0.12
   1   6  -9    0.05    0.09
  -1   6   9    0.06    0.11
   0  -6  -9    0.51    0.13
   0  -6   9    0.61    0.13
   0   6  -9    0.57    0.09
   0   6   9    0.79    0.15
  -1  -6  -9    3.90    0.27
   1   6   9    4.18    0.30
  -2  -6  -9    0.32    0.12
   2   6   9    0.35    0.15
  -3  -6  -9    4.87    0.32
   9   0 -10    0.43    0.17
   8   0 -10    3.63    0.30
  -8   0  10    3.66    0.29
  -7   0  10   -0.19    0.11
  -6   0  10    0.34    0.11
  -5   0  10    1.65    0.18
   4   0 -10    1.77    0.14
  -4   0  10    1.96    0.16
  -3   0  10   26.59    0.81
  -3   0  10   24.90    0.80
   3   0 -10   25.06    0.92
   3   0 -10   25.64    0.80
  -2   0  10    0.32    0.07
   2   0 -10    0.40    0.07
  -2   0  10    0.36    0.07
   2   0 -10    0.38    0.07
  -1   0  10    0.35    0.07
   1   0 -10    0.34    0.07
   1   0 -10    0.37    0.07
  -1   0  10    0.35    0.07
   0   0  10    0.85    0.10
   0   0 -10    0.75    0.09
   0   0 -10    0.65    0.08
   0   0  10    0.59    0.08
   0   0 -10    0.60    0.08
   0   0 -10    0.77    0.10
   1   0  10    7.85    0.29
  -1   0 -10    7.18    0.28
  -1   0 -10    7.57    0.29
  -1   0 -10    8.07    0.30
   1   0  10    7.66    0.29
   2   0  10   32.86    1.02
  -2   0 -10   34.37    1.01
  -2   0 -10   32.95    1.02
   2   0  10   32.52    1.02
  -2   0 -10   33.45    1.02
  -3   0 -10    0.30    0.08
   3   0  10    0.24    0.08
   3   0  10    0.17    0.09
  -3   0 -10    0.22    0.07
   4   0  10    1.26    0.14
   4   0  10    0.91    0.12
  -4   0 -10    1.16    0.15
  -4   0 -10    1.03    0.11
   5   0  10    0.26    0.10
  -5   0 -10    0.29    0.09
  -5   0 -10    0.34    0.09
   5   0  10    0.36    0.12
  -6   0 -10    0.08    0.08
   6   0  10    0.07    0.12
  -6   0 -10    0.01    0.09
   6   0  10   -0.03    0.09
   7   0  10   -0.04    0.14
  -7   0 -10    0.05    0.10
  -9  -1  10    0.28    0.16
   9   1 -10   -0.05    0.14
  -8  -1  10    0.07    0.13
  -8  -1  10   -0.02    0.14
   8  -1 -10   -0.04    0.12
   8   1 -10   -0.04    0.13
  -8   1  10    0.05    0.12
  -7  -1  10    0.11    0.14
  -7  -1  10    0.12    0.13
  -7   1  10    0.14    0.11
   7   1 -10    0.01    0.13
  -6  -1  10    1.93    0.23
  -6  -1  10    1.91    0.22
  -6   1  10    2.07    0.20
  -5  -1  10    1.38    0.18
  -5  -1  10    1.44    0.18
  -5   1  10    1.49    0.15
  -5   1  10    1.72    0.18
  -4  -1  10    0.39    0.11
  -4  -1  10    0.45    0.09
   4   1 -10    0.45    0.08
  -4   1  10    0.39    0.08
  -4   1  10    0.42    0.10
  -3  -1  10    0.71    0.09
   3  -1 -10    0.65    0.09
  -3  -1  10    0.64    0.11
   3  -1 -10    0.67    0.08
  -3   1  10    0.67    0.08
   3   1 -10    0.59    0.08
   3   1 -10    0.63    0.09
  -3   1  10    0.61    0.09
  -2  -1  10    0.05    0.07
   2  -1 -10    0.12    0.06
   2  -1 -10    0.06    0.06
  -2   1  10    0.11    0.06
   2   1 -10    0.12    0.06
   2   1 -10    0.18    0.06
  -2   1  10    0.15    0.06
  -1  -1  10   14.22    0.46
  -1  -1  10   13.39    0.46
   1  -1 -10   14.16    0.47
   1  -1 -10   13.89    0.47
  -1   1  10   13.50    0.46
   1   1 -10   13.55    0.52
   1   1 -10   14.24    0.46
  -1   1  10   13.60    0.47
   0  -1 -10    1.71    0.13
   0  -1  10    1.58    0.12
   0  -1 -10    1.61    0.13
   0  -1  10    1.49    0.12
   0  -1 -10    1.53    0.13
   0   1 -10    1.49    0.12
   0   1  10    1.68    0.14
   0   1 -10    1.58    0.12
   0   1  10    1.50    0.13
   0   1 -10    1.55    0.12
  -1  -1 -10    0.03    0.06
   1  -1  10    0.02    0.05
  -1  -1 -10    0.01    0.06
  -1  -1 -10    0.13    0.06
   1  -1  10    0.01    0.05
  -1   1 -10    0.04    0.06
  -1   1 -10    0.01    0.05
  -1   1 -10    0.00    0.04
   1   1  10    0.08    0.07
   1   1  10    0.01    0.06
  -2  -1 -10    0.21    0.07
   2  -1  10    0.13    0.06
   2  -1  10    0.15    0.06
  -2  -1 -10    0.17    0.07
  -2  -1 -10    0.13    0.07
  -2   1 -10    0.19    0.07
   2   1  10    0.16    0.08
   2   1  10    0.17    0.07
  -2   1 -10    0.09    0.06
  -2   1 -10    0.17    0.06
  -2   1 -10    0.11    0.05
   3  -1  10    0.01    0.06
   3  -1  10   -0.03    0.08
   3  -1  10    0.01    0.06
  -3  -1 -10   -0.06    0.07
  -3  -1 -10   -0.04    0.07
  -3   1 -10    0.01    0.06
   3   1  10    0.02    0.09
  -3   1 -10    0.02    0.06
   3   1  10   -0.07    0.08
   4  -1  10    5.93    0.25
  -4  -1 -10    5.85    0.29
  -4  -1 -10    5.85    0.28
   4  -1  10    6.04    0.30
  -4   1 -10    6.20    0.25
  -4   1 -10    5.96    0.25
   4   1  10    5.44    0.28
   4   1  10    6.01    0.30
  -5  -1 -10   -0.03    0.08
   5  -1  10    0.04    0.11
  -5  -1 -10    0.00    0.09
   5  -1  10   -0.06    0.07
  -5   1 -10    0.00    0.07
   5   1  10   -0.03    0.11
  -5   1 -10   -0.04    0.07
   5   1  10   -0.06    0.10
   6  -1  10    2.11    0.25
  -6  -1 -10    1.90    0.21
  -6   1 -10    2.13    0.18
   6   1  10    2.04    0.25
   6   1  10    2.16    0.23
  -7  -1 -10    1.06    0.16
  -7  -1 -10    0.86    0.14
   7  -1  10    0.87    0.17
   7   1  10    0.87    0.17
  -7   1 -10    0.73    0.12
  -8  -2  10    0.17    0.14
  -8  -2  10    0.04    0.16
  -8   2  10   -0.07    0.12
   8   2 -10    0.09    0.15
  -7  -2  10    0.03    0.11
  -7  -2  10   -0.08    0.14
  -7   2  10    0.00    0.11
   7   2 -10    0.07    0.12
  -6  -2  10    1.27    0.18
  -6  -2  10    1.01    0.15
   6   2 -10    1.06    0.15
  -6   2  10    0.88    0.13
  -6   2  10    0.80    0.11
  -5  -2  10    6.50    0.35
  -5  -2  10    6.32    0.32
  -5   2  10    6.31    0.28
  -5   2  10    6.65    0.30
  -4  -2  10    0.11    0.09
  -4  -2  10    0.01    0.11
  -4   2  10    0.35    0.07
  -4   2  10    0.29    0.09
   4   2 -10   -0.01    0.07
  -3  -2  10    2.82    0.21
  -3  -2  10    2.91    0.19
  -3   2  10    3.06    0.18
   3   2 -10    2.88    0.17
  -3   2  10    3.32    0.18
  -2  -2  10    4.11    0.20
   2  -2 -10    4.02    0.20
  -2  -2  10    4.00    0.22
  -2   2  10    3.94    0.20
   2   2 -10    3.75    0.21
   2   2 -10    4.11    0.19
  -2   2  10    4.12    0.20
  -1  -2  10    0.61    0.10
   1  -2 -10    0.49    0.08
  -1  -2  10    0.56    0.08
  -1  -2  10    0.56    0.07
   1  -2 -10    0.62    0.09
  -1   2  10    0.47    0.09
   1   2 -10    0.50    0.08
  -1   2  10    0.56    0.09
   1   2 -10    0.62    0.07
   0  -2 -10    1.20    0.13
   0  -2 -10    1.13    0.12
   0  -2  10    1.10    0.11
   0  -2 -10    0.91    0.12
   0  -2  10    1.02    0.11
   0   2  10    1.16    0.14
   0   2 -10    1.07    0.10
   0   2 -10    0.94    0.12
   0   2  10    1.03    0.13
   0   2 -10    1.06    0.10
  -1  -2 -10    3.82    0.19
   1  -2  10    3.88    0.17
  -1  -2 -10    4.04    0.21
   1  -2  10    3.86    0.17
  -1  -2 -10    3.88    0.21
  -1   2 -10    3.93    0.18
  -1   2 -10    3.62    0.18
  -1   2 -10    3.90    0.19
   1   2  10    4.04    0.21
   1   2  10    3.99    0.21
   2  -2  10    0.41    0.07
  -2  -2 -10    0.45    0.09
  -2  -2 -10    0.31    0.08
   2  -2  10    0.49    0.06
  -2  -2 -10    0.48    0.09
  -2   2 -10    0.48    0.07
  -2   2 -10    0.42    0.08
  -2   2 -10    0.49    0.07
   2   2  10    0.31    0.10
  -3  -2 -10   -0.11    0.08
   3  -2  10    0.02    0.05
   3  -2  10   -0.08    0.05
   3  -2  10   -0.20    0.08
  -3  -2 -10   -0.12    0.08
   3   2  10   -0.20    0.10
  -3   2 -10   -0.01    0.04
  -3   2 -10    0.00    0.05
   3   2  10   -0.10    0.09
  -4  -2 -10   -0.10    0.09
   4  -2  10   -0.22    0.10
   4  -2  10   -0.01    0.05
   4  -2  10   -0.02    0.06
   4   2  10   -0.17    0.10
   4   2  10   -0.21    0.10
  -4   2 -10   -0.05    0.06
  -4   2 -10    0.01    0.06
  -4   2 -10    0.03    0.03
  -5  -2 -10    0.52    0.14
   5  -2  10    0.58    0.14
   5   2  10    0.58    0.14
  -5   2 -10    0.68    0.08
   5   2  10    0.42    0.15
  -6  -2 -10    0.18    0.12
   6  -2  10    0.15    0.14
   6   2  10    0.03    0.14
  -6   2 -10   -0.07    0.07
   6   2  10    0.20    0.14
   7  -2  10    0.38    0.15
  -7  -2 -10    0.21    0.13
  -7  -2 -10    0.46    0.16
   7   2  10    0.18    0.15
   7   2  10    0.34    0.15
  -7   2 -10    0.18    0.08
  -8  -3  10    1.36    0.19
  -8   3  10    1.93    0.23
   8   3 -10    1.37    0.20
  -7  -3  10    7.34    0.41
  -7  -3  10    6.79    0.38
   7   3 -10    7.14    0.40
  -7   3  10    7.52    0.35
  -6  -3  10    3.19    0.27
  -6  -3  10    2.77    0.27
  -6   3  10    2.95    0.22
   6   3 -10    2.80    0.26
  -5  -3  10    2.33    0.23
  -5  -3  10    2.03    0.26
   5   3 -10    2.31    0.23
  -5   3  10    2.44    0.17
  -5   3  10    2.40    0.21
  -4  -3  10   -0.01    0.10
  -4  -3  10   -0.28    0.12
   4   3 -10   -0.02    0.09
  -4   3  10    0.02    0.08
  -4   3  10    0.03    0.06
   4   3 -10   -0.10    0.07
  -3  -3  10   -0.18    0.10
  -3  -3  10   -0.15    0.08
   3   3 -10   -0.16    0.06
  -3   3  10    0.05    0.07
  -3   3  10   -0.02    0.08
  -2  -3  10    0.00    0.08
   2  -3 -10    0.12    0.08
  -2  -3  10    0.15    0.10
  -2   3  10    0.27    0.09
  -2   3  10    0.23    0.07
   2   3 -10    0.04    0.07
   1  -3 -10    3.22    0.17
   1  -3 -10    3.23    0.19
  -1  -3  10    3.11    0.20
  -1  -3  10    3.11    0.17
  -1   3  10    3.24    0.19
   1   3 -10    3.11    0.17
  -1   3  10    3.33    0.20
   1   3 -10    3.36    0.19
   0  -3  10    2.27    0.14
   0  -3 -10    2.37    0.18
   0  -3 -10    2.26    0.15
   0  -3  10    2.26    0.17
   0  -3  10    2.37    0.14
   0   3 -10    2.40    0.14
   0   3  10    2.44    0.17
   0   3  10    2.51    0.19
   0   3 -10    2.42    0.15
   0   3 -10    2.27    0.15
   1  -3  10    2.10    0.13
   1  -3  10    2.23    0.13
  -1  -3 -10    2.28    0.19
  -1  -3 -10    2.18    0.14
   1   3  10    2.33    0.19
  -1   3 -10    2.20    0.14
  -1   3 -10    2.08    0.13
   1   3  10    2.19    0.20
  -1   3 -10    2.12    0.15
   2  -3  10    0.16    0.05
  -2  -3 -10    0.05    0.09
   2  -3  10    0.05    0.05
   2   3  10    0.03    0.11
  -2   3 -10    0.08    0.03
  -2   3 -10    0.22    0.05
  -3  -3 -10    0.66    0.12
   3  -3  10    1.05    0.09
   3  -3  10    0.87    0.08
  -3   3 -10    1.00    0.09
   3   3  10    0.61    0.13
  -3   3 -10    0.93    0.08
   4  -3  10    1.13    0.08
  -4  -3 -10    0.85    0.14
   4  -3  10    0.56    0.13
   4   3  10    1.00    0.15
  -4   3 -10    1.09    0.08
   4   3  10    0.61    0.13
   5  -3  10   -0.03    0.11
  -5  -3 -10    0.09    0.12
   5   3  10    0.09    0.14
   5   3  10   -0.02    0.11
   6  -3  10    0.00    0.12
  -6  -3 -10   -0.16    0.11
   6   3  10    0.08    0.15
   6   3  10   -0.03    0.12
   7  -3  10    0.17    0.14
  -7  -3 -10    0.09    0.16
   7   3  10    0.09    0.14
   7   3  10    0.26    0.16
  -7  -4  10    0.76    0.20
  -7  -4  10    0.51    0.16
  -7   4  10    0.83    0.14
  -6  -4  10    0.23    0.17
  -6  -4  10    0.34    0.14
   6   4 -10    0.35    0.14
  -6   4  10    0.29    0.12
  -5  -4  10    0.14    0.11
  -5  -4  10    0.25    0.15
  -5   4  10   -0.02    0.10
   5   4 -10    0.14    0.12
  -4  -4  10    0.70    0.13
  -4  -4  10    0.73    0.16
   4   4 -10    0.77    0.11
  -4   4  10    0.75    0.12
   4   4 -10    0.63    0.13
  -3  -4  10    0.44    0.10
  -3  -4  10    0.36    0.13
   3   4 -10    0.44    0.09
   3   4 -10    0.53    0.11
  -3   4  10    0.48    0.10
  -3   4  10    0.44    0.11
  -2  -4  10    0.87    0.14
   2  -4 -10    0.80    0.12
  -2  -4  10    0.84    0.12
   2   4 -10    1.00    0.12
  -2   4  10    0.99    0.12
   2   4 -10    0.81    0.10
  -2   4  10    0.93    0.12
   1  -4 -10    7.78    0.32
   1  -4 -10    7.30    0.28
  -1  -4  10    6.99    0.34
  -1  -4  10    7.14    0.31
  -1   4  10    7.64    0.33
   1   4 -10    7.49    0.28
   1   4 -10    6.84    0.28
  -1   4  10    7.88    0.33
   1   4 -10    6.59    0.30
   0  -4  10   -0.05    0.07
   0  -4 -10   -0.02    0.06
   0  -4  10   -0.10    0.09
   0  -4 -10   -0.02    0.09
   0   4  10   -0.05    0.10
   0   4 -10   -0.11    0.07
   0   4 -10   -0.08    0.06
   0   4 -10    0.05    0.08
   0   4 -10    0.03    0.06
   0   4  10    0.11    0.09
   1  -4  10    0.59    0.07
   1  -4  10    0.44    0.10
   1  -4  10    0.62    0.07
  -1  -4 -10    0.66    0.12
  -1   4 -10    0.61    0.08
  -1   4 -10    0.82    0.11
   1   4  10    0.59    0.13
  -1   4 -10    0.58    0.09
  -2  -4 -10    0.02    0.09
   2  -4  10   -0.02    0.04
   2   4  10    0.09    0.11
  -2   4 -10   -0.03    0.04
  -2   4 -10   -0.01    0.04
  -3  -4 -10    0.01    0.09
   3   4  10   -0.01    0.11
  -4  -4 -10    0.75    0.14
   4   4  10    0.91    0.16
   5  -4  10    0.15    0.11
  -5  -4 -10    0.19    0.12
   5   4  10    0.16    0.11
   5   4  10    0.21    0.14
  -6  -4 -10    0.34    0.19
   6  -4  10    0.21    0.13
   6   4  10    0.08    0.12
   6   4  10    0.26    0.16
  -6  -5  10    0.06    0.13
  -6   5  10   -0.15    0.10
  -5  -5  10    0.32    0.13
  -5  -5  10    0.34    0.17
   5   5 -10    0.33    0.14
  -5   5  10    0.36    0.11
  -4  -5  10    0.52    0.16
  -4  -5  10    0.36    0.13
   4   5 -10    0.54    0.14
  -4   5  10    0.36    0.11
  -3  -5  10    2.59    0.22
  -3  -5  10    2.35    0.25
   3   5 -10    2.23    0.23
  -3   5  10    2.50    0.21
  -2  -5  10   -0.04    0.12
   2  -5 -10   -0.05    0.09
  -2   5  10   -0.04    0.10
   2   5 -10    0.02    0.09
  -1  -5  10    1.01    0.15
   1  -5 -10    0.76    0.12
  -1   5  10    0.94    0.14
  -1   5  10    0.91    0.14
   1   5 -10    0.75    0.11
   0  -5 -10    3.12    0.24
   0  -5  10    3.23    0.23
   0   5 -10    3.21    0.19
   0   5  10    3.27    0.25
   1  -5  10    1.10    0.16
  -1  -5 -10    0.97    0.14
   1   5  10    1.07    0.16
  -1   5 -10    1.03    0.11
  -2  -5 -10    0.47    0.12
   2   5  10    0.54    0.14
  -3  -5 -10    0.02    0.11
   3   5  10    0.10    0.13
  -4  -5 -10   -0.04    0.11
   4   5  10    0.02    0.14
  -5  -5 -10    0.11    0.12
  -4  -6  10   -0.03    0.16
  -4   6  10   -0.11    0.10
  -3  -6  10   -0.26    0.14
  -3   6  10   -0.07    0.10
   3   6 -10   -0.08    0.10
  -2  -6  10    0.13    0.14
   2   6 -10    0.22    0.10
  -2   6  10    0.23    0.12
  -1  -6  10    0.06    0.12
  -1   6  10   -0.02    0.11
   1   6 -10   -0.02    0.08
   0  -6  10    0.35    0.13
   0   6 -10    0.10    0.08
   0   6  10    0.10    0.13
  -1  -6 -10    3.05    0.26
   1   6  10    3.16    0.29
  -2  -6 -10    1.16    0.17
  -3  -6 -10    0.93    0.16
  -8   0  11    0.02    0.14
   8   0 -11    0.11    0.14
  -7   0  11   -0.07    0.12
  -6   0  11   -0.15    0.09
  -5   0  11   -0.08    0.08
  -4   0  11   -0.08    0.08
  -3   0  11   -0.12    0.06
   3   0 -11   -0.04    0.06
  -3   0  11   -0.09    0.06
  -2   0  11    0.00    0.05
  -2   0  11   -0.05    0.06
   2   0 -11    0.01    0.06
   2   0 -11   -0.01    0.06
   1   0 -11   -0.05    0.05
  -1   0  11    0.00    0.06
  -1   0  11    0.00    0.06
   1   0 -11    0.01    0.06
   0   0 -11   -0.12    0.06
   0   0  11   -0.01    0.06
   0   0 -11    0.00    0.05
   0   0  11    0.01    0.06
   0   0 -11   -0.07    0.06
  -1   0 -11   -0.04    0.06
  -1   0 -11   -0.03    0.06
   1   0  11    0.02    0.06
   1   0  11    0.00    0.06
  -1   0 -11   -0.05    0.06
   2   0  11    0.02    0.07
  -2   0 -11   -0.06    0.06
  -2   0 -11   -0.04    0.06
  -3   0 -11   -0.04    0.07
   3   0  11   -0.05    0.07
  -3   0 -11   -0.05    0.07
   3   0  11   -0.06    0.09
  -4   0 -11   -0.08    0.07
   4   0  11    0.05    0.10
  -4   0 -11   -0.01    0.08
   4   0  11   -0.08    0.08
  -5   0 -11   -0.02    0.08
  -5   0 -11   -0.08    0.08
   5   0  11    0.09    0.11
   5   0  11    0.00    0.09
  -6   0 -11   -0.06    0.09
   6   0  11    0.08    0.13
  -7   0 -11   -0.06    0.10
   7   0  11   -0.08    0.15
  -8  -1  11    0.06    0.13
  -8  -1  11    0.02    0.15
  -8   1  11   -0.04    0.12
   8   1 -11   -0.11    0.12
  -7  -1  11    1.97    0.24
  -7  -1  11    2.09    0.26
  -7   1  11    1.86    0.23
   7   1 -11    1.61    0.19
  -6  -1  11    2.19    0.21
  -6  -1  11    2.22    0.24
  -6   1  11    1.99    0.22
  -5  -1  11   -0.17    0.11
  -5  -1  11   -0.03    0.09
  -5   1  11   -0.09    0.09
  -5   1  11   -0.15    0.07
  -4  -1  11    0.29    0.10
  -4  -1  11    0.09    0.11
  -4   1  11    0.17    0.09
  -4   1  11    0.21    0.07
   3  -1 -11   30.48    0.93
  -3  -1  11   29.55    0.93
  -3   1  11   29.64    0.93
   3   1 -11   28.70    0.92
  -3   1  11   29.19    0.92
  -2  -1  11    7.07    0.28
   2  -1 -11    6.84    0.28
  -2  -1  11    6.56    0.27
  -2   1  11    7.08    0.28
  -2   1  11    7.07    0.28
   2   1 -11    7.25    0.28
   2   1 -11    6.59    0.30
  -1  -1  11    1.02    0.11
  -1  -1  11    1.10    0.12
   1  -1 -11    1.01    0.12
   1   1 -11    0.97    0.11
  -1   1  11    1.17    0.14
   1   1 -11    1.17    0.11
  -1   1  11    1.10    0.12
   0  -1  11    0.49    0.07
   0  -1 -11    0.47    0.08
   0  -1 -11    0.44    0.08
   0  -1 -11    0.48    0.08
   0  -1  11    0.42    0.07
   0   1  11    0.52    0.08
   0   1 -11    0.45    0.07
   0   1  11    0.46    0.08
   0   1 -11    0.46    0.08
   0   1 -11    0.55    0.07
   1  -1  11    0.91    0.11
  -1  -1 -11    0.89    0.10
  -1  -1 -11    0.72    0.10
   1  -1  11    0.94    0.11
  -1  -1 -11    0.77    0.09
   1   1  11    0.77    0.10
  -1   1 -11    0.93    0.10
  -1   1 -11    1.00    0.13
  -1   1 -11    0.86    0.11
   1   1  11    0.69    0.10
  -2  -1 -11    0.04    0.08
  -2  -1 -11   -0.02    0.08
   2  -1  11    0.18    0.06
   2  -1  11    0.24    0.07
  -2   1 -11    0.16    0.07
  -2   1 -11    0.09    0.06
   2   1  11    0.06    0.09
  -2   1 -11    0.10    0.05
  -3  -1 -11    5.85    0.28
  -3  -1 -11    5.95    0.28
   3  -1  11    6.03    0.29
   3  -1  11    5.98    0.25
  -3   1 -11    6.35    0.25
  -3   1 -11    6.28    0.25
   3   1  11    5.63    0.28
   3   1  11    5.61    0.28
  -3   1 -11    5.79    0.25
  -4  -1 -11    0.18    0.10
   4  -1  11    0.32    0.08
  -4  -1 -11    0.25    0.10
   4  -1  11    0.19    0.11
   4   1  11    0.29    0.11
  -4   1 -11    0.28    0.08
  -4   1 -11    0.29    0.08
   4   1  11    0.19    0.11
   5  -1  11    0.20    0.12
  -5  -1 -11    0.13    0.10
   5  -1  11    0.11    0.08
  -5  -1 -11    0.19    0.10
   5   1  11    0.10    0.12
   5   1  11    0.14    0.11
  -5   1 -11    0.14    0.08
  -6  -1 -11    0.25    0.12
   6  -1  11    0.00    0.13
  -6   1 -11    0.06    0.09
   6   1  11    0.18    0.12
   6   1  11    0.07    0.14
  -7  -1 -11    0.19    0.12
  -7  -1 -11    0.08    0.13
   7  -1  11    0.02    0.16
  -7   1 -11    0.01    0.09
   7   1  11   -0.05    0.15
  -8  -2  11   -0.05    0.13
  -8  -2  11    0.03    0.16
   8   2 -11   -0.12    0.14
  -8   2  11   -0.14    0.12
  -7  -2  11    0.49    0.14
  -7  -2  11    0.60    0.17
  -7   2  11    0.50    0.13
   7   2 -11    0.70    0.15
  -6  -2  11    0.32    0.15
  -6  -2  11    0.37    0.13
  -6   2  11    0.32    0.12
  -6   2  11    0.20    0.08
   6   2 -11    0.44    0.13
  -5  -2  11   26.58    0.87
  -5  -2  11   26.50    0.99
  -5   2  11   27.05    0.86
  -5   2  11   24.31    0.84
  -4  -2  11    5.39    0.32
  -4  -2  11    5.26    0.28
   4   2 -11    5.12    0.25
  -4   2  11    5.76    0.26
  -4   2  11    5.72    0.26
  -3  -2  11    2.25    0.19
  -3  -2  11    2.23    0.21
  -3   2  11    2.69    0.17
  -3   2  11    2.60    0.17
   3   2 -11    2.23    0.16
  -2  -2  11    0.21    0.07
  -2  -2  11    0.20    0.09
   2   2 -11    0.15    0.07
  -2   2  11    0.12    0.08
   2   2 -11    0.15    0.07
  -2   2  11    0.07    0.07
   1  -2 -11    0.80    0.10
  -1  -2  11    1.05    0.11
  -1  -2  11    0.90    0.12
   1  -2 -11    0.82    0.10
   1   2 -11    0.89    0.12
   1   2 -11    0.91    0.11
  -1   2  11    0.80    0.11
  -1   2  11    0.82    0.10
   0  -2 -11    5.36    0.24
   0  -2 -11    5.19    0.23
   0  -2  11    5.14    0.21
   0  -2 -11    4.74    0.24
   0  -2  11    4.94    0.22
   0   2  11    4.89    0.24
   0   2 -11    5.28    0.22
   0   2 -11    4.94    0.23
   0   2 -11    5.08    0.24
   0   2  11    5.17    0.24
   1  -2  11   13.11    0.44
  -1  -2 -11   13.82    0.48
   1  -2  11   13.77    0.45
  -1  -2 -11   14.24    0.47
  -1  -2 -11   12.97    0.48
   1   2  11   13.71    0.48
  -1   2 -11   13.69    0.46
  -1   2 -11   13.81    0.45
  -1   2 -11   13.07    0.51
  -2  -2 -11   -0.07    0.08
   2  -2  11   -0.07    0.05
   2  -2  11   -0.05    0.06
  -2  -2 -11   -0.04    0.08
  -2   2 -11   -0.04    0.05
   2   2  11   -0.19    0.09
  -2   2 -11   -0.04    0.04
  -3  -2 -11    1.95    0.20
   3  -2  11    2.07    0.13
   3   2  11    1.58    0.21
  -3   2 -11    1.98    0.12
  -3   2 -11    2.06    0.14
  -4  -2 -11   -0.16    0.10
   4  -2  11    0.08    0.06
   4  -2  11   -0.12    0.10
   4   2  11   -0.12    0.11
   4   2  11   -0.17    0.11
  -4   2 -11   -0.01    0.06
  -4   2 -11    0.02    0.04
  -5  -2 -11   -0.05    0.11
   5  -2  11   -0.28    0.12
  -5   2 -11    0.03    0.07
   5   2  11   -0.10    0.12
   5   2  11   -0.14    0.12
   6  -2  11    0.05    0.14
  -6  -2 -11    0.11    0.12
   6   2  11    0.15    0.14
   6   2  11   -0.04    0.13
  -6   2 -11    0.11    0.08
  -7  -2 -11    0.14    0.15
   7  -2  11    0.01    0.15
   7   2  11    0.03    0.15
  -7   2 -11    0.04    0.07
  -7  -3  11    3.56    0.31
  -7  -3  11    3.93    0.33
   7   3 -11    3.96    0.33
  -7   3  11    3.49    0.27
  -6  -3  11    1.22    0.19
  -6  -3  11    0.98    0.16
   6   3 -11    1.03    0.16
  -6   3  11    1.80    0.22
  -5  -3  11    1.54    0.20
  -5  -3  11    1.37    0.16
  -5   3  11    1.50    0.17
  -5   3  11    1.62    0.21
   5   3 -11    2.00    0.22
  -4  -3  11   -0.10    0.09
  -4   3  11   -0.11    0.07
   4   3 -11    0.04    0.09
   4   3 -11   -0.13    0.08
  -4   3  11   -0.22    0.09
  -3  -3  11    0.70    0.14
  -3  -3  11    0.93    0.12
  -3   3  11    0.92    0.11
   3   3 -11    0.76    0.10
  -3   3  11    0.72    0.12
  -2  -3  11    5.02    0.28
   2  -3 -11    5.18    0.25
  -2  -3  11    4.72    0.24
   2   3 -11    4.83    0.23
  -2   3  11    5.14    0.26
  -2   3  11    5.29    0.25
   1  -3 -11   -0.03    0.06
   1  -3 -11    0.03    0.08
  -1  -3  11   -0.09    0.07
  -1   3  11    0.00    0.08
   1   3 -11   -0.05    0.06
  -1   3  11   -0.02    0.09
   1   3 -11   -0.11    0.05
   1   3 -11   -0.01    0.06
   0  -3 -11    1.67    0.16
   0  -3 -11    1.64    0.14
   0  -3  11    1.57    0.14
   0   3  11    1.63    0.19
   0   3 -11    1.60    0.13
   0   3  11    1.63    0.17
   0   3 -11    1.68    0.14
   0   3 -11    1.78    0.14
  -1  -3 -11    5.05    0.23
   1  -3  11    4.87    0.21
   1  -3  11    4.73    0.21
  -1  -3 -11    4.99    0.26
  -1   3 -11    4.79    0.21
   1   3  11    5.13    0.27
  -1   3 -11    4.84    0.23
  -2  -3 -11    1.90    0.19
   2  -3  11    2.15    0.13
   2  -3  11    1.84    0.12
  -2   3 -11    1.56    0.12
   2   3  11    1.62    0.20
  -2   3 -11    2.01    0.13
  -3  -3 -11    1.19    0.15
   3  -3  11    1.45    0.11
   3   3  11    1.08    0.15
  -3   3 -11    1.28    0.10
  -3   3 -11    1.21    0.09
  -4  -3 -11    0.07    0.11
   4   3  11    0.14    0.12
   5  -3  11   -0.10    0.11
  -5  -3 -11    0.01    0.11
   5   3  11    0.00    0.11
   5   3  11   -0.03    0.12
  -6  -3 -11   -0.05    0.12
   6  -3  11   -0.04    0.12
   6   3  11    0.04    0.13
   6   3  11   -0.07    0.14
  -7  -4  11    0.15    0.14
  -7   4  11    0.06    0.12
  -6  -4  11    1.15    0.20
  -6  -4  11    0.77    0.16
   6   4 -11    0.84    0.17
  -6   4  11    0.71    0.14
  -5  -4  11   -0.01    0.11
  -5  -4  11    0.24    0.15
  -5   4  11   -0.05    0.10
   5   4 -11    0.10    0.12
  -4  -4  11    1.17    0.17
  -4  -4  11    1.08    0.14
  -4   4  11    1.00    0.13
   4   4 -11    1.08    0.14
  -3  -4  11    0.92    0.15
  -3  -4  11    0.88    0.12
  -3   4  11    0.63    0.11
   3   4 -11    0.99    0.13
   3   4 -11    0.87    0.11
  -3   4  11    0.59    0.12
  -2  -4  11    0.76    0.11
  -2  -4  11    0.44    0.13
   2  -4 -11    0.52    0.11
  -2   4  11    0.70    0.12
   2   4 -11    0.71    0.09
  -2   4  11    0.76    0.11
   2   4 -11    0.72    0.11
   1  -4 -11    3.24    0.18
  -1  -4  11    2.84    0.23
  -1  -4  11    2.96    0.19
   1  -4 -11    3.07    0.21
   1   4 -11    3.18    0.18
   1   4 -11    2.70    0.17
  -1   4  11    3.31    0.23
   1   4 -11    2.74    0.19
  -1   4  11    3.06    0.22
   0  -4  11    2.21    0.20
   0  -4  11    2.53    0.17
   0  -4 -11    2.63    0.16
   0  -4 -11    3.09    0.21
   0   4 -11    2.20    0.17
   0   4 -11    2.77    0.19
   0   4  11    2.82    0.21
   0   4 -11    2.53    0.16
   0   4 -11    2.81    0.17
  -1  -4 -11    0.17    0.10
  -1   4 -11    0.05    0.05
   1   4  11    0.04    0.11
  -1   4 -11    0.30    0.08
  -1   4 -11    0.10    0.06
  -2  -4 -11    0.34    0.11
   2  -4  11    0.21    0.05
  -2   4 -11    0.25    0.06
   2   4  11    0.25    0.12
  -3  -4 -11    0.13    0.10
   3   4  11    0.06    0.12
  -4  -4 -11   -0.11    0.11
   4   4  11    0.06    0.13
  -5  -4 -11    0.09    0.11
   5   4  11    0.18    0.14
  -5  -5  11    0.08    0.17
  -5  -5  11    0.15    0.14
  -5   5  11    0.15    0.11
   5   5 -11    0.14    0.13
  -4  -5  11    0.08    0.15
   4   5 -11    0.15    0.12
  -4   5  11    0.02    0.11
  -3  -5  11    1.56    0.23
   3   5 -11    1.08    0.15
  -3   5  11    1.14    0.14
   2  -5 -11   -0.04    0.09
  -2  -5  11    0.07    0.12
   2   5 -11   -0.06    0.09
  -2   5  11   -0.10    0.10
   1  -5 -11    0.17    0.10
  -1  -5  11    0.23    0.12
   1   5 -11    0.25    0.09
  -1   5  11    0.27    0.12
   0  -5  11   -0.14    0.10
   0  -5 -11   -0.15    0.09
   0   5 -11   -0.04    0.07
   0   5  11   -0.06    0.11
  -1  -5 -11   -0.05    0.10
  -1   5 -11   -0.09    0.06
   1   5  11    0.02    0.13
  -2  -5 -11    0.11    0.11
   2   5  11    0.34    0.15
  -3  -5 -11    0.84    0.15
   3   5  11    0.87    0.17
  -4  -5 -11   -0.02    0.12
   4   5  11    0.11    0.15
  -3  -6  11    0.10    0.15
   3   6 -11   -0.08    0.11
  -3   6  11   -0.09    0.11
  -2  -6  11   -0.09    0.13
   2   6 -11   -0.04    0.09
  -2   6  11   -0.18    0.11
  -1  -6  11    0.00    0.12
   1   6 -11    0.01    0.08
  -1   6  11    0.05    0.12
   0   6 -11    0.61    0.10
   0   6  11    0.68    0.15
  -1  -6 -11    0.23    0.13
  -2  -6 -11    0.51    0.14
  -8   0  12    2.40    0.27
   8   0 -12    2.54    0.29
  -7   0  12    4.01    0.29
  -6   0  12   -0.03    0.11
  -5   0  12    1.93    0.20
  -4   0  12    1.98    0.19
   3   0 -12   -0.04    0.07
  -3   0  12    0.02    0.08
  -2   0  12    2.10    0.18
  -2   0  12    1.95    0.15
   2   0 -12    2.25    0.16
   1   0 -12   69.89    2.49
   1   0 -12   75.90    2.17
  -1   0  12   72.07    2.16
  -1   0  12   73.90    2.17
   0   0 -12    0.37    0.08
   0   0  12    0.45    0.09
   0   0  12    0.47    0.09
   0   0 -12    0.32    0.07
  -1   0 -12    9.94    0.36
   1   0  12    9.50    0.36
  -1   0 -12    8.82    0.36
  -2   0 -12    0.04    0.08
  -2   0 -12    0.11    0.07
   2   0  12   -0.05    0.07
   3   0  12    0.13    0.09
  -3   0 -12    0.21    0.08
  -3   0 -12    0.12    0.08
  -4   0 -12    0.50    0.10
   4   0  12    0.39    0.10
  -4   0 -12    0.51    0.10
   4   0  12    0.53    0.13
   5   0  12    2.77    0.22
   5   0  12    3.03    0.25
  -5   0 -12    3.04    0.22
   6   0  12    0.10    0.14
  -6   0 -12    0.10    0.10
   7   0  12   -0.22    0.15
  -8  -1  12   -0.12    0.15
  -8  -1  12    0.01    0.14
  -8   1  12    0.19    0.14
   8   1 -12    0.20    0.15
  -7  -1  12    0.13    0.12
  -7  -1  12    0.13    0.15
  -7   1  12    0.02    0.12
   7   1 -12    0.22    0.13
  -6  -1  12    1.08    0.17
  -6  -1  12    1.00    0.15
  -6   1  12    0.95    0.15
  -5  -1  12    4.05    0.26
  -5  -1  12    3.55    0.28
  -5   1  12    4.07    0.26
  -4  -1  12    2.40    0.20
  -4   1  12    2.39    0.20
  -3  -1  12   22.96    0.75
  -3   1  12   22.96    0.75
   3   1 -12   23.28    0.75
  -3   1  12   23.00    0.75
   2  -1 -12    2.22    0.16
  -2  -1  12    1.97    0.16
  -2   1  12    2.20    0.16
   2   1 -12    2.15    0.16
  -2   1  12    2.48    0.17
   1  -1 -12    9.77    0.37
  -1  -1  12    9.64    0.36
  -1   1  12    9.85    0.37
   1   1 -12   10.25    0.36
   1   1 -12    9.40    0.40
  -1   1  12   10.00    0.37
   0  -1  12    0.15    0.06
   0  -1 -12    0.07    0.07
   0  -1 -12   -0.10    0.07
   0   1 -12    0.11    0.07
   0   1 -12    0.12    0.06
  -1  -1 -12    2.76    0.18
   1  -1  12    3.14    0.17
  -1  -1 -12    2.67    0.19
  -1   1 -12    3.16    0.17
   1   1  12    2.57    0.19
  -1   1 -12    3.37    0.18
  -2  -1 -12    1.65    0.18
   2  -1  12    2.13    0.15
  -2  -1 -12    1.48    0.17
  -2   1 -12    2.03    0.15
  -2   1 -12    2.17    0.14
  -2   1 -12    2.22    0.16
  -3  -1 -12   -0.14    0.09
  -3  -1 -12   -0.12    0.09
   3  -1  12    0.02    0.07
  -3   1 -12    0.03    0.07
  -3   1 -12    0.06    0.05
  -3   1 -12    0.10    0.07
   4  -1  12    0.13    0.11
  -4  -1 -12   -0.03    0.09
  -4  -1 -12   -0.13    0.09
   4  -1  12   -0.12    0.07
  -4   1 -12   -0.06    0.07
   4   1  12   -0.02    0.11
  -4   1 -12    0.00    0.07
   4   1  12   -0.07    0.10
  -4   1 -12   -0.05    0.05
   5  -1  12    0.22    0.13
  -5  -1 -12    0.27    0.11
   5   1  12    0.18    0.12
   5   1  12    0.22    0.14
  -5   1 -12    0.35    0.09
   6  -1  12    0.03    0.14
  -6  -1 -12    0.01    0.11
  -6   1 -12   -0.01    0.09
   6   1  12   -0.02    0.13
   7  -1  12    0.12    0.16
  -7   1 -12    0.08    0.10
   7   1  12    0.10    0.17
  -8  -2  12    0.05    0.17
  -8  -2  12    0.09    0.15
   8   2 -12   -0.04    0.14
  -7  -2  12    0.93    0.19
  -7  -2  12    1.12    0.17
  -7   2  12    0.90    0.15
   7   2 -12    1.00    0.17
  -6  -2  12    3.98    0.29
  -6  -2  12    3.56    0.29
  -6   2  12    4.17    0.28
   6   2 -12    4.46    0.30
  -5  -2  12    3.24    0.26
  -5  -2  12    3.39    0.29
  -5   2  12    3.21    0.23
  -4  -2  12   10.18    0.46
  -4  -2  12    9.99    0.41
  -4   2  12    9.69    0.39
  -4   2  12   10.53    0.41
  -3  -2  12    0.31    0.10
  -3  -2  12    0.28    0.12
  -3   2  12    0.27    0.09
   3   2 -12    0.30    0.09
  -3   2  12    0.44    0.10
  -2  -2  12    0.02    0.08
  -2  -2  12   -0.11    0.10
  -2   2  12   -0.03    0.08
  -2   2  12   -0.03    0.09
   2   2 -12    0.09    0.07
   1  -2 -12    0.08    0.07
  -1  -2  12   -0.03    0.06
  -1   2  12   -0.16    0.08
   1   2 -12   -0.01    0.06
   1   2 -12    0.00    0.06
  -1   2  12   -0.13    0.07
   0  -2 -12    0.05    0.08
   0  -2  12    0.03    0.06
   0   2 -12    0.02    0.06
   0   2 -12    0.03    0.05
   0   2  12   -0.15    0.09
  -1  -2 -12    2.33    0.18
   1  -2  12    2.36    0.14
   1   2  12    2.02    0.19
  -1   2 -12    2.30    0.15
  -1   2 -12    2.35    0.15
   2  -2  12    2.45    0.14
  -2  -2 -12    2.58    0.21
   2   2  12    2.03    0.20
  -2   2 -12    2.13    0.14
  -2   2 -12    2.55    0.16
  -3  -2 -12    1.10    0.14
   3  -2  12    1.43    0.12
  -3   2 -12    1.23    0.10
  -3   2 -12    1.57    0.13
   3   2  12    0.92    0.15
  -4  -2 -12    1.43    0.16
   4   2  12    1.35    0.17
   4   2  12    1.51    0.17
  -5  -2 -12   -0.19    0.11
   5   2  12   -0.18    0.12
   5   2  12   -0.36    0.12
  -6  -2 -12   -0.11    0.11
   6  -2  12   -0.18    0.13
  -6   2 -12   -0.08    0.07
   6   2  12    0.03    0.13
   6   2  12   -0.09    0.14
  -7  -3  12    2.22    0.28
  -7  -3  12    1.46    0.23
  -7   3  12    2.32    0.26
   7   3 -12    1.39    0.20
  -6  -3  12    3.88    0.33
  -6  -3  12    4.02    0.30
   6   3 -12    3.91    0.30
  -6   3  12    3.53    0.26
  -5  -3  12    0.17    0.11
  -5  -3  12    0.05    0.14
  -5   3  12    0.15    0.11
   5   3 -12    0.27    0.11
  -4  -3  12    0.12    0.13
  -4  -3  12    0.28    0.11
  -4   3  12    0.03    0.08
  -4   3  12    0.01    0.10
  -3  -3  12    0.22    0.12
  -3  -3  12    0.32    0.10
  -3   3  12    0.24    0.09
  -3   3  12    0.06    0.10
   3   3 -12    0.17    0.08
  -2  -3  12    6.09    0.31
  -2  -3  12    5.72    0.27
  -2   3  12    5.69    0.28
  -2   3  12    5.62    0.28
   2   3 -12    5.79    0.26
  -1  -3  12    0.38    0.09
   1  -3 -12    0.46    0.10
  -1  -3  12    0.30    0.12
   1   3 -12    0.41    0.08
  -1   3  12    0.28    0.11
   0  -3 -12    5.84    0.27
   0  -3  12    5.40    0.24
   0   3  12    5.64    0.28
   0   3 -12    5.38    0.23
   0   3 -12    5.44    0.27
   1  -3  12    4.10    0.19
  -1  -3 -12    4.26    0.24
  -1   3 -12    4.08    0.21
  -1   3 -12    4.08    0.19
   1   3  12    4.12    0.25
   2  -3  12    0.48    0.07
  -2  -3 -12    0.42    0.11
  -2   3 -12    0.41    0.07
   2   3  12    0.51    0.12
  -2   3 -12    0.52    0.07
  -3  -3 -12    0.90    0.14
   3   3  12    0.79    0.14
  -4  -3 -12    0.11    0.12
   4   3  12    0.05    0.13
   5  -3  12    0.04    0.12
  -5  -3 -12   -0.01    0.12
   5   3  12    0.04    0.13
   5   3  12   -0.07    0.12
   6  -3  12    0.13    0.13
   6   3  12    0.05    0.14
   6   3  12   -0.01    0.13
  -6  -4  12    0.21    0.16
  -6  -4  12    0.03    0.12
  -6   4  12   -0.10    0.12
   6   4 -12    0.05    0.13
  -5  -4  12    0.52    0.13
  -5  -4  12    0.58    0.16
  -5   4  12    0.17    0.12
   5   4 -12    0.49    0.13
  -4  -4  12    0.86    0.16
  -4  -4  12    0.84    0.13
   4   4 -12    0.86    0.14
  -4   4  12    0.73    0.13
  -3  -4  12    0.15    0.10
  -3  -4  12    0.07    0.13
  -3   4  12   -0.11    0.10
   3   4 -12    0.20    0.10
  -3   4  12    0.10    0.09
  -2  -4  12    2.16    0.18
  -2  -4  12    2.00    0.22
   2  -4 -12    1.67    0.19
   2   4 -12    2.07    0.18
  -2   4  12    2.11    0.21
  -1  -4  12    1.11    0.15
  -1  -4  12    1.07    0.12
   1  -4 -12    1.33    0.17
   1   4 -12    1.20    0.12
  -1   4  12    1.19    0.15
   0  -4 -12    0.44    0.11
   0  -4  12    0.18    0.12
   0   4  12    0.50    0.13
  -1  -4 -12    0.02    0.10
   1   4  12    0.18    0.12
  -2  -4 -12    0.82    0.14
   2   4  12    0.91    0.15
  -3  -4 -12   -0.08    0.10
   3   4  12   -0.06    0.12
  -4  -4 -12    0.28    0.13
   4   4  12    0.38    0.15
  -5  -4 -12    0.56    0.15
   5   4  12    0.67    0.17
  -5  -5  12    0.06    0.17
  -5   5  12   -0.11    0.11
  -4  -5  12    1.40    0.20
   4   5 -12    1.21    0.17
  -4   5  12    1.32    0.16
  -3  -5  12    0.25    0.14
   3   5 -12    0.09    0.11
  -3   5  12    0.06    0.11
   2  -5 -12    0.13    0.10
  -2  -5  12    0.09    0.13
   2   5 -12   -0.07    0.09
  -2   5  12    0.03    0.11
   1  -5 -12   -0.20    0.09
  -1  -5  12   -0.23    0.11
  -1   5  12   -0.04    0.11
   1   5 -12    0.02    0.08
   0  -5  12    0.17    0.12
   0  -5 -12    0.30    0.11
   0   5 -12    0.25    0.08
   0   5  12    0.30    0.13
  -1  -5 -12   -0.08    0.10
   1   5  12   -0.17    0.13
  -1   5 -12   -0.06    0.06
  -2  -5 -12    2.42    0.25
   2   5  12    2.46    0.28
  -3  -5 -12    0.01    0.12
   3   5  12    0.20    0.15
  -2  -6  12    0.05    0.14
   2   6 -12    0.06    0.10
  -1  -6  12   -0.10    0.13
   1   6 -12   -0.08    0.09
   0   6 -12    0.75    0.10
  -1  -6 -12    0.10    0.13
  -7   0  13    0.02    0.12
  -6   0  13   -0.01    0.11
  -5   0  13   -0.18    0.10
  -4   0  13   -0.13    0.08
  -3   0  13   -0.18    0.08
   2   0 -13   -0.06    0.08
  -2   0  13   -0.11    0.09
   1   0 -13    0.06    0.09
  -1   0  13    0.05    0.09
   0   0  13    0.13    0.10
   0   0 -13    0.05    0.09
  -1   0 -13    0.01    0.08
  -1   0 -13    0.14    0.08
   1   0  13    0.08    0.09
  -2   0 -13   -0.06    0.08
  -2   0 -13    0.02    0.08
   2   0  13   -0.15    0.08
  -3   0 -13   -0.12    0.07
  -3   0 -13   -0.08    0.08
  -4   0 -13   -0.08    0.09
   4   0  13   -0.19    0.09
  -4   0 -13   -0.21    0.08
   5   0  13    0.04    0.13
  -5   0 -13   -0.03    0.09
   6   0  13    0.07    0.14
  -6   0 -13    0.00    0.10
   8   1 -13    0.11    0.14
  -7  -1  13   -0.03    0.12
  -7   1  13   -0.13    0.12
  -6  -1  13    2.32    0.23
  -6   1  13    2.30    0.24
  -5  -1  13    0.49    0.12
  -5   1  13    0.37    0.12
  -4  -1  13    6.38    0.32
  -4   1  13    7.46    0.33
  -3  -1  13    0.45    0.11
   3   1 -13    0.40    0.09
  -2  -1  13   31.12    1.02
  -2   1  13   33.66    1.02
   2   1 -13   32.42    1.02
  -1  -1  13    1.45    0.16
   1  -1 -13    1.52    0.16
   1   1 -13    1.50    0.15
  -1   1  13    1.40    0.17
   0  -1  13    2.29    0.16
   0  -1 -13    2.11    0.19
   0  -1 -13    2.72    0.18
   0   1 -13    2.42    0.16
   0   1 -13    2.39    0.17
   0   1  13    1.64    0.18
  -1  -1 -13    4.43    0.24
  -1  -1 -13    3.29    0.23
   1  -1  13    4.91    0.21
  -1   1 -13    4.89    0.23
  -1   1 -13    4.25    0.22
   1   1  13    3.21    0.25
  -2  -1 -13    0.44    0.12
  -2  -1 -13    0.59    0.12
  -2   1 -13    0.98    0.11
  -2   1 -13    0.75    0.10
   2   1  13    0.39    0.12
   3  -1  13    0.17    0.08
  -3  -1 -13    0.20    0.10
  -3  -1 -13    0.14    0.10
  -3   1 -13    0.20    0.06
   3   1  13    0.09    0.11
  -3   1 -13    0.38    0.09
  -3   1 -13    0.23    0.08
  -4  -1 -13    0.59    0.12
  -4  -1 -13    0.74    0.13
   4  -1  13    0.41    0.10
   4   1  13    0.74    0.13
  -4   1 -13    0.80    0.11
   5  -1  13    0.10    0.14
  -5  -1 -13    0.12    0.11
  -5   1 -13    0.06    0.09
   5   1  13    0.17    0.12
   5   1  13   -0.01    0.14
   6  -1  13    0.17    0.15
  -6  -1 -13    0.36    0.12
   6   1  13    0.27    0.15
  -6   1 -13    0.32    0.11
  -7  -2  13    0.03    0.16
  -7  -2  13    0.16    0.13
  -7   2  13    0.23    0.13
   7   2 -13   -0.02    0.13
  -6  -2  13    3.24    0.27
  -6  -2  13    2.49    0.28
  -6   2  13    3.33    0.26
  -5  -2  13    0.44    0.15
  -5  -2  13    0.52    0.13
  -4  -2  13   24.16    0.82
  -4  -2  13   24.74    0.93
  -4   2  13   24.91    0.82
  -3  -2  13    2.60    0.24
  -3  -2  13    2.46    0.19
  -3   2  13    2.65    0.22
   3   2 -13    2.58    0.19
  -2  -2  13    0.62    0.10
  -2   2  13    0.45    0.11
   2   2 -13    0.75    0.10
  -1  -2  13    0.09    0.08
   1  -2 -13    0.13    0.09
   1   2 -13    0.19    0.07
  -1   2  13   -0.05    0.10
   0  -2 -13    5.00    0.25
   0  -2  13    4.62    0.22
   0   2 -13    4.82    0.22
   0   2  13    4.74    0.26
   0   2 -13    4.22    0.23
   1  -2  13    0.11    0.07
  -1  -2 -13    0.14    0.09
  -1   2 -13    0.14    0.07
  -1   2 -13    0.20    0.07
   1   2  13    0.01    0.11
   2  -2  13    4.89    0.22
  -2  -2 -13    5.18    0.28
  -2   2 -13    4.37    0.22
   2   2  13    4.89    0.27
  -2   2 -13    5.09    0.23
  -3  -2 -13    1.78    0.20
   3  -2  13    2.12    0.15
  -3   2 -13    1.66    0.13
   3   2  13    1.96    0.21
  -4  -2 -13    1.27    0.16
   4   2  13    0.97    0.16
   5  -2  13   -0.18    0.13
  -5  -2 -13   -0.13    0.11
   5   2  13    0.02    0.13
   5   2  13   -0.13    0.13
   6  -2  13   -0.09    0.14
   6   2  13    0.02    0.14
   6   2  13    0.01    0.14
  -7  -3  13    1.19    0.18
  -6  -3  13    1.29    0.17
  -6  -3  13    1.21    0.20
  -6   3  13    1.26    0.17
   6   3 -13    1.31    0.18
  -5  -3  13    0.63    0.13
  -5  -3  13    0.46    0.16
   5   3 -13    0.66    0.13
  -5   3  13    0.39    0.13
  -4  -3  13    0.53    0.15
  -4  -3  13    0.58    0.12
  -4   3  13    0.30    0.12
  -3  -3  13    0.06    0.09
  -3  -3  13    0.10    0.12
  -3   3  13   -0.26    0.10
   3   3 -13    0.04    0.08
  -2  -3  13    3.20    0.25
  -2  -3  13    3.37    0.21
  -2   3  13    2.72    0.22
   2   3 -13    3.45    0.20
  -1  -3  13    1.08    0.12
   1  -3 -13    1.14    0.13
   1   3 -13    1.14    0.13
  -1   3  13    0.91    0.13
   0  -3  13    0.84    0.10
   0  -3 -13    0.98    0.13
   0   3 -13    1.03    0.14
   0   3 -13    1.01    0.13
   0   3  13    0.92    0.14
  -1  -3 -13   -0.09    0.09
   1  -3  13   -0.03    0.06
  -1   3 -13    0.01    0.06
  -1   3 -13    0.04    0.06
   1   3  13    0.09    0.11
  -2  -3 -13    0.09    0.10
   2   3  13    0.01    0.11
  -3  -3 -13    0.03    0.11
   3   3  13    0.00    0.12
  -4  -3 -13    0.24    0.12
   4   3  13    0.17    0.14
  -5  -3 -13   -0.14    0.12
   5   3  13    0.02    0.14
  -6  -4  13    0.11    0.18
  -6  -4  13    0.04    0.13
  -5  -4  13    1.35    0.20
  -5  -4  13    1.27    0.17
  -5   4  13    0.96    0.15
   5   4 -13    1.34    0.17
  -4  -4  13   -0.07    0.14
  -4  -4  13   -0.06    0.10
  -4   4  13   -0.09    0.11
   4   4 -13   -0.05    0.10
  -3  -4  13    0.09    0.10
  -3  -4  13   -0.04    0.13
   3   4 -13    0.10    0.10
  -3   4  13    0.15    0.11
  -2  -4  13    0.34    0.10
  -2  -4  13    0.25    0.13
   2  -4 -13    0.06    0.10
   2   4 -13    0.31    0.10
  -2   4  13    0.30    0.11
  -1  -4  13    0.14    0.12
   1  -4 -13    0.20    0.10
  -1   4  13    0.14    0.12
   0  -4 -13    0.23    0.11
   0   4  13    0.38    0.13
  -1  -4 -13    0.04    0.10
   1   4  13    0.00    0.11
  -2  -4 -13   -0.02    0.11
   2   4  13   -0.23    0.12
  -3  -4 -13    0.01    0.11
   3   4  13    0.00    0.13
  -4  -4 -13    0.62    0.14
   4   4  13    0.51    0.16
  -4  -5  13    0.27    0.16
  -4   5  13    0.09    0.12
   4   5 -13    0.10    0.13
  -3  -5  13    0.45    0.16
   3   5 -13    0.55    0.13
  -3   5  13    0.37    0.13
   2  -5 -13    0.21    0.11
  -2  -5  13    0.34    0.14
   2   5 -13    0.26    0.10
  -2   5  13    0.32    0.13
   1  -5 -13   -0.06    0.10
  -1  -5  13    0.04    0.12
   1   5 -13   -0.04    0.08
  -1   5  13    0.08    0.12
   0  -5 -13   -0.19    0.10
   0   5  13    0.01    0.12
   0   5 -13   -0.07    0.07
  -1  -5 -13   -0.06    0.11
   1   5  13    0.03    0.13
  -1   5 -13    0.05    0.07
  -2  -5 -13    0.21    0.12
   2   5  13    0.47    0.16
  -3  -5 -13    0.29    0.14
  -7   0  14    0.06    0.13
  -6   0  14   -0.05    0.12
  -5   0  14    0.39    0.12
  -4   0  14    0.26    0.11
  -3   0  14    0.66    0.12
  -2   0  14   34.33    1.08
  -1   0  14    6.39    0.31
   1   0 -14    5.56    0.30
   0   0 -14  111.22    3.22
   0   0  14  106.37    3.20
  -1   0 -14    1.48    0.19
  -2   0 -14    2.32    0.21
  -2   0 -14    2.54    0.20
   2   0  14    2.24    0.20
  -3   0 -14   -0.07    0.08
   3   0  14   -0.02    0.09
  -3   0 -14    0.08    0.09
  -4   0 -14    0.83    0.12
   4   0  14    0.78    0.12
  -5   0 -14    0.25    0.11
   5   0  14    0.45    0.15
   6   0  14    2.45    0.30
  -6   0 -14    2.54    0.24
  -7  -1  14   -0.08    0.12
  -7   1  14    0.03    0.12
  -6  -1  14    1.13    0.16
  -6   1  14    1.04    0.16
  -5  -1  14    0.35    0.12
  -5   1  14    0.21    0.12
  -4  -1  14    5.06    0.29
  -4   1  14    5.75    0.30
  -3  -1  14    3.66    0.25
  -3   1  14    4.42    0.25
  -2  -1  14   16.79    0.58
   2   1 -14   16.80    0.58
  -2   1  14   16.56    0.58
  -1  -1  14   -0.01    0.08
  -1   1  14   -0.09    0.10
   1   1 -14    0.12    0.08
   0  -1  14    8.09    0.33
   0  -1 -14    9.35    0.36
   0   1  14    7.42    0.36
   0   1 -14    8.66    0.34
  -1  -1 -14    0.20    0.11
  -1   1 -14    0.34    0.09
   1   1  14    0.30    0.12
   2  -1  14   24.39    0.78
  -2  -1 -14   25.07    0.82
  -2  -1 -14   24.27    0.80
  -2   1 -14   22.07    0.87
  -2   1 -14   24.06    0.79
   2   1  14   24.52    0.80
   3  -1  14    0.60    0.10
  -3  -1 -14    0.45    0.11
   3   1  14    0.60    0.12
  -3   1 -14    0.39    0.08
  -4  -1 -14    5.38    0.30
   4   1  14    5.20    0.29
  -4   1 -14    5.21    0.26
  -5  -1 -14    0.28    0.12
   5   1  14    0.19    0.12
  -5   1 -14    0.07    0.09
   6  -1  14    0.22    0.16
   6   1  14    0.25    0.16
  -6   1 -14    0.40    0.11
  -7  -2  14   -0.18    0.13
  -7  -2  14   -0.37    0.16
   7   2 -14   -0.21    0.13
  -6  -2  14   -0.06    0.12
  -6  -2  14   -0.08    0.16
  -6   2  14   -0.05    0.12
  -5  -2  14    0.61    0.17
  -5  -2  14    0.79    0.14
  -5   2  14    0.52    0.13
  -4  -2  14    0.92    0.14
  -4   2  14    0.57    0.13
  -3  -2  14    0.04    0.09
  -3   2  14   -0.10    0.10
  -2  -2  14    1.98    0.18
   2   2 -14    2.52    0.18
  -2   2  14    2.02    0.19
   1  -2 -14    0.46    0.10
  -1  -2  14    0.44    0.09
  -1   2  14    0.25    0.11
   1   2 -14    0.47    0.09
   0  -2 -14    0.40    0.10
   0  -2  14    0.24    0.08
   0   2  14    0.19    0.11
   0   2 -14    0.39    0.08
   1  -2  14    0.02    0.07
  -1  -2 -14    0.04    0.09
  -1   2 -14   -0.05    0.06
   1   2  14    0.09    0.10
  -1   2 -14    0.03    0.07
   2  -2  14    0.09    0.07
  -2  -2 -14    0.00    0.09
  -2   2 -14   -0.03    0.06
   2   2  14    0.19    0.11
  -3  -2 -14    1.24    0.15
   3   2  14    1.22    0.16
  -4  -2 -14    0.99    0.15
   4   2  14    1.07    0.16
  -5  -2 -14    0.08    0.12
   5   2  14    0.34    0.15
  -6  -3  14   -0.01    0.12
  -6  -3  14    0.04    0.16
   6   3 -14    0.06    0.13
  -6   3  14   -0.12    0.12
  -5  -3  14   -0.16    0.14
  -5  -3  14    0.02    0.11
  -5   3  14   -0.08    0.11
   5   3 -14    0.05    0.11
  -4  -3  14    0.23    0.14
  -4  -3  14    0.11    0.10
  -4   3  14   -0.06    0.11
  -3  -3  14    0.09    0.13
  -3  -3  14    0.07    0.10
  -3   3  14   -0.10    0.11
   3   3 -14    0.03    0.08
  -2  -3  14    5.65    0.28
  -2   3  14    5.55    0.30
   2   3 -14    5.44    0.26
   1  -3 -14    0.32    0.11
  -1  -3  14    0.30    0.09
  -1   3  14    0.28    0.12
   1   3 -14    0.32    0.09
   0  -3  14   -0.14    0.07
   0  -3 -14   -0.02    0.09
   0   3  14    0.03    0.11
  -1  -3 -14    0.29    0.10
   1   3  14    0.35    0.12
  -1   3 -14    0.30    0.08
  -2  -3 -14    0.55    0.13
   2   3  14    0.55    0.14
  -3  -3 -14    0.27    0.13
   3   3  14    0.25    0.14
  -4  -3 -14    0.08    0.12
   4   3  14    0.05    0.14
   5   3  14    0.15    0.15
  -5  -4  14    1.00    0.16
  -5  -4  14    0.92    0.19
   5   4 -14    0.92    0.17
  -5   4  14    0.89    0.16
  -4  -4  14    0.15    0.15
  -4  -4  14    0.12    0.12
  -4   4  14    0.23    0.12
   4   4 -14    0.16    0.11
  -3  -4  14   -0.08    0.10
  -3  -4  14    0.05    0.13
   3   4 -14    0.00    0.09
  -3   4  14   -0.05    0.11
  -2  -4  14    0.13    0.13
  -2   4  14   -0.01    0.11
   1  -4 -14    0.31    0.11
  -1   4  14    0.49    0.13
   0  -4 -14    2.87    0.24
   0   4  14    2.83    0.25
  -1  -4 -14    0.77    0.14
   1   4  14    0.64    0.15
  -2  -4 -14   -0.02    0.11
   2   4  14   -0.07    0.13
  -3  -4 -14    0.10    0.12
   3   4  14    0.06    0.14
   4   4  14    0.18    0.15
  -3  -5  14    2.67    0.27
   3   5 -14    1.99    0.24
  -2  -5  14    0.02    0.13
   2   5 -14    0.09    0.10
  -2   5  14   -0.02    0.12
  -1  -5  14   -0.03    0.13
   1  -5 -14   -0.08    0.10
   1   5 -14    0.01    0.09
  -1   5  14    0.07    0.13
   0  -5 -14   -0.03    0.11
   0   5  14    0.01    0.13
   0   5 -14    0.01    0.08
  -1  -5 -14    0.30    0.13
   1   5  14    0.47    0.16
  -1   5 -14    0.26    0.08
  -2  -5 -14    0.01    0.12
  -7   0  15   -0.03    0.13
  -6   0  15   -0.06    0.12
  -5   0  15   -0.14    0.11
  -4   0  15   -0.13    0.09
  -3   0  15   -0.19    0.08
  -2   0  15   -0.14    0.09
  -1   0  15   -0.09    0.09
   0   0  15    0.26    0.10
   0   0 -15    0.21    0.10
   1   0  15    0.01    0.10
  -1   0 -15    0.14    0.09
  -2   0 -15    0.04    0.09
   2   0  15    0.17    0.10
  -2   0 -15    0.02    0.09
   3   0  15    0.00    0.09
  -3   0 -15   -0.02    0.09
  -4   0 -15    0.02    0.10
  -5   0 -15   -0.06    0.10
  -7  -1  15    0.00    0.13
  -6  -1  15    0.23    0.13
  -6   1  15    0.11    0.13
  -5  -1  15    0.36    0.13
  -5   1  15    0.50    0.13
  -4  -1  15   -0.18    0.10
  -4   1  15    0.02    0.10
  -3  -1  15    0.11    0.10
  -3   1  15    0.37    0.11
  -2  -1  15   -0.17    0.08
  -2   1  15   -0.05    0.09
  -1  -1  15    0.17    0.09
   1   1 -15    0.21    0.09
  -1   1  15    0.18    0.10
   0  -1  15    2.65    0.19
   0   1  15    2.59    0.22
   0   1 -15    2.36    0.19
   1  -1  15    0.76    0.11
  -1  -1 -15    0.70    0.13
   1   1  15    0.84    0.13
  -1   1 -15    1.24    0.16
   2  -1  15    9.53    0.38
  -2  -1 -15    9.44    0.39
   2   1  15    9.02    0.39
   3  -1  15    0.13    0.10
  -3  -1 -15    0.05    0.11
   3   1  15    0.09    0.11
  -4  -1 -15    0.23    0.11
   4   1  15    0.18    0.12
  -4   1 -15    0.17    0.10
  -5  -1 -15    0.22    0.13
  -5   1 -15    0.27    0.10
  -7  -2  15    0.80    0.17
  -6  -2  15   -0.03    0.12
  -6   2  15   -0.12    0.12
  -5  -2  15   -0.20    0.11
  -5   2  15   -0.15    0.12
  -4  -2  15    0.46    0.12
  -4   2  15    0.37    0.12
  -3  -2  15    0.07    0.10
  -3   2  15    0.18    0.10
  -2  -2  15    0.40    0.10
  -2   2  15    0.38    0.11
   2   2 -15    0.32    0.09
  -1  -2  15   -0.06    0.08
  -1   2  15   -0.02    0.10
   1   2 -15    0.06    0.07
   0  -2  15    1.32    0.16
   0  -2 -15    1.94    0.20
   0   2 -15    1.92    0.16
   0   2  15    2.09    0.21
  -1  -2 -15    0.08    0.10
   1  -2  15    0.04    0.07
   1   2  15    0.08    0.11
  -2  -2 -15    2.86    0.24
   2   2  15    2.81    0.25
  -3  -2 -15    2.04    0.24
   3   2  15    1.87    0.24
  -4  -2 -15    6.92    0.37
   4   2  15    6.79    0.37
   5   2  15    0.32    0.15
  -6  -3  15   -0.05    0.17
  -6  -3  15   -0.01    0.12
  -5  -3  15    0.01    0.15
  -5  -3  15    0.09    0.12
  -5   3  15   -0.06    0.12
  -4  -3  15    0.06    0.11
  -4  -3  15    0.04    0.14
  -4   3  15   -0.10    0.12
  -3  -3  15    0.07    0.10
  -3   3  15   -0.05    0.11
  -2  -3  15    1.14    0.14
  -2   3  15    0.98    0.15
  -1  -3  15   -0.01    0.08
   1  -3 -15    0.01    0.10
  -1   3  15    0.15    0.12
   0  -3 -15    1.22    0.15
   0   3  15    1.23    0.16
  -1  -3 -15    0.69    0.13
   1   3  15    0.58    0.14
  -2  -3 -15    0.61    0.13
   2   3  15    0.49    0.14
  -3  -3 -15    0.09    0.12
   3   3  15    0.20    0.14
  -4  -3 -15    0.39    0.14
   4   3  15    0.48    0.16
  -5  -4  15    0.07    0.17
  -4  -4  15   -0.04    0.15
   4   4 -15   -0.08    0.11
  -4   4  15   -0.11    0.12
  -3  -4  15    0.01    0.14
  -3   4  15    0.01    0.12
   3   4 -15   -0.04    0.09
  -2   4  15    0.04    0.12
   1  -4 -15    0.24    0.11
  -1   4  15    0.56    0.14
   0  -4 -15    1.88    0.21
   0   4  15    1.92    0.23
  -1  -4 -15    0.00    0.11
   1   4  15    0.01    0.12
  -2  -4 -15    0.71    0.15
   2   4  15    0.60    0.16
  -3  -4 -15    0.06    0.13
   3   4  15   -0.01    0.15
  -2  -5  15   -0.04    0.14
   2   5 -15    0.08    0.10
   1  -5 -15    0.20    0.12
   1   5 -15    0.06    0.09
   0  -5 -15   -0.07    0.11
   0   5 -15   -0.08    0.08
  -6   0  16    0.01    0.12
  -5   0  16    0.37    0.13
  -4   0  16    0.30    0.12
  -3   0  16    2.43    0.21
  -2   0  16    0.03    0.09
  -1   0  16    1.42    0.18
   0   0  16    0.51    0.11
   1   0  16    0.20    0.10
  -1   0 -16    0.13    0.10
  -2   0 -16    0.14    0.10
   2   0  16    0.17    0.10
   3   0  16    1.49    0.19
  -3   0 -16    1.14    0.14
  -4   0 -16    0.30    0.11
  -5   0 -16    0.71    0.14
  -6  -1  16    0.18    0.14
  -6   1  16    0.36    0.14
  -5  -1  16    1.54    0.18
  -5   1  16    2.08    0.23
  -4  -1  16    0.03    0.11
  -4   1  16    0.06    0.11
  -3  -1  16    0.27    0.11
  -3   1  16    0.33    0.11
  -2  -1  16    0.15    0.10
  -2   1  16    0.18    0.10
  -1  -1  16    0.00    0.08
  -1   1  16   -0.07    0.09
   1   1 -16    0.05    0.09
   0  -1  16    0.03    0.08
   0   1  16    0.02    0.10
   0   1 -16    0.11    0.09
   1  -1  16    3.21    0.21
  -1  -1 -16    2.49    0.24
   1   1  16    3.47    0.24
  -2  -1 -16    0.03    0.11
   2  -1  16    0.21    0.09
   2   1  16    0.23    0.12
  -3  -1 -16    0.60    0.13
   3   1  16    0.56    0.13
  -4  -1 -16   -0.05    0.11
   4   1  16    0.11    0.12
  -5   1 -16   -0.04    0.09
  -6  -2  16   -0.05    0.13
  -5  -2  16   -0.06    0.12
  -5   2  16   -0.22    0.11
  -4  -2  16    0.19    0.12
  -4   2  16    0.11    0.12
  -3  -2  16    0.13    0.10
  -3   2  16    0.04    0.11
  -2  -2  16    0.00    0.09
  -2   2  16   -0.08    0.10
  -1  -2  16   -0.05    0.09
  -1   2  16   -0.04    0.11
   0  -2  16    0.05    0.09
   0  -2 -16    0.18    0.11
   0   2  16    0.10    0.11
  -1  -2 -16    0.28    0.12
   1   2  16    0.31    0.13
  -2  -2 -16   -0.03    0.11
   2   2  16    0.16    0.12
  -3  -2 -16    0.61    0.14
   3   2  16    0.62    0.15
  -4  -2 -16    0.75    0.16
   4   2  16    0.87    0.16
  -5  -3  16    0.28    0.18
  -5  -3  16    0.42    0.14
  -4  -3  16    0.07    0.11
  -4   3  16   -0.12    0.11
  -3  -3  16   -0.02    0.10
  -3   3  16    0.00    0.12
  -2  -3  16   -0.10    0.09
  -2   3  16   -0.04    0.11
   1  -3 -16    0.56    0.13
  -1   3  16    0.38    0.13
   0  -3 -16    0.37    0.12
   0   3  16    0.25    0.13
  -1  -3 -16    0.15    0.11
   1   3  16    0.10    0.12
  -2  -3 -16    0.51    0.13
   2   3  16    0.51    0.15
  -3  -3 -16    0.00    0.12
   3   3  16    0.10    0.14
  -4  -4  16   -0.20    0.16
   3   4 -16    0.04    0.11
  -3   4  16    0.12    0.14
  -2   4  16    0.25    0.13
   1  -4 -16   -0.12    0.10
  -1   4  16    0.14    0.13
   0  -4 -16    0.02    0.11
   0   4  16   -0.10    0.12
  -1  -4 -16    0.04    0.12
   1   4  16    0.07    0.13
  -2  -4 -16    0.38    0.14
   2   4  16    0.52    0.16
  -6   0  17    0.09    0.14
  -5   0  17   -0.09    0.12
  -4   0  17   -0.04    0.11
  -3   0  17   -0.06    0.11
  -2   0  17    0.02    0.09
  -1   0  17   -0.02    0.09
   0   0  17    0.01    0.09
   1   0  17   -0.03    0.10
   2   0  17   -0.02    0.10
  -3   0 -17   -0.05    0.10
  -4   0 -17    0.11    0.11
  -6  -1  17    0.01    0.14
  -5  -1  17   -0.01    0.13
  -5   1  17   -0.06    0.12
  -4  -1  17   -0.09    0.11
  -4   1  17    0.09    0.12
  -3  -1  17    0.14    0.11
  -3   1  17    0.23    0.12
  -2  -1  17    0.28    0.11
  -2   1  17    0.30    0.11
  -1  -1  17    0.57    0.11
  -1   1  17    0.58    0.13
   0  -1  17   -0.01    0.09
   0   1  17    0.01    0.10
  -1  -1 -17   -0.22    0.11
   1  -1  17   -0.04    0.08
   1   1  17   -0.06    0.11
  -2  -1 -17    0.57    0.14
   2   1  17    0.76    0.13
  -3  -1 -17    0.05    0.12
   3   1  17    0.12    0.12
  -5  -2  17   -0.01    0.11
  -5   2  17   -0.09    0.13
  -4  -2  17    0.03    0.11
  -4   2  17   -0.04    0.12
  -3  -2  17    0.35    0.12
  -3   2  17    0.38    0.13
  -2  -2  17    0.05    0.10
  -2   2  17    0.12    0.12
  -1  -2  17    0.94    0.13
  -1   2  17    0.79    0.14
   0  -2  17    0.68    0.12
   0  -2 -17    0.84    0.14
   0   2  17    0.50    0.14
  -1  -2 -17   -0.11    0.10
   1   2  17   -0.20    0.11
  -2  -2 -17    0.18    0.12
   2   2  17    0.18    0.13
  -3  -2 -17    0.62    0.15
   3   2  17    0.57    0.15
  -4  -3  17    0.16    0.12
  -3  -3  17    0.11    0.12
  -3   3  17    0.04    0.12
  -2   3  17    0.01    0.12
  -1   3  17   -0.09    0.12
   0  -3 -17    0.27    0.12
   0   3  17    0.16    0.13
  -1  -3 -17    0.07    0.11
   1   3  17    0.12    0.13
  -2  -3 -17   -0.01    0.12
   2   3  17    0.15    0.13
   1  -4 -17    0.14    0.12
   0  -4 -17   -0.03    0.11
  -1  -4 -17    0.03    0.12
  -5   0  18    0.64    0.16
  -4   0  18    5.37    0.33
  -3   0  18    0.26    0.12
  -2   0  18    3.43    0.26
  -1   0  18    0.34    0.11
   0   0  18    0.04    0.10
   1   0  18   -0.02    0.10
   2   0  18   -0.16    0.10
  -3   0 -18   -0.05    0.10
  -5  -1  18   -0.05    0.13
  -5   1  18    0.06    0.13
  -4  -1  18    0.16    0.13
  -4   1  18    0.12    0.13
  -3  -1  18    0.15    0.12
  -3   1  18    0.19    0.13
  -2  -1  18    0.53    0.13
  -2   1  18    0.49    0.13
  -1  -1  18    0.03    0.10
  -1   1  18   -0.06    0.11
   0  -1  18    0.13    0.10
   0   1  18    0.14    0.12
   1   1  18    0.18    0.12
  -2  -1 -18    0.08    0.13
   2   1  18    0.14    0.13
  -5  -2  18   -0.01    0.13
  -4  -2  18    0.06    0.12
  -4   2  18   -0.08    0.13
  -3  -2  18   -0.04    0.11
  -3   2  18   -0.02    0.13
  -2  -2  18    0.11    0.11
  -2   2  18    0.03    0.12
  -1   2  18    0.03    0.12
   0   2  18    0.04    0.13
  -1  -2 -18   -0.06    0.11
   1   2  18   -0.13    0.12
  -2  -2 -18   -0.09    0.12
   2   2  18    0.05    0.13
  -2   3  18    0.11    0.13
  -1   3  18   -0.18    0.13
   0  -3 -18    0.00    0.12
   0   3  18   -0.09    0.13
  -1  -3 -18    0.17    0.13
   1   3  18   -0.05    0.13
  -4   0  19   -0.11    0.12
  -3   0  19   -0.09    0.12
  -2   0  19   -0.10    0.11
  -1   0  19   -0.10    0.10
   0   0  19   -0.10    0.10
   1   0  19   -0.19    0.10
  -4  -1  19    0.29    0.14
  -4   1  19    0.34    0.14
  -3  -1  19    0.15    0.12
  -3   1  19    0.01    0.13
  -2  -1  19    0.72    0.14
  -2   1  19    0.67    0.15
  -1  -1  19    0.46    0.12
  -1   1  19    0.38    0.13
   0   1  19    2.14    0.24
   1   1  19    0.18    0.13
   2   1  19    0.04    0.12
  -3  -2  19    0.82    0.16
  -3   2  19    0.80    0.16
  -2   2  19    0.24    0.13
  -1   2  19    1.02    0.16
   0   2  19    0.10    0.14
   1   2  19   -0.02    0.13
  -3   0  20   -0.11    0.12
  -2   0  20    0.15    0.13
  -1   0  20    0.33    0.13
   0   0  20   -0.07    0.11
  -3  -1  20    0.56    0.15
  -3   1  20    0.38    0.15
  -2  -1  20    0.26    0.13
  -2   1  20    0.30    0.14
  -1   1  20    0.07    0.13
   0   1  20    0.07    0.13
   0   0   0    0.00    0.00
;
_shelx_hkl_checksum              7753
loop_
_space_group_symop_operation_xyz
'x, y, z'
'-x, y+1/2, -z+1/2'
'-x, -y, -z'
'x, -y-1/2, z-1/2'
loop_
_atom_site_label
_atom_site_type_symbol
_atom_site_fract_x
_atom_site_fract_y
_atom_site_fract_z
_atom_site_U_iso_or_equiv
_atom_site_adp_type
_atom_site_occupancy
_atom_site_site_symmetry_order
_atom_site_calc_flag
_atom_site_refinement_flags_posn
_atom_site_refinement_flags_adp
_atom_site_refinement_flags_occupancy
_atom_site_disorder_assembly
_atom_site_disorder_group
N1 N 0.1954(3) 0.7122(4) -0.04119(14) 0.0601(6) Uani 1 1 d D . . . .
H2 H 0.126(4) 0.838(4) -0.042(2) 0.090(11) Uiso 1 1 d D . . . .
H1 H 0.237(4) 0.652(5) -0.0874(14) 0.079(9) Uiso 1 1 d D . . . .
F1 F 0.1179(2) 0.6271(3) 0.24816(9) 0.0683(5) Uani 1 1 d . . . . .
C1 C 0.2740(3) 0.3394(4) 0.18427(14) 0.0443(5) Uani 1 1 d . . . . .
F2 F 0.0639(2) 0.8648(3) 0.10155(10) 0.0658(5) Uani 1 1 d . . . . .
N2 N 0.3198(4) 0.1005(5) 0.32108(15) 0.0786(8) Uani 1 1 d . . . . .
C2 C 0.1821(3) 0.5452(4) 0.17898(13) 0.0448(5) Uani 1 1 d . . . . .
C3 C 0.1559(3) 0.6649(4) 0.10457(14) 0.0447(5) Uani 1 1 d . . . . .
F3 F 0.4301(2) 0.0658(3) 0.11504(10) 0.0694(5) Uani 1 1 d . . . . .
C4 C 0.2210(3) 0.5873(4) 0.03148(14) 0.0439(5) Uani 1 1 d . . . . .
C5 C 0.3138(3) 0.3791(4) 0.03593(14) 0.0469(5) Uani 1 1 d . . . . .
H5 H 0.358432 0.320379 -0.011676 0.056 Uiso 1 1 calc R U . . .
C6 C 0.3377(3) 0.2641(4) 0.11077(15) 0.0474(5) Uani 1 1 d . . . . .
C7 C 0.3001(3) 0.2096(5) 0.26080(17) 0.0563(6) Uani 1 1 d . . . . .
loop_
_atom_site_aniso_label
_atom_site_aniso_U_11
_atom_site_aniso_U_22
_atom_site_aniso_U_33
_atom_site_aniso_U_23
_atom_site_aniso_U_13
_atom_site_aniso_U_12
N1 0.0673(13) 0.0585(14) 0.0550(13) 0.0082(11) 0.0093(10) 0.0040(11)
F1 0.0777(10) 0.0727(10) 0.0573(9) -0.0091(7) 0.0200(7) 0.0049(8)
C1 0.0410(10) 0.0443(12) 0.0477(12) 0.0034(9) 0.0053(9) -0.0073(9)
F2 0.0702(9) 0.0497(8) 0.0788(10) 0.0030(7) 0.0142(8) 0.0146(7)
N2 0.0835(17) 0.0877(19) 0.0633(15) 0.0226(14) 0.0036(12) 0.0038(14)
C2 0.0416(11) 0.0460(12) 0.0479(12) -0.0049(10) 0.0099(9) -0.0056(9)
C3 0.0413(11) 0.0351(10) 0.0579(13) -0.0014(10) 0.0073(9) -0.0019(9)
F3 0.0730(10) 0.0502(9) 0.0878(11) 0.0089(7) 0.0214(8) 0.0157(7)
C4 0.0409(11) 0.0413(11) 0.0489(12) 0.0017(9) 0.0033(9) -0.0085(9)
C5 0.0462(11) 0.0466(12) 0.0496(12) -0.0048(10) 0.0131(9) -0.0063(10)
C6 0.0409(11) 0.0382(11) 0.0640(14) 0.0010(10) 0.0105(10) -0.0027(9)
C7 0.0484(12) 0.0610(15) 0.0591(15) 0.0055(12) 0.0049(11) -0.0024(11)
loop_
_atom_type_symbol
_atom_type_description
_atom_type_scat_dispersion_real
_atom_type_scat_dispersion_imag
_atom_type_scat_source
C C 0.0033 0.0016 'International Tables Vol C Tables 4.2.6.8 and 6.1.1.4'
H H 0.0000 0.0000 'International Tables Vol C Tables 4.2.6.8 and 6.1.1.4'
N N 0.0061 0.0033 'International Tables Vol C Tables 4.2.6.8 and 6.1.1.4'
F F 0.0171 0.0103 'International Tables Vol C Tables 4.2.6.8 and 6.1.1.4'
loop_
_geom_angle_atom_site_label_1
_geom_angle_atom_site_label_2
_geom_angle_atom_site_label_3
_geom_angle
_geom_angle_site_symmetry_1
_geom_angle_site_symmetry_3
_geom_angle_publ_flag
C4 N1 H2 118(2) . . ?
C4 N1 H1 117(2) . . ?
H2 N1 H1 124(3) . . ?
C2 C1 C6 116.5(2) . . ?
C2 C1 C7 121.9(2) . . ?
C6 C1 C7 121.6(2) . . ?
F1 C2 C3 119.9(2) . . ?
F1 C2 C1 119.2(2) . . ?
C3 C2 C1 121.0(2) . . ?
F2 C3 C2 119.37(19) . . ?
F2 C3 C4 118.8(2) . . ?
C2 C3 C4 121.8(2) . . ?
N1 C4 C3 120.4(2) . . ?
N1 C4 C5 121.8(2) . . ?
C3 C4 C5 117.7(2) . . ?
C6 C5 C4 119.1(2) . . ?
C6 C5 H5 120.5 . . ?
C4 C5 H5 120.5 . . ?
F3 C6 C5 118.8(2) . . ?
F3 C6 C1 117.3(2) . . ?
C5 C6 C1 123.9(2) . . ?
N2 C7 C1 178.3(3) . . ?
loop_
_geom_bond_atom_site_label_1
_geom_bond_atom_site_label_2
_geom_bond_distance
_geom_bond_site_symmetry_2
_geom_bond_publ_flag
N1 C4 1.360(3) . ?
N1 H2 0.898(18) . ?
N1 H1 0.903(17) . ?
F1 C2 1.342(2) . ?
C1 C2 1.384(3) . ?
C1 C6 1.387(3) . ?
C1 C7 1.426(3) . ?
F2 C3 1.355(2) . ?
N2 C7 1.145(3) . ?
C2 C3 1.367(3) . ?
C3 C4 1.390(3) . ?
F3 C6 1.349(3) . ?
C4 C5 1.400(3) . ?
C5 C6 1.358(3) . ?
C5 H5 0.9300 . ?
loop_
_geom_torsion_atom_site_label_1
_geom_torsion_atom_site_label_2
_geom_torsion_atom_site_label_3
_geom_torsion_atom_site_label_4
_geom_torsion
_geom_torsion_site_symmetry_1
_geom_torsion_site_symmetry_2
_geom_torsion_site_symmetry_3
_geom_torsion_site_symmetry_4
_geom_torsion_publ_flag
C6 C1 C2 F1 -179.71(19) . . . . ?
C7 C1 C2 F1 1.1(3) . . . . ?
C6 C1 C2 C3 0.4(3) . . . . ?
C7 C1 C2 C3 -178.9(2) . . . . ?
F1 C2 C3 F2 -0.5(3) . . . . ?
C1 C2 C3 F2 179.44(19) . . . . ?
F1 C2 C3 C4 179.57(19) . . . . ?
C1 C2 C3 C4 -0.5(3) . . . . ?
F2 C3 C4 N1 1.2(3) . . . . ?
C2 C3 C4 N1 -178.9(2) . . . . ?
F2 C3 C4 C5 -179.31(18) . . . . ?
C2 C3 C4 C5 0.7(3) . . . . ?
N1 C4 C5 C6 178.8(2) . . . . ?
C3 C4 C5 C6 -0.7(3) . . . . ?
C4 C5 C6 F3 -178.80(19) . . . . ?
C4 C5 C6 C1 0.6(3) . . . . ?
C2 C1 C6 F3 178.97(18) . . . . ?
C7 C1 C6 F3 -1.8(3) . . . . ?
C2 C1 C6 C5 -0.4(3) . . . . ?
C7 C1 C6 C5 178.8(2) . . . . ?
