#------------------------------------------------------------------------------
#$Date: 2022-02-22 01:35:25 +0200 (Tue, 22 Feb 2022) $
#$Revision: 273073 $
#$URL: file:///home/coder/svn-repositories/cod/cif/7/24/44/7244460.cif $
#------------------------------------------------------------------------------
#
# This file is available in the Crystallography Open Database (COD),
# http://www.crystallography.net/
#
# All data on this site have been placed in the public domain by the
# contributors.
#
data_7244460
loop_
_publ_author_name
'Senchyk, Ganna A.'
'Lysenko, Andrey B.'
'Krautscheid, Harald'
'Rusanov, Eduard B.'
'Karbowiak, Miroslaw'
'Domasevitch, Kostiantyn V.'
_publ_section_title
;
 1,2,4-Triazolyl-4-acetate: a ditopic ligand combining soft and hard donor
 sites in homometallic (AgI) and heterometallic (AgI/UVI) coordination
 polymers
;
_journal_name_full               CrystEngComm
_journal_paper_doi               10.1039/D1CE01549D
_journal_year                    2022
_chemical_formula_moiety         'C16 H18 Ag4 N12 O8, 2(N O3), 2(H2 O)'
_chemical_formula_sum            'C16 H22 Ag4 N14 O16'
_chemical_formula_weight         1097.95
_chemical_name_systematic
;
poly[[bis[2-(1,2,4-triazol-4-yl)acetato)]-bis[2-(1,2,4-triazol-4-yl)acetic 
acid)]tetrasilver(I)] dinitrate dihydrate]] 
;
_space_group_crystal_system      triclinic
_space_group_IT_number           2
_space_group_name_Hall           '-P 1'
_space_group_name_H-M_alt        'P -1'
_atom_sites_solution_hydrogens   mixed
_atom_sites_solution_primary     direct
_atom_sites_solution_secondary   difmap
_audit_creation_method           SHELXL-2014/7
_audit_update_record
;
2021-07-20 deposited with the CCDC.	2022-01-27 downloaded from the CCDC.
;
_cell_angle_alpha                97.061(10)
_cell_angle_beta                 98.041(10)
_cell_angle_gamma                109.612(9)
_cell_formula_units_Z            1
_cell_length_a                   7.2551(6)
_cell_length_b                   7.5170(7)
_cell_length_c                   15.0801(13)
_cell_measurement_reflns_used    7012
_cell_measurement_temperature    213(2)
_cell_measurement_theta_max      27.909
_cell_measurement_theta_min      2.775
_cell_volume                     754.26(13)
_computing_cell_refinement       'IPDS Software (Stoe & Cie, 2000)'
_computing_data_collection       'IPDS Software (Stoe & Cie, 2000)'
_computing_data_reduction        'IPDS Software (Stoe & Cie, 2000)'
_computing_molecular_graphics    'Diamond 2.1e (Brandenburg, 1999)'
_computing_publication_material  'WinGX 1.70.01 (Farrugia, 1999)'
_computing_structure_refinement  'SHELXL-2014/7 (Sheldrick, 2014)'
_computing_structure_solution    'SHELXS-97 (Sheldrick, 2008)'
_diffrn_ambient_temperature      213(2)
_diffrn_measured_fraction_theta_full 0.989
_diffrn_measured_fraction_theta_max 0.985
_diffrn_measurement_device_type  'Stoe Image Plate Diffraction System-2T'
_diffrn_measurement_method       '\f oscillation scans'
_diffrn_radiation_type           MoK\a
_diffrn_radiation_wavelength     0.71073
_diffrn_reflns_av_R_equivalents  0.0302
_diffrn_reflns_av_unetI/netI     0.0433
_diffrn_reflns_Laue_measured_fraction_full 0.989
_diffrn_reflns_Laue_measured_fraction_max 0.985
_diffrn_reflns_limit_h_max       9
_diffrn_reflns_limit_h_min       -9
_diffrn_reflns_limit_k_max       9
_diffrn_reflns_limit_k_min       -9
_diffrn_reflns_limit_l_max       18
_diffrn_reflns_limit_l_min       -19
_diffrn_reflns_number            7012
_diffrn_reflns_point_group_measured_fraction_full 0.989
_diffrn_reflns_point_group_measured_fraction_max 0.985
_diffrn_reflns_theta_full        25.242
_diffrn_reflns_theta_max         27.909
_diffrn_reflns_theta_min         2.775
_diffrn_source                   'fine-focus sealed tube'
_exptl_absorpt_coefficient_mu    2.656
_exptl_absorpt_correction_T_max  0.4671
_exptl_absorpt_correction_T_min  0.4063
_exptl_absorpt_correction_type   numerical
_exptl_absorpt_process_details
'X-RED (Stoe & Cie, 2001) and X-SHAPE (Stoe & Cie, 1999)'
_exptl_crystal_colour            colorless
_exptl_crystal_density_diffrn    2.417
_exptl_crystal_description       prism
_exptl_crystal_F_000             532
_exptl_crystal_size_max          0.240
_exptl_crystal_size_mid          0.210
_exptl_crystal_size_min          0.200
_refine_diff_density_max         1.002
_refine_diff_density_min         -0.668
_refine_diff_density_rms         0.118
_refine_ls_extinction_method     none
_refine_ls_goodness_of_fit_ref   0.910
_refine_ls_hydrogen_treatment    constr
_refine_ls_matrix_type           full
_refine_ls_number_parameters     226
_refine_ls_number_reflns         3556
_refine_ls_number_restraints     0
_refine_ls_restrained_S_all      0.910
_refine_ls_R_factor_all          0.0323
_refine_ls_R_factor_gt           0.0238
_refine_ls_shift/su_max          0.001
_refine_ls_shift/su_mean         0.000
_refine_ls_structure_factor_coef Fsqd
_refine_ls_weighting_details
'w=1/[\s^2^(Fo^2^)+(0.0319P)^2^] where P=(Fo^2^+2Fc^2^)/3'
_refine_ls_weighting_scheme      calc
_refine_ls_wR_factor_gt          0.0554
_refine_ls_wR_factor_ref         0.0569
_reflns_Friedel_coverage         0.000
_reflns_number_gt                2711
_reflns_number_total             3556
_reflns_threshold_expression     'I > 2\s(I)'
_cod_data_source_file            d1ce01549d2.cif
_cod_data_source_block           2
_cod_original_cell_volume        754.26(12)
_cod_database_code               7244460
_shelx_shelxl_version_number     2014/7
_shelx_space_group_comment
;
The symmetry employed for this shelxl refinement is uniquely defined
by the following loop, which should always be used as a source of
symmetry information in preference to the above space-group names.
They are only intended as comments.
;
_shelx_estimated_absorpt_t_min   0.568
_shelx_estimated_absorpt_t_max   0.619
_shelx_res_file
;

    ip1722m.res created by SHELXL-2014/7

TITL ip1722 in P-1
CELL  0.71073   7.2551   7.5170  15.0801   97.061   98.041  109.612
ZERR     1.00   0.0006   0.0007   0.0013    0.010    0.010    0.009
LATT   1
SFAC  C    H    N    O    AG
UNIT  16   22   14   16   4
MERG   2
FMAP   2
PLAN   10
SIZE     0.20   0.21   0.24
BOND
BOND $H
CONF

EQIV $1 1+X, -1+Y, Z
EQIV $2 1-X, 2-Y, -Z
EQIV $3 -1+X, -1+Y, Z
EQIV $4 -1+X, Y, Z
EQIV $5 -X, -1-Y, 1-Z
EQIV $6 1-X, 1-Y, -Z
EQIV $7 1+X, 2+Y, Z
EQIV $8 X, 1+Y, Z

EQIV $9 X, -1+Y, Z
EQIV $10 1+X, 1+Y, Z
EQIV $11 -X, -Y, 1-Z
EQIV $12 1+X, 1+Y, Z

RTAB H..O H1W O6
RTAB H..O H2W O4_$1
RTAB H..O H1O O7_$2
RTAB H..O H1 O5_$3
RTAB H..O H1 O1W_$4
RTAB H..O H2 O1_$5
RTAB H..O H2 O2_$5
RTAB H..O H3A O1W_$3
RTAB H..O H5 O7_$6
RTAB H..O H6 O1_$7
RTAB H..O H6 O1W_$8
RTAB H..O H7A O6_$6
RTAB H..O H7A O7_$6
RTAB H..O H7B O5
RTAB H..O H7B O1W_$8
RTAB H..O H7B O3_$2

RTAB O..O O1W O6
RTAB O..O O1W O4_$1
RTAB O..O O3 O7_$2
RTAB O..O C1 O5_$3
RTAB O..O C1 O1W_$4
RTAB O..O C2 O1_$5
RTAB O..O C2 O2_$5
RTAB O..O C3 O1W_$3
RTAB O..O C5 O7_$6
RTAB O..O C6 O1_$7
RTAB O..O C6 O1W_$8
RTAB O..O C7 O6_$6
RTAB O..O C7 O7_$6
RTAB O..O C7 O5
RTAB O..O C7 O1W_$8
RTAB O..O C7 O3_$2

RTAB XHY O1W H1W O6
RTAB XHY O1W H2W O4_$1
RTAB XHY O3 H1O O7_$2
RTAB XHY C1 H1 O5_$3
RTAB XHY C1 H1 O1W_$4
RTAB XHY C2 H2 O1_$5
RTAB XHY C2 H2 O2_$5
RTAB XHY C3 H3A O1W_$3
RTAB XHY C5 H5 O7_$6
RTAB XHY C6 H6 O1_$7
RTAB XHY C6 H6 O1W_$8
RTAB XHY C7 H7A O6_$6
RTAB XHY C7 H7A O7_$6
RTAB XHY C7 H7B O5
RTAB XHY C7 H7B O1W_$8
RTAB XHY C7 H7B O3_$2

BIND AG1 O4_$9
BIND AG1 O1_$10
BIND AG1 O2_$11
BIND AG2 O2_$12

ACTA
L.S.   4
TEMP   -60.00
WGHT    0.031900
FVAR       0.25254
AG1   5    0.211572    0.300340    0.330195    11.00000    0.03226    0.01564 =
         0.03077    0.01158    0.00636    0.00404
AG2   5    0.549046    0.804925    0.468368    11.00000    0.02336    0.02474 =
         0.01908    0.00292    0.00004    0.00414
O1    4   -0.424396   -0.732379    0.394750    11.00000    0.03297    0.01551 =
         0.03102    0.00645    0.00881   -0.00125
O2    4   -0.265915   -0.457907    0.492345    11.00000    0.03803    0.02377 =
         0.02398    0.00351    0.01112    0.00379
O3    4    0.264234    1.050858    0.013867    11.00000    0.07081    0.03996 =
         0.03031    0.02100    0.02193    0.03729
AFIX   3
H1O   2    0.218094    1.135798    0.009167    11.00000   -1.50000
AFIX   0
O4    4    0.189465    1.060684    0.152416    11.00000    0.09010    0.05903 =
         0.03062    0.01834    0.02471    0.05599
O5    4    0.675689    0.678362    0.124688    11.00000    0.06244    0.06835 =
         0.03647    0.01416    0.01734    0.04417
O6    4    0.806370    0.462220    0.109322    11.00000    0.13645    0.06943 =
         0.06419    0.04447    0.03730    0.07574
O7    4    0.829440    0.650699    0.013619    11.00000    0.06767    0.04011 =
         0.03056    0.01341    0.01615    0.03271
N1    3    0.084201    0.023068    0.367110    11.00000    0.02596    0.01864 =
         0.01824    0.00697    0.00060    0.00541
N2    3    0.172482   -0.021819    0.444072    11.00000    0.01827    0.01917 =
         0.02041    0.00717    0.00250    0.00400
N3    3   -0.068519   -0.281423    0.367234    11.00000    0.01666    0.01469 =
         0.01967    0.00645    0.00509    0.00223
N4    3    0.296591    0.559686    0.274804    11.00000    0.02673    0.01490 =
         0.02067    0.00395    0.00272    0.00258
N5    3    0.406923    0.742500    0.323376    11.00000    0.02190    0.01366 =
         0.02110    0.00294    0.00143    0.00248
N6    3    0.328016    0.761428    0.180474    11.00000    0.02518    0.01948 =
         0.01812    0.00751    0.00510    0.00837
N7    3    0.766203    0.595205    0.083081    11.00000    0.04413    0.03068 =
         0.02146    0.00364   -0.00185    0.01978
C1    1   -0.058318   -0.135018    0.322475    11.00000    0.02447    0.01964 =
         0.02176    0.00820    0.00058    0.00278
AFIX  43
H1    2   -0.141669   -0.144830    0.267032    11.00000   -1.20000
AFIX   0
C2    1    0.077501   -0.204016    0.442198    11.00000    0.01896    0.01998 =
         0.02441    0.00997    0.00777    0.00774
AFIX  43
H2    2    0.106709   -0.272353    0.487001    11.00000   -1.20000
AFIX   0
C3    1   -0.204210   -0.481389    0.340122    11.00000    0.02482    0.01402 =
         0.02552    0.00252    0.00671    0.00199
AFIX  23
H3A   2   -0.129082   -0.560709    0.320465    11.00000   -1.20000
H3B   2   -0.306395   -0.491233    0.287918    11.00000   -1.20000
AFIX   0
C4    1   -0.306808   -0.560851    0.416332    11.00000    0.01586    0.01833 =
         0.02437    0.00887    0.00468    0.00739
C5    1    0.252814    0.576362    0.189771    11.00000    0.03136    0.01944 =
         0.02122    0.00217    0.00275    0.00430
AFIX  43
H5    2    0.179105    0.473419    0.141851    11.00000   -1.20000
AFIX   0
C6    1    0.424180    0.860266    0.265274    11.00000    0.02355    0.01457 =
         0.02090    0.00482    0.00439    0.00493
AFIX  43
H6    2    0.493087    0.993752    0.280108    11.00000   -1.20000
AFIX   0
C7    1    0.327072    0.831067    0.094370    11.00000    0.03893    0.03071 =
         0.01693    0.00924    0.00999    0.01921
AFIX  23
H7A   2    0.243047    0.724708    0.045250    11.00000   -1.20000
H7B   2    0.463026    0.872896    0.082355    11.00000   -1.20000
AFIX   0
C8    1    0.252133    0.994854    0.092589    11.00000    0.03437    0.02850 =
         0.01999    0.00790    0.00532    0.01552
O1W   4    0.806087    0.143683    0.192931    11.00000    0.08264    0.03818 =
         0.03830    0.01309    0.01822    0.02806
AFIX   3
H1W   2    0.808547    0.233133    0.163151    11.00000   -1.50000
H2W   2    0.905217    0.110813    0.186141    11.00000   -1.50000
AFIX   0
HKLF    4

REM  ip1722 in P-1
REM R1 =  0.0238 for    2711 Fo > 4sig(Fo)  and  0.0323 for all    3556 data
REM    226 parameters refined using      0 restraints

END

WGHT      0.0319      0.0000

REM Highest difference peak  1.002,  deepest hole -0.668,  1-sigma level  0.118
Q1    1   0.1921  0.2382  0.2735  11.00000  0.05    1.00
Q2    1   0.5645  0.7426  0.4123  11.00000  0.05    0.89
Q3    1   0.5693  0.8409  0.5223  11.00000  0.05    0.83
Q4    1   0.2005  0.3478  0.3898  11.00000  0.05    0.75
Q5    1   0.4925  0.8190  0.4102  11.00000  0.05    0.75
Q6    1  -0.2416 -0.5271  0.3802  11.00000  0.05    0.54
Q7    1   0.0651  0.2761  0.3171  11.00000  0.05    0.48
Q8    1   0.3423  0.8092  0.2189  11.00000  0.05    0.45
Q9    1   0.4468  0.8230  0.4821  11.00000  0.05    0.44
Q10   1   0.1668  0.0269  0.4811  11.00000  0.05    0.44
;
_shelx_res_checksum              3899
_shelx_hkl_file
;
  -9   1   0   -0.25    7.41
  -9   1   0    0.05    6.37
  -9   1   1   -0.57    8.36
  -9   1   1   -0.19    8.29
  -9   1   2   49.11    6.02
  -9   1   3   17.05    6.15
  -9   1   4    0.14    5.90
  -9   1   5   22.95    5.72
   9  -1  -7    2.81    6.71
  -9   1   7   -0.39    6.79
   9  -1  -8    1.03    6.25
  -9   2   0   14.60    4.77
   9  -2   0   14.75    4.63
   9  -2  -1   41.39    4.69
  -9   2   1   50.19    5.01
  -9   2   2   36.39    4.49
   9  -2  -2   33.02    4.49
   9  -2  -3   12.13    4.15
  -9   2   3   13.64    4.11
  -9   2   4    0.82    4.36
   9  -2  -4    1.56    4.30
   9  -2  -5    8.89    4.42
  -9   2   5   10.37    4.62
   9  -2  -6   30.55    4.96
  -9   2   6   29.08    4.85
  -9   2   7   50.92    4.29
   9  -2  -7   49.12    5.10
   9  -2  -8   25.20    4.93
  -9   2   8   28.41    4.92
  -9   3   0    2.03    3.56
   9  -3   0    1.92    3.57
   9  -3  -1    6.45    4.14
  -9   3   1    7.78    4.09
   9  -3  -2   28.80    3.53
  -9   3   2   32.42    4.24
   9  -3  -3   45.20    3.67
  -9   3   3   54.11    4.34
  -9   3   4    6.05    3.33
   9  -3  -4    6.44    4.17
   9  -3  -5    0.21    4.32
  -9   3   5    0.60    4.19
  -9   3   6    1.50    3.74
   9  -3  -6    1.88    3.85
   9  -3  -7    3.91    3.88
  -9   3   7    4.08    4.65
   9  -3  -8    0.83    3.85
  -9   3   8    1.16    4.66
   9  -3  -9    1.17    3.87
  -9   4   0   12.35    3.63
   9  -4   0   13.21    3.62
   9  -4  -1    1.73    3.37
  -9   4   1    2.24    3.32
  -9   4   2   14.53    4.14
   9  -4  -2   14.34    3.45
  -9   4   3    4.24    3.34
   9  -4  -3    5.01    4.12
   9  -4  -4    0.57    3.36
  -9   4   4    0.89    3.30
  -9   4   5    3.05    4.43
   9  -4  -5    2.12    3.85
   9  -4  -6   18.83    3.96
  -9   4   6   17.22    3.89
   9  -4  -7   56.98    4.20
  -9   4   7   57.84    4.09
   9  -4  -8   36.07    4.16
  -9   4   8   42.80    4.04
   9  -5   0    1.01    3.88
  -9   5   0    4.55    4.67
  -9   5   1    1.71    3.83
   9  -5  -1    3.25    3.85
  -9   5   2   33.35    3.95
   9  -5  -2   34.67    4.00
   9  -5  -3   52.85    4.14
  -9   5   3   57.55    4.05
  -9   5   4   46.15    3.99
   9  -5  -4   39.27    4.09
  -9   5   5   13.00    3.86
   9  -5  -5   14.24    3.98
  -9   5   6    2.59    3.77
   9  -5  -6   -0.66    3.95
   9  -6   0   20.71    4.00
  -9   6   0   19.15    4.01
  -9   6   1    1.84    3.86
   9  -6  -1    1.20    3.89
  -9   6   2    1.93    3.82
   9  -6  -2    0.41    3.90
  -9   6   3    1.95    3.84
   9  -6  -3    2.40    3.92
   9  -6  -4    2.10    2.78
  -9   6   4    1.98    2.74
   8   2  -1    0.12    3.85
   8   2  -2    3.94    3.87
   8   2  -3   24.04    4.96
   8   2  -4   36.58    5.15
   8   2  -5    9.89    4.22
   8   2  -6    0.03    4.17
   8   2  -7    7.51    4.18
   8   1  -1    7.19    4.33
   8   1  -2   10.18    5.81
   8   1  -3   58.47    5.02
   8   1  -4   32.63    5.12
   8   1  -5    1.97    4.67
   8   1  -6    1.57    4.98
   8   1  -8   31.79    5.90
   8   1  -9   76.10    6.39
   8   0  -1   21.45    4.79
   8   0  -2    0.25    5.87
   8   0  -3    4.11    5.44
   8   0  -4   32.10    4.67
   8   0  -5   70.77    4.02
   8   0  -6   34.92    4.63
   8   0  -7    0.13    4.18
   8   0  -9    1.85    5.88
   8   0  -9    1.49    6.14
   8   0 -10    5.87    5.01
   8   0 -10    5.76    5.67
   8   0 -11    4.74    5.35
   8   0 -11    3.93    5.52
   8   0 -12   -0.34    5.57
   8   0 -12    0.29    4.55
   8  -1   0   78.18    4.78
  -8   1   0   93.30    4.84
  -8   1   0   84.09    4.33
   8  -1  -1   54.72    4.43
  -8   1   1   62.07    4.56
   8  -1  -2    5.03    3.39
  -8   1   2    6.02    3.94
  -8   1   3    2.06    3.86
   8  -1  -3    1.76    3.86
  -8   1   4    2.06    3.93
   8  -1  -4    2.63    3.95
  -8   1   5    3.65    3.46
   8  -1  -5    3.05    4.07
   8  -1  -6    9.39    3.64
  -8   1   6    8.38    4.15
   8  -1  -7    7.30    4.18
  -8   1   7    6.74    3.62
   8  -1  -8   17.04    4.17
  -8   1   8   16.71    4.22
  -8   1   9   47.53    4.47
   8  -1  -9   46.25    4.36
  -8   1  10   63.43    4.63
   8  -1 -10   71.98    4.54
  -8   1  11    5.23    4.39
   8  -1 -11    7.46    4.49
  -8   1  12   -0.39    4.73
   8  -1 -12    0.87    3.77
  -8   2   0   52.30    3.77
   8  -2   0   47.11    3.14
   8  -2  -1    1.61    2.82
  -8   2   1    2.14    2.80
   8  -2  -2    0.29    3.49
  -8   2   2    0.14    2.77
  -8   2   3    1.52    3.38
   8  -2  -3    1.05    3.53
   8  -2  -4    8.52    3.60
  -8   2   4    9.84    2.82
  -8   2   5   96.39    4.04
   8  -2  -5   86.08    3.53
   8  -2  -6   77.74    4.05
  -8   2   6   77.30    3.92
   8  -2  -7   24.20    3.05
  -8   2   7   25.28    2.96
   8  -2  -8    2.09    3.56
  -8   2   8    3.61    3.43
  -8   2   9    1.10    3.96
   8  -2  -9   -0.48    3.34
   8  -2 -10   36.59    4.31
  -8   2  10   34.04    4.23
   8  -2 -11   30.85    4.29
  -8   2  11   26.40    3.49
  -8   2  12   28.25    3.98
   8  -2 -12   29.13    4.05
  -8   2  13    0.91    3.14
   8  -3   0   49.82    3.16
  -8   3   0   50.90    3.10
   8  -3  -1   72.77    3.35
  -8   3   1   78.04    3.29
   8  -3  -2   89.17    3.44
  -8   3   2   97.37    3.36
  -8   3   3   -0.84    2.82
   8  -3  -3    0.41    2.87
  -8   3   4    4.07    2.80
   8  -3  -4    3.62    2.90
  -8   3   5    3.01    2.78
   8  -3  -5    3.23    2.89
  -8   3   6   13.19    3.48
   8  -3  -6   15.25    3.63
  -8   3   7   31.04    2.96
   8  -3  -7   29.11    3.11
   8  -3  -8    2.63    2.94
  -8   3   8    2.30    2.84
   8  -3  -9    3.70    3.36
  -8   3   9    2.46    3.27
  -8   3  10   13.21    3.36
   8  -3 -10   14.92    3.45
  -8   3  11   10.13    3.62
   8  -3 -11    9.36    3.39
  -8   3  12    0.74    3.86
   8  -3 -12   -0.20    3.91
  -8   4   0   10.34    2.85
   8  -4   0    7.72    2.91
  -8   4   1    8.26    2.86
   8  -4  -1    8.85    2.90
   8  -4  -2    1.21    2.87
  -8   4   2    1.93    2.81
  -8   4   3   10.84    2.89
   8  -4  -3   14.20    2.93
  -8   4   4   15.77    2.90
   8  -4  -4   15.79    3.60
   8  -4  -5   13.49    2.95
  -8   4   5   14.09    2.86
  -8   4   6   76.04    3.23
   8  -4  -6   72.81    3.31
   8  -4  -7   54.18    3.24
  -8   4   7   54.79    3.14
  -8   4   8    4.49    3.99
   8  -4  -8    2.03    3.39
  -8   4   9   -0.07    3.29
   8  -4  -9    1.04    3.39
  -8   4  10    0.43    3.33
   8  -4 -10    1.60    4.16
   8  -4 -11   18.49    3.92
  -8   4  11   18.03    3.95
  -8   4  12   27.71    3.10
   8  -5   0    3.35    2.87
  -8   5   0    3.99    2.87
   8  -5  -1   79.78    3.25
  -8   5   1   70.08    3.19
  -8   5   2   67.60    3.18
   8  -5  -2   61.80    2.41
  -8   5   3   36.10    3.00
   8  -5  -3   29.74    2.23
  -8   5   4    5.17    2.84
   8  -5  -4    3.49    2.06
  -8   5   5   -0.34    2.85
   8  -5  -5    1.22    3.13
  -8   5   6   10.78    3.27
   8  -5  -6   11.58    3.36
  -8   5   7   18.47    3.30
   8  -5  -7   15.71    3.42
  -8   5   8   20.18    3.33
   8  -5  -8   20.06    3.43
  -8   5   9    1.17    3.53
   8  -5  -9    1.52    3.58
   8  -5 -10    1.69    3.89
  -8   5  10    2.56    3.79
   8  -6   0   -0.78    2.33
  -8   6   0    2.96    3.28
  -8   6   1    1.06    3.29
   8  -6  -1    1.01    3.26
  -8   6   2    9.98    3.34
   8  -6  -2    7.10    3.34
   8  -6  -3   24.63    3.40
  -8   6   3   23.99    3.40
  -8   6   4   26.20    3.35
   8  -6  -4   22.64    3.41
   8  -6  -5    0.81    3.29
  -8   6   5    0.56    3.27
  -8   6   6    4.96    2.31
   8  -6  -6    1.94    3.36
   8  -6  -7    8.52    2.70
  -8   6   7    9.00    3.53
  -8   6   8    2.55    3.78
   8  -6  -8    1.08    2.71
  -8   6   9    0.24    3.80
  -8   7   0   11.35    3.65
   8  -7   0    9.96    3.56
   8  -7  -1    1.72    3.52
  -8   7   1    0.61    3.61
   8  -7  -2   36.08    3.71
  -8   7   2   36.43    3.76
  -8   7   3   44.18    2.87
   8  -7  -3   47.78    3.96
  -8   7   4    3.74    3.84
   8  -7  -4    3.40    2.70
  -8   7   5    0.40    3.83
   8  -7  -5   -0.88    3.81
   8  -7  -6    2.16    3.78
  -8   7   6    2.42    2.70
   7   3  -1   14.19    5.00
   7   3  -2    4.58    4.56
   7   3  -3    0.03    4.42
   7   3  -4    0.08    4.45
   7   3  -5   11.46    5.53
   7   3  -6   97.25    6.77
   7   3  -7  142.11    6.96
   7   3  -8   45.72    5.95
   7   3  -9    1.80    4.79
   7   3 -10    6.68    4.93
   7   2  -1   34.45    4.13
   7   2  -2  111.11    5.96
   7   2  -3   64.62    5.89
   7   2  -4   12.20    5.99
   7   2  -5    1.72    5.69
   7   2  -6    2.11    5.06
   7   2  -7   30.16    6.14
   7   2  -8   46.21    6.96
   7   2  -9   28.31    6.24
   7   2 -11   15.58    5.17
   7   2 -13    9.57    6.88
   7   2 -13    9.09    5.87
   7   1  -1    0.14    4.43
   7   1  -3   12.13    4.03
   7   1  -4   48.81    5.41
   7   1  -5    2.10    4.62
   7   1 -10    1.39    4.83
   7   1 -10    1.30    5.02
   7   1 -11    1.02    4.60
   7   1 -11    0.95    4.62
   7   1 -12   58.64    5.04
   7   1 -12   51.97    4.69
   7   1 -13   88.62    5.25
   7   1 -13   74.78    5.50
   7   1 -14   28.98    5.04
   7   1 -14   40.31    4.84
  -7   0   1    6.04    4.97
  -7   0   1    4.95    5.42
  -7   0   2   88.24    4.83
  -7   0   3  165.20    4.08
  -7   0   4  126.85    5.03
  -7   0   5    8.40    4.00
  -7   0   6    1.80    4.30
   7   0  -6    2.02    4.21
  -7   0   7    1.03    3.54
   7   0  -7    0.91    3.51
   7   0  -8   68.61    4.68
  -7   0   8   76.09    4.72
   7   0  -8   81.18    4.53
  -7   0   9  109.98    5.07
   7   0  -9  104.79    4.72
   7   0  -9  123.52    5.06
   7   0 -10   22.50    3.68
   7   0 -10   18.76    3.83
   7   0 -11    1.02    3.52
   7   0 -11    1.16    3.64
   7   0 -12    9.38    4.19
   7   0 -12    7.71    3.36
   7   0 -13    1.06    4.13
   7   0 -13    0.57    4.07
   7   0 -14    3.05    3.87
   7   0 -14    3.35    3.88
   7   0 -15   -0.35    3.92
   7   0 -15    0.32    3.88
  -7   1   0   75.22    3.50
   7  -1   0   75.74    3.49
   7  -1  -1    7.04    2.89
  -7   1   1    6.77    2.95
  -7   1   2    0.46    2.83
   7  -1  -2    0.17    2.91
   7  -1  -3    5.80    3.01
  -7   1   3    6.39    2.85
  -7   1   4   38.81    3.14
   7  -1  -4   35.79    3.33
  -7   1   5   71.12    3.42
   7  -1  -5   72.12    3.59
  -7   1   6    4.46    2.88
   7  -1  -6    3.44    3.01
  -7   1   7   31.98    2.63
   7  -1  -7   32.06    3.24
  -7   1   8   30.02    3.15
   7  -1  -8   31.63    3.22
   7  -1  -9   36.48    3.44
  -7   1   9   33.29    2.85
  -7   1  10    0.05    3.45
   7  -1 -10   -0.84    2.91
  -7   1  11    3.42    2.86
   7  -1 -11    3.69    3.59
  -7   1  12   11.52    3.12
   7  -1 -12   11.45    3.20
   7  -1 -13   67.66    3.75
  -7   1  13   64.66    3.65
  -7   1  14   99.16    4.09
   7  -1 -14  100.30    4.20
  -7   1  15   33.65    3.97
   7  -1 -15   32.56    4.04
   7  -1 -15   31.49    4.12
   7  -2   0   30.04    3.14
  -7   2   0   26.74    2.51
  -7   2   1   41.75    2.65
   7  -2  -1   44.42    2.74
   7  -2  -2    1.27    2.42
  -7   2   2    1.12    2.33
  -7   2   3   50.24    2.70
   7  -2  -3   48.42    3.28
  -7   2   4   85.27    2.95
   7  -2  -4   84.97    3.54
  -7   2   5   27.77    2.52
   7  -2  -5   32.18    3.16
  -7   2   6   12.17    2.39
   7  -2  -6   13.48    3.06
  -7   2   7    2.44    2.36
   7  -2  -7    2.01    2.48
   7  -2  -8   35.09    2.71
  -7   2   8   33.41    2.60
  -7   2   9  104.18    3.10
   7  -2  -9  111.01    3.21
  -7   2  10  104.21    3.41
   7  -2 -10  112.33    3.57
  -7   2  11   12.88    3.54
   7  -2 -11   12.34    2.97
   7  -2 -12    1.12    3.13
  -7   2  12    1.82    3.07
  -7   2  13    5.18    4.07
   7  -2 -13    4.48    3.40
   7  -2 -14    2.54    4.56
  -7   2  14    0.78    3.82
   7  -2 -15    6.44    3.95
  -7   2  15    4.54    3.88
   7  -3   0  177.53    3.57
  -7   3   0  160.66    3.40
  -7   3   1   89.59    2.94
   7  -3  -1   93.12    3.49
   7  -3  -2   24.10    2.55
  -7   3   2   25.40    3.03
   7  -3  -3    0.19    2.42
  -7   3   3   -0.71    2.36
  -7   3   4  105.56    3.04
   7  -3  -4  104.06    3.06
  -7   3   5  169.84    3.44
   7  -3  -5  170.58    3.46
  -7   3   6   49.52    2.67
   7  -3  -6   51.70    2.76
   7  -3  -7   12.23    2.52
  -7   3   7   12.91    2.42
   7  -3  -8    1.54    2.47
  -7   3   8    0.99    2.37
  -7   3   9   -0.46    2.79
   7  -3  -9   -0.04    2.88
  -7   3  10    8.27    2.86
   7  -3 -10    8.73    2.91
   7  -3 -11    7.50    2.90
  -7   3  11    6.05    2.05
  -7   3  12   -0.41    3.33
   7  -3 -12   -0.72    3.33
   7  -3 -13   21.34    3.43
  -7   3  13   23.39    3.46
  -7   3  14   13.92    3.95
   7  -3 -14   14.35    3.95
  -7   4   0   15.65    2.47
   7  -4   0   16.04    2.50
   7  -4  -1  107.22    2.98
  -7   4   1  112.12    2.99
  -7   4   2   34.28    2.56
   7  -4  -2   30.84    1.90
   7  -4  -3    1.86    2.41
  -7   4   3    2.27    2.39
   7  -4  -4    1.24    2.42
  -7   4   4    0.58    2.37
  -7   4   5   46.50    2.62
   7  -4  -5   47.26    2.67
   7  -4  -6   -0.34    2.45
  -7   4   6   -0.99    2.38
  -7   4   7   19.45    2.46
   7  -4  -7   20.65    2.53
   7  -4  -8    2.17    2.86
  -7   4   8    2.60    2.77
  -7   4   9   50.26    3.04
   7  -4  -9   51.21    3.10
   7  -4 -10  154.51    3.61
  -7   4  10  158.10    3.65
   7  -4 -11  114.19    3.75
  -7   4  11  110.65    3.78
  -7   4  12   24.34    3.41
   7  -4 -12   19.41    3.38
  -7   4  13    1.03    3.83
   7  -4 -13   -0.55    3.78
   7  -4 -14    1.61    2.73
  -7   4  14    1.13    3.95
  -7   5   0   38.76    2.62
   7  -5   0   38.33    2.58
  -7   5   1   40.18    2.63
   7  -5  -1   39.95    2.60
   7  -5  -2    0.90    1.68
  -7   5   2   -1.43    2.41
  -7   5   3    0.42    2.37
   7  -5  -3   -0.24    2.40
   7  -5  -4    3.73    2.43
  -7   5   4    5.19    2.41
  -7   5   5   81.82    2.80
   7  -5  -5   80.49    2.84
  -7   5   6   82.23    3.13
   7  -5  -6   82.18    3.18
  -7   5   7   69.92    3.08
   7  -5  -7   68.45    3.13
   7  -5  -8    1.45    2.80
  -7   5   8    0.43    2.79
   7  -5  -9   -0.47    2.81
  -7   5   9   -1.29    2.83
  -7   5  10   -0.26    3.26
   7  -5 -10    1.30    3.20
  -7   5  11   26.66    3.40
   7  -5 -11   21.06    3.34
   7  -5 -12   12.49    3.80
  -7   5  12   13.18    2.75
   7  -5 -13    1.70    2.69
  -7   5  13    2.40    3.92
  -7   6   0    3.76    2.03
   7  -6   0    3.72    1.98
   7  -6  -1   52.56    2.27
  -7   6   1   62.27    3.07
   7  -6  -2   53.19    3.03
  -7   6   2   42.74    2.23
   7  -6  -3   52.51    3.02
  -7   6   3   43.49    2.20
  -7   6   4    0.56    2.82
   7  -6  -4   -0.23    2.80
   7  -6  -5    1.06    1.96
  -7   6   5    0.26    1.99
  -7   6   6   -0.01    2.81
   7  -6  -6   -0.39    2.81
   7  -6  -7    6.66    2.84
  -7   6   7    6.91    2.01
   7  -6  -8   10.73    3.20
  -7   6   8   12.61    3.25
   7  -6  -9   -0.75    3.21
  -7   6   9    2.25    3.25
   7  -6 -10   11.02    2.63
  -7   6  10   10.48    3.80
   7  -6 -11   19.20    3.86
  -7   6  11   24.12    3.92
  -7   7   0    3.46    2.91
   7  -7   0    5.84    2.83
   7  -7  -1   11.62    2.85
  -7   7   1   10.44    2.95
  -7   7   2    8.88    2.90
   7  -7  -2    7.99    2.03
  -7   7   3    6.04    2.09
   7  -7  -3   10.40    3.05
   7  -7  -4    4.91    3.22
  -7   7   4    5.57    3.30
   7  -7  -5   10.56    2.31
  -7   7   5   11.11    3.33
  -7   7   6   55.18    3.45
   7  -7  -6   48.40    3.40
   7  -7  -7   53.31    3.43
  -7   7   7   58.94    3.73
   7  -7  -8   16.92    2.66
  -7   7   8   17.63    3.85
   7  -7  -9    2.00    3.71
  -7   7   9   -0.13    3.82
  -7   8   0    0.57    3.35
   7  -8   0   -0.58    3.28
  -7   8   1    6.04    3.63
   7  -8  -1    6.61    2.35
  -7   8   2   73.10    3.88
   7  -8  -2   78.68    3.80
  -7   8   3   30.30    3.94
   7  -8  -3   32.12    3.84
   7  -8  -4   34.48    3.90
  -7   8   4   36.64    2.80
  -7   8   5   -2.03    3.83
   7  -8  -5    1.78    3.73
   6   5  -2    0.00    3.53
   6   5  -3   36.53    4.18
   6   5  -4   67.14    3.87
   6   5  -5   49.57    3.25
   6   5  -6    6.50    3.30
   6   5  -7    0.01    5.61
   6   4  -1   82.96    3.18
   6   4  -2   14.71    3.80
   6   4  -3    7.65    4.12
   6   4  -4    7.48    3.43
   6   4  -5   16.93    3.08
   6   4  -6   71.68    3.35
   6   4  -7   29.81    3.40
   6   4  -8    0.77    2.28
   6   4  -9   54.52    3.25
   6   4 -10   13.52    2.38
   6   4 -11    0.20    1.66
   6   4 -12    2.75    2.01
   6   3  -1   20.31    2.23
   6   3  -2    7.03    3.52
   6   3  -3    4.33    4.89
   6   3  -4   76.86    4.01
   6   3  -4   60.39    4.88
   6   3  -5  118.46    5.42
   6   3  -6   72.72    3.91
   6   3  -7    0.52    3.78
   6   3  -8    0.40    2.74
   6   3  -9   29.16    3.68
   6   3 -10   55.37    2.63
   6   3 -12   19.16    6.18
   6   3 -12   20.70    6.56
   6   3 -13    3.70    5.44
   6   3 -13    3.43    5.75
   6   3 -14   13.52    4.59
   6   3 -14   16.30    5.54
   6   2  -1  282.47    4.27
   6   2  -2   79.43    3.84
   6   2  -3    1.20    3.21
   6   2  -4    1.42    3.62
   6   2  -5    9.53    2.41
   6   2  -6   65.74    4.58
   6   2  -7   77.96    2.15
   6   2  -8   20.37    2.81
   6   2  -9   16.57    4.88
   6   2 -10   27.50    4.83
   6   2 -10   30.20    5.21
   6   2 -11    0.14    3.99
   6   2 -11   -0.06    3.94
   6   2 -12    2.94    3.47
   6   2 -12    2.85    3.51
   6   2 -13    6.19    4.06
   6   2 -13    7.02    4.07
   6   2 -14    4.52    4.10
   6   2 -14    5.26    3.40
   6   2 -15   51.87    4.19
   6   2 -15   49.57    5.15
   6   1  -3  202.03    4.11
   6   1  -7    9.22    2.18
   6   1  -8    3.15    3.87
   6   1  -8    3.38    3.73
   6   1  -9    0.10    3.40
   6   1  -9    0.24    3.43
   6   1 -10   44.96    3.46
   6   1 -10   46.85    3.46
   6   1 -11   57.68    4.00
   6   1 -11   64.92    4.00
   6   1 -12   93.34    3.58
   6   1 -12   78.01    4.18
   6   1 -13    5.07    2.98
   6   1 -13    5.70    3.63
   6   1 -14   -1.10    4.12
   6   1 -14    1.56    4.11
   6   1 -15   -0.45    4.17
   6   1 -15   -1.28    3.42
   6   1 -16    6.22    4.89
   6   1 -16    7.60    4.81
  -6   0   1  142.07    4.60
   6   0  -1  142.17    5.02
   6   0  -2  131.59    4.96
  -6   0   2  134.53    4.89
  -6   0   3   10.49    3.21
   6   0  -3   10.39    3.22
  -6   0   4    5.23    3.21
   6   0  -4    5.33    3.25
   6   0  -5   12.63    3.02
  -6   0   5   10.74    3.03
   6   0  -6  116.94    4.11
  -6   0   6  108.97    3.83
  -6   0   7  276.93    5.55
   6   0  -7  300.29    5.44
   6   0  -8  143.15    4.08
  -6   0   8  137.58    4.15
   6   0  -9   34.16    3.26
  -6   0   9   29.35    2.69
   6   0 -10    1.12    2.47
  -6   0  10    1.41    3.00
   6   0 -11   -0.48    2.52
   6   0 -11    0.67    2.46
  -6   0  11   -0.14    2.44
   6   0 -12   49.23    3.20
   6   0 -12   48.67    3.24
  -6   0  12   49.52    3.12
   6   0 -13   28.79    3.09
  -6   0  13   29.96    3.02
   6   0 -13   27.75    3.07
   6   0 -14    7.71    3.15
   6   0 -14    9.61    3.20
   6   0 -15    5.36    4.18
   6   0 -15    5.08    3.29
   6   0 -16   13.43    3.94
   6   0 -16   11.75    3.81
  -6   1   0    0.33    2.38
   6  -1   0    0.73    2.00
   6  -1  -1    4.36    2.08
  -6   1   1    3.99    1.99
  -6   1   2   84.70    3.15
   6  -1  -2   89.01    3.35
  -6   1   3  199.62    4.12
   6  -1  -3  181.69    3.82
  -6   1   4  132.30    3.51
   6  -1  -4  127.66    3.60
  -6   1   5    0.72    2.30
   6  -1  -5    1.34    2.02
   6  -1  -6   17.54    2.62
  -6   1   6   15.06    2.05
  -6   1   7   23.83    2.13
   6  -1  -7   24.10    2.26
  -6   1   8   17.44    2.50
   6  -1  -8   17.70    2.19
   6  -1  -9   17.63    2.53
  -6   1   9   16.81    2.46
   6  -1 -10    2.67    2.46
  -6   1  10    2.33    2.41
   6  -1 -11   27.35    2.62
  -6   1  11   29.10    2.56
  -6   1  12  106.34    3.09
   6  -1 -12  108.85    3.14
  -6   1  13   37.96    3.01
   6  -1 -13   38.99    3.72
   6  -1 -14    7.46    2.97
  -6   1  14    7.76    2.89
  -6   1  15    0.89    3.24
   6  -1 -15    0.56    3.39
   6  -1 -16    8.34    3.79
   6  -1 -16    8.38    3.96
  -6   1  16   10.47    3.77
   6  -1 -17   69.39    4.19
   6  -2   0   68.71    2.60
  -6   2   0   71.20    2.90
  -6   2   1   52.56    2.40
   6  -2  -1   51.54    2.49
   6  -2  -2   65.52    2.94
  -6   2   2   56.73    2.45
  -6   2   3    5.73    2.00
   6  -2  -3    5.14    2.06
   6  -2  -4   21.72    2.63
  -6   2   4   22.31    2.58
  -6   2   5    3.61    1.96
   6  -2  -5    3.57    2.06
   6  -2  -6   16.80    2.60
  -6   2   6   15.99    2.06
  -6   2   7   79.62    2.52
   6  -2  -7   73.12    2.57
  -6   2   8  135.16    2.87
   6  -2  -8  139.39    2.99
  -6   2   9   96.71    2.94
   6  -2  -9   93.94    2.96
  -6   2  10    4.22    2.41
   6  -2 -10    3.05    2.44
   6  -2 -11   12.50    2.49
  -6   2  11   12.36    2.46
  -6   2  12    8.62    2.69
   6  -2 -12    7.84    2.71
   6  -2 -13   36.52    3.04
  -6   2  13   34.84    3.04
   6  -2 -14   67.12    3.23
  -6   2  14   67.04    3.34
   6  -2 -15    3.56    3.40
  -6   2  15    6.16    3.32
   6  -2 -16    9.52    3.94
  -6   2  16    9.64    3.84
   6  -3   0    6.92    2.09
  -6   3   0    5.95    2.05
   6  -3  -1    1.62    2.00
  -6   3   1    0.60    1.98
   6  -3  -2    8.46    2.09
  -6   3   2   10.26    2.06
   6  -3  -3  246.29    3.63
  -6   3   3  229.67    3.49
   6  -3  -4  445.35    4.81
  -6   3   4  450.68    4.81
  -6   3   5  122.86    2.82
   6  -3  -5  125.08    2.85
  -6   3   6    0.49    1.98
   6  -3  -6    1.28    2.02
   6  -3  -7   34.90    2.20
  -6   3   7   35.06    2.18
  -6   3   8    1.14    2.15
   6  -3  -8    1.32    2.17
   6  -3  -9   32.33    2.52
  -6   3   9   31.38    2.51
  -6   3  10   46.01    2.62
   6  -3 -10   41.15    2.60
   6  -3 -11   12.38    2.45
  -6   3  11   14.30    2.50
   6  -3 -12    3.32    2.85
  -6   3  12    4.62    2.05
  -6   3  13    9.80    2.94
   6  -3 -13    8.86    2.05
   6  -3 -14    0.12    3.29
  -6   3  14    0.22    3.35
  -6   3  15    1.35    3.37
   6  -3 -15    2.91    3.57
   6  -3 -16   -1.58    3.93
  -6   3  16    1.11    3.90
   6  -4   0  129.74    2.79
  -6   4   0  126.89    2.76
   6  -4  -1   23.19    2.14
  -6   4   1   22.93    2.13
  -6   4   2    7.50    2.02
   6  -4  -2    8.24    2.02
   6  -4  -3   -0.47    2.00
  -6   4   3   -0.05    1.98
   6  -4  -4    2.05    1.43
  -6   4   4    2.27    2.00
   6  -4  -5   21.57    2.11
  -6   4   5   19.91    2.07
   6  -4  -6   25.59    2.10
  -6   4   6   20.74    1.52
  -6   4   7   10.36    2.40
   6  -4  -7   11.48    2.40
   6  -4  -8   76.48    2.13
  -6   4   8   80.51    2.16
   6  -4  -9   39.43    2.54
  -6   4   9   41.85    2.55
   6  -4 -10   19.19    2.47
  -6   4  10   22.35    2.50
   6  -4 -11    2.87    1.96
  -6   4  11    4.01    2.85
   6  -4 -12    2.14    2.81
  -6   4  12    2.18    2.06
   6  -4 -13   34.62    3.39
  -6   4  13   35.17    3.48
   6  -4 -14   76.16    3.65
  -6   4  14   74.55    3.72
   6  -4 -15   26.58    3.98
  -6   4  15   29.63    4.06
  -6   5   0   -0.01    1.98
   6  -5   0   -0.15    1.97
  -6   5   1   38.02    2.20
   6  -5  -1   36.98    2.18
  -6   5   2    9.81    1.47
   6  -5  -2   10.88    2.03
  -6   5   3   23.67    2.11
   6  -5  -3   18.09    1.52
   6  -5  -4  151.08    2.55
  -6   5   4  165.01    3.11
  -6   5   5  190.70    3.23
   6  -5  -5  158.48    2.61
   6  -5  -6   12.43    2.42
  -6   5   6    9.56    1.73
   6  -5  -7    4.57    2.36
  -6   5   7    5.73    2.38
   6  -5  -8    2.77    2.35
  -6   5   8    3.03    2.40
   6  -5  -9   25.05    2.86
  -6   5   9   25.02    2.88
  -6   5  10  106.67    3.27
   6  -5 -10   98.02    3.20
  -6   5  11   31.84    2.99
   6  -5 -11   32.31    2.90
   6  -5 -12    0.67    2.28
  -6   5  12   -0.84    2.36
  -6   5  13    7.00    3.43
   6  -5 -13    5.87    2.36
   6  -5 -14    0.40    2.72
  -6   5  14    3.07    3.90
  -6   6   0  135.95    3.04
   6  -6   0  137.65    3.00
  -6   6   1  166.14    2.61
   6  -6  -1  188.77    3.28
   6  -6  -2    7.35    2.45
  -6   6   2    7.04    2.45
  -6   6   3    5.83    2.42
   6  -6  -3    5.22    2.41
  -6   6   4    1.77    2.42
   6  -6  -4    1.90    2.36
   6  -6  -5   44.51    2.55
  -6   6   5   41.84    2.60
  -6   6   6   39.17    1.92
   6  -6  -6   47.00    2.56
   6  -6  -7   19.70    2.83
  -6   6   7   18.36    2.05
  -6   6   8    1.08    1.98
   6  -6  -8    2.46    2.72
  -6   6   9    3.78    2.82
   6  -6  -9    5.47    2.75
   6  -6 -10   10.85    3.24
  -6   6  10   11.46    3.30
  -6   6  11   -1.43    3.32
   6  -6 -11   -1.43    3.24
   6  -6 -12    1.53    3.74
  -6   6  12    0.18    2.72
  -6   7   0    7.33    2.03
   6  -7   0    7.88    2.62
  -6   7   1    8.04    2.66
   6  -7  -1    9.45    2.83
  -6   7   2   50.80    3.02
   6  -7  -2   51.02    2.97
   6  -7  -3   11.62    2.84
  -6   7   3   13.02    2.87
   6  -7  -4   43.39    2.93
  -6   7   4   43.08    2.99
   6  -7  -5   37.05    2.92
  -6   7   5   40.36    2.95
   6  -7  -6   12.82    2.84
  -6   7   6   15.15    2.88
  -6   7   7    0.39    3.22
   6  -7  -7   -0.70    3.19
   6  -7  -8    7.67    3.23
  -6   7   8    7.77    2.33
  -6   7   9    1.62    3.28
   6  -7  -9    2.40    2.28
   6  -7 -10   47.85    3.89
  -6   7  10   47.08    3.99
   6  -8   0   28.90    3.18
  -6   8   0   32.24    3.18
   6  -8  -1   95.67    3.59
  -6   8   1   87.90    2.69
   6  -8  -2   25.44    2.42
  -6   8   2   31.20    3.37
   6  -8  -3    1.30    3.26
  -6   8   3    1.85    3.24
   6  -8  -4    3.17    3.23
  -6   8   4    0.93    2.31
   6  -8  -5    1.41    3.23
  -6   8   5   -0.38    3.28
  -6   8   6   40.00    3.70
   6  -8  -6   37.87    3.65
  -6   8   7   61.73    2.93
   6  -8  -7   67.94    3.93
  -6   8   8    5.84    3.85
   6  -8  -8    6.91    2.70
   6  -9   0    3.15    3.75
  -6   9   0   -0.12    2.69
  -6   9   1    7.24    3.87
   6  -9  -1   10.45    3.82
   6  -9  -2   19.38    3.92
  -6   9   2   28.12    3.87
  -6   9   3    1.38    3.85
   6  -9  -3    2.69    3.83
   5   6  -1    4.22    3.95
   5   6  -2    1.15    3.36
   5   6  -3   37.91    4.00
   5   6  -4   38.69    2.47
   5   6  -5    3.49    3.23
   5   6  -6   30.97    3.37
   5   6  -7   55.80    5.33
   5   6  -8   11.62    3.27
   5   5  -1    0.48    3.25
   5   5  -2   53.81    4.78
   5   5  -3  106.89    5.98
   5   5  -4   16.36    3.73
   5   5  -5    0.17    3.29
   5   5  -7   47.58    5.42
   5   5  -8  124.06    3.15
   5   5  -9   74.50    2.86
   5   5 -10    4.93    3.06
   5   5 -11    2.55    3.83
   5   5 -12    4.34    3.38
   5   4  -1    4.03    3.41
   5   4  -3   32.98    4.11
   5   4  -4  175.78    5.46
   5   4  -5  204.82    5.18
   5   4  -6    7.59    4.29
   5   4  -7    8.89    4.14
   5   4  -8   29.66    4.91
   5   4  -9    2.32    4.24
   5   4 -10   70.74    5.39
   5   4 -11   46.83    5.09
   5   4 -11   54.15    5.89
   5   4 -12   20.69    4.69
   5   4 -12   21.81    4.89
   5   4 -13  105.14    5.06
   5   4 -13  113.00    5.23
   5   4 -14   80.92    5.32
   5   4 -14   75.70    5.91
   5   4 -15   19.88    4.15
   5   3  -1   60.07    3.84
   5   3  -2    1.08    3.61
   5   3  -3   15.28    4.81
   5   3  -4    4.68    4.01
   5   3  -5    0.06    4.01
   5   3  -6    1.72    4.12
   5   3  -7   12.58    3.16
   5   3  -8  153.66    4.69
   5   3  -9  163.66    4.52
   5   3 -10   89.73    4.47
   5   3 -10   86.01    4.44
   5   3 -11   32.84    3.68
   5   3 -11   33.04    4.28
   5   3 -12    0.79    3.40
   5   3 -12    0.71    3.53
   5   3 -13   16.92    3.59
   5   3 -13   17.84    3.67
   5   3 -14   61.36    3.74
   5   3 -14   59.95    4.44
   5   3 -15   72.28    3.92
   5   3 -15   66.81    3.85
   5   3 -16   17.91    4.88
   5   3 -16   17.42    4.07
   5   2  -1   19.46    3.36
   5   2  -2    5.14    2.70
   5   2  -3   10.50    3.22
   5   2  -4  216.02    4.13
   5   2  -5  187.31    4.22
   5   2  -6   94.54    4.68
   5   2  -7    2.85    3.19
   5   2  -8    0.42    3.21
   5   2  -8    0.14    3.38
   5   2  -9    0.23    3.00
   5   2  -9    0.54    3.30
   5   2 -10  146.98    4.32
   5   2 -10  144.09    4.26
   5   2 -11  118.58    3.54
   5   2 -11  124.83    4.01
   5   2 -12    5.82    3.02
   5   2 -12    4.75    2.52
   5   2 -13    7.17    3.58
   5   2 -13    6.71    2.95
   5   2 -14   83.25    3.46
   5   2 -14   79.57    4.12
   5   2 -15   19.31    4.27
   5   2 -15   20.92    3.50
   5   2 -16    1.05    4.20
   5   2 -16    1.38    3.42
   5   2 -17    1.35    3.94
   5   2 -17    0.43    3.94
   5   1  -2  101.65    4.78
   5   1  -3    0.73    3.83
   5   1  -6   72.48    4.47
   5   1  -6   71.73    4.57
   5   1  -7   95.80    4.06
   5   1  -7  103.16    4.06
   5   1  -8    0.35    2.50
   5   1  -8    0.52    2.93
   5   1  -9  115.74    3.65
   5   1  -9  125.44    3.29
   5   1 -10   63.59    2.60
   5   1 -10   59.87    3.07
   5   1 -11   45.85    2.81
   5   1 -11   53.03    3.29
   5   1 -12    0.66    2.47
   5   1 -12    0.68    2.46
   5   1 -13    3.36    2.50
   5   1 -13    5.23    3.03
   5   1 -14   45.60    3.14
   5   1 -14   45.94    3.15
   5   1 -15   50.95    3.80
   5   1 -15   47.44    3.18
   5   1 -16   74.06    3.72
   5   1 -16   70.35    3.70
   5   1 -17   19.41    3.87
   5   1 -17   19.35    3.98
   5   0  -1    4.79    2.38
  -5   0   1    4.82    2.34
   5   0  -2    8.92    2.55
  -5   0   2    8.80    2.36
  -5   0   3    7.59    2.32
   5   0  -3    7.57    2.25
  -5   0   4   48.40    2.93
   5   0  -4   50.18    3.10
   5   0  -5  218.28    4.47
  -5   0   5  212.03    4.39
   5   0  -6  360.50    5.62
  -5   0   6  330.99    5.40
  -5   0   7   91.68    3.30
   5   0  -7  106.62    3.46
  -5   0   8    1.88    2.49
   5   0  -8    2.50    2.06
  -5   0   9    0.71    2.46
   5   0  -9    0.91    2.02
  -5   0  10   79.29    3.04
   5   0 -10   82.21    2.66
   5   0 -11  168.31    3.37
  -5   0  11  158.97    3.19
  -5   0  12  197.80    3.65
   5   0 -12  181.08    3.60
   5   0 -12  202.68    3.72
   5   0 -13    4.04    2.43
   5   0 -13    1.84    2.50
  -5   0  13    4.61    2.95
   5   0 -14   19.98    2.97
   5   0 -14   21.45    2.92
  -5   0  14   20.46    2.90
   5   0 -15   21.83    2.19
   5   0 -15   27.21    2.97
   5   0 -16   -0.08    3.35
   5   0 -16    0.37    2.29
   5   0 -17    9.86    3.42
   5   0 -17    6.91    3.31
   5   0 -18    6.34    3.95
   5   0 -18    8.02    3.74
   5  -1   0  156.26    3.51
  -5   1   0  154.12    3.40
   5  -1  -1  561.73    6.33
  -5   1   1  654.58    6.92
   5  -1  -2  291.30    4.65
  -5   1   2  256.76    4.09
   5  -1  -3  198.31    3.63
  -5   1   3  227.04    4.03
   5  -1  -4   47.28    2.22
  -5   1   4   52.28    2.47
  -5   1   5    0.64    1.94
   5  -1  -5    0.20    1.70
   5  -1  -6   92.88    2.59
  -5   1   6   95.41    2.76
   5  -1  -7  198.41    3.54
  -5   1   7  195.15    3.42
  -5   1   8   43.26    2.32
   5  -1  -8   45.98    2.37
  -5   1   9    1.89    1.99
   5  -1  -9    2.37    2.00
  -5   1  10   53.73    2.76
   5  -1 -10   49.36    2.34
  -5   1  11   37.07    2.21
   5  -1 -11   33.97    2.19
  -5   1  12    1.10    2.40
   5  -1 -12    1.93    2.40
   5  -1 -13    0.91    2.43
  -5   1  13    0.78    2.39
  -5   1  14    0.91    2.80
   5  -1 -14    0.34    2.88
   5  -1 -15   61.93    3.18
  -5   1  15   60.46    3.08
   5  -1 -16   79.47    3.56
  -5   1  16   78.61    3.54
   5  -1 -16   72.44    3.65
   5  -1 -17   54.73    3.75
   5  -1 -17   54.88    3.86
  -5   1  17   58.58    3.72
   5  -1 -18   18.48    3.84
   5  -1 -18   16.77    4.02
  -5   2   0    1.16    1.70
   5  -2   0    1.25    1.73
  -5   2   1   59.17    2.21
   5  -2  -1   61.33    2.22
  -5   2   2   37.89    2.04
   5  -2  -2   38.47    2.03
  -5   2   3  195.22    3.22
   5  -2  -3  222.92    3.43
   5  -2  -4   28.58    1.96
  -5   2   4   28.32    1.93
   5  -2  -5   26.57    1.90
  -5   2   5   26.92    1.85
   5  -2  -6   69.82    2.23
  -5   2   6   71.15    2.22
  -5   2   7   78.68    2.50
   5  -2  -7   79.36    2.52
   5  -2  -8   17.98    2.07
  -5   2   8   15.75    2.09
  -5   2   9   32.81    2.19
   5  -2  -9   29.30    2.16
   5  -2 -10   57.45    2.32
  -5   2  10   54.37    2.34
  -5   2  11  206.89    3.37
   5  -2 -11  205.98    3.37
  -5   2  12  146.47    3.16
   5  -2 -12  151.84    3.16
  -5   2  13   79.99    2.83
   5  -2 -13   70.32    2.17
   5  -2 -14   15.93    2.93
  -5   2  14   14.54    2.93
  -5   2  15    1.87    2.87
   5  -2 -15   -0.58    2.92
   5  -2 -16    2.03    3.35
  -5   2  16    1.44    3.32
   5  -2 -17   19.19    3.96
  -5   2  17   24.86    3.87
  -5   3   0    4.72    1.73
   5  -3   0    4.19    1.22
   5  -3  -1   86.85    2.32
  -5   3   1   95.03    2.40
   5  -3  -2  141.78    2.73
  -5   3   2  131.23    2.61
   5  -3  -3  350.07    3.99
  -5   3   3  354.87    3.86
   5  -3  -4    1.66    1.71
  -5   3   4    1.06    1.68
  -5   3   5    1.21    1.67
   5  -3  -5    1.88    1.65
  -5   3   6   21.78    2.14
   5  -3  -6   26.19    2.15
  -5   3   7  199.87    3.17
   5  -3  -7  207.82    3.19
   5  -3  -8  297.19    3.74
  -5   3   8  294.96    3.68
   5  -3  -9   79.00    1.95
  -5   3   9   95.36    2.53
  -5   3  10    3.37    2.02
   5  -3 -10    2.11    1.97
   5  -3 -11   12.26    2.39
  -5   3  11   10.36    2.46
   5  -3 -12   15.21    2.45
  -5   3  12   14.39    2.51
  -5   3  13   67.04    2.98
   5  -3 -13   57.28    2.29
  -5   3  14    2.73    2.90
   5  -3 -14    4.80    2.89
   5  -3 -15    1.20    3.31
  -5   3  15    0.90    3.36
  -5   3  16   12.05    2.46
   5  -3 -16   11.04    3.71
   5  -3 -17   40.34    4.04
  -5   3  17   40.76    4.09
   5  -4   0   27.49    1.39
  -5   4   0   33.18    1.90
   5  -4  -1   12.89    1.75
  -5   4   1   11.56    1.29
   5  -4  -2   24.10    1.82
  -5   4   2   22.93    1.84
   5  -4  -3  243.50    3.35
  -5   4   3  237.95    3.25
  -5   4   4  101.87    2.56
   5  -4  -4  109.19    2.64
   5  -4  -5   68.45    1.90
  -5   4   5   81.67    2.46
   5  -4  -6    5.43    1.43
  -5   4   6    4.90    2.01
   5  -4  -7   25.90    2.09
  -5   4   7   28.33    2.12
   5  -4  -8    4.50    1.93
  -5   4   8    3.70    2.00
   5  -4  -9    7.83    2.15
  -5   4   9    7.37    2.21
  -5   4  10   11.67    2.44
   5  -4 -10   10.81    1.70
   5  -4 -11   12.53    2.42
  -5   4  11   12.37    2.49
  -5   4  12   90.60    3.25
   5  -4 -12   87.35    3.16
  -5   4  13   67.75    3.18
   5  -4 -13   68.95    3.10
  -5   4  14   40.94    3.53
   5  -4 -14   40.09    3.47
   5  -4 -15    0.90    3.37
  -5   4  15    2.08    2.42
  -5   4  16    2.91    3.99
   5  -4 -16    2.79    3.94
   5  -5   0   86.42    2.46
  -5   5   0   72.85    1.91
   5  -5  -1    9.79    2.04
  -5   5   1    9.50    2.07
  -5   5   2   62.29    2.34
   5  -5  -2   62.73    2.33
  -5   5   3   96.04    2.51
   5  -5  -3   95.64    2.50
  -5   5   4   66.78    2.33
   5  -5  -4   71.70    2.36
  -5   5   5    0.36    2.00
   5  -5  -5    0.93    1.95
   5  -5  -6    9.17    1.43
  -5   5   6   11.85    1.99
  -5   5   7   20.92    2.25
   5  -5  -7   20.65    2.24
   5  -5  -8  146.49    2.98
  -5   5   8  131.69    2.38
  -5   5   9  162.45    3.11
   5  -5  -9  165.75    3.08
  -5   5  10   56.51    2.68
   5  -5 -10   56.08    2.62
  -5   5  11   -0.91    2.04
   5  -5 -11    0.18    2.79
   5  -5 -12    0.75    2.81
  -5   5  12    1.32    2.87
   5  -5 -13   13.56    3.33
  -5   5  13   10.93    3.43
   5  -5 -14   48.26    3.80
  -5   5  14   46.16    3.60
   5  -5 -15   24.09    2.90
  -5   5  15   18.62    4.16
   5  -6   0   39.03    2.17
  -5   6   0   38.56    2.18
   5  -6  -1    5.32    1.43
  -5   6   1    6.22    2.01
  -5   6   2    4.11    2.01
   5  -6  -2    4.84    1.98
  -5   6   3   29.46    2.16
   5  -6  -3   28.04    1.56
  -5   6   4  240.82    2.91
   5  -6  -4  247.65    2.95
  -5   6   5   74.05    2.71
   5  -6  -5   77.43    2.70
   5  -6  -6   15.96    1.76
  -5   6   6   19.01    2.47
   5  -6  -7    1.23    1.66
  -5   6   7    1.54    2.37
  -5   6   8    3.09    2.40
   5  -6  -8    4.70    2.57
   5  -6  -9    4.93    2.77
  -5   6   9    5.36    2.78
   5  -6 -10    7.33    2.83
  -5   6  10    9.05    2.87
   5  -6 -11    4.77    3.23
  -5   6  11    4.92    3.29
  -5   6  12    1.92    3.35
   5  -6 -12    3.55    3.30
  -5   6  13    6.82    3.94
   5  -6 -13    8.91    3.88
   5  -7   0  125.17    2.90
  -5   7   0  107.73    2.26
   5  -7  -1   95.94    2.78
  -5   7   1   83.80    2.16
  -5   7   2    1.72    1.70
   5  -7  -2    1.35    1.70
  -5   7   3    5.81    2.41
   5  -7  -3    5.15    2.40
  -5   7   4   10.73    2.46
   5  -7  -4   11.34    1.74
  -5   7   5    0.94    2.80
   5  -7  -5    1.05    2.57
   5  -7  -6   22.56    2.88
  -5   7   6   22.02    2.88
   5  -7  -7    2.34    2.76
  -5   7   7    0.82    1.99
  -5   7   8   18.70    2.11
   5  -7  -8   22.49    2.06
   5  -7  -9   58.13    3.42
  -5   7   9   59.86    3.46
   5  -7 -10   38.49    2.45
  -5   7  10   38.97    3.47
  -5   7  11    2.51    2.72
   5  -7 -11    1.36    3.79
   5  -8   0    2.08    2.81
  -5   8   0    1.92    2.83
  -5   8   1    0.78    2.83
   5  -8  -1    0.44    1.97
  -5   8   2   20.08    2.89
   5  -8  -2   20.32    2.88
  -5   8   3   15.53    2.07
   5  -8  -3   14.66    2.89
  -5   8   4   26.56    2.16
   5  -8  -4   30.91    2.14
  -5   8   5  104.27    3.61
   5  -8  -5   96.35    2.71
  -5   8   6   86.89    3.56
   5  -8  -6   74.63    2.62
  -5   8   7    1.78    2.32
   5  -8  -7    2.17    3.25
   5  -8  -8   -1.89    3.72
  -5   8   8    1.89    3.76
  -5   8   9   14.59    3.87
   5  -9   0   64.19    2.59
  -5   9   0   63.41    3.56
   5  -9  -1  120.55    3.75
  -5   9   1  113.77    2.80
  -5   9   2   32.80    3.67
   5  -9  -2   33.40    3.67
   5  -9  -3    1.60    3.75
  -5   9   3    2.55    3.78
  -5   9   4    6.26    3.82
   5  -9  -4    5.09    3.83
  -5   9   5   -0.31    3.81
   5  -9  -5   -1.77    3.80
   4   7  -4    0.09    3.69
   4   7  -6  108.05    4.69
   4   6  -1   71.02    4.87
   4   6  -2  104.89    5.70
   4   6  -3   43.04    4.58
   4   6  -4    0.16    5.15
   4   6  -5   11.88    4.28
   4   6  -6    0.60    4.38
   4   6  -7   10.61    5.48
   4   6  -8   20.21    4.19
   4   6  -9    0.99    6.91
   4   6  -9    0.89    6.32
   4   6 -10   19.46    4.80
   4   6 -10   16.95    5.91
   4   6 -11   63.21    6.12
   4   6 -11   78.53    6.15
   4   6 -12   24.00    4.99
   4   6 -12   27.01    5.06
   4   5  -1   96.36    6.19
   4   5  -2   54.72    5.71
   4   5  -3    9.61    4.63
   4   5  -4   28.88    4.40
   4   5  -5    0.63    3.09
   4   5  -7  241.79    6.57
   4   5  -8  107.76    7.23
   4   5  -8  119.43    8.15
   4   5  -9   -0.04    4.50
   4   5  -9    0.23    4.59
   4   5 -10    2.71    4.17
   4   5 -10    2.23    4.10
   4   5 -11   10.14    3.73
   4   5 -11   13.27    3.68
   4   5 -12   54.80    4.45
   4   5 -12   48.65    4.53
   4   5 -13   45.47    4.31
   4   5 -13   42.52    4.48
   4   5 -14    3.45    4.60
   4   5 -14    3.27    4.88
   4   5 -15    1.81    3.78
   4   5 -15    2.70    4.90
   4   4  -2  229.24    3.65
   4   4  -3  211.62    4.17
   4   4  -5    7.08    3.88
   4   4  -6   16.45    3.32
   4   4  -7   17.03    3.98
   4   4  -8   64.93    4.65
   4   4  -8   68.89    4.62
   4   4  -9   89.81    4.35
   4   4  -9   79.49    4.31
   4   4 -10    2.25    3.57
   4   4 -10   -0.16    3.45
   4   4 -11   67.06    3.20
   4   4 -11   57.83    3.72
   4   4 -12   83.97    3.99
   4   4 -12   78.05    4.13
   4   4 -13   -0.32    3.66
   4   4 -13   -0.37    3.45
   4   4 -14   15.29    3.45
   4   4 -14   15.81    4.03
   4   4 -15    1.54    3.30
   4   4 -15    0.71    3.42
   4   4 -16   21.13    4.89
   4   4 -16   18.71    3.98
   4   3  -1   19.15    3.06
   4   3  -2    2.79    3.71
   4   3  -3   22.39    4.60
   4   3  -4  121.41    3.57
   4   3  -5   71.27    4.17
   4   3  -6    7.98    3.03
   4   3  -7  198.78    6.31
   4   3  -7  206.39    6.33
   4   3  -8  316.55    5.92
   4   3  -8  291.22    5.78
   4   3  -9   15.11    2.60
   4   3  -9   13.80    2.65
   4   3 -10    0.83    2.86
   4   3 -10    1.42    2.44
   4   3 -11   -0.53    2.89
   4   3 -11    0.51    3.01
   4   3 -12   52.18    2.82
   4   3 -12   45.42    2.83
   4   3 -13   93.39    3.33
   4   3 -13   97.71    3.41
   4   3 -14  117.20    3.69
   4   3 -14  118.05    4.20
   4   3 -15    0.77    2.95
   4   3 -15    1.65    2.95
   4   3 -16   10.94    3.48
   4   3 -16   11.44    3.38
   4   3 -17   -1.66    4.00
   4   3 -17    1.51    3.85
   4   2  -1   28.64    3.30
   4   2  -2  147.86    3.83
   4   2  -4  474.69    4.11
   4   2  -5  148.82    3.26
   4   2  -6    3.42    3.01
   4   2  -6    3.50    2.96
   4   2  -7   33.38    2.89
   4   2  -7   31.51    2.90
   4   2  -8  120.86    3.68
   4   2  -8  118.53    3.66
   4   2  -9  223.10    4.42
   4   2  -9  218.97    4.37
   4   2 -10  150.26    3.43
   4   2 -10  145.83    3.65
   4   2 -11    1.12    2.03
   4   2 -11    1.22    2.02
   4   2 -12    2.83    2.44
   4   2 -12    2.99    2.45
   4   2 -13    5.13    2.47
   4   2 -13    7.32    2.48
   4   2 -14    0.99    2.49
   4   2 -14    1.59    2.46
   4   2 -15   29.31    3.03
   4   2 -15   27.91    3.07
   4   2 -16    1.51    3.10
   4   2 -16    1.38    3.14
   4   2 -17   28.65    3.47
   4   2 -17   31.11    3.54
   4   2 -18   65.56    4.09
   4   2 -18   63.12    4.18
   4   1  -1    3.90    4.53
   4   1  -2    4.61    4.70
   4   1  -3    7.23    5.55
   4   1  -4  231.59    5.88
   4   1  -5  310.54    6.34
   4   1  -5  314.84    6.42
   4   1  -6  128.67    3.82
   4   1  -6  129.75    3.72
   4   1  -7   69.30    2.82
   4   1  -7   61.84    2.89
   4   1  -8  138.21    3.50
   4   1  -8  156.07    3.46
   4   1  -9   81.74    3.08
   4   1  -9   72.58    2.76
   4   1 -10    6.96    2.14
   4   1 -10    5.93    2.51
   4   1 -11    0.55    2.04
   4   1 -11   -0.75    2.48
   4   1 -12   -0.46    2.03
   4   1 -12    0.73    2.03
   4   1 -13  150.75    3.81
   4   1 -13  133.38    3.20
   4   1 -14  141.44    3.26
   4   1 -14  127.83    3.16
   4   1 -15   40.65    3.02
   4   1 -15   47.53    3.04
   4   1 -16   40.98    3.07
   4   1 -16   42.56    3.03
   4   1 -17   16.15    3.37
   4   1 -17   17.49    3.30
   4   1 -18    9.77    3.56
   4   1 -18    9.32    2.72
   4   0  -1  119.20    4.00
  -4   0   1  116.37    3.88
   4   0  -2   81.44    3.67
  -4   0   2   79.82    3.46
  -4   0   3  103.51    3.39
   4   0  -3  107.89    3.80
  -4   0   4  240.48    4.59
   4   0  -4  236.55    4.63
  -4   0   5  122.26    3.34
   4   0  -5  130.73    3.47
   4   0  -6   16.75    1.87
  -4   0   6   16.69    2.21
   4   0  -7   12.04    1.77
  -4   0   7   11.34    1.79
  -4   0   8   56.65    2.55
   4   0  -8   58.57    2.21
   4   0  -9  192.08    3.41
  -4   0   9  169.53    3.07
   4   0 -10  323.31    4.15
  -4   0  10  311.89    4.09
  -4   0  11  187.82    3.22
   4   0 -11  181.60    3.23
  -4   0  12   18.49    2.11
   4   0 -12   17.98    2.12
   4   0 -13    0.40    2.41
   4   0 -13    0.09    2.38
  -4   0  13    0.13    2.36
  -4   0  14    2.87    2.37
   4   0 -14    1.47    2.43
   4   0 -14    0.99    2.40
   4   0 -15   63.68    2.88
   4   0 -15   59.76    2.93
   4   0 -16   48.64    2.98
   4   0 -16   45.44    3.05
   4   0 -17    0.29    3.19
   4   0 -17    0.18    3.29
   4   0 -18   28.17    3.68
   4   0 -18   31.70    3.56
   4   0 -19   26.06    2.77
   4  -1   0  531.51    5.97
  -4   1   0  617.06    6.56
   4  -1  -1  176.82    3.75
  -4   1   1  153.20    3.25
   4  -1  -2   37.99    2.17
  -4   1   2   39.36    2.18
  -4   1   3   88.01    2.66
   4  -1  -3   93.94    3.00
  -4   1   4  333.29    4.66
   4  -1  -4  305.43    4.30
  -4   1   5  454.04    5.10
   4  -1  -5  516.96    5.56
  -4   1   6  243.32    3.58
   4  -1  -6  227.34    3.51
  -4   1   7   65.52    2.22
   4  -1  -7   57.48    2.14
   4  -1  -8   15.04    1.77
  -4   1   8   15.00    1.78
   4  -1  -9   12.55    1.27
  -4   1   9   13.93    1.76
  -4   1  10    9.21    2.08
   4  -1 -10   10.37    2.07
   4  -1 -11   48.46    2.31
  -4   1  11   48.24    2.29
   4  -1 -12   67.77    2.41
  -4   1  12   65.15    2.36
  -4   1  13    4.59    2.41
   4  -1 -13    4.08    2.42
   4  -1 -14   35.54    2.61
  -4   1  14   37.97    2.55
   4  -1 -15   41.70    3.01
  -4   1  15   42.09    2.95
   4  -1 -16    6.77    2.90
  -4   1  16    5.65    2.01
   4  -1 -16    7.37    2.84
   4  -1 -17    0.25    3.21
   4  -1 -17    1.17    3.30
  -4   1  17   -2.53    3.24
   4  -1 -18    3.04    2.71
   4  -1 -18    3.73    2.63
   4  -2   0    0.65    1.76
  -4   2   0    0.84    1.75
   4  -2  -1  481.05    5.07
  -4   2   1  406.00    4.38
   4  -2  -2  514.00    5.31
  -4   2   2  453.54    4.72
   4  -2  -3   57.28    2.25
  -4   2   3   59.43    2.27
  -4   2   4  516.79    5.20
   4  -2  -4  529.50    5.21
  -4   2   5  200.23    3.17
   4  -2  -5  187.48    3.07
   4  -2  -6   12.70    1.75
  -4   2   6   12.02    1.77
  -4   2   7    4.86    1.71
   4  -2  -7    6.35    1.20
   4  -2  -8   40.19    1.91
  -4   2   8   42.39    1.96
   4  -2  -9   14.50    2.05
  -4   2   9   16.48    2.13
  -4   2  10  460.82    4.53
   4  -2 -10  462.11    4.53
   4  -2 -11  113.60    2.61
  -4   2  11  111.62    2.64
   4  -2 -12   96.14    2.55
  -4   2  12   84.78    2.01
  -4   2  13   27.08    2.57
   4  -2 -13   23.59    1.86
   4  -2 -14   -0.14    2.46
  -4   2  14    0.71    2.47
   4  -2 -15   25.35    3.01
  -4   2  15   26.14    2.97
   4  -2 -16   61.21    2.35
  -4   2  16   61.57    2.34
   4  -2 -17   43.61    2.58
  -4   2  17   48.74    2.56
   4  -2 -18    1.33    3.91
   4  -2 -18   -0.17    3.83
  -4   2  18    0.07    2.72
   4  -3   0  107.58    2.47
  -4   3   0  118.82    2.54
   4  -3  -1  104.59    2.46
  -4   3   1   92.25    2.36
   4  -3  -2    2.92    1.72
  -4   3   2    3.16    1.73
  -4   3   3   13.64    1.80
   4  -3  -3   12.77    1.78
  -4   3   4   80.79    2.29
   4  -3  -4   69.76    1.80
  -4   3   5  207.65    3.03
   4  -3  -5  197.49    2.93
  -4   3   6  417.83    3.87
   4  -3  -6  478.78    4.42
  -4   3   7  227.18    2.75
   4  -3  -7  260.82    3.21
  -4   3   8   14.06    1.55
   4  -3  -8   16.75    2.03
  -4   3   9    1.17    2.02
   4  -3  -9    1.49    1.97
   4  -3 -10    0.02    1.40
  -4   3  10    1.37    2.03
   4  -3 -11   23.33    2.10
  -4   3  11   25.94    2.14
   4  -3 -12   67.20    2.71
  -4   3  12   72.74    2.76
   4  -3 -13   15.93    2.49
  -4   3  13   14.68    2.57
  -4   3  14   12.03    2.94
   4  -3 -14    9.88    2.90
   4  -3 -15   14.20    2.99
  -4   3  15   16.18    3.01
   4  -3 -16    5.26    3.38
  -4   3  16    3.83    3.43
   4  -3 -17    3.47    3.89
  -4   3  17    4.07    2.76
   4  -4   0   71.72    2.13
  -4   4   0   69.71    2.14
   4  -4  -1  250.86    2.90
  -4   4   1  301.65    3.39
   4  -4  -2  507.66    4.39
  -4   4   2  501.95    4.26
  -4   4   3  185.61    2.79
   4  -4  -3  193.26    2.86
  -4   4   4    7.14    1.72
   4  -4  -4    8.31    1.70
  -4   4   5   -0.34    1.67
   4  -4  -5   -0.01    1.63
  -4   4   6   16.40    2.08
   4  -4  -6   16.37    2.05
  -4   4   7   86.51    1.99
   4  -4  -7   99.71    2.49
  -4   4   8  136.66    2.73
   4  -4  -8  135.66    2.67
   4  -4  -9    2.12    1.98
  -4   4   9    2.88    1.43
  -4   4  10   32.59    1.65
   4  -4 -10   33.80    2.13
   4  -4 -11   91.28    2.74
  -4   4  11   79.11    2.14
   4  -4 -12   54.07    2.62
  -4   4  12   54.89    2.67
   4  -4 -13   -0.32    2.87
  -4   4  13   -0.61    2.91
   4  -4 -14    2.04    2.90
  -4   4  14    0.90    2.96
  -4   4  15    4.22    3.42
   4  -4 -15    0.31    3.40
   4  -4 -16   70.76    4.15
  -4   4  16   72.19    4.22
  -4   5   0   -0.40    1.20
   4  -5   0    0.33    1.66
  -4   5   1  133.54    2.13
   4  -5  -1  158.68    2.58
   4  -5  -2   12.05    1.72
  -4   5   2   10.79    1.27
   4  -5  -3    0.09    2.00
  -4   5   3    0.10    1.44
   4  -5  -4   38.96    2.20
  -4   5   4   34.31    1.65
   4  -5  -5    0.44    1.99
  -4   5   5   -0.27    1.44
  -4   5   6  163.14    2.80
   4  -5  -6  142.53    2.27
  -4   5   7   82.56    1.94
   4  -5  -7   89.40    2.42
  -4   5   8   53.43    2.24
   4  -5  -8   52.46    2.20
  -4   5   9   24.52    2.48
   4  -5  -9   24.65    2.44
  -4   5  10    1.54    2.42
   4  -5 -10    0.33    2.38
   4  -5 -11   38.76    1.92
  -4   5  11   44.08    2.64
   4  -5 -12   60.00    2.30
  -4   5  12   69.01    3.15
  -4   5  13  107.98    3.34
   4  -5 -13  102.83    3.51
  -4   5  14   21.22    3.48
   4  -5 -14   20.43    3.47
   4  -5 -15   -0.28    3.93
  -4   5  15   -0.13    3.97
   4  -6   0    5.80    1.99
  -4   6   0    4.87    2.03
   4  -6  -1    5.24    1.43
  -4   6   1    5.10    2.04
  -4   6   2  172.10    2.43
   4  -6  -2  176.62    2.45
  -4   6   3  316.08    3.51
   4  -6  -3  327.54    3.57
  -4   6   4   41.98    1.70
   4  -6  -4   42.94    1.69
  -4   6   5    1.51    1.97
   4  -6  -5    0.35    1.96
  -4   6   6   -0.15    2.36
   4  -6  -6   -0.01    1.65
  -4   6   7   14.93    1.77
   4  -6  -7   16.90    1.73
  -4   6   8  138.67    2.99
   4  -6  -8  128.11    2.36
   4  -6  -9   72.09    2.88
  -4   6   9   67.76    2.88
  -4   6  10    6.35    2.04
   4  -6 -10    5.51    2.02
   4  -6 -11   22.25    2.93
  -4   6  11   19.70    2.97
   4  -6 -12   11.20    3.32
  -4   6  12    7.42    3.41
  -4   6  13    0.25    2.77
   4  -6 -13    1.63    2.70
  -4   6  14    0.22    2.19
   4  -7   0   35.09    2.54
  -4   7   0   33.42    2.54
   4  -7  -1    1.11    2.38
  -4   7   1    1.83    2.39
  -4   7   2   13.39    1.75
   4  -7  -2   13.26    2.44
   4  -7  -3    4.83    1.69
  -4   7   3    4.00    2.40
   4  -7  -4   72.21    2.68
  -4   7   4   70.42    2.67
  -4   7   5   15.63    2.48
   4  -7  -5   12.95    1.74
  -4   7   6   -0.07    2.62
   4  -7  -6    1.06    1.68
   4  -7  -7   59.23    3.00
  -4   7   7   56.39    2.99
  -4   7   8   30.50    2.92
   4  -7  -8   30.87    2.91
  -4   7   9    8.66    3.23
   4  -7  -9    7.18    2.29
   4  -7 -10    2.75    3.23
  -4   7  10    1.52    2.32
   4  -7 -11    2.85    3.75
  -4   7  11    0.52    3.82
   4  -7 -12    3.58    3.88
   4  -8   0   16.34    2.87
  -4   8   0   15.25    2.87
  -4   8   1    4.36    2.83
   4  -8  -1    5.62    2.82
   4  -8  -2   23.77    2.91
  -4   8   2   22.23    2.91
  -4   8   3   27.73    2.92
   4  -8  -3   27.68    2.91
  -4   8   4   16.83    2.89
   4  -8  -4   15.84    2.89
  -4   8   5   10.19    2.84
   4  -8  -5    7.71    2.04
  -4   8   6    2.73    2.29
   4  -8  -6    1.31    3.24
   4  -8  -7    5.14    3.22
  -4   8   7    2.45    3.26
  -4   8   8   37.80    3.67
   4  -8  -8   37.38    3.62
  -4   8   9   57.13    4.02
   4  -8  -9   54.99    4.00
  -4   9   0  115.75    3.72
   4  -9   0  116.24    3.69
   4  -9  -1   14.88    3.37
  -4   9   1   17.05    3.38
   4  -9  -2    2.73    3.30
  -4   9   2    2.47    3.35
   4  -9  -3    5.77    3.29
  -4   9   3    5.73    3.32
   4  -9  -4   27.69    2.77
  -4   9   4   24.07    3.91
  -4   9   5   93.01    4.12
   4  -9  -5   86.62    3.03
   3   7  -1   12.99    4.17
  -3  -7   1   13.48    4.06
  -3  -7   2    8.79    4.58
   3   7  -2    9.75    4.68
  -3  -7   3    8.75    3.98
   3   7  -3   11.60    4.63
  -3  -7   4   89.85    5.33
   3   7  -4  103.48    5.48
   3   7  -5  113.18    5.61
  -3  -7   5   96.97    5.42
   3   7  -6    9.47    4.57
  -3  -7   6    8.11    4.60
  -3  -7   7    0.54    3.99
   3   7  -7    0.00    4.59
   3   7  -8    5.48    4.21
   3   7  -8    6.32    4.07
  -3  -7   8    4.27    4.10
   3   7  -9   35.12    5.48
   3   7  -9   37.87    4.78
   3   7 -10   86.11    5.56
   3   7 -10   94.15    5.47
   3   7 -11   36.57    5.14
   3   7 -11   40.11    5.11
  -3  -6   1  268.70    6.20
   3   6  -1  241.79    6.32
   3   6  -2   36.77    3.88
  -3  -6   2   40.79    4.23
  -3  -6   3    2.98    3.05
   3   6  -3    3.32    3.73
   3   6  -4    1.12    3.72
  -3  -6   4    1.49    3.57
   3   6  -5   32.58    4.12
  -3  -6   5   34.31    4.01
   3   6  -6  116.12    5.05
  -3  -6   6  122.66    4.99
  -3  -6   7   61.14    3.98
   3   6  -7   62.14    4.51
   3   6  -8    2.52    3.61
   3   6  -8    2.63    3.55
   3   6  -9   19.83    3.70
   3   6  -9   17.77    3.75
   3   6 -10   22.59    3.72
   3   6 -10   19.38    3.80
   3   6 -11    4.80    4.07
   3   6 -11    4.37    4.20
   3   6 -12    5.89    4.25
   3   6 -12    6.13    3.31
   3   6 -13   -0.37    4.68
   3   6 -13    1.12    3.49
   3   6 -14   44.03    4.78
   3   6 -14   40.56    4.22
  -3  -5   1   25.84    3.53
   3   5  -1   22.99    3.76
   3   5  -2  142.22    4.84
  -3  -5   2  147.02    4.42
  -3  -5   3   85.21    3.77
   3   5  -3   83.09    4.38
   3   5  -4   26.33    3.44
  -3  -5   4   26.77    3.27
   3   5  -5  186.74    5.32
  -3  -5   5  191.51    5.15
   3   5  -6  202.55    4.93
  -3  -5   6  200.64    4.85
   3   5  -7   13.40    3.12
   3   5  -7   14.49    3.54
   3   5  -8   18.85    3.59
   3   5  -8   17.09    3.17
   3   5  -9    4.69    3.01
   3   5  -9    4.49    3.08
   3   5 -10  192.76    4.54
   3   5 -10  220.80    4.32
   3   5 -11  322.96    5.34
   3   5 -11  301.88    5.62
   3   5 -12  131.40    4.25
   3   5 -12  123.33    4.33
   3   5 -13    5.20    2.99
   3   5 -13    5.52    2.81
   3   5 -14    5.02    3.21
   3   5 -14    3.57    4.18
   3   5 -15   -0.46    3.43
   3   5 -15   -0.92    4.02
   3   5 -16   21.56    4.05
   3   5 -16   18.46    3.95
   3   4  -1  181.90    5.27
  -3  -4   1  207.54    5.45
  -3  -4   2  106.22    4.56
   3   4  -2  100.14    4.69
  -3  -4   3   39.02    3.65
   3   4  -3   38.06    4.02
  -3  -4   4    6.58    3.18
   3   4  -4    7.12    3.26
   3   4  -5    1.81    3.23
   3   4  -5    1.92    2.88
   3   4  -6  204.61    5.03
   3   4  -6  236.56    4.99
   3   4  -7  120.75    3.73
   3   4  -7  100.03    3.59
   3   4  -8   42.06    2.87
   3   4  -8   36.43    2.87
   3   4  -9    0.24    2.53
   3   4  -9    0.65    2.44
   3   4 -10    0.78    2.88
   3   4 -10    0.44    2.47
   3   4 -11    1.62    2.39
   3   4 -11    1.16    3.08
   3   4 -12   61.90    2.83
   3   4 -12   57.19    2.88
   3   4 -13   37.26    2.86
   3   4 -13   34.86    3.41
   3   4 -14    3.49    3.50
   3   4 -14    2.90    2.92
   3   4 -15   74.47    3.33
   3   4 -15   75.78    3.94
   3   4 -16   87.82    3.74
   3   4 -16   85.47    3.86
   3   4 -17   46.42    4.05
   3   4 -17   44.26    4.17
  -3  -3   1   12.96    3.61
  -3  -3   2  252.68    4.76
   3   3  -3  356.95    5.02
   3   3  -4   42.08    4.33
   3   3  -4   52.31    4.57
   3   3  -5   10.55    2.79
   3   3  -5    8.48    2.66
   3   3  -6   39.90    2.76
   3   3  -6   50.14    3.11
   3   3  -7    2.80    2.29
   3   3  -7    2.07    2.17
   3   3  -8   74.97    3.23
   3   3  -8   85.03    3.24
   3   3  -9   35.87    2.72
   3   3  -9   34.18    2.38
   3   3 -10   31.10    2.66
   3   3 -10   28.55    2.32
   3   3 -11  190.80    3.47
   3   3 -11  193.22    3.81
   3   3 -12  237.05    3.93
   3   3 -12  244.76    4.03
   3   3 -13   42.95    2.72
   3   3 -13   43.16    2.69
   3   3 -14    3.21    2.45
   3   3 -14    2.35    2.50
   3   3 -15   -0.76    2.95
   3   3 -15    0.50    2.88
   3   3 -16   34.39    3.14
   3   3 -16   41.10    3.09
   3   3 -17  150.17    3.99
   3   3 -17  132.15    4.07
   3   3 -18   47.48    4.20
   3   3 -18   53.12    3.99
   3   2  -1  190.79    4.42
   3   2  -3  191.10    4.21
   3   2  -4   93.06    6.24
   3   2  -5    2.27    2.46
   3   2  -5    1.78    2.41
   3   2  -6  173.13    4.24
   3   2  -6  155.51    3.94
   3   2  -7  407.74    5.60
   3   2  -7  374.03    5.42
   3   2  -8  299.94    4.61
   3   2  -8  337.02    4.83
   3   2  -9   94.66    2.91
   3   2  -9  100.94    2.62
   3   2 -10    5.47    2.11
   3   2 -10    5.37    2.55
   3   2 -11    6.81    2.10
   3   2 -11    6.68    2.10
   3   2 -12   78.52    2.56
   3   2 -12   88.64    2.62
   3   2 -13   47.48    2.69
   3   2 -13   51.40    2.69
   3   2 -14   61.02    2.73
   3   2 -14   58.68    2.75
   3   2 -15    0.79    2.43
   3   2 -15    0.14    2.43
   3   2 -16    7.81    2.87
   3   2 -16    8.19    2.88
   3   2 -17   22.60    3.16
   3   2 -17   23.72    3.15
   3   2 -18    1.60    3.28
   3   2 -18    1.56    3.29
   3   2 -19    8.39    3.84
   3   2 -19    9.32    3.86
   3   1  -1    0.91    3.58
   3   1  -2  414.17    6.88
   3   1  -4  652.72    9.38
   3   1  -4  692.99    9.67
   3   1  -5   82.15    3.31
   3   1  -5   82.89    3.17
   3   1  -6   62.88    2.90
   3   1  -6   63.91    2.50
   3   1  -7   24.79    1.96
   3   1  -7   23.97    2.41
   3   1  -8    1.76    1.72
   3   1  -8    2.28    1.80
   3   1  -9  294.31    3.94
   3   1  -9  300.57    4.04
   3   1 -10   24.77    1.96
   3   1 -10   21.66    1.89
   3   1 -11   55.70    2.40
   3   1 -11   58.18    2.47
   3   1 -12  248.07    3.56
   3   1 -12  271.09    3.72
   3   1 -13  146.58    2.91
   3   1 -13  146.92    2.92
   3   1 -14   -0.11    2.41
   3   1 -14    0.60    2.36
   3   1 -15    0.26    2.39
   3   1 -15    1.81    2.37
   3   1 -16    5.68    2.78
   3   1 -16    5.11    2.01
   3   1 -17   78.67    3.16
   3   1 -17   79.21    3.15
   3   1 -18  151.69    3.90
   3   1 -18  152.20    3.86
   3   1 -19   63.79    2.91
   3   1 -19   71.98    4.03
   3   0  -1    0.58    1.86
  -3   0   1    0.70    1.83
  -3   0   2   70.65    3.27
   3   0  -2   72.08    3.30
   3   0  -3   80.83    3.07
  -3   0   3   76.37    2.94
  -3   0   4   17.52    2.01
   3   0  -4   17.56    2.02
   3   0  -5   70.06    2.80
  -3   0   5   66.41    2.55
   3   0  -6   49.75    2.51
  -3   0   6   46.54    2.27
   3   0  -7  209.59    3.41
  -3   0   7  198.37    3.40
   3   0  -8  336.64    4.14
  -3   0   8  308.78    3.98
   3   0  -9  327.24    3.96
  -3   0   9  299.84    3.78
  -3   0  10   65.63    2.16
   3   0 -10   66.36    2.18
  -3   0  11   17.43    2.14
   3   0 -11   14.55    2.15
   3   0 -12   30.17    2.19
   3   0 -12   27.65    2.18
  -3   0  12   30.24    2.18
   3   0 -13  205.61    3.18
   3   0 -13  225.74    3.27
  -3   0  13  210.36    3.15
   3   0 -14   95.82    2.28
   3   0 -14  118.08    2.91
  -3   0  14  116.63    2.95
   3   0 -15   69.67    2.74
   3   0 -15   72.96    2.69
   3   0 -16    0.28    1.96
   3   0 -16    1.39    2.81
   3   0 -17   16.92    2.90
   3   0 -17   15.25    2.86
   3   0 -18    1.32    3.25
   3   0 -18    3.85    2.24
   3   0 -19    0.30    3.79
   3   0 -19    3.23    3.68
  -3   1   0   54.19    2.52
   3  -1   0   51.07    2.24
  -3   1   1  377.06    4.88
   3  -1  -1  424.31    5.39
  -3   1   2   37.44    2.03
   3  -1  -2   40.23    2.06
  -3   1   3  596.95    6.36
   3  -1  -3  594.07    6.31
  -3   1   4  495.64    5.39
   3  -1  -4  481.00    5.29
  -3   1   5  678.53    6.31
   3  -1  -5  744.38    6.76
   3  -1  -6  112.53    2.60
  -3   1   6  105.24    2.62
   3  -1  -7   52.90    2.12
  -3   1   7   56.73    2.16
   3  -1  -8   67.84    2.16
  -3   1   8   66.46    2.20
  -3   1   9  167.08    2.83
   3  -1  -9  158.63    2.76
  -3   1  10  142.21    2.61
   3  -1 -10  144.26    2.64
  -3   1  11   10.18    1.52
   3  -1 -11   11.14    2.07
   3  -1 -12    5.56    2.03
  -3   1  12    4.29    2.04
   3  -1 -13    8.85    2.05
  -3   1  13    9.90    2.04
  -3   1  14   42.81    2.57
   3  -1 -14   39.24    2.57
   3  -1 -15   44.03    2.64
  -3   1  15   44.41    2.62
   3  -1 -16   -0.28    2.80
   3  -1 -16    1.99    2.81
  -3   1  16    0.70    1.97
   3  -1 -17   29.13    3.16
   3  -1 -17   25.43    2.18
  -3   1  17   29.63    2.96
   3  -1 -18   93.55    3.64
   3  -1 -18   94.75    3.63
   3  -1 -19   59.78    2.94
   3  -1 -19   66.21    4.03
  -3   2   0  582.17    5.45
   3  -2   0  599.58    5.64
   3  -2  -1  453.26    4.84
  -3   2   1  367.76    4.00
   3  -2  -2    0.47    1.47
  -3   2   2    0.29    1.51
  -3   2   3  209.87    3.22
   3  -2  -3  218.36    3.25
  -3   2   4   57.12    2.28
   3  -2  -4   53.28    2.19
  -3   2   5  438.72    4.50
   3  -2  -5  381.74    3.93
   3  -2  -6  505.00    4.72
  -3   2   6  520.89    4.77
   3  -2  -7   56.71    2.06
  -3   2   7   49.44    1.68
   3  -2  -8  143.31    2.62
  -3   2   8  152.84    2.67
   3  -2  -9  123.53    2.12
  -3   2   9  122.18    2.14
   3  -2 -10   33.30    2.22
  -3   2  10   34.72    2.22
   3  -2 -11    4.10    2.06
  -3   2  11    4.08    1.51
   3  -2 -12    0.53    1.42
  -3   2  12    1.15    2.04
   3  -2 -13   85.03    2.79
  -3   2  13   89.08    2.64
   3  -2 -14  119.77    2.94
  -3   2  14  111.79    2.32
   3  -2 -15  174.52    3.44
  -3   2  15  178.69    3.44
   3  -2 -16   59.39    3.10
  -3   2  16   59.92    3.09
   3  -2 -17    3.19    3.31
  -3   2  17    2.40    2.36
   3  -2 -18    2.49    2.69
   3  -2 -18   -0.29    3.84
  -3   2  18    3.73    2.68
  -3   3   0   -0.23    1.81
   3  -3   0    0.35    1.27
   3  -3  -1  276.35    3.53
  -3   3   1  271.41    3.48
   3  -3  -2    3.33    1.30
  -3   3   2    3.91    1.82
  -3   3   3    0.07    1.79
   3  -3  -3    1.13    1.75
  -3   3   4  599.08    5.04
   3  -3  -4  523.24    4.46
  -3   3   5  323.06    3.61
   3  -3  -5  278.79    3.11
  -3   3   6  173.39    2.47
   3  -3  -6  188.49    2.82
   3  -3  -7    0.03    1.17
  -3   3   7    0.32    1.68
   3  -3  -8   19.16    1.76
  -3   3   8   15.78    1.34
  -3   3   9  179.77    2.96
   3  -3  -9  160.33    2.40
   3  -3 -10  241.62    3.20
  -3   3  10  243.08    3.25
  -3   3  11  128.29    2.68
   3  -3 -11  129.17    2.67
  -3   3  12   97.60    2.08
   3  -3 -12  111.10    2.75
   3  -3 -13   23.42    1.87
  -3   3  13   26.59    2.60
   3  -3 -14    3.43    2.48
  -3   3  14    3.94    1.77
  -3   3  15   20.97    2.16
   3  -3 -15   22.15    2.98
   3  -3 -16    9.66    3.37
  -3   3  16   11.64    3.39
   3  -3 -17    5.95    3.62
  -3   3  17    7.33    3.63
   3  -3 -18    0.69    3.91
   3  -4   0  584.49    4.53
  -3   4   0  638.02    5.00
   3  -4  -1  403.92    3.71
  -3   4   1  434.43    4.11
   3  -4  -2  178.06    2.78
  -3   4   2  153.12    2.35
   3  -4  -3    0.04    1.17
  -3   4   3    0.20    1.19
   3  -4  -4   -0.48    1.66
  -3   4   4    0.64    1.69
   3  -4  -5   38.20    1.89
  -3   4   5   37.85    1.91
  -3   4   6  327.80    3.42
   3  -4  -6  313.18    3.36
  -3   4   7  117.82    2.01
   3  -4  -7  125.41    2.39
   3  -4  -8    3.80    2.01
  -3   4   8    3.07    2.04
   3  -4  -9   38.34    2.18
  -3   4   9   35.98    1.65
  -3   4  10   61.94    1.80
   3  -4 -10   66.25    2.30
   3  -4 -11   -0.48    1.68
  -3   4  11   -0.33    1.70
  -3   4  12   39.34    2.59
   3  -4 -12   36.97    2.58
   3  -4 -13    1.39    2.66
  -3   4  13    0.41    2.74
   3  -4 -14   27.94    2.17
  -3   4  14   27.15    3.07
  -3   4  15   95.94    2.81
   3  -4 -15  109.06    3.76
   3  -4 -16   47.02    3.82
  -3   4  16   51.07    3.85
  -3   4  17    8.02    3.66
   3  -5   0    2.63    1.67
  -3   5   0    1.51    1.21
   3  -5  -1  153.81    2.26
  -3   5   1  175.89    2.70
   3  -5  -2  408.57    3.81
  -3   5   2  393.42    3.73
  -3   5   3   71.08    1.74
   3  -5  -3   82.50    2.19
  -3   5   4    7.02    1.23
   3  -5  -4    6.98    1.69
  -3   5   5  118.23    2.15
   3  -5  -5  136.21    2.65
  -3   5   6   42.84    2.19
   3  -5  -6   40.86    2.17
  -3   5   7    0.84    1.98
   3  -5  -7    2.56    1.96
  -3   5   8    1.37    1.99
   3  -5  -8    2.37    1.94
   3  -5  -9    3.72    1.67
  -3   5   9    2.54    2.39
  -3   5  10   42.79    2.59
   3  -5 -10   40.38    2.54
   3  -5 -11   77.71    2.74
  -3   5  11   80.37    2.80
  -3   5  12   46.27    2.26
   3  -5 -12   51.20    3.05
   3  -5 -13   34.24    3.00
  -3   5  13   29.64    3.10
   3  -5 -14   10.40    3.37
  -3   5  14   10.01    3.44
   3  -5 -15    6.13    2.75
  -3   5  15    1.72    3.98
   3  -6   0   21.88    2.11
  -3   6   0   19.87    1.54
   3  -6  -1  231.29    3.15
  -3   6   1  200.41    2.58
  -3   6   2   80.97    2.41
   3  -6  -2   87.73    2.44
  -3   6   3   28.10    2.13
   3  -6  -3   27.50    2.15
   3  -6  -4   34.13    2.14
  -3   6   4   31.67    2.13
  -3   6   5  106.79    2.50
   3  -6  -5  104.91    2.48
   3  -6  -6  167.70    2.81
  -3   6   6  154.94    2.32
  -3   6   7  249.78    3.46
   3  -6  -7  253.14    3.48
  -3   6   8  182.58    3.16
   3  -6  -8  178.79    3.15
   3  -6  -9    1.58    1.69
  -3   6   9    1.79    2.42
   3  -6 -10    4.70    2.83
  -3   6  10    7.39    2.85
   3  -6 -11   10.93    2.93
  -3   6  11   15.63    2.11
  -3   6  12   26.27    3.44
   3  -6 -12   23.05    3.38
   3  -6 -13   20.23    2.76
  -3   6  13   18.79    2.81
   3  -6 -14    3.14    3.88
  -3   6  14    1.95    3.95
   3  -7   0    1.20    1.96
  -3   7   0    2.20    1.97
   3  -7  -1   28.74    2.29
  -3   7   1   27.37    2.30
  -3   7   2  197.72    2.73
   3  -7  -2  218.47    3.30
   3  -7  -3   95.22    2.21
  -3   7   3  107.65    2.87
  -3   7   4   23.23    2.47
   3  -7  -4   23.05    2.47
  -3   7   5    0.56    2.38
   3  -7  -5    2.30    2.36
  -3   7   6   44.00    1.93
   3  -7  -6   42.74    1.90
   3  -7  -7    1.99    2.75
  -3   7   7    0.59    1.97
   3  -7  -8   22.61    2.86
  -3   7   8   19.57    2.90
  -3   7   9    3.34    3.06
   3  -7  -9    4.98    1.98
  -3   7  10    2.41    3.31
   3  -7 -10    1.61    2.31
   3  -7 -11   40.70    3.67
  -3   7  11   39.30    2.86
  -3   7  12   40.26    4.10
   3  -7 -12   44.21    2.87
  -3   8   0    2.80    2.47
   3  -8   0    1.80    2.44
  -3   8   1   25.31    2.94
   3  -8  -1   26.55    2.12
  -3   8   2   58.29    3.04
   3  -8  -2   57.36    3.06
  -3   8   3    0.50    2.80
   3  -8  -3    0.61    1.99
   3  -8  -4    8.95    2.79
  -3   8   4    7.62    2.81
   3  -8  -5    3.41    2.79
  -3   8   5    4.17    2.83
  -3   8   6   -1.44    3.24
   3  -8  -6    1.56    3.16
  -3   8   7   60.25    3.46
   3  -8  -7   53.02    2.53
  -3   8   8   61.37    2.89
   3  -8  -8   67.85    3.71
  -3   8   9   15.99    3.88
   3  -8  -9   16.65    3.80
  -3   9   0    1.80    3.32
   3  -9   0    3.77    2.30
  -3   9   1    0.94    3.29
   3  -9  -1   -0.56    3.24
   3  -9  -2   25.28    3.44
  -3   9   2   33.72    3.45
  -3   9   3   79.59    3.84
   3  -9  -3   75.90    2.67
  -3   9   4  106.02    4.20
   3  -9  -4  105.20    3.13
  -3   9   5    3.16    3.82
   3  -9  -5    4.61    3.79
   2   8  -1    7.86    3.82
  -2  -8   1    7.33    4.72
   2   8  -2   -0.29    4.59
  -2  -8   2    0.57    4.64
   2   8  -3   62.15    4.98
  -2  -8   3   67.25    4.97
   2   8  -4   69.46    4.82
  -2  -8   4   74.88    4.85
   2   8  -5   40.56    4.86
  -2  -8   5   42.89    4.76
   2   8  -6   16.45    4.77
  -2  -8   6   17.50    4.61
   2   8  -7   66.53    5.10
  -2  -8   7   66.87    4.13
  -2  -8   8   11.26    3.79
   2   8  -8   10.70    4.85
  -2  -8   9    1.85    4.66
   2   8  -9    0.92    3.96
   2   7  -1    0.23    3.51
  -2  -7   1   -0.77    3.45
   2   7  -2   25.36    3.04
  -2  -7   2   27.11    3.58
   2   7  -3   57.00    3.24
  -2  -7   3   61.91    3.79
  -2  -7   4   31.32    3.56
   2   7  -4   29.86    3.69
   2   7  -5    0.79    3.50
  -2  -7   5    0.68    3.33
  -2  -7   6    0.16    3.31
   2   7  -6   -0.32    3.53
   2   7  -7   10.17    3.61
  -2  -7   7    9.93    3.37
  -2  -7   8  134.74    3.73
   2   7  -8  134.40    3.84
  -2  -7   9  140.53    4.67
   2   7  -9  137.83    4.20
   2   7 -10   39.42    4.26
  -2  -7  10   39.22    4.12
   2   7 -11    0.03    4.03
  -2  -7  11    0.87    3.25
   2   7 -11   -0.12    3.29
   2   7 -12    7.92    3.82
   2   7 -12    7.43    3.85
   2   7 -13    1.49    3.90
   2   7 -13   -0.16    4.63
  -2  -6   1   -0.05    2.88
   2   6  -1    1.10    2.98
   2   6  -2    5.64    2.98
  -2  -6   2    4.44    2.37
   2   6  -3   35.06    3.21
  -2  -6   3   34.64    3.07
   2   6  -4  262.86    5.00
  -2  -6   4  276.99    4.87
  -2  -6   5  247.57    4.63
   2   6  -5  241.26    4.35
  -2  -6   6   18.49    2.42
   2   6  -6   20.05    3.10
   2   6  -7   43.51    3.28
  -2  -6   7   42.39    3.07
   2   6  -8   63.10    3.40
  -2  -6   8   65.02    2.78
  -2  -6   9   13.20    2.42
   2   6  -9   14.94    2.55
  -2  -6  10   31.96    2.97
   2   6 -10   34.75    3.67
  -2  -6  11   36.70    3.60
   2   6 -11   35.72    3.02
   2   6 -11   35.77    3.02
   2   6 -12    1.69    3.43
   2   6 -12    2.38    3.52
   2   6 -13   50.94    3.42
   2   6 -13   46.50    3.55
   2   6 -14   56.29    3.52
   2   6 -14   53.07    3.61
   2   6 -15    2.21    3.91
   2   6 -15    1.56    3.78
  -2  -5   1  101.89    3.23
   2   5  -1   98.36    2.99
  -2  -5   2    1.24    2.38
   2   5  -2    0.94    2.51
   2   5  -3   43.20    2.88
  -2  -5   3   46.07    2.77
  -2  -5   4   32.79    2.64
   2   5  -4   31.19    2.34
   2   5  -5    3.68    2.48
  -2  -5   5    2.70    1.94
  -2  -5   6   63.45    2.83
   2   5  -6   60.78    2.58
  -2  -5   7    0.91    1.89
   2   5  -7    0.95    2.02
   2   5  -8   65.18    2.96
  -2  -5   8   66.29    2.45
   2   5  -9  351.65    4.72
  -2  -5   9  337.77    4.60
  -2  -5  10  325.08    4.55
   2   5 -10  328.95    4.63
   2   5 -10  314.64    4.81
   2   5 -11    4.45    2.42
   2   5 -11    5.18    2.45
   2   5 -12    5.78    2.41
   2   5 -12    5.68    2.48
   2   5 -13    0.80    2.87
   2   5 -13   -0.09    2.81
   2   5 -14   67.63    3.25
   2   5 -14   69.63    3.23
   2   5 -15   76.93    3.64
   2   5 -15   73.75    3.65
   2   5 -16   46.66    3.59
   2   5 -16   47.49    3.60
   2   5 -17   -0.06    3.92
   2   5 -17    0.86    3.95
  -2  -4   1   20.02    2.21
   2   4  -1   19.60    1.95
   2   4  -2   -0.27    2.08
  -2  -4   2   -0.17    2.00
  -2  -4   3   29.16    2.36
   2   4  -3   28.95    2.43
  -2  -4   4  343.82    4.98
   2   4  -4  352.04    5.24
   2   4  -5  821.05    8.29
  -2  -4   5  808.39    8.14
   2   4  -6  499.67    6.04
  -2  -4   6  477.04    5.59
  -2  -4   7    9.60    2.45
   2   4  -7    8.65    2.60
   2   4  -8    9.00    2.11
  -2  -4   8    9.23    2.03
   2   4  -9    0.05    2.00
  -2  -4   9    0.09    1.98
   2   4  -9    0.06    2.00
   2   4 -10   48.75    2.35
   2   4 -10   50.55    2.36
   2   4 -11  193.17    3.33
   2   4 -11  204.84    3.39
   2   4 -12   55.27    2.73
   2   4 -12   59.73    2.71
   2   4 -13   24.64    2.55
   2   4 -13   23.05    2.56
   2   4 -14   71.40    2.82
   2   4 -14   75.72    2.88
   2   4 -15   27.48    3.08
   2   4 -15   29.35    3.04
   2   4 -16    0.14    2.90
   2   4 -16    1.02    2.96
   2   4 -17    7.93    3.36
   2   4 -17    5.71    3.47
   2   4 -18    0.86    3.85
   2   4 -18   -0.98    3.98
  -2  -3   1  911.99    9.91
   2   3  -1  876.59    9.87
   2   3  -2  567.58    7.71
  -2  -3   2  586.03    7.81
  -2  -3   3    7.74    2.43
   2   3  -3    7.51    2.21
   2   3  -4   19.71    2.41
  -2  -3   4   18.18    2.24
  -2  -3   5    1.74    2.00
   2   3  -5    1.81    2.16
   2   3  -6  111.91    2.96
  -2  -3   6  104.54    3.03
   2   3  -7   34.76    2.39
  -2  -3   7   34.23    2.03
   2   3  -7   36.28    2.11
   2   3  -8   78.40    2.70
   2   3  -8   82.37    2.46
   2   3  -9  179.72    3.15
   2   3  -9  171.07    3.08
   2   3 -10  222.71    3.53
   2   3 -10  208.10    3.44
   2   3 -11  109.82    2.75
   2   3 -11  109.11    2.77
   2   3 -12    4.02    2.04
   2   3 -12    3.84    2.06
   2   3 -13    6.36    2.45
   2   3 -13    6.51    2.44
   2   3 -14    2.42    2.45
   2   3 -14    3.47    2.43
   2   3 -15  168.82    3.36
   2   3 -15  181.33    3.37
   2   3 -16  183.87    3.77
   2   3 -16  200.12    3.79
   2   3 -17   40.24    3.43
   2   3 -17   32.74    2.52
   2   3 -18    0.19    3.37
   2   3 -18    1.19    3.30
   2   3 -19    0.16    3.91
   2   3 -19    0.27    3.85
   2   2  -1   20.43    2.77
  -2  -2   1   21.21    2.88
   2   2  -2  205.64    6.27
  -2  -2   2  204.91    6.28
  -2  -2   3  174.43    4.97
   2   2  -3  177.61    5.00
   2   2  -4   26.06    2.66
   2   2  -4   22.68    2.59
   2   2  -5  253.79    4.66
   2   2  -5  224.44    4.47
   2   2  -6  827.41    7.99
   2   2  -6  717.80    7.39
   2   2  -7  198.28    3.53
   2   2  -7  213.18    3.57
   2   2  -8    7.59    1.81
   2   2  -8    8.37    1.77
   2   2  -9    0.86    1.71
   2   2  -9    1.01    1.68
   2   2 -10   51.00    2.12
   2   2 -10   53.28    2.12
   2   2 -11  364.19    4.25
   2   2 -11  340.49    4.10
   2   2 -12  190.28    3.15
   2   2 -12  170.03    3.09
   2   2 -13   73.58    2.44
   2   2 -13   62.62    1.87
   2   2 -14    1.14    2.39
   2   2 -14    1.10    2.40
   2   2 -15    6.24    2.44
   2   2 -15    7.63    2.43
   2   2 -16    0.86    2.82
   2   2 -16    2.51    2.81
   2   2 -17    2.66    2.85
   2   2 -17    2.03    2.84
   2   2 -18   -0.51    3.27
   2   2 -18   -0.67    3.23
   2   2 -19   -1.86    3.79
   2   2 -19    0.28    2.68
   2   1  -3  481.30    8.32
   2   1  -3  479.12    8.47
   2   1  -4   33.45    2.24
   2   1  -4   34.84    2.53
   2   1  -5   87.63    2.75
   2   1  -5   81.42    2.68
   2   1  -6   87.68    2.80
   2   1  -6   81.82    2.49
   2   1  -7  647.76    6.32
   2   1  -7  670.20    6.47
   2   1  -8  353.04    4.28
   2   1  -8  358.94    4.34
   2   1  -9    5.71    1.80
   2   1  -9    4.19    1.76
   2   1 -10   99.58    2.41
   2   1 -10   95.56    2.43
   2   1 -11   46.73    2.05
   2   1 -11   48.21    2.05
   2   1 -12    3.45    2.06
   2   1 -12    4.18    2.07
   2   1 -13  100.92    2.56
   2   1 -13  105.65    2.58
   2   1 -14   26.05    1.60
   2   1 -14   30.05    2.12
   2   1 -15   60.15    2.65
   2   1 -15   55.39    1.99
   2   1 -16   96.66    2.25
   2   1 -16  104.28    2.87
   2   1 -17  103.84    2.47
   2   1 -17  119.22    3.27
   2   1 -18    8.17    3.23
   2   1 -18    7.83    2.32
   2   1 -19    0.64    3.67
   2   1 -19   -2.25    3.72
  -2   0   1  382.61    7.58
   2   0  -1  393.95    7.68
   2   0  -2    0.38    2.21
  -2   0   2    0.52    1.77
   2   0  -3    3.58    1.73
  -2   0   3    3.74    1.76
   2   0  -4    7.14    1.68
  -2   0   4    6.85    2.09
  -2   0   5   43.26    2.13
   2   0  -5   45.85    2.10
  -2   0   6  583.53    5.81
   2   0  -6  642.19    6.16
   2   0  -7  123.61    2.78
  -2   0   7  105.81    2.34
  -2   0   8    8.68    1.85
   2   0  -8    8.05    1.82
  -2   0   9    1.13    1.73
   2   0  -9    0.67    1.22
  -2   0  10   42.21    2.03
   2   0 -10   35.55    1.53
   2   0 -11   65.32    1.76
   2   0 -11   66.58    2.13
  -2   0  11   65.98    2.14
   2   0 -12  701.37    5.50
   2   0 -12  673.96    5.35
  -2   0  12  627.82    4.84
   2   0 -13  161.49    2.44
   2   0 -13  145.47    2.37
  -2   0  13  169.40    2.89
   2   0 -14   39.87    2.17
   2   0 -14   39.63    2.18
   2   0 -15    1.08    2.40
   2   0 -15    0.63    2.37
   2   0 -16    3.07    1.71
   2   0 -16    4.09    2.40
   2   0 -17   31.14    2.89
   2   0 -17   33.43    2.92
   2   0 -18   42.54    3.38
   2   0 -18   42.79    2.44
   2   0 -19   29.63    3.80
   2   0 -19   28.10    3.80
   2  -1   0  958.89    9.19
  -2   1   0  858.18    8.48
   2  -1  -1   99.85    3.12
  -2   1   1   87.58    2.99
   2  -1  -2 2038.05   15.22
   2  -1  -3 1566.88   12.00
  -2   1   3 1507.96   11.68
   2  -1  -4  152.34    3.03
  -2   1   4  129.43    2.65
   2  -1  -5   60.99    2.09
  -2   1   5   51.10    1.75
   2  -1  -6   33.74    1.78
  -2   1   6   32.90    1.82
  -2   1   7  398.55    4.26
   2  -1  -7  404.14    4.27
   2  -1  -8  591.36    5.06
  -2   1   8  585.69    5.02
   2  -1  -9  291.54    3.46
  -2   1   9  291.88    3.44
  -2   1  10    0.66    1.20
   2  -1 -10    0.41    1.70
   2  -1 -11   22.11    1.37
  -2   1  11   24.84    2.02
   2  -1 -12   20.09    1.55
  -2   1  12   21.42    2.16
   2  -1 -13    0.17    1.42
  -2   1  13    1.26    2.00
   2  -1 -14   33.66    2.52
  -2   1  14   31.48    1.84
   2  -1 -15   10.79    2.44
  -2   1  15    8.82    2.45
   2  -1 -15    9.45    2.42
   2  -1 -16   26.51    2.12
  -2   1  16   29.92    2.91
   2  -1 -16   26.55    2.92
   2  -1 -17   67.92    2.31
   2  -1 -17   79.11    3.13
   2  -1 -18   20.17    3.33
   2  -1 -18   18.59    3.33
   2  -1 -19   -0.80    3.77
   2  -1 -19    0.71    3.73
   2  -2   0  863.55    7.38
  -2   2   0  852.50    7.24
   2  -2  -1  381.36    4.45
  -2   2   1  370.39    4.36
  -2   2   2  166.59    2.88
   2  -2  -2  202.34    3.33
  -2   2   3  314.21    4.01
   2  -2  -3  300.98    3.90
  -2   2   4 1188.39    8.42
   2  -2  -4 1184.03    8.43
   2  -2  -5   81.21    1.89
  -2   2   5   90.97    2.22
   2  -2  -6    9.26    1.81
  -2   2   6    8.92    1.34
   2  -2  -7    3.90    1.70
  -2   2   7    4.42    1.76
   2  -2  -8   38.72    1.92
  -2   2   8   35.06    1.95
   2  -2  -9   16.25    1.79
  -2   2   9   14.80    1.34
  -2   2  10  109.03    2.37
   2  -2 -10  107.07    2.33
   2  -2 -11   18.74    2.12
  -2   2  11   17.48    2.16
   2  -2 -12  114.58    2.57
  -2   2  12  118.10    2.65
   2  -2 -13  131.81    2.67
  -2   2  13  121.42    2.19
   2  -2 -14   64.00    2.66
  -2   2  14   60.68    2.05
   2  -2 -15    8.88    2.45
  -2   2  15    7.85    1.78
   2  -2 -16   14.03    2.86
  -2   2  16   10.27    2.09
  -2   2  17   -1.08    3.28
   2  -2 -17    0.56    3.27
   2  -2 -17    0.93    3.25
   2  -2 -18   34.17    3.86
  -2   2  18   39.36    3.90
   2  -2 -18   36.12    2.81
   2  -3   0  587.09    5.18
  -2   3   0  489.99    4.56
   2  -3  -1  198.10    3.03
  -2   3   1  174.50    2.66
   2  -3  -2  152.01    2.68
  -2   3   2  152.13    2.70
  -2   3   3  264.52    3.16
   2  -3  -3  296.17    3.51
   2  -3  -4   53.30    2.12
  -2   3   4   53.83    2.17
  -2   3   5   25.53    1.91
   2  -3  -5   21.90    1.44
   2  -3  -6   25.68    1.93
  -2   3   6   26.40    1.90
  -2   3   7  137.85    2.53
   2  -3  -7  135.62    2.50
  -2   3   8  436.71    3.70
   2  -3  -8  487.30    4.19
   2  -3  -9  455.05    3.80
  -2   3   9  484.19    4.11
   2  -3 -10  136.55    2.29
  -2   3  10  144.65    2.76
   2  -3 -11    6.51    1.48
  -2   3  11    7.25    1.51
  -2   3  12    1.99    2.04
   2  -3 -12    1.49    2.02
  -2   3  13   38.32    1.94
   2  -3 -13   43.67    2.61
  -2   3  14   94.61    2.24
   2  -3 -14   89.35    2.20
   2  -3 -15   78.75    2.37
  -2   3  15   80.39    3.21
   2  -3 -16    0.81    2.33
  -2   3  16   -2.47    3.37
   2  -3 -17    1.23    3.57
  -2   3  17    0.11    3.65
   2  -4   0  175.27    2.85
  -2   4   0  177.50    2.88
   2  -4  -1    4.34    1.75
  -2   4   1    3.92    1.77
  -2   4   2   -0.50    1.74
   2  -4  -2    0.51    1.71
  -2   4   3   90.87    1.96
   2  -4  -3  104.84    2.38
  -2   4   4  419.70    3.99
   2  -4  -4  405.58    3.93
  -2   4   5  161.10    2.63
   2  -4  -5  144.35    2.25
  -2   4   6  203.05    2.85
   2  -4  -6  203.72    2.83
  -2   4   7    2.30    1.66
   2  -4  -7    1.85    1.17
   2  -4  -8    1.14    1.38
  -2   4   8    0.24    2.01
   2  -4  -9   24.25    2.10
  -2   4   9   23.15    2.14
   2  -4 -10   41.68    2.19
  -2   4  10   42.87    2.21
   2  -4 -11   28.83    2.51
  -2   4  11   28.94    2.57
   2  -4 -12    2.19    2.44
  -2   4  12    2.54    2.50
   2  -4 -13   76.15    2.15
  -2   4  13   92.42    3.06
   2  -4 -14   23.36    2.97
  -2   4  14   21.91    2.15
  -2   4  15   13.90    3.42
   2  -4 -15   13.21    3.37
   2  -4 -16    1.61    3.62
  -2   4  16    3.68    3.65
   2  -5   0  470.82    3.98
  -2   5   0  474.69    4.17
   2  -5  -1  589.71    4.74
  -2   5   1  575.09    4.65
  -2   5   2   -0.56    1.69
   2  -5  -2   -0.29    1.69
  -2   5   3   54.25    1.61
   2  -5  -3   62.06    2.04
  -2   5   4   57.15    2.00
   2  -5  -4   59.44    2.01
   2  -5  -5   -0.16    1.96
  -2   5   5    0.72    1.97
  -2   5   6  127.52    2.66
   2  -5  -6  119.59    2.18
  -2   5   7   13.37    2.05
   2  -5  -7   13.64    2.02
  -2   5   8   28.50    2.12
   2  -5  -8   25.10    1.57
  -2   5   9  147.00    3.05
   2  -5  -9  151.41    2.99
   2  -5 -10   77.24    2.73
  -2   5  10   81.46    2.76
   2  -5 -11    1.57    2.42
  -2   5  11    1.30    2.45
   2  -5 -12    1.18    2.85
  -2   5  12    2.92    2.90
  -2   5  13    1.25    2.91
   2  -5 -13    1.77    2.85
   2  -5 -14   11.97    3.39
  -2   5  14   12.96    3.42
   2  -5 -15   81.23    4.22
  -2   5  15   79.28    3.07
   2  -6   0  106.17    2.55
  -2   6   0   99.05    2.57
  -2   6   1   13.85    2.08
   2  -6  -1   12.98    1.51
  -2   6   2   11.69    2.06
   2  -6  -2   11.36    2.07
  -2   6   3   26.21    2.14
   2  -6  -3   28.44    2.13
  -2   6   4   73.11    2.37
   2  -6  -4   77.72    2.40
  -2   6   5  244.65    3.23
   2  -6  -5  247.55    3.25
  -2   6   6  141.78    2.84
   2  -6  -6  142.01    2.68
  -2   6   7   38.56    2.52
   2  -6  -7   37.53    2.49
  -2   6   8   -1.11    2.40
   2  -6  -8   -0.61    2.35
  -2   6   9    2.75    2.44
   2  -6  -9    3.88    2.38
  -2   6  10   45.15    2.24
   2  -6 -10   43.60    2.20
  -2   6  11   87.52    3.26
   2  -6 -11   89.11    2.45
  -2   6  12   37.50    3.46
   2  -6 -12   28.73    3.42
   2  -6 -13    1.19    3.81
  -2   6  13    0.57    3.90
  -2   7   0  168.52    2.89
   2  -7   0  171.18    2.89
  -2   7   1  201.87    3.20
   2  -7  -1  211.21    3.25
  -2   7   2  109.45    2.30
   2  -7  -2  117.01    2.90
  -2   7   3   72.66    2.71
   2  -7  -3   74.42    2.68
  -2   7   4   -1.43    2.37
   2  -7  -4    1.00    2.34
  -2   7   5    5.66    1.70
   2  -7  -5    7.18    1.70
  -2   7   6    8.90    1.74
   2  -7  -6    7.71    2.38
  -2   7   7   56.48    3.02
   2  -7  -7   61.26    2.98
  -2   7   8    0.90    1.99
   2  -7  -8   -0.72    2.77
  -2   7   9   18.66    3.31
   2  -7  -9   15.88    3.24
  -2   7  10   16.39    3.44
   2  -7 -10   17.58    3.31
   2  -7 -11    8.21    3.78
  -2   7  11    7.49    2.77
  -2   8   0   62.82    2.88
   2  -8   0   59.74    2.85
  -2   8   1    9.34    2.85
   2  -8  -1    7.79    2.81
   2  -8  -2   47.41    2.96
  -2   8   2   49.51    3.01
  -2   8   3   42.17    2.98
   2  -8  -3   42.23    2.96
   2  -8  -4    0.32    2.00
  -2   8   4    2.88    2.80
  -2   8   5   49.03    3.24
   2  -8  -5   50.65    3.18
  -2   8   6   66.06    3.49
   2  -8  -6   65.10    3.40
  -2   8   7   23.50    3.38
   2  -8  -7   19.84    3.31
   2  -8  -8    6.57    3.69
  -2   8   8    5.08    2.72
  -2   8   9    0.01    2.53
  -2   9   0    4.53    3.32
   2  -9   0    2.93    2.31
  -2   9   1   42.62    3.49
   2  -9  -1   45.63    3.39
   2  -9  -2   73.06    2.66
  -2   9   2   82.75    3.63
  -2   9   3    8.12    3.81
   2  -9  -3    9.09    3.74
  -2   9   4    1.23    2.67
   2  -9  -4    0.07    3.70
  -2   9   5    2.06    3.80
   2  -9  -5   -0.84    3.74
  -1  -8   1   60.79    4.26
   1   8  -1   59.84    3.61
   1   8  -2  162.50    4.22
  -1  -8   2  168.87    4.19
   1   8  -3   99.70    3.85
  -1  -8   3   98.97    3.76
   1   8  -4    7.06    4.07
  -1  -8   4    6.73    3.96
   1   8  -5   19.34    4.14
  -1  -8   5   20.63    3.25
  -1  -8   6    8.59    3.23
   1   8  -6    8.59    3.39
   1   8  -7   19.99    4.20
  -1  -8   7   18.35    3.28
  -1  -8   8   43.45    3.41
   1   8  -8   42.54    3.60
  -1  -8   9    6.65    3.29
   1   8  -9   10.42    3.40
  -1  -8  10    7.87    3.74
   1   8 -10    5.23    3.91
  -1  -8  11   56.45    4.00
   1   8 -11   55.83    4.05
  -1  -7   1   68.72    2.79
   1   7  -1   61.91    2.82
   1   7  -2   23.84    3.11
  -1  -7   2   21.98    3.00
   1   7  -3    8.61    2.47
  -1  -7   3    8.78    2.42
   1   7  -4   44.48    2.74
  -1  -7   4   45.37    2.65
  -1  -7   5    3.79    2.38
   1   7  -5    4.29    2.48
  -1  -7   6  125.63    3.13
   1   7  -6  124.19    3.23
   1   7  -7  110.79    3.34
  -1  -7   7  113.22    3.20
   1   7  -8  145.86    3.70
  -1  -7   8  143.04    3.54
  -1  -7   9   16.31    2.78
   1   7  -9   14.06    2.94
  -1  -7  10    0.50    2.74
   1   7 -10   -0.68    2.88
   1   7 -11   24.81    3.19
  -1  -7  11   23.93    3.09
   1   7 -12   95.77    3.71
  -1  -7  12  101.68    3.70
   1   7 -13  130.60    3.95
  -1  -7  13  137.82    3.96
   1   7 -13  130.80    3.93
   1   7 -14   25.66    3.90
   1   7 -14   29.80    3.96
  -1  -7  14   29.22    3.96
  -1  -6   1    2.29    1.97
   1   6  -1    2.50    2.03
  -1  -6   2  254.69    3.77
   1   6  -2  237.13    3.78
   1   6  -3  522.75    5.71
  -1  -6   3  534.87    5.64
  -1  -6   4  137.87    2.97
   1   6  -4  133.90    3.00
  -1  -6   5   -0.62    1.96
   1   6  -5   -0.64    2.01
  -1  -6   6   45.65    2.26
   1   6  -6   46.16    2.35
   1   6  -7    8.71    2.32
  -1  -6   7    8.56    2.19
   1   6  -8  251.87    3.98
  -1  -6   8  249.66    3.84
  -1  -6   9  178.75    3.37
   1   6  -9  171.82    3.45
   1   6 -10   48.94    2.67
  -1  -6  10   51.41    2.61
   1   6 -11   48.74    2.67
  -1  -6  11   52.67    2.64
  -1  -6  12   34.18    2.93
   1   6 -12   33.11    2.95
   1   6 -13    6.20    2.87
   1   6 -13    5.80    2.92
  -1  -6  13    7.44    2.87
   1   6 -14    1.62    2.30
   1   6 -14    2.74    3.31
   1   6 -15   10.04    3.35
   1   6 -15   10.92    2.41
   1   6 -16    8.17    3.88
   1   6 -16    6.67    3.96
  -1  -5   1    2.27    2.27
   1   5  -1    2.01    2.33
  -1  -5   2   16.23    1.77
   1   5  -2   16.40    2.16
  -1  -5   3   10.98    1.76
   1   5  -3   11.19    2.27
   1   5  -4  163.09    3.59
  -1  -5   4  163.31    3.23
  -1  -5   5  122.49    3.23
   1   5  -5  115.23    2.91
  -1  -5   6   32.76    2.61
   1   5  -6   32.20    2.31
   1   5  -7   17.11    2.61
  -1  -5   7   16.97    2.06
   1   5  -8   79.15    2.95
  -1  -5   8   81.67    2.50
   1   5  -9   20.88    2.13
  -1  -5   9   21.57    2.09
   1   5 -10    1.61    1.98
  -1  -5  10    0.89    1.94
   1   5 -11    4.34    2.39
  -1  -5  11    4.13    2.37
  -1  -5  12   61.47    2.69
   1   5 -12   58.96    2.69
   1   5 -12   60.40    2.68
   1   5 -13  204.44    3.48
   1   5 -13  208.05    3.54
   1   5 -14  128.33    3.45
   1   5 -14  138.59    3.47
   1   5 -15   33.71    3.05
   1   5 -15   37.74    3.05
   1   5 -16    0.19    3.33
   1   5 -16   -0.31    3.37
   1   5 -17    0.50    3.93
   1   5 -17    2.09    3.90
   1   5 -18   21.75    2.97
   1   4  -1   17.75    1.89
  -1  -4   1   17.58    2.19
  -1  -4   2  165.65    3.42
   1   4  -2  156.56    3.43
   1   4  -3  426.34    5.25
  -1  -4   3  432.68    5.17
  -1  -4   4  458.75    5.18
   1   4  -4  458.81    5.19
   1   4  -5  208.28    3.45
  -1  -4   5  206.37    3.38
   1   4  -6   24.14    1.93
  -1  -4   6   23.26    1.88
   1   4  -7    3.73    1.73
  -1  -4   7    4.06    1.66
   1   4  -8  171.21    3.22
  -1  -4   8  174.59    2.92
  -1  -4   9  589.26    5.42
   1   4  -9  580.63    5.49
   1   4 -10  192.07    3.19
  -1  -4  10  199.04    3.19
  -1  -4  11   44.11    2.27
   1   4 -11   42.69    2.23
   1   4 -11   43.91    2.26
   1   4 -12   13.74    2.09
   1   4 -12   13.54    1.51
   1   4 -13    6.64    2.47
   1   4 -13    7.09    2.44
   1   4 -14   66.72    2.79
   1   4 -14   63.57    2.74
   1   4 -15   96.74    3.28
   1   4 -15  107.28    3.35
   1   4 -16   20.31    2.98
   1   4 -16   20.29    3.00
   1   4 -17   19.14    3.45
   1   4 -17   20.54    2.45
   1   4 -18   52.03    2.97
   1   4 -18   59.40    4.08
  -1  -3   1  100.93    2.92
   1   3  -1  102.93    3.25
  -1  -3   2   83.78    2.77
   1   3  -2   82.58    3.05
   1   3  -3    5.14    1.89
  -1  -3   3    5.51    2.23
  -1  -3   4  190.81    3.58
   1   3  -4  189.69    3.63
   1   3  -5  694.61    6.76
  -1  -3   5  666.45    6.53
  -1  -3   6  177.43    3.39
   1   3  -6  174.90    3.22
   1   3  -7   12.94    2.15
  -1  -3   7    4.05    1.66
  -1  -3   8   99.60    2.43
   1   3  -8   98.65    2.46
   1   3  -9   56.98    2.11
   1   3  -9   53.69    2.09
  -1  -3   9   56.79    2.12
   1   3 -10    3.82    1.69
   1   3 -10    3.37    1.70
   1   3 -11    3.73    2.02
   1   3 -11    3.44    2.04
   1   3 -12    3.58    2.05
   1   3 -12    3.94    2.03
   1   3 -13   25.80    2.13
   1   3 -13   26.62    2.14
   1   3 -14  153.63    3.18
   1   3 -14  160.00    3.17
   1   3 -15  108.65    2.94
   1   3 -15   98.56    2.92
   1   3 -16   17.04    2.11
   1   3 -16   15.06    2.11
   1   3 -17   -0.36    2.05
   1   3 -17    0.49    2.89
   1   3 -18   30.46    3.45
   1   3 -18   31.16    3.45
   1   3 -19   68.96    4.15
   1   3 -19   67.94    3.02
  -1  -2   1  383.65    6.09
   1   2  -1  372.07    6.18
   1   2  -2  340.91    5.76
  -1  -2   2  344.50    5.88
   1   2  -3   52.91    2.74
  -1  -2   3   51.02    2.40
  -1  -2   4 1034.96    9.46
   1   2  -4 1021.46    9.46
   1   2  -5  197.66    3.48
  -1  -2   5  198.25    3.46
  -1  -2   6   22.07    1.66
   1   2  -6   22.21    1.70
   1   2  -7  177.86    3.09
   1   2  -7  169.62    3.05
  -1  -2   7  174.04    3.05
   1   2  -8    2.42    1.72
   1   2  -8    2.25    1.72
   1   2  -9  627.24    5.42
   1   2  -9  648.17    5.47
   1   2 -10  574.08    5.02
   1   2 -10  566.67    4.77
   1   2 -11  312.31    3.56
   1   2 -11  319.99    3.62
   1   2 -12    0.23    2.02
   1   2 -12   -0.27    2.03
   1   2 -13    3.77    1.44
   1   2 -13    3.08    2.00
   1   2 -14    6.54    1.45
   1   2 -14    7.63    2.04
   1   2 -15  149.32    3.07
   1   2 -15  143.55    3.03
   1   2 -16   50.82    2.64
   1   2 -16   44.64    1.96
   1   2 -17   12.14    2.88
   1   2 -17   13.16    2.84
   1   2 -18    6.88    3.29
   1   2 -18    7.15    3.27
   1   2 -19   56.05    3.92
   1   2 -19   58.12    3.98
   1   1  -1  599.68   12.74
   1   1  -2    1.87    2.62
  -1  -1   2    1.45    2.53
   1   1  -3   19.72    2.30
   1   1  -3   20.54    2.27
  -1  -1   3   19.89    2.32
   1   1  -4   88.16    2.94
   1   1  -4   93.55    2.94
   1   1  -5 1050.58    8.93
   1   1  -5 1130.86    9.30
   1   1  -6 1652.65   11.44
   1   1  -6 1810.85   12.19
   1   1  -7  256.32    3.50
   1   1  -7  242.74    3.48
   1   1  -8  216.86    3.26
   1   1  -8  219.56    3.25
   1   1  -9   22.77    1.91
   1   1  -9   20.90    1.88
   1   1 -10    0.27    1.69
   1   1 -10   -0.20    1.23
   1   1 -11  126.39    2.49
   1   1 -11  127.65    2.50
   1   1 -12   72.80    2.43
   1   1 -12   76.03    2.45
   1   1 -13    7.01    1.48
   1   1 -13    5.86    1.46
   1   1 -14   60.29    2.30
   1   1 -14   63.80    2.29
   1   1 -15   59.34    2.60
   1   1 -15   54.99    2.61
   1   1 -16   42.78    2.56
   1   1 -16   38.08    2.58
   1   1 -17    2.02    2.80
   1   1 -17    2.16    2.79
   1   1 -18   -0.35    3.21
   1   1 -18    1.13    3.19
   1   1 -19   28.76    3.59
   1   1 -19   23.15    3.61
   1   0  -2  959.22   11.72
  -1   0   2  952.43   11.67
  -1   0   3  128.19    3.48
   1   0  -3  149.52    4.00
   1   0  -4    0.69    1.96
  -1   0   4    0.87    1.38
   1   0  -5   18.28    1.50
  -1   0   5   20.50    1.99
   1   0  -6   18.63    1.78
  -1   0   6   16.84    1.38
   1   0  -7  158.63    2.80
  -1   0   7  135.39    2.40
   1   0  -8   17.42    1.43
  -1   0   8   19.07    1.96
   1   0  -9    4.05    1.75
  -1   0   9    3.49    1.78
   1   0 -10  108.53    2.07
  -1   0  10  115.35    2.43
   1   0 -10  111.08    2.39
  -1   0  11  297.92    3.04
   1   0 -11  330.03    3.50
   1   0 -11  352.47    3.59
   1   0 -12  117.51    2.66
   1   0 -12  116.85    2.61
   1   0 -13    3.41    1.97
   1   0 -13    1.69    2.03
   1   0 -14   71.89    2.35
   1   0 -14   71.76    2.34
   1   0 -15  137.73    2.98
   1   0 -15  134.90    2.96
   1   0 -16  205.81    2.80
   1   0 -16  221.88    3.31
   1   0 -17  139.74    3.29
   1   0 -17  144.62    3.37
   1   0 -18    4.11    3.22
   1   0 -18    4.02    3.21
   1   0 -19    2.96    3.67
   1   0 -19   -1.30    3.70
   1  -1   0  375.84    6.18
  -1   1   0  305.69    5.33
   1  -1  -1  338.91    5.77
  -1   1   1  292.63    5.16
  -1   1   2   56.58    2.83
   1  -1  -2   59.12    2.88
  -1   1   3 1562.98   12.19
   1  -1  -3 1575.05   12.21
   1  -1  -4    9.51    1.84
  -1   1   4    9.27    1.86
  -1   1   5  224.50    3.44
   1  -1  -5  224.47    3.41
   1  -1  -6 1137.28    8.06
  -1   1   6 1169.67    8.19
   1  -1  -7  717.37    5.58
  -1   1   7  795.26    6.12
  -1   1   8  265.72    3.38
   1  -1  -8  264.97    3.35
   1  -1  -9   14.77    1.35
  -1   1   9   14.13    1.38
   1  -1 -10    6.91    1.27
  -1   1  10    7.70    1.76
   1  -1 -11  167.24    2.63
  -1   1  11  166.25    2.63
   1  -1 -12  201.15    3.00
  -1   1  12  176.29    2.48
  -1   1  13   51.82    2.26
   1  -1 -13   43.16    1.66
   1  -1 -13   54.82    2.27
   1  -1 -14   87.95    2.71
   1  -1 -14   80.68    2.11
  -1   1  14   90.43    2.74
  -1   1  15   39.86    1.89
   1  -1 -15   46.43    2.59
   1  -1 -15   43.65    2.54
   1  -1 -16    9.56    2.75
   1  -1 -16    6.82    2.01
   1  -1 -17    2.07    2.77
   1  -1 -17    0.91    2.80
   1  -1 -18    0.20    3.25
   1  -1 -18    1.18    3.16
   1  -1 -19    2.20    3.67
   1  -1 -19    0.62    3.75
  -1   2   0   33.96    2.33
   1  -2   0   34.87    2.36
   1  -2  -1  749.47    7.08
  -1   2   1  750.67    7.22
  -1   2   2  994.86    8.31
   1  -2  -2  985.76    8.33
   1  -2  -3  742.32    6.59
  -1   2   3  758.70    6.65
   1  -2  -4   10.37    1.61
  -1   2   4   10.98    1.64
   1  -2  -5   20.85    1.65
  -1   2   5   22.19    1.69
   1  -2  -6   -0.23    1.74
  -1   2   6   -0.28    1.79
   1  -2  -7   65.62    2.17
  -1   2   7   65.74    2.20
   1  -2  -8  332.61    3.64
  -1   2   8  335.99    3.60
  -1   2   9   65.93    2.16
   1  -2  -9   64.47    2.11
   1  -2 -10    8.48    1.75
  -1   2  10    8.06    1.77
   1  -2 -11   84.78    2.44
  -1   2  11   90.54    2.52
  -1   2  12   61.58    2.33
   1  -2 -12   61.94    2.30
   1  -2 -13    1.13    2.17
  -1   2  13   -0.30    2.00
   1  -2 -14    0.37    2.37
  -1   2  14   -1.16    2.41
   1  -2 -15    9.95    2.68
   1  -2 -15    9.72    2.64
  -1   2  15   11.36    2.69
   1  -2 -16   57.91    2.99
  -1   2  16   58.95    3.04
   1  -2 -16   51.77    2.22
   1  -2 -17  120.55    3.69
   1  -2 -17  118.36    3.62
   1  -2 -18   43.13    3.82
   1  -2 -18   45.02    3.91
   1  -3   0  153.44    2.87
  -1   3   0  149.01    2.87
   1  -3  -1  144.52    2.75
  -1   3   1  141.57    2.78
  -1   3   2    5.71    1.55
   1  -3  -2    5.41    1.10
  -1   3   3   47.30    1.89
   1  -3  -3   46.60    1.87
   1  -3  -4  239.34    3.06
  -1   3   4  261.38    3.43
   1  -3  -5   15.18    1.80
  -1   3   5   15.78    1.84
  -1   3   6   52.44    1.67
   1  -3  -6   59.24    2.09
   1  -3  -7  601.14    4.80
  -1   3   7  606.62    4.81
   1  -3  -8  181.72    2.53
  -1   3   8  192.42    2.50
   1  -3  -9    1.23    1.85
  -1   3   9    0.82    1.47
   1  -3 -10    1.29    1.42
  -1   3  10    2.13    2.04
   1  -3 -11   26.08    2.14
  -1   3  11   26.63    2.13
   1  -3 -12   81.96    2.15
  -1   3  12  101.87    2.70
   1  -3 -13  272.26    3.12
  -1   3  13  257.47    3.04
  -1   3  14   55.10    2.29
   1  -3 -14   53.72    2.27
   1  -3 -15   -1.71    2.02
  -1   3  15   -0.12    2.01
   1  -3 -16    0.33    3.23
  -1   3  16   -0.01    2.31
   1  -3 -17    0.43    3.71
   1  -3 -17    1.51    3.77
  -1   3  17    0.62    3.75
   1  -4   0  329.16    3.77
  -1   4   0  324.49    3.82
  -1   4   1  157.72    2.86
   1  -4  -1  165.42    2.88
  -1   4   2  300.65    3.62
   1  -4  -2  309.44    3.67
  -1   4   3  605.29    5.11
   1  -4  -3  576.97    4.83
  -1   4   4  370.65    3.83
   1  -4  -4  364.20    3.85
   1  -4  -5   81.02    1.86
  -1   4   5   85.73    2.21
   1  -4  -6    0.89    1.62
  -1   4   6    0.97    1.17
   1  -4  -7  154.77    2.57
  -1   4   7  158.91    2.59
   1  -4  -8  133.46    2.66
  -1   4   8  137.08    2.73
   1  -4  -9  165.72    2.45
  -1   4   9  177.74    2.91
   1  -4 -10   93.88    2.03
  -1   4  10   98.43    2.54
   1  -4 -11   18.36    2.47
  -1   4  11   19.34    2.50
   1  -4 -12   10.54    2.45
  -1   4  12    9.41    2.48
   1  -4 -13    2.79    2.86
  -1   4  13    1.44    2.87
   1  -4 -14    1.79    2.85
  -1   4  14    0.37    2.03
   1  -4 -15    2.14    2.30
  -1   4  15   -0.84    3.34
   1  -4 -16    5.30    3.87
  -1   4  16    7.88    3.88
   1  -5   0  241.02    3.21
  -1   5   0  241.72    3.23
  -1   5   1   14.53    1.79
   1  -5  -1   16.11    1.78
   1  -5  -2    8.19    1.71
  -1   5   2    8.23    1.72
  -1   5   3   52.72    2.01
   1  -5  -3   55.67    2.04
   1  -5  -4  260.31    3.23
  -1   5   4  252.74    3.20
  -1   5   5  190.21    3.01
   1  -5  -5  186.74    3.03
  -1   5   6    3.74    2.02
   1  -5  -6    3.83    1.40
  -1   5   7  112.06    2.57
   1  -5  -7  108.84    2.11
  -1   5   8   88.16    2.45
   1  -5  -8   84.88    2.40
   1  -5  -9   11.08    2.37
  -1   5   9   11.04    2.43
  -1   5  10    9.48    2.47
   1  -5 -10    8.67    2.41
   1  -5 -11    0.94    2.64
  -1   5  11    1.00    2.68
   1  -5 -12   51.47    2.29
  -1   5  12   52.45    3.09
  -1   5  13   92.65    3.70
   1  -5 -13   91.17    3.63
  -1   5  14   85.83    3.71
   1  -5 -14   80.54    3.94
   1  -5 -15   28.74    2.89
  -1   5  15   30.94    2.88
  -1   6   0   34.32    2.20
   1  -6   0   35.38    1.68
  -1   6   1   64.20    2.35
   1  -6  -1   67.58    2.37
  -1   6   2    1.73    2.01
   1  -6  -2    1.38    1.99
  -1   6   3   32.83    2.15
   1  -6  -3   35.23    2.15
   1  -6  -4  145.52    2.77
  -1   6   4  144.66    2.76
   1  -6  -5    8.18    1.98
  -1   6   5    8.76    1.99
   1  -6  -6    9.33    2.35
  -1   6   6   11.13    2.39
  -1   6   7    5.63    2.39
   1  -6  -7    5.10    2.32
  -1   6   8   32.82    2.57
   1  -6  -8   35.32    2.49
  -1   6   9  171.72    3.59
   1  -6  -9  153.58    2.81
  -1   6  10  128.49    3.42
   1  -6 -10  126.24    2.64
  -1   6  11   22.19    3.44
   1  -6 -11   21.52    2.40
  -1   6  12    1.99    3.41
   1  -6 -12    0.46    3.33
  -1   6  13    2.38    2.76
   1  -6 -13    0.96    3.85
  -1   7   0  190.27    3.35
   1  -7   0  194.67    3.35
  -1   7   1   35.34    2.53
   1  -7  -1   37.85    2.51
  -1   7   2    0.53    2.37
   1  -7  -2    1.50    2.35
   1  -7  -3    6.28    2.37
  -1   7   3    6.79    2.40
  -1   7   4   81.30    2.77
   1  -7  -4   85.18    2.75
  -1   7   5   93.16    2.25
   1  -7  -5   98.23    2.83
  -1   7   6  163.10    3.54
   1  -7  -6  164.10    3.51
  -1   7   7    7.03    2.07
   1  -7  -7    6.88    2.80
  -1   7   8    4.75    3.11
   1  -7  -8    5.74    2.96
  -1   7   9    0.31    3.37
   1  -7  -9    1.34    3.19
  -1   7  10    7.84    2.77
   1  -7 -10    7.21    2.64
  -1   7  11   24.37    4.09
   1  -7 -11   25.56    2.80
  -1   8   0   35.57    2.98
   1  -8   0   34.10    2.91
  -1   8   1  112.02    3.31
   1  -8  -1  107.28    3.28
  -1   8   2   41.20    3.01
   1  -8  -2   43.74    2.96
   1  -8  -3   11.51    2.85
  -1   8   3   11.46    2.90
  -1   8   4   48.29    3.25
   1  -8  -4   49.01    3.17
  -1   8   5    8.98    3.30
   1  -8  -5    9.24    3.20
  -1   8   6    0.72    3.30
   1  -8  -6    0.08    3.17
  -1   8   7    9.61    3.92
   1  -8  -7    8.51    2.67
  -1   8   8   -1.10    3.95
   1  -8  -8    0.53    3.72
   1  -9   0   54.57    3.52
  -1   9   0   55.46    3.57
   1  -9  -1   19.70    3.82
  -1   9   1   19.82    3.84
  -1   9   2    2.18    3.79
   1  -9  -2    0.44    3.75
  -1   9   3   -0.53    3.86
   1  -9  -3    0.21    3.76
   0   9  -1   19.69    3.91
   0  -9   1   19.64    3.91
   0   9  -2   29.80    3.99
   0  -9   2   29.88    3.95
   0   9  -3   -1.71    3.88
   0  -9   3   -0.90    3.82
   0   9  -4   66.66    4.16
   0  -9   4   65.01    4.06
   0   9  -5   95.45    4.33
   0  -9   5   94.97    4.24
   0  -9   6   18.34    3.86
   0   9  -6   19.21    3.99
   0  -9   7    2.38    3.76
   0   9  -7    0.78    3.94
   0  -9   8    1.02    3.75
   0   9  -8    1.43    4.80
   0  -8   1  138.55    3.55
   0   8  -1  126.27    3.50
   0   8  -2   68.72    3.22
   0  -8   2   72.57    3.16
   0   8  -3    1.00    2.87
   0  -8   3    0.75    2.79
   0  -8   4    1.39    2.77
   0   8  -4    0.66    2.87
   0  -8   5   16.11    3.47
   0   8  -5   14.58    2.97
   0  -8   6   68.23    3.13
   0   8  -6   70.92    3.23
   0  -8   7   82.80    3.17
   0   8  -7   83.19    3.34
   0  -8   8    0.64    3.17
   0   8  -8    0.16    3.15
   0  -8   9   19.47    3.26
   0   8  -9   18.96    3.40
   0  -8  10   39.76    3.35
   0   8 -10   36.57    3.49
   0  -8  11    0.08    3.47
   0   8 -11    1.76    3.56
   0   8 -12   15.78    3.86
   0  -8  12   15.90    4.66
   0   7  -1   13.50    3.01
   0  -7   1   13.97    2.41
   0   7  -2  145.87    3.20
   0  -7   2  152.63    3.22
   0   7  -3   60.37    2.72
   0  -7   3   62.21    2.69
   0  -7   4    2.11    2.38
   0   7  -4    3.84    2.44
   0   7  -5  186.92    3.46
   0  -7   5  190.39    3.42
   0  -7   6   74.87    2.78
   0   7  -6   75.44    2.86
   0   7  -7    7.00    2.49
   0  -7   7    7.54    2.39
   0  -7   8   13.99    2.41
   0   7  -8   14.34    2.51
   0   7  -9    4.11    2.68
   0  -7   9    3.98    2.56
   0   7 -10  112.54    3.39
   0  -7  10  109.41    3.27
   0  -7  11  158.02    3.50
   0   7 -11  156.11    3.56
   0   7 -12  109.83    3.52
   0  -7  12  111.10    3.31
   0  -7  13    8.13    3.26
   0   7 -13    6.29    3.31
   0  -7  14    4.65    3.59
   0   7 -14    7.00    3.55
   0   7 -15    0.38    3.80
   0   7 -15   -1.11    3.90
   0  -7  15   -0.84    3.91
   0  -6   1  193.78    3.20
   0   6  -1  183.94    3.16
   0  -6   2  185.07    3.13
   0   6  -2  177.45    3.14
   0   6  -3   45.36    2.30
   0  -6   3   46.19    2.27
   0   6  -4    6.18    2.05
   0  -6   4    5.74    2.00
   0  -6   5   53.39    2.31
   0   6  -5   49.23    2.33
   0   6  -6  164.88    3.00
   0  -6   6  167.93    3.00
   0  -6   7  331.99    3.96
   0   6  -7  329.98    3.99
   0   6  -8  206.40    3.26
   0  -6   8  212.62    3.20
   0   6  -9   43.68    2.62
   0  -6   9   44.64    1.91
   0   6 -10   52.72    2.63
   0  -6  10   52.00    2.58
   0   6 -11    5.84    2.42
   0  -6  11    6.32    2.39
   0   6 -12   16.43    2.70
   0  -6  12   19.16    2.46
   0   6 -13   70.47    3.07
   0  -6  13   72.29    3.09
   0   6 -14    3.15    2.86
   0   6 -14    3.01    2.91
   0  -6  14    3.84    2.87
   0   6 -15   38.29    3.42
   0   6 -15   38.52    3.45
   0   6 -16   70.92    3.90
   0   6 -16   63.60    3.00
   0   6 -17   29.27    2.90
   0  -5   1   15.41    1.76
   0   5  -1   15.73    1.79
   0  -5   2  371.08    4.08
   0   5  -2  375.11    4.25
   0   5  -3  341.44    4.03
   0  -5   3  348.03    3.98
   0   5  -4  244.33    3.40
   0  -5   4  243.27    3.34
   0   5  -5   12.86    1.81
   0  -5   5   11.11    1.75
   0  -5   6  215.12    3.12
   0   5  -6  211.97    3.16
   0   5  -7    2.35    2.06
   0  -5   7    1.04    2.01
   0   5  -8   29.32    2.17
   0  -5   8   29.23    2.13
   0   5  -9   11.45    2.07
   0  -5   9   13.46    2.03
   0   5 -10    6.58    2.00
   0  -5  10    6.23    1.98
   0  -5  11  305.01    3.30
   0   5 -11  306.80    3.70
   0  -5  12  242.67    3.53
   0   5 -12  230.15    3.48
   0   5 -13  110.45    2.37
   0  -5  13  129.03    3.01
   0   5 -13  129.09    3.03
   0  -5  14    4.07    2.02
   0   5 -14    2.99    2.88
   0   5 -14    4.57    2.62
   0   5 -15   -0.24    2.06
   0   5 -15    0.10    2.00
   0   5 -16   12.56    3.35
   0   5 -16   12.77    3.42
   0   5 -17   67.52    3.66
   0   5 -17   65.67    2.68
   0   5 -18   95.52    4.34
   0   5 -18   97.22    4.31
   0  -4   1   42.01    2.07
   0   4  -1   41.21    2.10
   0  -4   2  237.39    3.41
   0   4  -2  234.97    3.52
   0  -4   3   67.87    2.29
   0   4  -3   68.56    2.32
   0  -4   4    4.46    1.74
   0   4  -4    5.52    1.78
   0   4  -5    6.29    1.79
   0  -4   5    6.63    1.74
   0  -4   6   41.86    2.00
   0   4  -6   42.05    2.05
   0   4  -7  506.22    4.80
   0  -4   7  482.20    4.57
   0  -4   8  425.50    4.19
   0   4  -8  413.98    4.21
   0  -4   9  152.20    2.33
   0   4  -9  155.33    2.68
   0  -4  10   41.08    2.18
   0   4 -10   39.72    2.18
   0   4 -11    1.94    1.39
   0  -4  11    1.89    1.99
   0   4 -12   48.45    2.25
   0   4 -12   45.94    2.20
   0  -4  12   46.81    2.24
   0   4 -13  215.14    3.39
   0   4 -13  210.41    3.38
   0   4 -14  101.87    2.86
   0   4 -14   99.90    2.87
   0   4 -15    4.54    2.66
   0   4 -15    2.00    2.48
   0   4 -16   48.19    3.08
   0   4 -16   43.13    2.29
   0   4 -17   26.53    2.50
   0   4 -17   28.15    3.45
   0   4 -18    2.50    3.65
   0   4 -18    2.52    2.77
   0  -3   1   46.85    2.05
   0   3  -1   45.90    2.06
   0  -3   2   31.73    1.89
   0   3  -2   32.00    1.93
   0   3  -3 1728.55   12.20
   0  -3   3 1795.71   12.36
   0   3  -4 1425.50   10.23
   0  -3   4 1475.73   10.21
   0  -3   5  180.02    3.12
   0   3  -5  179.31    3.16
   0  -3   6   18.19    1.38
   0   3  -6   18.94    1.90
   0  -3   7   12.66    1.76
   0   3  -7   12.41    1.79
   0   3  -8    2.45    1.71
   0  -3   8    3.14    1.68
   0  -3   9  365.28    3.76
   0   3  -9  347.65    3.70
   0   3 -10   80.30    2.16
   0   3 -10   79.05    2.13
   0  -3  10   79.34    2.17
   0  -3  11    2.56    1.41
   0   3 -11    2.10    1.43
   0   3 -11    2.10    2.00
   0   3 -12  101.13    2.54
   0   3 -12   94.55    2.05
   0   3 -13   50.09    2.24
   0   3 -13   50.26    2.26
   0   3 -14   50.92    2.61
   0   3 -14   52.66    2.63
   0   3 -15    1.60    2.43
   0   3 -15    0.51    2.45
   0   3 -16   -0.34    2.86
   0   3 -16   -0.51    2.85
   0   3 -17   24.40    2.14
   0   3 -17   26.43    3.01
   0   3 -18   97.76    3.69
   0   3 -18   90.19    2.81
   0   3 -19   71.42    4.12
   0   3 -19   75.28    4.12
   0  -2   1  291.22    4.78
   0   2  -1  295.63    4.88
   0   2  -2  612.38    6.94
   0  -2   2  633.03    7.06
   0  -2   3  191.40    3.64
   0   2  -3  187.21    3.65
   0  -2   4   15.40    1.77
   0   2  -4   15.26    1.83
   0  -2   5   16.09    1.26
   0   2  -5   15.64    1.72
   0   2  -6    3.45    1.47
   0  -2   6    3.36    1.45
   0   2  -7   31.20    2.01
   0  -2   7   30.40    1.95
   0   2  -8  818.78    6.00
   0   2  -8  715.59    5.42
   0  -2   8  827.95    6.06
   0   2  -9  198.49    2.63
   0   2  -9  221.15    3.03
   0   2 -10   25.11    1.83
   0   2 -10   25.57    1.85
   0   2 -11   21.08    1.77
   0   2 -11   21.26    1.80
   0   2 -12   44.51    1.74
   0   2 -12   47.23    2.28
   0   2 -13  189.83    2.55
   0   2 -13  194.95    2.99
   0   2 -14  360.79    3.76
   0   2 -14  374.19    3.80
   0   2 -15  107.97    2.81
   0   2 -15   93.41    2.22
   0   2 -16    2.62    2.62
   0   2 -16    0.52    2.64
   0   2 -17    9.96    2.06
   0   2 -17    8.69    2.06
   0   2 -18    1.69    3.28
   0   2 -18    3.10    3.28
   0   2 -19    5.70    3.83
   0   2 -19    7.11    2.70
   0  -1   1    0.37    2.29
   0   1  -1    0.75    2.30
   0  -1   2    2.19    2.18
   0   1  -2    2.03    2.21
   0   1  -3  667.42    7.52
   0  -1   3  669.03    7.51
   0   1  -4  814.07    7.64
   0  -1   4  817.14    7.64
   0   1  -5  471.83    4.94
   0   1  -5  494.10    5.26
   0  -1   5  533.79    5.42
   0   1  -6  294.37    3.74
   0   1  -6  292.26    3.71
   0   1  -7    1.01    1.48
   0   1  -7    0.70    1.02
   0   1  -8   60.85    2.22
   0   1  -8   58.04    2.15
   0   1  -9  265.19    3.28
   0   1  -9  271.35    3.29
   0   1 -10  260.62    3.19
   0   1 -10  260.30    3.15
   0   1 -11   48.64    1.60
   0   1 -11   46.29    1.54
   0   1 -12   28.09    2.23
   0   1 -12   30.01    2.16
   0   1 -13   93.25    2.48
   0   1 -13   92.43    2.44
   0   1 -14   19.08    1.53
   0   1 -14   19.88    2.08
   0   1 -15    5.07    2.40
   0   1 -15    5.31    2.43
   0   1 -16    7.00    2.38
   0   1 -16    8.36    2.43
   0   1 -17    3.13    1.95
   0   1 -17    0.14    2.83
   0   1 -18   45.46    3.40
   0   1 -18   44.51    3.42
   0   1 -19   83.26    3.98
   0   1 -19   85.70    4.02
   0   0   2  124.50    4.27
   0   0  -2  124.47    3.99
   0   0  -3   12.28    1.86
   0   0   3   12.88    2.44
   0   0   4   19.93    2.29
   0   0  -4   17.14    1.71
   0   0   5  443.79    5.02
   0   0  -5  434.74    4.94
   0   0  -6  809.73    6.61
   0   0  -6  801.95    6.50
   0   0   6  813.47    6.58
   0   0  -7   36.29    1.83
   0   0   7   36.56    1.86
   0   0  -7   38.00    1.88
   0   0   8   45.04    2.13
   0   0  -8   45.03    2.11
   0   0  -8   46.96    2.16
   0   0  -9  285.19    3.40
   0   0  -9  296.54    3.45
   0   0   9  250.23    2.91
   0   0 -10   13.53    1.77
   0   0 -10   14.00    1.82
   0   0 -11   39.04    1.89
   0   0 -11   42.37    1.99
   0   0 -12   23.01    2.17
   0   0 -12   21.93    2.07
   0   0 -13   13.14    2.00
   0   0 -13   12.98    1.50
   0   0 -14  173.83    2.60
   0   0 -14  173.77    2.57
   0   0 -15  202.92    3.19
   0   0 -15  204.26    3.27
   0   0 -16   53.59    2.98
   0   0 -16   51.00    2.92
   0   0 -17    0.19    2.80
   0   0 -17    1.07    2.74
   0   0 -18   -1.43    3.24
   0   0 -18    1.55    3.14
   0   0 -19   12.55    2.65
   0   0 -19    7.44    3.71
   0   1   0    0.74    2.30
   0  -1   0    0.54    2.32
   0   1   1    8.80    1.77
   0  -1  -1    9.87    2.38
   0   1   2  375.11    5.74
   0  -1  -2  382.96    5.77
   0   1   3   10.52    2.09
   0  -1  -3    8.76    2.03
   0   1   4  216.23    3.66
   0  -1  -4  213.17    3.59
   0  -1  -5 1129.63    8.45
   0   1   5 1055.19    7.95
   0  -1  -6  355.10    4.02
   0   1   6  297.65    3.48
   0  -1  -7   66.19    2.26
   0   1   7   66.34    2.31
   0  -1  -8   58.32    2.12
   0   1   8   60.45    2.18
   0  -1  -9  178.02    2.79
   0   1   9  184.88    2.83
   0   1  10  539.59    4.39
   0  -1 -10  511.49    4.09
   0  -1 -11  454.77    4.16
   0  -1 -11  424.57    3.98
   0   1  11  437.74    4.07
   0  -1 -12   49.39    1.73
   0   1  12   57.17    2.30
   0  -1 -12   46.32    1.74
   0  -1 -13   26.58    2.12
   0  -1 -13   23.41    2.05
   0   1  13   21.00    1.54
   0  -1 -14    1.05    2.35
   0  -1 -14   -0.90    2.33
   0  -1 -15    2.79    2.37
   0  -1 -15    0.30    2.35
   0  -1 -16   26.98    2.84
   0  -1 -16   26.76    2.90
   0  -1 -17   13.78    2.28
   0  -1 -17   13.97    3.26
   0  -1 -18   -0.09    2.55
   0  -1 -18    0.46    3.44
   0  -2   0  632.70    7.02
   0   2   0  614.09    7.08
   0   2   1 1042.84    9.39
   0  -2  -1 1066.05    9.55
   0  -2  -2  550.73    6.00
   0   2   2  557.11    5.97
   0  -2  -3    2.45    1.55
   0   2   3    1.81    1.57
   0  -2  -4    6.16    1.13
   0   2   4    6.30    1.17
   0  -2  -5  166.04    2.82
   0   2   5  169.86    2.85
   0  -2  -6  870.02    6.38
   0   2   6  882.81    6.47
   0  -2  -7  318.84    3.63
   0   2   7  315.05    3.63
   0  -2  -8   38.24    1.95
   0   2   8   39.28    1.98
   0  -2  -9   29.81    1.86
   0   2   9   34.72    1.92
   0  -2 -10   31.45    2.14
   0   2  10   32.93    2.17
   0  -2 -11    0.82    1.97
   0   2  11   -0.05    2.03
   0   2  12   25.83    2.13
   0  -2 -12   24.68    2.10
   0  -2 -13    1.92    2.37
   0   2  13    4.68    2.39
   0   2  14   55.37    1.99
   0  -2 -14   53.96    1.96
   0  -2 -14   64.26    2.65
   0  -2 -15  149.30    3.36
   0  -2 -15  145.68    3.31
   0   2  15  145.31    3.35
   0  -2 -16   39.55    3.14
   0  -2 -16   46.24    3.16
   0  -2 -17   51.77    3.39
   0  -2 -17   46.89    3.34
   0  -2 -18   -0.87    3.70
   0  -2 -18   -0.01    2.65
   0   3   0    2.57    1.54
   0  -3   0    2.57    1.50
   0   3   1  243.36    3.63
   0  -3  -1  243.57    3.47
   0   3   2  377.53    4.33
   0  -3  -2  368.40    4.38
   0  -3  -3  417.89    4.60
   0   3   3  412.50    4.48
   0  -3  -4    2.36    1.71
   0   3   4    3.10    1.74
   0  -3  -5    4.23    1.69
   0   3   5    3.59    1.26
   0  -3  -6   99.26    2.35
   0   3   6   98.58    2.38
   0  -3  -7    7.24    1.22
   0   3   7    5.56    1.26
   0  -3  -8    1.38    1.62
   0   3   8    0.02    1.20
   0   3   9    0.22    2.05
   0  -3  -9    1.41    1.97
   0  -3 -10   40.25    1.72
   0   3  10   43.09    2.27
   0   3  11  162.47    2.85
   0  -3 -11  168.65    2.87
   0  -3 -12   85.57    2.76
   0   3  12   96.50    2.80
   0  -3 -13    4.39    2.41
   0   3  13    4.15    2.44
   0  -3 -14    2.04    2.80
   0   3  14    1.13    2.80
   0  -3 -15   12.06    2.30
   0  -3 -15   11.24    2.32
   0   3  15   13.11    3.07
   0  -3 -16   73.29    3.54
   0   3  16   72.25    2.62
   0  -3 -16   75.50    3.60
   0  -3 -17   56.25    3.97
   0  -3 -17   59.86    3.95
   0   4   0  204.94    3.31
   0  -4   0  203.63    3.24
   0   4   1  920.79    7.46
   0  -4  -1  925.14    7.44
   0   4   2  318.69    3.88
   0  -4  -2  323.15    3.95
   0   4   3    2.55    1.23
   0  -4  -3    2.52    1.69
   0   4   4   53.28    2.04
   0  -4  -4   49.01    1.66
   0  -4  -5   21.27    1.76
   0   4   5   21.02    1.80
   0  -4  -6  257.42    3.28
   0   4   6  259.23    3.28
   0  -4  -7  480.68    4.61
   0   4   7  487.92    4.61
   0  -4  -8  199.92    3.10
   0   4   8  197.56    3.10
   0  -4  -9   21.07    2.08
   0   4   9   20.42    2.13
   0  -4 -10    3.91    2.38
   0   4  10    2.78    1.72
   0  -4 -11    3.70    2.40
   0   4  11    2.44    2.43
   0  -4 -12   30.78    2.77
   0   4  12   30.97    2.78
   0  -4 -13   60.92    3.13
   0   4  13   64.34    3.11
   0  -4 -14    6.88    3.33
   0   4  14    7.61    3.31
   0  -4 -15    1.91    3.78
   0   4  15    0.77    3.55
   0   5   0    0.00    1.66
   0  -5   0    0.18    1.63
   0   5   1   13.44    1.78
   0  -5  -1   12.84    1.75
   0   5   2  304.29    3.72
   0  -5  -2  310.66    3.77
   0   5   3  675.92    5.82
   0  -5  -3  685.09    6.02
   0   5   4  124.38    2.76
   0  -5  -4  131.57    2.79
   0   5   5    1.79    1.40
   0  -5  -5    0.12    1.96
   0   5   6   46.63    2.26
   0  -5  -6   46.06    2.17
   0   5   7   15.30    2.07
   0  -5  -7   15.48    2.00
   0   5   8    0.25    2.41
   0  -5  -8   -0.14    2.33
   0  -5  -9   42.98    2.56
   0   5   9   41.75    2.65
   0  -5 -10    1.25    2.40
   0   5  10    1.16    2.69
   0  -5 -11   72.92    3.17
   0   5  11   67.88    3.17
   0   5  12   49.90    3.52
   0  -5 -12   46.34    3.49
   0  -5 -13   22.39    3.42
   0   5  13   21.38    3.45
   0  -5 -14    5.16    3.92
   0   5  14    6.80    3.90
   0   6   0   49.61    2.29
   0  -6   0   51.43    2.31
   0   6   1   10.42    2.04
   0  -6  -1    9.66    2.01
   0   6   2   27.11    2.13
   0  -6  -2   27.86    2.13
   0   6   3   35.61    2.17
   0  -6  -3   37.92    2.15
   0   6   4    1.00    2.17
   0  -6  -4    0.03    2.11
   0   6   5   10.36    2.45
   0  -6  -5    9.55    1.69
   0   6   6   14.28    2.50
   0  -6  -6   13.16    2.38
   0   6   7   98.86    2.95
   0  -6  -7  100.29    2.85
   0   6   8  101.60    3.36
   0  -6  -8  100.37    3.20
   0   6   9   36.04    3.13
   0  -6  -9   41.09    2.96
   0  -6 -10    2.27    3.27
   0   6  10    2.48    3.40
   0   6  11    3.95    3.44
   0  -6 -11    3.26    3.32
   0   6  12   19.66    2.92
   0  -6 -12   20.93    3.95
   0   7   0   44.99    2.61
   0  -7   0   45.75    2.58
   0  -7  -1   19.85    2.47
   0   7   1   18.99    2.49
   0   7   2   62.41    2.73
   0  -7  -2   64.55    2.70
   0   7   3  184.88    3.43
   0  -7  -3  188.38    3.46
   0   7   4  198.33    3.85
   0  -7  -4  205.22    3.82
   0   7   5   52.37    3.12
   0  -7  -5   52.51    2.98
   0   7   6   11.69    2.99
   0  -7  -6   12.22    2.81
   0   7   7    1.56    2.38
   0  -7  -7    0.05    3.16
   0   7   8   17.11    3.51
   0  -7  -8   16.48    3.26
   0   7   9   44.66    4.12
   0  -7  -9   34.01    3.96
   0  -7 -10   15.91    3.25
   0   8   0  105.20    3.38
   0  -8   0  108.71    3.37
   0   8   1   12.68    2.92
   0  -8  -1   12.03    2.88
   0   8   2    2.41    3.09
   0  -8  -2    2.35    3.02
   0   8   3    1.54    4.04
   0  -8  -3    0.55    3.20
   0   8   4    8.16    3.40
   0  -8  -4    8.80    3.25
   0   8   5   44.37    3.81
   0  -8  -5   43.10    3.66
   0  -8  -6    9.30    3.82
   0   8   6   12.22    4.03
   0  -9   0    1.65    3.83
   0   9   0    2.31    3.83
   0  -9  -1   23.35    3.93
   0   9   1   22.76    3.95
   1  -9   1    5.81    3.34
  -1   9  -1    8.85    3.37
  -1   9  -2   21.79    3.45
   1  -9   2   19.94    3.38
  -1   9  -3   44.88    3.53
   1  -9   3   39.58    3.46
   1  -9   4   31.61    3.45
  -1   9  -4   34.86    3.53
   1  -9   5    0.85    3.27
  -1   9  -5    0.92    2.41
   1  -9   6    7.24    3.30
  -1   9  -6    8.44    3.43
   1  -9   7    0.30    3.72
  -1   9  -7   -1.17    3.68
   1  -9   8   78.63    3.02
  -1   9  -8   86.35    4.20
   1  -9   9   81.79    4.05
  -1   9  -9   84.77    4.22
  -1   8  -1    1.23    2.83
   1  -8   1    0.83    2.76
  -1   8  -2    1.31    2.86
   1  -8   2    0.58    2.78
   1  -8   3   18.20    2.86
  -1   8  -3   18.91    2.95
   1  -8   4  128.68    3.32
  -1   8  -4  122.80    3.43
   1  -8   5  170.58    3.57
  -1   8  -5  178.02    3.67
   1  -8   6   45.39    2.98
  -1   8  -6   48.32    3.10
   1  -8   7    5.83    2.79
  -1   8  -7    6.56    2.91
   1  -8   8    6.82    2.80
  -1   8  -8    9.17    2.89
   1  -8   9   -1.12    2.77
  -1   8  -9    0.23    2.05
  -1   8 -10   50.69    3.48
   1  -8  10   47.56    3.35
   1  -8  11   43.99    3.36
  -1   8 -11   46.47    3.47
   1  -8  12   -0.31    3.70
  -1   8 -12    1.18    3.55
  -1   8 -13   46.90    4.00
   1  -8  13   49.25    3.91
  -1   7  -1  210.95    3.32
   1  -7   1  216.09    3.47
   1  -7   2   26.28    2.27
  -1   7  -2   25.94    2.32
  -1   7  -3   57.70    2.51
   1  -7   3   55.60    2.45
  -1   7  -4   80.33    2.79
   1  -7   4   81.21    2.73
   1  -7   5   -0.12    2.36
  -1   7  -5    0.98    2.44
  -1   7  -6  227.50    3.58
   1  -7   6  234.63    3.48
   1  -7   7  101.75    2.84
  -1   7  -7  103.73    2.92
   1  -7   8    1.01    2.35
  -1   7  -8    1.35    2.44
  -1   7  -9  129.50    3.05
   1  -7   9  127.39    2.96
  -1   7 -10  165.00    3.50
   1  -7  10  167.81    3.42
  -1   7 -11   24.59    2.92
   1  -7  11   26.62    2.85
   1  -7  12    0.48    2.79
  -1   7 -12    1.09    2.81
  -1   7 -13   -0.14    3.21
   1  -7  13    1.05    2.24
   1  -7  14   27.69    3.39
  -1   7 -14   27.60    3.39
  -1   7 -15  115.08    4.20
   1  -7  15  105.60    4.27
   1  -6   1   60.61    2.33
  -1   6  -1   57.81    1.84
   1  -6   2    9.18    2.04
  -1   6  -2   10.05    2.05
   1  -6   3    4.39    1.99
  -1   6  -3    5.91    2.04
  -1   6  -4  102.07    2.62
   1  -6   4  100.15    2.09
   1  -6   5  281.67    3.48
  -1   6  -5  286.60    3.59
  -1   6  -6  169.78    2.60
   1  -6   6  179.60    2.96
   1  -6   7  175.82    2.92
  -1   6  -7  172.08    2.94
   1  -6   8   10.64    1.45
  -1   6  -8   12.21    2.04
  -1   6  -9    3.84    1.99
   1  -6   9    3.59    1.95
  -1   6 -10   29.33    1.85
   1  -6  10   32.08    2.46
  -1   6 -11  242.27    3.05
   1  -6  11  248.85    3.05
  -1   6 -12   87.36    2.77
   1  -6  12   88.26    2.77
  -1   6 -13   -0.65    1.97
   1  -6  13   -0.72    2.80
  -1   6 -14    8.96    2.02
   1  -6  14    9.51    2.87
  -1   6 -15   10.54    2.38
   1  -6  15   11.72    2.38
  -1   6 -15   10.85    3.35
  -1   6 -16    3.47    3.59
  -1   6 -16    1.33    3.65
  -1   6 -17   21.60    3.96
   1  -5   1  382.10    3.89
  -1   5  -1  380.74    4.03
   1  -5   2  265.66    3.24
  -1   5  -2  262.99    3.36
   1  -5   3    1.66    1.66
  -1   5  -3    1.97    1.69
  -1   5  -4   84.43    2.30
   1  -5   4   82.10    2.24
   1  -5   5    3.37    1.66
  -1   5  -5    1.36    1.74
  -1   5  -6   72.71    1.83
   1  -5   6   73.21    1.78
   1  -5   7  266.30    3.31
  -1   5  -7  260.50    3.24
  -1   5  -8   20.03    2.11
   1  -5   8   22.67    2.11
  -1   5  -9   37.29    2.18
   1  -5   9   38.70    1.65
  -1   5 -10  143.18    2.71
   1  -5  10  151.30    2.72
   1  -5  11  101.85    2.50
  -1   5 -11  100.62    2.49
   1  -5  12    6.15    2.39
  -1   5 -12    7.03    1.67
   1  -5  13   28.44    2.49
  -1   5 -13   25.53    2.49
  -1   5 -14   26.07    2.92
   1  -5  14   23.00    2.11
  -1   5 -14   22.49    2.74
  -1   5 -15   88.08    3.19
  -1   5 -15   82.11    3.15
  -1   5 -16  143.57    3.84
  -1   5 -16  149.76    3.89
  -1   5 -17   83.91    3.93
  -1   5 -17   80.24    3.90
  -1   5 -18   -0.35    3.98
  -1   5 -18   -0.87    3.95
   1  -4   1    2.97    1.76
  -1   4  -1    3.34    1.79
   1  -4   2  182.56    2.94
  -1   4  -2  177.31    2.69
  -1   4  -3  139.86    2.74
   1  -4   3  130.99    2.34
  -1   4  -4   45.03    2.07
   1  -4   4   43.75    2.01
  -1   4  -5  190.30    2.96
   1  -4   5  187.33    2.90
  -1   4  -6  303.24    3.50
   1  -4   6  308.78    3.50
   1  -4   7  171.82    2.70
  -1   4  -7  173.26    2.73
   1  -4   8   64.72    1.68
  -1   4  -8   66.65    1.71
   1  -4   9   22.38    1.74
  -1   4  -9   22.44    1.77
  -1   4 -10   35.09    2.15
   1  -4  10   35.16    1.63
   1  -4  11  117.61    2.13
  -1   4 -11  120.78    2.56
   1  -4  12  128.33    2.15
  -1   4 -12  132.79    2.61
   1  -4  13  190.10    3.17
  -1   4 -13  186.22    3.15
  -1   4 -13  166.69    2.55
  -1   4 -14   -0.09    1.70
  -1   4 -14    0.07    2.43
  -1   4 -15    3.74    2.86
  -1   4 -15    0.91    2.86
  -1   4 -16   -0.26    2.88
  -1   4 -16   -0.43    2.05
  -1   4 -17   30.82    3.44
  -1   4 -17   30.16    3.49
  -1   4 -18   11.90    3.96
  -1   4 -18    7.96    3.93
   1  -3   1  595.93    5.43
  -1   3  -1  596.90    5.56
   1  -3   2 1751.90   11.24
  -1   3  -2 1797.08   11.59
  -1   3  -3  265.54    3.39
   1  -3   3  292.55    3.70
  -1   3  -4   43.13    1.57
   1  -3   4   45.69    1.90
   1  -3   5   19.11    1.91
  -1   3  -5   18.27    1.46
  -1   3  -6  330.74    3.75
   1  -3   6  325.47    3.67
   1  -3   7 1099.41    6.93
  -1   3  -7 1077.79    6.92
   1  -3   8  948.84    6.11
  -1   3  -8  960.59    6.36
  -1   3  -9   63.34    1.68
   1  -3   9   82.59    2.18
  -1   3 -10   72.40    2.08
   1  -3  10   76.77    2.08
  -1   3 -11  116.66    2.59
  -1   3 -11  100.48    2.05
   1  -3  11  121.63    2.59
  -1   3 -12    5.73    2.03
  -1   3 -12    7.67    2.02
  -1   3 -13   15.31    2.06
  -1   3 -13   15.96    2.08
  -1   3 -14   38.47    2.55
  -1   3 -14   39.37    2.57
  -1   3 -15    3.01    1.74
  -1   3 -15    4.83    2.45
  -1   3 -16   91.80    3.22
  -1   3 -16   96.18    3.22
  -1   3 -17   77.16    3.39
  -1   3 -17   74.82    3.38
  -1   3 -18   30.90    3.50
  -1   3 -18   34.21    3.46
  -1   3 -19   -0.05    3.92
  -1   3 -19    0.98    3.91
   1  -2   1    1.85    1.94
  -1   2  -1    1.35    2.00
  -1   2  -2   22.16    1.67
   1  -2   2   23.23    2.09
   1  -2   3  561.25    5.69
  -1   2  -3  522.92    5.37
   1  -2   4  318.41    3.81
  -1   2  -4  336.39    4.14
  -1   2  -5    6.73    1.55
   1  -2   5    5.82    1.11
   1  -2   6   77.85    1.80
  -1   2  -6   74.17    1.80
  -1   2  -7  386.15    3.97
   1  -2   7  395.08    3.96
  -1   2  -8   74.32    1.82
   1  -2   8   85.86    2.21
  -1   2  -9   54.78    1.65
  -1   2  -9   65.51    2.05
   1  -2   9   64.69    2.08
  -1   2 -10    3.07    1.71
  -1   2 -10    3.09    1.17
  -1   2 -11   33.23    2.04
  -1   2 -11   29.33    2.15
  -1   2 -12  298.31    3.43
  -1   2 -12  288.67    3.37
  -1   2 -13  363.86    3.68
  -1   2 -13  319.15    3.15
  -1   2 -14  146.11    3.01
  -1   2 -14  130.87    2.37
  -1   2 -15    9.36    1.78
  -1   2 -15    9.74    2.44
  -1   2 -16   20.20    2.94
  -1   2 -16   20.26    2.89
  -1   2 -17   39.77    2.23
  -1   2 -17   45.30    3.07
  -1   2 -18   69.49    3.57
  -1   2 -18   58.01    2.59
  -1   2 -19   38.28    2.86
  -1   2 -19   40.35    3.96
  -1   1  -1    3.33    2.22
   1  -1   1    3.93    2.27
   1  -1   2  148.83    3.42
  -1   1  -2  137.40    3.30
  -1   1  -3   30.30    1.83
   1  -1   3   34.83    2.34
  -1   1  -4  242.66    3.53
   1  -1   4  272.69    3.90
   1  -1   5   16.12    1.67
  -1   1  -5   13.88    1.29
   1  -1   6    2.32    1.05
  -1   1  -6    2.55    1.50
  -1   1  -6    3.04    1.44
  -1   1  -7  509.54    4.45
   1  -1   7  502.87    4.38
  -1   1  -7  565.54    4.86
  -1   1  -8  383.16    3.89
  -1   1  -8  366.23    3.79
  -1   1  -9  355.03    3.42
  -1   1  -9  361.69    3.68
  -1   1 -10  171.75    2.40
  -1   1 -10  186.94    2.73
  -1   1 -11    8.00    1.93
  -1   1 -11    8.78    1.69
  -1   1 -12    5.25    2.07
  -1   1 -12    3.17    2.01
  -1   1 -13   61.46    2.27
  -1   1 -13   57.88    1.80
  -1   1 -14  122.03    2.29
  -1   1 -14  135.71    2.93
  -1   1 -15    2.08    2.39
  -1   1 -15    1.37    2.38
  -1   1 -16    8.85    2.79
  -1   1 -16    7.67    2.04
  -1   1 -17   53.57    2.97
  -1   1 -17   52.64    3.06
  -1   1 -18   25.08    3.34
  -1   1 -18   28.52    3.42
  -1   1 -19    2.98    3.73
  -1   1 -19    1.20    3.81
  -1   0   0  167.48    6.56
   1   0   0  175.77    6.77
   1   0   1   23.14    3.05
  -1   0  -1   23.60    2.60
  -1   0  -2   22.56    2.48
  -1   0  -2   21.36    2.40
   1   0   2   21.89    2.49
  -1   0  -3 1087.52    9.65
  -1   0  -3 1085.58    9.55
  -1   0  -4 1034.42    8.38
  -1   0  -4 1080.76    8.82
  -1   0  -5  568.73    5.51
  -1   0  -5  529.98    5.24
  -1   0  -6   17.01    1.72
  -1   0  -6    4.64    1.51
  -1   0  -7  145.98    2.50
  -1   0  -7  164.54    2.87
  -1   0  -8    0.34    1.78
  -1   0  -8   -0.12    1.70
  -1   0  -9   72.64    1.85
  -1   0  -9   77.44    2.20
  -1   0 -10   86.74    2.22
  -1   0 -10   94.22    2.29
  -1   0 -11   38.27    2.18
  -1   0 -11   41.43    2.25
  -1   0 -12   13.82    1.47
  -1   0 -12   16.66    2.09
  -1   0 -13  134.17    2.66
  -1   0 -13  132.62    2.58
  -1   0 -14   85.95    2.73
  -1   0 -14   82.64    2.65
  -1   0 -15   25.33    2.50
  -1   0 -15   22.93    2.44
  -1   0 -16    3.05    1.95
  -1   0 -16    3.12    2.82
  -1   0 -17   13.16    3.20
  -1   0 -17   14.27    3.26
  -1   0 -18   78.76    3.95
  -1   0 -18   86.38    3.98
  -1  -1   0  629.15   11.11
   1   1   0  604.49   10.78
  -1  -1  -1    0.57    1.92
   1   1   1    0.58    2.56
  -1  -1  -2  226.92    4.42
   1   1   2  204.41    4.37
  -1  -1  -3 1135.61    9.85
   1   1   3 1058.13    9.40
  -1  -1  -4    4.52    1.65
   1   1   4    5.97    1.70
  -1  -1  -5   49.37    2.00
   1   1   5   51.46    2.08
  -1  -1  -6    2.01    1.80
   1   1   6    2.30    1.88
  -1  -1  -7   14.57    1.82
   1   1   7   16.49    1.92
  -1  -1  -8  176.85    2.85
   1   1   8  174.10    2.85
  -1  -1  -8  186.77    2.93
  -1  -1  -9  531.32    4.33
   1   1   9  593.26    4.80
  -1  -1  -9  576.23    4.73
  -1  -1 -10  184.20    2.93
  -1  -1 -10  172.45    2.51
   1   1  10  187.74    2.90
  -1  -1 -11    6.70    2.08
  -1  -1 -11    7.60    2.00
  -1  -1 -12    0.16    1.95
  -1  -1 -12   -0.86    1.98
  -1  -1 -13  102.72    2.74
  -1  -1 -13  101.89    2.78
  -1  -1 -14   57.94    2.58
  -1  -1 -14   68.99    2.65
  -1  -1 -15  144.65    2.66
  -1  -1 -15  190.11    3.52
  -1  -1 -16   32.98    2.12
  -1  -1 -16   31.64    2.09
  -1  -1 -17   -0.23    3.20
  -1  -1 -17   -0.68    2.22
  -1  -1 -18   -1.43    3.72
  -1  -1 -18    2.42    3.65
   1   2   0  768.99    8.77
  -1  -2   0  768.10    8.87
   1   2   1    7.36    1.66
  -1  -2  -1    7.47    1.98
  -1  -2  -2    6.32    1.57
   1   2   2    5.73    1.58
  -1  -2  -3  178.84    3.21
   1   2   3  177.37    3.26
  -1  -2  -4  556.77    5.59
   1   2   4  544.93    5.62
  -1  -2  -5  969.59    7.66
   1   2   5  918.02    7.39
  -1  -2  -6  173.92    2.95
   1   2   6  172.49    2.97
  -1  -2  -7    8.97    1.75
   1   2   7    9.62    1.80
  -1  -2  -8   12.88    1.72
   1   2   8   11.34    1.79
  -1  -2  -9   52.37    2.28
   1   2   9   55.32    2.33
  -1  -2 -10  241.00    3.30
   1   2  10  253.42    3.35
  -1  -2 -11  130.22    2.71
   1   2  11  135.26    2.66
  -1  -2 -11  142.75    2.73
  -1  -2 -12    1.25    1.67
   1   2  12    0.80    2.34
  -1  -2 -12    1.18    2.36
  -1  -2 -13   52.54    2.60
  -1  -2 -13   51.13    2.57
  -1  -2 -14   76.42    2.35
  -1  -2 -14   91.60    3.08
  -1  -2 -15    7.07    2.77
  -1  -2 -15    4.62    2.76
  -1  -2 -16    0.78    3.16
  -1  -2 -16    1.28    3.17
  -1  -2 -17   -0.45    3.69
  -1  -2 -17    0.23    3.66
   1   3   0  662.64    7.10
  -1  -3   0  659.96    6.95
   1   3   1 1194.78   10.02
  -1  -3  -1 1224.90   10.26
   1   3   2  215.55    3.56
  -1  -3  -2  224.55    3.65
  -1  -3  -3    4.13    1.69
   1   3   3    3.32    1.70
  -1  -3  -4    0.88    1.64
   1   3   4    4.95    1.73
  -1  -3  -5    1.08    1.62
   1   3   5    0.83    1.69
  -1  -3  -6   14.40    1.75
   1   3   6   14.42    1.80
  -1  -3  -7   41.16    1.94
   1   3   7   39.39    1.99
  -1  -3  -8   -0.83    1.99
   1   3   8    0.38    1.42
  -1  -3  -9   74.20    2.44
   1   3   9   69.30    2.38
  -1  -3 -10   98.48    2.13
   1   3  10  105.25    2.58
  -1  -3 -11   78.18    2.75
   1   3  11   83.70    2.77
  -1  -3 -12   16.73    2.47
   1   3  12   17.01    2.45
  -1  -3 -13    1.54    2.81
   1   3  13    0.96    2.79
  -1  -3 -13    2.14    2.75
  -1  -3 -14   33.10    2.15
  -1  -3 -14   32.71    2.17
   1   3  14   37.45    2.92
  -1  -3 -15   76.13    3.61
  -1  -3 -15   83.27    3.56
  -1  -3 -16   71.04    3.99
  -1  -3 -16   57.52    2.96
   1   4   0  314.32    4.25
  -1  -4   0  318.59    4.26
   1   4   1   38.99    2.07
  -1  -4  -1   38.77    2.04
   1   4   2   70.35    2.30
  -1  -4  -2   73.02    2.32
   1   4   3   43.39    2.06
  -1  -4  -3   43.59    2.03
   1   4   4   40.46    2.00
  -1  -4  -4   38.87    1.93
  -1  -4  -5  192.08    3.22
   1   4   5  195.26    3.61
  -1  -4  -6  270.99    3.65
   1   4   6  270.21    3.70
  -1  -4  -7    1.76    1.95
   1   4   7    1.36    2.02
  -1  -4  -8    0.21    1.94
   1   4   8   -0.06    2.00
  -1  -4  -9   22.05    2.49
   1   4   9   17.52    1.82
  -1  -4 -10  163.29    3.28
   1   4  10  147.42    3.19
  -1  -4 -11  176.27    3.66
   1   4  11  170.42    3.60
  -1  -4 -12   87.63    2.54
   1   4  12   92.62    3.25
  -1  -4 -13   10.10    3.35
   1   4  13    9.09    3.29
  -1  -4 -14    0.84    3.60
   1   4  14    0.26    2.67
  -1  -4 -14    0.48    3.53
  -1  -4 -15    2.57    2.78
   1   5   0   92.43    2.73
  -1  -5   0   92.46    2.69
   1   5   1  236.39    3.69
  -1  -5  -1  250.70    3.79
   1   5   2  277.88    3.93
  -1  -5  -2  286.56    3.96
   1   5   3   51.92    2.38
  -1  -5  -3   53.22    2.32
   1   5   4    1.65    2.01
  -1  -5  -4    0.85    1.91
   1   5   5   32.34    2.22
  -1  -5  -5   34.89    2.13
   1   5   6  118.58    3.08
  -1  -5  -6  121.38    2.99
   1   5   7  148.93    3.26
  -1  -5  -7  149.28    3.14
  -1  -5  -8   57.15    2.66
   1   5   8   55.54    2.78
  -1  -5  -9    0.31    2.77
   1   5   9    0.16    2.92
  -1  -5 -10   16.82    2.94
   1   5  10   14.95    2.15
  -1  -5 -11   10.08    3.35
   1   5  11    8.26    3.40
  -1  -5 -12    1.07    3.39
   1   5  12    2.53    3.39
  -1  -5 -13    0.25    3.94
   1   5  13    1.03    3.88
   1   6   0   20.01    2.12
  -1  -6   0   20.84    2.08
   1   6   1    9.65    2.07
  -1  -6  -1   10.04    2.02
   1   6   2   15.95    2.51
  -1  -6  -2   17.55    2.45
   1   6   3   31.09    2.61
  -1  -6  -3   31.30    2.52
  -1  -6  -4   34.14    2.51
   1   6   4   32.38    2.67
   1   6   5   23.73    2.60
  -1  -6  -5   21.29    2.45
   1   6   6   98.80    3.41
  -1  -6  -6  100.53    3.20
   1   6   7   18.52    3.03
  -1  -6  -7   17.35    2.83
   1   6   8   -0.13    3.03
  -1  -6  -8    1.43    2.78
   1   6   9    0.44    3.48
  -1  -6  -9    0.23    3.26
   1   6  10   10.21    3.79
  -1  -6 -10   11.09    3.63
   1   6  11   69.84    4.33
  -1  -6 -11   76.93    4.22
  -1  -7   0    3.76    2.40
   1   7   0    2.63    2.47
   1   7   1   75.26    3.24
  -1  -7  -1   78.78    3.23
   1   7   2  138.98    3.67
  -1  -7  -2  143.23    3.61
   1   7   3   50.51    3.17
  -1  -7  -3   53.47    3.64
   1   7   4    1.36    2.94
  -1  -7  -4    0.64    3.38
   1   7   5    1.41    3.37
  -1  -7  -5    0.15    3.14
   1   7   6    4.89    3.48
  -1  -7  -6    4.03    3.20
   1   7   7   65.00    4.04
  -1  -7  -7   59.56    3.79
   1   7   8   64.40    4.37
  -1  -7  -8   66.57    4.11
  -1  -8   0    1.46    3.24
   1   8   0    2.38    3.30
   1   8   1    0.16    3.33
  -1  -8  -1    1.65    3.25
  -1  -8  -2   15.82    4.06
   1   8   2   14.60    3.45
  -1  -8  -3   84.83    4.22
   1   8   3   91.78    4.38
  -1  -8  -4   75.99    4.16
   1   8   4   78.07    4.35
  -2   9  -1   14.72    3.37
   2  -9   1   13.81    3.28
  -2   9  -2   23.84    2.45
   2  -9   2   20.75    3.33
   2  -9   3    1.01    3.21
  -2   9  -3    0.35    3.36
   2  -9   4   23.48    3.30
  -2   9  -4   25.27    3.44
   2  -9   5    9.98    3.26
  -2   9  -5    7.69    3.39
   2  -9   6    5.23    3.23
  -2   9  -6    3.80    3.40
   2  -9   7  103.08    3.64
  -2   9  -7  107.40    3.80
   2  -9   8   42.32    3.85
  -2   9  -8   43.35    3.83
   2  -9   9   11.86    3.79
  -2   9  -9   14.81    3.90
  -2   9 -10   -0.82    3.86
   2  -9  10    0.51    3.71
  -2   8  -1    0.91    2.42
   2  -8   1    0.44    2.38
   2  -8   2   66.39    2.68
  -2   8  -2   61.28    2.07
  -2   8  -3  271.45    3.79
   2  -8   3  279.76    3.77
  -2   8  -4  163.74    3.23
   2  -8   4  161.45    3.12
   2  -8   5    0.44    2.59
  -2   8  -5    0.14    2.03
   2  -8   6    0.20    2.75
  -2   8  -6    1.24    2.84
   2  -8   7    4.31    1.96
  -2   8  -7    2.76    2.89
   2  -8   8   40.47    2.95
  -2   8  -8   41.65    3.01
   2  -8   9   53.23    2.23
  -2   8  -9   62.59    3.08
  -2   8 -10   19.10    2.39
   2  -8  10   16.98    2.30
  -2   8 -11   19.39    3.32
   2  -8  11   16.38    2.33
  -2   8 -12   26.57    3.66
   2  -8  12   29.95    3.55
   2  -8  13    2.87    3.75
  -2   8 -13    4.19    3.81
   2  -7   1   16.02    2.02
  -2   7  -1   15.60    2.06
   2  -7   2    2.11    1.95
  -2   7  -2    3.00    2.00
  -2   7  -3   10.48    2.04
   2  -7   3   10.12    1.99
  -2   7  -4   57.38    2.30
   2  -7   4   59.05    2.26
  -2   7  -5  138.24    2.44
   2  -7   5  152.53    2.98
   2  -7   6   14.34    2.41
  -2   7  -6   14.09    1.78
   2  -7   7   35.80    2.51
  -2   7  -7   38.04    2.60
   2  -7   8  143.29    2.98
  -2   7  -8  148.07    3.06
   2  -7   9   25.12    2.46
  -2   7  -9   25.97    2.51
  -2   7 -10   24.76    2.90
   2  -7  10   24.55    2.63
  -2   7 -11    0.63    2.78
   2  -7  11    0.19    2.76
  -2   7 -12   12.92    2.04
   2  -7  12   12.84    2.82
  -2   7 -13  100.56    3.56
   2  -7  13  101.58    3.56
  -2   7 -14  135.16    3.78
   2  -7  14  138.59    4.01
  -2   7 -15   40.25    3.93
   2  -7  15   36.12    3.96
   2  -6   1  222.42    3.14
  -2   6  -1  212.45    3.13
   2  -6   2   -0.61    1.99
  -2   6  -2    0.63    2.02
   2  -6   3  225.73    3.08
  -2   6  -3  223.46    3.18
  -2   6  -4  274.47    3.03
   2  -6   4  306.52    3.41
  -2   6  -5   55.90    2.31
   2  -6   5   54.21    2.24
  -2   6  -6    7.90    2.07
   2  -6   6    8.16    2.03
   2  -6   7    4.65    1.98
  -2   6  -7    5.81    2.01
   2  -6   8   44.29    1.66
  -2   6  -8   45.62    2.21
  -2   6  -9  421.03    4.16
   2  -6   9  431.98    4.17
  -2   6 -10  259.25    3.48
   2  -6  10  255.94    3.46
  -2   6 -11   28.25    2.48
   2  -6  11   30.89    2.45
   2  -6  12    2.15    2.35
  -2   6 -12    1.91    2.54
  -2   6 -13   11.52    2.79
   2  -6  13   12.14    2.80
   2  -6  14   13.09    2.05
  -2   6 -14   13.72    3.06
  -2   6 -15   50.70    3.43
   2  -6  15   50.20    3.45
  -2   6 -15   47.09    2.52
  -2   6 -16   23.44    3.88
   2  -6  16   27.37    2.80
  -2   6 -16   23.00    3.93
   2  -5   1  189.89    2.79
  -2   5  -1  191.60    2.82
   2  -5   2    2.82    1.66
  -2   5  -2    2.85    1.71
   2  -5   3   48.61    1.58
  -2   5  -3   52.00    2.00
  -2   5  -4   32.96    1.91
   2  -5   4   33.49    1.87
  -2   5  -5  282.88    3.26
   2  -5   5  281.57    3.19
  -2   5  -6  509.33    4.07
   2  -5   6  521.79    4.26
   2  -5   7   20.37    2.06
  -2   5  -7   20.17    2.07
   2  -5   8   25.59    2.06
  -2   5  -8   24.70    2.10
  -2   5  -9    0.06    1.95
   2  -5   9    1.07    1.92
  -2   5 -10   25.41    2.08
   2  -5  10   21.58    1.49
   2  -5  11   96.10    2.54
  -2   5 -11   92.08    2.55
   2  -5  12    0.37    2.34
  -2   5 -12    0.33    2.33
   2  -5  13   26.17    1.80
  -2   5 -13   25.70    2.49
   2  -5  14  198.67    3.50
  -2   5 -14  174.47    2.81
  -2   5 -14  195.89    3.54
   2  -5  15   81.72    2.37
  -2   5 -15   91.86    3.20
  -2   5 -15   81.85    2.42
  -2   5 -16    5.93    3.36
  -2   5 -16    5.92    3.33
  -2   5 -17    0.90    2.75
  -2   5 -17    2.52    3.84
   2  -4   1  692.80    5.29
  -2   4  -1  668.93    5.07
   2  -4   2  288.39    3.19
  -2   4  -2  328.46    3.65
  -2   4  -3   14.85    1.84
   2  -4   3   15.49    1.81
  -2   4  -4  302.99    3.47
   2  -4   4  279.15    3.11
  -2   4  -5  253.09    3.17
   2  -4   5  236.04    2.79
  -2   4  -6    0.24    1.69
   2  -4   6    0.76    1.66
   2  -4   7   87.11    1.82
  -2   4  -7   89.80    2.22
   2  -4   8    1.37    1.61
  -2   4  -8    0.07    1.64
   2  -4   9   90.70    2.42
  -2   4  -9   88.93    2.43
   2  -4  10  227.39    3.02
  -2   4 -10  207.75    2.61
   2  -4  11  216.70    2.99
  -2   4 -11  212.89    2.96
  -2   4 -12   70.68    2.31
   2  -4  12   76.90    2.31
  -2   4 -13    3.84    2.39
  -2   4 -13    4.01    2.37
   2  -4  13    3.10    2.39
   2  -4  14   11.36    2.44
  -2   4 -14   11.37    2.48
  -2   4 -14   11.04    2.45
  -2   4 -15   23.01    2.13
  -2   4 -15   27.33    2.95
  -2   4 -16  118.31    3.57
  -2   4 -16  111.34    2.57
  -2   4 -17   22.97    2.47
  -2   4 -17   22.39    3.50
  -2   4 -18   -1.88    2.77
  -2   4 -18    0.72    3.91
   2  -3   1   45.76    1.91
  -2   3  -1   37.96    1.56
   2  -3   2  216.17    3.11
  -2   3  -2  212.16    3.11
  -2   3  -3   70.81    2.09
   2  -3   3   74.29    2.08
  -2   3  -4    9.31    1.84
   2  -3   4    7.80    1.82
  -2   3  -5  561.59    4.63
   2  -3   5  601.26    4.98
   2  -3   6  715.31    5.36
  -2   3  -6  711.27    5.36
   2  -3   7  377.19    3.49
  -2   3  -7  394.34    3.80
   2  -3   8   27.53    1.82
  -2   3  -8   25.88    1.81
  -2   3  -9   24.74    1.38
   2  -3   9   30.63    1.81
   2  -3  10   31.08    2.13
  -2   3 -10   28.70    2.15
   2  -3  11   91.79    2.42
  -2   3 -11   90.96    2.45
   2  -3  12  127.67    2.14
  -2   3 -12  112.47    2.10
  -2   3 -12  138.59    2.61
  -2   3 -13    1.37    2.40
  -2   3 -13    0.36    1.68
  -2   3 -14   64.39    2.71
  -2   3 -14   68.20    2.68
  -2   3 -15   43.86    3.05
  -2   3 -15   44.80    2.99
  -2   3 -16    9.76    2.96
  -2   3 -16    7.53    2.91
  -2   3 -17    0.73    3.38
  -2   3 -17    1.24    3.31
  -2   3 -18   -1.62    3.92
  -2   3 -18    1.30    3.83
  -2   2  -1  482.61    5.23
   2  -2   1  479.94    5.16
  -2   2  -2 2229.14   14.17
   2  -2   2 2298.14   14.55
  -2   2  -3  382.86    4.37
   2  -2   3  343.37    3.93
   2  -2   4    7.98    1.56
  -2   2  -4    8.21    1.58
  -2   2  -5  102.48    2.29
   2  -2   5  103.68    2.25
   2  -2   6    8.82    1.76
  -2   2  -6    7.43    1.80
  -2   2  -7    0.96    1.20
   2  -2   7    0.62    1.66
   2  -2   8  119.63    2.40
  -2   2  -8  115.13    2.38
  -2   2  -9    3.89    1.23
   2  -2   9    3.32    1.67
  -2   2  -9    3.31    1.18
  -2   2 -10  147.48    2.55
   2  -2  10  155.40    2.54
  -2   2 -10  144.52    2.48
  -2   2 -11  255.28    3.23
  -2   2 -11  265.84    3.31
  -2   2 -12   28.73    2.17
  -2   2 -12   27.77    2.12
  -2   2 -13    9.14    2.26
  -2   2 -13    8.16    2.22
  -2   2 -14    2.89    2.42
  -2   2 -14    1.66    2.37
  -2   2 -15   41.24    2.86
  -2   2 -15   40.53    2.77
  -2   2 -16   80.05    2.42
  -2   2 -16   96.77    3.20
  -2   2 -17  144.00    3.88
  -2   2 -17  149.67    3.80
  -2   2 -18   31.67    4.01
  -2   2 -18   32.16    3.92
  -2   1  -1  819.98    8.12
   2  -1   1  880.36    8.53
   2  -1   2   63.67    2.48
  -2   1  -2   68.72    2.57
  -2   1  -3  298.64    4.12
   2  -1   3  289.49    4.01
   2  -1   4   88.21    2.33
  -2   1  -4   87.67    2.35
  -2   1  -5  105.78    2.38
   2  -1   5  103.62    2.32
  -2   1  -6  674.40    5.51
   2  -1   6  662.20    5.44
   2  -1   7 1033.48    6.95
  -2   1  -7  883.73    6.16
  -2   1  -7 1054.17    7.07
  -2   1  -8  276.60    3.29
  -2   1  -8  299.67    3.43
  -2   1  -9  110.93    2.33
  -2   1  -9  111.47    2.38
  -2   1 -10   16.42    1.69
  -2   1 -10   15.20    1.31
  -2   1 -11   47.60    2.22
  -2   1 -11   40.00    1.71
  -2   1 -12  270.48    3.31
  -2   1 -12  260.06    3.30
  -2   1 -13  135.13    2.95
  -2   1 -13  140.23    3.04
  -2   1 -14    2.08    2.39
  -2   1 -14    4.13    2.41
  -2   1 -15   12.95    2.81
  -2   1 -15   10.30    2.87
  -2   1 -16    7.36    2.81
  -2   1 -16    6.67    2.05
  -2   1 -17    1.34    2.28
  -2   1 -17    0.42    3.30
  -2   1 -18   13.38    3.86
  -2   1 -18   13.16    3.78
  -2   0   0  592.76    8.98
   2   0   0  631.65    9.23
   2   0   1  634.52    8.06
  -2   0  -1  629.20    8.16
  -2   0  -2  952.22    9.12
   2   0   2 1080.05    9.84
   2   0   3  980.52    8.52
  -2   0  -3  936.61    8.31
  -2   0  -3  996.14    8.81
  -2   0  -4  476.73    5.13
  -2   0  -4  524.53    5.38
  -2   0  -5    0.51    1.81
  -2   0  -5    1.60    1.75
  -2   0  -6    1.22    1.78
  -2   0  -6    0.86    1.75
  -2   0  -7   70.84    1.88
  -2   0  -7   65.99    1.84
  -2   0  -8  202.81    2.73
  -2   0  -8  225.59    3.08
  -2   0  -9  210.85    3.00
  -2   0  -9  216.52    2.99
  -2   0 -10   20.58    2.15
  -2   0 -10   17.32    1.53
  -2   0 -11   30.90    2.19
  -2   0 -11   31.93    2.14
  -2   0 -12   64.12    2.31
  -2   0 -12   60.06    1.79
  -2   0 -13   54.65    2.58
  -2   0 -13   56.95    2.62
  -2   0 -14    1.56    2.35
  -2   0 -14   -0.35    2.41
  -2   0 -15    1.79    2.76
  -2   0 -15    2.31    2.79
  -2   0 -16   22.62    3.26
  -2   0 -16   24.91    3.32
  -2   0 -17   99.33    3.60
  -2   0 -17  104.13    3.86
  -2  -1   0  102.05    4.93
  -2  -1   0   96.60    4.81
  -2  -1  -1    2.97    1.95
  -2  -1  -1    3.17    1.95
  -2  -1  -2   17.60    2.15
  -2  -1  -2   16.95    1.84
  -2  -1  -3  368.32    5.09
  -2  -1  -3  356.39    4.84
  -2  -1  -4  327.59    4.52
  -2  -1  -4  341.91    4.56
  -2  -1  -5  197.13    3.38
  -2  -1  -5  187.20    3.26
  -2  -1  -6   61.47    2.27
  -2  -1  -6   64.96    2.27
  -2  -1  -7  241.36    3.37
  -2  -1  -7  233.42    3.38
  -2  -1  -8  174.66    2.88
  -2  -1  -8  164.13    2.80
  -2  -1  -9   12.96    2.11
  -2  -1  -9   13.18    2.06
  -2  -1 -10    0.84    2.02
  -2  -1 -10    0.27    1.42
  -2  -1 -11    6.89    1.98
  -2  -1 -11    7.40    2.01
  -2  -1 -12  187.18    3.25
  -2  -1 -12  201.09    3.32
  -2  -1 -13  153.49    3.08
  -2  -1 -13  147.98    3.05
  -2  -1 -14  101.99    3.17
  -2  -1 -14   95.69    3.15
  -2  -1 -15   16.71    2.85
  -2  -1 -15   16.40    2.81
  -2  -1 -16    1.58    3.15
  -2  -1 -16   -1.21    3.20
  -2  -1 -17    6.92    3.71
  -2  -1 -17    7.32    3.71
   2   2   0    1.23    2.11
  -2  -2   0    0.89    2.00
  -2  -2  -1    7.84    2.22
   2   2   1    7.14    2.39
  -2  -2  -2  137.25    3.50
   2   2   2  125.61    3.35
  -2  -2  -3  555.09    6.27
   2   2   3  484.00    5.76
   2   2   4  230.16    3.73
  -2  -2  -4  249.33    3.81
  -2  -2  -5  237.79    3.57
   2   2   5  222.29    3.48
  -2  -2  -6    5.52    1.71
   2   2   6    5.23    1.79
  -2  -2  -7   35.85    1.96
  -2  -2  -7   44.47    2.02
   2   2   7   37.08    1.99
  -2  -2  -8  208.00    3.30
  -2  -2  -8  210.84    3.32
   2   2   8  226.65    3.40
  -2  -2  -9  288.10    3.68
  -2  -2  -9  258.04    3.57
   2   2   9  278.05    3.61
  -2  -2 -10  109.85    2.69
  -2  -2 -10  123.38    2.69
  -2  -2 -11   10.22    1.73
  -2  -2 -11   11.60    2.40
  -2  -2 -12   -0.25    2.38
  -2  -2 -12    0.17    2.36
  -2  -2 -13    0.78    2.79
  -2  -2 -13    3.15    2.74
  -2  -2 -14   27.02    2.91
  -2  -2 -14   29.87    2.89
  -2  -2 -15   13.68    2.30
  -2  -2 -15   11.12    3.30
  -2  -2 -16   10.52    3.72
  -2  -2 -16    5.18    3.81
   2   3   0  290.89    5.12
  -2  -3   0  310.73    5.15
   2   3   1   21.75    2.01
  -2  -3  -1   22.94    2.28
   2   3   2    2.28    2.10
  -2  -3  -2    2.10    1.99
  -2  -3  -3   33.29    1.96
   2   3   3   33.28    2.08
  -2  -3  -4  416.87    4.85
   2   3   4  382.34    4.67
  -2  -3  -5  367.10    4.38
   2   3   5  332.83    4.43
  -2  -3  -6   13.18    2.07
   2   3   6   13.50    2.14
  -2  -3  -7   49.88    2.32
   2   3   7   45.07    2.34
  -2  -3  -8  103.41    2.67
   2   3   8  103.35    2.65
  -2  -3  -9   25.32    2.51
  -2  -3  -9   26.51    2.53
   2   3   9   28.46    2.52
  -2  -3 -10    4.66    2.44
   2   3  10    4.08    2.40
  -2  -3 -10    5.37    2.41
  -2  -3 -11    3.00    2.38
  -2  -3 -11    2.04    2.45
   2   3  11    1.91    2.41
  -2  -3 -12    1.73    2.87
  -2  -3 -12    1.48    2.81
  -2  -3 -13   81.86    3.51
  -2  -3 -13   72.53    3.42
  -2  -3 -14   77.72    2.78
  -2  -3 -14   89.12    3.61
  -2  -3 -15   29.97    4.09
  -2  -3 -15   38.70    3.87
   2   4   0  182.02    3.81
  -2  -4   0  187.25    3.77
  -2  -4  -1  230.65    4.04
   2   4   1  218.15    3.83
   2   4   2   -0.19    2.52
  -2  -4  -2   -0.01    1.94
   2   4   3  147.72    3.60
  -2  -4  -3  153.33    3.48
   2   4   4  199.30    3.88
  -2  -4  -4  206.87    3.79
  -2  -4  -5   70.25    2.46
   2   4   5   63.74    2.53
  -2  -4  -6    2.29    1.91
   2   4   6    2.43    2.05
  -2  -4  -7    5.06    2.35
   2   4   7    4.95    2.46
  -2  -4  -8   26.83    2.53
   2   4   8   26.40    2.59
  -2  -4  -9  162.34    3.43
   2   4   9  161.63    3.36
  -2  -4 -10  134.84    3.57
   2   4  10  132.47    3.50
  -2  -4 -11   40.40    3.16
  -2  -4 -11   45.29    3.07
   2   4  11   43.17    3.08
  -2  -4 -12    1.87    3.41
  -2  -4 -12    2.41    3.30
   2   4  12    3.11    3.30
  -2  -4 -13    0.59    3.94
  -2  -4 -13    1.05    3.76
   2   5   0  132.36    3.56
  -2  -5   0  134.64    3.14
   2   5   1  111.88    3.39
  -2  -5  -1  120.64    3.33
  -2  -5  -2   33.41    2.20
   2   5   2   32.42    2.31
   2   5   3    0.40    2.05
  -2  -5  -3    0.30    2.32
   2   5   4  152.05    3.51
  -2  -5  -4  156.28    3.40
  -2  -5  -5  270.74    4.55
   2   5   5  247.51    4.12
   2   5   6  159.65    3.54
  -2  -5  -6  172.79    3.50
   2   5   7   31.25    3.58
  -2  -5  -7   31.88    2.74
   2   5   8    2.71    2.94
  -2  -5  -8    2.06    2.80
   2   5   9    3.52    2.97
  -2  -5  -9    2.14    2.88
  -2  -5 -10    6.01    3.38
   2   5  10    7.28    3.42
  -2  -5 -11   22.54    4.05
   2   5  11   26.14    4.01
  -2  -5 -11   28.14    4.00
  -2  -5 -12   -0.94    4.03
  -2  -6   0  104.82    3.14
   2   6   0  104.43    3.26
  -2  -6  -1  276.55    4.51
   2   6   1  269.73    4.62
   2   6   2  100.62    3.72
  -2  -6  -2  103.02    3.57
   2   6   3    3.16    2.54
  -2  -6  -3    3.73    2.36
   2   6   4   11.73    3.01
  -2  -6  -4   10.96    2.78
   2   6   5   22.67    3.11
  -2  -6  -5   23.60    3.45
   2   6   6   -0.23    3.02
  -2  -6  -6   -1.07    2.77
   2   6   7    7.68    3.48
  -2  -6  -7    9.06    3.23
   2   6   8   -1.20    3.50
  -2  -6  -8    0.19    3.24
   2   6   9   16.08    4.10
  -2  -6  -9   16.90    3.92
  -2  -7   0   46.96    3.14
   2   7   0   46.01    3.20
  -2  -7  -1   27.31    3.00
   2   7   1   25.78    3.73
  -2  -7  -2    0.11    3.21
   2   7   2    1.10    3.35
  -2  -7  -3    1.46    3.22
   2   7   3    2.74    3.41
  -2  -7  -4    3.04    3.25
   2   7   4    2.18    4.27
   2   7   5   60.77    4.31
  -2  -7  -5   63.67    4.07
   2   7   6   65.99    5.22
  -2  -7  -6   67.90    4.10
   2   8   0    2.31    3.85
  -2  -8   0    1.36    4.76
  -2  -8  -1   91.36    5.30
   2   8   1   86.55    4.48
  -3   9  -1    4.00    2.37
   3  -9   1    4.08    3.24
  -3   9  -2   58.68    3.52
   3  -9   2   54.68    3.46
   3  -9   3   26.26    3.32
  -3   9  -3   23.01    3.43
   3  -9   4    2.62    3.19
  -3   9  -4   -1.45    3.36
   3  -9   5   18.91    3.33
  -3   9  -5   23.19    3.41
   3  -9   6   20.10    3.32
  -3   9  -6   23.14    3.42
   3  -9   7    0.80    3.23
  -3   9  -7    2.50    3.34
   3  -9   8   24.09    3.80
  -3   9  -8   25.11    2.81
   3  -9   9    0.88    3.71
  -3   9  -9    1.77    3.83
   3  -9  10    9.45    2.67
   3  -8   1  142.00    3.06
  -3   8  -1  147.66    3.09
   3  -8   2   78.69    2.74
  -3   8  -2   82.34    2.81
  -3   8  -3    2.51    2.46
   3  -8   3    3.75    2.42
  -3   8  -4   25.09    2.56
   3  -8   4   24.56    2.71
   3  -8   5    4.48    2.81
  -3   8  -5    3.81    2.86
  -3   8  -6   74.37    3.12
   3  -8   6   75.63    3.05
   3  -8   7  268.94    3.74
  -3   8  -7  275.38    3.96
   3  -8   8   73.04    3.05
  -3   8  -8   75.32    3.11
   3  -8   9   18.72    3.03
  -3   8  -9   19.99    2.08
  -3   8 -10   14.08    3.28
   3  -8  10   12.68    3.21
  -3   8 -11    0.95    3.23
   3  -8  11    0.34    3.19
  -3   8 -12    4.74    3.74
   3  -8  12    2.68    3.68
  -3   8 -13   46.22    3.94
   3  -7   1    0.58    1.40
  -3   7  -1    0.10    1.39
   3  -7   2   29.98    2.11
  -3   7  -2   26.36    2.10
  -3   7  -3  144.93    2.70
   3  -7   3  139.71    2.65
   3  -7   4   32.69    1.84
  -3   7  -4   41.43    2.53
  -3   7  -5    5.93    2.40
   3  -7   5    4.01    2.34
  -3   7  -6   29.70    2.49
   3  -7   6   32.14    2.45
   3  -7   7   33.65    1.83
  -3   7  -7   41.29    2.54
   3  -7   8   23.74    2.44
  -3   7  -8   22.32    1.81
   3  -7   9   72.14    2.63
  -3   7  -9   66.33    2.04
  -3   7 -10    4.20    1.97
   3  -7  10    4.69    2.74
  -3   7 -11   26.04    2.86
   3  -7  11   27.84    2.86
  -3   7 -12   72.68    2.50
   3  -7  12   71.71    2.50
   3  -7  13   55.29    3.36
  -3   7 -13   52.32    3.35
  -3   7 -14    1.45    3.70
   3  -7  14   -1.67    3.72
  -3   7 -15    4.09    2.69
   3  -6   1    2.80    1.42
  -3   6  -1    2.15    2.01
   3  -6   2   78.30    2.38
  -3   6  -2   77.44    2.38
  -3   6  -3   32.08    1.63
   3  -6   3   34.32    2.15
  -3   6  -4   17.38    2.08
   3  -6   4   18.06    2.07
  -3   6  -5   58.78    2.30
   3  -6   5   48.45    1.70
  -3   6  -6   42.31    2.18
   3  -6   6   41.19    2.15
   3  -6   7   88.95    2.35
  -3   6  -7   84.68    1.89
   3  -6   8  248.42    3.13
  -3   6  -8  248.90    3.13
  -3   6  -9   34.54    2.46
   3  -6   9   31.53    1.78
  -3   6 -10   -1.10    2.31
   3  -6  10   -0.59    2.31
  -3   6 -11    4.67    2.36
   3  -6  11    4.94    1.66
   3  -6  12   13.33    2.01
  -3   6 -12   13.02    2.01
  -3   6 -13  134.67    3.31
   3  -6  13  140.41    3.27
  -3   6 -14   67.86    2.55
   3  -6  14   80.33    3.48
  -3   6 -15   11.55    3.54
   3  -6  15   11.12    3.28
  -3   6 -16    4.63    3.82
   3  -6  16    1.26    3.83
  -3   6 -16    2.33    3.82
   3  -5   1    5.51    1.67
  -3   5  -1    5.23    1.70
   3  -5   2   89.43    1.85
  -3   5  -2   92.19    2.25
  -3   5  -3  280.24    3.19
   3  -5   3  278.00    3.19
  -3   5  -4  572.46    4.48
   3  -5   4  557.16    4.39
  -3   5  -5  211.75    2.85
   3  -5   5  208.35    2.81
  -3   5  -6   42.79    2.21
   3  -5   6   43.15    2.19
   3  -5   7    3.95    2.00
  -3   5  -7    2.96    2.00
   3  -5   8   44.03    2.17
  -3   5  -8   42.83    2.16
  -3   5  -9   43.27    2.13
   3  -5   9   45.39    2.15
  -3   5 -10   83.91    2.33
   3  -5  10   79.48    2.30
  -3   5 -11   30.43    1.79
   3  -5  11   32.07    2.44
   3  -5  12   33.35    2.47
  -3   5 -12   34.09    2.49
   3  -5  13   82.31    3.06
  -3   5 -13   81.11    3.07
   3  -5  14    1.92    1.98
  -3   5 -14    1.46    2.00
   3  -5  15   -1.03    3.24
  -3   5 -15    1.02    2.29
  -3   5 -15    1.10    3.29
  -3   5 -16    1.52    3.57
  -3   5 -16    2.67    2.70
  -3   5 -17   11.57    3.96
   3  -4   1  104.96    2.37
  -3   4  -1  101.07    2.37
   3  -4   2   57.46    2.09
  -3   4  -2   56.19    2.09
  -3   4  -3   25.34    1.90
   3  -4   3   24.94    1.88
  -3   4  -4    0.80    1.21
   3  -4   4    1.05    1.67
  -3   4  -5  403.99    3.82
   3  -4   5  397.39    3.77
  -3   4  -6   38.02    1.90
   3  -4   6   31.86    1.43
   3  -4   7  108.76    1.94
  -3   4  -7  127.93    2.40
  -3   4  -8  216.52    3.02
   3  -4   8  209.93    2.97
   3  -4   9  334.69    3.50
  -3   4  -9  331.81    3.51
   3  -4  10    3.27    1.94
  -3   4 -10    2.09    1.98
   3  -4  11   21.94    2.00
  -3   4 -11   20.86    2.05
  -3   4 -12   32.70    2.50
   3  -4  12   33.85    2.46
   3  -4  13   44.06    1.89
  -3   4 -13   50.45    2.58
  -3   4 -13   51.18    2.59
   3  -4  14  251.40    3.76
  -3   4 -14  234.89    3.05
  -3   4 -14  251.92    3.79
  -3   4 -15  128.96    3.33
  -3   4 -15  105.09    2.55
  -3   4 -16   42.76    3.45
  -3   4 -16   40.71    3.55
  -3   4 -17    0.87    3.91
  -3   4 -17   -1.66    3.85
   3  -3   1   80.51    2.35
  -3   3  -1   77.57    2.37
  -3   3  -2  216.01    3.18
   3  -3   2  216.85    3.13
  -3   3  -3   60.25    2.20
   3  -3   3   61.64    2.15
  -3   3  -4  166.64    2.50
   3  -3   4  201.44    2.95
  -3   3  -5  295.41    3.17
   3  -3   5  321.68    3.53
  -3   3  -6   96.88    1.95
   3  -3   6   94.91    1.92
   3  -3   7    2.25    1.63
  -3   3  -7    3.28    1.66
   3  -3   8    2.28    1.63
  -3   3  -8    2.45    1.65
  -3   3  -9  158.63    2.80
   3  -3   9  162.13    2.78
   3  -3  10  344.77    3.60
  -3   3 -10  330.59    3.55
   3  -3  11  200.32    2.54
  -3   3 -11  221.66    3.07
   3  -3  12    4.29    2.40
  -3   3 -12    7.23    2.41
  -3   3 -12    5.78    2.39
  -3   3 -13    4.70    1.75
  -3   3 -13    6.00    2.39
  -3   3 -14   17.27    2.76
  -3   3 -14   14.73    2.07
  -3   3 -15    0.32    2.91
  -3   3 -15   -1.13    2.02
  -3   3 -16   23.99    3.46
  -3   3 -16   25.16    3.38
  -3   3 -17    0.68    3.83
  -3   3 -17    0.00    3.93
  -3   2  -1 1002.73    7.78
   3  -2   1 1085.90    8.24
  -3   2  -2  313.32    3.86
   3  -2   2  318.99    3.87
  -3   2  -3    0.16    1.83
   3  -2   3    0.32    1.25
   3  -2   4   91.27    2.41
  -3   2  -4   96.52    2.48
   3  -2   5  158.12    2.74
  -3   2  -5  147.49    2.42
   3  -2   6  129.96    2.22
  -3   2  -6  130.20    2.25
  -3   2  -7  201.23    2.91
   3  -2   7  201.70    2.85
   3  -2   8    2.92    1.65
  -3   2  -8    0.16    1.19
   3  -2   9   64.64    2.34
  -3   2  -9   67.01    2.35
  -3   2 -10    2.56    2.02
   3  -2  10    0.92    1.44
  -3   2 -10    0.87    1.98
  -3   2 -11   14.55    2.05
  -3   2 -11   11.71    1.50
  -3   2 -12   25.17    2.51
  -3   2 -12   22.37    2.47
  -3   2 -13    6.55    2.48
  -3   2 -13    6.25    2.41
  -3   2 -14   88.25    3.03
  -3   2 -14   82.19    2.95
  -3   2 -15  110.50    3.36
  -3   2 -15  106.93    3.29
  -3   2 -16   59.01    3.57
  -3   2 -16   57.85    3.49
  -3   2 -17    3.13    3.93
  -3   2 -17    4.86    3.85
  -3   1  -1  250.62    3.96
   3  -1   1  254.15    3.98
  -3   1  -2  289.15    4.07
   3  -1   2  276.63    3.94
   3  -1   3   12.38    1.88
  -3   1  -3   12.20    1.94
   3  -1   4   69.49    2.32
  -3   1  -4   67.37    2.32
  -3   1  -5  583.51    5.31
   3  -1   5  600.12    5.43
  -3   1  -6  116.18    2.53
   3  -1   6  115.82    2.50
   3  -1   7    6.72    1.68
  -3   1  -7    5.93    1.24
  -3   1  -7    6.74    1.67
  -3   1  -8   -0.47    1.68
  -3   1  -8   -0.07    1.64
  -3   1  -9   67.12    1.91
  -3   1  -9   64.74    1.86
  -3   1 -10  113.70    2.58
  -3   1 -10  123.17    2.67
  -3   1 -11  267.56    3.43
  -3   1 -11  276.67    3.43
  -3   1 -12  149.82    3.08
  -3   1 -12  163.92    3.12
  -3   1 -13   28.59    2.57
  -3   1 -13   28.36    2.53
  -3   1 -14    1.49    2.85
  -3   1 -14   -0.35    2.00
  -3   1 -15   23.84    2.16
  -3   1 -15   27.77    2.94
  -3   1 -16   35.75    3.49
  -3   1 -16   37.32    3.40
  -3   1 -17   39.99    2.91
  -3   1 -17   44.67    2.88
   3   0   0  478.61    6.98
  -3   0   0  464.13    6.88
  -3   0  -1  697.19    7.92
   3   0   1  657.39    7.58
   3   0   2  347.69    4.93
  -3   0  -2  360.80    5.07
  -3   0  -3   14.49    1.92
   3   0   3   15.30    2.28
  -3   0  -3   14.62    1.89
  -3   0  -4   12.13    1.79
  -3   0  -4   10.75    1.79
  -3   0  -5   50.98    2.13
  -3   0  -5   50.81    2.15
  -3   0  -6  335.27    4.01
  -3   0  -6  384.71    4.30
  -3   0  -7  353.29    4.02
  -3   0  -7  385.63    4.19
  -3   0  -8   48.27    2.02
  -3   0  -8   40.60    1.58
  -3   0  -9    3.90    2.01
  -3   0  -9    3.92    2.03
  -3   0 -10   13.56    2.04
  -3   0 -10   12.94    2.06
  -3   0 -11   11.81    2.03
  -3   0 -11   11.05    2.05
  -3   0 -12   30.23    1.87
  -3   0 -12   27.49    1.83
  -3   0 -13   13.13    2.44
  -3   0 -13   14.92    2.44
  -3   0 -14    1.40    2.81
  -3   0 -14    2.09    2.02
  -3   0 -15   58.60    3.43
  -3   0 -15   61.87    3.48
  -3   0 -16   60.16    3.75
  -3   0 -16   64.66    3.76
  -3  -1   0    0.36    2.99
  -3  -1   0    0.35    2.90
  -3  -1  -1  322.36    6.25
  -3  -1  -1  361.26    6.32
  -3  -1  -2  168.48    3.87
  -3  -1  -2  141.46    3.60
  -3  -1  -3  718.49    7.80
  -3  -1  -3  863.00    8.49
  -3  -1  -4   33.23    2.13
  -3  -1  -4   28.68    2.31
  -3  -1  -5  114.89    2.68
  -3  -1  -5  101.96    2.69
  -3  -1  -6   31.44    1.96
  -3  -1  -6   29.26    1.98
  -3  -1  -7    0.03    2.03
  -3  -1  -7    0.24    2.06
  -3  -1  -8   35.01    2.23
  -3  -1  -8   35.89    2.26
  -3  -1  -9    2.92    2.00
  -3  -1  -9    1.42    2.02
  -3  -1 -10   72.51    2.41
  -3  -1 -10   73.38    2.45
  -3  -1 -11  190.66    3.38
  -3  -1 -11  182.66    3.39
  -3  -1 -12  159.61    3.25
  -3  -1 -12  167.07    3.24
  -3  -1 -13    4.84    2.82
  -3  -1 -13    6.35    2.81
  -3  -1 -14    1.31    2.28
  -3  -1 -14    1.45    2.26
  -3  -1 -15    2.84    2.29
  -3  -1 -15    3.56    3.24
  -3  -1 -16   28.25    2.79
  -3  -1 -16   29.62    3.90
  -3  -2   0    9.45    3.27
  -3  -2   0    9.45    3.07
  -3  -2  -1  182.61    4.65
  -3  -2  -1  181.52    4.44
  -3  -2  -2  351.58    5.41
  -3  -2  -2  340.49    5.37
  -3  -2  -3   23.86    2.22
  -3  -2  -3   21.20    1.94
  -3  -2  -4    8.88    1.71
  -3  -2  -4    8.36    2.10
  -3  -2  -5    8.63    1.74
  -3  -2  -5    8.42    2.10
  -3  -2  -6   55.47    2.44
  -3  -2  -6   52.09    2.42
  -3  -2  -7  122.05    2.91
  -3  -2  -7  131.91    2.93
  -3  -2  -8  233.49    3.65
  -3  -2  -8  260.17    3.68
  -3  -2  -9  136.02    3.24
  -3  -2  -9  133.26    3.11
  -3  -2 -10   16.09    2.51
  -3  -2 -10   17.92    2.46
  -3  -2 -11    7.70    2.43
  -3  -2 -11    6.27    2.49
  -3  -2 -12   51.74    3.02
  -3  -2 -12   46.37    2.28
  -3  -2 -13   72.01    3.48
  -3  -2 -13   62.72    3.57
  -3  -2 -14   38.15    3.52
  -3  -2 -14   46.14    3.43
  -3  -2 -15    0.59    2.69
  -3  -2 -15    1.16    3.73
  -3  -3   0   18.21    2.88
   3   3   0   15.70    3.02
   3   3   1    0.07    2.14
  -3  -3  -1    0.02    2.26
   3   3   2  210.74    4.31
  -3  -3  -2  245.70    4.51
  -3  -3  -3  483.34    6.23
  -3  -3  -3  455.42    6.11
   3   3   3  420.79    5.63
  -3  -3  -4  236.01    4.19
  -3  -3  -4  227.76    4.23
   3   3   4  208.15    3.85
  -3  -3  -5   21.14    2.61
  -3  -3  -5   21.83    2.11
   3   3   5   19.28    2.22
  -3  -3  -6    1.50    1.97
  -3  -3  -6    2.23    2.47
  -3  -3  -7   15.58    2.49
  -3  -3  -7   17.96    2.87
  -3  -3  -8   75.43    2.86
  -3  -3  -8   75.78    2.87
  -3  -3  -9   49.26    2.75
  -3  -3  -9   51.20    2.70
  -3  -3 -10    1.01    2.88
  -3  -3 -10   -0.38    2.86
  -3  -3 -11   13.59    3.03
  -3  -3 -11   19.28    2.94
  -3  -3 -12   42.01    3.62
  -3  -3 -12   52.48    3.49
  -3  -3 -13   27.92    3.84
  -3  -3 -13   20.36    4.04
  -3  -4   0  141.79    4.32
   3   4   0  122.69    4.39
  -3  -4  -1    7.96    2.46
   3   4   1    7.31    2.67
   3   4   2   42.76    3.01
  -3  -4  -2   49.74    2.87
   3   4   3   14.44    2.67
  -3  -4  -3   16.06    2.06
   3   4   4   15.91    2.22
  -3  -4  -4   16.39    2.05
   3   4   5    4.99    3.06
  -3  -4  -5    5.34    2.29
  -3  -4  -6    0.49    2.32
  -3  -4  -6    2.03    3.00
   3   4   6    2.07    2.48
  -3  -4  -7   38.51    2.64
  -3  -4  -7   41.11    2.73
   3   4   7   39.56    3.25
  -3  -4  -8  109.56    4.08
  -3  -4  -8  116.91    3.53
  -3  -4  -9   41.62    3.74
  -3  -4  -9   39.66    3.10
  -3  -4 -10    3.88    3.37
  -3  -4 -10    3.34    3.30
  -3  -4 -11    3.97    3.45
  -3  -4 -11    1.09    3.37
  -3  -4 -12   13.19    4.16
  -3  -4 -12   20.62    3.95
  -3  -5   0    9.17    2.94
   3   5   0    8.37    3.65
  -3  -5  -1   10.83    2.96
   3   5   1    9.30    3.19
  -3  -5  -2    0.21    2.87
   3   5   2    0.27    3.12
   3   5   3   73.53    3.16
  -3  -5  -3   87.04    3.11
   3   5   4  156.81    3.83
  -3  -5  -4  175.03    4.23
   3   5   5   50.17    3.30
  -3  -5  -5   58.30    3.10
   3   5   6    0.63    3.62
  -3  -5  -6    1.45    2.69
  -3  -5  -7    0.21    3.75
   3   5   7    0.90    3.19
  -3  -5  -7    1.06    3.55
  -3  -5  -8   17.81    3.43
   3   5   8   17.02    3.45
  -3  -5  -8   15.89    3.36
  -3  -5  -9   79.10    4.26
  -3  -5  -9   81.19    4.05
  -3  -5 -10   51.45    4.14
  -3  -5 -10   43.45    4.23
  -3  -6   0  237.42    5.85
   3   6   0  209.48    5.50
  -3  -6  -1   48.41    3.84
   3   6   1   42.10    3.96
  -3  -6  -2    1.95    3.45
   3   6   2    1.59    3.65
  -3  -6  -3    0.08    3.43
   3   6   3   -0.17    3.67
  -3  -6  -4    8.76    3.98
   3   6   4    8.09    4.22
  -3  -6  -5   44.17    3.49
   3   6   5   38.74    4.45
  -3  -6  -6   55.57    4.01
   3   6   6   51.78    4.24
  -3  -6  -7    0.57    3.91
   3   6   7    0.31    3.94
  -3  -6  -7    1.51    4.59
   3   7   0    2.55    4.11
  -3  -7   0    1.87    4.05
  -3  -7  -1   29.41    4.66
   3   7   1   30.83    4.72
  -3  -7  -2    7.57    4.73
   3   7   2    7.15    4.78
  -3  -7  -3    3.76    4.72
   3   7   3    2.58    4.77
   4  -9   1  117.16    2.87
  -4   9  -1  137.11    3.81
  -4   9  -2   23.14    3.41
   4  -9   2   25.70    3.35
   4  -9   3    2.00    3.25
  -4   9  -3   -0.64    3.33
   4  -9   4   22.83    3.32
  -4   9  -4   20.93    3.41
   4  -9   5   -0.26    3.25
  -4   9  -5   -1.64    3.35
   4  -9   6    6.08    3.29
  -4   9  -6    6.71    3.35
   4  -9   7   27.48    2.72
  -4   9  -7   27.83    3.88
   4  -9   8   -1.34    3.73
  -4   9  -8    0.80    3.80
   4  -9   9   13.32    3.78
  -4   9  -9   11.16    3.88
   4  -8   1    0.53    2.80
  -4   8  -1   -1.75    2.64
   4  -8   2    2.23    2.78
  -4   8  -2    0.59    2.01
  -4   8  -3   12.62    2.86
   4  -8   3   14.98    2.84
  -4   8  -4    2.63    2.83
   4  -8   4    2.38    2.81
   4  -8   5  168.97    2.76
  -4   8  -5  198.15    3.58
   4  -8   6  167.48    2.74
  -4   8  -6  156.87    2.75
   4  -8   7   29.62    2.10
  -4   8  -7   29.92    2.96
   4  -8   8   -0.02    2.98
  -4   8  -8    0.45    3.01
   4  -8   9    1.02    3.16
  -4   8  -9    1.85    3.19
  -4   8 -10   27.94    3.31
   4  -8  10   28.41    3.28
  -4   8 -11  102.21    4.05
   4  -8  11   90.34    2.96
  -4   8 -12   57.05    3.90
   4  -8  12   54.68    3.91
   4  -7   1  273.70    3.53
  -4   7  -1  263.82    3.52
   4  -7   2  202.22    3.25
  -4   7  -2  199.05    3.22
  -4   7  -3   21.78    2.45
   4  -7   3   21.10    2.46
  -4   7  -4    1.41    2.38
   4  -7   4    0.87    1.69
  -4   7  -5    2.56    1.68
   4  -7   5   -0.58    2.37
   4  -7   6   43.88    2.54
  -4   7  -6   43.84    2.58
   4  -7   7  104.76    2.77
  -4   7  -7  105.50    2.82
   4  -7   8   66.59    2.79
  -4   7  -8   61.72    2.01
   4  -7   9    0.97    2.74
  -4   7  -9    0.00    2.76
  -4   7 -10  101.46    3.15
   4  -7  10  103.18    3.12
  -4   7 -11   18.01    2.30
   4  -7  11   15.72    3.21
  -4   7 -12    0.45    3.20
   4  -7  12    0.53    2.24
   4  -7  13    2.11    3.65
  -4   7 -13    1.29    3.68
  -4   7 -14    4.40    3.73
   4  -6   1   22.55    1.53
  -4   6  -1   22.93    2.11
   4  -6   2   29.23    2.12
  -4   6  -2   22.92    1.57
  -4   6  -3  119.03    2.56
   4  -6   3  121.81    2.56
  -4   6  -4   41.91    2.20
   4  -6   4   41.17    2.17
  -4   6  -5    5.02    2.02
   4  -6   5    7.06    1.98
  -4   6  -6   86.63    1.93
   4  -6   6   99.70    2.41
   4  -6   7   68.17    1.99
  -4   6  -7   78.89    2.67
   4  -6   8   12.36    2.36
  -4   6  -8   11.69    2.39
  -4   6  -9    1.01    2.36
   4  -6   9    2.16    2.32
  -4   6 -10    1.24    2.35
   4  -6  10    2.47    2.30
  -4   6 -11   94.83    3.10
   4  -6  11   94.49    3.07
   4  -6  12  142.53    2.62
  -4   6 -12  147.57    2.67
  -4   6 -13   67.24    2.55
   4  -6  13   72.58    3.38
  -4   6 -14    1.21    3.51
   4  -6  14    3.38    3.45
  -4   6 -15   -0.23    3.82
   4  -6  15    1.32    3.73
   4  -5   1  161.23    2.60
  -4   5  -1  135.76    2.13
   4  -5   2  488.71    4.09
  -4   5  -2  436.04    3.66
  -4   5  -3  130.66    2.69
   4  -5   3  127.86    2.64
  -4   5  -4    3.53    1.47
   4  -5   4    3.61    2.02
  -4   5  -5    0.21    1.41
   4  -5   5   -0.17    1.99
  -4   5  -6   11.17    2.04
   4  -5   6   10.25    1.45
   4  -5   7  192.88    2.87
  -4   5  -7  190.50    2.90
  -4   5  -8  353.50    3.63
   4  -5   8  324.53    3.08
  -4   5  -9   69.78    2.64
   4  -5   9   66.55    2.59
  -4   5 -10   35.42    1.83
   4  -5  10   39.17    2.46
  -4   5 -11   19.44    2.44
   4  -5  11   19.35    2.40
  -4   5 -12    2.09    2.79
   4  -5  12    2.49    1.93
  -4   5 -13   -0.17    2.82
   4  -5  13   -0.29    2.79
  -4   5 -14   11.94    2.36
   4  -5  14   12.61    3.31
   4  -5  15    2.47    3.53
  -4   5 -15    1.41    2.63
  -4   5 -15    0.26    3.61
  -4   5 -16   25.70    2.86
   4  -4   1    3.70    1.68
  -4   4  -1    4.22    1.69
  -4   4  -2  104.99    2.36
   4  -4   2  112.37    2.36
  -4   4  -3  162.40    2.37
   4  -4   3  175.02    2.73
  -4   4  -4  286.12    3.27
   4  -4   4  281.60    3.23
  -4   4  -5   28.84    1.44
   4  -4   5   31.86    1.86
   4  -4   6   65.23    2.32
  -4   4  -6   61.32    2.32
  -4   4  -7  169.56    2.85
   4  -4   7  170.02    2.81
  -4   4  -8    6.44    2.02
   4  -4   8    6.64    2.00
  -4   4  -9    4.46    1.97
   4  -4   9    4.33    1.39
   4  -4  10   11.41    1.70
  -4   4 -10   14.04    2.39
   4  -4  11   47.95    2.52
  -4   4 -11   45.44    1.90
  -4   4 -12  100.83    2.23
   4  -4  12  106.68    2.81
  -4   4 -13  105.16    3.19
  -4   4 -13  110.62    3.23
   4  -4  13  105.56    3.20
   4  -4  14   19.13    2.94
  -4   4 -14   17.45    3.14
  -4   4 -14   19.43    2.98
  -4   4 -15    4.30    3.31
  -4   4 -15    6.44    3.38
  -4   4 -16    0.89    3.85
  -4   4 -16    1.48    2.77
   4  -3   1    7.62    1.74
  -4   3  -1    6.34    1.28
  -4   3  -2   61.28    1.80
   4  -3   2   66.52    1.81
  -4   3  -3  256.89    3.31
   4  -3   3  256.99    3.30
  -4   3  -4   61.17    2.14
   4  -3   4   53.06    1.67
   4  -3   5    3.55    1.68
  -4   3  -5    3.77    1.70
  -4   3  -6   16.51    1.78
   4  -3   6   17.68    1.72
   4  -3   7   62.08    2.34
  -4   3  -7   61.83    2.36
   4  -3   8  415.39    4.04
  -4   3  -8  406.73    4.07
  -4   3  -9  395.24    3.98
   4  -3   9  377.77    3.84
   4  -3  10   36.53    2.13
  -4   3 -10   37.70    2.13
   4  -3  11   15.91    2.45
  -4   3 -11   13.75    1.76
  -4   3 -11   15.74    2.42
   4  -3  12    0.70    1.71
  -4   3 -12    0.56    2.40
  -4   3 -12    0.55    2.42
  -4   3 -13    7.69    2.08
  -4   3 -13    9.54    2.07
  -4   3 -14   76.94    3.18
  -4   3 -14   77.64    3.21
  -4   3 -15   17.41    3.40
  -4   3 -15   18.53    3.45
  -4   3 -16   -0.88    3.88
  -4   3 -16   -0.80    3.92
  -4   2  -1    8.85    1.82
   4  -2   1    9.23    1.83
  -4   2  -2   -0.08    1.73
   4  -2   2    0.57    1.73
  -4   2  -3  408.03    4.41
   4  -2   3  449.43    4.57
  -4   2  -4  703.75    5.96
   4  -2   4  688.97    5.78
   4  -2   5  671.92    5.62
  -4   2  -5  618.63    5.40
   4  -2   6   46.17    1.99
  -4   2  -6   44.72    2.00
   4  -2   7    0.58    1.40
  -4   2  -7    0.44    1.39
  -4   2  -8    5.01    1.99
   4  -2   8    5.19    2.02
   4  -2   9    0.72    1.40
  -4   2  -9    1.41    1.96
  -4   2  -9   -0.04    1.98
  -4   2 -10   45.06    2.21
   4  -2  10   43.00    2.24
  -4   2 -10   43.04    2.21
  -4   2 -11   21.15    1.80
  -4   2 -11   20.99    2.50
  -4   2 -12   57.19    2.67
  -4   2 -12   49.81    1.99
  -4   2 -13   62.90    2.35
  -4   2 -13   61.40    2.33
  -4   2 -14   52.47    2.32
  -4   2 -14   49.97    2.28
  -4   2 -15    5.28    2.37
  -4   2 -15    2.85    3.36
  -4   2 -16    1.93    2.76
  -4   2 -16    2.91    2.75
   4  -1   1  510.94    5.69
  -4   1  -1  510.07    5.72
  -4   1  -2   20.18    1.96
   4  -1   2   22.96    1.94
  -4   1  -3   18.09    1.89
   4  -1   3   17.45    1.87
  -4   1  -4   33.07    2.01
   4  -1   4   32.33    1.94
   4  -1   5   13.38    1.76
  -4   1  -5   10.89    1.76
   4  -1   6   87.97    2.32
  -4   1  -6   88.59    2.31
  -4   1  -6   75.03    1.87
  -4   1  -7   10.21    2.06
  -4   1  -7    9.12    2.02
   4  -1   7    9.53    2.10
  -4   1  -8  154.82    2.92
  -4   1  -8  165.07    3.00
  -4   1  -9  134.06    2.38
  -4   1  -9  151.68    2.93
  -4   1 -10  183.21    3.18
  -4   1 -10  150.76    2.49
  -4   1 -11   86.15    2.82
  -4   1 -11   71.63    2.15
  -4   1 -12    1.20    2.45
  -4   1 -12    3.39    2.43
  -4   1 -13    3.99    2.91
  -4   1 -13    6.92    2.86
  -4   1 -14   56.59    3.35
  -4   1 -14   53.79    3.32
  -4   1 -15   82.14    3.70
  -4   1 -15   80.49    3.72
  -4   1 -16   69.75    4.12
  -4   1 -16   62.55    3.06
   4   0   0  172.63    4.11
  -4   0   0  171.47    4.08
  -4   0  -1    0.42    2.04
   4   0   1    0.09    2.06
  -4   0  -2   13.93    2.19
   4   0   2   12.71    2.18
  -4   0  -3   39.37    2.09
  -4   0  -3   42.81    2.14
   4   0   3   37.58    2.14
  -4   0  -4  336.11    4.32
  -4   0  -4  329.29    4.32
  -4   0  -5  495.40    5.23
  -4   0  -5  498.09    5.29
  -4   0  -6  154.50    3.42
  -4   0  -6  134.26    3.01
  -4   0  -7   48.41    2.30
  -4   0  -7   46.65    2.33
  -4   0  -8    3.72    1.99
  -4   0  -8    2.26    2.02
  -4   0  -9   21.10    2.11
  -4   0  -9   19.12    2.15
  -4   0 -10  197.62    3.46
  -4   0 -10  210.62    3.57
  -4   0 -11  102.18    2.37
  -4   0 -11  128.67    3.10
  -4   0 -12   14.94    2.07
  -4   0 -12   15.76    2.91
  -4   0 -13   -0.03    2.86
  -4   0 -13    0.92    2.83
  -4   0 -14   13.47    3.37
  -4   0 -14   11.87    3.36
  -4   0 -15    1.96    2.76
  -4   0 -15    3.78    2.70
  -4  -1   0  210.16    6.70
  -4  -1   0  205.00    6.74
  -4  -1  -1  275.15    5.62
  -4  -1  -1  254.86    5.67
  -4  -1  -2  294.49    5.47
  -4  -1  -2  318.25    5.21
  -4  -1  -3   22.37    2.38
  -4  -1  -3   24.16    2.25
  -4  -1  -4    4.06    1.64
  -4  -1  -4    4.16    2.13
  -4  -1  -5    1.11    1.98
  -4  -1  -5    6.13    2.10
  -4  -1  -6   53.19    2.38
  -4  -1  -6   51.86    2.50
  -4  -1  -7   41.49    2.39
  -4  -1  -7   42.21    2.27
  -4  -1  -8    0.58    2.06
  -4  -1  -8   -0.25    2.43
  -4  -1  -9   62.81    3.33
  -4  -1  -9   60.73    2.74
  -4  -1 -10   83.50    2.93
  -4  -1 -10   86.17    2.86
  -4  -1 -11   27.02    2.99
  -4  -1 -11   26.79    2.94
  -4  -1 -12   -0.04    2.85
  -4  -1 -12    1.33    2.85
  -4  -1 -13    4.70    3.29
  -4  -1 -13    4.42    3.30
  -4  -1 -14   26.97    3.94
  -4  -1 -14   31.38    3.92
  -4  -2   0   11.05    3.86
  -4  -2  -1    4.02    2.90
  -4  -2  -1    4.08    2.60
  -4  -2  -2   93.49    3.76
  -4  -2  -2   94.22    3.82
  -4  -2  -3   41.26    2.79
  -4  -2  -3   40.39    2.77
  -4  -2  -4   93.22    3.26
  -4  -2  -4   91.22    2.83
  -4  -2  -5  150.67    3.69
  -4  -2  -5  154.30    3.61
  -4  -2  -6  160.93    3.72
  -4  -2  -6  171.82    3.65
  -4  -2  -7   42.62    2.72
  -4  -2  -7   44.01    2.66
  -4  -2  -8   -0.06    2.45
  -4  -2  -8    0.00    2.40
  -4  -2  -9    0.22    2.50
  -4  -2  -9    2.45    2.41
  -4  -2 -10   18.28    3.02
  -4  -2 -10   21.06    2.94
  -4  -2 -11  106.86    3.54
  -4  -2 -11  103.78    3.59
  -4  -2 -12   81.13    3.89
  -4  -2 -12   97.64    3.77
  -4  -2 -13   25.00    4.00
  -4  -2 -13   25.17    3.95
  -4  -3  -1  416.10    9.24
  -4  -3  -1  462.63    9.77
  -4  -3  -2  234.47    5.38
  -4  -3  -2  222.30    5.27
  -4  -3  -3  129.63    3.74
  -4  -3  -3  132.82    4.04
  -4  -3  -4   18.93    2.77
  -4  -3  -4   18.20    2.49
  -4  -3  -5    2.09    2.82
  -4  -3  -5    2.35    2.38
  -4  -3  -6  129.04    3.46
  -4  -3  -6  112.47    3.28
  -4  -3  -7  190.56    4.37
  -4  -3  -7  170.83    3.70
  -4  -3  -8  111.36    4.18
  -4  -3  -8  109.48    3.51
  -4  -3  -9    0.15    2.93
  -4  -3  -9    1.35    3.51
  -4  -3 -10    6.88    3.42
  -4  -3 -10    7.29    3.35
  -4  -3 -11    9.86    3.76
  -4  -3 -11    9.05    3.88
  -4  -3 -12    2.57    4.00
  -4  -3 -12    3.08    3.90
  -4  -4   0   12.96    4.18
  -4  -4  -1    0.66    4.33
  -4  -4  -1    0.32    4.32
  -4  -4  -2   36.46    3.70
  -4  -4  -2   40.94    3.78
  -4  -4  -3  102.36    4.30
  -4  -4  -3  107.20    4.29
  -4  -4  -4   15.49    3.07
  -4  -4  -4   16.65    3.01
  -4  -4  -5    5.09    3.48
  -4  -4  -5    5.83    2.73
  -4  -4  -6   52.94    3.79
  -4  -4  -6   55.98    3.17
  -4  -4  -7   37.61    3.70
  -4  -4  -7   39.50    3.73
  -4  -4  -8    5.04    3.29
  -4  -4  -8    5.54    3.29
  -4  -4  -9   -0.59    3.61
  -4  -4  -9   -0.87    3.56
  -4  -4 -10    8.54    4.08
  -4  -4 -10    9.76    3.91
  -4  -5   0    4.12    4.22
  -4  -5  -1   17.84    5.03
  -4  -5  -1   16.99    5.06
  -4  -5  -2   58.14    4.59
  -4  -5  -2   63.54    4.63
  -4  -5  -3   84.99    4.74
  -4  -5  -3   71.52    4.19
  -4  -5  -4    6.30    3.84
  -4  -5  -4    6.26    3.86
  -4  -5  -5    1.07    3.91
  -4  -5  -5    0.87    3.97
  -4  -5  -6    7.66    4.01
  -4  -5  -6    7.31    3.34
  -4  -5  -7   51.86    4.09
  -4  -5  -7   59.67    4.20
  -4  -6   0    8.98    4.36
  -4  -6  -1   -0.35    5.87
  -4  -6  -1   -0.10    5.92
  -4  -6  -2    0.69    4.73
  -4  -6  -2    1.38    4.47
  -4  -6  -3   64.15    4.59
  -4  -6  -3   66.77    5.18
  -4  -6  -4   61.09    4.65
  -4  -6  -4   61.20    4.50
   5  -9   1   -1.91    3.30
  -5   9  -1   -1.90    2.35
  -5   9  -2   11.15    3.36
   5  -9   2   10.39    3.32
   5  -9   3    2.92    3.29
  -5   9  -3    2.23    3.30
   5  -9   4   39.08    3.42
  -5   9  -4   34.80    2.50
   5  -9   5   68.49    3.98
  -5   9  -5   58.37    2.87
   5  -9   6    5.70    2.67
  -5   9  -6    8.01    3.76
   5  -9   7    1.48    3.76
  -5   9  -7    3.58    2.65
   5  -9   8   25.25    2.78
  -5   9  -8   26.74    2.77
   5  -8   1   33.95    2.14
  -5   8  -1   34.58    2.17
  -5   8  -2    2.91    2.83
   5  -8   2    5.01    2.77
  -5   8  -3    7.48    2.85
   5  -8   3    7.38    2.85
   5  -8   4   54.07    3.01
  -5   8  -4   53.26    3.05
   5  -8   5   34.49    2.94
  -5   8  -5   34.32    2.17
   5  -8   6    0.14    1.97
  -5   8  -6    0.87    2.00
   5  -8   7   19.52    3.23
  -5   8  -7   16.57    2.35
   5  -8   8   12.03    3.23
  -5   8  -8   11.15    2.33
   5  -8   9   40.85    3.57
  -5   8  -9   39.99    3.63
  -5   8 -10  102.91    4.13
   5  -8  10  103.89    2.97
   5  -8  11   12.47    2.85
   5  -7   1   61.54    2.65
  -5   7  -1   57.11    1.98
   5  -7   2    6.21    2.38
  -5   7  -2    4.91    2.41
  -5   7  -3    3.12    2.39
   5  -7   3    1.98    2.39
  -5   7  -4   83.12    2.72
   5  -7   4   79.13    2.69
   5  -7   5   97.94    2.78
  -5   7  -5   99.28    2.81
   5  -7   6   66.96    2.83
  -5   7  -6   57.25    2.27
   5  -7   7   31.76    2.86
  -5   7  -7   31.68    2.91
   5  -7   8    8.26    2.78
  -5   7  -8    6.75    2.02
   5  -7   9   13.68    2.84
  -5   7  -9   15.94    2.88
  -5   7 -10    9.32    3.25
   5  -7  10   11.87    3.18
  -5   7 -11   13.99    3.30
   5  -7  11   13.23    2.29
   5  -7  12    5.42    3.65
  -5   7 -12    2.73    2.66
   5  -6   1  177.47    2.83
  -5   6  -1  153.22    2.32
  -5   6  -2   73.83    1.88
   5  -6   2   82.58    1.88
  -5   6  -3   19.20    1.52
   5  -6   3   23.07    2.09
  -5   6  -4   12.36    1.75
   5  -6   4   11.54    2.23
  -5   6  -5   88.86    2.78
   5  -6   5   77.78    2.09
   5  -6   6    5.17    2.37
  -5   6  -6    6.02    1.72
   5  -6   7    0.08    2.34
  -5   6  -7    0.51    2.36
   5  -6   8    4.89    2.34
  -5   6  -8    3.24    2.39
  -5   6  -9    9.15    1.99
   5  -6   9   11.45    2.75
  -5   6 -10   72.21    3.02
   5  -6  10   72.01    2.99
  -5   6 -11   76.53    2.33
   5  -6  11   88.57    3.27
   5  -6  12   27.38    3.27
  -5   6 -12   26.85    3.32
  -5   6 -13   -1.15    3.51
   5  -6  13    1.16    3.68
   5  -6  14    3.80    2.67
  -5   6 -14    1.87    2.72
   5  -5   1  120.43    2.65
  -5   5  -1  120.53    2.63
  -5   5  -2   18.96    2.13
   5  -5   2   18.81    2.12
  -5   5  -3   14.74    2.11
   5  -5   3   12.87    1.50
  -5   5  -4    3.44    2.03
   5  -5   4    2.10    2.00
   5  -5   5  132.93    2.66
  -5   5  -5  134.08    2.70
   5  -5   6  268.29    3.27
  -5   5  -6  275.79    3.38
   5  -5   7  136.00    2.92
  -5   5  -7  142.71    2.96
  -5   5  -8   -0.57    2.34
   5  -5   8    0.88    2.30
  -5   5  -9   -0.18    2.38
   5  -5   9    1.70    2.34
  -5   5 -10   15.22    2.82
   5  -5  10   15.67    2.78
  -5   5 -11   49.26    2.20
   5  -5  11   61.98    2.99
  -5   5 -12   63.85    2.31
   5  -5  12   77.90    3.09
   5  -5  13   20.12    3.33
  -5   5 -13   20.51    2.40
  -5   5 -14    4.34    3.82
   5  -5  14    5.51    2.66
  -5   5 -14    3.28    3.74
   5  -4   1  130.70    2.52
  -5   4  -1  133.18    2.55
  -5   4  -2  435.48    4.34
   5  -4   2  429.98    4.31
  -5   4  -3  284.54    3.59
   5  -4   3  252.73    3.38
  -5   4  -4   70.85    2.44
   5  -4   4   61.70    1.85
   5  -4   5   10.89    2.04
  -5   4  -5   12.03    2.09
   5  -4   6    2.59    1.98
  -5   4  -6    3.09    2.00
  -5   4  -7   57.81    2.28
   5  -4   7   48.71    1.69
  -5   4  -8   49.96    2.55
   5  -4   8   49.16    2.55
  -5   4  -9   44.08    2.51
   5  -4   9   42.97    2.50
  -5   4 -10    9.71    2.44
   5  -4  10   11.70    2.44
  -5   4 -11   84.06    2.39
   5  -4  11   93.18    2.43
  -5   4 -12   18.09    2.07
   5  -4  12   18.44    2.89
   5  -4  13    4.64    3.30
  -5   4 -13    1.50    3.28
  -5   4 -13    4.10    3.31
  -5   4 -14    3.42    2.38
  -5   4 -14    4.56    3.61
  -5   4 -15    5.38    3.94
  -5   4 -15    6.56    3.96
  -5   3  -1   98.75    2.41
   5  -3   1   77.98    1.91
  -5   3  -2   72.61    2.25
   5  -3   2   61.90    1.76
  -5   3  -3    0.74    1.71
   5  -3   3    1.55    1.69
   5  -3   4   23.18    1.62
  -5   3  -4   27.77    2.20
  -5   3  -5    6.02    2.05
   5  -3   5    5.96    1.46
  -5   3  -6   46.75    2.26
   5  -3   6   47.19    2.26
  -5   3  -7  108.05    2.16
   5  -3   7  133.65    2.72
  -5   3  -8   64.71    1.86
   5  -3   8   77.04    2.40
   5  -3   9    0.74    2.38
  -5   3  -9    1.92    2.33
   5  -3  10    3.31    2.45
  -5   3 -10    3.46    2.39
  -5   3 -11   70.16    3.12
  -5   3 -11   61.69    2.29
   5  -3  11   69.32    2.95
  -5   3 -12  126.63    3.42
  -5   3 -12  122.93    3.38
  -5   3 -13   90.87    3.72
  -5   3 -13  103.33    3.67
  -5   3 -14   16.10    3.49
  -5   3 -14   16.45    2.46
  -5   3 -15    2.44    3.96
  -5   3 -15    1.56    3.91
  -5   2  -1   20.03    1.89
   5  -2   1   20.88    1.91
   5  -2   2  310.01    3.94
  -5   2  -2  313.90    3.99
   5  -2   3  416.21    4.53
  -5   2  -3  437.59    4.66
  -5   2  -4   73.23    2.53
   5  -2   4   75.05    2.53
  -5   2  -5   -0.75    2.01
   5  -2   5   -0.02    2.01
   5  -2   6    2.64    2.01
  -5   2  -6    2.20    2.00
   5  -2   7   10.64    2.04
  -5   2  -7   11.31    2.04
   5  -2   8   87.08    2.52
  -5   2  -8   96.74    2.53
   5  -2   9   77.43    2.79
  -5   2  -9   80.09    2.80
  -5   2  -9   79.29    2.76
  -5   2 -10   30.91    2.57
  -5   2 -10   30.75    2.51
  -5   2 -11    3.49    2.05
  -5   2 -11    4.22    2.82
  -5   2 -12   32.45    3.05
  -5   2 -12   36.82    3.00
  -5   2 -13    1.10    3.35
  -5   2 -13    2.36    3.30
  -5   2 -14    1.56    3.65
  -5   2 -14    0.72    3.36
  -5   2 -15   -2.63    3.93
   5  -1   1    0.20    1.69
  -5   1  -1   -0.28    1.66
  -5   1  -2    0.39    2.02
   5  -1   2    0.20    2.02
   5  -1   3   63.95    2.26
  -5   1  -3   66.40    2.28
  -5   1  -4   67.86    2.53
   5  -1   4   74.91    2.60
   5  -1   5  119.30    2.86
  -5   1  -5  123.17    2.84
   5  -1   6    1.04    2.03
  -5   1  -6    2.11    1.97
  -5   1  -6    1.37    1.98
  -5   1  -7   88.04    2.58
  -5   1  -7   94.77    2.58
  -5   1  -8   81.07    2.83
  -5   1  -8   82.33    2.80
  -5   1  -9    2.18    2.43
  -5   1  -9    1.29    2.41
  -5   1 -10    1.04    2.42
  -5   1 -10   -0.10    2.42
  -5   1 -11    5.15    2.90
  -5   1 -11    6.57    2.87
  -5   1 -12   34.00    3.05
  -5   1 -12   34.55    3.07
  -5   1 -13   61.58    3.69
  -5   1 -13   67.28    3.62
  -5   1 -14   71.25    4.16
  -5   1 -14   65.13    3.02
   5   0   0   64.66    3.17
  -5   0   0   65.11    2.88
   5   0   1   10.93    2.50
  -5   0  -1   11.97    2.14
  -5   0  -2   81.43    3.17
  -5   0  -2   78.59    3.19
  -5   0  -3  275.85    4.32
  -5   0  -3  259.83    4.31
  -5   0  -4  165.73    3.80
  -5   0  -4  196.61    3.86
  -5   0  -5   21.62    2.64
  -5   0  -5   21.47    2.14
  -5   0  -6   -0.27    2.04
  -5   0  -6   -0.28    1.95
  -5   0  -7   14.60    2.53
  -5   0  -7   18.00    2.43
  -5   0  -8  143.28    3.32
  -5   0  -8  127.31    3.18
  -5   0  -9  195.76    3.60
  -5   0  -9  189.29    3.65
  -5   0 -10  116.68    3.43
  -5   0 -10  123.78    3.53
  -5   0 -11    3.67    2.92
  -5   0 -11    5.48    2.90
  -5   0 -12    0.36    3.34
  -5   0 -12    1.06    3.28
  -5   0 -13    6.46    3.85
  -5   0 -13    2.30    3.81
  -5  -1   0  224.47    3.94
  -5  -1  -1   16.74    3.39
  -5  -1  -1   17.86    3.34
  -5  -1  -2    4.43    2.78
  -5  -1  -2    3.95    2.92
  -5  -1  -3    0.16    2.37
  -5  -1  -3    0.54    2.50
  -5  -1  -4   60.84    3.09
  -5  -1  -4   70.94    3.02
  -5  -1  -5  191.18    4.20
  -5  -1  -5  225.57    4.19
  -5  -1  -6  142.91    4.03
  -5  -1  -6  148.58    3.44
  -5  -1  -7   37.31    2.75
  -5  -1  -7   45.18    3.16
  -5  -1  -8   14.64    2.52
  -5  -1  -8   15.14    2.59
  -5  -1  -9   14.26    3.56
  -5  -1  -9   13.21    3.61
  -5  -1 -10    0.48    2.89
  -5  -1 -10    0.69    2.89
  -5  -1 -11    1.20    3.35
  -5  -1 -11    0.36    3.34
  -5  -1 -12   -2.55    3.93
  -5  -1 -12   -0.49    3.82
  -5  -2   0  137.22    3.93
  -5  -2  -1  112.98    3.34
  -5  -2  -2   25.64    3.42
  -5  -2  -2   26.58    3.76
  -5  -2  -3   60.81    3.83
  -5  -2  -3   60.99    3.90
  -5  -2  -4   58.50    3.41
  -5  -2  -4   59.22    3.39
  -5  -2  -5   16.82    3.04
  -5  -2  -5   16.04    3.04
  -5  -2  -6    9.63    3.05
  -5  -2  -6   11.29    2.46
  -5  -2  -7   -0.08    3.49
  -5  -2  -7    0.65    3.43
  -5  -2  -8   18.27    3.58
  -5  -2  -8   15.06    3.02
  -5  -2  -9   47.03    3.55
  -5  -2  -9   40.44    3.61
  -5  -2 -10   65.55    3.74
  -5  -2 -10   64.97    3.83
  -5  -2 -11   34.28    4.05
  -5  -2 -11   35.12    4.13
  -5  -3   0  118.57    4.57
  -5  -3  -1   36.37    3.40
  -5  -3  -2    1.32    3.43
  -5  -3  -3   -0.06    3.72
  -5  -3  -3    0.34    3.68
  -5  -3  -4   13.27    3.53
  -5  -3  -4   13.54    3.32
  -5  -3  -5   88.82    4.62
  -5  -3  -5   89.78    4.20
  -5  -3  -6  147.94    4.30
  -5  -3  -6  156.31    4.76
  -5  -3  -7   44.28    3.61
  -5  -3  -7   46.16    4.30
  -5  -3  -8    1.34    4.09
  -5  -3  -8    1.84    4.09
  -5  -3  -9    0.55    4.74
  -5  -3  -9   -0.07    3.93
  -5  -4   0   38.76    4.62
  -5  -4  -1  120.04    5.29
  -5  -4  -3   21.68    5.97
  -5  -4  -3   20.39    6.25
  -5  -4  -4   15.04    5.25
  -5  -4  -4   12.36    5.22
  -5  -4  -5    1.51    4.66
  -5  -4  -5    1.32    3.94
  -5  -4  -6    2.46    4.29
  -5  -4  -6    2.07    4.16
  -5  -4  -7    8.13    4.74
  -5  -4  -7    8.97    4.62
  -5  -5   0   43.39    4.47
  -5  -5  -1   23.13    4.31
  -5  -5  -2    0.31    4.00
  -5  -5  -3    2.71    4.26
  -5  -5  -4    0.10    7.08
  -5  -5  -4   -0.10    6.48
  -6   9  -1    1.43    3.80
   6  -9   1    2.06    2.66
   6  -9   2   29.15    3.89
  -6   9  -2   29.42    3.92
   6  -9   3   68.19    4.00
  -6   9  -3   68.75    4.04
   6  -9   4   68.86    4.10
  -6   9  -4   70.28    3.02
   6  -9   5    3.35    3.79
  -6   9  -5    0.63    2.72
   6  -8   1    3.08    3.03
  -6   8  -1    1.12    2.32
  -6   8  -2    0.20    3.11
   6  -8   2    4.20    3.04
   6  -8   3    1.85    3.24
  -6   8  -3    1.11    2.29
   6  -8   4    6.47    3.27
  -6   8  -4    7.84    3.28
   6  -8   5   15.24    3.29
  -6   8  -5   13.19    3.33
   6  -8   6    5.98    3.24
  -6   8  -6    3.37    3.28
   6  -8   7   32.94    3.59
  -6   8  -7   32.98    3.65
   6  -8   8   63.15    2.87
  -6   8  -8   67.47    3.98
   6  -8   9   19.39    3.83
  -6   8  -9   20.81    3.90
   6  -7   1    9.28    1.99
  -6   7  -1    9.42    2.84
  -6   7  -2   -0.99    2.84
   6  -7   2   -0.53    1.97
  -6   7  -3   35.62    2.16
   6  -7   3   37.38    2.94
   6  -7   4  134.19    3.31
  -6   7  -4  140.70    3.38
   6  -7   5   59.18    3.01
  -6   7  -5   59.69    3.06
   6  -7   6    7.90    2.83
  -6   7  -6    8.70    2.02
   6  -7   7    0.78    2.99
  -6   7  -7    1.62    2.00
   6  -7   8    7.81    3.22
  -6   7  -8    9.83    3.28
  -6   7  -9   52.47    3.47
   6  -7   9   48.46    2.48
  -6   7 -10   95.26    4.06
   6  -7  10   95.97    4.03
  -6   7 -11    3.32    3.78
   6  -6   1   83.39    2.73
  -6   6  -1   85.77    2.80
  -6   6  -2    0.76    2.42
   6  -6   2    2.02    2.38
  -6   6  -3    7.47    1.75
   6  -6   3    6.44    1.72
   6  -6   4    8.71    2.42
  -6   6  -4    9.74    2.49
   6  -6   5   25.55    2.50
  -6   6  -5   27.93    2.57
   6  -6   6   49.44    2.94
  -6   6  -6   51.47    2.85
   6  -6   7   -0.30    2.74
  -6   6  -7    0.03    2.81
  -6   6  -8   32.13    2.95
   6  -6   8   33.62    2.87
  -6   6  -9   41.13    2.45
   6  -6   9   46.24    3.16
  -6   6 -10   43.23    3.40
   6  -6  10   35.94    2.41
   6  -6  11    1.91    3.48
  -6   6 -11    0.77    3.55
  -6   6 -12    2.04    3.79
   6  -6  12    0.52    3.78
  -6   5  -1    7.43    2.03
   6  -5   1    6.88    1.44
  -6   5  -2    7.01    2.04
   6  -5   2    7.91    2.01
  -6   5  -3    0.38    2.40
   6  -5   3    1.81    1.67
   6  -5   4  130.29    2.99
  -6   5  -4  127.77    3.02
   6  -5   5   79.94    2.10
  -6   5  -5   96.95    2.84
   6  -5   6   15.87    2.45
  -6   5  -6   17.05    2.47
  -6   5  -7    0.63    1.70
   6  -5   7    1.16    2.35
  -6   5  -8    1.12    1.99
   6  -5   8    0.28    2.76
  -6   5  -9   82.30    3.14
   6  -5   9   79.97    3.08
   6  -5  10   85.51    2.43
  -6   5 -10  103.92    3.25
  -6   5 -11   72.73    3.53
   6  -5  11   69.84    3.49
  -6   5 -12    4.16    3.78
   6  -5  12    4.29    3.78
  -6   5 -13    0.09    3.83
   6  -5  13    0.25    3.82
  -6   4  -1  244.23    3.46
   6  -4   1  248.43    3.44
  -6   4  -2   41.51    2.24
   6  -4   2   39.87    2.22
   6  -4   3   46.51    2.23
  -6   4  -3   45.77    2.26
   6  -4   4   19.41    2.08
  -6   4  -4   18.36    2.11
   6  -4   5  106.93    2.91
  -6   4  -5  105.78    2.95
  -6   4  -6  178.78    3.30
   6  -4   6  172.38    3.24
  -6   4  -7   90.74    2.79
   6  -4   7   87.46    2.80
  -6   4  -8    0.67    2.37
   6  -4   8    0.08    2.39
   6  -4   9   15.69    2.87
  -6   4  -9   14.19    2.85
  -6   4 -10   31.97    2.94
   6  -4  10   33.51    2.98
   6  -4  11    2.13    3.28
  -6   4 -11    1.15    3.23
  -6   4 -12    1.80    3.31
  -6   4 -12    1.07    3.34
   6  -4  12    4.88    3.35
   6  -4  13    0.12    3.90
  -6   4 -13   -0.15    3.84
  -6   4 -13   -1.16    3.89
   6  -3   1   85.16    2.60
  -6   3  -1   85.21    2.61
   6  -3   2  185.57    3.22
  -6   3  -2  183.11    3.20
   6  -3   3   43.42    2.30
  -6   3  -3   46.23    2.32
   6  -3   4    6.80    2.02
  -6   3  -4    5.00    2.02
  -6   3  -5   47.06    2.27
   6  -3   5   55.06    2.31
  -6   3  -6   34.77    2.54
   6  -3   6   36.35    2.57
   6  -3   7   16.47    2.48
  -6   3  -7   14.68    1.77
  -6   3  -8   -0.80    2.37
   6  -3   8    0.14    2.41
   6  -3   9    4.13    2.87
  -6   3  -9    2.22    2.81
  -6   3 -10  131.19    3.44
  -6   3 -10  142.75    3.54
   6  -3  10  145.92    3.55
  -6   3 -11   86.42    2.71
   6  -3  11  100.98    3.80
  -6   3 -11   94.18    3.81
  -6   3 -12   57.46    3.54
  -6   3 -12   56.77    3.69
  -6   3 -13   14.67    4.02
  -6   3 -13   17.66    3.89
   6  -2   1  109.69    2.89
  -6   2  -1  104.31    2.80
   6  -2   2  125.26    3.30
  -6   2  -2  121.14    2.91
  -6   2  -3    7.33    2.02
   6  -2   3    7.19    2.04
   6  -2   4   -0.02    1.98
  -6   2  -4   -0.19    1.98
   6  -2   5   21.64    2.13
  -6   2  -5   20.56    2.12
  -6   2  -6  170.00    3.37
   6  -2   6  180.10    3.45
  -6   2  -7  248.17    3.83
   6  -2   7  233.14    3.80
  -6   2  -8   79.40    2.81
   6  -2   8   72.56    2.84
  -6   2  -8   67.00    2.81
  -6   2  -9   24.46    2.88
  -6   2  -9   24.83    2.96
  -6   2 -10   -0.81    2.89
  -6   2 -10    0.19    2.01
  -6   2 -11   -0.17    2.37
  -6   2 -11    0.27    3.29
  -6   2 -12   20.53    2.54
  -6   2 -12   25.12    3.70
  -6   2 -13   20.12    4.09
  -6   2 -13   25.77    4.02
   6  -1   1   27.16    2.24
  -6   1  -1   27.19    2.20
   6  -1   2  236.20    4.27
  -6   1  -2  223.85    3.85
   6  -1   3  130.83    3.43
  -6   1  -3  140.44    3.45
  -6   1  -4   54.28    2.38
   6  -1   4   50.76    2.38
   6  -1   5   -0.02    2.40
  -6   1  -5    0.69    2.88
  -6   1  -5    0.21    2.34
  -6   1  -6    7.55    2.41
  -6   1  -6    9.20    2.43
  -6   1  -7    0.22    2.38
  -6   1  -7    1.15    2.39
  -6   1  -8   26.63    2.95
  -6   1  -8   32.80    2.97
  -6   1  -9    0.60    2.89
  -6   1  -9    1.38    2.84
  -6   1 -10   10.76    3.16
  -6   1 -10   13.48    3.32
  -6   1 -11   48.51    3.63
  -6   1 -11   50.60    3.58
  -6   1 -12   52.47    4.17
  -6   1 -12   59.52    4.13
  -6   0   0   34.26    3.25
  -6   0   0   36.80    3.22
  -6   0  -1    0.61    2.46
  -6   0  -1    0.96    2.74
  -6   0  -2   60.70    3.00
  -6   0  -2   52.54    3.02
  -6   0  -3   46.51    3.21
  -6   0  -3   43.15    3.34
  -6   0  -4    0.31    2.33
  -6   0  -4    0.60    2.99
  -6   0  -5   -0.13    2.34
  -6   0  -5    0.63    2.43
  -6   0  -6   34.66    2.61
  -6   0  -6   31.56    2.71
  -6   0  -7   70.66    3.34
  -6   0  -7   80.05    3.86
  -6   0  -8   78.17    3.45
  -6   0  -8   79.65    3.31
  -6   0  -9   28.32    3.29
  -6   0  -9   31.47    3.24
  -6   0 -10    1.64    3.33
  -6   0 -10    1.74    3.33
  -6   0 -11    9.27    3.85
  -6   0 -11    8.81    3.92
  -6  -1  -1   11.18    4.28
  -6  -1  -2  115.05    5.15
  -6  -1  -2  116.09    5.05
  -6  -1  -3  234.35    5.94
  -6  -1  -3  257.49    5.80
  -6  -1  -4  140.89    4.20
  -6  -1  -4  118.31    4.29
  -6  -1  -5   34.88    3.61
  -6  -1  -5   30.13    3.61
  -6  -1  -6    5.02    2.95
  -6  -1  -6    5.92    3.44
  -6  -1  -7    4.71    3.61
  -6  -1  -7    5.23    3.51
  -6  -1  -8   16.53    3.50
  -6  -1  -8   22.83    4.11
  -6  -1  -9   41.78    4.35
  -6  -1  -9   43.60    3.61
  -6  -1 -10   14.44    4.00
  -6  -1 -10   15.51    3.98
  -6  -2   0  140.16    4.95
  -6  -2  -1   30.59    4.34
  -6  -2  -2    2.48    4.73
  -6  -2  -3    7.99    5.24
  -6  -2  -3    8.15    5.30
  -6  -2  -4   10.00    4.01
  -6  -2  -4   10.37    4.02
  -6  -2  -5   18.07    3.61
  -6  -2  -5   17.68    3.62
  -6  -2  -6   -0.01    3.98
  -6  -2  -6   -0.09    3.96
  -6  -2  -7   32.92    4.37
  -6  -2  -7   36.75    3.56
  -6  -2  -8   76.33    4.52
  -6  -2  -8   85.81    4.45
  -6  -2  -9   30.15    5.09
  -6  -2  -9   35.29    4.18
  -6  -3   0    0.04    4.64
  -6  -3  -1   26.15    5.35
  -6  -3  -2    1.57    4.46
  -6  -3  -5   64.39    5.11
  -6  -3  -5   65.75    5.07
  -6  -3  -6    1.08    5.27
  -6  -3  -6    0.50    5.19
  -6  -3  -7    4.44    5.18
  -6  -4   0  110.69    5.17
  -6  -4  -1   65.40    5.27
   7  -8   1    1.27    3.29
  -7   8  -1    1.14    3.36
   7  -8   2   10.41    3.53
  -7   8  -2    8.55    2.39
   7  -8   3   19.44    3.57
  -7   8  -3   19.84    3.66
   7  -8   4    2.59    3.80
  -7   8  -4    3.28    3.85
   7  -8   5    1.97    2.69
  -7   8  -5    4.49    3.84
   7  -8   6   14.07    3.88
  -7   8  -6   19.51    3.95
  -7   7  -1    4.62    2.92
   7  -7   1    5.52    2.02
   7  -7   2   45.07    3.01
  -7   7  -2   44.50    3.10
   7  -7   3   81.97    3.37
  -7   7  -3   85.10    3.63
   7  -7   4    6.00    3.24
  -7   7  -4    2.05    2.39
   7  -7   5    2.63    3.21
  -7   7  -5    0.66    3.32
   7  -7   6    1.54    2.29
  -7   7  -6    1.95    3.31
   7  -7   7   11.60    3.77
  -7   7  -7   13.46    3.61
  -7   7  -8   49.83    2.91
   7  -7   8   54.50    3.92
  -7   6  -1    2.05    2.00
   7  -6   1    1.10    2.00
   7  -6   2   29.82    2.13
  -7   6  -2   40.40    3.02
   7  -6   3   80.90    2.42
  -7   6  -3  102.94    3.35
   7  -6   4  104.91    3.28
  -7   6  -4   99.89    3.31
   7  -6   5   19.99    2.90
  -7   6  -5   16.78    2.15
   7  -6   6    4.67    2.27
  -7   6  -6    6.00    3.10
   7  -6   7    7.94    3.24
  -7   6  -7    8.34    3.33
  -7   6  -8    1.16    2.32
   7  -6   8   -0.09    3.23
  -7   6  -9    4.66    3.81
   7  -6   9    3.65    3.75
   7  -6  10    1.04    2.66
  -7   6 -10    0.83    2.70
   7  -5   1   12.17    1.77
  -7   5  -1   16.28    2.47
   7  -5   2   36.67    2.57
  -7   5  -2   35.61    2.61
   7  -5   3   45.24    2.62
  -7   5  -3   42.38    2.66
   7  -5   4   35.64    2.98
  -7   5  -4   40.53    3.01
   7  -5   5   -0.32    2.82
  -7   5  -5    1.11    2.84
  -7   5  -6   12.25    2.11
   7  -5   6   14.93    2.85
  -7   5  -7    0.42    2.86
   7  -5   7    2.61    2.80
  -7   5  -8   47.61    2.53
   7  -5   8   50.50    2.51
   7  -5   9   84.66    3.62
  -7   5  -9   90.84    3.65
  -7   5 -10   35.60    2.82
   7  -5  10   41.38    3.96
   7  -4   1    6.26    2.44
  -7   4  -1    4.52    1.73
   7  -4   2   -0.45    2.42
  -7   4  -2   -0.07    2.40
   7  -4   3   16.32    2.52
  -7   4  -3   17.49    2.50
   7  -4   4   71.71    2.18
  -7   4  -4   86.76    2.87
  -7   4  -5   72.87    2.99
   7  -4   5   71.17    3.14
  -7   4  -6   43.59    3.04
   7  -4   6   47.17    3.02
   7  -4   7    1.37    2.85
  -7   4  -7    0.98    2.81
   7  -4   8    0.56    3.28
  -7   4  -8    0.91    3.24
  -7   4  -9   13.68    3.31
   7  -4   9   10.62    2.42
   7  -4  10   15.41    3.68
  -7   4 -10   15.75    3.81
  -7   4 -11    4.78    2.70
  -7   4 -11    6.66    3.94
   7  -4  11    7.71    3.96
   7  -3   1  126.47    3.24
  -7   3  -1  119.54    3.13
   7  -3   2    6.97    2.47
  -7   3  -2    7.69    2.42
  -7   3  -3    4.16    2.43
   7  -3   3    4.98    2.43
  -7   3  -4   23.06    2.54
   7  -3   4   22.74    2.55
   7  -3   5    2.88    2.65
  -7   3  -5    2.57    2.45
   7  -3   6    5.75    2.88
  -7   3  -6    5.64    2.82
  -7   3  -7    3.41    2.85
   7  -3   7    3.92    2.89
   7  -3   8    0.28    3.10
  -7   3  -8    0.48    3.03
  -7   3  -9   51.73    3.51
  -7   3  -9   45.07    2.61
   7  -3   9   52.44    3.62
   7  -3  10   61.32    3.92
  -7   3 -10   66.00    4.04
  -7   3 -10   63.01    4.18
  -7   3 -11   10.76    3.88
  -7   3 -11    9.29    4.03
  -7   2  -1    3.89    2.39
   7  -2   1    4.98    2.45
   7  -2   2    0.06    2.37
  -7   2  -2    0.55    2.34
   7  -2   3    2.68    2.40
  -7   2  -3    2.43    2.40
  -7   2  -4   70.21    2.86
   7  -2   4   62.53    2.82
   7  -2   5  152.79    3.74
  -7   2  -5  162.55    3.79
  -7   2  -6   85.43    3.30
   7  -2   6   82.36    3.30
  -7   2  -6   84.62    3.31
   7  -2   7    8.97    2.91
  -7   2  -7    9.82    2.86
  -7   2  -7    7.68    2.89
  -7   2  -8   -0.16    3.25
  -7   2  -8    1.32    3.29
  -7   2  -9   22.54    3.38
  -7   2  -9   19.87    3.48
  -7   2 -10   30.15    3.95
  -7   2 -10   27.85    4.04
   7  -1   1  138.36    4.05
  -7   1  -1  154.54    4.11
  -7   1  -2   72.61    2.98
   7  -1   2   72.21    2.99
   7  -1   3    2.16    2.38
  -7   1  -3    1.00    2.90
  -7   1  -3    1.77    2.86
  -7   1  -4    1.59    3.38
  -7   1  -4    2.75    3.36
  -7   1  -5   13.07    3.47
  -7   1  -5    9.67    2.89
  -7   1  -6   63.80    3.77
  -7   1  -6   51.63    3.17
  -7   1  -7   56.79    3.53
  -7   1  -7   50.38    3.58
  -7   1  -8    5.16    3.32
  -7   1  -8    4.28    3.32
  -7   1  -9   12.36    3.85
  -7   1  -9    7.24    3.89
  -7   1 -10   39.43    4.06
  -7   1 -10   32.56    4.97
  -7   0   0    3.77    4.09
  -7   0   0    2.79    4.34
  -7   0  -1    0.02    3.97
  -7   0  -1   -0.08    3.39
  -7   0  -2   12.44    4.00
  -7   0  -2   14.92    3.95
  -7   0  -3   26.27    3.85
  -7   0  -3   30.64    4.17
  -7   0  -4    9.01    3.47
  -7   0  -4    8.17    3.65
  -7   0  -5   17.99    2.95
  -7   0  -5   17.73    3.74
  -7   0  -6   71.04    4.40
  -7   0  -6   61.79    4.54
  -7   0  -7   56.20    4.35
  -7   0  -7   46.25    4.50
  -7   0  -8    2.64    4.67
  -7   0  -8    1.82    4.73
  -7   0  -9    0.30    3.88
  -7   0  -9    0.34    3.88
  -7  -1  -1   86.82    4.29
  -7  -1  -2   70.05    5.15
  -7  -1  -3   10.49    4.93
  -7  -1  -3   11.65    5.06
  -7  -1  -4    0.09    4.54
  -7  -1  -4    0.42    4.55
  -7  -1  -5    5.37    4.08
  -7  -1  -5    6.02    4.64
  -7  -1  -6   40.10    4.72
  -7  -1  -6   30.06    4.59
  -7  -1  -7   50.51    5.06
  -7  -1  -7   33.20    5.08
  -7  -2   0    0.61    4.46
  -7  -2  -1    4.65    4.40
  -7  -2  -2   11.42    5.40
  -7  -2  -5    0.35    6.43
  -7  -2  -5    0.35    5.93
  -7  -3   0    7.25    4.15
  -7  -3  -1    4.56    4.41
  -7  -3  -2   50.83    4.46
   8  -7   1   23.64    3.87
  -8   7  -1   26.74    3.72
   8  -7   2   -0.54    2.67
  -8   7  -2    2.97    3.85
   8  -7   3    1.98    3.77
  -8   7  -3    0.62    2.74
   8  -7   4    1.42    3.80
  -8   7  -4    1.54    3.89
   8  -7   5    3.40    2.71
  -8   7  -5    4.53    3.91
   8  -6   1   19.91    3.35
  -8   6  -1   20.07    3.40
   8  -6   2   72.04    3.61
  -8   6  -2   83.33    3.67
   8  -6   3   75.55    3.58
  -8   6  -3   71.78    2.73
   8  -6   4   12.53    3.36
  -8   6  -4   13.08    3.42
   8  -6   5    2.33    3.78
  -8   6  -5    3.48    3.84
  -8   6  -6   -0.58    3.85
   8  -6   6    1.41    3.76
  -8   6  -7   26.10    3.93
   8  -6   7   23.45    3.83
   8  -5   1   -1.16    2.88
  -8   5  -1    0.54    2.84
   8  -5   2    1.02    2.86
  -8   5  -2    0.54    3.08
   8  -5   3   -0.37    3.28
  -8   5  -3    0.66    3.28
   8  -5   4   19.08    3.35
  -8   5  -4   18.74    3.38
  -8   5  -5   -0.10    3.31
   8  -5   5    0.62    3.27
  -8   5  -6   24.66    3.69
   8  -5   6   22.88    3.65
   8  -5   7   39.56    3.96
  -8   5  -7   39.48    3.98
   8  -5   8   22.76    2.85
   8  -4   1   -0.35    2.86
  -8   4  -1    0.49    2.83
   8  -4   2   41.75    3.09
  -8   4  -2   42.25    3.04
   8  -4   3   54.13    3.15
  -8   4  -3   48.30    3.11
  -8   4  -4   49.34    3.49
   8  -4   4   51.31    3.50
   8  -4   5   14.23    3.35
  -8   4  -5   13.13    3.35
   8  -4   6    3.86    3.36
  -8   4  -6    4.08    3.32
   8  -4   7   13.47    3.87
  -8   4  -7   12.43    3.87
  -8   4  -8   52.01    4.07
   8  -4   8   50.47    4.11
   8  -3   1    7.32    2.88
  -8   3  -1    7.17    2.84
  -8   3  -2    2.17    2.79
   8  -3   2    1.25    3.48
   8  -3   3   17.64    2.95
  -8   3  -3   18.02    2.95
   8  -3   4   75.29    3.66
  -8   3  -4   75.26    3.63
  -8   3  -5   53.78    3.55
   8  -3   5   49.92    3.55
   8  -3   6    5.81    3.35
  -8   3  -6    6.15    3.32
   8  -3   7    1.36    3.87
  -8   3  -7    4.88    3.78
  -8   3  -8   10.73    3.89
   8  -3   8    6.79    3.97
  -8   3  -8    8.61    3.99
   8  -2   1    7.28    2.81
  -8   2  -1    7.18    3.47
  -8   2  -2    2.23    2.81
   8  -2   2    1.72    3.42
   8  -2   3   26.49    3.78
  -8   2  -3   30.17    3.20
   8  -2   4   44.90    4.18
  -8   2  -4   51.69    4.21
   8  -2   5    8.40    3.32
  -8   2  -5    9.40    3.32
  -8   2  -5    6.03    3.32
  -8   2  -6    0.07    3.52
  -8   2  -6    2.49    3.51
  -8   2  -7   -0.21    3.79
  -8   2  -7    0.74    4.68
  -8   1  -1   48.26    3.96
  -8   1  -1   54.14    4.50
  -8   1  -2    1.24    4.58
  -8   1  -2    1.51    3.97
  -8   1  -3    4.26    4.05
  -8   1  -3    5.34    4.02
  -8   1  -4   18.19    4.20
  -8   1  -4   22.05    4.12
  -8   1  -5   68.33    4.84
  -8   1  -5   52.90    4.92
  -8   1  -6   50.62    4.14
  -8   1  -6   41.81    4.22
  -8   0   0   81.24    5.39
  -8   0  -1   78.51    5.33
  -8   0  -2    1.10    5.56
  -8   0  -2    1.19    5.59
  -8   0  -3    0.46    4.85
  -8   0  -3   -0.07    4.76
  -8   0  -4   -0.22    5.45
  -8   0  -4    1.14    5.27
  -8   0  -5    0.75    4.76
  -8   0  -5    1.86    4.59
  -8  -1   0   33.51    3.86
  -8  -1  -1   22.03    4.26
  -8  -1  -2    0.64    4.87
   9  -6   1   40.61    2.87
   9  -5   1    8.25    3.87
  -9   5  -1    6.09    3.86
   9  -5   2   17.36    3.95
  -9   5  -2   17.23    3.95
   9  -5   3    7.79    3.87
  -9   5  -3    5.94    3.88
   9  -4   1   36.76    3.99
  -9   4  -1   34.29    3.96
  -9   4  -2   33.86    3.96
   9  -4   2   32.93    3.98
   9  -4   3    3.72    3.87
  -9   4  -3    5.28    3.85
   9  -3   1    8.03    4.64
  -9   3  -1    7.39    3.82
   9  -3   2   41.18    4.84
  -9   3  -2   44.37    4.89
  -9   3  -3   44.44    4.04
   9  -3   3   40.49    4.87
  -9   2  -1    1.54    4.70
   9  -2   1    0.64    4.59
   9  -2   2    1.93    4.67
  -9   2  -2    0.86    4.62
  -9   2  -2    1.66    4.73
   9  -2   3    0.02    3.25
   9  -1   1    0.01    3.89
   0   0   0    0.00    0.00
;
_shelx_hkl_checksum              90827
loop_
_space_group_symop_operation_xyz
'x, y, z'
'-x, -y, -z'
loop_
_atom_site_label
_atom_site_type_symbol
_atom_site_fract_x
_atom_site_fract_y
_atom_site_fract_z
_atom_site_U_iso_or_equiv
_atom_site_adp_type
_atom_site_occupancy
_atom_site_site_symmetry_order
_atom_site_calc_flag
_atom_site_refinement_flags_posn
_atom_site_refinement_flags_adp
_atom_site_refinement_flags_occupancy
_atom_site_disorder_assembly
_atom_site_disorder_group
Ag1 Ag 0.21157(4) 0.30034(3) 0.33020(2) 0.02672(7) Uani 1 1 d . . . . .
Ag2 Ag 0.54905(4) 0.80492(3) 0.46837(2) 0.02409(7) Uani 1 1 d . . . . .
O1 O -0.4244(4) -0.7324(3) 0.39475(14) 0.0286(5) Uani 1 1 d . . . . .
O2 O -0.2659(4) -0.4579(3) 0.49235(14) 0.0300(5) Uani 1 1 d . . . . .
O3 O 0.2642(5) 1.0509(4) 0.01387(15) 0.0399(6) Uani 1 1 d . . . . .
H1O H 0.2181 1.1358 0.0092 0.060 Uiso 1 1 d R U . . .
O4 O 0.1895(5) 1.0607(4) 0.15242(17) 0.0500(8) Uani 1 1 d . . . . .
O5 O 0.6757(5) 0.6784(4) 0.12469(17) 0.0491(7) Uani 1 1 d . . . . .
O6 O 0.8064(7) 0.4622(5) 0.1093(2) 0.0751(12) Uani 1 1 d . . . . .
O7 O 0.8294(5) 0.6507(4) 0.01362(16) 0.0413(7) Uani 1 1 d . . . . .
N1 N 0.0842(4) 0.0231(3) 0.36711(16) 0.0217(5) Uani 1 1 d . . . . .
N2 N 0.1725(4) -0.0218(3) 0.44407(16) 0.0198(5) Uani 1 1 d . . . . .
N3 N -0.0685(4) -0.2814(3) 0.36723(15) 0.0174(5) Uani 1 1 d . . . . .
N4 N 0.2966(4) 0.5597(3) 0.27480(16) 0.0222(5) Uani 1 1 d . . . . .
N5 N 0.4069(4) 0.7425(3) 0.32338(15) 0.0202(5) Uani 1 1 d . . . . .
N6 N 0.3280(4) 0.7614(3) 0.18047(15) 0.0204(5) Uani 1 1 d . . . . .
N7 N 0.7662(5) 0.5952(4) 0.08308(17) 0.0314(6) Uani 1 1 d . . . . .
C1 C -0.0583(5) -0.1350(4) 0.32247(19) 0.0233(6) Uani 1 1 d . . . . .
H1 H -0.1417 -0.1448 0.2670 0.028 Uiso 1 1 calc R U . . .
C2 C 0.0775(5) -0.2040(4) 0.44220(19) 0.0200(6) Uani 1 1 d . . . . .
H2 H 0.1067 -0.2724 0.4870 0.024 Uiso 1 1 calc R U . . .
C3 C -0.2042(5) -0.4814(4) 0.3401(2) 0.0227(6) Uani 1 1 d . . . . .
H3A H -0.1291 -0.5607 0.3205 0.027 Uiso 1 1 calc R U . . .
H3B H -0.3064 -0.4912 0.2879 0.027 Uiso 1 1 calc R U . . .
C4 C -0.3068(4) -0.5609(4) 0.41633(19) 0.0187(6) Uani 1 1 d . . . . .
C5 C 0.2528(5) 0.5764(4) 0.18977(19) 0.0256(7) Uani 1 1 d . . . . .
H5 H 0.1791 0.4734 0.1419 0.031 Uiso 1 1 calc R U . . .
C6 C 0.4242(5) 0.8603(4) 0.26527(18) 0.0200(6) Uani 1 1 d . . . . .
H6 H 0.4931 0.9938 0.2801 0.024 Uiso 1 1 calc R U . . .
C7 C 0.3271(5) 0.8311(5) 0.09437(19) 0.0262(7) Uani 1 1 d . . . . .
H7A H 0.2430 0.7247 0.0453 0.031 Uiso 1 1 calc R U . . .
H7B H 0.4630 0.8729 0.0824 0.031 Uiso 1 1 calc R U . . .
C8 C 0.2521(5) 0.9949(5) 0.09259(19) 0.0262(7) Uani 1 1 d . . . . .
O1W O 0.8061(5) 0.1437(4) 0.19293(17) 0.0501(7) Uani 1 1 d . . . . .
H1W H 0.8085 0.2331 0.1632 0.075 Uiso 1 1 d R U . . .
H2W H 0.9052 0.1108 0.1861 0.075 Uiso 1 1 d R U . . .
loop_
_atom_site_aniso_label
_atom_site_aniso_U_11
_atom_site_aniso_U_22
_atom_site_aniso_U_33
_atom_site_aniso_U_23
_atom_site_aniso_U_13
_atom_site_aniso_U_12
Ag1 0.03226(16) 0.01564(11) 0.03077(13) 0.01158(9) 0.00636(10) 0.00404(10)
Ag2 0.02336(14) 0.02474(12) 0.01908(11) 0.00292(8) 0.00004(9) 0.00414(11)
O1 0.0330(14) 0.0155(10) 0.0310(11) 0.0064(8) 0.0088(10) -0.0012(10)
O2 0.0380(15) 0.0238(11) 0.0240(11) 0.0035(8) 0.0111(10) 0.0038(11)
O3 0.071(2) 0.0400(13) 0.0303(12) 0.0210(10) 0.0219(12) 0.0373(14)
O4 0.090(2) 0.0590(17) 0.0306(13) 0.0183(12) 0.0247(14) 0.0560(18)
O5 0.062(2) 0.0683(19) 0.0365(14) 0.0142(13) 0.0173(13) 0.0442(18)
O6 0.136(4) 0.069(2) 0.064(2) 0.0445(17) 0.037(2) 0.076(2)
O7 0.068(2) 0.0401(14) 0.0306(12) 0.0134(10) 0.0161(12) 0.0327(15)
N1 0.0260(14) 0.0186(11) 0.0182(11) 0.0070(9) 0.0006(10) 0.0054(11)
N2 0.0183(13) 0.0192(11) 0.0204(11) 0.0072(9) 0.0025(9) 0.0040(10)
N3 0.0167(13) 0.0147(11) 0.0197(11) 0.0065(9) 0.0051(9) 0.0022(10)
N4 0.0267(15) 0.0149(11) 0.0207(12) 0.0039(9) 0.0027(10) 0.0026(11)
N5 0.0219(14) 0.0137(10) 0.0211(11) 0.0029(9) 0.0014(10) 0.0025(10)
N6 0.0252(14) 0.0195(11) 0.0181(11) 0.0075(9) 0.0051(10) 0.0084(11)
N7 0.0441(19) 0.0307(14) 0.0215(12) 0.0036(11) -0.0018(12) 0.0198(14)
C1 0.0245(17) 0.0196(14) 0.0218(13) 0.0082(11) 0.0006(12) 0.0028(13)
C2 0.0190(16) 0.0200(13) 0.0244(13) 0.0100(11) 0.0078(11) 0.0077(13)
C3 0.0248(17) 0.0140(13) 0.0255(14) 0.0025(11) 0.0067(12) 0.0020(13)
C4 0.0159(15) 0.0183(13) 0.0244(14) 0.0089(11) 0.0047(11) 0.0074(12)
C5 0.0314(19) 0.0194(14) 0.0212(14) 0.0022(11) 0.0028(13) 0.0043(14)
C6 0.0235(16) 0.0146(12) 0.0209(13) 0.0048(10) 0.0044(11) 0.0049(12)
C7 0.039(2) 0.0307(16) 0.0169(13) 0.0092(11) 0.0100(13) 0.0192(15)
C8 0.0344(19) 0.0285(15) 0.0200(14) 0.0079(12) 0.0053(13) 0.0155(15)
O1W 0.083(2) 0.0382(14) 0.0383(14) 0.0131(11) 0.0182(14) 0.0281(16)
loop_
_atom_type_symbol
_atom_type_description
_atom_type_scat_dispersion_real
_atom_type_scat_dispersion_imag
_atom_type_scat_source
C C 0.0033 0.0016 'International Tables Vol C Tables 4.2.6.8 and 6.1.1.4'
H H 0.0000 0.0000 'International Tables Vol C Tables 4.2.6.8 and 6.1.1.4'
N N 0.0061 0.0033 'International Tables Vol C Tables 4.2.6.8 and 6.1.1.4'
O O 0.0106 0.0060 'International Tables Vol C Tables 4.2.6.8 and 6.1.1.4'
Ag Ag -0.8971 1.1015 'International Tables Vol C Tables 4.2.6.8 and 6.1.1.4'
loop_
_geom_angle_atom_site_label_1
_geom_angle_atom_site_label_2
_geom_angle_atom_site_label_3
_geom_angle
_geom_angle_site_symmetry_1
_geom_angle_site_symmetry_3
_geom_angle_publ_flag
N4 Ag1 N1 170.42(9) . . ?
N4 Ag1 O2 98.81(8) . 2_556 ?
N1 Ag1 O2 87.84(8) . 2_556 ?
N4 Ag1 O1 103.28(8) . 1_665 ?
N1 Ag1 O1 84.53(8) . 1_665 ?
O2 Ag1 O1 80.58(7) 2_556 1_665 ?
N4 Ag1 O4 91.99(8) . 1_545 ?
N1 Ag1 O4 82.50(8) . 1_545 ?
O2 Ag1 O4 166.46(7) 2_556 1_545 ?
O1 Ag1 O4 89.04(7) 1_665 1_545 ?
N5 Ag2 N2 135.78(9) . 2_666 ?
N5 Ag2 O1 133.43(9) . 2_556 ?
N2 Ag2 O1 88.59(8) 2_666 2_556 ?
N5 Ag2 O2 106.85(8) . 1_665 ?
N2 Ag2 O2 85.63(8) 2_666 1_665 ?
O1 Ag2 O2 86.23(7) 2_556 1_665 ?
N5 Ag2 Ag2 98.39(6) . 2_676 ?
N2 Ag2 Ag2 72.68(6) 2_666 2_676 ?
O1 Ag2 Ag2 79.77(5) 2_556 2_676 ?
O2 Ag2 Ag2 154.30(5) 1_665 2_676 ?
C4 O1 Ag2 104.61(18) . 2_556 ?
C8 O3 H1O 111.5 . . ?
C1 N1 N2 107.2(2) . . ?
C1 N1 Ag1 131.40(19) . . ?
N2 N1 Ag1 120.77(18) . . ?
C2 N2 N1 106.6(2) . . ?
C2 N2 Ag2 133.1(2) . 2_666 ?
N1 N2 Ag2 119.75(17) . 2_666 ?
C1 N3 C2 104.8(2) . . ?
C1 N3 C3 127.8(2) . . ?
C2 N3 C3 127.3(2) . . ?
C5 N4 N5 106.9(2) . . ?
C5 N4 Ag1 127.1(2) . . ?
N5 N4 Ag1 126.01(17) . . ?
C6 N5 N4 107.1(2) . . ?
C6 N5 Ag2 128.5(2) . . ?
N4 N5 Ag2 124.05(16) . . ?
C5 N6 C6 105.3(2) . . ?
C5 N6 C7 125.6(3) . . ?
C6 N6 C7 128.5(3) . . ?
O6 N7 O5 121.7(3) . . ?
O6 N7 O7 117.6(3) . . ?
O5 N7 O7 120.6(3) . . ?
N1 C1 N3 110.4(2) . . ?
N1 C1 H1 124.8 . . ?
N3 C1 H1 124.8 . . ?
N2 C2 N3 111.0(2) . . ?
N2 C2 H2 124.5 . . ?
N3 C2 H2 124.5 . . ?
N3 C3 C4 113.3(2) . . ?
N3 C3 H3A 108.9 . . ?
C4 C3 H3A 108.9 . . ?
N3 C3 H3B 108.9 . . ?
C4 C3 H3B 108.9 . . ?
H3A C3 H3B 107.7 . . ?
O2 C4 O1 125.9(3) . . ?
O2 C4 C3 119.5(3) . . ?
O1 C4 C3 114.6(2) . . ?
N4 C5 N6 110.6(3) . . ?
N4 C5 H5 124.7 . . ?
N6 C5 H5 124.7 . . ?
N5 C6 N6 110.1(2) . . ?
N5 C6 H6 125.0 . . ?
N6 C6 H6 125.0 . . ?
N6 C7 C8 113.7(2) . . ?
N6 C7 H7A 108.8 . . ?
C8 C7 H7A 108.8 . . ?
N6 C7 H7B 108.8 . . ?
C8 C7 H7B 108.8 . . ?
H7A C7 H7B 107.7 . . ?
O4 C8 O3 125.8(3) . . ?
O4 C8 C7 125.5(3) . . ?
O3 C8 C7 108.7(2) . . ?
H1W O1W H2W 108.4 . . ?
loop_
_geom_bond_atom_site_label_1
_geom_bond_atom_site_label_2
_geom_bond_distance
_geom_bond_site_symmetry_2
_geom_bond_publ_flag
Ag1 N4 2.148(2) . ?
Ag1 N1 2.155(2) . ?
Ag1 O2 2.708(2) 2_556 ?
Ag1 O1 2.786(3) 1_665 ?
Ag1 O4 2.993(3) 1_545 ?
Ag2 N5 2.204(2) . ?
Ag2 N2 2.235(3) 2_666 ?
Ag2 O1 2.417(2) 2_556 ?
Ag2 O2 2.767(2) 1_665 ?
Ag2 Ag2 3.3047(5) 2_676 ?
O1 C4 1.256(4) . ?
O2 C4 1.238(4) . ?
O3 C8 1.312(3) . ?
O3 H1O 0.8202 . ?
O4 C8 1.192(4) . ?
O5 N7 1.229(4) . ?
O6 N7 1.225(4) . ?
O7 N7 1.263(4) . ?
N1 C1 1.311(4) . ?
N1 N2 1.380(3) . ?
N2 C2 1.305(4) . ?
N3 C1 1.347(3) . ?
N3 C2 1.352(4) . ?
N3 C3 1.462(4) . ?
N4 C5 1.309(4) . ?
N4 N5 1.384(3) . ?
N5 C6 1.309(3) . ?
N6 C5 1.346(4) . ?
N6 C6 1.358(4) . ?
N6 C7 1.458(3) . ?
C1 H1 0.9400 . ?
C2 H2 0.9400 . ?
C3 C4 1.530(4) . ?
C3 H3A 0.9800 . ?
C3 H3B 0.9800 . ?
C5 H5 0.9400 . ?
C6 H6 0.9400 . ?
C7 C8 1.505(4) . ?
C7 H7A 0.9800 . ?
C7 H7B 0.9800 . ?
O1W H1W 0.8500 . ?
O1W H2W 0.8500 . ?
loop_
_geom_hbond_atom_site_label_D
_geom_hbond_atom_site_label_H
_geom_hbond_atom_site_label_A
_geom_hbond_distance_DH
_geom_hbond_distance_HA
_geom_hbond_distance_DA
_geom_hbond_angle_DHA
_geom_hbond_site_symmetry_A
_geom_hbond_publ_flag
O1W H1W O6 0.85 2.00 2.840(4) 172 . yes
O1W H2W O4 0.85 2.33 3.170(4) 170 1_645 yes
O3 H1O O7 0.82 1.81 2.615(3) 166 2_675 yes
C1 H1 O5 0.94 2.33 3.183(4) 150 1_445 yes
C1 H1 O1W 0.94 2.67 3.320(4) 127 1_455 yes
C2 H2 O1 0.94 2.70 3.460(4) 139 2_546 yes
C2 H2 O2 0.94 2.68 3.446(4) 139 2_546 yes
C3 H3A O1W 0.98 2.62 3.395(4) 136 1_445 yes
C5 H5 O7 0.94 2.40 3.193(4) 142 2_665 yes
C6 H6 O1 0.94 2.37 3.173(4) 144 1_675 yes
C6 H6 O1W 0.94 2.76 3.296(4) 117 1_565 yes
C7 H7A O6 0.98 2.48 3.362(5) 149 2_665 yes
C7 H7A O7 0.98 2.70 3.511(4) 141 2_665 yes
C7 H7B O5 0.98 2.53 3.111(4) 118 . yes
C7 H7B O1W 0.98 2.78 3.467(5) 128 1_565 yes
C7 H7B O3 0.98 2.57 3.491(4) 157 2_675 yes
loop_
_geom_torsion_atom_site_label_1
_geom_torsion_atom_site_label_2
_geom_torsion_atom_site_label_3
_geom_torsion_atom_site_label_4
_geom_torsion
_geom_torsion_site_symmetry_1
_geom_torsion_site_symmetry_2
_geom_torsion_site_symmetry_3
_geom_torsion_site_symmetry_4
_geom_torsion_publ_flag
C1 N1 N2 C2 -0.5(3) . . . . ?
Ag1 N1 N2 C2 -172.3(2) . . . . ?
C1 N1 N2 Ag2 171.7(2) . . . 2_666 ?
Ag1 N1 N2 Ag2 0.0(3) . . . 2_666 ?
C5 N4 N5 C6 0.0(3) . . . . ?
Ag1 N4 N5 C6 -179.2(2) . . . . ?
C5 N4 N5 Ag2 -173.9(2) . . . . ?
Ag1 N4 N5 Ag2 6.9(3) . . . . ?
N2 N1 C1 N3 0.5(4) . . . . ?
Ag1 N1 C1 N3 171.1(2) . . . . ?
C2 N3 C1 N1 -0.3(3) . . . . ?
C3 N3 C1 N1 -179.1(3) . . . . ?
N1 N2 C2 N3 0.4(3) . . . . ?
Ag2 N2 C2 N3 -170.43(19) 2_666 . . . ?
C1 N3 C2 N2 -0.1(3) . . . . ?
C3 N3 C2 N2 178.7(3) . . . . ?
C1 N3 C3 C4 -131.2(3) . . . . ?
C2 N3 C3 C4 50.3(4) . . . . ?
Ag2 O1 C4 O2 1.0(4) 2_556 . . . ?
Ag2 O1 C4 C3 179.0(2) 2_556 . . . ?
N3 C3 C4 O2 -2.0(4) . . . . ?
N3 C3 C4 O1 179.9(2) . . . . ?
N5 N4 C5 N6 -0.4(4) . . . . ?
Ag1 N4 C5 N6 178.8(2) . . . . ?
C6 N6 C5 N4 0.7(4) . . . . ?
C7 N6 C5 N4 173.0(3) . . . . ?
N4 N5 C6 N6 0.4(3) . . . . ?
Ag2 N5 C6 N6 174.0(2) . . . . ?
C5 N6 C6 N5 -0.6(4) . . . . ?
C7 N6 C6 N5 -172.7(3) . . . . ?
C5 N6 C7 C8 131.1(3) . . . . ?
C6 N6 C7 C8 -58.4(4) . . . . ?
N6 C7 C8 O4 -3.3(5) . . . . ?
N6 C7 C8 O3 177.7(3) . . . . ?
