#------------------------------------------------------------------------------
#$Date: 2021-12-21 01:35:35 +0200 (Tue, 21 Dec 2021) $
#$Revision: 271547 $
#$URL: file:///home/coder/svn-repositories/cod/cif/7/24/40/7244091.cif $
#------------------------------------------------------------------------------
#
# This file is available in the Crystallography Open Database (COD),
# http://www.crystallography.net/
#
# All data on this site have been placed in the public domain by the
# contributors.
#
data_7244091
loop_
_publ_author_name
'Panikkattu, Vinu V.'
'Sinha, Abhijeet Shekhar'
'Aaker\"oy, Christer'
_publ_section_title
;
 A family of powerful halogen-bond donors: A structural and theoretical
 analysis of triply activated 3-iodo-1-phenylprop-2-yn-1-ones
;
_journal_name_full               CrystEngComm
_journal_paper_doi               10.1039/D1CE01583D
_journal_year                    2022
_chemical_formula_moiety         'C10 H4 I N O'
_chemical_formula_sum            'C10 H4 I N O'
_chemical_formula_weight         281.04
_chemical_name_systematic        4-(3-iodoprop-2-ynoyl)benzonitrile
_space_group_crystal_system      monoclinic
_space_group_IT_number           14
_space_group_name_Hall           '-P 2ybc'
_space_group_name_H-M_alt        'P 1 21/c 1'
_atom_sites_solution_hydrogens   geom
_atom_sites_solution_primary     dual
_audit_creation_date             2021-01-19
_audit_creation_method
;
Olex2 1.3-ac4
(compiled 2020.03.28 svn.rd84adfe8 for Rigaku Oxford Diffraction, GUI svn.r6032)
;
_audit_update_record
;
2021-10-13 deposited with the CCDC.	2021-12-20 downloaded from the CCDC.
;
_cell_angle_alpha                90
_cell_angle_beta                 96.002(4)
_cell_angle_gamma                90
_cell_formula_units_Z            4
_cell_length_a                   4.06532(16)
_cell_length_b                   24.0246(11)
_cell_length_c                   9.7176(4)
_cell_measurement_reflns_used    2956
_cell_measurement_temperature    100.02(19)
_cell_measurement_theta_max      76.3330
_cell_measurement_theta_min      3.6870
_cell_volume                     943.89(7)
_computing_cell_refinement       'CrysAlisPro 1.171.40.84a (Rigaku OD, 2020)'
_computing_data_collection       'CrysAlisPro 1.171.40.84a (Rigaku OD, 2020)'
_computing_data_reduction        'CrysAlisPro 1.171.40.84a (Rigaku OD, 2020)'
_computing_molecular_graphics    'Olex2 1.3-ac4 (Dolomanov et al., 2009)'
_computing_publication_material  'Olex2 1.3-ac4 (Dolomanov et al., 2009)'
_computing_structure_refinement  'SHELXL 2018/3 (Sheldrick, 2015)'
_computing_structure_solution    'SHELXT  (Sheldrick, 2015)'
_diffrn_ambient_environment      N~2~
_diffrn_ambient_temperature      100.02(19)
_diffrn_detector                 'Hybrid Pixel Array Detector'
_diffrn_detector_area_resol_mean 10.0000
_diffrn_detector_type            HyPix
_diffrn_measured_fraction_theta_full 0.999
_diffrn_measured_fraction_theta_max 0.997
_diffrn_measurement_details
;
List of Runs (angles in degrees, time in seconds):

  # Type    Start    End  Width  t~exp~   \w     \q     \k     \f   Frames
#--------------------------------------------------------------------------
  1  \w     -5.00  24.00   0.50    4.76    --   47.95 -11.00-118.00   58
  2  \w     42.00  71.00   0.50   19.03    --  107.75 -61.00-180.00   58
  3  \w     36.00  70.00   0.50   19.03    --  107.75 -61.00-150.00   68
  4  \w    115.00 178.00   0.50   19.03    --  107.75  15.00-120.00  126
  5  \w    103.00 154.00   0.50   19.03    --  107.75 120.00-133.00  102
  6  \w    101.00 161.00   0.50   19.03    --  107.75  11.00  54.00  120
  7  \w     80.00 105.00   0.50   19.03    --  107.75 -77.00 120.00   50
  8  \w     76.00 106.00   0.50   19.03    --  107.75 -94.00  90.00   60
  9  \w     77.00 113.00   0.50   19.03    --  107.75-127.00 174.20   72
 10  \w     44.00  69.00   0.50   19.03    --  107.75-127.00 174.20   50
 11  \w     42.00  68.00   0.50   19.03    --  107.75 -77.00 120.00   52
 12  \w     35.00  60.00   0.50   19.03    --  107.75 -61.00 150.00   50
 13  \w     -3.00  26.00   0.50    4.76    --   47.95 -19.00 150.00   58
 14  \w    -24.00  23.00   0.50    4.76    --  -47.95  19.00 150.00   94
 15  \w   -105.00 -67.00   0.50   19.03    --  -86.25-148.00-109.00   76
 16  \w   -145.00-120.00   0.50   19.03    --  -86.25-148.00-109.00   50
 17  \w    -17.00  23.00   0.50    4.76    --  -47.95  19.00-120.00   80
 18  \w     95.00 128.00   0.50   19.03    --  107.75-148.00-109.00   66
 19  \w     64.00 112.00   0.50   19.03    --  107.75-125.00-180.00   96
 20  \w     54.00  80.00   0.50   19.03    --  107.75-148.00-109.00   52
;
_diffrn_measurement_device       'four-circle diffractometer'
_diffrn_measurement_device_type  'XtaLAB Synergy, Dualflex, HyPix'
_diffrn_measurement_method       '\w scans'
_diffrn_orient_matrix_type
'CrysAlisPro convention (1999,Acta A55,543-557)'
_diffrn_orient_matrix_UB_11      -0.0425778000
_diffrn_orient_matrix_UB_12      -0.0634728000
_diffrn_orient_matrix_UB_13      0.0124730000
_diffrn_orient_matrix_UB_21      -0.0111442000
_diffrn_orient_matrix_UB_22      -0.0056295000
_diffrn_orient_matrix_UB_23      -0.1585904000
_diffrn_orient_matrix_UB_31      0.3787367000
_diffrn_orient_matrix_UB_32      -0.0072755000
_diffrn_orient_matrix_UB_33      0.0134881000
_diffrn_radiation_monochromator  mirror
_diffrn_radiation_probe          x-ray
_diffrn_radiation_type           'Cu K\a'
_diffrn_radiation_wavelength     1.54184
_diffrn_reflns_av_R_equivalents  0.095
_diffrn_reflns_av_unetI/netI     0.0045
_diffrn_reflns_Laue_measured_fraction_full 0.999
_diffrn_reflns_Laue_measured_fraction_max 0.997
_diffrn_reflns_limit_h_max       4
_diffrn_reflns_limit_h_min       -3
_diffrn_reflns_limit_k_max       29
_diffrn_reflns_limit_k_min       -29
_diffrn_reflns_limit_l_max       11
_diffrn_reflns_limit_l_min       -11
_diffrn_reflns_number            2731
_diffrn_reflns_point_group_measured_fraction_full 0.999
_diffrn_reflns_point_group_measured_fraction_max 0.997
_diffrn_reflns_theta_full        67.684
_diffrn_reflns_theta_max         72.120
_diffrn_reflns_theta_min         3.680
_diffrn_source                   'micro-focus sealed X-ray tube'
_diffrn_source_type              'PhotonJet (Cu) X-ray Source'
_exptl_absorpt_coefficient_mu    26.308
_exptl_absorpt_correction_T_max  1.00000
_exptl_absorpt_correction_T_min  0.43858
_exptl_absorpt_correction_type   multi-scan
_exptl_absorpt_process_details
;
CrysAlisPro 1.171.40.84a (Rigaku Oxford Diffraction, 2020)
Empirical absorption correction using spherical harmonics,
implemented in SCALE3 ABSPACK scaling algorithm.
;
_exptl_crystal_colour            'Clear light colourless'
_exptl_crystal_colour_lustre     clear
_exptl_crystal_colour_modifier   light
_exptl_crystal_colour_primary    colourless
_exptl_crystal_density_diffrn    1.978
_exptl_crystal_description       Plate
_exptl_crystal_F_000             528
_exptl_crystal_recrystallization_method
'Re-crystallisation from solvent: Dioxane'
_exptl_crystal_size_max          0.153
_exptl_crystal_size_mid          0.127
_exptl_crystal_size_min          0.036
_refine_diff_density_max         1.532
_refine_diff_density_min         -0.717
_refine_diff_density_rms         0.150
_refine_ls_extinction_method     none
_refine_ls_goodness_of_fit_ref   1.105
_refine_ls_hydrogen_treatment    constr
_refine_ls_matrix_type           full
_refine_ls_number_parameters     119
_refine_ls_number_reflns         2731
_refine_ls_number_restraints     0
_refine_ls_restrained_S_all      1.105
_refine_ls_R_factor_all          0.0434
_refine_ls_R_factor_gt           0.0429
_refine_ls_shift/su_max          0.001
_refine_ls_shift/su_mean         0.000
_refine_ls_structure_factor_coef Fsqd
_refine_ls_weighting_details
'w=1/[\s^2^(Fo^2^)+(0.0947P)^2^+0.7803P] where P=(Fo^2^+2Fc^2^)/3'
_refine_ls_weighting_scheme      calc
_refine_ls_wR_factor_gt          0.1262
_refine_ls_wR_factor_ref         0.1271
_reflns_Friedel_coverage         0.000
_reflns_number_gt                2644
_reflns_number_total             2731
_reflns_threshold_expression     'I > 2\s(I)'
_iucr_refine_instructions_details
;
TITL exp_75_twin1_hklf4_a.res in P2(1)/c
    exp_75_twin1_hklf4.res
    created by SHELXL-2018/3 at 22:22:49 on 18-Jan-2021
REM Old TITL exp_75_twin1_hklf4 in P21/c #14
REM SHELXT solution in P2(1)/c: R1 0.212, Rweak 0.046, Alpha 0.115
REM <I/s> 0.000 for 0 systematic absences, Orientation as input
REM Formula found by SHELXT: C7 N4 O4 I
CELL 1.54184 4.065324 24.024559 9.717558 90 96.0021 90
ZERR 4 0.000158 0.001088 0.000448 0 0.0041 0
LATT 1
SYMM -X,0.5+Y,0.5-Z
SFAC C H I N O
UNIT 40 16 4 4 4

L.S. 4
PLAN  1
CONF
BOND
list 4
fmap 2
acta
MORE -1
BOND $H
MERG 0
SHEL 100 0.81
REM <olex2.extras>
REM <HklSrc "%.\\exp_75all_twin1_hklf5.hkl">
REM </olex2.extras>

WGHT    0.094700    0.780300
BASF   0.45085
FVAR       2.11278
I1    3    0.690372    0.092655    0.590992    11.00000    0.04003    0.03420 =
         0.05103    0.00094   -0.00219    0.00052
C10   1    0.512872    0.166149    0.517068    11.00000    0.04134    0.03379 =
         0.04681   -0.00399   -0.00177   -0.00424
O1    5    0.106428    0.269706    0.323792    11.00000    0.06354    0.04797 =
         0.05172   -0.00753   -0.02181    0.00188
C6    1    0.400528    0.366742    0.438705    11.00000    0.04627    0.04123 =
         0.03906    0.00238   -0.00731    0.00767
AFIX  43
H6    2    0.260063    0.370337    0.357296    11.00000   -1.20000
AFIX   0
C3    1    0.805611    0.355242    0.687351    11.00000    0.03836    0.04184 =
         0.03481    0.00088   -0.00599    0.00439
AFIX  43
H3    2    0.938528    0.351377    0.770687    11.00000   -1.20000
AFIX   0
C5    1    0.548708    0.413442    0.504007    11.00000    0.05572    0.02896 =
         0.04440    0.00548   -0.00372    0.00169
AFIX  43
H5    2    0.515463    0.448442    0.464076    11.00000   -1.20000
AFIX   0
C2    1    0.667870    0.308933    0.622055    11.00000    0.03923    0.03589 =
         0.04001    0.00419   -0.00128    0.00099
AFIX  43
H2    2    0.708829    0.273905    0.660847    11.00000   -1.20000
AFIX   0
C4    1    0.749388    0.407529    0.630893    11.00000    0.04079    0.03708 =
         0.04842   -0.00148    0.00023    0.00019
C9    1    0.417807    0.210266    0.476222    11.00000    0.03921    0.04065 =
         0.04314   -0.00463   -0.00344   -0.00141
C7    1    0.898376    0.456070    0.695805    11.00000    0.05072    0.04412 =
         0.05386   -0.00238    0.00242    0.00460
N1    4    1.022558    0.494138    0.749006    11.00000    0.06087    0.04101 =
         0.07623   -0.01206   -0.00045   -0.00885
C1    1    0.467513    0.314278    0.498209    11.00000    0.03535    0.03491 =
         0.03682   -0.00083   -0.00138   -0.00073
C8    1    0.310187    0.264755    0.423976    11.00000    0.04346    0.04036 =
         0.04329   -0.00432   -0.00329    0.00370
HKLF 5




REM  exp_75_twin1_hklf4_a.res in P2(1)/c
REM wR2 = 0.1271, GooF = S = 1.105, Restrained GooF = 1.105 for all data
REM R1 = 0.0429 for 2644 Fo > 4sig(Fo) and 0.0434 for all 2731 data
REM 119 parameters refined using 0 restraints

END  
     
WGHT      0.0947      0.7806 

REM Highest difference peak  1.532,  deepest hole -0.717,  1-sigma level  0.150
Q1    1   1.1640  0.0927  0.5829  11.00000  0.05    1.53

  REM The information below was added by Olex2.
  REM
  REM R1 = 0.0429 for 2644 Fo > 4sig(Fo) and 0.0434 for all 2932 data
  REM n/a parameters refined using n/a restraints
  REM Highest difference peak 1.53, deepest hole -0.72
  REM Mean Shift 0, Max Shift -0.001.

  REM +++ Tabular Listing of Refinement Information +++
  REM R1_all = 0.0434
  REM R1_gt = 0.0429
  REM wR_ref = 0.1271
  REM GOOF = 1.105
  REM Shift_max = -0.001
  REM Shift_mean = 0
  REM Reflections_all = 2932
  REM Reflections_gt = 2644
  REM Parameters = n/a
  REM Hole = -0.72
  REM Peak = 1.53
  REM Flack = n/a

  
;
_twin_special_details
;
Component 2 rotated by 179.8873\% 
around [0.97 -0.00 -0.24] (reciprocal) or [1.00 -0.00 -0.00] (direct)
;
_cod_data_source_file            d1ce01583d2.cif
_cod_data_source_block           exp_75_twin1_hklf4
_cod_database_code               7244091
_shelx_shelxl_version_number     2018/3
_chemical_oxdiff_formula         'C10 H4 I1 N1 O1'
_shelx_space_group_comment
;
The symmetry employed for this shelxl refinement is uniquely defined
by the following loop, which should always be used as a source of
symmetry information in preference to the above space-group names.
They are only intended as comments.
;
_olex2_refinement_description
;
1. Twinned data refinement
 Scales: 0.5492(18)
 0.4508(18)
2. Fixed Uiso
 At 1.2 times of:
  All C(H) groups
3.a Aromatic/amide H refined with riding coordinates:
 C6(H6), C3(H3), C5(H5), C2(H2)
;
_olex2_date_sample_data_collection 2021-01-17
_olex2_date_sample_submission    2021-01-15
_olex2_exptl_crystal_mounting_method 'mounted on a MiTeGen loop'
_olex2_submission_original_sample_id VP-K1-4CN-3-1
_olex2_submission_special_instructions 'No special instructions were received'
_oxdiff_exptl_absorpt_empirical_details
;
Empirical correction (ABSPACK) includes:
- Absorption correction using spherical harmonics
- Frame scaling
;
_oxdiff_exptl_absorpt_empirical_full_max 1.769
_oxdiff_exptl_absorpt_empirical_full_min 0.651
_oxdiff_twin_integration_method  simultaneous
_oxdiff_twin_items               2
loop_
_space_group_symop_operation_xyz
'x, y, z'
'-x, y+1/2, -z+1/2'
'-x, -y, -z'
'x, -y-1/2, z-1/2'
loop_
_atom_site_label
_atom_site_type_symbol
_atom_site_fract_x
_atom_site_fract_y
_atom_site_fract_z
_atom_site_U_iso_or_equiv
_atom_site_adp_type
_atom_site_occupancy
_atom_site_site_symmetry_order
_atom_site_calc_flag
_atom_site_refinement_flags_posn
_atom_site_refinement_flags_adp
_atom_site_refinement_flags_occupancy
_atom_site_disorder_assembly
_atom_site_disorder_group
I1 I 0.69037(9) 0.09265(2) 0.59099(3) 0.0422(2) Uani 1 1 d . . . . .
C10 C 0.5129(14) 0.1661(2) 0.5171(6) 0.0411(12) Uani 1 1 d . . . . .
O1 O 0.1064(13) 0.26971(19) 0.3238(5) 0.0564(12) Uani 1 1 d . . . . .
C6 C 0.4005(15) 0.3667(2) 0.4387(5) 0.0430(12) Uani 1 1 d . . . . .
H6 H 0.260063 0.370337 0.357296 0.052 Uiso 1 1 calc R U . . .
C3 C 0.8056(14) 0.3552(2) 0.6874(5) 0.0390(11) Uani 1 1 d . . . . .
H3 H 0.938528 0.351377 0.770687 0.047 Uiso 1 1 calc R U . . .
C5 C 0.5487(18) 0.4134(2) 0.5040(6) 0.0437(14) Uani 1 1 d . . . . .
H5 H 0.515463 0.448442 0.464076 0.052 Uiso 1 1 calc R U . . .
C2 C 0.6679(13) 0.3089(2) 0.6221(5) 0.0388(11) Uani 1 1 d . . . . .
H2 H 0.708829 0.273905 0.660847 0.047 Uiso 1 1 calc R U . . .
C4 C 0.7494(17) 0.4075(2) 0.6309(7) 0.0424(13) Uani 1 1 d . . . . .
C9 C 0.4178(15) 0.2103(2) 0.4762(6) 0.0415(12) Uani 1 1 d . . . . .
C7 C 0.8984(17) 0.4561(3) 0.6958(7) 0.0498(14) Uani 1 1 d . . . . .
N1 N 1.0226(15) 0.4941(2) 0.7490(6) 0.0599(14) Uani 1 1 d . . . . .
C1 C 0.4675(13) 0.3143(2) 0.4982(5) 0.0361(10) Uani 1 1 d . . . . .
C8 C 0.3102(14) 0.2648(3) 0.4240(6) 0.0429(13) Uani 1 1 d . . . . .
loop_
_atom_site_aniso_label
_atom_site_aniso_U_11
_atom_site_aniso_U_22
_atom_site_aniso_U_33
_atom_site_aniso_U_23
_atom_site_aniso_U_13
_atom_site_aniso_U_12
I1 0.0400(3) 0.0342(3) 0.0510(3) 0.00094(11) -0.00219(19) 0.00052(11)
C10 0.041(3) 0.034(3) 0.047(3) -0.004(2) -0.002(2) -0.004(2)
O1 0.064(3) 0.048(2) 0.052(2) -0.0075(18) -0.022(2) 0.002(2)
C6 0.046(3) 0.041(3) 0.039(2) 0.002(2) -0.007(2) 0.008(2)
C3 0.038(3) 0.042(3) 0.035(2) 0.001(2) -0.006(2) 0.004(2)
C5 0.056(4) 0.029(3) 0.044(3) 0.0055(19) -0.004(3) 0.002(2)
C2 0.039(3) 0.036(3) 0.040(2) 0.004(2) -0.001(2) 0.001(2)
C4 0.041(4) 0.037(3) 0.048(3) -0.001(2) 0.000(2) 0.000(2)
C9 0.039(3) 0.041(3) 0.043(3) -0.005(2) -0.003(2) -0.001(2)
C7 0.051(4) 0.044(3) 0.054(3) -0.002(2) 0.002(3) 0.005(3)
N1 0.061(3) 0.041(3) 0.076(3) -0.012(2) 0.000(3) -0.009(2)
C1 0.035(3) 0.035(2) 0.037(2) -0.0008(17) -0.0014(19) -0.001(2)
C8 0.043(3) 0.040(3) 0.043(3) -0.004(2) -0.003(2) 0.004(2)
loop_
_atom_type_symbol
_atom_type_description
_atom_type_scat_dispersion_real
_atom_type_scat_dispersion_imag
_atom_type_scat_source
C C 0.0181 0.0091 'International Tables Vol C Tables 4.2.6.8 and 6.1.1.4'
H H 0.0000 0.0000 'International Tables Vol C Tables 4.2.6.8 and 6.1.1.4'
I I -0.3257 6.8362 'International Tables Vol C Tables 4.2.6.8 and 6.1.1.4'
N N 0.0311 0.0180 'International Tables Vol C Tables 4.2.6.8 and 6.1.1.4'
O O 0.0492 0.0322 'International Tables Vol C Tables 4.2.6.8 and 6.1.1.4'
loop_
_diffrn_refln_index_h
_diffrn_refln_index_k
_diffrn_refln_index_l
_diffrn_refln_intensity_net
_diffrn_refln_intensity_u
_diffrn_refln_scale_group_code
0 0 2 69908.2 148.504 -2
0 0 -2 69908.2 148.504 1
0 0 4 16721.3 80.3474 -2
0 0 -4 16721.3 80.3474 1
0 0 -6 20918.6 98.1053 -2
0 0 6 20918.6 98.1053 1
0 0 -8 127.323 10.1884 -2
0 0 8 127.323 10.1884 1
0 0 10 7774.07 58.4215 -2
0 0 -10 7774.07 58.4215 1
0 0 -12 1879.59 19.7378 -2
0 0 12 1879.59 19.7378 1
0 -1 1 33851.2 51.0148 -2
0 1 -1 33851.2 51.0148 1
0 1 -2 38067.3 71.8748 -2
0 -1 2 38067.3 71.8748 1
0 1 3 611.937 12.1856 -2
0 -1 -3 611.937 12.1856 1
0 1 4 8362.31 43.5768 -2
0 -1 -4 8362.31 43.5768 1
0 -1 -5 52563.8 117.191 -2
0 1 5 52563.8 117.191 1
0 -1 -6 4618.31 34.5624 -2
0 1 6 4618.31 34.5624 1
0 1 7 9639.76 34.8365 -2
0 -1 -7 9639.76 34.8365 1
0 -1 8 6360.32 31.1556 -2
0 1 -8 6360.32 31.1556 1
0 -1 -9 1155.38 15.0122 -2
0 1 9 1155.38 15.0122 1
0 1 10 76.4058 8.60498 -2
0 -1 -10 76.4058 8.60498 1
0 1 11 2480.07 22.7273 -2
0 -1 -11 2480.07 22.7273 1
0 -1 -12 346.706 9.27145 -2
0 1 12 346.706 9.27145 1
0 2 0 2226.96 10.1548 -2
0 -2 0 2226.96 10.1548 1
0 2 1 16909.5 30.7223 -2
0 -2 -1 16909.5 30.7223 1
0 -2 -2 3796.78 21.0474 -2
0 2 2 3796.78 21.0474 1
0 2 -3 135180 159.595 -2
0 -2 3 135180 159.595 1
0 -2 4 2273.3 24.0814 -2
0 2 -4 2273.3 24.0814 1
0 -2 5 14436.9 56.9007 -2
0 2 -5 14436.9 56.9007 1
0 2 6 12358.6 56.26 -2
0 -2 -6 12358.6 56.26 1
0 2 -7 11278.3 35.3119 -2
0 -2 7 11278.3 35.3119 1
0 -2 -8 21.4622 6.25896 -2
0 2 8 21.4622 6.25896 1
0 -2 -9 8504.64 35.3538 -2
0 2 9 8504.64 35.3538 1
0 -2 10 477.876 12.5453 -2
0 2 -10 477.876 12.5453 1
0 2 -11 131.409 9.86461 -2
0 -2 11 131.409 9.86461 1
0 2 -12 115.47 7.08826 -2
0 -2 12 115.47 7.08826 1
0 3 -1 110.002 5.11989 -2
0 -3 1 110.002 5.11989 1
0 -3 -2 220168 145.466 -2
0 3 2 220168 145.466 1
0 -3 3 3576.99 22.4817 -2
0 3 -3 3576.99 22.4817 1
0 3 4 33258.5 76.4747 -2
0 -3 -4 33258.5 76.4747 1
0 3 5 466.432 12.028 -2
0 -3 -5 466.432 12.028 1
0 3 6 1070.18 19.2383 -2
0 -3 -6 1070.18 19.2383 1
0 -3 7 361.635 8.6124 -2
0 3 -7 361.635 8.6124 1
0 -3 -8 15623.2 48.4219 -2
0 3 8 15623.2 48.4219 1
0 -3 -9 123.032 7.94423 -2
0 3 9 123.032 7.94423 1
0 3 10 2323.75 23.6298 -2
0 -3 -10 2323.75 23.6298 1
0 3 11 56.4844 8.30128 -2
0 -3 -11 56.4844 8.30128 1
0 3 12 1016.49 10.8198 -2
0 -3 -12 1016.49 10.8198 1
0 4 0 72733.2 105.176 -2
0 -4 0 72733.2 105.176 1
0 -4 -1 12722.6 33.4897 -2
0 4 1 12722.6 33.4897 1
0 -4 -2 43986.4 65.778 -2
0 4 2 43986.4 65.778 1
0 4 -3 65983.6 92.7661 -2
0 -4 3 65983.6 92.7661 1
0 -4 4 19159.7 60.1686 -2
0 4 -4 19159.7 60.1686 1
0 4 -5 2098.47 23.5518 -2
0 -4 5 2098.47 23.5518 1
0 -4 6 13389.8 56.9426 -2
0 4 -6 13389.8 56.9426 1
0 4 -7 10661.9 38.4066 -2
0 -4 7 10661.9 38.4066 1
0 4 8 83.4077 7.10857 -2
0 -4 -8 83.4077 7.10857 1
0 -4 9 4313.65 30.7647 -2
0 4 -9 4313.65 30.7647 1
0 4 10 2707.14 35.5773 -2
0 -4 -10 2707.14 35.5773 1
0 4 -11 14.5653 9.58966 -2
0 -4 11 14.5653 9.58966 1
0 4 12 380.461 11.106 -2
0 -4 -12 380.461 11.106 1
0 5 -1 84709.4 93.6929 -2
0 -5 1 84709.4 93.6929 1
0 5 2 836.173 12.4882 -2
0 -5 -2 836.173 12.4882 1
0 -5 -3 13092.2 42.7113 -2
0 5 3 13092.2 42.7113 1
0 -5 -4 3563.25 27.3382 -2
0 5 4 3563.25 27.3382 1
0 -5 5 55240.3 116.056 -2
0 5 -5 55240.3 116.056 1
0 5 -6 546.687 8.72095 -2
0 -5 6 546.687 8.72095 1
0 5 -7 13279.3 41.2303 -2
0 -5 7 13279.3 41.2303 1
0 -5 -8 1465.51 15.5102 -2
0 5 8 1465.51 15.5102 1
0 5 -9 1717.1 18.6654 -2
0 -5 9 1717.1 18.6654 1
0 5 -10 29.4289 11.9827 -2
0 -5 10 29.4289 11.9827 1
0 5 -11 4184.16 38.5479 -2
0 -5 11 4184.16 38.5479 1
0 -6 0 117030 145.386 -2
0 6 0 117030 145.386 1
0 -6 1 7602.17 30.024 -2
0 6 -1 7602.17 30.024 1
0 6 2 27795.7 60.7256 -2
0 -6 -2 27795.7 60.7256 1
0 6 -3 19978.4 55.0841 -2
0 -6 3 19978.4 55.0841 1
0 6 4 53407.3 101.49 -2
0 -6 -4 53407.3 101.49 1
0 -6 -5 3090.76 29.4546 -2
0 6 5 3090.76 29.4546 1
0 6 -6 27176.9 56.2256 -2
0 -6 6 27176.9 56.2256 1
0 -6 7 1867.35 16.1028 -2
0 6 -7 1867.35 16.1028 1
0 -6 -8 959.804 13.4891 -2
0 6 8 959.804 13.4891 1
0 -6 -9 349.716 12.8208 -2
0 6 9 349.716 12.8208 1
0 6 10 3651.56 42.5765 -2
0 -6 -10 3651.56 42.5765 1
0 6 11 45.3945 7.44379 -2
0 -6 -11 45.3945 7.44379 1
0 7 1 18443.3 52.5549 -2
0 -7 -1 18443.3 52.5549 1
0 7 -2 31579.9 68.893 -2
0 -7 2 31579.9 68.893 1
0 7 -3 37.0965 7.04434 -2
0 -7 3 37.0965 7.04434 1
0 -7 4 29111.2 77.727 -2
0 7 -4 29111.2 77.727 1
0 -7 -5 16987 65.566 -2
0 7 5 16987 65.566 1
0 7 -6 3915.31 21.8413 -2
0 -7 6 3915.31 21.8413 1
0 -7 7 6564.28 29.1769 -2
0 7 -7 6564.28 29.1769 1
0 -7 8 9909 46.0517 -2
0 7 -8 9909 46.0517 1
0 7 9 108.768 11.0331 -2
0 -7 -9 108.768 11.0331 1
0 7 10 648.435 20.6276 -2
0 -7 -10 648.435 20.6276 1
0 7 -11 978.874 14.4393 -2
0 -7 11 978.874 14.4393 1
0 -8 0 76.3153 10.413 -2
0 8 0 76.3153 10.413 1
0 -8 1 66588.6 100.294 -2
0 8 -1 66588.6 100.294 1
0 8 -2 10331.7 42.3623 -2
0 -8 2 10331.7 42.3623 1
0 -8 -3 48349.3 87.235 -2
0 8 3 48349.3 87.235 1
0 -8 -4 61.3819 8.42177 -2
0 8 4 61.3819 8.42177 1
0 8 -5 2008.67 24.2597 -2
0 -8 5 2008.67 24.2597 1
0 8 -6 922.254 11.6666 -2
0 -8 6 922.254 11.6666 1
0 -8 7 11361.7 43.6632 -2
0 8 -7 11361.7 43.6632 1
0 -8 -8 1358.56 17.6254 -2
0 8 8 1358.56 17.6254 1
0 8 9 15073.6 63.9322 -2
0 -8 -9 15073.6 63.9322 1
0 8 10 402.351 13.5522 -2
0 -8 -10 402.351 13.5522 1
0 8 11 62.8446 5.69294 -2
0 -8 -11 62.8446 5.69294 1
0 -9 -1 11187.2 44.7227 -2
0 9 1 11187.2 44.7227 1
0 -9 2 101987 160.061 -2
0 9 -2 101987 160.061 1
0 9 -3 16.7836 6.8317 -2
0 -9 3 16.7836 6.8317 1
0 9 4 40381.3 93.2086 -2
0 -9 -4 40381.3 93.2086 1
0 9 -5 7927.67 47.4774 -2
0 -9 5 7927.67 47.4774 1
0 9 -6 4932.23 27.4549 -2
0 -9 6 4932.23 27.4549 1
0 9 -7 2342.79 21.2967 -2
0 -9 7 2342.79 21.2967 1
0 -9 8 11018.4 47.2445 -2
0 9 -8 11018.4 47.2445 1
0 -9 -9 798.12 17.4775 -2
0 9 9 798.12 17.4775 1
0 9 -10 918.303 17.6698 -2
0 -9 10 918.303 17.6698 1
0 9 11 706.799 10.1427 -2
0 -9 -11 706.799 10.1427 1
0 -10 0 97710.1 197.208 -2
0 10 0 97710.1 197.208 1
0 10 1 1610.65 18.1703 -2
0 -10 -1 1610.65 18.1703 1
0 10 -2 21457.9 72.9413 -2
0 -10 2 21457.9 72.9413 1
0 10 -3 4794.57 34.1464 -2
0 -10 3 4794.57 34.1464 1
0 -10 4 15416.6 48.4657 -2
0 10 -4 15416.6 48.4657 1
0 -10 -5 1732.65 19.726 -2
0 10 5 1732.65 19.726 1
0 -10 -6 21364.2 59.6931 -2
0 10 6 21364.2 59.6931 1
0 -10 7 1883.44 19.3019 -2
0 10 -7 1883.44 19.3019 1
0 10 -8 1366.91 19.2281 -2
0 -10 8 1366.91 19.2281 1
0 10 9 733.804 14.1201 -2
0 -10 -9 733.804 14.1201 1
0 10 10 2658.4 21.3125 -2
0 -10 -10 2658.4 21.3125 1
0 10 11 84.5434 7.22998 -2
0 -10 -11 84.5434 7.22998 1
0 11 1 60992.9 105.218 -2
0 -11 -1 60992.9 105.218 1
0 11 2 1754.64 25.2555 -2
0 -11 -2 1754.64 25.2555 1
0 11 3 9231.71 51.5036 -2
0 -11 -3 9231.71 51.5036 1
0 11 4 234.189 9.13966 -2
0 -11 -4 234.189 9.13966 1
0 -11 -5 27142 77.699 -2
0 11 5 27142 77.699 1
0 -11 -6 1066.16 19.1272 -2
0 11 6 1066.16 19.1272 1
0 11 -7 18378.3 58.4094 -2
0 -11 7 18378.3 58.4094 1
0 11 -8 656.744 13.0567 -2
0 -11 8 656.744 13.0567 1
0 -11 -9 109.421 8.36993 -2
0 11 9 109.421 8.36993 1
0 11 10 103.771 9.68966 -2
0 -11 -10 103.771 9.68966 1
0 11 11 3090.18 23.3174 -2
0 -11 -11 3090.18 23.3174 1
0 12 0 61872.3 178.044 -2
0 -12 0 61872.3 178.044 1
0 -12 -1 2639.63 26.3623 -2
0 12 1 2639.63 26.3623 1
0 -12 -2 8581.23 51.2314 -2
0 12 2 8581.23 51.2314 1
0 12 -3 12553.9 62.0855 -2
0 -12 3 12553.9 62.0855 1
0 12 -4 8044.7 36.9912 -2
0 -12 4 8044.7 36.9912 1
0 12 5 1274.97 22.9381 -2
0 -12 -5 1274.97 22.9381 1
0 -12 -6 12303 72.5148 -2
0 12 6 12303 72.5148 1
0 -12 -7 2630.34 21.3603 -2
0 12 7 2630.34 21.3603 1
0 -12 -8 231.693 10.3533 -2
0 12 8 231.693 10.3533 1
0 12 9 2621.67 22.3004 -2
0 -12 -9 2621.67 22.3004 1
0 12 10 1914.33 24.4622 -2
0 -12 -10 1914.33 24.4622 1
0 12 11 50.1585 7.16928 -2
0 -12 -11 50.1585 7.16928 1
0 13 -1 3764.75 32.6377 -2
0 -13 1 3764.75 32.6377 1
0 -13 -2 60629.6 151.457 -2
0 13 2 60629.6 151.457 1
0 13 -3 313.23 13.4359 -2
0 -13 3 313.23 13.4359 1
0 13 -4 33127.3 61.7907 -2
0 -13 4 33127.3 61.7907 1
0 13 5 2572.02 26.6804 -2
0 -13 -5 2572.02 26.6804 1
0 -13 -6 1686.89 24.0716 -2
0 13 6 1686.89 24.0716 1
0 -13 -7 195.299 9.49808 -2
0 13 7 195.299 9.49808 1
0 -13 -8 6659.56 40.3147 -2
0 13 8 6659.56 40.3147 1
0 -13 -9 563.741 14.9892 -2
0 13 9 563.741 14.9892 1
0 13 10 407.568 11.2267 -2
0 -13 -10 407.568 11.2267 1
0 13 11 65.102 5.90353 -2
0 -13 -11 65.102 5.90353 1
0 14 0 2847.63 44.4839 -2
0 -14 0 2847.63 44.4839 1
0 -14 1 22462.6 81.7372 -2
0 14 -1 22462.6 81.7372 1
0 -14 -2 2572.94 31.2137 -2
0 14 2 2572.94 31.2137 1
0 14 3 45775.6 93.9365 -2
0 -14 -3 45775.6 93.9365 1
0 14 4 3036.62 20.4819 -2
0 -14 -4 3036.62 20.4819 1
0 -14 -5 1297.21 20.8935 -2
0 14 5 1297.21 20.8935 1
0 -14 6 943.69 19.3291 -2
0 14 -6 943.69 19.3291 1
0 -14 -7 5660.99 38.2632 -2
0 14 7 5660.99 38.2632 1
0 -14 -8 101.965 9.21543 -2
0 14 8 101.965 9.21543 1
0 -14 9 5881.5 39.4535 -2
0 14 -9 5881.5 39.4535 1
0 14 -10 405.667 10.3413 -2
0 -14 10 405.667 10.3413 1
0 -15 1 22443.3 90.9255 -2
0 15 -1 22443.3 90.9255 1
0 15 -2 16287 66.7394 -2
0 -15 2 16287 66.7394 1
0 -15 -3 47.5251 7.38301 -2
0 15 3 47.5251 7.38301 1
0 15 -4 8646.53 36.7762 -2
0 -15 4 8646.53 36.7762 1
0 -15 -5 14687.8 68.4359 -2
0 15 5 14687.8 68.4359 1
0 -15 -6 750.546 15.9912 -2
0 15 6 750.546 15.9912 1
0 -15 -7 2949.26 29.0905 -2
0 15 7 2949.26 29.0905 1
0 -15 -8 3126.8 30.1704 -2
0 15 8 3126.8 30.1704 1
0 -15 -9 814.763 14.7541 -2
0 15 9 814.763 14.7541 1
0 15 10 546.223 13.2924 -2
0 -15 -10 546.223 13.2924 1
0 -16 0 55345.9 206.584 -2
0 16 0 55345.9 206.584 1
0 -16 -1 526.377 15.1686 -2
0 16 1 526.377 15.1686 1
0 16 -2 8315.99 44.1679 -2
0 -16 2 8315.99 44.1679 1
0 16 3 227.757 8.51132 -2
0 -16 -3 227.757 8.51132 1
0 16 -4 13942.9 42.7678 -2
0 -16 4 13942.9 42.7678 1
0 16 -5 21.1712 8.88657 -2
0 -16 5 21.1712 8.88657 1
0 -16 -6 10154.3 51.5709 -2
0 16 6 10154.3 51.5709 1
0 -16 -7 303.595 16.5255 -2
0 16 7 303.595 16.5255 1
0 -16 -8 233.555 11.7868 -2
0 16 8 233.555 11.7868 1
0 16 -9 138.514 8.21075 -2
0 -16 9 138.514 8.21075 1
0 16 10 2599.81 22.0405 -2
0 -16 -10 2599.81 22.0405 1
0 -17 -1 26740.4 77.59 -2
0 17 1 26740.4 77.59 1
0 17 -2 7195.67 39.7835 -2
0 -17 2 7195.67 39.7835 1
0 17 -3 424.678 10.3797 -2
0 -17 3 424.678 10.3797 1
0 17 -4 3656.38 23.3681 -2
0 -17 4 3656.38 23.3681 1
0 17 -5 15625.6 65.8516 -2
0 -17 5 15625.6 65.8516 1
0 17 -6 36.7503 10.7133 -2
0 -17 6 36.7503 10.7133 1
0 -17 -7 4443.51 46.1774 -2
0 17 7 4443.51 46.1774 1
0 17 -8 1464.8 25.7216 -2
0 -17 8 1464.8 25.7216 1
0 -17 -9 324.738 11.8822 -2
0 17 9 324.738 11.8822 1
0 17 -10 159.449 6.61972 -2
0 -17 10 159.449 6.61972 1
0 -18 0 12967.3 124.952 -2
0 18 0 12967.3 124.952 1
0 18 -1 3550.57 30.3571 -2
0 -18 1 3550.57 30.3571 1
0 -18 2 3713.5 25.1043 -2
0 18 -2 3713.5 25.1043 1
0 -18 -3 17887.4 54.7816 -2
0 18 3 17887.4 54.7816 1
0 -18 -4 4301.53 24.6688 -2
0 18 4 4301.53 24.6688 1
0 -18 -5 1069.91 19.9726 -2
0 18 5 1069.91 19.9726 1
0 18 -6 2653.29 33.4031 -2
0 -18 6 2653.29 33.4031 1
0 -18 -7 6945.52 48.5512 -2
0 18 7 6945.52 48.5512 1
0 18 -8 18.5109 9.78039 -2
0 -18 8 18.5109 9.78039 1
0 -18 9 1733.49 20.1962 -2
0 18 -9 1733.49 20.1962 1
0 19 -1 4954.52 35.797 -2
0 -19 1 4954.52 35.797 1
0 -19 2 40336.3 80.4027 -2
0 19 -2 40336.3 80.4027 1
0 -19 3 445.908 11.8735 -2
0 19 -3 445.908 11.8735 1
0 -19 -4 7853.11 35.3501 -2
0 19 4 7853.11 35.3501 1
0 19 -5 12.4131 8.81248 -2
0 -19 5 12.4131 8.81248 1
0 -19 6 1145.66 20.7364 -2
0 19 -6 1145.66 20.7364 1
0 -19 -7 74.6856 10.9507 -2
0 19 7 74.6856 10.9507 1
0 -19 -8 6638.03 64.4328 -2
0 19 8 6638.03 64.4328 1
0 -19 9 39.492 6.61085 -2
0 19 -9 39.492 6.61085 1
0 -20 0 13973.6 98.3287 -2
0 20 0 13973.6 98.3287 1
0 -20 -1 4930.54 36.3034 -2
0 20 1 4930.54 36.3034 1
0 -20 -2 370.734 11.5407 -2
0 20 2 370.734 11.5407 1
0 -20 -3 15513.8 52.8605 -2
0 20 3 15513.8 52.8605 1
0 20 -4 3446.77 24.3654 -2
0 -20 4 3446.77 24.3654 1
0 20 -5 2210.74 27.7862 -2
0 -20 5 2210.74 27.7862 1
0 20 6 3973.9 29.1587 -2
0 -20 -6 3973.9 29.1587 1
0 20 7 2358.37 26.1257 -2
0 -20 -7 2358.37 26.1257 1
0 -20 -8 -3.17564 9.89918 -2
0 20 8 -3.17564 9.89918 1
0 -20 -9 1887.16 19.0518 -2
0 20 9 1887.16 19.0518 1
0 21 1 4906.3 36.6515 -2
0 -21 -1 4906.3 36.6515 1
0 -21 2 1375.66 19.5736 -2
0 21 -2 1375.66 19.5736 1
0 -21 3 279.055 11.0024 -2
0 21 -3 279.055 11.0024 1
0 21 -4 1018.48 17.9402 -2
0 -21 4 1018.48 17.9402 1
0 -21 -5 15019.4 77.8395 -2
0 21 5 15019.4 77.8395 1
0 21 6 121.705 9.30322 -2
0 -21 -6 121.705 9.30322 1
0 21 7 3231.47 28.245 -2
0 -21 -7 3231.47 28.245 1
0 21 8 442.802 10.0929 -2
0 -21 -8 442.802 10.0929 1
0 -22 0 41052.5 147.739 -2
0 22 0 41052.5 147.739 1
0 -22 -1 53.5522 11.388 -2
0 22 1 53.5522 11.388 1
0 -22 -2 2466.25 25.0203 -2
0 22 2 2466.25 25.0203 1
0 22 3 1617.43 24.8831 -2
0 -22 -3 1617.43 24.8831 1
0 22 4 6528 37.8504 -2
0 -22 -4 6528 37.8504 1
0 -22 5 69.6313 12.2117 -2
0 22 -5 69.6313 12.2117 1
0 22 6 6480.92 37.1478 -2
0 -22 -6 6480.92 37.1478 1
0 22 7 88.0156 7.5988 -2
0 -22 -7 88.0156 7.5988 1
0 -22 8 91.2585 5.45026 -2
0 22 -8 91.2585 5.45026 1
0 -23 -1 6526.39 54.0075 -2
0 23 1 6526.39 54.0075 1
0 23 2 9587.05 61.8381 -2
0 -23 -2 9587.05 61.8381 1
0 23 3 174.084 11.2049 -2
0 -23 -3 174.084 11.2049 1
0 -23 -4 3235.98 34.0006 -2
0 23 4 3235.98 34.0006 1
0 -23 5 5211.87 51.8081 -2
0 23 -5 5211.87 51.8081 1
0 -23 6 691.027 14.5282 -2
0 23 -6 691.027 14.5282 1
0 -23 -7 970.877 13.8161 -2
0 23 7 970.877 13.8161 1
0 24 0 683.379 25.8678 -2
0 -24 0 683.379 25.8678 1
0 24 1 3477.97 47.3043 -2
0 -24 -1 3477.97 47.3043 1
0 24 2 523.911 19.2321 -2
0 -24 -2 523.911 19.2321 1
0 24 3 14892.6 68.0122 -2
0 -24 -3 14892.6 68.0122 1
0 24 -4 181.136 11.808 -2
0 -24 4 181.136 11.808 1
0 -24 5 590.182 14.3406 -2
0 24 -5 590.182 14.3406 1
0 -24 6 174.646 8.56181 -2
0 24 -6 174.646 8.56181 1
0 24 7 2212.66 18.4169 -2
0 -24 -7 2212.66 18.4169 1
0 25 1 1594.2 23.7082 -2
0 -25 -1 1594.2 23.7082 1
0 25 -2 10913 61.2116 -2
0 -25 2 10913 61.2116 1
0 -25 -3 133.591 11.1842 -2
0 25 3 133.591 11.1842 1
0 -25 -4 3768.77 54.673 -2
0 25 4 3768.77 54.673 1
0 25 5 1271.22 19.3934 -2
0 -25 -5 1271.22 19.3934 1
0 -25 -6 345.531 9.80615 -2
0 25 6 345.531 9.80615 1
0 26 0 7874.73 63.5066 -2
0 -26 0 7874.73 63.5066 1
0 26 1 906.319 17.8106 -2
0 -26 -1 906.319 17.8106 1
0 26 2 2915.4 26.3175 -2
0 -26 -2 2915.4 26.3175 1
0 -26 -3 4026.89 31.285 -2
0 26 3 4026.89 31.285 1
0 -26 -4 2160.57 38.3884 -2
0 26 4 2160.57 38.3884 1
0 -26 -5 187.062 8.3988 -2
0 26 5 187.062 8.3988 1
0 -26 -6 2764.75 29.3599 -2
0 26 6 2764.75 29.3599 1
0 27 1 8614.97 42.1409 -2
0 -27 -1 8614.97 42.1409 1
0 27 -2 21.457 7.82026 -2
0 -27 2 21.457 7.82026 1
0 -27 -3 101.125 14.1026 -2
0 27 3 101.125 14.1026 1
0 27 -4 58.6176 6.69722 -2
0 -27 4 58.6176 6.69722 1
0 -27 -5 2517.07 21.7563 -2
0 27 5 2517.07 21.7563 1
0 28 0 8535.77 54.6418 -2
0 -28 0 8535.77 54.6418 1
0 28 1 1782.35 16.5659 -2
0 -28 -1 1782.35 16.5659 1
0 -28 -2 1676.4 33.0461 -2
0 28 2 1676.4 33.0461 1
0 -28 -3 2128.87 33.2766 -2
0 28 3 2128.87 33.2766 1
0 -28 -4 2272.26 21.4032 -2
0 28 4 2272.26 21.4032 1
0 -29 -1 175.277 10.6449 -2
0 29 1 175.277 10.6449 1
0 -29 -2 3619.14 39.4776 -2
0 29 2 3619.14 39.4776 1
0 -29 -3 82.1702 8.61173 -2
0 29 3 82.1702 8.61173 1
0 -30 0 275.628 12.3662 -2
0 30 0 275.628 12.3662 1
0 -30 -1 1957.8 18.0022 -2
0 30 1 1957.8 18.0022 1
-1 0 12 826.096 10.7204 1
1 0 -10 26.0312 12.5964 1
1 0 -8 4869.62 32.5676 1
1 0 -6 3748.93 54.8359 1
1 0 -4 15301.2 72.9679 1
1 0 -2 346346 180.756 1
1 0 0 31332.5 78.0846 1
-1 0 -2 12810.2 38.8825 1
-1 0 -4 17640.8 57.7067 1
1 0 6 56.4802 5.26789 1
1 0 8 8640.91 31.8917 1
1 0 10 2325.99 18.0019 1
-1 1 12 6.59104 4.96008 1
1 1 -11 129.707 12.5421 1
1 -1 -10 873.727 13.7043 1
1 -1 -9 1865.58 14.2504 1
1 1 -8 436.411 7.9533 1
-1 1 7 10313.8 24.7667 1
1 -1 -6 1926.26 25.9466 1
-1 -1 5 195.883 12.3537 1
1 1 -4 8866.11 34.9215 1
-1 1 3 15030.1 37.2178 1
-1 1 2 1234.26 9.54218 1
-1 -1 1 11765.2 27.8846 1
1 1 0 17816.1 34.7003 1
1 -1 1 83.1871 3.74972 1
-1 -1 -2 6025.49 21.4551 1
-1 1 -3 38833.6 52.925 1
1 -1 4 6307.37 26.7823 1
-1 -1 -5 7798.43 42.5628 1
-1 -1 -6 6182.08 17.1428 1
-1 -1 -7 1578.48 11.2902 1
1 -1 8 106.471 4.74692 1
-1 -1 -9 2828.81 15.8163 1
1 -1 10 444.691 7.2857 1
1 1 11 195.534 9.25384 1
1 2 -12 80.8563 5.48619 1
1 2 -11 1416.55 26.1004 1
1 2 -10 12.1135 6.75097 1
1 2 -9 2049.4 18.1736 1
-1 -2 8 2445.36 14.8071 1
1 2 -7 3028.78 14.1673 1
1 2 -6 772.603 12.559 1
1 -2 -5 32166.1 99.3561 1
1 2 -4 205.951 8.6439 1
-1 -2 3 5253.65 22.1923 1
1 -2 -2 1675.91 10.4366 1
-1 -2 1 9696.5 45.8672 1
1 -2 0 2102.9 17.0984 1
-1 -2 -1 60892.4 50.2217 1
1 -2 2 1379.77 12.5906 1
1 -2 3 8450.44 32.6395 1
-1 2 -4 9378.45 43.5498 1
-1 2 -5 9875.17 46.9123 1
-1 2 -6 106.983 4.12468 1
1 2 7 8183.73 21.0219 1
1 2 8 408.642 6.8754 1
-1 -2 -9 52.5538 4.45009 1
-1 -2 -10 142.787 5.49159 1
1 2 11 907.218 11.8312 1
1 -3 -12 254.181 5.40089 1
-1 -3 11 5.19996 5.22103 1
1 -3 -10 2516.56 18.1373 1
-1 -3 9 83.0537 6.63366 1
1 -3 -8 227.604 5.77881 1
1 -3 -7 192.782 5.08226 1
1 -3 -6 8452.67 25.9797 1
1 -3 -5 412.471 14.6431 1
1 3 -4 43435.7 80.3737 1
-1 -3 3 776.411 8.04605 1
-1 3 2 1946.29 14.6336 1
-1 3 1 694.279 10.5212 1
1 3 0 121538 98.6645 1
1 3 1 1526.35 9.47486 1
1 -3 2 21003.3 40.75 1
1 -3 3 313.25 7.32766 1
-1 3 -4 1048.98 16.2597 1
-1 -3 -5 255.866 10.3073 1
1 -3 6 14748.6 24.9092 1
1 -3 7 162.348 4.46577 1
-1 3 -8 2229.48 12.9473 1
-1 3 -9 39.3703 4.23036 1
1 -3 10 1692.34 11.2998 1
1 3 11 5.15642 5.12036 1
1 -4 -12 273.148 5.15467 1
-1 -4 11 600.44 9.21907 1
1 -4 -10 33.1863 5.94638 1
1 -4 -9 1586.38 14.7691 1
1 4 -8 3419.73 16.6125 1
-1 4 7 698.767 8.57158 1
1 -4 -6 3222.74 16.6279 1
-1 -4 5 13767.9 51.9076 1
1 4 -4 7478.02 30.8288 1
1 -4 -3 4552.47 17.4475 1
-1 -4 2 26323 58.6333 1
1 4 -1 4117.11 16.4669 1
1 -4 0 24426.6 27.1536 1
1 4 1 42754.9 54.1594 1
1 4 2 17741.1 38.4138 1
1 4 3 1135.64 12.9596 1
1 4 4 9170.51 33.0596 1
-1 4 -5 11390.5 46.7794 1
-1 -4 -6 13.6758 3.22583 1
1 -4 7 4328.2 16.5677 1
-1 4 -8 2525.3 13.1055 1
-1 -4 -9 7.07601 4.86617 1
-1 -4 -10 597.326 8.20947 1
-1 -4 -11 585.113 8.08542 1
1 -5 -11 177.75 6.24468 1
1 5 -10 253.103 7.3316 1
-1 5 9 2462.83 21.7565 1
1 -5 -8 141.977 6.22628 1
-1 -5 7 11582.1 33.2008 1
1 -5 -6 532.185 7.90822 1
-1 -5 5 1810.72 19.8344 1
-1 5 4 497.69 9.58288 1
1 5 -3 30932.5 67.8503 1
-1 5 2 89.2584 7.30234 1
-1 5 1 31582.3 37.0095 1
1 5 0 453.317 4.3626 1
-1 5 -1 7671.06 22.5945 1
-1 -5 -2 3526.66 15.9691 1
-1 -5 -3 46619.9 83.3451 1
1 -5 4 318.798 7.86565 1
-1 -5 -5 11416.3 44.2449 1
-1 5 -6 1213.28 7.99122 1
-1 5 -7 2341.21 11.7196 1
1 -5 8 5.58428 4.29298 1
1 -5 9 5972.2 23.1824 1
1 5 10 13.2814 4.7121 1
1 -5 11 116.205 5.63345 1
-1 6 12 311.044 11.857 1
1 6 -11 58.8821 4.96225 1
-1 -6 10 172.887 6.21591 1
1 -6 -9 262.151 7.0551 1
-1 6 8 6154.53 23.3724 1
1 -6 -7 508.099 9.32134 1
-1 -6 6 10652.9 33.6863 1
-1 -6 5 4917.65 38.189 1
-1 -6 4 10675.6 50.9729 1
-1 -6 3 2600.88 20.1591 1
-1 6 2 46860.6 70.1595 1
1 -6 -1 2610.77 12.5335 1
1 -6 0 6932.36 16.71 1
1 6 1 12282.7 32.4565 1
1 6 2 41338.2 60.9669 1
-1 6 -3 3040.21 21.7617 1
1 6 4 22097 51.9759 1
-1 -6 -5 2187.57 18.7302 1
1 -6 6 743.636 6.91875 1
1 -6 7 387.828 6.301 1
1 -6 8 5105.15 19.0534 1
-1 6 -9 59.0035 5.15987 1
-1 -6 -10 1344.67 12.1734 1
-1 -6 -11 27.0828 7.46955 1
1 -7 -11 28.1293 4.64291 1
1 -7 -10 1896.15 13.2584 1
1 7 -9 1584.55 13.1227 1
-1 -7 8 739.517 9.63431 1
-1 -7 7 3711.96 23.4113 1
-1 -7 6 6898.15 28.952 1
-1 -7 5 20.7135 8.63936 1
-1 -7 4 9439.73 42.8625 1
-1 -7 3 6193.11 30.2005 1
-1 -7 2 272.112 6.72977 1
-1 7 1 8326 22.6966 1
-1 -7 0 21001.1 31.3425 1
1 7 1 124.565 6.04569 1
1 7 2 19759.3 49.1385 1
-1 -7 -3 13846.3 47.074 1
-1 7 -4 3983.16 28.0912 1
-1 7 -5 4379.01 21.7323 1
1 7 6 8018.46 19.9905 1
1 -7 7 89.352 4.73206 1
-1 -7 -8 422.925 6.97631 1
-1 -7 -9 994.604 12.5314 1
1 -7 10 352.462 8.78332 1
-1 -7 -11 24.2748 6.845 1
1 -8 -11 2243.09 14.1548 1
1 8 -10 219.219 6.7043 1
1 8 -9 1952.5 14.7649 1
-1 8 8 299.124 7.53023 1
-1 8 7 1142.27 13.9826 1
1 -8 -6 11.2516 5.21753 1
-1 8 5 17279.2 68.0122 1
1 -8 -4 991.802 12.3368 1
1 -8 -3 15313.7 38.8603 1
1 8 -2 36.5108 4.77085 1
-1 -8 1 31064.7 44.338 1
-1 -8 0 5337.83 19.7735 1
-1 -8 -1 24458.4 43.6455 1
1 8 2 86.8464 6.80615 1
1 -8 3 494.339 8.54204 1
1 -8 4 523.892 12.5034 1
-1 8 -5 11377 27.1617 1
1 -8 6 962.26 7.87071 1
-1 -8 -7 14956.4 31.2685 1
-1 -8 -8 589.588 8.83839 1
1 8 9 58.2967 5.54806 1
-1 -8 -10 -1.32891 5.37961 1
-1 -8 -11 1061.68 16.4182 1
1 9 -11 112.688 5.25326 1
1 -9 -10 1489.04 17.364 1
1 -9 -9 466.335 8.09325 1
1 9 -8 851.2 9.27707 1
-1 -9 7 1657.22 15.032 1
-1 -9 6 9529.07 31.3068 1
-1 -9 5 13.6264 7.38545 1
1 -9 -4 24717.2 54.3777 1
-1 9 3 3476.84 19.5099 1
-1 -9 2 93.0828 4.83585 1
-1 9 1 6313.59 20.8779 1
1 9 0 43880.4 53.7687 1
1 9 1 160.82 5.72846 1
1 9 2 27210.3 50.1421 1
-1 -9 -3 6415.5 28.3929 1
1 9 4 4329.86 31.5761 1
1 -9 5 1980.86 12.7929 1
1 -9 6 12244.7 27.229 1
1 -9 7 762.087 8.9548 1
1 9 8 974.337 11.1762 1
1 -9 9 741.634 8.94708 1
-1 -9 -10 252.959 8.30804 1
-1 -9 -11 9.17429 5.83266 1
1 -10 -11 143.856 7.80722 1
1 -10 -10 184.761 6.75282 1
1 -10 -9 332.539 7.84527 1
-1 10 8 3751.27 17.663 1
1 10 -7 491.937 7.59846 1
1 -10 -6 3752.58 17.4986 1
-1 -10 5 1405.24 12.018 1
1 -10 -4 5916.44 27.8616 1
1 10 -3 502.544 9.66837 1
-1 -10 2 35285.8 52.6096 1
-1 10 1 978.772 10.7061 1
1 10 0 8669.42 26.8322 1
1 10 1 2984.35 17.4795 1
1 -10 2 11315 37.6942 1
1 -10 3 689.818 11.6884 1
-1 -10 -4 19444.7 73.9984 1
-1 10 -5 2062.3 13.4588 1
1 10 6 1437.93 10.5465 1
-1 10 -7 584.555 8.36132 1
1 10 8 3514.62 19.0483 1
1 10 9 60.6689 5.1028 1
-1 -10 -10 791.174 11.804 1
-1 -10 -11 218.675 7.94233 1
1 -11 -11 12.8596 5.37222 1
-1 11 10 64.4034 6.44222 1
-1 11 9 4508.68 23.1389 1
1 -11 -8 168.542 5.77077 1
-1 -11 7 7428.3 26.8011 1
-1 11 6 75.2196 5.56048 1
1 11 -5 1023.63 10.3867 1
1 11 -4 663.697 10.6787 1
-1 -11 3 20790.7 47.6071 1
-1 -11 2 23.9354 5.35055 1
-1 11 1 24873.5 61.6834 1
1 11 0 412.531 9.12271 1
-1 11 -1 7107.72 28.7553 1
-1 11 -2 162.832 8.3729 1
-1 -11 -3 18759.9 55.9763 1
1 -11 4 944.994 12.5977 1
-1 -11 -5 14093.6 30.852 1
1 -11 6 959.747 8.9684 1
1 11 7 191.324 6.04276 1
-1 -11 -8 131.164 6.5376 1
-1 -11 -9 4494.84 29.2475 1
-1 -11 -10 2.20153 4.85498 1
1 -12 -11 378.722 7.56004 1
-1 -12 10 19.448 5.65351 1
-1 -12 9 661.4 10.5297 1
-1 12 8 2684.06 20.9575 1
1 -12 -7 569.317 10.3683 1
-1 12 6 1857.7 14.3266 1
-1 12 5 3438.81 18.1609 1
-1 12 4 3499.52 19.1272 1
-1 12 3 783.683 11.8065 1
-1 -12 2 21628.3 54.855 1
-1 12 1 1831.22 18.886 1
-1 12 0 2447.22 18.7993 1
1 12 1 7775.24 33.0666 1
-1 12 -2 6431.46 34.1023 1
-1 -12 -3 291.456 10.1333 1
1 -12 4 10924.1 31.3229 1
-1 -12 -5 2675.58 16.2838 1
1 -12 6 437.283 6.687 1
1 12 7 2094.74 18.3211 1
-1 -12 -8 2764.46 16.1542 1
1 12 9 34.6171 6.09012 1
-1 -12 -10 1094.63 12.1496 1
-1 -13 11 25.7575 8.23797 1
-1 -13 10 1207.33 12.9156 1
1 -13 -9 30.4074 5.45124 1
1 13 -8 322.604 9.18679 1
-1 -13 7 480.536 10.0909 1
-1 13 6 8124.51 28.5704 1
-1 -13 5 9.76549 5.83193 1
-1 13 4 17887.7 38.3342 1
1 13 -3 1039.46 12.4453 1
-1 13 2 95.3845 7.68309 1
1 -13 -1 1840.02 19.9229 1
1 -13 0 26788.5 67.0383 1
-1 13 -1 285.585 10.4061 1
-1 13 -2 22628.6 69.3459 1
1 -13 3 2056.11 18.4935 1
1 -13 4 1891.24 12.6179 1
1 -13 5 250.505 7.36944 1
1 13 6 6797.09 24.6887 1
1 13 7 733.553 12.0529 1
1 -13 8 404.528 8.1124 1
-1 -13 -9 65.8751 6.18205 1
-1 -13 -10 385.959 6.82987 1
-1 -14 10 13.7162 4.37833 1
-1 14 9 1003.21 11.4119 1
-1 14 8 185.258 7.63454 1
-1 -14 7 568.882 11.4674 1
-1 -14 6 778.898 9.49575 1
-1 -14 5 14302.1 38.351 1
-1 -14 4 810.692 10.6118 1
-1 -14 3 6346.08 24.394 1
1 -14 -2 1421.5 11.9921 1
-1 -14 1 10853.2 45.3196 1
1 -14 0 967.917 15.3612 1
1 14 1 24957.1 87.1657 1
1 -14 2 1884.08 18.8184 1
1 -14 3 608.913 8.87886 1
1 14 4 889.685 9.87194 1
1 -14 5 6417.6 27.4688 1
1 -14 6 111.498 6.04832 1
-1 -14 -7 7130.19 35.4575 1
1 -14 8 751.733 9.81553 1
1 14 9 56.4216 5.7225 1
-1 -14 -10 37.0554 4.20022 1
-1 -15 10 695.918 13.0085 1
1 -15 -9 823.686 9.52081 1
1 -15 -8 117.847 6.88728 1
1 -15 -7 3119.33 24.7683 1
1 -15 -6 2264.62 15.9881 1
-1 15 5 9.61518 6.5128 1
1 -15 -4 4247.76 21.7505 1
-1 15 3 7900.99 25.8229 1
1 -15 -2 55.0285 4.9092 1
1 15 -1 11033.3 31.8834 1
-1 15 0 9759.61 42.2792 1
1 -15 1 30.6611 8.34055 1
1 15 2 5461.1 21.9232 1
1 15 3 11860.8 37.2025 1
1 15 4 1087.68 11.7893 1
1 -15 5 2150.79 17.9074 1
1 -15 6 2561.5 16.1055 1
1 -15 7 886.802 13.9385 1
1 15 8 531.617 8.98126 1
-1 -15 -9 1141.94 13.1233 1
-1 15 -10 76.0126 8.54299 1
-1 -16 10 45.2735 6.43402 1
-1 16 9 45.2837 4.03748 1
-1 16 8 2596.55 17.5642 1
1 16 -7 7.15003 6.39754 1
-1 16 6 2891.17 17.3409 1
1 -16 -5 93.6651 7.50353 1
-1 -16 4 3558.63 19.0164 1
-1 16 3 99.042 6.17104 1
-1 -16 2 22670 38.9383 1
-1 -16 1 234.866 6.7522 1
1 -16 0 3077.72 28.3213 1
-1 16 -1 97.1392 11.6934 1
-1 16 -2 11435.7 30.9283 1
1 16 3 16.5555 5.61606 1
-1 -16 -4 8247.83 33.0858 1
-1 -16 -5 277.379 9.13947 1
1 -16 6 131.778 9.95816 1
1 -16 7 115.837 7.7032 1
1 16 8 3123.56 18.0149 1
-1 -16 -9 15.4057 5.6448 1
-1 -17 10 178.165 11.0014 1
-1 17 9 938.376 10.0004 1
-1 17 8 7.99779 4.78224 1
-1 -17 7 3616.39 22.9258 1
1 17 -6 1201.87 11.9771 1
-1 17 5 30.3056 6.40684 1
-1 17 4 2332.63 15.7464 1
1 -17 -3 11689.1 32.9877 1
1 -17 -2 34.4334 5.10134 1
-1 17 1 9398.63 36.6442 1
1 -17 0 4267.29 35.6848 1
1 17 1 518.872 15.393 1
1 -17 2 1844.31 14.9615 1
1 -17 3 11932 41.1627 1
-1 -17 -4 85.5185 7.46531 1
1 -17 5 4134.86 31.3608 1
1 17 6 1433.59 22.3198 1
-1 -17 -7 525.89 10.8312 1
1 17 8 103.674 4.59768 1
-1 -17 -9 1363 16.3568 1
-1 18 9 1153.26 11.2385 1
-1 -18 8 516.708 8.8756 1
-1 -18 7 350.019 8.86658 1
1 -18 -6 808.021 10.8092 1
-1 18 5 5305.3 22.4339 1
-1 18 4 946.829 11.4522 1
1 -18 -3 1395.93 12.9233 1
-1 -18 2 5226.08 21.5143 1
1 -18 -1 1774.43 23.1836 1
-1 -18 0 2231.64 26.691 1
1 -18 1 9785.32 40.5806 1
1 -18 2 3228.83 21.9518 1
1 18 3 524.323 9.96812 1
1 -18 4 2325.55 20.3733 1
1 18 5 6965.69 31.8159 1
-1 -18 -6 7.82004 6.34815 1
1 -18 7 1924.94 17.5304 1
-1 -18 -8 699.255 7.1641 1
-1 -18 -9 -0.13048 3.7808 1
-1 19 9 23.5048 4.84783 1
-1 -19 8 219.977 8.35735 1
-1 -19 7 9.00139 5.28439 1
-1 -19 6 2086.35 15.3222 1
-1 19 5 165.496 6.73873 1
1 19 -4 11497.6 35.9339 1
1 19 -3 1704.81 13.6438 1
1 -19 -2 18.1356 6.5436 1
-1 19 1 2204.24 23.8504 1
-1 -19 0 23363.5 69.6567 1
1 19 1 230.904 9.29427 1
1 -19 2 4761.83 31.0981 1
-1 -19 -3 7.81875 6.46964 1
1 -19 4 1088.66 14.3654 1
1 -19 5 28.7769 6.84377 1
-1 -19 -6 6076.76 31.7613 1
1 -19 7 38.5497 5.81243 1
1 19 8 617.043 7.55702 1
-1 19 -9 27.7263 7.51824 1
-1 -20 9 277.515 12.1874 1
-1 -20 8 1025.66 14.0832 1
-1 20 7 827.374 15.4911 1
-1 -20 6 685.157 9.01659 1
1 -20 -5 4691.63 21.866 1
-1 -20 4 133.299 7.26229 1
1 -20 -3 999.863 11.2625 1
-1 -20 2 5647.14 37.1911 1
1 -20 -1 3442.01 29.2462 1
-1 20 0 191.293 11.1352 1
1 -20 1 7930.47 33.5379 1
-1 -20 -2 2479.38 22.5224 1
1 -20 3 1232.41 13.8069 1
-1 -20 -4 3314.6 21.8552 1
1 -20 5 2398.62 27.7135 1
1 -20 6 12.9323 5.88068 1
1 20 7 1891.29 15.9921 1
-1 20 -8 519.547 9.7228 1
1 -21 -8 28.214 4.50129 1
-1 -21 7 4259.56 28.9822 1
-1 -21 6 242.269 8.87249 1
1 -21 -5 32.7835 5.1905 1
-1 21 4 352.244 7.96416 1
1 -21 -3 2314.09 16.3563 1
-1 21 2 13.3399 8.89264 1
1 -21 -1 1934.77 23.1061 1
1 21 0 874.225 17.1736 1
1 21 1 374.149 11.1126 1
1 -21 2 587.201 13.4661 1
1 21 3 9841.22 38.0683 1
1 21 4 127.239 10.9712 1
1 21 5 2344.93 26.6392 1
-1 21 -6 411.247 9.46376 1
-1 21 -7 282.618 7.07484 1
-1 -21 -8 7.45225 3.78545 1
1 -22 -8 1119.37 16.9032 1
-1 -22 7 23.9938 6.32915 1
-1 22 6 1597.46 19.9545 1
-1 -22 5 483.895 11.513 1
1 -22 -4 992.49 13.047 1
1 -22 -3 25.3921 8.01768 1
1 -22 -2 16562.9 69.6965 1
-1 22 1 181.952 10.4667 1
1 22 0 905.963 12.0856 1
1 22 1 709.315 14.2286 1
1 -22 2 4535.53 37.866 1
-1 -22 -3 41.4741 7.83542 1
1 22 4 5073.04 38.0165 1
1 22 5 67.1774 8.67487 1
1 22 6 42.5083 5.28118 1
-1 22 -7 128.136 4.3957 1
-1 23 7 1229.77 16.1534 1
-1 23 6 703.051 12.5097 1
1 -23 -5 5.03622 6.92452 1
-1 23 4 2623.92 21.5263 1
-1 -23 3 2268.38 18.0588 1
1 -23 -2 4.66121 9.8104 1
1 -23 -1 2548.63 29.2626 1
-1 -23 0 5064.37 28.965 1
1 -23 1 196.95 11.1251 1
1 -23 2 2106.74 16.4483 1
1 -23 3 3998.61 25.9715 1
1 23 4 822.678 16.2159 1
-1 23 -5 816.605 14.9201 1
-1 -23 -6 1587.8 13.2306 1
1 23 7 122.948 4.65546 1
1 -24 -7 151.822 9.63988 1
1 -24 -6 22.9266 4.77109 1
1 -24 -5 3507.55 27.1197 1
1 -24 -4 204.023 8.60091 1
1 -24 -3 1153.33 15.1171 1
1 -24 -2 246.414 8.69446 1
-1 -24 1 1520.67 18.5783 1
1 -24 0 114.471 7.75944 1
1 -24 1 7749.98 29.6613 1
1 24 2 103.633 6.66604 1
1 24 3 337.032 9.9496 1
1 24 4 123.314 8.86688 1
1 24 5 2076.75 15.5998 1
-1 -24 -6 17.9418 4.81926 1
-1 25 6 1198.16 14.8313 1
-1 25 5 29.5164 7.31074 1
1 -25 -4 2806.93 23.5936 1
-1 -25 3 679.54 12.2144 1
1 -25 -2 107.859 6.89773 1
1 -25 -1 473.099 10.2638 1
1 -25 0 5092.25 26.3777 1
1 -25 1 113.931 6.70672 1
1 -25 2 1857.02 12.7771 1
1 25 3 976.169 15.8216 1
1 25 4 413.511 13.3883 1
-1 -25 -5 294.005 10.5018 1
-1 -25 -6 1490.85 15.4605 1
1 -26 -6 320.348 10.1385 1
1 -26 -5 928.771 10.6063 1
-1 26 4 862.958 12.4348 1
1 -26 -3 311.419 8.88239 1
1 -26 -2 3099.43 16.4613 1
-1 -26 1 311.769 7.09102 1
-1 -26 0 1041.84 12.5396 1
-1 -26 -1 1921.85 12.6212 1
-1 -26 -2 1615.81 13.8493 1
1 26 3 39.2228 6.59275 1
1 -26 4 1910.29 26.5585 1
-1 -26 -5 239.936 6.76731 1
-1 -27 5 9.55674 7.02415 1
-1 -27 4 1.91241 4.81505 1
1 -27 -3 2716.73 17.3341 1
-1 -27 2 4.17681 4.80368 1
-1 -27 1 3596.03 18.6834 1
-1 -27 0 7.36722 6.20487 1
1 -27 1 105.714 5.34565 1
1 -27 2 91.8887 6.07777 1
1 27 3 1764.64 15.988 1
-1 -27 -4 7.00876 4.32728 1
-1 -28 4 455.936 12.4679 1
-1 28 3 456.83 8.44895 1
1 -28 -2 2883.7 16.8451 1
-1 -28 1 634.855 8.8124 1
1 28 0 528.321 7.38401 1
1 -28 1 874.799 12.3548 1
1 -28 2 1079.81 16.7625 1
1 -28 3 67.1887 6.91648 1
-1 -29 2 2.90059 6.32305 1
1 -29 -1 38.7151 3.95149 1
-1 29 0 1507.52 16.6688 1
1 29 1 59.005 4.087 1
1 -29 2 1103.74 16.2703 1
2 0 -10 1253.37 19.9892 1
2 0 -8 981.597 12.1324 1
2 0 -6 4723.33 25.157 1
-2 0 4 88769.3 243.596 1
2 0 -2 10212.2 49.8119 1
2 0 0 11726 49.5521 1
2 0 2 22458 142.703 1
2 0 4 30.9547 5.94914 1
2 0 6 14260.4 41.9047 1
2 0 8 4134.79 25.181 1
2 0 10 257.157 11.7067 1
2 -1 10 1417.57 29.5807 -2
2 1 -11 1417.57 29.5807 1
2 1 9 367.845 12.0568 -2
2 -1 -10 367.845 12.0568 1
2 -1 8 3762.03 27.5472 -2
2 1 -9 3762.03 27.5472 1
-2 1 -7 5038.57 23.2007 -2
-2 -1 8 5038.57 23.2007 1
-2 -1 -6 260.672 7.6615 -2
-2 1 7 260.672 7.6615 1
2 -1 5 5078.44 23.1572 -2
2 1 -6 5078.44 23.1572 1
-2 1 -4 13990.1 46.7456 -2
-2 -1 5 13990.1 46.7456 1
2 1 3 7625.35 67.3488 -2
2 -1 -4 7625.35 67.3488 1
-2 -1 -2 13324.5 72.3337 -2
-2 1 3 13324.5 72.3337 1
2 -1 1 33983.4 83.8608 -2
2 1 -2 33983.4 83.8608 1
2 -1 0 4484.68 73.1679 -2
2 1 -1 4484.68 73.1679 1
2 -1 -1 5019.09 41.267 -2
2 1 0 5019.09 41.267 1
2 -1 -2 34967.4 92.6632 -2
2 1 1 34967.4 92.6632 1
2 -1 -3 12132.2 66.4163 -2
2 1 2 12132.2 66.4163 1
2 1 -4 8719.91 46.392 -2
2 -1 3 8719.91 46.392 1
2 1 -5 13452.9 36.1859 -2
2 -1 4 13452.9 36.1859 1
2 1 -6 5097.21 20.2046 -2
2 -1 5 5097.21 20.2046 1
2 1 -7 276.539 9.20275 -2
2 -1 6 276.539 9.20275 1
2 -1 -8 5471.05 28.6633 -2
2 1 7 5471.05 28.6633 1
-2 1 9 2996.01 23.4414 -2
-2 -1 -8 2996.01 23.4414 1
2 1 -10 392.868 11.2734 -2
2 -1 9 392.868 11.2734 1
2 1 -11 733.784 18.1413 -2
2 -1 10 733.784 18.1413 1
2 -2 10 566.343 20.6315 -2
2 2 -11 566.343 20.6315 1
2 2 9 2997.87 31.7176 -2
2 -2 -10 2997.87 31.7176 1
-2 -2 -8 1232.16 17.1385 -2
-2 2 9 1232.16 17.1385 1
-2 -2 -7 394.257 8.52837 -2
-2 2 8 394.257 8.52837 1
-2 2 -6 11069.7 35.1114 -2
-2 -2 7 11069.7 35.1114 1
2 -2 5 9000.46 30.3025 -2
2 2 -6 9000.46 30.3025 1
2 2 4 2256.5 17.4649 -2
2 -2 -5 2256.5 17.4649 1
2 -2 3 13467.1 89.4675 -2
2 2 -4 13467.1 89.4675 1
2 2 2 12961.9 57.8246 -2
2 -2 -3 12961.9 57.8246 1
-2 -2 -1 3916.48 28.2424 -2
-2 2 2 3916.48 28.2424 1
2 -2 0 25460.2 67.5972 -2
2 2 -1 25460.2 67.5972 1
2 -2 -1 25455.8 101.408 -2
2 2 0 25455.8 101.408 1
-2 -2 2 4189.57 31.3466 -2
-2 2 -1 4189.57 31.3466 1
2 -2 -3 12633 44.3947 -2
2 2 2 12633 44.3947 1
2 2 -4 14102.1 63.0004 -2
2 -2 3 14102.1 63.0004 1
2 -2 -5 1810.61 15.6655 -2
2 2 4 1810.61 15.6655 1
2 -2 -6 10803.6 29.7273 -2
2 2 5 10803.6 29.7273 1
2 2 -7 8563.3 30.7403 -2
2 -2 6 8563.3 30.7403 1
2 2 -8 289.225 9.20079 -2
2 -2 7 289.225 9.20079 1
2 -2 -9 944.387 14.9744 -2
2 2 8 944.387 14.9744 1
2 2 -10 2804.02 22.5447 -2
2 -2 9 2804.02 22.5447 1
2 2 -11 228.646 13.5237 -2
2 -2 10 228.646 13.5237 1
2 3 10 3387.12 28.4115 -2
2 -3 -11 3387.12 28.4115 1
2 -3 9 53.784 9.09197 -2
2 3 -10 53.784 9.09197 1
2 3 8 4086.75 28.149 -2
2 -3 -9 4086.75 28.149 1
2 -3 7 3140.68 20.9417 -2
2 3 -8 3140.68 20.9417 1
2 3 6 2435.09 17.403 -2
2 -3 -7 2435.09 17.403 1
2 3 5 11362.6 31.5604 -2
2 -3 -6 11362.6 31.5604 1
2 3 4 17094.7 41.7002 -2
2 -3 -5 17094.7 41.7002 1
-2 -3 -3 1711.61 24.3161 -2
-2 3 4 1711.61 24.3161 1
-2 -3 -2 1795.69 21.9376 -2
-2 3 3 1795.69 21.9376 1
-2 -3 -1 53977.6 99.6468 -2
-2 3 2 53977.6 99.6468 1
-2 3 0 11701.2 44.7629 -2
-2 -3 1 11701.2 44.7629 1
2 -3 -1 14102.8 62.9305 -2
2 3 0 14102.8 62.9305 1
2 -3 -2 45938 87.4502 -2
2 3 1 45938 87.4502 1
2 -3 -3 1879.83 19.8656 -2
2 3 2 1879.83 19.8656 1
2 3 -4 1416.64 16.9438 -2
2 -3 3 1416.64 16.9438 1
2 3 -5 19912.8 48.7012 -2
2 -3 4 19912.8 48.7012 1
2 3 -6 8925.14 28.8505 -2
2 -3 5 8925.14 28.8505 1
2 3 -7 2714.68 17.8808 -2
2 -3 6 2714.68 17.8808 1
2 3 -8 2331.37 18.352 -2
2 -3 7 2331.37 18.352 1
2 -3 -9 4269.32 33.9892 -2
2 3 8 4269.32 33.9892 1
2 -3 -10 31.7749 8.45238 -2
2 3 9 31.7749 8.45238 1
2 3 -11 2025.99 25.3309 -2
2 -3 10 2025.99 25.3309 1
2 -4 10 301.354 8.86297 -2
2 4 -11 301.354 8.86297 1
2 4 9 2962.31 22.8485 -2
2 -4 -10 2962.31 22.8485 1
-2 -4 -8 1423.06 17.6761 -2
-2 4 9 1423.06 17.6761 1
2 4 7 885.55 13.383 -2
2 -4 -8 885.55 13.383 1
2 -4 6 6919.72 27.233 -2
2 4 -7 6919.72 27.233 1
2 4 5 7320.17 27.022 -2
2 -4 -6 7320.17 27.022 1
2 -4 4 1806.39 13.8451 -2
2 4 -5 1806.39 13.8451 1
-2 4 -3 23353.4 85.9026 -2
-2 -4 4 23353.4 85.9026 1
2 -4 2 8638.55 47.0858 -2
2 4 -3 8638.55 47.0858 1
2 -4 1 9736.97 45.2935 -2
2 4 -2 9736.97 45.2935 1
2 -4 0 32620.4 78.735 -2
2 4 -1 32620.4 78.735 1
-2 4 1 32068.3 66.0402 -2
-2 -4 0 32068.3 66.0402 1
-2 4 2 8154.18 39.1632 -2
-2 -4 -1 8154.18 39.1632 1
-2 4 3 8911.47 43.6057 -2
-2 -4 -2 8911.47 43.6057 1
2 -4 -4 21916.8 64.6281 -2
2 4 3 21916.8 64.6281 1
2 4 -5 1407.57 13.7988 -2
2 -4 4 1407.57 13.7988 1
2 -4 -6 7465.41 30.0588 -2
2 4 5 7465.41 30.0588 1
2 -4 -7 6188.26 25.9651 -2
2 4 6 6188.26 25.9651 1
2 4 -8 629.848 12.4109 -2
2 -4 7 629.848 12.4109 1
2 4 -9 1393.58 21.1616 -2
2 -4 8 1393.58 21.1616 1
-2 4 10 2444.11 18.2464 -2
-2 -4 -9 2444.11 18.2464 1
2 4 -11 179.448 12.2045 -2
2 -4 10 179.448 12.2045 1
2 5 10 610.212 11.9386 -2
2 -5 -11 610.212 11.9386 1
2 5 9 342.689 11.884 -2
2 -5 -10 342.689 11.884 1
2 5 8 3123.33 29.4007 -2
2 -5 -9 3123.33 29.4007 1
2 5 7 10540.9 47.4446 -2
2 -5 -8 10540.9 47.4446 1
2 5 6 230.7 7.87826 -2
2 -5 -7 230.7 7.87826 1
2 5 5 4270.18 20.0508 -2
2 -5 -6 4270.18 20.0508 1
-2 5 -4 12282.9 32.6057 -2
-2 -5 5 12282.9 32.6057 1
-2 5 -3 10836.9 45.0266 -2
-2 -5 4 10836.9 45.0266 1
-2 -5 -2 12738.5 57.7898 -2
-2 5 3 12738.5 57.7898 1
-2 -5 -1 33306 81.5928 -2
-2 5 2 33306 81.5928 1
-2 5 0 4705.76 34.5649 -2
-2 -5 1 4705.76 34.5649 1
2 -5 -1 4795.95 29.1718 -2
2 5 0 4795.95 29.1718 1
-2 5 2 35997.8 81.0212 -2
-2 -5 -1 35997.8 81.0212 1
-2 5 3 10681.6 50.1349 -2
-2 -5 -2 10681.6 50.1349 1
2 5 -4 11735.2 46.8237 -2
2 -5 3 11735.2 46.8237 1
2 -5 -5 10122.5 41.9422 -2
2 5 4 10122.5 41.9422 1
-2 5 6 4400.13 22.3712 -2
-2 -5 -5 4400.13 22.3712 1
2 5 -7 191.031 8.36426 -2
2 -5 6 191.031 8.36426 1
2 -5 -8 11021.2 40.298 -2
2 5 7 11021.2 40.298 1
2 -5 -9 2184.2 31.1177 -2
2 5 8 2184.2 31.1177 1
2 -5 -10 291.18 10.0518 -2
2 5 9 291.18 10.0518 1
2 -5 -11 324.631 12.8875 -2
2 5 10 324.631 12.8875 1
2 -6 10 95.0238 7.35812 -2
2 6 -11 95.0238 7.35812 1
2 6 9 2074.82 21.7845 -2
2 -6 -10 2074.82 21.7845 1
2 6 8 2450.47 25.6019 -2
2 -6 -9 2450.47 25.6019 1
2 6 7 2752.9 22.4348 -2
2 -6 -8 2752.9 22.4348 1
2 6 6 9279.89 33.1294 -2
2 -6 -7 9279.89 33.1294 1
2 6 5 4461.3 22.4682 -2
2 -6 -6 4461.3 22.4682 1
2 6 4 1386.98 12.2852 -2
2 -6 -5 1386.98 12.2852 1
-2 -6 -3 20360.5 46.4271 -2
-2 6 4 20360.5 46.4271 1
-2 -6 -2 20858.2 74.2247 -2
-2 6 3 20858.2 74.2247 1
-2 -6 -1 3545.84 37.6507 -2
-2 6 2 3545.84 37.6507 1
-2 6 0 30691.5 112.568 -2
-2 -6 1 30691.5 112.568 1
-2 -6 1 31862.6 120.875 -2
-2 6 0 31862.6 120.875 1
2 6 -2 3557.74 30.8872 -2
2 -6 1 3557.74 30.8872 1
2 6 -3 21542.6 74.3994 -2
2 -6 2 21542.6 74.3994 1
2 -6 -4 15800 37.9898 -2
2 6 3 15800 37.9898 1
2 6 -5 1221.35 15.583 -2
2 -6 4 1221.35 15.583 1
-2 6 6 3564.9 30.5389 -2
-2 -6 -5 3564.9 30.5389 1
-2 6 7 9472.17 35.7073 -2
-2 -6 -6 9472.17 35.7073 1
-2 -6 8 1878.15 19.1737 -2
-2 6 -7 1878.15 19.1737 1
2 6 -9 2304.19 22.9691 -2
2 -6 8 2304.19 22.9691 1
-2 6 10 1437.6 16.5963 -2
-2 -6 -9 1437.6 16.5963 1
2 6 -11 80.8503 9.77356 -2
2 -6 10 80.8503 9.77356 1
2 7 10 1575.67 20.8874 -2
2 -7 -11 1575.67 20.8874 1
2 7 9 270.789 10.2955 -2
2 -7 -10 270.789 10.2955 1
2 -7 8 1993.12 27.7494 -2
2 7 -9 1993.12 27.7494 1
2 7 7 3296.85 28.2453 -2
2 -7 -8 3296.85 28.2453 1
2 7 6 316.752 7.96685 -2
2 -7 -7 316.752 7.96685 1
2 -7 5 3302.27 19.6119 -2
2 7 -6 3302.27 19.6119 1
2 7 4 10428.4 31.9289 -2
2 -7 -5 10428.4 31.9289 1
2 -7 3 3101.44 19.6339 -2
2 7 -4 3101.44 19.6339 1
2 -7 2 8794.4 46.2269 -2
2 7 -3 8794.4 46.2269 1
-2 7 -1 27899.5 95.7697 -2
-2 -7 2 27899.5 95.7697 1
2 -7 0 11598.3 78.2934 -2
2 7 -1 11598.3 78.2934 1
-2 7 1 13259.9 93.5595 -2
-2 -7 0 13259.9 93.5595 1
2 -7 -2 26570.9 96.5102 -2
2 7 1 26570.9 96.5102 1
2 7 -3 8098.13 48.1249 -2
2 -7 2 8098.13 48.1249 1
2 -7 -4 3267.71 17.4313 -2
2 7 3 3267.71 17.4313 1
2 -7 -5 10384.7 42.9867 -2
2 7 4 10384.7 42.9867 1
2 7 -6 2507.02 25.6813 -2
2 -7 5 2507.02 25.6813 1
2 7 -7 369.5 10.4543 -2
2 -7 6 369.5 10.4543 1
2 -7 -8 2799.94 26.2744 -2
2 7 7 2799.94 26.2744 1
2 -7 -9 1446.58 21.3717 -2
2 7 8 1446.58 21.3717 1
-2 7 10 210.678 9.773 -2
-2 -7 -9 210.678 9.773 1
2 -7 -11 1315.95 17.6561 -2
2 7 10 1315.95 17.6561 1
-2 8 -10 344.269 13.7553 -2
-2 -8 11 344.269 13.7553 1
2 8 9 3385.65 29.5002 -2
2 -8 -10 3385.65 29.5002 1
2 -8 8 642.113 16.8941 -2
2 8 -9 642.113 16.8941 1
2 8 7 35.5094 6.79473 -2
2 -8 -8 35.5094 6.79473 1
2 8 6 6701.3 29.6876 -2
2 -8 -7 6701.3 29.6876 1
-2 8 -5 17881.2 43.2807 -2
-2 -8 6 17881.2 43.2807 1
2 8 4 4463.26 21.3287 -2
2 -8 -5 4463.26 21.3287 1
-2 -8 -3 12862.8 35.4847 -2
-2 8 4 12862.8 35.4847 1
2 -8 2 13299.6 55.5047 -2
2 8 -3 13299.6 55.5047 1
-2 8 -1 1559.16 29.4164 -2
-2 -8 2 1559.16 29.4164 1
2 8 0 17997.8 89.0068 -2
2 -8 -1 17997.8 89.0068 1
-2 -8 1 14036.1 101.184 -2
-2 8 0 14036.1 101.184 1
-2 8 2 1414.65 29.2696 -2
-2 -8 -1 1414.65 29.2696 1
2 -8 -3 11028.4 39.0096 -2
2 8 2 11028.4 39.0096 1
2 -8 -4 14084.3 37.1574 -2
2 8 3 14084.3 37.1574 1
-2 8 5 3836.85 26.2872 -2
-2 -8 -4 3836.85 26.2872 1
2 8 -6 19465.9 52.731 -2
2 -8 5 19465.9 52.731 1
-2 -8 7 5055.94 24.4177 -2
-2 8 -6 5055.94 24.4177 1
2 -8 -8 52.5271 9.9511 -2
2 8 7 52.5271 9.9511 1
2 -8 -9 360.434 13.3601 -2
2 8 8 360.434 13.3601 1
2 8 -10 3033.91 23.7646 -2
2 -8 9 3033.91 23.7646 1
2 -8 -11 237.736 13.695 -2
2 8 10 237.736 13.695 1
2 -9 10 874.665 17.568 -2
2 9 -11 874.665 17.568 1
2 9 9 188.365 10.3441 -2
2 -9 -10 188.365 10.3441 1
2 -9 8 1573.59 29.1512 -2
2 9 -9 1573.59 29.1512 1
2 -9 7 3840.43 25.2922 -2
2 9 -8 3840.43 25.2922 1
2 9 6 1066.28 12.6792 -2
2 -9 -7 1066.28 12.6792 1
-2 9 -5 8909.57 36.8103 -2
-2 -9 6 8909.57 36.8103 1
2 9 4 16831.6 41.3659 -2
2 -9 -5 16831.6 41.3659 1
2 9 3 1854.09 13.8919 -2
2 -9 -4 1854.09 13.8919 1
2 9 2 7026.16 36.821 -2
2 -9 -3 7026.16 36.821 1
2 -9 1 26651.3 114.084 -2
2 9 -2 26651.3 114.084 1
2 -9 0 14607.6 90.5861 -2
2 9 -1 14607.6 90.5861 1
2 -9 -1 17093.2 101.113 -2
2 9 0 17093.2 101.113 1
2 9 -2 24500.4 117.117 -2
2 -9 1 24500.4 117.117 1
-2 -9 3 6835.3 31.3587 -2
-2 9 -2 6835.3 31.3587 1
2 -9 -4 2005.76 13.5072 -2
2 9 3 2005.76 13.5072 1
-2 -9 5 18148.8 56.416 -2
-2 9 -4 18148.8 56.416 1
2 9 -6 7135.79 32.7277 -2
2 -9 5 7135.79 32.7277 1
2 9 -7 1135.49 14.2822 -2
2 -9 6 1135.49 14.2822 1
2 -9 -8 3074.72 23.8027 -2
2 9 7 3074.72 23.8027 1
2 9 -9 1259.54 19.3053 -2
2 -9 8 1259.54 19.3053 1
2 9 -10 131.797 9.96922 -2
2 -9 9 131.797 9.96922 1
2 -9 -11 869.053 18.2382 -2
2 9 10 869.053 18.2382 1
-2 10 -10 106.69 9.38213 -2
-2 -10 11 106.69 9.38213 1
2 10 9 1511.87 20.973 -2
2 -10 -10 1511.87 20.973 1
-2 -10 -8 1855.65 29.4076 -2
-2 10 9 1855.65 29.4076 1
2 -10 7 1253.39 17.144 -2
2 10 -8 1253.39 17.144 1
-2 -10 -6 5727.67 26.6647 -2
-2 10 7 5727.67 26.6647 1
2 10 5 2698.99 21.3613 -2
2 -10 -6 2698.99 21.3613 1
-2 -10 -4 1622.31 15.113 -2
-2 10 5 1622.31 15.113 1
2 -10 3 17115.1 49.2584 -2
2 10 -4 17115.1 49.2584 1
2 10 2 18952 61.3456 -2
2 -10 -3 18952 61.3456 1
-2 10 -1 3941.71 30.6401 -2
-2 -10 2 3941.71 30.6401 1
-2 10 0 10434 91.9319 -2
-2 -10 1 10434 91.9319 1
2 10 -1 11187.4 63.2615 -2
2 -10 0 11187.4 63.2615 1
2 -10 -2 3337.52 19.5327 -2
2 10 1 3337.52 19.5327 1
2 10 -3 21384.8 53.4528 -2
2 -10 2 21384.8 53.4528 1
2 -10 -4 14073.7 36.3597 -2
2 10 3 14073.7 36.3597 1
2 10 -5 1707.71 19.3333 -2
2 -10 4 1707.71 19.3333 1
2 -10 -6 2279.7 21.2398 -2
2 10 5 2279.7 21.2398 1
2 10 -7 5807.61 28.6885 -2
2 -10 6 5807.61 28.6885 1
2 -10 -8 872.592 14.2179 -2
2 10 7 872.592 14.2179 1
2 10 -9 1656.81 21.18 -2
2 -10 8 1656.81 21.18 1
2 -10 -10 1285.42 17.8718 -2
2 10 9 1285.42 17.8718 1
2 -10 -11 115.834 9.17777 -2
2 10 10 115.834 9.17777 1
2 11 9 117.137 9.86903 -2
2 -11 -10 117.137 9.86903 1
-2 -11 -8 2903.67 63.6763 -2
-2 11 9 2903.67 63.6763 1
2 -11 7 6821.22 40.2966 -2
2 11 -8 6821.22 40.2966 1
-2 11 -6 263.873 7.92713 -2
-2 -11 7 263.873 7.92713 1
2 11 5 917.723 17.3887 -2
2 -11 -6 917.723 17.3887 1
-2 11 -4 9665.64 43.2429 -2
-2 -11 5 9665.64 43.2429 1
2 11 3 10803.2 55.313 -2
2 -11 -4 10803.2 55.313 1
2 11 2 11484.1 47.1829 -2
2 -11 -3 11484.1 47.1829 1
2 11 1 14948.7 47.885 -2
2 -11 -2 14948.7 47.885 1
2 -11 0 4986.84 28.6946 -2
2 11 -1 4986.84 28.6946 1
2 -11 -1 4632.64 26.227 -2
2 11 0 4632.64 26.227 1
2 11 -2 17534.8 52.1159 -2
2 -11 1 17534.8 52.1159 1
2 11 -3 9362.92 32.0934 -2
2 -11 2 9362.92 32.0934 1
2 -11 -4 11903.9 34.6841 -2
2 11 3 11903.9 34.6841 1
2 11 -5 8290.5 39.8934 -2
2 -11 4 8290.5 39.8934 1
2 11 -6 850.911 12.7439 -2
2 -11 5 850.911 12.7439 1
-2 11 7 245.965 8.73068 -2
-2 -11 -6 245.965 8.73068 1
2 -11 -8 7519.74 39.2506 -2
2 11 7 7519.74 39.2506 1
2 11 -9 1541.64 20.0271 -2
2 -11 8 1541.64 20.0271 1
2 -11 -10 215.089 11.0003 -2
2 11 9 215.089 11.0003 1
-2 12 -9 1635.13 14.2309 -2
-2 -12 10 1635.13 14.2309 1
-2 12 -8 1834.16 31.3458 -2
-2 -12 9 1834.16 31.3458 1
2 12 7 518.338 17.1981 -2
2 -12 -8 518.338 17.1981 1
2 12 6 5068.02 40.0213 -2
2 -12 -7 5068.02 40.0213 1
-2 12 -5 3424.31 35.1443 -2
-2 -12 6 3424.31 35.1443 1
2 -12 4 1146.86 18.8567 -2
2 12 -5 1146.86 18.8567 1
2 12 3 11985.4 49.5786 -2
2 -12 -4 11985.4 49.5786 1
2 12 2 9143.26 44.1974 -2
2 -12 -3 9143.26 44.1974 1
2 -12 1 1129.54 14.0633 -2
2 12 -2 1129.54 14.0633 1
2 -12 0 11685.5 47.5785 -2
2 12 -1 11685.5 47.5785 1
2 -12 -1 11792.3 43.0167 -2
2 12 0 11792.3 43.0167 1
2 -12 -2 937.823 14.4692 -2
2 12 1 937.823 14.4692 1
2 12 -3 10720.2 36.7577 -2
2 -12 2 10720.2 36.7577 1
2 -12 -4 10038.9 34.2679 -2
2 12 3 10038.9 34.2679 1
2 12 -5 1089.47 17.2425 -2
2 -12 4 1089.47 17.2425 1
2 -12 -6 3055.6 21.9724 -2
2 12 5 3055.6 21.9724 1
-2 12 7 4811.44 30.8379 -2
-2 -12 -6 4811.44 30.8379 1
2 -12 -8 458.206 10.4187 -2
2 12 7 458.206 10.4187 1
2 12 -9 2519.33 23.3694 -2
2 -12 8 2519.33 23.3694 1
2 -12 -10 1634.95 20.165 -2
2 12 9 1634.95 20.165 1
2 13 9 70.8292 5.98353 -2
2 -13 -10 70.8292 5.98353 1
-2 13 -8 992.448 30.4942 -2
-2 -13 9 992.448 30.4942 1
2 13 7 2796.73 27.3346 -2
2 -13 -8 2796.73 27.3346 1
2 13 6 272.206 11.7449 -2
2 -13 -7 272.206 11.7449 1
2 13 5 7274.09 41.7672 -2
2 -13 -6 7274.09 41.7672 1
-2 13 -4 7774.51 35.8434 -2
-2 -13 5 7774.51 35.8434 1
2 13 3 465.413 14.1743 -2
2 -13 -4 465.413 14.1743 1
-2 -13 -2 2783.62 24.6578 -2
-2 13 3 2783.62 24.6578 1
2 -13 1 17812.1 68.7802 -2
2 13 -2 17812.1 68.7802 1
-2 -13 0 12397.7 42.4718 -2
-2 13 1 12397.7 42.4718 1
-2 -13 1 15084.5 68.8773 -2
-2 13 0 15084.5 68.8773 1
2 13 -2 15199 50.8928 -2
2 -13 1 15199 50.8928 1
2 -13 -3 2896.5 21.9948 -2
2 13 2 2896.5 21.9948 1
2 -13 -4 496.196 11.0658 -2
2 13 3 496.196 11.0658 1
2 13 -5 9088.23 39.9217 -2
2 -13 4 9088.23 39.9217 1
2 -13 -6 5416.79 30.9079 -2
2 13 5 5416.79 30.9079 1
-2 13 7 374.778 11.237 -2
-2 -13 -6 374.778 11.237 1
2 13 -8 2185.29 18.0102 -2
2 -13 7 2185.29 18.0102 1
2 -13 -9 1291.7 19.1673 -2
2 13 8 1291.7 19.1673 1
2 -13 -10 65.8141 6.77006 -2
2 13 9 65.8141 6.77006 1
2 14 9 2015.39 20.6608 -2
2 -14 -10 2015.39 20.6608 1
2 -14 8 426.398 9.71345 -2
2 14 -9 426.398 9.71345 1
2 14 7 380.593 12.4767 -2
2 -14 -8 380.593 12.4767 1
2 14 6 6634.81 47.383 -2
2 -14 -7 6634.81 47.383 1
2 -14 5 8860.59 45.6838 -2
2 14 -6 8860.59 45.6838 1
-2 -14 -4 2006.48 19.6132 -2
-2 14 5 2006.48 19.6132 1
2 -14 3 7901.06 39.7611 -2
2 14 -4 7901.06 39.7611 1
2 -14 2 6282.95 32.3449 -2
2 14 -3 6282.95 32.3449 1
2 -14 1 608.289 15.8773 -2
2 14 -2 608.289 15.8773 1
2 -14 0 14793.5 55.2593 -2
2 14 -1 14793.5 55.2593 1
-2 -14 1 13074 57.2864 -2
-2 14 0 13074 57.2864 1
2 14 -2 656.377 15.0129 -2
2 -14 1 656.377 15.0129 1
2 -14 -3 5376.24 33.6076 -2
2 14 2 5376.24 33.6076 1
2 -14 -4 8515.24 36.4693 -2
2 14 3 8515.24 36.4693 1
-2 14 5 1472.12 20.4813 -2
-2 -14 -4 1472.12 20.4813 1
2 -14 -6 10019.5 47.1742 -2
2 14 5 10019.5 47.1742 1
-2 14 7 5222.4 36.085 -2
-2 -14 -6 5222.4 36.085 1
-2 14 8 331.797 9.0551 -2
-2 -14 -7 331.797 9.0551 1
2 -14 -9 317.455 11.0649 -2
2 14 8 317.455 11.0649 1
-2 14 10 1803.34 22.853 -2
-2 -14 -9 1803.34 22.853 1
2 15 9 45.7815 8.145 -2
2 -15 -10 45.7815 8.145 1
-2 15 -8 1414.48 15.4767 -2
-2 -15 9 1414.48 15.4767 1
2 -15 7 2622.78 18.7894 -2
2 15 -8 2622.78 18.7894 1
2 15 6 407.725 13.8107 -2
2 -15 -7 407.725 13.8107 1
-2 15 -5 2570.87 27.8471 -2
-2 -15 6 2570.87 27.8471 1
2 -15 4 5336.81 25.8027 -2
2 15 -5 5336.81 25.8027 1
2 15 3 1509.55 19.1828 -2
2 -15 -4 1509.55 19.1828 1
2 -15 2 7292 41.3326 -2
2 15 -3 7292 41.3326 1
2 -15 1 14761.3 55.5573 -2
2 15 -2 14761.3 55.5573 1
2 -15 0 3199.48 25.1521 -2
2 15 -1 3199.48 25.1521 1
-2 15 1 3582.9 34.1213 -2
-2 -15 0 3582.9 34.1213 1
2 -15 -2 15808.6 51.4044 -2
2 15 1 15808.6 51.4044 1
2 15 -3 5982.85 36.4296 -2
2 -15 2 5982.85 36.4296 1
2 -15 -4 1685.52 16.8731 -2
2 15 3 1685.52 16.8731 1
2 15 -5 4403.61 36.4662 -2
2 -15 4 4403.61 36.4662 1
2 -15 -6 2160.38 30.5426 -2
2 15 5 2160.38 30.5426 1
-2 15 7 468.459 14.2698 -2
-2 -15 -6 468.459 14.2698 1
-2 15 8 2611.09 22.443 -2
-2 -15 -7 2611.09 22.443 1
2 -15 -9 1041.98 15.2513 -2
2 15 8 1041.98 15.2513 1
-2 -15 10 74.7656 10.4774 -2
-2 15 -9 74.7656 10.4774 1
-2 16 -8 938.731 13.0526 -2
-2 -16 9 938.731 13.0526 1
2 -16 7 967.599 15.0857 -2
2 16 -8 967.599 15.0857 1
-2 16 -6 4142.72 26.3927 -2
-2 -16 7 4142.72 26.3927 1
2 16 5 1927.91 20.5836 -2
2 -16 -6 1927.91 20.5836 1
2 16 4 30.6686 6.56063 -2
2 -16 -5 30.6686 6.56063 1
2 16 3 10088.3 39.8354 -2
2 -16 -4 10088.3 39.8354 1
2 16 2 6112.58 38.2653 -2
2 -16 -3 6112.58 38.2653 1
2 16 1 1166.9 17.7201 -2
2 -16 -2 1166.9 17.7201 1
2 -16 0 8611.29 43.4381 -2
2 16 -1 8611.29 43.4381 1
-2 16 1 9832.19 53.4184 -2
-2 -16 0 9832.19 53.4184 1
2 -16 -2 980.792 16.9134 -2
2 16 1 980.792 16.9134 1
2 -16 -3 7042.78 39.3531 -2
2 16 2 7042.78 39.3531 1
2 -16 -4 7102.4 30.4327 -2
2 16 3 7102.4 30.4327 1
2 16 -5 43.1467 12.7549 -2
2 -16 4 43.1467 12.7549 1
2 -16 -6 1263.02 23.6652 -2
2 16 5 1263.02 23.6652 1
-2 16 7 4132.9 33.53 -2
-2 -16 -6 4132.9 33.53 1
2 -16 -8 717.723 12.4217 -2
2 16 7 717.723 12.4217 1
2 -16 -9 1189.51 14.5346 -2
2 16 8 1189.51 14.5346 1
2 -17 8 1222.6 13.128 -2
2 17 -9 1222.6 13.128 1
2 -17 7 3185.91 22.3013 -2
2 17 -8 3185.91 22.3013 1
-2 17 -6 68.8548 7.624 -2
-2 -17 7 68.8548 7.624 1
-2 17 -5 2069.03 18.0611 -2
-2 -17 6 2069.03 18.0611 1
2 17 4 6741.29 38.4197 -2
2 -17 -5 6741.29 38.4197 1
2 -17 3 3628.09 27.0714 -2
2 17 -4 3628.09 27.0714 1
2 17 2 3841.87 30.9352 -2
2 -17 -3 3841.87 30.9352 1
2 17 1 11794 58.8849 -2
2 -17 -2 11794 58.8849 1
-2 -17 0 1378.75 22.0164 -2
-2 17 1 1378.75 22.0164 1
2 -17 -1 1515.55 23.5579 -2
2 17 0 1515.55 23.5579 1
2 -17 -2 11769 52.2612 -2
2 17 1 11769 52.2612 1
2 -17 -3 2854.74 22.9326 -2
2 17 2 2854.74 22.9326 1
2 -17 -4 4005.31 39.6874 -2
2 17 3 4005.31 39.6874 1
2 -17 -5 4986.03 65.3917 -2
2 17 4 4986.03 65.3917 1
2 -17 -6 1790.87 36.7891 -2
2 17 5 1790.87 36.7891 1
-2 17 7 54.1591 8.03871 -2
-2 -17 -6 54.1591 8.03871 1
-2 17 8 2994.61 20.6875 -2
-2 -17 -7 2994.61 20.6875 1
2 -17 -9 903.251 14.5194 -2
2 17 8 903.251 14.5194 1
2 -18 7 204.648 7.31168 -2
2 18 -8 204.648 7.31168 1
-2 18 -6 3142.12 21.0588 -2
-2 -18 7 3142.12 21.0588 1
2 18 5 2387.52 17.5923 -2
2 -18 -6 2387.52 17.5923 1
2 -18 4 727.134 17.1691 -2
2 18 -5 727.134 17.1691 1
2 18 3 9216.23 50.475 -2
2 -18 -4 9216.23 50.475 1
2 18 2 2849.47 31.194 -2
2 -18 -3 2849.47 31.194 1
2 18 1 1319.41 24.6634 -2
2 -18 -2 1319.41 24.6634 1
-2 18 0 8612.69 49.5672 -2
-2 -18 1 8612.69 49.5672 1
-2 18 1 8013.82 49.0319 -2
-2 -18 0 8013.82 49.0319 1
2 -18 -2 1123.67 18.4928 -2
2 18 1 1123.67 18.4928 1
2 -18 -3 2834.57 25.496 -2
2 18 2 2834.57 25.496 1
2 -18 -4 8939.17 65.105 -2
2 18 3 8939.17 65.105 1
2 -18 -5 440.137 17.4168 -2
2 18 4 440.137 17.4168 1
2 -18 -6 2852.61 43.4719 -2
2 18 5 2852.61 43.4719 1
-2 18 7 2619.78 24.0127 -2
-2 -18 -6 2619.78 24.0127 1
-2 18 8 152.981 6.14539 -2
-2 -18 -7 152.981 6.14539 1
-2 -18 9 316.69 14.1637 -2
-2 18 -8 316.69 14.1637 1
2 19 7 901.069 17.4483 -2
2 -19 -8 901.069 17.4483 1
-2 19 -6 777.748 10.8187 -2
-2 -19 7 777.748 10.8187 1
2 19 5 3957.21 25.4858 -2
2 -19 -6 3957.21 25.4858 1
2 19 4 6513.72 57.253 -2
2 -19 -5 6513.72 57.253 1
2 19 3 35.6442 10.7342 -2
2 -19 -4 35.6442 10.7342 1
2 19 2 2328.3 39.5299 -2
2 -19 -3 2328.3 39.5299 1
-2 -19 -1 13626.5 63.5261 -2
-2 19 2 13626.5 63.5261 1
-2 19 0 3173.24 33.6296 -2
-2 -19 1 3173.24 33.6296 1
2 -19 -1 4025.69 29.497 -2
2 19 0 4025.69 29.497 1
-2 19 2 10664.7 58.0245 -2
-2 -19 -1 10664.7 58.0245 1
2 -19 -3 2041.66 30.2977 -2
2 19 2 2041.66 30.2977 1
2 -19 -4 27.855 13.3169 -2
2 19 3 27.855 13.3169 1
2 -19 -5 7343.65 69.512 -2
2 19 4 7343.65 69.512 1
-2 19 6 3362.62 30.5047 -2
-2 -19 -5 3362.62 30.5047 1
-2 19 7 889.388 13.8786 -2
-2 -19 -6 889.388 13.8786 1
2 -19 -8 695.693 11.2753 -2
2 19 7 695.693 11.2753 1
2 20 7 236.04 14.4005 -2
2 -20 -8 236.04 14.4005 1
2 20 6 2541.29 21.8102 -2
2 -20 -7 2541.29 21.8102 1
2 20 5 2121.44 25.5576 -2
2 -20 -6 2121.44 25.5576 1
-2 20 -4 248.659 16.7044 -2
-2 -20 5 248.659 16.7044 1
2 20 3 5061.3 37.6262 -2
2 -20 -4 5061.3 37.6262 1
2 20 2 5373.09 41.5234 -2
2 -20 -3 5373.09 41.5234 1
2 20 1 841.346 22.5895 -2
2 -20 -2 841.346 22.5895 1
2 20 0 7900.61 66.3258 -2
2 -20 -1 7900.61 66.3258 1
2 -20 -1 6983.91 47.2219 -2
2 20 0 6983.91 47.2219 1
2 -20 -2 966.059 22.9914 -2
2 20 1 966.059 22.9914 1
2 -20 -3 4697.14 41.5383 -2
2 20 2 4697.14 41.5383 1
2 -20 -4 4322.35 42.7468 -2
2 20 3 4322.35 42.7468 1
-2 20 6 2259.49 23.8866 -2
-2 -20 -5 2259.49 23.8866 1
-2 20 7 2364.94 15.5492 -2
-2 -20 -6 2364.94 15.5492 1
2 -20 -8 175.038 6.89811 -2
2 20 7 175.038 6.89811 1
2 21 6 16.1183 6.53465 -2
2 -21 -7 16.1183 6.53465 1
2 21 5 690.391 19.4241 -2
2 -21 -6 690.391 19.4241 1
2 21 4 1825.22 31.2451 -2
2 -21 -5 1825.22 31.2451 1
2 21 3 1862.61 23.2273 -2
2 -21 -4 1862.61 23.2273 1
2 21 2 1110.84 20.8944 -2
2 -21 -3 1110.84 20.8944 1
2 21 1 8173.78 55.3582 -2
2 -21 -2 8173.78 55.3582 1
2 -21 0 945.095 18.8975 -2
2 21 -1 945.095 18.8975 1
2 -21 -1 874.049 19.0514 -2
2 21 0 874.049 19.0514 1
2 -21 -2 8949.51 49.9682 -2
2 21 1 8949.51 49.9682 1
2 -21 -3 732.919 25.2522 -2
2 21 2 732.919 25.2522 1
2 -21 -4 1993.77 28.4875 -2
2 21 3 1993.77 28.4875 1
2 -21 -5 1760.88 33.0982 -2
2 21 4 1760.88 33.0982 1
-2 21 6 634.52 11.0593 -2
-2 -21 -5 634.52 11.0593 1
-2 21 7 11.5184 4.61211 -2
-2 -21 -6 11.5184 4.61211 1
2 22 6 2556.44 35.3591 -2
2 -22 -7 2556.44 35.3591 1
2 22 5 667.14 16.5692 -2
2 -22 -6 667.14 16.5692 1
2 22 4 20.3354 10.3304 -2
2 -22 -5 20.3354 10.3304 1
2 22 3 7284.33 46.3312 -2
2 -22 -4 7284.33 46.3312 1
2 22 2 4834.66 35.8857 -2
2 -22 -3 4834.66 35.8857 1
2 22 1 501.317 17.3633 -2
2 -22 -2 501.317 17.3633 1
2 22 0 3731.16 33.6588 -2
2 -22 -1 3731.16 33.6588 1
2 22 -1 4004.26 38.3947 -2
2 -22 0 4004.26 38.3947 1
2 -22 -2 402.536 14.0199 -2
2 22 1 402.536 14.0199 1
2 -22 -3 5000.94 33.1224 -2
2 22 2 5000.94 33.1224 1
2 -22 -4 5582.72 34.2132 -2
2 22 3 5582.72 34.2132 1
2 -22 -5 64.576 11.614 -2
2 22 4 64.576 11.614 1
-2 22 6 539.953 10.1343 -2
-2 -22 -5 539.953 10.1343 1
2 -22 -7 2918.63 21.1026 -2
2 22 6 2918.63 21.1026 1
2 23 5 926.499 19.5711 -2
2 -23 -6 926.499 19.5711 1
2 23 4 2721.88 25.7585 -2
2 -23 -5 2721.88 25.7585 1
2 23 3 800.312 16.7362 -2
2 -23 -4 800.312 16.7362 1
2 23 2 2304.32 23.8383 -2
2 -23 -3 2304.32 23.8383 1
2 23 1 6337.19 32.8128 -2
2 -23 -2 6337.19 32.8128 1
2 23 0 1559.51 21.7237 -2
2 -23 -1 1559.51 21.7237 1
2 -23 -1 1753.97 24.8236 -2
2 23 0 1753.97 24.8236 1
2 -23 -2 5783.53 31.8619 -2
2 23 1 5783.53 31.8619 1
2 -23 -3 1998.02 20.5828 -2
2 23 2 1998.02 20.5828 1
2 -23 -4 803.581 17.493 -2
2 23 3 803.581 17.493 1
2 -23 -5 2878.96 32.5296 -2
2 23 4 2878.96 32.5296 1
-2 23 6 850.085 12.1841 -2
-2 -23 -5 850.085 12.1841 1
2 -24 5 2405.98 24.3811 -2
2 24 -6 2405.98 24.3811 1
2 24 4 467.167 13.8518 -2
2 -24 -5 467.167 13.8518 1
2 24 3 2549.21 26.7225 -2
2 -24 -4 2549.21 26.7225 1
2 24 2 1037.19 12.9162 -2
2 -24 -3 1037.19 12.9162 1
2 24 1 198.298 8.53617 -2
2 -24 -2 198.298 8.53617 1
2 -24 0 4915.48 32.3412 -2
2 24 -1 4915.48 32.3412 1
2 24 -1 4167.93 23.3457 -2
2 -24 0 4167.93 23.3457 1
2 -24 -2 195.388 10.9421 -2
2 24 1 195.388 10.9421 1
2 -24 -3 863.836 13.2179 -2
2 24 2 863.836 13.2179 1
2 -24 -4 2724.44 21.4343 -2
2 24 3 2724.44 21.4343 1
-2 24 5 354.326 8.18818 -2
-2 -24 -4 354.326 8.18818 1
2 24 -6 1951.45 26.151 -2
2 -24 5 1951.45 26.151 1
2 -25 4 2639.89 15.5372 -2
2 25 -5 2639.89 15.5372 1
2 -25 3 452.246 7.91245 -2
2 25 -4 452.246 7.91245 1
2 25 2 622.165 9.97375 -2
2 -25 -3 622.165 9.97375 1
2 25 1 3868.72 20.0844 -2
2 -25 -2 3868.72 20.0844 1
2 -25 0 1096.19 14.1027 -2
2 25 -1 1096.19 14.1027 1
2 -25 -1 1199.75 12.8682 -2
2 25 0 1199.75 12.8682 1
2 -25 -2 3508.23 19.4891 -2
2 25 1 3508.23 19.4891 1
2 -25 -3 700.342 16.9278 -2
2 25 2 700.342 16.9278 1
2 25 -4 477.941 8.25523 -2
2 -25 3 477.941 8.25523 1
2 -25 -5 2485.63 30.9073 -2
2 25 4 2485.63 30.9073 1
2 -26 3 1769.03 16.6044 -2
2 26 -4 1769.03 16.6044 1
2 -26 2 1639.86 16.0472 -2
2 26 -3 1639.86 16.0472 1
2 26 1 433.444 7.8715 -2
2 -26 -2 433.444 7.8715 1
2 -26 0 2325.76 15.7334 -2
2 26 -1 2325.76 15.7334 1
2 26 -1 2402.28 15.6333 -2
2 -26 0 2402.28 15.6333 1
2 26 -2 337.898 9.30752 -2
2 -26 1 337.898 9.30752 1
2 -26 -3 1793.02 20.3785 -2
2 26 2 1793.02 20.3785 1
2 26 -4 1478.06 12.2779 -2
2 -26 3 1478.06 12.2779 1
2 27 2 1212.2 22.5382 -2
2 -27 -3 1212.2 22.5382 1
2 27 1 1502.52 13.2199 -2
2 -27 -2 1502.52 13.2199 1
2 27 0 169.904 10.646 -2
2 -27 -1 169.904 10.646 1
2 27 -1 157.717 7.35736 -2
2 -27 0 157.717 7.35736 1
2 27 -2 1774.54 13.8313 -2
2 -27 1 1774.54 13.8313 1
2 27 -3 1052.51 19.419 -2
2 -27 2 1052.51 19.419 1
3 0 -10 145.362 11.9723 1
3 0 -8 1245.26 14.7847 1
3 0 -6 15541.3 55.046 1
3 0 -4 2651.28 15.4709 1
3 0 -2 6459.54 19.4335 1
3 0 0 12548.1 32.8707 1
3 0 2 34.1714 3.75135 1
-3 0 -4 12409.8 40.7049 1
3 0 6 4803.86 34.1833 1
3 0 8 395.213 11.096 1
3 1 -10 169.564 12.2825 1
3 1 -9 19.5667 6.42221 1
3 -1 -8 711.156 8.71233 1
3 -1 -7 2320.34 14.5997 1
3 -1 -6 207.86 7.16621 1
-3 -1 5 2213.29 13.2016 1
3 -1 -4 2677.8 10.5479 1
3 1 -3 679.095 5.80562 1
3 1 -2 1646.37 8.46097 1
3 1 -1 11770.7 25.2589 1
3 1 0 2947.33 11.1111 1
3 -1 1 3784.12 9.95257 1
3 -1 2 4644.1 9.45977 1
3 1 3 2665.66 8.57837 1
3 -1 4 288.261 6.2382 1
-3 1 -5 4751.78 19.4256 1
3 -1 6 950.865 15.1814 1
3 1 7 336.157 10.963 1
3 1 8 663.262 10.4251 1
3 1 9 646.816 16.4283 1
3 2 -10 141.468 11.0562 1
3 -2 -9 2364.66 19.0655 1
3 2 -8 17.0751 5.2951 1
3 -2 -7 521.051 9.30225 1
3 -2 -6 721.944 9.04674 1
3 2 -5 2771.43 12.9116 1
3 2 -4 64.2175 4.10318 1
3 2 -3 8887.66 18.2724 1
3 -2 -2 1273.52 8.42837 1
3 2 -1 885.298 6.85835 1
3 2 0 2479.64 10.2166 1
3 -2 1 8220.67 14.4891 1
3 2 2 168.59 3.39297 1
-3 -2 -3 7642.72 15.1869 1
3 2 4 507.196 6.5845 1
3 -2 5 85.2939 5.54035 1
3 -2 6 271.834 10.8293 1
3 -2 7 2781.09 15.8789 1
3 2 8 3.54632 5.83536 1
3 2 9 367.183 13.6962 1
3 -3 -10 824.69 12.8834 1
3 -3 -9 4.56615 4.97052 1
3 3 -8 2284.11 14.6915 1
3 -3 -7 277.461 7.28028 1
3 3 -6 601.601 8.02803 1
3 3 -5 12.7174 3.66731 1
3 3 -4 15681.4 28.003 1
3 3 -3 20.5948 3.64022 1
3 3 -2 5914.88 13.3089 1
3 3 -1 193.152 4.12243 1
3 3 0 1795.36 7.476 1
3 3 1 50.3527 3.3955 1
3 -3 2 12519.8 15.9454 1
3 3 3 190.47 4.31893 1
3 3 4 1402.7 8.63924 1
3 3 5 92.8455 5.93992 1
3 -3 6 4985.64 29.1282 1
3 -3 7 4.42945 5.50858 1
3 3 8 2571.15 24.9729 1
3 -3 9 8.14381 5.79298 1
3 4 -10 184.801 6.23591 1
-3 4 9 795.401 8.59033 1
3 -4 -8 418.09 8.23567 1
3 -4 -7 375.458 9.93662 1
3 -4 -6 3163.64 16.7561 1
3 -4 -5 753.056 7.36474 1
3 4 -4 2080.98 12.0372 1
3 4 -3 7309.14 17.1606 1
3 4 -2 5193.13 11.953 1
3 -4 -1 146.95 3.78473 1
3 4 0 3580.91 9.50518 1
3 4 1 7634.95 15.1021 1
3 4 2 134.018 4.04479 1
3 4 3 4965.24 14.8093 1
3 -4 4 2791.78 12.8725 1
3 4 5 22.4841 5.2519 1
3 -4 6 1237.38 15.1474 1
3 -4 7 2084.94 17.38 1
3 4 8 35.482 7.78343 1
3 -4 9 63.1505 9.40612 1
-3 -5 10 10.9077 4.13655 1
3 5 -9 15.4048 4.18737 1
3 -5 -8 136.952 7.05209 1
3 -5 -7 3011.92 19.7329 1
3 5 -6 46.0209 6.22908 1
3 -5 -5 3160.35 13.435 1
3 5 -4 385.071 6.90925 1
3 5 -3 965.515 6.83563 1
3 5 -2 513.903 5.34593 1
3 5 -1 15589.7 21.7873 1
3 5 0 38.2012 3.21807 1
3 5 1 6164.05 12.7939 1
3 -5 2 585.729 5.74418 1
3 5 3 3751.33 13.2427 1
3 5 4 10.5268 4.84086 1
3 5 5 11072.9 30.3802 1
3 -5 6 0.70587 6.99168 1
3 -5 7 261.318 8.34174 1
3 -5 8 15.5512 8.43693 1
3 6 -10 476.196 8.55925 1
3 -6 -9 246.268 5.51823 1
3 -6 -8 1023.6 16.9566 1
3 6 -7 237.936 8.69228 1
3 -6 -6 5045.86 21.3146 1
3 -6 -5 357.25 6.37586 1
3 6 -4 213.731 5.51222 1
3 6 -3 1565.66 8.44526 1
3 -6 -2 10364 18.9376 1
3 -6 -1 830.169 6.21883 1
3 6 0 11858.9 17.0913 1
3 -6 1 1010.71 5.78882 1
3 6 2 109.241 4.16123 1
3 -6 3 780.345 7.97238 1
3 6 4 8418.4 29.5641 1
3 -6 5 101.829 6.5039 1
3 -6 6 1850.37 17.0145 1
3 6 7 163.47 6.2376 1
3 -6 8 140.652 6.25651 1
3 7 -10 309.813 7.93503 1
-3 -7 9 5.67234 3.74754 1
3 7 -8 1084.94 19.0561 1
3 -7 -7 678.636 9.89237 1
3 -7 -6 203.874 6.62064 1
3 -7 -5 1347.2 9.88373 1
3 7 -4 6285.4 19.8412 1
3 7 -3 262.381 4.59384 1
3 -7 -2 4527.41 12.5026 1
3 7 -1 6089.77 15.0757 1
3 -7 0 2485.74 8.79462 1
3 7 1 1151.63 7.02475 1
3 7 2 5453.72 17.6363 1
3 -7 3 101.629 5.3631 1
3 -7 4 201.069 7.72707 1
3 -7 5 1141.97 12.3257 1
3 -7 6 1052.69 12.5376 1
3 -7 7 58.9397 5.46365 1
3 7 8 1665.81 13.3083 1
3 8 -10 7.02243 4.24482 1
3 8 -9 1418.68 11.043 1
3 -8 -8 7.01673 9.21719 1
3 -8 -7 732.271 11.5582 1
3 -8 -6 26.0208 4.79187 1
3 8 -5 3289.98 13.5568 1
3 8 -4 241.358 5.15669 1
3 -8 -3 6748.22 15.8997 1
3 -8 -2 34.5562 3.83587 1
3 -8 -1 18.5377 3.74637 1
3 8 0 50.3161 3.63115 1
3 8 1 9682.6 17.6219 1
3 -8 2 144.107 5.78355 1
3 -8 3 13118.5 30.7974 1
3 -8 4 554.556 10.8529 1
3 -8 5 17.8872 6.58659 1
3 -8 6 -1.85109 6.29415 1
3 -8 7 3887.91 17.2933 1
3 8 8 8.12463 4.79931 1
3 -9 -10 302.137 9.9315 1
3 9 -9 10.6007 5.60251 1
3 9 -8 2047.57 16.4158 1
3 -9 -7 488.141 7.63961 1
3 -9 -6 54.8725 5.17318 1
3 9 -5 1028.36 9.0351 1
3 9 -4 5956.46 17.5576 1
3 -9 -3 297.764 5.12443 1
3 -9 -2 5097.43 16.2361 1
3 -9 -1 2641.28 10.196 1
3 -9 0 1968.64 8.42389 1
3 9 1 1047.36 7.67245 1
3 -9 2 11964.8 25.4364 1
3 -9 3 616.283 9.53509 1
3 -9 4 865.096 12.1258 1
3 -9 5 1018.88 10.7856 1
3 -9 6 1614.95 14.184 1
3 9 7 27.1688 5.50424 1
3 9 8 1406.69 16.0748 1
3 10 -9 164.751 5.37468 1
3 10 -8 586.496 8.4994 1
3 -10 -7 77.7782 5.78336 1
3 -10 -6 4330.3 17.2262 1
3 10 -5 383.988 6.99112 1
3 -10 -4 852.558 9.68441 1
3 -10 -3 1192.24 8.96298 1
3 -10 -2 3824.39 14.6811 1
3 -10 -1 27.6837 3.98983 1
3 -10 0 9550.31 17.3145 1
3 10 1 1228.38 9.94862 1
3 10 2 651.588 7.78262 1
3 -10 3 463.014 8.07704 1
3 -10 4 5138.56 24.9252 1
3 -10 5 50.5784 5.74386 1
3 -10 6 1532.82 15.0678 1
3 10 7 851.404 16.3985 1
3 10 8 189.753 7.2197 1
3 11 -9 1.37335 3.42329 1
3 -11 -8 62.7634 5.87904 1
3 11 -7 2544.51 14.3629 1
3 -11 -6 15.8393 5.89589 1
3 11 -5 2725.99 17.4125 1
3 11 -4 44.7232 5.32354 1
3 -11 -3 1824.81 12.395 1
3 -11 -2 29.7712 4.68531 1
3 -11 -1 8093.12 18.7944 1
3 11 0 275.123 5.75832 1
3 11 1 5029.72 21.0603 1
3 11 2 979.06 9.56286 1
3 -11 3 1209.3 11.1573 1
3 -11 4 193.048 8.64276 1
3 -11 5 6812.09 23.8945 1
3 11 6 16.9746 6.57389 1
3 11 7 182.703 9.41175 1
3 11 8 2.25916 3.89757 1
3 12 -9 298.388 5.66626 1
3 12 -8 494.006 8.39878 1
3 -12 -7 89.7273 5.14856 1
3 -12 -6 2574.08 18.6092 1
3 12 -5 681.744 11.8105 1
3 -12 -4 308.375 6.99524 1
3 -12 -3 3021.34 15.9795 1
3 -12 -2 2659.14 14.7624 1
3 12 -1 8.23052 4.61382 1
3 -12 0 4151.21 15.0872 1
3 -12 1 1774.62 13.6796 1
3 12 2 716.404 8.7797 1
3 -12 3 1116.45 12.1694 1
3 -12 4 4303.04 35.5589 1
3 12 5 28.7844 6.01565 1
3 12 6 2483.84 17.9239 1
3 12 7 1317.07 17.6381 1
3 13 -9 5.78783 3.67187 1
3 13 -8 1663.52 12.1438 1
3 13 -7 110.987 4.8555 1
3 -13 -6 92.31 6.29429 1
3 13 -5 324.442 9.43717 1
3 13 -4 5198.28 20.1271 1
3 -13 -3 31.5869 5.54466 1
3 -13 -2 4646.68 17.9175 1
3 -13 -1 355.729 6.79494 1
3 -13 0 1158.11 11.5762 1
3 13 1 246.926 7.01326 1
3 13 2 5646.16 19.6401 1
3 13 3 606.103 9.80492 1
3 13 4 332.884 12.0277 1
3 13 5 310.925 7.71275 1
3 13 6 1685.81 14.2803 1
3 13 7 18.5558 6.04566 1
3 14 -8 56.7913 5.12315 1
3 -14 -7 414.486 6.27149 1
3 -14 -6 282.038 7.67241 1
3 14 -5 1566.46 13.5927 1
3 -14 -4 44.258 5.70592 1
3 -14 -3 3960.72 18.0222 1
3 -14 -2 295.37 6.83721 1
3 -14 -1 104.869 5.9529 1
3 -14 0 360.451 7.93119 1
3 14 1 5145.57 20.3115 1
3 14 2 93.6253 6.4293 1
3 14 3 7621.03 29.708 1
3 14 4 1599.26 19.9845 1
3 14 5 245.719 6.93636 1
3 14 6 127.71 8.10934 1
3 14 7 2853.61 21.0703 1
3 15 -8 283.824 6.03061 1
3 -15 -7 819.677 8.23202 1
3 15 -6 47.0667 5.44315 1
3 15 -5 1703.93 14.8221 1
3 -15 -4 2085.02 13.7331 1
3 -15 -3 18.4359 6.02838 1
3 -15 -2 1276.22 11.2371 1
3 -15 -1 3690.66 20.9327 1
3 -15 0 925.967 10.4354 1
3 15 1 662.351 8.57894 1
3 15 2 1492.89 12.3258 1
3 15 3 962.483 11.7882 1
3 15 4 274.231 9.5391 1
3 15 5 2238.25 15.7509 1
3 15 6 540.473 9.77764 1
3 15 7 126.24 5.51466 1
-3 16 8 312.394 9.10212 1
3 -16 -7 8.98261 3.62007 1
3 -16 -6 3043.11 15.8878 1
3 16 -5 9.8352 5.49899 1
3 16 -4 261.961 8.96143 1
3 -16 -3 11.8675 5.71136 1
3 -16 -2 3955.46 20.5069 1
3 -16 -1 6.91056 7.3931 1
3 -16 0 3504.98 17.2851 1
3 16 1 87.8325 5.82708 1
3 16 2 24.837 5.47693 1
3 16 3 115.928 7.1897 1
3 16 4 4431.44 31.6068 1
3 16 5 26.5185 4.9167 1
3 16 6 969.729 18.7229 1
3 -17 -7 989.456 16.9733 1
3 17 -6 16.3169 5.04941 1
3 17 -5 1009.84 13.8416 1
3 17 -4 946.2 12.1014 1
3 -17 -3 272.361 6.76479 1
3 -17 -2 307.539 9.22237 1
3 -17 -1 4433.45 21.4741 1
3 17 0 112.413 6.49434 1
3 17 1 2255.86 13.7976 1
3 17 2 903.142 9.47485 1
3 17 3 1117.39 10.865 1
3 17 4 11.702 7.53303 1
3 17 5 3005.18 15.2341 1
3 17 6 102.787 8.72939 1
3 18 -7 155.973 7.55387 1
3 -18 -6 506.686 7.52972 1
3 18 -5 423.716 9.40317 1
3 18 -4 313.289 11.0004 1
3 -18 -3 1955.23 14.6977 1
3 -18 -2 1131.16 11.4634 1
3 18 -1 32.1524 5.73027 1
3 18 0 1104.75 10.5127 1
3 18 1 4511.09 17.7966 1
3 -18 2 4.96019 4.80854 1
3 18 3 2111.54 14.7186 1
3 18 4 833.495 10.324 1
3 18 5 5.45384 4.21937 1
3 18 6 223.957 7.3128 1
-3 19 7 122.039 9.16675 1
3 19 -6 17.5957 3.72415 1
3 -19 -5 220.332 6.2922 1
3 19 -4 4256.53 34.1872 1
3 -19 -3 77.5056 6.42066 1
3 -19 -2 1533.74 11.3998 1
3 19 -1 6.042 5.1568 1
3 19 0 912.661 9.66852 1
3 19 1 7.33866 4.65507 1
3 -19 2 4928.13 19.6353 1
3 19 3 49.6919 6.33742 1
3 19 4 591.808 7.38998 1
3 19 5 81.1394 4.17429 1
3 20 -6 629.457 9.1234 1
3 -20 -5 826.741 11.1267 1
3 -20 -4 49.3788 10.1421 1
3 -20 -3 1975.57 12.9982 1
3 -20 -2 1140.88 9.28106 1
3 20 -1 240.195 7.11872 1
3 20 0 1452.58 9.93893 1
3 20 1 1811.68 13.1215 1
3 20 2 39.411 4.36504 1
3 20 3 1736.94 15.5718 1
3 20 4 754.405 6.5749 1
3 20 5 -1.70857 5.15874 1
3 -21 -5 230.057 6.85987 1
3 21 -4 256.941 9.08343 1
3 -21 -3 355.644 7.11074 1
3 -21 -2 134.526 5.31432 1
3 21 -1 3427.82 21.9224 1
3 21 0 90.3475 4.87778 1
3 -21 1 944.756 9.20003 1
3 21 2 357.638 6.76941 1
3 21 3 595.939 12.3161 1
3 21 4 6.03917 3.72543 1
3 -22 -5 119.3 5.89288 1
3 22 -4 108.149 7.30262 1
3 -22 -3 157.2 6.2029 1
3 -22 -2 1619.63 10.3297 1
3 22 -1 11.4699 5.06835 1
3 22 0 2498.62 15.7809 1
3 -22 1 74.0272 5.0762 1
3 22 2 1.13419 4.12121 1
3 22 3 102.49 6.23558 1
3 23 -4 728.798 9.83448 1
3 23 -3 76.5981 4.90314 1
3 -23 -2 551.577 6.52151 1
3 23 -1 1544.44 11.5005 1
3 23 0 602.055 9.20723 1
3 -23 1 307.766 6.88705 1
3 23 2 1330.99 14.652 1
3 24 -3 949.369 17.0207 1
3 24 -2 11.0732 5.25716 1
3 24 -1 57.2247 5.71576 1
3 24 0 32.0529 3.68158 1
3 -24 1 984.879 14.9957 1
4 0 6 3275.77 30.274 -2
4 0 -8 3275.77 30.274 1
4 0 4 3721.03 31.1138 -2
4 0 -6 3721.03 31.1138 1
4 0 2 9417.48 40.8924 -2
4 0 -4 9417.48 40.8924 1
4 0 0 5139.37 28.5155 -2
4 0 -2 5139.37 28.5155 1
4 0 -2 4574.37 23.9219 -2
4 0 0 4574.37 23.9219 1
4 0 -4 9482.12 52.6727 -2
4 0 2 9482.12 52.6727 1
4 0 -6 3085.26 38.4394 -2
4 0 4 3085.26 38.4394 1
4 0 -8 2190.44 31.9589 -2
4 0 6 2190.44 31.9589 1
4 -1 6 1295.82 15.1793 -2
4 1 -8 1295.82 15.1793 1
4 -1 5 813.469 12.793 -2
4 1 -7 813.469 12.793 1
4 -1 4 1291.67 15.8623 -2
4 1 -6 1291.67 15.8623 1
4 -1 3 3690.59 26.4079 -2
4 1 -5 3690.59 26.4079 1
4 1 2 657.467 10.083 -2
4 -1 -4 657.467 10.083 1
4 1 1 5606.44 22.1708 -2
4 -1 -3 5606.44 22.1708 1
4 1 0 2854.1 15.6352 -2
4 -1 -2 2854.1 15.6352 1
4 -1 -1 2541.63 17.7349 -2
4 1 -1 2541.63 17.7349 1
4 -1 -2 3076.33 15.7012 -2
4 1 0 3076.33 15.7012 1
4 1 -3 5279.6 17.7707 -2
4 -1 1 5279.6 17.7707 1
4 1 -4 601.894 12.5692 -2
4 -1 2 601.894 12.5692 1
4 1 -5 3632.9 22.544 -2
4 -1 3 3632.9 22.544 1
4 1 -6 1008.89 20.3119 -2
4 -1 4 1008.89 20.3119 1
4 1 -7 553.091 17.3459 -2
4 -1 5 553.091 17.3459 1
4 1 -8 910.93 15.8407 -2
4 -1 6 910.93 15.8407 1
4 -2 6 212.586 7.25013 -2
4 2 -8 212.586 7.25013 1
4 2 5 3788.07 23.6751 -2
4 -2 -7 3788.07 23.6751 1
4 -2 4 211.314 8.84323 -2
4 2 -6 211.314 8.84323 1
4 2 3 2635.22 19.0177 -2
4 -2 -5 2635.22 19.0177 1
4 2 2 848.141 10.2429 -2
4 -2 -4 848.141 10.2429 1
4 2 1 3516.62 17.9227 -2
4 -2 -3 3516.62 17.9227 1
4 2 0 802.969 9.41517 -2
4 -2 -2 802.969 9.41517 1
4 -2 -1 7535.12 28.5414 -2
4 2 -1 7535.12 28.5414 1
4 2 -2 703.056 9.18345 -2
4 -2 0 703.056 9.18345 1
4 2 -3 3919.17 17.3082 -2
4 -2 1 3919.17 17.3082 1
4 2 -4 819.039 10.7739 -2
4 -2 2 819.039 10.7739 1
4 -2 -5 1938.49 19.8078 -2
4 2 3 1938.49 19.8078 1
4 2 -6 197.847 13.8882 -2
4 -2 4 197.847 13.8882 1
4 2 -7 3213.98 47.2674 -2
4 -2 5 3213.98 47.2674 1
4 2 -8 123.387 9.39281 -2
4 -2 6 123.387 9.39281 1
4 3 6 2492.94 31.1097 -2
4 -3 -8 2492.94 31.1097 1
4 -3 5 13.5964 7.25544 -2
4 3 -7 13.5964 7.25544 1
4 -3 4 7315.44 33.0853 -2
4 3 -6 7315.44 33.0853 1
4 3 3 128.732 8.42161 -2
4 -3 -5 128.732 8.42161 1
4 3 2 2349.44 15.1516 -2
4 -3 -4 2349.44 15.1516 1
4 3 1 191.777 6.24051 -2
4 -3 -3 191.777 6.24051 1
4 3 0 6600.76 21.5664 -2
4 -3 -2 6600.76 21.5664 1
4 3 -1 52.3933 6.44056 -2
4 -3 -1 52.3933 6.44056 1
4 3 -2 7513.06 24.0115 -2
4 -3 0 7513.06 24.0115 1
4 3 -3 181.046 6.90019 -2
4 -3 1 181.046 6.90019 1
4 3 -4 1928.22 14.7561 -2
4 -3 2 1928.22 14.7561 1
4 3 -5 140.255 11.0042 -2
4 -3 3 140.255 11.0042 1
4 3 -6 6409.59 42.0596 -2
4 -3 4 6409.59 42.0596 1
4 3 -7 49.1621 15.6086 -2
4 -3 5 49.1621 15.6086 1
4 3 -8 2390.56 22.1195 -2
4 -3 6 2390.56 22.1195 1
4 4 6 782.702 13.2465 -2
4 -4 -8 782.702 13.2465 1
4 -4 5 2235.32 16.5721 -2
4 4 -7 2235.32 16.5721 1
4 4 4 1324.55 15.9097 -2
4 -4 -6 1324.55 15.9097 1
4 -4 3 1815.83 18.8127 -2
4 4 -5 1815.83 18.8127 1
4 4 2 3109.05 18.8802 -2
4 -4 -4 3109.05 18.8802 1
4 4 1 2371.02 14.258 -2
4 -4 -3 2371.02 14.258 1
4 4 0 1521.5 11.4517 -2
4 -4 -2 1521.5 11.4517 1
4 4 -1 5974.78 21.2707 -2
4 -4 -1 5974.78 21.2707 1
4 -4 -2 1354.78 12.9894 -2
4 4 0 1354.78 12.9894 1
4 4 -3 2675.57 16.4121 -2
4 -4 1 2675.57 16.4121 1
4 4 -4 2908.73 20.0419 -2
4 -4 2 2908.73 20.0419 1
4 -4 -5 1296.87 20.6366 -2
4 4 3 1296.87 20.6366 1
4 4 -6 1166.18 20.9247 -2
4 -4 4 1166.18 20.9247 1
4 4 -7 1993.51 37.8338 -2
4 -4 5 1993.51 37.8338 1
4 4 -8 412.994 11.667 -2
4 -4 6 412.994 11.667 1
4 -5 6 17.6348 6.09052 -2
4 5 -8 17.6348 6.09052 1
4 -5 5 876.079 12.241 -2
4 5 -7 876.079 12.241 1
4 -5 4 182.643 9.603 -2
4 5 -6 182.643 9.603 1
4 5 3 6839.05 42.8713 -2
4 -5 -5 6839.05 42.8713 1
4 5 2 112.553 7.09289 -2
4 -5 -4 112.553 7.09289 1
4 5 1 7185.73 23.0327 -2
4 -5 -3 7185.73 23.0327 1
4 5 0 216.229 7.28402 -2
4 -5 -2 216.229 7.28402 1
4 -5 -1 4013.73 18.0833 -2
4 5 -1 4013.73 18.0833 1
4 5 -2 236.258 7.90387 -2
4 -5 0 236.258 7.90387 1
4 5 -3 6756.74 27.5207 -2
4 -5 1 6756.74 27.5207 1
4 5 -4 73.6385 8.79249 -2
4 -5 2 73.6385 8.79249 1
4 -5 -5 7128.29 41.0453 -2
4 5 3 7128.29 41.0453 1
4 5 -6 120.729 14.3278 -2
4 -5 4 120.729 14.3278 1
4 5 -7 632.45 17.6341 -2
4 -5 5 632.45 17.6341 1
4 5 -8 27.2914 7.22651 -2
4 -5 6 27.2914 7.22651 1
4 -6 6 1368.69 12.6126 -2
4 6 -8 1368.69 12.6126 1
4 -6 5 303.659 8.54007 -2
4 6 -7 303.659 8.54007 1
4 6 4 1049.11 15.5582 -2
4 -6 -6 1049.11 15.5582 1
4 6 3 402.157 14.0772 -2
4 -6 -5 402.157 14.0772 1
4 6 2 7826.38 29.2201 -2
4 -6 -4 7826.38 29.2201 1
4 6 1 697.774 9.73516 -2
4 -6 -3 697.774 9.73516 1
4 6 0 4476.01 19.2603 -2
4 -6 -2 4476.01 19.2603 1
4 -6 -1 595.107 9.90174 -2
4 6 -1 595.107 9.90174 1
4 -6 -2 4191.8 17.8836 -2
4 6 0 4191.8 17.8836 1
4 6 -3 707.678 12.8915 -2
4 -6 1 707.678 12.8915 1
4 6 -4 7669.04 35.0699 -2
4 -6 2 7669.04 35.0699 1
4 -6 -5 266.504 12.4242 -2
4 6 3 266.504 12.4242 1
4 6 -6 968.497 22.6855 -2
4 -6 4 968.497 22.6855 1
4 6 -7 255.454 13.3318 -2
4 -6 5 255.454 13.3318 1
4 -6 -8 808.695 17.5518 -2
4 6 6 808.695 17.5518 1
4 -7 6 1677.99 24.6807 -2
4 7 -8 1677.99 24.6807 1
4 -7 5 305.192 7.05767 -2
4 7 -7 305.192 7.05767 1
4 7 4 3113.16 22.7195 -2
4 -7 -6 3113.16 22.7195 1
4 -7 3 745.507 17.2963 -2
4 7 -5 745.507 17.2963 1
4 7 2 1329.74 14.0497 -2
4 -7 -4 1329.74 14.0497 1
4 7 1 2113.55 13.956 -2
4 -7 -3 2113.55 13.956 1
4 7 0 3154.78 16.3471 -2
4 -7 -2 3154.78 16.3471 1
4 -7 -1 667.274 10.5705 -2
4 7 -1 667.274 10.5705 1
4 -7 -2 3393.07 18.9654 -2
4 7 0 3393.07 18.9654 1
4 7 -3 1910.91 18.6384 -2
4 -7 1 1910.91 18.6384 1
4 7 -4 969.523 17.5639 -2
4 -7 2 969.523 17.5639 1
4 -7 -5 777.92 15.9127 -2
4 7 3 777.92 15.9127 1
4 7 -6 2008.1 29.2971 -2
4 -7 4 2008.1 29.2971 1
4 7 -7 228.329 12.7574 -2
4 -7 5 228.329 12.7574 1
4 -7 -8 1198.61 18.2405 -2
4 7 6 1198.61 18.2405 1
4 -8 5 3853.39 20.9799 -2
4 8 -7 3853.39 20.9799 1
4 8 4 48.661 9.1743 -2
4 -8 -6 48.661 9.1743 1
4 -8 3 1897.56 20.3805 -2
4 8 -5 1897.56 20.3805 1
4 8 2 238.05 8.34245 -2
4 -8 -4 238.05 8.34245 1
4 8 1 4844.65 24.6585 -2
4 -8 -3 4844.65 24.6585 1
4 -8 0 29.2917 6.88788 -2
4 8 -2 29.2917 6.88788 1
4 -8 -1 8944.62 30.2634 -2
4 8 -1 8944.62 30.2634 1
4 8 -2 15.4705 8.1184 -2
4 -8 0 15.4705 8.1184 1
4 8 -3 5696.58 28.6615 -2
4 -8 1 5696.58 28.6615 1
4 8 -4 243.682 11.4489 -2
4 -8 2 243.682 11.4489 1
4 -8 -5 1234.19 21.1452 -2
4 8 3 1234.19 21.1452 1
4 8 -6 20.5363 9.29291 -2
4 -8 4 20.5363 9.29291 1
4 -8 -7 3931.02 44.7695 -2
4 8 5 3931.02 44.7695 1
4 -9 5 225.942 8.66954 -2
4 9 -7 225.942 8.66954 1
4 9 4 2769.09 17.5135 -2
4 -9 -6 2769.09 17.5135 1
4 -9 3 663.74 13.2382 -2
4 9 -5 663.74 13.2382 1
4 9 2 1528.19 14.8467 -2
4 -9 -4 1528.19 14.8467 1
4 9 1 1153.38 13.4658 -2
4 -9 -3 1153.38 13.4658 1
4 9 0 5877.68 25.0928 -2
4 -9 -2 5877.68 25.0928 1
4 -9 -1 814.509 11.9265 -2
4 9 -1 814.509 11.9265 1
4 -9 -2 6223.89 33.7049 -2
4 9 0 6223.89 33.7049 1
4 -9 -3 1057.76 13.7538 -2
4 9 1 1057.76 13.7538 1
4 9 -4 1326.75 20.6892 -2
4 -9 2 1326.75 20.6892 1
4 9 -5 620.595 13.9342 -2
4 -9 3 620.595 13.9342 1
4 9 -6 2180.38 22.9048 -2
4 -9 4 2180.38 22.9048 1
4 -9 -7 154.33 14.9458 -2
4 9 5 154.33 14.9458 1
4 10 5 914.576 11.7367 -2
4 -10 -7 914.576 11.7367 1
4 10 4 1180.85 13.0411 -2
4 -10 -6 1180.85 13.0411 1
4 -10 3 421.47 11.5272 -2
4 10 -5 421.47 11.5272 1
4 10 2 4251.63 21.4253 -2
4 -10 -4 4251.63 21.4253 1
4 10 1 240.039 9.40359 -2
4 -10 -3 240.039 9.40359 1
4 10 0 3404.94 21.9895 -2
4 -10 -2 3404.94 21.9895 1
4 -10 -1 969.941 16.8619 -2
4 10 -1 969.941 16.8619 1
4 -10 -2 3089.78 24.1838 -2
4 10 0 3089.78 24.1838 1
4 -10 -3 262.139 13.6666 -2
4 10 1 262.139 13.6666 1
4 -10 -4 3564.54 45.6342 -2
4 10 2 3564.54 45.6342 1
4 -10 -5 258.751 11.8665 -2
4 10 3 258.751 11.8665 1
4 -10 -6 916.816 18.6627 -2
4 10 4 916.816 18.6627 1
4 -10 -7 754.286 19.7026 -2
4 10 5 754.286 19.7026 1
4 -11 5 779.393 9.716 -2
4 11 -7 779.393 9.716 1
4 11 4 41.0895 6.14967 -2
4 -11 -6 41.0895 6.14967 1
4 -11 3 4682.64 23.1629 -2
4 11 -5 4682.64 23.1629 1
4 11 2 128.12 8.88768 -2
4 -11 -4 128.12 8.88768 1
4 11 1 4187.97 24.7102 -2
4 -11 -3 4187.97 24.7102 1
4 -11 0 469.35 12.3766 -2
4 11 -2 469.35 12.3766 1
4 -11 -1 2759.77 22.5148 -2
4 11 -1 2759.77 22.5148 1
4 -11 -2 477.016 13.3442 -2
4 11 0 477.016 13.3442 1
4 -11 -3 3144.98 55.566 -2
4 11 1 3144.98 55.566 1
4 -11 -4 89.2611 14.5642 -2
4 11 2 89.2611 14.5642 1
4 -11 -5 3634.8 22.528 -2
4 11 3 3634.8 22.528 1
4 -11 -6 37.1075 9.53989 -2
4 11 4 37.1075 9.53989 1
4 -11 -7 428.564 14.6102 -2
4 11 5 428.564 14.6102 1
4 -12 4 1151.17 17.1453 -2
4 12 -6 1151.17 17.1453 1
4 12 3 1010.47 13.7505 -2
4 -12 -5 1010.47 13.7505 1
4 -12 2 3652.44 28.3328 -2
4 12 -4 3652.44 28.3328 1
4 12 1 443.364 11.6373 -2
4 -12 -3 443.364 11.6373 1
4 -12 0 1981.89 22.2794 -2
4 12 -2 1981.89 22.2794 1
4 -12 -1 1473.96 18.0534 -2
4 12 -1 1473.96 18.0534 1
4 -12 -2 1579.13 17.9583 -2
4 12 0 1579.13 17.9583 1
4 -12 -3 479.51 16.01 -2
4 12 1 479.51 16.01 1
4 -12 -4 3082.17 29.4926 -2
4 12 2 3082.17 29.4926 1
4 -12 -5 572.996 12.7751 -2
4 12 3 572.996 12.7751 1
4 -12 -6 1104.04 17.3961 -2
4 12 4 1104.04 17.3961 1
4 13 4 3277.62 17.45 -2
4 -13 -6 3277.62 17.45 1
4 13 3 286.091 8.39706 -2
4 -13 -5 286.091 8.39706 1
4 -13 2 1477.71 17.688 -2
4 13 -4 1477.71 17.688 1
4 13 1 285.137 9.40381 -2
4 -13 -3 285.137 9.40381 1
4 -13 0 3328.37 34.549 -2
4 13 -2 3328.37 34.549 1
4 -13 -1 228.83 9.94191 -2
4 13 -1 228.83 9.94191 1
4 -13 -2 3128.38 28.2682 -2
4 13 0 3128.38 28.2682 1
4 -13 -3 241.341 14.9105 -2
4 13 1 241.341 14.9105 1
4 -13 -4 1047.69 17.5318 -2
4 13 2 1047.69 17.5318 1
4 -13 -5 218.684 12.7351 -2
4 13 3 218.684 12.7351 1
4 -13 -6 2466.34 30.5457 -2
4 13 4 2466.34 30.5457 1
4 14 4 81.0282 9.79896 -2
4 -14 -6 81.0282 9.79896 1
4 14 3 1460.79 13.0688 -2
4 -14 -5 1460.79 13.0688 1
4 -14 2 1020.61 13.0416 -2
4 14 -4 1020.61 13.0416 1
4 14 1 3448.33 24.9313 -2
4 -14 -3 3448.33 24.9313 1
4 -14 0 156.687 10.0002 -2
4 14 -2 156.687 10.0002 1
4 -14 -1 4374.21 31.2801 -2
4 14 -1 4374.21 31.2801 1
4 -14 -2 113.163 11.3735 -2
4 14 0 113.163 11.3735 1
4 -14 -3 3782.63 35.9749 -2
4 14 1 3782.63 35.9749 1
4 -14 -4 804.779 18.0506 -2
4 14 2 804.779 18.0506 1
4 -14 -5 748.318 15.99 -2
4 14 3 748.318 15.99 1
4 -14 -6 101.188 9.98861 -2
4 14 4 101.188 9.98861 1
4 15 3 1440.95 15.0405 -2
4 -15 -5 1440.95 15.0405 1
4 -15 2 452.456 11.9598 -2
4 15 -4 452.456 11.9598 1
4 -15 1 1719.94 14.6558 -2
4 15 -3 1719.94 14.6558 1
4 -15 0 1203.63 22.8086 -2
4 15 -2 1203.63 22.8086 1
4 -15 -1 352.578 13.5698 -2
4 15 -1 352.578 13.5698 1
4 -15 -2 1082.8 18.1078 -2
4 15 0 1082.8 18.1078 1
4 -15 -3 1673.33 32.5757 -2
4 15 1 1673.33 32.5757 1
4 -15 -4 279.02 11.5974 -2
4 15 2 279.02 11.5974 1
4 -15 -5 1165.06 16.5401 -2
4 15 3 1165.06 16.5401 1
4 16 3 24.4854 8.06292 -2
4 -16 -5 24.4854 8.06292 1
4 -16 2 4242.4 38.6471 -2
4 16 -4 4242.4 38.6471 1
4 16 1 57.1445 6.923 -2
4 -16 -3 57.1445 6.923 1
4 16 0 1565.97 22.4125 -2
4 -16 -2 1565.97 22.4125 1
4 -16 -1 35.1305 8.8794 -2
4 16 -1 35.1305 8.8794 1
4 -16 -2 1209.38 17.2859 -2
4 16 0 1209.38 17.2859 1
4 -16 -3 49.239 10.3178 -2
4 16 1 49.239 10.3178 1
4 -16 -4 1835.41 26.4606 -2
4 16 2 1835.41 26.4606 1
4 -16 -5 22.7312 8.04953 -2
4 16 3 22.7312 8.04953 1
4 17 2 90.0756 10.5332 -2
4 -17 -4 90.0756 10.5332 1
4 17 1 2235.54 18.2278 -2
4 -17 -3 2235.54 18.2278 1
4 17 0 387.54 12.251 -2
4 -17 -2 387.54 12.251 1
4 -17 -1 1430.34 16.9736 -2
4 17 -1 1430.34 16.9736 1
4 -17 -2 422.335 10.6749 -2
4 17 0 422.335 10.6749 1
4 -17 -3 1732.32 19.7459 -2
4 17 1 1732.32 19.7459 1
4 -17 -4 57.9355 7.52027 -2
4 17 2 57.9355 7.52027 1
4 -18 1 872.23 21.1642 -2
4 18 -3 872.23 21.1642 1
4 18 0 316.646 9.48414 -2
4 -18 -2 316.646 9.48414 1
4 -18 -1 3076.01 19.1901 -2
4 18 -1 3076.01 19.1901 1
4 -18 -2 340.108 9.18481 -2
4 18 0 340.108 9.18481 1
4 -18 -3 723.888 19.0166 -2
4 18 1 723.888 19.0166 1
4 -19 -1 14.3181 6.68387 -2
4 19 -1 14.3181 6.68387 1
5 0 -4 479.153 24.0155 1
5 1 -4 103.217 11.8435 1
5 1 -3 148.476 14.2763 1
5 2 -3 698.633 19.6306 1
5 3 -3 3.65021 12.1255 1
5 3 -2 1413.58 24.5313 1
5 3 -1 20.9698 12.1937 1
5 4 -3 394.416 9.28326 1
5 4 -2 32.1216 12.2712 1
5 4 -1 509.105 16.7263 1
5 5 -3 221.828 7.67604 1
5 5 -2 31.6993 13.3351 1
5 5 -1 403.423 14.528 1
5 5 0 3.21798 9.28252 1
5 6 -2 3.7891 7.24954 1
5 6 -1 86.6606 10.4275 1
5 6 0 812.323 12.6875 1
5 7 -1 9.6676 8.04406 1
-1 0 10 31.7102 6.01783 2
1 0 -8 3945.24 25.6201 2
1 0 -6 2185.68 38.9448 2
1 0 -4 12209.9 43.5246 2
1 0 -2 292966 148.85 2
1 0 0 26740.6 42.7583 2
-1 0 -2 11322.3 47.5929 2
-1 0 -4 14615.3 72.7327 2
1 0 6 38.2408 4.92374 2
1 0 8 7818.76 43.4207 2
1 0 10 3026.52 28.021 2
1 -1 -12 -9.45542 9.60851 2
-1 -1 11 74.3071 5.12184 2
-1 -1 10 799.182 10.0424 2
-1 -1 9 1587 10.9043 2
1 -1 -8 338.041 6.4208 2
1 1 -7 7702.4 22.9583 2
1 1 -6 1272.15 17.846 2
1 -1 -5 157.936 7.76268 2
1 1 -4 7011.87 24.4043 2
-1 1 3 12242 30.8257 2
1 1 -2 907.701 7.83812 2
1 -1 -1 9135.32 13.6321 2
1 -1 0 15581.6 52.4732 2
-1 1 -1 81.9673 5.80177 2
-1 1 -2 5053.14 20.4052 2
-1 1 -3 31164.7 57.5347 2
-1 1 -4 5337.77 28.2649 2
-1 1 -5 5843.83 42.247 2
1 -1 6 5372.08 17.7142 2
1 -1 7 1552.61 10.9448 2
1 -1 8 80.9375 6.28433 2
1 -1 9 2746.48 20.8124 2
1 1 10 550.071 13.9423 2
1 -1 11 213.353 10.403 2
1 -2 -12 27.9563 9.96016 2
-1 -2 11 1086.17 14.4336 2
-1 -2 10 10.2086 4.23371 2
1 2 -9 1672.65 11.7323 2
-1 -2 8 2033.3 12.3947 2
1 2 -7 2304.73 12.5282 2
1 2 -6 534.786 13.0977 2
1 2 -5 21012.2 67.0406 2
1 2 -4 158.16 7.61144 2
-1 2 3 4255.97 25.3019 2
1 2 -2 1333.43 11.1554 2
1 -2 -1 8078.86 25.4862 2
1 -2 0 1771.48 33.4645 2
-1 -2 -1 52088.5 65.4374 2
-1 2 -2 1212.63 8.91527 2
-1 2 -3 6839.44 27.3771 2
-1 2 -4 7482.86 35.2486 2
-1 2 -5 7833.24 48.4963 2
1 -2 6 106.02 4.02148 2
1 2 7 7235.54 21.5028 2
-1 2 -8 396.157 7.47784 2
1 2 9 35.4075 7.28121 2
1 2 10 177.671 9.72528 2
1 -2 11 1028.17 22.7135 2
1 -3 -12 99.6099 10.2063 2
-1 3 11 4.88153 4.24565 2
1 3 -10 2212.02 17.2181 2
1 -3 -9 60.4837 4.45491 2
-1 -3 8 199.027 5.32867 2
-1 -3 7 144.141 4.03382 2
1 3 -6 5632.63 37.1778 2
1 -3 -5 285.534 9.63772 2
1 3 -4 30192.1 60.3867 2
1 3 -3 547.591 8.52589 2
1 3 -2 1634.97 8.68044 2
1 3 -1 545.779 6.89763 2
1 3 0 105049 67.2145 2
-1 -3 -1 1292.9 12.3056 2
1 3 2 16630.2 33.8794 2
-1 3 -3 223.239 7.37067 2
-1 3 -4 913.104 13.5339 2
-1 3 -5 190.01 9.75503 2
1 -3 6 12432.7 27.7946 2
1 -3 7 150.536 4.84335 2
1 -3 8 1859.64 14.5036 2
1 -3 9 40.0026 6.61892 2
1 3 10 2096.66 18.9091 2
1 -3 11 6.63776 4.71559 2
-1 -4 12 232.36 8.33092 2
-1 4 11 427.421 8.52837 2
-1 4 10 40.8498 5.48347 2
-1 -4 9 1323.63 10.1219 2
-1 -4 8 2615.8 13.1522 2
-1 -4 7 547.9 6.47724 2
-1 -4 6 2551.51 17.3762 2
1 4 -5 9143.11 38.5768 2
1 4 -4 5128.09 24.5553 2
1 4 -3 3567.21 19.5707 2
1 4 -2 20999.1 33.9599 2
1 4 -1 3448.28 14.9001 2
1 4 0 20872 24.2678 2
-1 -4 -1 38723.6 78.7565 2
-1 -4 -2 14507.2 42.5247 2
-1 4 -3 889.476 10.9182 2
-1 4 -4 7009.29 29.8404 2
-1 4 -5 9159.32 43.1818 2
1 -4 6 15.8865 3.81513 2
1 -4 7 3800.26 16.4744 2
1 -4 8 2005.46 13.9351 2
1 4 9 6.59946 5.76158 2
1 4 10 642.239 10.4719 2
1 -4 11 676.376 14.4963 2
-1 5 11 126.36 4.81497 2
-1 -5 10 221.578 6.97801 2
-1 -5 9 1967.48 14.5664 2
-1 -5 8 111.034 4.58636 2
1 -5 -7 8860.57 21.1162 2
1 5 -6 420.213 5.65211 2
1 5 -5 1315.66 15.0924 2
1 5 -4 340.099 8.58427 2
1 5 -3 22078.2 50.5391 2
1 5 -2 74.6693 4.62308 2
-1 -5 1 25513.6 47.0691 2
1 5 0 410.41 4.79951 2
-1 -5 -1 6877.49 28.6318 2
-1 -5 -2 2961.56 21.4647 2
-1 -5 -3 41400.4 66.7513 2
-1 5 -4 282.711 8.43245 2
-1 5 -5 9090.69 45.3291 2
1 -5 6 1063.45 9.36403 2
1 5 7 2018.72 14.3801 2
1 5 8 12.6742 4.3854 2
1 5 9 5820.26 26.2743 2
1 5 10 18.0971 3.96602 2
1 -5 11 225.292 6.75772 2
-1 6 11 48.759 4.4298 2
-1 6 10 181.266 8.32267 2
-1 -6 9 200.196 6.16885 2
-1 -6 8 5021.35 19.0677 2
1 -6 -7 356.478 5.73578 2
1 6 -6 7779.48 19.9506 2
1 6 -5 2694.4 18.7512 2
1 6 -4 6931.64 28.735 2
1 6 -3 1931.53 16.0054 2
1 6 -2 39424.7 60.3637 2
1 6 -1 2017.74 11.9411 2
1 6 0 6284.54 14.8807 2
-1 6 -1 10484.2 25.2887 2
-1 6 -2 35606.4 64.4438 2
-1 -6 -3 2726.96 24.0843 2
-1 6 -4 17434.7 65.1511 2
1 -6 5 1692.53 16.7744 2
-1 6 -6 602.426 9.89448 2
-1 6 -7 305.252 8.14291 2
1 6 8 3907.36 20.183 2
1 6 9 67.3321 5.60077 2
1 6 10 1368.15 11.9428 2
1 -6 11 58.4068 4.62493 2
-1 7 11 25.4926 4.3372 2
1 7 -10 1330.75 17.4252 2
-1 -7 9 1274.12 11.1249 2
-1 -7 8 600.88 7.84666 2
-1 -7 7 2677.14 12.5303 2
1 7 -6 4905.33 16.585 2
1 7 -5 7.99979 5.83435 2
1 7 -4 5779.08 31.9302 2
1 7 -3 4841.96 25.7284 2
1 7 -2 257.717 7.52764 2
1 7 -1 6844.46 23.8023 2
1 7 0 18306.7 26.1769 2
-1 7 -1 119.679 4.6559 2
-1 -7 -2 16588.8 46.7395 2
-1 -7 -3 12953.5 43.6049 2
-1 7 -4 3538.52 29.1675 2
-1 7 -5 3455.18 23.5931 2
-1 7 -6 6148.43 28.2028 2
-1 7 -7 71.0691 5.52199 2
1 7 8 345.955 6.80693 2
1 7 9 950.255 10.2667 2
1 -7 10 385.012 7.09914 2
1 -7 11 28.2402 3.79659 2
-1 8 11 1729.97 19.5813 2
-1 8 10 189.085 8.50132 2
1 -8 -9 1460.86 12.9171 2
-1 -8 8 234.603 5.90717 2
-1 -8 7 806.114 7.7884 2
1 8 -6 6.92309 4.05148 2
1 8 -5 10478.1 42.6598 2
1 8 -4 832.88 14.107 2
1 8 -3 13401.2 34.8469 2
1 8 -2 25.8496 5.62264 2
1 8 -1 24815.4 49.3447 2
-1 8 0 4577.19 18.3468 2
-1 8 -1 21237 40.4388 2
-1 8 -2 72.0414 5.53098 2
-1 8 -3 438.754 8.21489 2
-1 8 -4 419.263 12.3301 2
1 8 5 9115.65 28.6173 2
-1 8 -6 715.896 10.7295 2
-1 8 -7 11903.8 36.7186 2
1 8 8 527.182 7.13937 2
1 8 9 61.6155 5.245 2
1 8 10 12.1236 4.73338 2
1 8 11 1315.92 15.5118 2
-1 9 11 101.368 4.7759 2
-1 9 10 1371.77 18.6384 2
1 -9 -9 339.997 7.42477 2
1 9 -8 638.943 8.65779 2
1 9 -7 1136.35 9.53224 2
1 9 -6 6439.77 22.206 2
1 9 -5 5.73929 5.59139 2
1 9 -4 21662.5 54.2716 2
1 9 -3 2944.78 18.68 2
1 9 -2 69.501 4.47029 2
-1 -9 1 4765.31 19.5092 2
-1 9 0 36846 57.8101 2
-1 9 -1 163.021 5.13882 2
-1 9 -2 22163.9 45.2523 2
-1 9 -3 5869.54 25.4751 2
-1 9 -4 3431.25 29.7132 2
1 9 5 1574.42 12.2696 2
-1 9 -6 9483.63 34.6971 2
-1 9 -7 643.958 7.93572 2
1 9 8 884.955 9.35789 2
1 9 9 698.022 8.5262 2
1 -9 10 283.805 7.50358 2
1 9 11 10.6073 4.1803 2
-1 10 11 121.395 4.52079 2
-1 10 10 182.698 10.1145 2
1 -10 -9 257.551 6.79855 2
1 10 -8 2735.45 16.114 2
1 10 -7 386.963 7.25836 2
1 10 -6 2540.2 14.5116 2
1 10 -5 1034.86 11.452 2
1 10 -4 5095.15 28.4746 2
1 10 -3 462.006 9.58136 2
-1 -10 2 30765.4 66.6713 2
-1 -10 1 849.837 9.82089 2
-1 10 0 7038.29 32.6539 2
-1 10 -1 2764.67 13.8187 2
-1 10 -2 9119.07 25.965 2
-1 10 -3 609.519 9.78903 2
-1 10 -4 16794.8 47.065 2
1 10 5 1669.36 11.4711 2
-1 10 -6 1229.41 10.1353 2
-1 10 -7 526.007 7.37941 2
1 10 8 3064.8 15.5337 2
1 -10 9 73.311 5.72135 2
1 10 10 736.169 14.3983 2
-1 11 11 14.4638 3.0511 2
-1 11 10 62.4932 7.66856 2
1 -11 -9 3121.49 18.317 2
1 11 -8 137.095 6.97567 2
1 11 -7 5439 20.9704 2
1 11 -6 45.6766 5.24653 2
1 11 -5 705.706 8.92065 2
1 11 -4 527.612 12.276 2
1 11 -3 17252.3 47.6577 2
1 -11 -2 30.6801 7.1394 2
-1 -11 1 17897.3 45.676 2
-1 11 0 353.577 9.92447 2
-1 11 -1 6422.31 24.1804 2
-1 11 -2 111.813 5.81548 2
-1 11 -3 16287.6 44.3491 2
1 11 4 789.461 9.28906 2
1 11 5 11053.1 31.3435 2
-1 11 -6 795.663 9.16105 2
-1 11 -7 178.746 5.83809 2
1 11 8 110.441 5.22021 2
-1 11 -9 3168.68 19.3016 2
1 11 10 2.67562 4.71589 2
-1 12 11 281.222 9.56703 2
-1 12 10 15.6895 6.31104 2
1 -12 -9 480.183 8.82507 2
1 12 -8 2004.04 18.221 2
1 12 -7 404.56 7.31632 2
1 12 -6 1323.59 11.1452 2
1 12 -5 2333.26 15.1609 2
1 12 -4 2707.24 17.3182 2
1 -12 -3 643.239 12.1939 2
-1 -12 2 18750.1 58.2551 2
-1 -12 1 1215.38 15.3195 2
-1 12 0 2135.51 21.0641 2
-1 12 -1 6936.74 29.2764 2
-1 12 -2 5096.13 23.3638 2
-1 12 -3 214.82 7.12934 2
-1 12 -4 8824.13 28.4585 2
1 12 5 2045.61 14.4456 2
1 12 6 365.694 7.55992 2
-1 12 -7 1588.68 15.1784 2
1 12 8 2073.6 17.4451 2
1 12 9 30.0377 5.00487 2
1 12 10 1025.07 18.4562 2
-1 13 11 34.0349 5.48941 2
-1 13 10 1181.84 17.3908 2
-1 13 9 25.1589 4.77087 2
1 13 -8 271.151 9.50693 2
1 13 -7 352.239 7.01426 2
1 13 -6 5625.15 22.0001 2
1 13 -5 15.186 5.03999 2
1 13 -4 12861.3 28.3687 2
1 -13 -3 907.32 14.6069 2
-1 -13 2 98.9552 9.1671 2
-1 -13 1 1357.02 17.8674 2
1 13 0 24052.1 65.8194 2
-1 13 -1 235.647 8.09631 2
-1 13 -2 17325.7 49.0826 2
-1 13 -3 1787.76 13.9353 2
-1 13 -4 1561.49 13.2331 2
1 13 5 220.927 6.61891 2
1 13 6 5309.91 22.9368 2
-1 13 -7 580.625 10.5531 2
1 13 8 269.55 7.30377 2
1 13 9 69.9289 5.09377 2
-1 13 -10 406.179 8.0083 2
-1 14 10 7.80708 5.34705 2
1 -14 -9 671.524 9.30496 2
1 14 -8 117.975 7.46217 2
1 14 -7 423.434 9.87841 2
1 14 -6 527.004 8.62955 2
1 14 -5 9449.86 29.8293 2
1 14 -4 570.577 7.6798 2
1 -14 -3 4883.81 20.9142 2
1 14 -2 1147.67 15.5902 2
1 14 -1 8086 39.7169 2
1 14 0 750.172 13.3112 2
-1 14 -1 18991.7 52.6221 2
-1 14 -2 1548.22 11.5577 2
1 14 3 523.567 8.18046 2
1 14 4 671.346 10.1545 2
1 14 5 5048.54 21.2156 2
1 14 6 98.1534 5.63116 2
1 14 7 5946.85 32.4457 2
1 -14 8 592.13 9.09037 2
1 14 9 52.9739 4.64391 2
-1 14 -10 56.5537 10.4364 2
-1 15 10 631.512 10.0145 2
1 -15 -9 547.065 7.92231 2
1 15 -8 97.3613 7.02416 2
1 15 -7 2339.73 22.2706 2
1 15 -6 1636.27 13.7915 2
1 15 -5 6.87043 5.94362 2
1 15 -4 3187.85 18.534 2
1 -15 -3 6399.74 25.1898 2
1 15 -2 46.91 6.78486 2
1 15 -1 8719.02 48.2117 2
1 15 0 8032.71 29.5671 2
-1 15 -1 36.8389 5.32804 2
-1 15 -2 4582.6 18.1438 2
-1 15 -3 10338.4 27.3022 2
1 15 4 854.144 11.1738 2
1 15 5 1642.48 13.3676 2
1 15 6 2057.73 14.8734 2
1 15 7 780.826 12.9265 2
1 15 8 411.492 8.44487 2
-1 15 -9 880.594 8.61126 2
-1 15 -10 89.5122 9.14582 2
-1 16 10 38.3577 4.0371 2
-1 16 9 46.2948 5.34401 2
1 16 -8 1998.21 18.2163 2
1 16 -7 5.80453 6.46811 2
1 16 -6 2030 15.0108 2
1 16 -5 66.4098 6.6267 2
1 16 -4 2645.1 19.4604 2
1 16 -3 65.1466 6.36058 2
1 16 -2 18008.8 50.9688 2
1 16 -1 172.8 11.4813 2
-1 -16 0 2327.66 20.2421 2
-1 16 -1 97.7984 5.77997 2
-1 16 -2 9454.96 28.0339 2
-1 16 -3 1.52385 5.00942 2
1 16 4 6367.7 23.8452 2
1 16 5 229.404 7.11864 2
1 16 6 92.5213 5.69822 2
1 16 7 130.517 7.19242 2
-1 16 -8 2404.45 15.3127 2
-1 16 -9 15.1868 4.80159 2
-1 17 10 155.819 6.06373 2
1 -17 -9 709.01 9.60097 2
1 17 -8 2.22203 5.23921 2
1 17 -7 2778.14 22.62 2
1 17 -6 790.671 12.1524 2
1 -17 -5 21.9626 7.20751 2
1 17 -4 1749.79 15.9881 2
1 -17 -3 9363.83 32.1855 2
1 -17 -2 20.1512 7.02742 2
1 17 -1 7987.9 43.8406 2
-1 -17 0 3175.6 26.1152 2
-1 17 -1 441.425 7.59025 2
-1 17 -2 1517.36 12.6756 2
-1 17 -3 10165.9 28.1704 2
1 17 4 65.6992 5.75827 2
1 17 5 3104.04 17.9757 2
1 17 6 1001.45 10.83 2
-1 17 -7 447.374 8.49263 2
-1 17 -8 87.5062 5.19252 2
-1 17 -9 1022.01 14.2896 2
-1 18 9 1033.44 13.0957 2
1 -18 -8 450.358 10.1312 2
1 18 -7 257.945 8.88072 2
1 18 -6 562.72 16.0237 2
1 18 -5 3971.67 24.0894 2
1 18 -4 702.118 11.0932 2
1 18 -3 1033.05 14.9412 2
1 -18 -2 4313.24 24.6372 2
1 18 -1 1403.34 19.5546 2
-1 -18 0 1795.08 20.7304 2
-1 18 -1 8147.88 28.2276 2
-1 18 -2 2924.84 17.6157 2
-1 18 -3 418.317 7.37534 2
1 18 4 1944.44 14.9 2
1 18 5 5363.55 23.4716 2
-1 18 -6 3.07463 4.98777 2
-1 18 -7 1520.69 14.1185 2
-1 18 -8 575.653 10.3707 2
-1 18 -9 5.95881 5.69627 2
-1 19 9 26.8198 4.51895 2
1 -19 -8 159.591 5.05844 2
1 19 -7 10.0964 5.66358 2
1 19 -6 1366.04 21.7832 2
1 19 -5 110.749 10.6085 2
1 19 -4 8190.99 35.7254 2
1 19 -3 1289.58 17.9173 2
1 -19 -2 24.9658 5.96862 2
-1 -19 1 1771.32 24.2974 2
-1 -19 0 19494.5 68.3489 2
-1 -19 -1 207.846 9.66428 2
-1 19 -2 3992.95 21.5746 2
-1 19 -3 19.1408 5.82673 2
1 19 4 954.08 11.0789 2
1 19 5 17.9854 5.03817 2
-1 19 -6 4836.06 21.169 2
-1 19 -7 24.9313 6.64128 2
-1 19 -8 443.882 8.37574 2
-1 20 9 278.657 5.97815 2
1 -20 -8 638.444 7.5746 2
1 20 -7 526.264 9.33096 2
1 20 -6 476.542 14.0145 2
1 20 -5 3284.32 33.0935 2
1 20 -4 88.757 8.45537 2
1 20 -3 835.896 13.0406 2
1 20 -2 4609.26 30.9023 2
1 -20 -1 3026.45 24.8281 2
-1 -20 0 161.561 11.4479 2
-1 -20 -1 7069.67 35.5434 2
-1 20 -2 2241.13 19.0182 2
-1 20 -3 1037.5 11.0716 2
1 20 4 2685.61 15.7814 2
1 20 5 1820.45 13.6778 2
-1 20 -6 16.1761 4.33555 2
-1 20 -7 1527.24 16.1407 2
-1 20 -8 427.735 7.30825 2
-1 21 8 20.4599 4.20325 2
1 -21 -7 3110.11 19.7435 2
1 -21 -6 185.028 10.2995 2
1 -21 -5 26.8143 8.61849 2
-1 21 4 304.791 8.8871 2
1 21 -3 1795.57 15.7221 2
1 21 -2 6.88438 8.19976 2
1 -21 -1 1622.38 17.0694 2
-1 -21 0 779.832 14.0591 2
-1 -21 -1 336.65 11.1101 2
-1 -21 -2 574.223 14.0707 2
-1 21 -3 8789.4 33.1358 2
1 21 4 100.779 5.39506 2
1 21 5 1851.34 15.3657 2
-1 21 -6 320.765 7.7196 2
-1 21 -7 242.4 8.52982 2
-1 22 8 1063.34 10.9373 2
-1 22 7 8.70178 4.22626 2
1 -22 -6 1147.64 13.8431 2
1 -22 -5 336.018 12.1498 2
1 -22 -4 837.018 11.958 2
1 -22 -3 19.1953 8.68307 2
1 22 -2 14310 65.4086 2
-1 -22 1 138.926 8.89767 2
-1 -22 0 771.021 13.4865 2
-1 -22 -1 541.301 12.5895 2
1 22 2 3818.58 27.3551 2
-1 -22 -3 23.2206 7.1199 2
1 22 4 4017.93 27.9309 2
1 22 5 45.3475 6.85319 2
-1 22 -6 41.3747 6.87947 2
-1 -22 -7 91.9545 6.83249 2
-1 23 7 901.945 11.9999 2
1 -23 -6 569.756 9.53663 2
1 -23 -5 6.91699 7.06472 2
1 -23 -4 2013.91 23.7144 2
-1 23 3 1938.03 16.8158 2
1 23 -2 11.0574 8.99648 2
1 23 -1 2255.61 18.3471 2
1 23 0 4128.21 30.6237 2
1 23 1 158.208 10.5241 2
1 23 2 1747.14 14.6297 2
-1 23 -3 3604.6 24.6337 2
1 23 4 686.483 14.746 2
-1 -23 -5 670.224 17.0552 2
-1 -23 -6 1311.78 18.9759 2
1 23 7 102.731 4.76269 2
-1 24 7 93.0287 5.96362 2
-1 24 6 26.0594 4.05706 2
1 -24 -5 3127.61 24.4567 2
1 24 -4 158.509 9.51122 2
-1 24 3 895.369 12.0129 2
-1 24 2 251.71 9.37465 2
1 24 -1 1313.67 15.7029 2
-1 24 0 101.303 8.3277 2
1 -24 1 6669.94 26.2194 2
-1 -24 -2 81.8232 6.88195 2
1 24 3 253.603 9.45702 2
1 24 4 112.66 8.42633 2
-1 -24 -5 1710.17 22.9341 2
-1 -24 -6 7.51005 5.05328 2
-1 25 6 829.187 13.7266 2
1 -25 -5 27.4207 6.64656 2
1 -25 -4 2402.45 29.2894 2
-1 25 3 500.081 10.7232 2
1 -25 -2 92.8522 5.67183 2
1 25 -1 395.913 10.0694 2
-1 25 0 4384.39 20.3778 2
1 25 1 92.4039 7.29223 2
1 25 2 1663.3 14.4217 2
1 25 3 874.579 12.8146 2
1 25 4 322.947 9.22825 2
-1 -25 -5 199.801 6.53289 2
1 26 -6 234.704 5.71992 2
1 26 -5 754.393 11.3418 2
1 -26 -4 646.716 9.29946 2
-1 26 3 229.824 6.9825 2
-1 26 2 2421.56 13.7393 2
1 26 -1 281.065 8.5101 2
-1 26 0 900.89 10.5662 2
1 26 1 1761.5 12.4293 2
1 26 2 1429.61 15.5684 2
1 26 3 32.8289 6.51654 2
1 26 4 1394.01 14.7895 2
1 26 5 181.04 6.50615 2
-1 27 5 8.01362 3.35131 2
1 27 -4 -1.14966 8.91949 2
1 27 -3 2067.56 17.8013 2
1 27 -2 1.92225 4.84764 2
1 27 -1 2637.29 15.9964 2
1 27 0 7.09124 5.1607 2
1 27 1 102.692 5.90846 2
1 27 2 73.9069 5.13443 2
1 27 3 1516.05 12.5804 2
-1 27 -4 2.60313 3.29084 2
1 -28 -3 359.997 7.92071 2
1 28 -2 1863.73 21.7213 2
1 28 -1 463.449 7.4736 2
1 28 0 491.494 7.70385 2
1 28 1 857.714 10.6105 2
1 28 2 1095.42 10.5411 2
-1 -28 -3 72.1804 4.43781 2
1 29 -2 2.68367 4.97169 2
-1 -29 1 28.375 4.42227 2
1 29 0 1176.89 10.5771 2
1 29 1 61.1834 3.58012 2
2 0 -10 717.821 19.9103 2
2 0 -8 662.29 16.8967 2
2 0 -6 3012.47 21.9798 2
2 0 -4 49108.6 117.928 2
2 0 -2 9418.86 45.7234 2
2 0 0 9733.03 110.362 2
-2 0 -2 15526.2 81.8321 2
2 0 4 31.5279 6.62 2
-2 0 -6 9794.74 43.7139 2
2 0 8 4827.51 24.7638 2
2 0 10 351.226 14.1318 2
3 0 -10 20.0891 13.3995 2
3 0 -8 947.935 25.0118 2
-3 0 6 13079.2 45.7972 2
3 0 -4 2121.74 9.56115 2
3 0 -2 5711.18 19.3464 2
3 0 0 10836.2 38.7728 2
3 0 2 60.236 5.05084 2
3 0 4 9827.09 39.3942 2
3 0 6 4436.32 27.489 2
3 0 8 713.611 19.8134 2
3 -1 -10 57.3978 13.4225 2
3 1 -9 30.4582 6.52134 2
3 1 -8 460.427 14.1378 2
3 1 -7 2051.79 15.426 2
3 1 -6 169.574 7.45226 2
3 -1 -5 1903.14 10.2819 2
3 -1 -4 2118.77 7.19169 2
3 -1 -3 540.818 4.10941 2
3 -1 -2 1437.98 7.61503 2
3 -1 -1 10781.8 21.4978 2
3 -1 0 2738.67 14.4695 2
3 -1 1 3187.37 10.8014 2
3 -1 2 4452.5 12.8477 2
3 -1 3 2539.15 13.2337 2
3 1 4 242.952 7.53018 2
3 1 5 4147.42 22.1018 2
3 1 6 947.331 10.7871 2
3 -1 7 354.157 7.21482 2
3 -1 8 1247.98 24.3767 2
3 -1 9 1373.08 17.3329 2
3 -2 -10 48.0294 8.03766 2
3 2 -9 1350.4 16.3295 2
3 2 -8 20.3059 9.01266 2
3 2 -7 447.825 9.15477 2
3 2 -6 589.467 8.35492 2
3 -2 -5 2348.27 10.1085 2
3 -2 -4 43.9263 3.21158 2
3 -2 -3 7396.73 12.3616 2
3 -2 -2 1135.47 6.8319 2
3 -2 -1 745.157 6.16937 2
3 -2 0 2172.22 9.13592 2
3 -2 1 7224.53 16.9952 2
3 -2 2 175.578 4.6193 2
3 -2 3 6991.6 17.7284 2
3 2 4 466.946 7.10377 2
3 2 5 110.969 5.81415 2
3 2 6 286.619 6.89761 2
3 -2 7 3007.79 17.2667 2
3 -2 8 1.51634 7.4214 2
3 2 9 1002.14 10.537 2
3 -3 -10 244.765 9.70396 2
3 3 -9 2.23827 5.74003 2
3 3 -8 1552.97 16.0651 2
3 -3 -7 232.725 9.66676 2
3 -3 -6 538.314 7.2673 2
3 -3 -5 11.2183 3.87956 2
3 -3 -4 13322.2 17.8504 2
3 -3 -3 17.4244 3.22914 2
3 -3 -2 5220.25 12.9353 2
3 -3 -1 153.561 3.81891 2
3 -3 0 1661.85 7.68994 2
3 -3 1 40.8562 3.38099 2
3 -3 2 11312.9 20.3614 2
3 -3 3 193.333 4.74142 2
3 3 4 1277.93 8.81975 2
3 3 5 84.716 5.0392 2
3 -3 6 4756.03 22.8281 2
3 -3 7 1.48884 4.81455 2
3 -3 8 3555.29 22.8472 2
3 3 9 24.863 3.646 2
3 -4 -10 77.8233 7.66232 2
3 4 -9 478.561 8.76875 2
3 4 -8 268.426 9.85711 2
3 -4 -7 303.85 9.42335 2
3 -4 -6 2547.33 13.4894 2
3 -4 -5 653.377 6.90027 2
3 4 -4 1689.02 7.9272 2
3 4 -3 6277.56 14.0058 2
3 -4 -2 4690.8 11.8547 2
3 -4 -1 115.405 3.81178 2
3 -4 0 3082.94 10.5701 2
3 -4 1 6741.08 15.4888 2
3 -4 2 129.365 4.31341 2
3 -4 3 4473.08 16.0844 2
3 4 4 2765.83 14.1981 2
3 4 5 15.2323 5.63767 2
3 4 6 1296.52 13.5894 2
3 -4 7 2188 14.8276 2
3 -4 8 35.6133 5.92109 2
3 -4 9 127.522 6.93202 2
3 -5 -10 13.5433 6.7442 2
3 5 -9 6.79073 4.91966 2
3 5 -8 86.5802 8.93755 2
3 5 -7 2459.56 18.6262 2
-3 -5 6 30.1796 6.48964 2
3 -5 -5 2616.07 13.3579 2
3 -5 -4 324.336 5.37546 2
3 5 -3 850.386 6.53982 2
3 -5 -2 469.702 5.02633 2
3 -5 -1 13701.1 19.9278 2
3 -5 0 29.0342 3.60455 2
3 5 1 5183.13 12.7469 2
3 5 2 516.767 5.83194 2
3 5 3 3456.36 13.6527 2
3 5 4 17.678 4.63388 2
3 5 5 11243.2 39.5165 2
3 5 6 14.1265 5.74985 2
3 -5 7 249.157 6.4462 2
3 -5 8 17.041 4.04835 2
3 -6 -10 170.38 8.15737 2
3 -6 -9 164.636 7.76499 2
3 6 -8 624.739 12.7966 2
3 6 -7 185.801 8.25296 2
3 6 -6 4429.08 21.8774 2
3 -6 -5 276.395 7.91298 2
3 -6 -4 171.082 5.10304 2
3 -6 -3 1305.36 6.84595 2
3 -6 -2 9463.96 16.5232 2
3 -6 -1 712.667 5.07856 2
3 6 0 10316.2 19.1453 2
3 6 1 870.03 6.72887 2
3 6 2 85.0975 4.15294 2
3 6 3 698.692 7.98839 2
3 6 4 8093.76 23.2299 2
3 6 5 127.575 6.96353 2
3 6 6 1904.54 18.0915 2
3 -6 7 175.532 6.03948 2
3 -6 8 142.845 4.90893 2
3 -7 -10 117.87 8.51 2
3 -7 -9 2.62954 5.96668 2
3 7 -8 522.282 9.79541 2
3 7 -7 597.766 9.25364 2
3 7 -6 156.35 9.97536 2
3 7 -5 1247.85 13.9165 2
3 7 -4 5332.97 17.7525 2
3 -7 -3 245.669 4.49135 2
3 -7 -2 3953.15 11.4445 2
3 7 -1 5393.2 11.8474 2
3 7 0 2219.21 10.1215 2
3 7 1 981.478 6.8023 2
3 7 2 4716.78 14.7078 2
3 7 3 102.926 4.64648 2
3 7 4 153.122 5.42337 2
3 7 5 1121.15 11.3568 2
3 7 6 1080.62 13.8024 2
3 7 7 53.4046 4.88417 2
3 -7 8 1481.31 15.0004 2
3 8 -9 878.142 12.6805 2
3 8 -8 5.30384 6.12254 2
3 8 -7 582.952 9.25945 2
3 8 -6 17.8533 8.78695 2
3 8 -5 3016.15 19.3926 2
3 -8 -4 203.291 6.6915 2
3 8 -3 5792.72 16.314 2
3 -8 -2 29.5507 3.76134 2
3 8 -1 19.7279 3.5075 2
3 8 0 46.2075 4.5508 2
3 8 1 8893.55 17.8167 2
3 8 2 126.983 4.22965 2
3 8 3 11290.6 23.2657 2
3 8 4 557.884 7.52227 2
3 8 5 22.6569 4.91792 2
3 8 6 5.30819 5.43209 2
3 -8 7 3190.27 21.1595 2
3 -8 8 3.21617 3.57471 2
3 -9 -9 11.2621 7.04196 2
3 9 -8 1030.99 11.3022 2
3 9 -7 338.461 7.72538 2
3 9 -6 41.7017 9.08689 2
3 9 -5 871.648 10.6577 2
3 9 -4 5232.01 21.2363 2
3 9 -3 235.134 6.33453 2
3 -9 -2 4537.8 12.4836 2
3 9 -1 2353.95 8.59288 2
3 9 0 1782.69 9.27724 2
3 9 1 930.054 7.06609 2
3 9 2 10289.5 22.1715 2
3 9 3 597.978 7.12286 2
3 9 4 792.158 9.60033 2
3 9 5 981.174 10.4618 2
3 9 6 1535.54 13.3724 2
3 -9 7 21.9293 3.75971 2
3 -9 8 775.875 15.2854 2
3 -10 -9 119 7.80804 2
3 -10 -8 345.476 10.5214 2
3 10 -7 55.0649 5.82606 2
3 10 -6 3213.4 24.4781 2
3 10 -5 347.555 10.7227 2
3 -10 -4 638.254 8.38516 2
3 -10 -3 936.938 9.74328 2
3 -10 -2 3451.53 11.8456 2
3 10 -1 21.6022 3.5094 2
3 10 0 8715.37 19.6975 2
3 10 1 1213.51 8.8662 2
3 10 2 625.588 7.48214 2
3 -10 3 407.543 7.41477 2
3 10 4 5069.93 19.7134 2
3 10 5 54.3857 5.35821 2
3 -10 6 1674.04 13.9043 2
3 -10 7 711.495 9.5862 2
3 -10 8 216.835 5.66571 2
3 -11 -9 1.77786 5.72028 2
3 -11 -8 23.7486 7.69681 2
3 11 -7 1750.16 12.8294 2
3 11 -6 1.299 6.71161 2
3 11 -5 2166.46 18.587 2
3 -11 -4 18.228 4.66431 2
3 -11 -3 1393.32 11.0122 2
3 -11 -2 22.5992 4.20699 2
3 11 -1 7099.93 15.7937 2
3 11 0 259.269 5.83394 2
3 11 1 4681.68 17.2305 2
3 11 2 801.648 8.20833 2
3 -11 3 1131.7 10.4931 2
3 11 4 177.812 7.92229 2
3 11 5 6154.35 22.7518 2
3 11 6 15.5681 5.17715 2
3 11 7 102.218 4.42071 2
3 -11 8 -0.37123 2.93157 2
3 -12 -9 228.813 7.8045 2
3 -12 -8 258.08 9.43045 2
3 -12 -7 70.5746 5.88574 2
3 12 -6 2079.77 19.0764 2
3 12 -5 537.066 11.2458 2
3 -12 -4 212.212 5.95276 2
3 -12 -3 2138.46 12.6206 2
3 12 -2 1975.85 11.7584 2
3 12 -1 14.1158 4.3856 2
3 12 0 3600.14 15.0697 2
3 12 1 1688.46 12.3244 2
3 12 2 671.947 7.86733 2
3 -12 3 966.853 10.1523 2
3 12 4 3974.78 22.8285 2
3 12 5 51.4805 5.25696 2
3 12 6 2110.78 16.4117 2
3 -12 7 980.572 11.3497 2
3 -13 -9 0.11346 4.28719 2
3 -13 -8 759.587 11.5876 2
3 -13 -7 82.0135 5.58967 2
3 -13 -6 48.217 7.68716 2
3 13 -5 249.812 9.10519 2
3 -13 -4 3639.26 16.3886 2
3 -13 -3 16.3756 5.24995 2
3 13 -2 3082.44 16.6653 2
3 13 -1 283.564 5.98329 2
3 13 0 1048.19 9.12574 2
3 13 1 222.887 6.67017 2
3 13 2 5017.7 18.9398 2
3 -13 3 539.723 9.09095 2
3 13 4 202.703 7.19746 2
3 13 5 264.444 6.15295 2
3 13 6 1531.55 13.1064 2
3 -13 7 13.8109 3.00602 2
3 -14 -8 38.4839 9.80334 2
3 -14 -7 292.924 6.68361 2
3 -14 -6 184.542 8.59768 2
3 -14 -5 985.88 20.0182 2
3 -14 -4 30.879 5.4846 2
3 -14 -3 2843.84 16.1527 2
3 14 -2 199.762 6.41371 2
3 14 -1 68.8227 6.07115 2
3 14 0 288.903 6.93199 2
3 14 1 4774.41 18.7903 2
3 14 2 85.9466 5.15508 2
3 -14 3 6805.4 24.7952 2
3 14 4 1481.89 13.0167 2
3 14 5 280.479 6.78913 2
3 14 6 115.502 5.00924 2
3 -14 7 2826.51 20.382 2
3 -15 -8 147.062 9.89674 2
3 -15 -7 558.222 7.45163 2
3 -15 -6 30.6949 6.52986 2
3 -15 -5 1176.86 15.5855 2
3 -15 -4 1367.32 11.1528 2
3 -15 -3 12.0871 4.9238 2
3 -15 -2 854.894 9.05946 2
3 15 -1 2350.41 17.4401 2
3 15 0 798.032 10.478 2
3 15 1 563.464 7.74879 2
3 15 2 1608.85 12.0917 2
3 -15 3 931.005 10.3054 2
3 15 4 229.729 6.65775 2
3 15 5 2114.98 13.5636 2
3 15 6 522.696 12.1527 2
3 -15 7 87.9792 6.54078 2
3 -16 -8 184.647 9.11823 2
3 -16 -7 7.94532 3.76845 2
3 -16 -6 2073.37 15.3108 2
3 -16 -5 5.12903 6.57589 2
3 -16 -4 176.696 6.15709 2
3 -16 -3 5.87643 4.69989 2
3 -16 -2 2999.63 17.3414 2
3 16 -1 2.85792 5.06568 2
3 16 0 2526.87 18.4868 2
3 16 1 91.4361 6.26319 2
3 16 2 28.87 5.10035 2
3 -16 3 115.059 7.80134 2
3 16 4 4023.45 18.1214 2
3 16 5 17.7022 4.12659 2
3 -16 6 1208.14 15.7208 2
3 -17 -7 1155.53 11.5991 2
3 -17 -6 14.8218 4.69957 2
3 -17 -5 686.694 11.3487 2
3 -17 -4 642.555 8.92694 2
3 -17 -3 198.73 5.72566 2
3 -17 -2 228.301 6.90956 2
3 17 -1 3200.75 16.7569 2
3 17 0 87.7644 7.49293 2
3 17 1 1805.65 13.1692 2
3 17 2 817.189 9.25703 2
3 -17 3 1194.72 14.7377 2
3 17 4 14.8516 4.91334 2
3 17 5 2512.31 15.1172 2
3 -17 6 139.735 8.03193 2
3 -18 -7 159.469 6.68653 2
3 -18 -6 427.187 6.67919 2
3 -18 -5 273.106 7.964 2
3 -18 -4 219.962 6.33147 2
3 -18 -3 1372.92 11.0454 2
3 -18 -2 890.812 8.91824 2
3 18 -1 21.2806 5.08212 2
3 18 0 902.048 10.4382 2
3 18 1 3838.35 19.6736 2
3 18 2 9.74469 4.70184 2
3 -18 3 1907.06 16.2188 2
3 18 4 713.592 8.51609 2
3 18 5 18.6981 3.78101 2
3 -19 -6 10.7433 3.10709 2
3 -19 -5 159.308 7.75632 2
3 -19 -4 3133.63 14.3839 2
3 -19 -3 55.8176 4.96033 2
3 -19 -2 1204.41 9.3885 2
3 19 -1 5.46794 4.86263 2
3 19 0 749.647 9.83446 2
3 19 1 11.9356 4.34947 2
3 19 2 4478.28 18.5851 2
3 -19 3 46.0921 7.1726 2
3 19 4 431.018 6.70143 2
3 -19 5 70.0206 4.95442 2
3 -20 -6 458.509 6.00405 2
3 -20 -5 830.381 12.9723 2
3 -20 -4 40.4338 5.66037 2
3 -20 -3 1403.83 10.8249 2
3 -20 -2 897.531 7.7726 2
3 -20 -1 193.55 5.58769 2
3 20 0 1155.22 9.87082 2
3 20 1 1548.79 10.073 2
3 -20 2 39.0775 4.8708 2
3 20 3 1404.86 20.1725 2
3 -20 4 610.349 9.67338 2
3 -21 -5 328.462 8.86161 2
3 -21 -4 279.946 7.5608 2
3 21 -3 249.046 5.63635 2
3 -21 -2 100.151 5.21131 2
3 -21 -1 2979.07 15.4232 2
3 21 0 73.3178 6.41375 2
3 21 1 792.738 8.28926 2
3 -21 2 336.527 8.71065 2
3 21 3 459.227 10.3247 2
3 21 4 6.76631 5.55993 2
3 -22 -5 122.04 5.38605 2
3 -22 -4 143.527 7.28587 2
3 22 -3 107.255 5.4313 2
3 -22 -2 1296.26 9.35201 2
3 -22 -1 8.42053 4.13147 2
3 -22 0 1990.86 13.4811 2
3 22 1 58.0119 4.71859 2
3 -22 2 11.526 4.91207 2
3 -22 3 57.046 4.59012 2
3 -23 -4 852 10.5653 2
3 23 -3 70.5538 4.12728 2
3 -23 -2 431.904 6.77148 2
3 -23 -1 1371.75 12.5188 2
3 23 0 531.793 7.03738 2
3 23 1 342.015 7.39112 2
3 -23 2 956.438 9.21437 2
3 -24 -3 1392.56 12.302 2
3 -24 -2 6.62819 4.26336 2
3 -24 -1 44.4367 5.46515 2
3 -24 0 31.6783 5.42011 2
3 -24 1 1103.67 8.80459 2
5 -1 0 63.455 14.32 2
5 -1 1 778.402 14.0098 2
5 -2 0 124.546 14.2974 2
5 -2 1 95.1828 12.4505 2
5 -3 0 42.1385 9.09501 2
5 -3 1 41.3312 10.7946 2
5 -4 -2 23.8192 11.2276 2
5 -4 0 394.024 11.1854 2
5 -4 1 -0.9327 9.62587 2
5 -5 -2 20.9796 9.78731 2
5 -5 0 -8.18854 8.12146 2
5 -6 -2 3.42284 8.40356 2
0 0 2 69908.2 148.504 -2
0 0 -2 69908.2 148.504 1
0 0 4 16721.3 80.3474 -2
0 0 -4 16721.3 80.3474 1
0 0 -6 20918.6 98.1053 -2
0 0 6 20918.6 98.1053 1
0 0 -8 127.323 10.1884 -2
0 0 8 127.323 10.1884 1
0 0 10 7774.07 58.4215 -2
0 0 -10 7774.07 58.4215 1
0 0 -12 1879.59 19.7378 -2
0 0 12 1879.59 19.7378 1
0 -1 1 33851.2 51.0148 -2
0 1 -1 33851.2 51.0148 1
0 1 -2 38067.3 71.8748 -2
0 -1 2 38067.3 71.8748 1
0 1 3 611.937 12.1856 -2
0 -1 -3 611.937 12.1856 1
0 1 4 8362.31 43.5768 -2
0 -1 -4 8362.31 43.5768 1
0 -1 -5 52563.8 117.191 -2
0 1 5 52563.8 117.191 1
0 -1 -6 4618.31 34.5624 -2
0 1 6 4618.31 34.5624 1
0 1 7 9639.76 34.8365 -2
0 -1 -7 9639.76 34.8365 1
0 -1 8 6360.32 31.1556 -2
0 1 -8 6360.32 31.1556 1
0 -1 -9 1155.38 15.0122 -2
0 1 9 1155.38 15.0122 1
0 1 10 76.4058 8.60498 -2
0 -1 -10 76.4058 8.60498 1
0 1 11 2480.07 22.7273 -2
0 -1 -11 2480.07 22.7273 1
0 -1 -12 346.706 9.27145 -2
0 1 12 346.706 9.27145 1
0 2 0 2226.96 10.1548 -2
0 -2 0 2226.96 10.1548 1
0 2 1 16909.5 30.7223 -2
0 -2 -1 16909.5 30.7223 1
0 -2 -2 3796.78 21.0474 -2
0 2 2 3796.78 21.0474 1
0 2 -3 135180 159.595 -2
0 -2 3 135180 159.595 1
0 -2 4 2273.3 24.0814 -2
0 2 -4 2273.3 24.0814 1
0 -2 5 14436.9 56.9007 -2
0 2 -5 14436.9 56.9007 1
0 2 6 12358.6 56.26 -2
0 -2 -6 12358.6 56.26 1
0 2 -7 11278.3 35.3119 -2
0 -2 7 11278.3 35.3119 1
0 -2 -8 21.4622 6.25896 -2
0 2 8 21.4622 6.25896 1
0 -2 -9 8504.64 35.3538 -2
0 2 9 8504.64 35.3538 1
0 -2 10 477.876 12.5453 -2
0 2 -10 477.876 12.5453 1
0 2 -11 131.409 9.86461 -2
0 -2 11 131.409 9.86461 1
0 2 -12 115.47 7.08826 -2
0 -2 12 115.47 7.08826 1
0 3 -1 110.002 5.11989 -2
0 -3 1 110.002 5.11989 1
0 -3 -2 220168 145.466 -2
0 3 2 220168 145.466 1
0 -3 3 3576.99 22.4817 -2
0 3 -3 3576.99 22.4817 1
0 3 4 33258.5 76.4747 -2
0 -3 -4 33258.5 76.4747 1
0 3 5 466.432 12.028 -2
0 -3 -5 466.432 12.028 1
0 3 6 1070.18 19.2383 -2
0 -3 -6 1070.18 19.2383 1
0 -3 7 361.635 8.6124 -2
0 3 -7 361.635 8.6124 1
0 -3 -8 15623.2 48.4219 -2
0 3 8 15623.2 48.4219 1
0 -3 -9 123.032 7.94423 -2
0 3 9 123.032 7.94423 1
0 3 10 2323.75 23.6298 -2
0 -3 -10 2323.75 23.6298 1
0 3 11 56.4844 8.30128 -2
0 -3 -11 56.4844 8.30128 1
0 3 12 1016.49 10.8198 -2
0 -3 -12 1016.49 10.8198 1
0 4 0 72733.2 105.176 -2
0 -4 0 72733.2 105.176 1
0 -4 -1 12722.6 33.4897 -2
0 4 1 12722.6 33.4897 1
0 -4 -2 43986.4 65.778 -2
0 4 2 43986.4 65.778 1
0 4 -3 65983.6 92.7661 -2
0 -4 3 65983.6 92.7661 1
0 -4 4 19159.7 60.1686 -2
0 4 -4 19159.7 60.1686 1
0 4 -5 2098.47 23.5518 -2
0 -4 5 2098.47 23.5518 1
0 -4 6 13389.8 56.9426 -2
0 4 -6 13389.8 56.9426 1
0 4 -7 10661.9 38.4066 -2
0 -4 7 10661.9 38.4066 1
0 4 8 83.4077 7.10857 -2
0 -4 -8 83.4077 7.10857 1
0 -4 9 4313.65 30.7647 -2
0 4 -9 4313.65 30.7647 1
0 4 10 2707.14 35.5773 -2
0 -4 -10 2707.14 35.5773 1
0 4 -11 14.5653 9.58966 -2
0 -4 11 14.5653 9.58966 1
0 4 12 380.461 11.106 -2
0 -4 -12 380.461 11.106 1
0 5 -1 84709.4 93.6929 -2
0 -5 1 84709.4 93.6929 1
0 5 2 836.173 12.4882 -2
0 -5 -2 836.173 12.4882 1
0 -5 -3 13092.2 42.7113 -2
0 5 3 13092.2 42.7113 1
0 -5 -4 3563.25 27.3382 -2
0 5 4 3563.25 27.3382 1
0 -5 5 55240.3 116.056 -2
0 5 -5 55240.3 116.056 1
0 5 -6 546.687 8.72095 -2
0 -5 6 546.687 8.72095 1
0 5 -7 13279.3 41.2303 -2
0 -5 7 13279.3 41.2303 1
0 -5 -8 1465.51 15.5102 -2
0 5 8 1465.51 15.5102 1
0 5 -9 1717.1 18.6654 -2
0 -5 9 1717.1 18.6654 1
0 5 -10 29.4289 11.9827 -2
0 -5 10 29.4289 11.9827 1
0 5 -11 4184.16 38.5479 -2
0 -5 11 4184.16 38.5479 1
0 -6 0 117030 145.386 -2
0 6 0 117030 145.386 1
0 -6 1 7602.17 30.024 -2
0 6 -1 7602.17 30.024 1
0 6 2 27795.7 60.7256 -2
0 -6 -2 27795.7 60.7256 1
0 6 -3 19978.4 55.0841 -2
0 -6 3 19978.4 55.0841 1
0 6 4 53407.3 101.49 -2
0 -6 -4 53407.3 101.49 1
0 -6 -5 3090.76 29.4546 -2
0 6 5 3090.76 29.4546 1
0 6 -6 27176.9 56.2256 -2
0 -6 6 27176.9 56.2256 1
0 -6 7 1867.35 16.1028 -2
0 6 -7 1867.35 16.1028 1
0 -6 -8 959.804 13.4891 -2
0 6 8 959.804 13.4891 1
0 -6 -9 349.716 12.8208 -2
0 6 9 349.716 12.8208 1
0 6 10 3651.56 42.5765 -2
0 -6 -10 3651.56 42.5765 1
0 6 11 45.3945 7.44379 -2
0 -6 -11 45.3945 7.44379 1
0 7 1 18443.3 52.5549 -2
0 -7 -1 18443.3 52.5549 1
0 7 -2 31579.9 68.893 -2
0 -7 2 31579.9 68.893 1
0 7 -3 37.0965 7.04434 -2
0 -7 3 37.0965 7.04434 1
0 -7 4 29111.2 77.727 -2
0 7 -4 29111.2 77.727 1
0 -7 -5 16987 65.566 -2
0 7 5 16987 65.566 1
0 7 -6 3915.31 21.8413 -2
0 -7 6 3915.31 21.8413 1
0 -7 7 6564.28 29.1769 -2
0 7 -7 6564.28 29.1769 1
0 -7 8 9909 46.0517 -2
0 7 -8 9909 46.0517 1
0 7 9 108.768 11.0331 -2
0 -7 -9 108.768 11.0331 1
0 7 10 648.435 20.6276 -2
0 -7 -10 648.435 20.6276 1
0 7 -11 978.874 14.4393 -2
0 -7 11 978.874 14.4393 1
0 -8 0 76.3153 10.413 -2
0 8 0 76.3153 10.413 1
0 -8 1 66588.6 100.294 -2
0 8 -1 66588.6 100.294 1
0 8 -2 10331.7 42.3623 -2
0 -8 2 10331.7 42.3623 1
0 -8 -3 48349.3 87.235 -2
0 8 3 48349.3 87.235 1
0 -8 -4 61.3819 8.42177 -2
0 8 4 61.3819 8.42177 1
0 8 -5 2008.67 24.2597 -2
0 -8 5 2008.67 24.2597 1
0 8 -6 922.254 11.6666 -2
0 -8 6 922.254 11.6666 1
0 -8 7 11361.7 43.6632 -2
0 8 -7 11361.7 43.6632 1
0 -8 -8 1358.56 17.6254 -2
0 8 8 1358.56 17.6254 1
0 8 9 15073.6 63.9322 -2
0 -8 -9 15073.6 63.9322 1
0 8 10 402.351 13.5522 -2
0 -8 -10 402.351 13.5522 1
0 8 11 62.8446 5.69294 -2
0 -8 -11 62.8446 5.69294 1
0 -9 -1 11187.2 44.7227 -2
0 9 1 11187.2 44.7227 1
0 -9 2 101987 160.061 -2
0 9 -2 101987 160.061 1
0 9 -3 16.7836 6.8317 -2
0 -9 3 16.7836 6.8317 1
0 9 4 40381.3 93.2086 -2
0 -9 -4 40381.3 93.2086 1
0 9 -5 7927.67 47.4774 -2
0 -9 5 7927.67 47.4774 1
0 9 -6 4932.23 27.4549 -2
0 -9 6 4932.23 27.4549 1
0 9 -7 2342.79 21.2967 -2
0 -9 7 2342.79 21.2967 1
0 -9 8 11018.4 47.2445 -2
0 9 -8 11018.4 47.2445 1
0 -9 -9 798.12 17.4775 -2
0 9 9 798.12 17.4775 1
0 9 -10 918.303 17.6698 -2
0 -9 10 918.303 17.6698 1
0 9 11 706.799 10.1427 -2
0 -9 -11 706.799 10.1427 1
0 -10 0 97710.1 197.208 -2
0 10 0 97710.1 197.208 1
0 10 1 1610.65 18.1703 -2
0 -10 -1 1610.65 18.1703 1
0 10 -2 21457.9 72.9413 -2
0 -10 2 21457.9 72.9413 1
0 10 -3 4794.57 34.1464 -2
0 -10 3 4794.57 34.1464 1
0 -10 4 15416.6 48.4657 -2
0 10 -4 15416.6 48.4657 1
0 -10 -5 1732.65 19.726 -2
0 10 5 1732.65 19.726 1
0 -10 -6 21364.2 59.6931 -2
0 10 6 21364.2 59.6931 1
0 -10 7 1883.44 19.3019 -2
0 10 -7 1883.44 19.3019 1
0 10 -8 1366.91 19.2281 -2
0 -10 8 1366.91 19.2281 1
0 10 9 733.804 14.1201 -2
0 -10 -9 733.804 14.1201 1
0 10 10 2658.4 21.3125 -2
0 -10 -10 2658.4 21.3125 1
0 10 11 84.5434 7.22998 -2
0 -10 -11 84.5434 7.22998 1
0 11 1 60992.9 105.218 -2
0 -11 -1 60992.9 105.218 1
0 11 2 1754.64 25.2555 -2
0 -11 -2 1754.64 25.2555 1
0 11 3 9231.71 51.5036 -2
0 -11 -3 9231.71 51.5036 1
0 11 4 234.189 9.13966 -2
0 -11 -4 234.189 9.13966 1
0 -11 -5 27142 77.699 -2
0 11 5 27142 77.699 1
0 -11 -6 1066.16 19.1272 -2
0 11 6 1066.16 19.1272 1
0 11 -7 18378.3 58.4094 -2
0 -11 7 18378.3 58.4094 1
0 11 -8 656.744 13.0567 -2
0 -11 8 656.744 13.0567 1
0 -11 -9 109.421 8.36993 -2
0 11 9 109.421 8.36993 1
0 11 10 103.771 9.68966 -2
0 -11 -10 103.771 9.68966 1
0 11 11 3090.18 23.3174 -2
0 -11 -11 3090.18 23.3174 1
0 12 0 61872.3 178.044 -2
0 -12 0 61872.3 178.044 1
0 -12 -1 2639.63 26.3623 -2
0 12 1 2639.63 26.3623 1
0 -12 -2 8581.23 51.2314 -2
0 12 2 8581.23 51.2314 1
0 12 -3 12553.9 62.0855 -2
0 -12 3 12553.9 62.0855 1
0 12 -4 8044.7 36.9912 -2
0 -12 4 8044.7 36.9912 1
0 12 5 1274.97 22.9381 -2
0 -12 -5 1274.97 22.9381 1
0 -12 -6 12303 72.5148 -2
0 12 6 12303 72.5148 1
0 -12 -7 2630.34 21.3603 -2
0 12 7 2630.34 21.3603 1
0 -12 -8 231.693 10.3533 -2
0 12 8 231.693 10.3533 1
0 12 9 2621.67 22.3004 -2
0 -12 -9 2621.67 22.3004 1
0 12 10 1914.33 24.4622 -2
0 -12 -10 1914.33 24.4622 1
0 12 11 50.1585 7.16928 -2
0 -12 -11 50.1585 7.16928 1
0 13 -1 3764.75 32.6377 -2
0 -13 1 3764.75 32.6377 1
0 -13 -2 60629.6 151.457 -2
0 13 2 60629.6 151.457 1
0 13 -3 313.23 13.4359 -2
0 -13 3 313.23 13.4359 1
0 13 -4 33127.3 61.7907 -2
0 -13 4 33127.3 61.7907 1
0 13 5 2572.02 26.6804 -2
0 -13 -5 2572.02 26.6804 1
0 -13 -6 1686.89 24.0716 -2
0 13 6 1686.89 24.0716 1
0 -13 -7 195.299 9.49808 -2
0 13 7 195.299 9.49808 1
0 -13 -8 6659.56 40.3147 -2
0 13 8 6659.56 40.3147 1
0 -13 -9 563.741 14.9892 -2
0 13 9 563.741 14.9892 1
0 13 10 407.568 11.2267 -2
0 -13 -10 407.568 11.2267 1
0 13 11 65.102 5.90353 -2
0 -13 -11 65.102 5.90353 1
0 14 0 2847.63 44.4839 -2
0 -14 0 2847.63 44.4839 1
0 -14 1 22462.6 81.7372 -2
0 14 -1 22462.6 81.7372 1
0 -14 -2 2572.94 31.2137 -2
0 14 2 2572.94 31.2137 1
0 14 3 45775.6 93.9365 -2
0 -14 -3 45775.6 93.9365 1
0 14 4 3036.62 20.4819 -2
0 -14 -4 3036.62 20.4819 1
0 -14 -5 1297.21 20.8935 -2
0 14 5 1297.21 20.8935 1
0 -14 6 943.69 19.3291 -2
0 14 -6 943.69 19.3291 1
0 -14 -7 5660.99 38.2632 -2
0 14 7 5660.99 38.2632 1
0 -14 -8 101.965 9.21543 -2
0 14 8 101.965 9.21543 1
0 -14 9 5881.5 39.4535 -2
0 14 -9 5881.5 39.4535 1
0 14 -10 405.667 10.3413 -2
0 -14 10 405.667 10.3413 1
0 -15 1 22443.3 90.9255 -2
0 15 -1 22443.3 90.9255 1
0 15 -2 16287 66.7394 -2
0 -15 2 16287 66.7394 1
0 -15 -3 47.5251 7.38301 -2
0 15 3 47.5251 7.38301 1
0 15 -4 8646.53 36.7762 -2
0 -15 4 8646.53 36.7762 1
0 -15 -5 14687.8 68.4359 -2
0 15 5 14687.8 68.4359 1
0 -15 -6 750.546 15.9912 -2
0 15 6 750.546 15.9912 1
0 -15 -7 2949.26 29.0905 -2
0 15 7 2949.26 29.0905 1
0 -15 -8 3126.8 30.1704 -2
0 15 8 3126.8 30.1704 1
0 -15 -9 814.763 14.7541 -2
0 15 9 814.763 14.7541 1
0 15 10 546.223 13.2924 -2
0 -15 -10 546.223 13.2924 1
0 -16 0 55345.9 206.584 -2
0 16 0 55345.9 206.584 1
0 -16 -1 526.377 15.1686 -2
0 16 1 526.377 15.1686 1
0 16 -2 8315.99 44.1679 -2
0 -16 2 8315.99 44.1679 1
0 16 3 227.757 8.51132 -2
0 -16 -3 227.757 8.51132 1
0 16 -4 13942.9 42.7678 -2
0 -16 4 13942.9 42.7678 1
0 16 -5 21.1712 8.88657 -2
0 -16 5 21.1712 8.88657 1
0 -16 -6 10154.3 51.5709 -2
0 16 6 10154.3 51.5709 1
0 -16 -7 303.595 16.5255 -2
0 16 7 303.595 16.5255 1
0 -16 -8 233.555 11.7868 -2
0 16 8 233.555 11.7868 1
0 16 -9 138.514 8.21075 -2
0 -16 9 138.514 8.21075 1
0 16 10 2599.81 22.0405 -2
0 -16 -10 2599.81 22.0405 1
0 -17 -1 26740.4 77.59 -2
0 17 1 26740.4 77.59 1
0 17 -2 7195.67 39.7835 -2
0 -17 2 7195.67 39.7835 1
0 17 -3 424.678 10.3797 -2
0 -17 3 424.678 10.3797 1
0 17 -4 3656.38 23.3681 -2
0 -17 4 3656.38 23.3681 1
0 17 -5 15625.6 65.8516 -2
0 -17 5 15625.6 65.8516 1
0 17 -6 36.7503 10.7133 -2
0 -17 6 36.7503 10.7133 1
0 -17 -7 4443.51 46.1774 -2
0 17 7 4443.51 46.1774 1
0 17 -8 1464.8 25.7216 -2
0 -17 8 1464.8 25.7216 1
0 -17 -9 324.738 11.8822 -2
0 17 9 324.738 11.8822 1
0 17 -10 159.449 6.61972 -2
0 -17 10 159.449 6.61972 1
0 -18 0 12967.3 124.952 -2
0 18 0 12967.3 124.952 1
0 18 -1 3550.57 30.3571 -2
0 -18 1 3550.57 30.3571 1
0 -18 2 3713.5 25.1043 -2
0 18 -2 3713.5 25.1043 1
0 -18 -3 17887.4 54.7816 -2
0 18 3 17887.4 54.7816 1
0 -18 -4 4301.53 24.6688 -2
0 18 4 4301.53 24.6688 1
0 -18 -5 1069.91 19.9726 -2
0 18 5 1069.91 19.9726 1
0 18 -6 2653.29 33.4031 -2
0 -18 6 2653.29 33.4031 1
0 -18 -7 6945.52 48.5512 -2
0 18 7 6945.52 48.5512 1
0 18 -8 18.5109 9.78039 -2
0 -18 8 18.5109 9.78039 1
0 -18 9 1733.49 20.1962 -2
0 18 -9 1733.49 20.1962 1
0 19 -1 4954.52 35.797 -2
0 -19 1 4954.52 35.797 1
0 -19 2 40336.3 80.4027 -2
0 19 -2 40336.3 80.4027 1
0 -19 3 445.908 11.8735 -2
0 19 -3 445.908 11.8735 1
0 -19 -4 7853.11 35.3501 -2
0 19 4 7853.11 35.3501 1
0 19 -5 12.4131 8.81248 -2
0 -19 5 12.4131 8.81248 1
0 -19 6 1145.66 20.7364 -2
0 19 -6 1145.66 20.7364 1
0 -19 -7 74.6856 10.9507 -2
0 19 7 74.6856 10.9507 1
0 -19 -8 6638.03 64.4328 -2
0 19 8 6638.03 64.4328 1
0 -19 9 39.492 6.61085 -2
0 19 -9 39.492 6.61085 1
0 -20 0 13973.6 98.3287 -2
0 20 0 13973.6 98.3287 1
0 -20 -1 4930.54 36.3034 -2
0 20 1 4930.54 36.3034 1
0 -20 -2 370.734 11.5407 -2
0 20 2 370.734 11.5407 1
0 -20 -3 15513.8 52.8605 -2
0 20 3 15513.8 52.8605 1
0 20 -4 3446.77 24.3654 -2
0 -20 4 3446.77 24.3654 1
0 20 -5 2210.74 27.7862 -2
0 -20 5 2210.74 27.7862 1
0 20 6 3973.9 29.1587 -2
0 -20 -6 3973.9 29.1587 1
0 20 7 2358.37 26.1257 -2
0 -20 -7 2358.37 26.1257 1
0 -20 -8 -3.17564 9.89918 -2
0 20 8 -3.17564 9.89918 1
0 -20 -9 1887.16 19.0518 -2
0 20 9 1887.16 19.0518 1
0 21 1 4906.3 36.6515 -2
0 -21 -1 4906.3 36.6515 1
0 -21 2 1375.66 19.5736 -2
0 21 -2 1375.66 19.5736 1
0 -21 3 279.055 11.0024 -2
0 21 -3 279.055 11.0024 1
0 21 -4 1018.48 17.9402 -2
0 -21 4 1018.48 17.9402 1
0 -21 -5 15019.4 77.8395 -2
0 21 5 15019.4 77.8395 1
0 21 6 121.705 9.30322 -2
0 -21 -6 121.705 9.30322 1
0 21 7 3231.47 28.245 -2
0 -21 -7 3231.47 28.245 1
0 21 8 442.802 10.0929 -2
0 -21 -8 442.802 10.0929 1
0 -22 0 41052.5 147.739 -2
0 22 0 41052.5 147.739 1
0 -22 -1 53.5522 11.388 -2
0 22 1 53.5522 11.388 1
0 -22 -2 2466.25 25.0203 -2
0 22 2 2466.25 25.0203 1
0 22 3 1617.43 24.8831 -2
0 -22 -3 1617.43 24.8831 1
0 22 4 6528 37.8504 -2
0 -22 -4 6528 37.8504 1
0 -22 5 69.6313 12.2117 -2
0 22 -5 69.6313 12.2117 1
0 22 6 6480.92 37.1478 -2
0 -22 -6 6480.92 37.1478 1
0 22 7 88.0156 7.5988 -2
0 -22 -7 88.0156 7.5988 1
0 -22 8 91.2585 5.45026 -2
0 22 -8 91.2585 5.45026 1
0 -23 -1 6526.39 54.0075 -2
0 23 1 6526.39 54.0075 1
0 23 2 9587.05 61.8381 -2
0 -23 -2 9587.05 61.8381 1
0 23 3 174.084 11.2049 -2
0 -23 -3 174.084 11.2049 1
0 -23 -4 3235.98 34.0006 -2
0 23 4 3235.98 34.0006 1
0 -23 5 5211.87 51.8081 -2
0 23 -5 5211.87 51.8081 1
0 -23 6 691.027 14.5282 -2
0 23 -6 691.027 14.5282 1
0 -23 -7 970.877 13.8161 -2
0 23 7 970.877 13.8161 1
0 24 0 683.379 25.8678 -2
0 -24 0 683.379 25.8678 1
0 24 1 3477.97 47.3043 -2
0 -24 -1 3477.97 47.3043 1
0 24 2 523.911 19.2321 -2
0 -24 -2 523.911 19.2321 1
0 24 3 14892.6 68.0122 -2
0 -24 -3 14892.6 68.0122 1
0 24 -4 181.136 11.808 -2
0 -24 4 181.136 11.808 1
0 -24 5 590.182 14.3406 -2
0 24 -5 590.182 14.3406 1
0 -24 6 174.646 8.56181 -2
0 24 -6 174.646 8.56181 1
0 24 7 2212.66 18.4169 -2
0 -24 -7 2212.66 18.4169 1
0 25 1 1594.2 23.7082 -2
0 -25 -1 1594.2 23.7082 1
0 25 -2 10913 61.2116 -2
0 -25 2 10913 61.2116 1
0 -25 -3 133.591 11.1842 -2
0 25 3 133.591 11.1842 1
0 -25 -4 3768.77 54.673 -2
0 25 4 3768.77 54.673 1
0 25 5 1271.22 19.3934 -2
0 -25 -5 1271.22 19.3934 1
0 -25 -6 345.531 9.80615 -2
0 25 6 345.531 9.80615 1
0 26 0 7874.73 63.5066 -2
0 -26 0 7874.73 63.5066 1
0 26 1 906.319 17.8106 -2
0 -26 -1 906.319 17.8106 1
0 26 2 2915.4 26.3175 -2
0 -26 -2 2915.4 26.3175 1
0 -26 -3 4026.89 31.285 -2
0 26 3 4026.89 31.285 1
0 -26 -4 2160.57 38.3884 -2
0 26 4 2160.57 38.3884 1
0 -26 -5 187.062 8.3988 -2
0 26 5 187.062 8.3988 1
0 -26 -6 2764.75 29.3599 -2
0 26 6 2764.75 29.3599 1
0 27 1 8614.97 42.1409 -2
0 -27 -1 8614.97 42.1409 1
0 27 -2 21.457 7.82026 -2
0 -27 2 21.457 7.82026 1
0 -27 -3 101.125 14.1026 -2
0 27 3 101.125 14.1026 1
0 27 -4 58.6176 6.69722 -2
0 -27 4 58.6176 6.69722 1
0 -27 -5 2517.07 21.7563 -2
0 27 5 2517.07 21.7563 1
0 28 0 8535.77 54.6418 -2
0 -28 0 8535.77 54.6418 1
0 28 1 1782.35 16.5659 -2
0 -28 -1 1782.35 16.5659 1
0 -28 -2 1676.4 33.0461 -2
0 28 2 1676.4 33.0461 1
0 -28 -3 2128.87 33.2766 -2
0 28 3 2128.87 33.2766 1
0 -28 -4 2272.26 21.4032 -2
0 28 4 2272.26 21.4032 1
0 -29 -1 175.277 10.6449 -2
0 29 1 175.277 10.6449 1
0 -29 -2 3619.14 39.4776 -2
0 29 2 3619.14 39.4776 1
0 -29 -3 82.1702 8.61173 -2
0 29 3 82.1702 8.61173 1
0 -30 0 275.628 12.3662 -2
0 30 0 275.628 12.3662 1
0 -30 -1 1957.8 18.0022 -2
0 30 1 1957.8 18.0022 1
-1 0 12 826.096 10.7204 1
1 0 -10 26.0312 12.5964 1
1 0 -8 4869.62 32.5676 1
1 0 -6 3748.93 54.8359 1
1 0 -4 15301.2 72.9679 1
1 0 -2 346346 180.756 1
1 0 0 31332.5 78.0846 1
-1 0 -2 12810.2 38.8825 1
-1 0 -4 17640.8 57.7067 1
1 0 6 56.4802 5.26789 1
1 0 8 8640.91 31.8917 1
1 0 10 2325.99 18.0019 1
-1 1 12 6.59104 4.96008 1
1 1 -11 129.707 12.5421 1
1 -1 -10 873.727 13.7043 1
1 -1 -9 1865.58 14.2504 1
1 1 -8 436.411 7.9533 1
-1 1 7 10313.8 24.7667 1
1 -1 -6 1926.26 25.9466 1
-1 -1 5 195.883 12.3537 1
1 1 -4 8866.11 34.9215 1
-1 1 3 15030.1 37.2178 1
-1 1 2 1234.26 9.54218 1
-1 -1 1 11765.2 27.8846 1
1 1 0 17816.1 34.7003 1
1 -1 1 83.1871 3.74972 1
-1 -1 -2 6025.49 21.4551 1
-1 1 -3 38833.6 52.925 1
1 -1 4 6307.37 26.7823 1
-1 -1 -5 7798.43 42.5628 1
-1 -1 -6 6182.08 17.1428 1
-1 -1 -7 1578.48 11.2902 1
1 -1 8 106.471 4.74692 1
-1 -1 -9 2828.81 15.8163 1
1 -1 10 444.691 7.2857 1
1 1 11 195.534 9.25384 1
1 2 -12 80.8563 5.48619 1
1 2 -11 1416.55 26.1004 1
1 2 -10 12.1135 6.75097 1
1 2 -9 2049.4 18.1736 1
-1 -2 8 2445.36 14.8071 1
1 2 -7 3028.78 14.1673 1
1 2 -6 772.603 12.559 1
1 -2 -5 32166.1 99.3561 1
1 2 -4 205.951 8.6439 1
-1 -2 3 5253.65 22.1923 1
1 -2 -2 1675.91 10.4366 1
-1 -2 1 9696.5 45.8672 1
1 -2 0 2102.9 17.0984 1
-1 -2 -1 60892.4 50.2217 1
1 -2 2 1379.77 12.5906 1
1 -2 3 8450.44 32.6395 1
-1 2 -4 9378.45 43.5498 1
-1 2 -5 9875.17 46.9123 1
-1 2 -6 106.983 4.12468 1
1 2 7 8183.73 21.0219 1
1 2 8 408.642 6.8754 1
-1 -2 -9 52.5538 4.45009 1
-1 -2 -10 142.787 5.49159 1
1 2 11 907.218 11.8312 1
1 -3 -12 254.181 5.40089 1
-1 -3 11 5.19996 5.22103 1
1 -3 -10 2516.56 18.1373 1
-1 -3 9 83.0537 6.63366 1
1 -3 -8 227.604 5.77881 1
1 -3 -7 192.782 5.08226 1
1 -3 -6 8452.67 25.9797 1
1 -3 -5 412.471 14.6431 1
1 3 -4 43435.7 80.3737 1
-1 -3 3 776.411 8.04605 1
-1 3 2 1946.29 14.6336 1
-1 3 1 694.279 10.5212 1
1 3 0 121538 98.6645 1
1 3 1 1526.35 9.47486 1
1 -3 2 21003.3 40.75 1
1 -3 3 313.25 7.32766 1
-1 3 -4 1048.98 16.2597 1
-1 -3 -5 255.866 10.3073 1
1 -3 6 14748.6 24.9092 1
1 -3 7 162.348 4.46577 1
-1 3 -8 2229.48 12.9473 1
-1 3 -9 39.3703 4.23036 1
1 -3 10 1692.34 11.2998 1
1 3 11 5.15642 5.12036 1
1 -4 -12 273.148 5.15467 1
-1 -4 11 600.44 9.21907 1
1 -4 -10 33.1863 5.94638 1
1 -4 -9 1586.38 14.7691 1
1 4 -8 3419.73 16.6125 1
-1 4 7 698.767 8.57158 1
1 -4 -6 3222.74 16.6279 1
-1 -4 5 13767.9 51.9076 1
1 4 -4 7478.02 30.8288 1
1 -4 -3 4552.47 17.4475 1
-1 -4 2 26323 58.6333 1
1 4 -1 4117.11 16.4669 1
1 -4 0 24426.6 27.1536 1
1 4 1 42754.9 54.1594 1
1 4 2 17741.1 38.4138 1
1 4 3 1135.64 12.9596 1
1 4 4 9170.51 33.0596 1
-1 4 -5 11390.5 46.7794 1
-1 -4 -6 13.6758 3.22583 1
1 -4 7 4328.2 16.5677 1
-1 4 -8 2525.3 13.1055 1
-1 -4 -9 7.07601 4.86617 1
-1 -4 -10 597.326 8.20947 1
-1 -4 -11 585.113 8.08542 1
1 -5 -11 177.75 6.24468 1
1 5 -10 253.103 7.3316 1
-1 5 9 2462.83 21.7565 1
1 -5 -8 141.977 6.22628 1
-1 -5 7 11582.1 33.2008 1
1 -5 -6 532.185 7.90822 1
-1 -5 5 1810.72 19.8344 1
-1 5 4 497.69 9.58288 1
1 5 -3 30932.5 67.8503 1
-1 5 2 89.2584 7.30234 1
-1 5 1 31582.3 37.0095 1
1 5 0 453.317 4.3626 1
-1 5 -1 7671.06 22.5945 1
-1 -5 -2 3526.66 15.9691 1
-1 -5 -3 46619.9 83.3451 1
1 -5 4 318.798 7.86565 1
-1 -5 -5 11416.3 44.2449 1
-1 5 -6 1213.28 7.99122 1
-1 5 -7 2341.21 11.7196 1
1 -5 8 5.58428 4.29298 1
1 -5 9 5972.2 23.1824 1
1 5 10 13.2814 4.7121 1
1 -5 11 116.205 5.63345 1
-1 6 12 311.044 11.857 1
1 6 -11 58.8821 4.96225 1
-1 -6 10 172.887 6.21591 1
1 -6 -9 262.151 7.0551 1
-1 6 8 6154.53 23.3724 1
1 -6 -7 508.099 9.32134 1
-1 -6 6 10652.9 33.6863 1
-1 -6 5 4917.65 38.189 1
-1 -6 4 10675.6 50.9729 1
-1 -6 3 2600.88 20.1591 1
-1 6 2 46860.6 70.1595 1
1 -6 -1 2610.77 12.5335 1
1 -6 0 6932.36 16.71 1
1 6 1 12282.7 32.4565 1
1 6 2 41338.2 60.9669 1
-1 6 -3 3040.21 21.7617 1
1 6 4 22097 51.9759 1
-1 -6 -5 2187.57 18.7302 1
1 -6 6 743.636 6.91875 1
1 -6 7 387.828 6.301 1
1 -6 8 5105.15 19.0534 1
-1 6 -9 59.0035 5.15987 1
-1 -6 -10 1344.67 12.1734 1
-1 -6 -11 27.0828 7.46955 1
1 -7 -11 28.1293 4.64291 1
1 -7 -10 1896.15 13.2584 1
1 7 -9 1584.55 13.1227 1
-1 -7 8 739.517 9.63431 1
-1 -7 7 3711.96 23.4113 1
-1 -7 6 6898.15 28.952 1
-1 -7 5 20.7135 8.63936 1
-1 -7 4 9439.73 42.8625 1
-1 -7 3 6193.11 30.2005 1
-1 -7 2 272.112 6.72977 1
-1 7 1 8326 22.6966 1
-1 -7 0 21001.1 31.3425 1
1 7 1 124.565 6.04569 1
1 7 2 19759.3 49.1385 1
-1 -7 -3 13846.3 47.074 1
-1 7 -4 3983.16 28.0912 1
-1 7 -5 4379.01 21.7323 1
1 7 6 8018.46 19.9905 1
1 -7 7 89.352 4.73206 1
-1 -7 -8 422.925 6.97631 1
-1 -7 -9 994.604 12.5314 1
1 -7 10 352.462 8.78332 1
-1 -7 -11 24.2748 6.845 1
1 -8 -11 2243.09 14.1548 1
1 8 -10 219.219 6.7043 1
1 8 -9 1952.5 14.7649 1
-1 8 8 299.124 7.53023 1
-1 8 7 1142.27 13.9826 1
1 -8 -6 11.2516 5.21753 1
-1 8 5 17279.2 68.0122 1
1 -8 -4 991.802 12.3368 1
1 -8 -3 15313.7 38.8603 1
1 8 -2 36.5108 4.77085 1
-1 -8 1 31064.7 44.338 1
-1 -8 0 5337.83 19.7735 1
-1 -8 -1 24458.4 43.6455 1
1 8 2 86.8464 6.80615 1
1 -8 3 494.339 8.54204 1
1 -8 4 523.892 12.5034 1
-1 8 -5 11377 27.1617 1
1 -8 6 962.26 7.87071 1
-1 -8 -7 14956.4 31.2685 1
-1 -8 -8 589.588 8.83839 1
1 8 9 58.2967 5.54806 1
-1 -8 -10 -1.32891 5.37961 1
-1 -8 -11 1061.68 16.4182 1
1 9 -11 112.688 5.25326 1
1 -9 -10 1489.04 17.364 1
1 -9 -9 466.335 8.09325 1
1 9 -8 851.2 9.27707 1
-1 -9 7 1657.22 15.032 1
-1 -9 6 9529.07 31.3068 1
-1 -9 5 13.6264 7.38545 1
1 -9 -4 24717.2 54.3777 1
-1 9 3 3476.84 19.5099 1
-1 -9 2 93.0828 4.83585 1
-1 9 1 6313.59 20.8779 1
1 9 0 43880.4 53.7687 1
1 9 1 160.82 5.72846 1
1 9 2 27210.3 50.1421 1
-1 -9 -3 6415.5 28.3929 1
1 9 4 4329.86 31.5761 1
1 -9 5 1980.86 12.7929 1
1 -9 6 12244.7 27.229 1
1 -9 7 762.087 8.9548 1
1 9 8 974.337 11.1762 1
1 -9 9 741.634 8.94708 1
-1 -9 -10 252.959 8.30804 1
-1 -9 -11 9.17429 5.83266 1
1 -10 -11 143.856 7.80722 1
1 -10 -10 184.761 6.75282 1
1 -10 -9 332.539 7.84527 1
-1 10 8 3751.27 17.663 1
1 10 -7 491.937 7.59846 1
1 -10 -6 3752.58 17.4986 1
-1 -10 5 1405.24 12.018 1
1 -10 -4 5916.44 27.8616 1
1 10 -3 502.544 9.66837 1
-1 -10 2 35285.8 52.6096 1
-1 10 1 978.772 10.7061 1
1 10 0 8669.42 26.8322 1
1 10 1 2984.35 17.4795 1
1 -10 2 11315 37.6942 1
1 -10 3 689.818 11.6884 1
-1 -10 -4 19444.7 73.9984 1
-1 10 -5 2062.3 13.4588 1
1 10 6 1437.93 10.5465 1
-1 10 -7 584.555 8.36132 1
1 10 8 3514.62 19.0483 1
1 10 9 60.6689 5.1028 1
-1 -10 -10 791.174 11.804 1
-1 -10 -11 218.675 7.94233 1
1 -11 -11 12.8596 5.37222 1
-1 11 10 64.4034 6.44222 1
-1 11 9 4508.68 23.1389 1
1 -11 -8 168.542 5.77077 1
-1 -11 7 7428.3 26.8011 1
-1 11 6 75.2196 5.56048 1
1 11 -5 1023.63 10.3867 1
1 11 -4 663.697 10.6787 1
-1 -11 3 20790.7 47.6071 1
-1 -11 2 23.9354 5.35055 1
-1 11 1 24873.5 61.6834 1
1 11 0 412.531 9.12271 1
-1 11 -1 7107.72 28.7553 1
-1 11 -2 162.832 8.3729 1
-1 -11 -3 18759.9 55.9763 1
1 -11 4 944.994 12.5977 1
-1 -11 -5 14093.6 30.852 1
1 -11 6 959.747 8.9684 1
1 11 7 191.324 6.04276 1
-1 -11 -8 131.164 6.5376 1
-1 -11 -9 4494.84 29.2475 1
-1 -11 -10 2.20153 4.85498 1
1 -12 -11 378.722 7.56004 1
-1 -12 10 19.448 5.65351 1
-1 -12 9 661.4 10.5297 1
-1 12 8 2684.06 20.9575 1
1 -12 -7 569.317 10.3683 1
-1 12 6 1857.7 14.3266 1
-1 12 5 3438.81 18.1609 1
-1 12 4 3499.52 19.1272 1
-1 12 3 783.683 11.8065 1
-1 -12 2 21628.3 54.855 1
-1 12 1 1831.22 18.886 1
-1 12 0 2447.22 18.7993 1
1 12 1 7775.24 33.0666 1
-1 12 -2 6431.46 34.1023 1
-1 -12 -3 291.456 10.1333 1
1 -12 4 10924.1 31.3229 1
-1 -12 -5 2675.58 16.2838 1
1 -12 6 437.283 6.687 1
1 12 7 2094.74 18.3211 1
-1 -12 -8 2764.46 16.1542 1
1 12 9 34.6171 6.09012 1
-1 -12 -10 1094.63 12.1496 1
-1 -13 11 25.7575 8.23797 1
-1 -13 10 1207.33 12.9156 1
1 -13 -9 30.4074 5.45124 1
1 13 -8 322.604 9.18679 1
-1 -13 7 480.536 10.0909 1
-1 13 6 8124.51 28.5704 1
-1 -13 5 9.76549 5.83193 1
-1 13 4 17887.7 38.3342 1
1 13 -3 1039.46 12.4453 1
-1 13 2 95.3845 7.68309 1
1 -13 -1 1840.02 19.9229 1
1 -13 0 26788.5 67.0383 1
-1 13 -1 285.585 10.4061 1
-1 13 -2 22628.6 69.3459 1
1 -13 3 2056.11 18.4935 1
1 -13 4 1891.24 12.6179 1
1 -13 5 250.505 7.36944 1
1 13 6 6797.09 24.6887 1
1 13 7 733.553 12.0529 1
1 -13 8 404.528 8.1124 1
-1 -13 -9 65.8751 6.18205 1
-1 -13 -10 385.959 6.82987 1
-1 -14 10 13.7162 4.37833 1
-1 14 9 1003.21 11.4119 1
-1 14 8 185.258 7.63454 1
-1 -14 7 568.882 11.4674 1
-1 -14 6 778.898 9.49575 1
-1 -14 5 14302.1 38.351 1
-1 -14 4 810.692 10.6118 1
-1 -14 3 6346.08 24.394 1
1 -14 -2 1421.5 11.9921 1
-1 -14 1 10853.2 45.3196 1
1 -14 0 967.917 15.3612 1
1 14 1 24957.1 87.1657 1
1 -14 2 1884.08 18.8184 1
1 -14 3 608.913 8.87886 1
1 14 4 889.685 9.87194 1
1 -14 5 6417.6 27.4688 1
1 -14 6 111.498 6.04832 1
-1 -14 -7 7130.19 35.4575 1
1 -14 8 751.733 9.81553 1
1 14 9 56.4216 5.7225 1
-1 -14 -10 37.0554 4.20022 1
-1 -15 10 695.918 13.0085 1
1 -15 -9 823.686 9.52081 1
1 -15 -8 117.847 6.88728 1
1 -15 -7 3119.33 24.7683 1
1 -15 -6 2264.62 15.9881 1
-1 15 5 9.61518 6.5128 1
1 -15 -4 4247.76 21.7505 1
-1 15 3 7900.99 25.8229 1
1 -15 -2 55.0285 4.9092 1
1 15 -1 11033.3 31.8834 1
-1 15 0 9759.61 42.2792 1
1 -15 1 30.6611 8.34055 1
1 15 2 5461.1 21.9232 1
1 15 3 11860.8 37.2025 1
1 15 4 1087.68 11.7893 1
1 -15 5 2150.79 17.9074 1
1 -15 6 2561.5 16.1055 1
1 -15 7 886.802 13.9385 1
1 15 8 531.617 8.98126 1
-1 -15 -9 1141.94 13.1233 1
-1 15 -10 76.0126 8.54299 1
-1 -16 10 45.2735 6.43402 1
-1 16 9 45.2837 4.03748 1
-1 16 8 2596.55 17.5642 1
1 16 -7 7.15003 6.39754 1
-1 16 6 2891.17 17.3409 1
1 -16 -5 93.6651 7.50353 1
-1 -16 4 3558.63 19.0164 1
-1 16 3 99.042 6.17104 1
-1 -16 2 22670 38.9383 1
-1 -16 1 234.866 6.7522 1
1 -16 0 3077.72 28.3213 1
-1 16 -1 97.1392 11.6934 1
-1 16 -2 11435.7 30.9283 1
1 16 3 16.5555 5.61606 1
-1 -16 -4 8247.83 33.0858 1
-1 -16 -5 277.379 9.13947 1
1 -16 6 131.778 9.95816 1
1 -16 7 115.837 7.7032 1
1 16 8 3123.56 18.0149 1
-1 -16 -9 15.4057 5.6448 1
-1 -17 10 178.165 11.0014 1
-1 17 9 938.376 10.0004 1
-1 17 8 7.99779 4.78224 1
-1 -17 7 3616.39 22.9258 1
1 17 -6 1201.87 11.9771 1
-1 17 5 30.3056 6.40684 1
-1 17 4 2332.63 15.7464 1
1 -17 -3 11689.1 32.9877 1
1 -17 -2 34.4334 5.10134 1
-1 17 1 9398.63 36.6442 1
1 -17 0 4267.29 35.6848 1
1 17 1 518.872 15.393 1
1 -17 2 1844.31 14.9615 1
1 -17 3 11932 41.1627 1
-1 -17 -4 85.5185 7.46531 1
1 -17 5 4134.86 31.3608 1
1 17 6 1433.59 22.3198 1
-1 -17 -7 525.89 10.8312 1
1 17 8 103.674 4.59768 1
-1 -17 -9 1363 16.3568 1
-1 18 9 1153.26 11.2385 1
-1 -18 8 516.708 8.8756 1
-1 -18 7 350.019 8.86658 1
1 -18 -6 808.021 10.8092 1
-1 18 5 5305.3 22.4339 1
-1 18 4 946.829 11.4522 1
1 -18 -3 1395.93 12.9233 1
-1 -18 2 5226.08 21.5143 1
1 -18 -1 1774.43 23.1836 1
-1 -18 0 2231.64 26.691 1
1 -18 1 9785.32 40.5806 1
1 -18 2 3228.83 21.9518 1
1 18 3 524.323 9.96812 1
1 -18 4 2325.55 20.3733 1
1 18 5 6965.69 31.8159 1
-1 -18 -6 7.82004 6.34815 1
1 -18 7 1924.94 17.5304 1
-1 -18 -8 699.255 7.1641 1
-1 -18 -9 -0.13048 3.7808 1
-1 19 9 23.5048 4.84783 1
-1 -19 8 219.977 8.35735 1
-1 -19 7 9.00139 5.28439 1
-1 -19 6 2086.35 15.3222 1
-1 19 5 165.496 6.73873 1
1 19 -4 11497.6 35.9339 1
1 19 -3 1704.81 13.6438 1
1 -19 -2 18.1356 6.5436 1
-1 19 1 2204.24 23.8504 1
-1 -19 0 23363.5 69.6567 1
1 19 1 230.904 9.29427 1
1 -19 2 4761.83 31.0981 1
-1 -19 -3 7.81875 6.46964 1
1 -19 4 1088.66 14.3654 1
1 -19 5 28.7769 6.84377 1
-1 -19 -6 6076.76 31.7613 1
1 -19 7 38.5497 5.81243 1
1 19 8 617.043 7.55702 1
-1 19 -9 27.7263 7.51824 1
-1 -20 9 277.515 12.1874 1
-1 -20 8 1025.66 14.0832 1
-1 20 7 827.374 15.4911 1
-1 -20 6 685.157 9.01659 1
1 -20 -5 4691.63 21.866 1
-1 -20 4 133.299 7.26229 1
1 -20 -3 999.863 11.2625 1
-1 -20 2 5647.14 37.1911 1
1 -20 -1 3442.01 29.2462 1
-1 20 0 191.293 11.1352 1
1 -20 1 7930.47 33.5379 1
-1 -20 -2 2479.38 22.5224 1
1 -20 3 1232.41 13.8069 1
-1 -20 -4 3314.6 21.8552 1
1 -20 5 2398.62 27.7135 1
1 -20 6 12.9323 5.88068 1
1 20 7 1891.29 15.9921 1
-1 20 -8 519.547 9.7228 1
1 -21 -8 28.214 4.50129 1
-1 -21 7 4259.56 28.9822 1
-1 -21 6 242.269 8.87249 1
1 -21 -5 32.7835 5.1905 1
-1 21 4 352.244 7.96416 1
1 -21 -3 2314.09 16.3563 1
-1 21 2 13.3399 8.89264 1
1 -21 -1 1934.77 23.1061 1
1 21 0 874.225 17.1736 1
1 21 1 374.149 11.1126 1
1 -21 2 587.201 13.4661 1
1 21 3 9841.22 38.0683 1
1 21 4 127.239 10.9712 1
1 21 5 2344.93 26.6392 1
-1 21 -6 411.247 9.46376 1
-1 21 -7 282.618 7.07484 1
-1 -21 -8 7.45225 3.78545 1
1 -22 -8 1119.37 16.9032 1
-1 -22 7 23.9938 6.32915 1
-1 22 6 1597.46 19.9545 1
-1 -22 5 483.895 11.513 1
1 -22 -4 992.49 13.047 1
1 -22 -3 25.3921 8.01768 1
1 -22 -2 16562.9 69.6965 1
-1 22 1 181.952 10.4667 1
1 22 0 905.963 12.0856 1
1 22 1 709.315 14.2286 1
1 -22 2 4535.53 37.866 1
-1 -22 -3 41.4741 7.83542 1
1 22 4 5073.04 38.0165 1
1 22 5 67.1774 8.67487 1
1 22 6 42.5083 5.28118 1
-1 22 -7 128.136 4.3957 1
-1 23 7 1229.77 16.1534 1
-1 23 6 703.051 12.5097 1
1 -23 -5 5.03622 6.92452 1
-1 23 4 2623.92 21.5263 1
-1 -23 3 2268.38 18.0588 1
1 -23 -2 4.66121 9.8104 1
1 -23 -1 2548.63 29.2626 1
-1 -23 0 5064.37 28.965 1
1 -23 1 196.95 11.1251 1
1 -23 2 2106.74 16.4483 1
1 -23 3 3998.61 25.9715 1
1 23 4 822.678 16.2159 1
-1 23 -5 816.605 14.9201 1
-1 -23 -6 1587.8 13.2306 1
1 23 7 122.948 4.65546 1
1 -24 -7 151.822 9.63988 1
1 -24 -6 22.9266 4.77109 1
1 -24 -5 3507.55 27.1197 1
1 -24 -4 204.023 8.60091 1
1 -24 -3 1153.33 15.1171 1
1 -24 -2 246.414 8.69446 1
-1 -24 1 1520.67 18.5783 1
1 -24 0 114.471 7.75944 1
1 -24 1 7749.98 29.6613 1
1 24 2 103.633 6.66604 1
1 24 3 337.032 9.9496 1
1 24 4 123.314 8.86688 1
1 24 5 2076.75 15.5998 1
-1 -24 -6 17.9418 4.81926 1
-1 25 6 1198.16 14.8313 1
-1 25 5 29.5164 7.31074 1
1 -25 -4 2806.93 23.5936 1
-1 -25 3 679.54 12.2144 1
1 -25 -2 107.859 6.89773 1
1 -25 -1 473.099 10.2638 1
1 -25 0 5092.25 26.3777 1
1 -25 1 113.931 6.70672 1
1 -25 2 1857.02 12.7771 1
1 25 3 976.169 15.8216 1
1 25 4 413.511 13.3883 1
-1 -25 -5 294.005 10.5018 1
-1 -25 -6 1490.85 15.4605 1
1 -26 -6 320.348 10.1385 1
1 -26 -5 928.771 10.6063 1
-1 26 4 862.958 12.4348 1
1 -26 -3 311.419 8.88239 1
1 -26 -2 3099.43 16.4613 1
-1 -26 1 311.769 7.09102 1
-1 -26 0 1041.84 12.5396 1
-1 -26 -1 1921.85 12.6212 1
-1 -26 -2 1615.81 13.8493 1
1 26 3 39.2228 6.59275 1
1 -26 4 1910.29 26.5585 1
-1 -26 -5 239.936 6.76731 1
-1 -27 5 9.55674 7.02415 1
-1 -27 4 1.91241 4.81505 1
1 -27 -3 2716.73 17.3341 1
-1 -27 2 4.17681 4.80368 1
-1 -27 1 3596.03 18.6834 1
-1 -27 0 7.36722 6.20487 1
1 -27 1 105.714 5.34565 1
1 -27 2 91.8887 6.07777 1
1 27 3 1764.64 15.988 1
-1 -27 -4 7.00876 4.32728 1
-1 -28 4 455.936 12.4679 1
-1 28 3 456.83 8.44895 1
1 -28 -2 2883.7 16.8451 1
-1 -28 1 634.855 8.8124 1
1 28 0 528.321 7.38401 1
1 -28 1 874.799 12.3548 1
1 -28 2 1079.81 16.7625 1
1 -28 3 67.1887 6.91648 1
-1 -29 2 2.90059 6.32305 1
1 -29 -1 38.7151 3.95149 1
-1 29 0 1507.52 16.6688 1
1 29 1 59.005 4.087 1
1 -29 2 1103.74 16.2703 1
2 0 -10 1253.37 19.9892 1
2 0 -8 981.597 12.1324 1
2 0 -6 4723.33 25.157 1
-2 0 4 88769.3 243.596 1
2 0 -2 10212.2 49.8119 1
2 0 0 11726 49.5521 1
2 0 2 22458 142.703 1
2 0 4 30.9547 5.94914 1
2 0 6 14260.4 41.9047 1
2 0 8 4134.79 25.181 1
2 0 10 257.157 11.7067 1
2 -1 10 1417.57 29.5807 -2
2 1 -11 1417.57 29.5807 1
2 1 9 367.845 12.0568 -2
2 -1 -10 367.845 12.0568 1
2 -1 8 3762.03 27.5472 -2
2 1 -9 3762.03 27.5472 1
-2 1 -7 5038.57 23.2007 -2
-2 -1 8 5038.57 23.2007 1
-2 -1 -6 260.672 7.6615 -2
-2 1 7 260.672 7.6615 1
2 -1 5 5078.44 23.1572 -2
2 1 -6 5078.44 23.1572 1
-2 1 -4 13990.1 46.7456 -2
-2 -1 5 13990.1 46.7456 1
2 1 3 7625.35 67.3488 -2
2 -1 -4 7625.35 67.3488 1
-2 -1 -2 13324.5 72.3337 -2
-2 1 3 13324.5 72.3337 1
2 -1 1 33983.4 83.8608 -2
2 1 -2 33983.4 83.8608 1
2 -1 0 4484.68 73.1679 -2
2 1 -1 4484.68 73.1679 1
2 -1 -1 5019.09 41.267 -2
2 1 0 5019.09 41.267 1
2 -1 -2 34967.4 92.6632 -2
2 1 1 34967.4 92.6632 1
2 -1 -3 12132.2 66.4163 -2
2 1 2 12132.2 66.4163 1
2 1 -4 8719.91 46.392 -2
2 -1 3 8719.91 46.392 1
2 1 -5 13452.9 36.1859 -2
2 -1 4 13452.9 36.1859 1
2 1 -6 5097.21 20.2046 -2
2 -1 5 5097.21 20.2046 1
2 1 -7 276.539 9.20275 -2
2 -1 6 276.539 9.20275 1
2 -1 -8 5471.05 28.6633 -2
2 1 7 5471.05 28.6633 1
-2 1 9 2996.01 23.4414 -2
-2 -1 -8 2996.01 23.4414 1
2 1 -10 392.868 11.2734 -2
2 -1 9 392.868 11.2734 1
2 1 -11 733.784 18.1413 -2
2 -1 10 733.784 18.1413 1
2 -2 10 566.343 20.6315 -2
2 2 -11 566.343 20.6315 1
2 2 9 2997.87 31.7176 -2
2 -2 -10 2997.87 31.7176 1
-2 -2 -8 1232.16 17.1385 -2
-2 2 9 1232.16 17.1385 1
-2 -2 -7 394.257 8.52837 -2
-2 2 8 394.257 8.52837 1
-2 2 -6 11069.7 35.1114 -2
-2 -2 7 11069.7 35.1114 1
2 -2 5 9000.46 30.3025 -2
2 2 -6 9000.46 30.3025 1
2 2 4 2256.5 17.4649 -2
2 -2 -5 2256.5 17.4649 1
2 -2 3 13467.1 89.4675 -2
2 2 -4 13467.1 89.4675 1
2 2 2 12961.9 57.8246 -2
2 -2 -3 12961.9 57.8246 1
-2 -2 -1 3916.48 28.2424 -2
-2 2 2 3916.48 28.2424 1
2 -2 0 25460.2 67.5972 -2
2 2 -1 25460.2 67.5972 1
2 -2 -1 25455.8 101.408 -2
2 2 0 25455.8 101.408 1
-2 -2 2 4189.57 31.3466 -2
-2 2 -1 4189.57 31.3466 1
2 -2 -3 12633 44.3947 -2
2 2 2 12633 44.3947 1
2 2 -4 14102.1 63.0004 -2
2 -2 3 14102.1 63.0004 1
2 -2 -5 1810.61 15.6655 -2
2 2 4 1810.61 15.6655 1
2 -2 -6 10803.6 29.7273 -2
2 2 5 10803.6 29.7273 1
2 2 -7 8563.3 30.7403 -2
2 -2 6 8563.3 30.7403 1
2 2 -8 289.225 9.20079 -2
2 -2 7 289.225 9.20079 1
2 -2 -9 944.387 14.9744 -2
2 2 8 944.387 14.9744 1
2 2 -10 2804.02 22.5447 -2
2 -2 9 2804.02 22.5447 1
2 2 -11 228.646 13.5237 -2
2 -2 10 228.646 13.5237 1
2 3 10 3387.12 28.4115 -2
2 -3 -11 3387.12 28.4115 1
2 -3 9 53.784 9.09197 -2
2 3 -10 53.784 9.09197 1
2 3 8 4086.75 28.149 -2
2 -3 -9 4086.75 28.149 1
2 -3 7 3140.68 20.9417 -2
2 3 -8 3140.68 20.9417 1
2 3 6 2435.09 17.403 -2
2 -3 -7 2435.09 17.403 1
2 3 5 11362.6 31.5604 -2
2 -3 -6 11362.6 31.5604 1
2 3 4 17094.7 41.7002 -2
2 -3 -5 17094.7 41.7002 1
-2 -3 -3 1711.61 24.3161 -2
-2 3 4 1711.61 24.3161 1
-2 -3 -2 1795.69 21.9376 -2
-2 3 3 1795.69 21.9376 1
-2 -3 -1 53977.6 99.6468 -2
-2 3 2 53977.6 99.6468 1
-2 3 0 11701.2 44.7629 -2
-2 -3 1 11701.2 44.7629 1
2 -3 -1 14102.8 62.9305 -2
2 3 0 14102.8 62.9305 1
2 -3 -2 45938 87.4502 -2
2 3 1 45938 87.4502 1
2 -3 -3 1879.83 19.8656 -2
2 3 2 1879.83 19.8656 1
2 3 -4 1416.64 16.9438 -2
2 -3 3 1416.64 16.9438 1
2 3 -5 19912.8 48.7012 -2
2 -3 4 19912.8 48.7012 1
2 3 -6 8925.14 28.8505 -2
2 -3 5 8925.14 28.8505 1
2 3 -7 2714.68 17.8808 -2
2 -3 6 2714.68 17.8808 1
2 3 -8 2331.37 18.352 -2
2 -3 7 2331.37 18.352 1
2 -3 -9 4269.32 33.9892 -2
2 3 8 4269.32 33.9892 1
2 -3 -10 31.7749 8.45238 -2
2 3 9 31.7749 8.45238 1
2 3 -11 2025.99 25.3309 -2
2 -3 10 2025.99 25.3309 1
2 -4 10 301.354 8.86297 -2
2 4 -11 301.354 8.86297 1
2 4 9 2962.31 22.8485 -2
2 -4 -10 2962.31 22.8485 1
-2 -4 -8 1423.06 17.6761 -2
-2 4 9 1423.06 17.6761 1
2 4 7 885.55 13.383 -2
2 -4 -8 885.55 13.383 1
2 -4 6 6919.72 27.233 -2
2 4 -7 6919.72 27.233 1
2 4 5 7320.17 27.022 -2
2 -4 -6 7320.17 27.022 1
2 -4 4 1806.39 13.8451 -2
2 4 -5 1806.39 13.8451 1
-2 4 -3 23353.4 85.9026 -2
-2 -4 4 23353.4 85.9026 1
2 -4 2 8638.55 47.0858 -2
2 4 -3 8638.55 47.0858 1
2 -4 1 9736.97 45.2935 -2
2 4 -2 9736.97 45.2935 1
2 -4 0 32620.4 78.735 -2
2 4 -1 32620.4 78.735 1
-2 4 1 32068.3 66.0402 -2
-2 -4 0 32068.3 66.0402 1
-2 4 2 8154.18 39.1632 -2
-2 -4 -1 8154.18 39.1632 1
-2 4 3 8911.47 43.6057 -2
-2 -4 -2 8911.47 43.6057 1
2 -4 -4 21916.8 64.6281 -2
2 4 3 21916.8 64.6281 1
2 4 -5 1407.57 13.7988 -2
2 -4 4 1407.57 13.7988 1
2 -4 -6 7465.41 30.0588 -2
2 4 5 7465.41 30.0588 1
2 -4 -7 6188.26 25.9651 -2
2 4 6 6188.26 25.9651 1
2 4 -8 629.848 12.4109 -2
2 -4 7 629.848 12.4109 1
2 4 -9 1393.58 21.1616 -2
2 -4 8 1393.58 21.1616 1
-2 4 10 2444.11 18.2464 -2
-2 -4 -9 2444.11 18.2464 1
2 4 -11 179.448 12.2045 -2
2 -4 10 179.448 12.2045 1
2 5 10 610.212 11.9386 -2
2 -5 -11 610.212 11.9386 1
2 5 9 342.689 11.884 -2
2 -5 -10 342.689 11.884 1
2 5 8 3123.33 29.4007 -2
2 -5 -9 3123.33 29.4007 1
2 5 7 10540.9 47.4446 -2
2 -5 -8 10540.9 47.4446 1
2 5 6 230.7 7.87826 -2
2 -5 -7 230.7 7.87826 1
2 5 5 4270.18 20.0508 -2
2 -5 -6 4270.18 20.0508 1
-2 5 -4 12282.9 32.6057 -2
-2 -5 5 12282.9 32.6057 1
-2 5 -3 10836.9 45.0266 -2
-2 -5 4 10836.9 45.0266 1
-2 -5 -2 12738.5 57.7898 -2
-2 5 3 12738.5 57.7898 1
-2 -5 -1 33306 81.5928 -2
-2 5 2 33306 81.5928 1
-2 5 0 4705.76 34.5649 -2
-2 -5 1 4705.76 34.5649 1
2 -5 -1 4795.95 29.1718 -2
2 5 0 4795.95 29.1718 1
-2 5 2 35997.8 81.0212 -2
-2 -5 -1 35997.8 81.0212 1
-2 5 3 10681.6 50.1349 -2
-2 -5 -2 10681.6 50.1349 1
2 5 -4 11735.2 46.8237 -2
2 -5 3 11735.2 46.8237 1
2 -5 -5 10122.5 41.9422 -2
2 5 4 10122.5 41.9422 1
-2 5 6 4400.13 22.3712 -2
-2 -5 -5 4400.13 22.3712 1
2 5 -7 191.031 8.36426 -2
2 -5 6 191.031 8.36426 1
2 -5 -8 11021.2 40.298 -2
2 5 7 11021.2 40.298 1
2 -5 -9 2184.2 31.1177 -2
2 5 8 2184.2 31.1177 1
2 -5 -10 291.18 10.0518 -2
2 5 9 291.18 10.0518 1
2 -5 -11 324.631 12.8875 -2
2 5 10 324.631 12.8875 1
2 -6 10 95.0238 7.35812 -2
2 6 -11 95.0238 7.35812 1
2 6 9 2074.82 21.7845 -2
2 -6 -10 2074.82 21.7845 1
2 6 8 2450.47 25.6019 -2
2 -6 -9 2450.47 25.6019 1
2 6 7 2752.9 22.4348 -2
2 -6 -8 2752.9 22.4348 1
2 6 6 9279.89 33.1294 -2
2 -6 -7 9279.89 33.1294 1
2 6 5 4461.3 22.4682 -2
2 -6 -6 4461.3 22.4682 1
2 6 4 1386.98 12.2852 -2
2 -6 -5 1386.98 12.2852 1
-2 -6 -3 20360.5 46.4271 -2
-2 6 4 20360.5 46.4271 1
-2 -6 -2 20858.2 74.2247 -2
-2 6 3 20858.2 74.2247 1
-2 -6 -1 3545.84 37.6507 -2
-2 6 2 3545.84 37.6507 1
-2 6 0 30691.5 112.568 -2
-2 -6 1 30691.5 112.568 1
-2 -6 1 31862.6 120.875 -2
-2 6 0 31862.6 120.875 1
2 6 -2 3557.74 30.8872 -2
2 -6 1 3557.74 30.8872 1
2 6 -3 21542.6 74.3994 -2
2 -6 2 21542.6 74.3994 1
2 -6 -4 15800 37.9898 -2
2 6 3 15800 37.9898 1
2 6 -5 1221.35 15.583 -2
2 -6 4 1221.35 15.583 1
-2 6 6 3564.9 30.5389 -2
-2 -6 -5 3564.9 30.5389 1
-2 6 7 9472.17 35.7073 -2
-2 -6 -6 9472.17 35.7073 1
-2 -6 8 1878.15 19.1737 -2
-2 6 -7 1878.15 19.1737 1
2 6 -9 2304.19 22.9691 -2
2 -6 8 2304.19 22.9691 1
-2 6 10 1437.6 16.5963 -2
-2 -6 -9 1437.6 16.5963 1
2 6 -11 80.8503 9.77356 -2
2 -6 10 80.8503 9.77356 1
2 7 10 1575.67 20.8874 -2
2 -7 -11 1575.67 20.8874 1
2 7 9 270.789 10.2955 -2
2 -7 -10 270.789 10.2955 1
2 -7 8 1993.12 27.7494 -2
2 7 -9 1993.12 27.7494 1
2 7 7 3296.85 28.2453 -2
2 -7 -8 3296.85 28.2453 1
2 7 6 316.752 7.96685 -2
2 -7 -7 316.752 7.96685 1
2 -7 5 3302.27 19.6119 -2
2 7 -6 3302.27 19.6119 1
2 7 4 10428.4 31.9289 -2
2 -7 -5 10428.4 31.9289 1
2 -7 3 3101.44 19.6339 -2
2 7 -4 3101.44 19.6339 1
2 -7 2 8794.4 46.2269 -2
2 7 -3 8794.4 46.2269 1
-2 7 -1 27899.5 95.7697 -2
-2 -7 2 27899.5 95.7697 1
2 -7 0 11598.3 78.2934 -2
2 7 -1 11598.3 78.2934 1
-2 7 1 13259.9 93.5595 -2
-2 -7 0 13259.9 93.5595 1
2 -7 -2 26570.9 96.5102 -2
2 7 1 26570.9 96.5102 1
2 7 -3 8098.13 48.1249 -2
2 -7 2 8098.13 48.1249 1
2 -7 -4 3267.71 17.4313 -2
2 7 3 3267.71 17.4313 1
2 -7 -5 10384.7 42.9867 -2
2 7 4 10384.7 42.9867 1
2 7 -6 2507.02 25.6813 -2
2 -7 5 2507.02 25.6813 1
2 7 -7 369.5 10.4543 -2
2 -7 6 369.5 10.4543 1
2 -7 -8 2799.94 26.2744 -2
2 7 7 2799.94 26.2744 1
2 -7 -9 1446.58 21.3717 -2
2 7 8 1446.58 21.3717 1
-2 7 10 210.678 9.773 -2
-2 -7 -9 210.678 9.773 1
2 -7 -11 1315.95 17.6561 -2
2 7 10 1315.95 17.6561 1
-2 8 -10 344.269 13.7553 -2
-2 -8 11 344.269 13.7553 1
2 8 9 3385.65 29.5002 -2
2 -8 -10 3385.65 29.5002 1
2 -8 8 642.113 16.8941 -2
2 8 -9 642.113 16.8941 1
2 8 7 35.5094 6.79473 -2
2 -8 -8 35.5094 6.79473 1
2 8 6 6701.3 29.6876 -2
2 -8 -7 6701.3 29.6876 1
-2 8 -5 17881.2 43.2807 -2
-2 -8 6 17881.2 43.2807 1
2 8 4 4463.26 21.3287 -2
2 -8 -5 4463.26 21.3287 1
-2 -8 -3 12862.8 35.4847 -2
-2 8 4 12862.8 35.4847 1
2 -8 2 13299.6 55.5047 -2
2 8 -3 13299.6 55.5047 1
-2 8 -1 1559.16 29.4164 -2
-2 -8 2 1559.16 29.4164 1
2 8 0 17997.8 89.0068 -2
2 -8 -1 17997.8 89.0068 1
-2 -8 1 14036.1 101.184 -2
-2 8 0 14036.1 101.184 1
-2 8 2 1414.65 29.2696 -2
-2 -8 -1 1414.65 29.2696 1
2 -8 -3 11028.4 39.0096 -2
2 8 2 11028.4 39.0096 1
2 -8 -4 14084.3 37.1574 -2
2 8 3 14084.3 37.1574 1
-2 8 5 3836.85 26.2872 -2
-2 -8 -4 3836.85 26.2872 1
2 8 -6 19465.9 52.731 -2
2 -8 5 19465.9 52.731 1
-2 -8 7 5055.94 24.4177 -2
-2 8 -6 5055.94 24.4177 1
2 -8 -8 52.5271 9.9511 -2
2 8 7 52.5271 9.9511 1
2 -8 -9 360.434 13.3601 -2
2 8 8 360.434 13.3601 1
2 8 -10 3033.91 23.7646 -2
2 -8 9 3033.91 23.7646 1
2 -8 -11 237.736 13.695 -2
2 8 10 237.736 13.695 1
2 -9 10 874.665 17.568 -2
2 9 -11 874.665 17.568 1
2 9 9 188.365 10.3441 -2
2 -9 -10 188.365 10.3441 1
2 -9 8 1573.59 29.1512 -2
2 9 -9 1573.59 29.1512 1
2 -9 7 3840.43 25.2922 -2
2 9 -8 3840.43 25.2922 1
2 9 6 1066.28 12.6792 -2
2 -9 -7 1066.28 12.6792 1
-2 9 -5 8909.57 36.8103 -2
-2 -9 6 8909.57 36.8103 1
2 9 4 16831.6 41.3659 -2
2 -9 -5 16831.6 41.3659 1
2 9 3 1854.09 13.8919 -2
2 -9 -4 1854.09 13.8919 1
2 9 2 7026.16 36.821 -2
2 -9 -3 7026.16 36.821 1
2 -9 1 26651.3 114.084 -2
2 9 -2 26651.3 114.084 1
2 -9 0 14607.6 90.5861 -2
2 9 -1 14607.6 90.5861 1
2 -9 -1 17093.2 101.113 -2
2 9 0 17093.2 101.113 1
2 9 -2 24500.4 117.117 -2
2 -9 1 24500.4 117.117 1
-2 -9 3 6835.3 31.3587 -2
-2 9 -2 6835.3 31.3587 1
2 -9 -4 2005.76 13.5072 -2
2 9 3 2005.76 13.5072 1
-2 -9 5 18148.8 56.416 -2
-2 9 -4 18148.8 56.416 1
2 9 -6 7135.79 32.7277 -2
2 -9 5 7135.79 32.7277 1
2 9 -7 1135.49 14.2822 -2
2 -9 6 1135.49 14.2822 1
2 -9 -8 3074.72 23.8027 -2
2 9 7 3074.72 23.8027 1
2 9 -9 1259.54 19.3053 -2
2 -9 8 1259.54 19.3053 1
2 9 -10 131.797 9.96922 -2
2 -9 9 131.797 9.96922 1
2 -9 -11 869.053 18.2382 -2
2 9 10 869.053 18.2382 1
-2 10 -10 106.69 9.38213 -2
-2 -10 11 106.69 9.38213 1
2 10 9 1511.87 20.973 -2
2 -10 -10 1511.87 20.973 1
-2 -10 -8 1855.65 29.4076 -2
-2 10 9 1855.65 29.4076 1
2 -10 7 1253.39 17.144 -2
2 10 -8 1253.39 17.144 1
-2 -10 -6 5727.67 26.6647 -2
-2 10 7 5727.67 26.6647 1
2 10 5 2698.99 21.3613 -2
2 -10 -6 2698.99 21.3613 1
-2 -10 -4 1622.31 15.113 -2
-2 10 5 1622.31 15.113 1
2 -10 3 17115.1 49.2584 -2
2 10 -4 17115.1 49.2584 1
2 10 2 18952 61.3456 -2
2 -10 -3 18952 61.3456 1
-2 10 -1 3941.71 30.6401 -2
-2 -10 2 3941.71 30.6401 1
-2 10 0 10434 91.9319 -2
-2 -10 1 10434 91.9319 1
2 10 -1 11187.4 63.2615 -2
2 -10 0 11187.4 63.2615 1
2 -10 -2 3337.52 19.5327 -2
2 10 1 3337.52 19.5327 1
2 10 -3 21384.8 53.4528 -2
2 -10 2 21384.8 53.4528 1
2 -10 -4 14073.7 36.3597 -2
2 10 3 14073.7 36.3597 1
2 10 -5 1707.71 19.3333 -2
2 -10 4 1707.71 19.3333 1
2 -10 -6 2279.7 21.2398 -2
2 10 5 2279.7 21.2398 1
2 10 -7 5807.61 28.6885 -2
2 -10 6 5807.61 28.6885 1
2 -10 -8 872.592 14.2179 -2
2 10 7 872.592 14.2179 1
2 10 -9 1656.81 21.18 -2
2 -10 8 1656.81 21.18 1
2 -10 -10 1285.42 17.8718 -2
2 10 9 1285.42 17.8718 1
2 -10 -11 115.834 9.17777 -2
2 10 10 115.834 9.17777 1
2 11 9 117.137 9.86903 -2
2 -11 -10 117.137 9.86903 1
-2 -11 -8 2903.67 63.6763 -2
-2 11 9 2903.67 63.6763 1
2 -11 7 6821.22 40.2966 -2
2 11 -8 6821.22 40.2966 1
-2 11 -6 263.873 7.92713 -2
-2 -11 7 263.873 7.92713 1
2 11 5 917.723 17.3887 -2
2 -11 -6 917.723 17.3887 1
-2 11 -4 9665.64 43.2429 -2
-2 -11 5 9665.64 43.2429 1
2 11 3 10803.2 55.313 -2
2 -11 -4 10803.2 55.313 1
2 11 2 11484.1 47.1829 -2
2 -11 -3 11484.1 47.1829 1
2 11 1 14948.7 47.885 -2
2 -11 -2 14948.7 47.885 1
2 -11 0 4986.84 28.6946 -2
2 11 -1 4986.84 28.6946 1
2 -11 -1 4632.64 26.227 -2
2 11 0 4632.64 26.227 1
2 11 -2 17534.8 52.1159 -2
2 -11 1 17534.8 52.1159 1
2 11 -3 9362.92 32.0934 -2
2 -11 2 9362.92 32.0934 1
2 -11 -4 11903.9 34.6841 -2
2 11 3 11903.9 34.6841 1
2 11 -5 8290.5 39.8934 -2
2 -11 4 8290.5 39.8934 1
2 11 -6 850.911 12.7439 -2
2 -11 5 850.911 12.7439 1
-2 11 7 245.965 8.73068 -2
-2 -11 -6 245.965 8.73068 1
2 -11 -8 7519.74 39.2506 -2
2 11 7 7519.74 39.2506 1
2 11 -9 1541.64 20.0271 -2
2 -11 8 1541.64 20.0271 1
2 -11 -10 215.089 11.0003 -2
2 11 9 215.089 11.0003 1
-2 12 -9 1635.13 14.2309 -2
-2 -12 10 1635.13 14.2309 1
-2 12 -8 1834.16 31.3458 -2
-2 -12 9 1834.16 31.3458 1
2 12 7 518.338 17.1981 -2
2 -12 -8 518.338 17.1981 1
2 12 6 5068.02 40.0213 -2
2 -12 -7 5068.02 40.0213 1
-2 12 -5 3424.31 35.1443 -2
-2 -12 6 3424.31 35.1443 1
2 -12 4 1146.86 18.8567 -2
2 12 -5 1146.86 18.8567 1
2 12 3 11985.4 49.5786 -2
2 -12 -4 11985.4 49.5786 1
2 12 2 9143.26 44.1974 -2
2 -12 -3 9143.26 44.1974 1
2 -12 1 1129.54 14.0633 -2
2 12 -2 1129.54 14.0633 1
2 -12 0 11685.5 47.5785 -2
2 12 -1 11685.5 47.5785 1
2 -12 -1 11792.3 43.0167 -2
2 12 0 11792.3 43.0167 1
2 -12 -2 937.823 14.4692 -2
2 12 1 937.823 14.4692 1
2 12 -3 10720.2 36.7577 -2
2 -12 2 10720.2 36.7577 1
2 -12 -4 10038.9 34.2679 -2
2 12 3 10038.9 34.2679 1
2 12 -5 1089.47 17.2425 -2
2 -12 4 1089.47 17.2425 1
2 -12 -6 3055.6 21.9724 -2
2 12 5 3055.6 21.9724 1
-2 12 7 4811.44 30.8379 -2
-2 -12 -6 4811.44 30.8379 1
2 -12 -8 458.206 10.4187 -2
2 12 7 458.206 10.4187 1
2 12 -9 2519.33 23.3694 -2
2 -12 8 2519.33 23.3694 1
2 -12 -10 1634.95 20.165 -2
2 12 9 1634.95 20.165 1
2 13 9 70.8292 5.98353 -2
2 -13 -10 70.8292 5.98353 1
-2 13 -8 992.448 30.4942 -2
-2 -13 9 992.448 30.4942 1
2 13 7 2796.73 27.3346 -2
2 -13 -8 2796.73 27.3346 1
2 13 6 272.206 11.7449 -2
2 -13 -7 272.206 11.7449 1
2 13 5 7274.09 41.7672 -2
2 -13 -6 7274.09 41.7672 1
-2 13 -4 7774.51 35.8434 -2
-2 -13 5 7774.51 35.8434 1
2 13 3 465.413 14.1743 -2
2 -13 -4 465.413 14.1743 1
-2 -13 -2 2783.62 24.6578 -2
-2 13 3 2783.62 24.6578 1
2 -13 1 17812.1 68.7802 -2
2 13 -2 17812.1 68.7802 1
-2 -13 0 12397.7 42.4718 -2
-2 13 1 12397.7 42.4718 1
-2 -13 1 15084.5 68.8773 -2
-2 13 0 15084.5 68.8773 1
2 13 -2 15199 50.8928 -2
2 -13 1 15199 50.8928 1
2 -13 -3 2896.5 21.9948 -2
2 13 2 2896.5 21.9948 1
2 -13 -4 496.196 11.0658 -2
2 13 3 496.196 11.0658 1
2 13 -5 9088.23 39.9217 -2
2 -13 4 9088.23 39.9217 1
2 -13 -6 5416.79 30.9079 -2
2 13 5 5416.79 30.9079 1
-2 13 7 374.778 11.237 -2
-2 -13 -6 374.778 11.237 1
2 13 -8 2185.29 18.0102 -2
2 -13 7 2185.29 18.0102 1
2 -13 -9 1291.7 19.1673 -2
2 13 8 1291.7 19.1673 1
2 -13 -10 65.8141 6.77006 -2
2 13 9 65.8141 6.77006 1
2 14 9 2015.39 20.6608 -2
2 -14 -10 2015.39 20.6608 1
2 -14 8 426.398 9.71345 -2
2 14 -9 426.398 9.71345 1
2 14 7 380.593 12.4767 -2
2 -14 -8 380.593 12.4767 1
2 14 6 6634.81 47.383 -2
2 -14 -7 6634.81 47.383 1
2 -14 5 8860.59 45.6838 -2
2 14 -6 8860.59 45.6838 1
-2 -14 -4 2006.48 19.6132 -2
-2 14 5 2006.48 19.6132 1
2 -14 3 7901.06 39.7611 -2
2 14 -4 7901.06 39.7611 1
2 -14 2 6282.95 32.3449 -2
2 14 -3 6282.95 32.3449 1
2 -14 1 608.289 15.8773 -2
2 14 -2 608.289 15.8773 1
2 -14 0 14793.5 55.2593 -2
2 14 -1 14793.5 55.2593 1
-2 -14 1 13074 57.2864 -2
-2 14 0 13074 57.2864 1
2 14 -2 656.377 15.0129 -2
2 -14 1 656.377 15.0129 1
2 -14 -3 5376.24 33.6076 -2
2 14 2 5376.24 33.6076 1
2 -14 -4 8515.24 36.4693 -2
2 14 3 8515.24 36.4693 1
-2 14 5 1472.12 20.4813 -2
-2 -14 -4 1472.12 20.4813 1
2 -14 -6 10019.5 47.1742 -2
2 14 5 10019.5 47.1742 1
-2 14 7 5222.4 36.085 -2
-2 -14 -6 5222.4 36.085 1
-2 14 8 331.797 9.0551 -2
-2 -14 -7 331.797 9.0551 1
2 -14 -9 317.455 11.0649 -2
2 14 8 317.455 11.0649 1
-2 14 10 1803.34 22.853 -2
-2 -14 -9 1803.34 22.853 1
2 15 9 45.7815 8.145 -2
2 -15 -10 45.7815 8.145 1
-2 15 -8 1414.48 15.4767 -2
-2 -15 9 1414.48 15.4767 1
2 -15 7 2622.78 18.7894 -2
2 15 -8 2622.78 18.7894 1
2 15 6 407.725 13.8107 -2
2 -15 -7 407.725 13.8107 1
-2 15 -5 2570.87 27.8471 -2
-2 -15 6 2570.87 27.8471 1
2 -15 4 5336.81 25.8027 -2
2 15 -5 5336.81 25.8027 1
2 15 3 1509.55 19.1828 -2
2 -15 -4 1509.55 19.1828 1
2 -15 2 7292 41.3326 -2
2 15 -3 7292 41.3326 1
2 -15 1 14761.3 55.5573 -2
2 15 -2 14761.3 55.5573 1
2 -15 0 3199.48 25.1521 -2
2 15 -1 3199.48 25.1521 1
-2 15 1 3582.9 34.1213 -2
-2 -15 0 3582.9 34.1213 1
2 -15 -2 15808.6 51.4044 -2
2 15 1 15808.6 51.4044 1
2 15 -3 5982.85 36.4296 -2
2 -15 2 5982.85 36.4296 1
2 -15 -4 1685.52 16.8731 -2
2 15 3 1685.52 16.8731 1
2 15 -5 4403.61 36.4662 -2
2 -15 4 4403.61 36.4662 1
2 -15 -6 2160.38 30.5426 -2
2 15 5 2160.38 30.5426 1
-2 15 7 468.459 14.2698 -2
-2 -15 -6 468.459 14.2698 1
-2 15 8 2611.09 22.443 -2
-2 -15 -7 2611.09 22.443 1
2 -15 -9 1041.98 15.2513 -2
2 15 8 1041.98 15.2513 1
-2 -15 10 74.7656 10.4774 -2
-2 15 -9 74.7656 10.4774 1
-2 16 -8 938.731 13.0526 -2
-2 -16 9 938.731 13.0526 1
2 -16 7 967.599 15.0857 -2
2 16 -8 967.599 15.0857 1
-2 16 -6 4142.72 26.3927 -2
-2 -16 7 4142.72 26.3927 1
2 16 5 1927.91 20.5836 -2
2 -16 -6 1927.91 20.5836 1
2 16 4 30.6686 6.56063 -2
2 -16 -5 30.6686 6.56063 1
2 16 3 10088.3 39.8354 -2
2 -16 -4 10088.3 39.8354 1
2 16 2 6112.58 38.2653 -2
2 -16 -3 6112.58 38.2653 1
2 16 1 1166.9 17.7201 -2
2 -16 -2 1166.9 17.7201 1
2 -16 0 8611.29 43.4381 -2
2 16 -1 8611.29 43.4381 1
-2 16 1 9832.19 53.4184 -2
-2 -16 0 9832.19 53.4184 1
2 -16 -2 980.792 16.9134 -2
2 16 1 980.792 16.9134 1
2 -16 -3 7042.78 39.3531 -2
2 16 2 7042.78 39.3531 1
2 -16 -4 7102.4 30.4327 -2
2 16 3 7102.4 30.4327 1
2 16 -5 43.1467 12.7549 -2
2 -16 4 43.1467 12.7549 1
2 -16 -6 1263.02 23.6652 -2
2 16 5 1263.02 23.6652 1
-2 16 7 4132.9 33.53 -2
-2 -16 -6 4132.9 33.53 1
2 -16 -8 717.723 12.4217 -2
2 16 7 717.723 12.4217 1
2 -16 -9 1189.51 14.5346 -2
2 16 8 1189.51 14.5346 1
2 -17 8 1222.6 13.128 -2
2 17 -9 1222.6 13.128 1
2 -17 7 3185.91 22.3013 -2
2 17 -8 3185.91 22.3013 1
-2 17 -6 68.8548 7.624 -2
-2 -17 7 68.8548 7.624 1
-2 17 -5 2069.03 18.0611 -2
-2 -17 6 2069.03 18.0611 1
2 17 4 6741.29 38.4197 -2
2 -17 -5 6741.29 38.4197 1
2 -17 3 3628.09 27.0714 -2
2 17 -4 3628.09 27.0714 1
2 17 2 3841.87 30.9352 -2
2 -17 -3 3841.87 30.9352 1
2 17 1 11794 58.8849 -2
2 -17 -2 11794 58.8849 1
-2 -17 0 1378.75 22.0164 -2
-2 17 1 1378.75 22.0164 1
2 -17 -1 1515.55 23.5579 -2
2 17 0 1515.55 23.5579 1
2 -17 -2 11769 52.2612 -2
2 17 1 11769 52.2612 1
2 -17 -3 2854.74 22.9326 -2
2 17 2 2854.74 22.9326 1
2 -17 -4 4005.31 39.6874 -2
2 17 3 4005.31 39.6874 1
2 -17 -5 4986.03 65.3917 -2
2 17 4 4986.03 65.3917 1
2 -17 -6 1790.87 36.7891 -2
2 17 5 1790.87 36.7891 1
-2 17 7 54.1591 8.03871 -2
-2 -17 -6 54.1591 8.03871 1
-2 17 8 2994.61 20.6875 -2
-2 -17 -7 2994.61 20.6875 1
2 -17 -9 903.251 14.5194 -2
2 17 8 903.251 14.5194 1
2 -18 7 204.648 7.31168 -2
2 18 -8 204.648 7.31168 1
-2 18 -6 3142.12 21.0588 -2
-2 -18 7 3142.12 21.0588 1
2 18 5 2387.52 17.5923 -2
2 -18 -6 2387.52 17.5923 1
2 -18 4 727.134 17.1691 -2
2 18 -5 727.134 17.1691 1
2 18 3 9216.23 50.475 -2
2 -18 -4 9216.23 50.475 1
2 18 2 2849.47 31.194 -2
2 -18 -3 2849.47 31.194 1
2 18 1 1319.41 24.6634 -2
2 -18 -2 1319.41 24.6634 1
-2 18 0 8612.69 49.5672 -2
-2 -18 1 8612.69 49.5672 1
-2 18 1 8013.82 49.0319 -2
-2 -18 0 8013.82 49.0319 1
2 -18 -2 1123.67 18.4928 -2
2 18 1 1123.67 18.4928 1
2 -18 -3 2834.57 25.496 -2
2 18 2 2834.57 25.496 1
2 -18 -4 8939.17 65.105 -2
2 18 3 8939.17 65.105 1
2 -18 -5 440.137 17.4168 -2
2 18 4 440.137 17.4168 1
2 -18 -6 2852.61 43.4719 -2
2 18 5 2852.61 43.4719 1
-2 18 7 2619.78 24.0127 -2
-2 -18 -6 2619.78 24.0127 1
-2 18 8 152.981 6.14539 -2
-2 -18 -7 152.981 6.14539 1
-2 -18 9 316.69 14.1637 -2
-2 18 -8 316.69 14.1637 1
2 19 7 901.069 17.4483 -2
2 -19 -8 901.069 17.4483 1
-2 19 -6 777.748 10.8187 -2
-2 -19 7 777.748 10.8187 1
2 19 5 3957.21 25.4858 -2
2 -19 -6 3957.21 25.4858 1
2 19 4 6513.72 57.253 -2
2 -19 -5 6513.72 57.253 1
2 19 3 35.6442 10.7342 -2
2 -19 -4 35.6442 10.7342 1
2 19 2 2328.3 39.5299 -2
2 -19 -3 2328.3 39.5299 1
-2 -19 -1 13626.5 63.5261 -2
-2 19 2 13626.5 63.5261 1
-2 19 0 3173.24 33.6296 -2
-2 -19 1 3173.24 33.6296 1
2 -19 -1 4025.69 29.497 -2
2 19 0 4025.69 29.497 1
-2 19 2 10664.7 58.0245 -2
-2 -19 -1 10664.7 58.0245 1
2 -19 -3 2041.66 30.2977 -2
2 19 2 2041.66 30.2977 1
2 -19 -4 27.855 13.3169 -2
2 19 3 27.855 13.3169 1
2 -19 -5 7343.65 69.512 -2
2 19 4 7343.65 69.512 1
-2 19 6 3362.62 30.5047 -2
-2 -19 -5 3362.62 30.5047 1
-2 19 7 889.388 13.8786 -2
-2 -19 -6 889.388 13.8786 1
2 -19 -8 695.693 11.2753 -2
2 19 7 695.693 11.2753 1
2 20 7 236.04 14.4005 -2
2 -20 -8 236.04 14.4005 1
2 20 6 2541.29 21.8102 -2
2 -20 -7 2541.29 21.8102 1
2 20 5 2121.44 25.5576 -2
2 -20 -6 2121.44 25.5576 1
-2 20 -4 248.659 16.7044 -2
-2 -20 5 248.659 16.7044 1
2 20 3 5061.3 37.6262 -2
2 -20 -4 5061.3 37.6262 1
2 20 2 5373.09 41.5234 -2
2 -20 -3 5373.09 41.5234 1
2 20 1 841.346 22.5895 -2
2 -20 -2 841.346 22.5895 1
2 20 0 7900.61 66.3258 -2
2 -20 -1 7900.61 66.3258 1
2 -20 -1 6983.91 47.2219 -2
2 20 0 6983.91 47.2219 1
2 -20 -2 966.059 22.9914 -2
2 20 1 966.059 22.9914 1
2 -20 -3 4697.14 41.5383 -2
2 20 2 4697.14 41.5383 1
2 -20 -4 4322.35 42.7468 -2
2 20 3 4322.35 42.7468 1
-2 20 6 2259.49 23.8866 -2
-2 -20 -5 2259.49 23.8866 1
-2 20 7 2364.94 15.5492 -2
-2 -20 -6 2364.94 15.5492 1
2 -20 -8 175.038 6.89811 -2
2 20 7 175.038 6.89811 1
2 21 6 16.1183 6.53465 -2
2 -21 -7 16.1183 6.53465 1
2 21 5 690.391 19.4241 -2
2 -21 -6 690.391 19.4241 1
2 21 4 1825.22 31.2451 -2
2 -21 -5 1825.22 31.2451 1
2 21 3 1862.61 23.2273 -2
2 -21 -4 1862.61 23.2273 1
2 21 2 1110.84 20.8944 -2
2 -21 -3 1110.84 20.8944 1
2 21 1 8173.78 55.3582 -2
2 -21 -2 8173.78 55.3582 1
2 -21 0 945.095 18.8975 -2
2 21 -1 945.095 18.8975 1
2 -21 -1 874.049 19.0514 -2
2 21 0 874.049 19.0514 1
2 -21 -2 8949.51 49.9682 -2
2 21 1 8949.51 49.9682 1
2 -21 -3 732.919 25.2522 -2
2 21 2 732.919 25.2522 1
2 -21 -4 1993.77 28.4875 -2
2 21 3 1993.77 28.4875 1
2 -21 -5 1760.88 33.0982 -2
2 21 4 1760.88 33.0982 1
-2 21 6 634.52 11.0593 -2
-2 -21 -5 634.52 11.0593 1
-2 21 7 11.5184 4.61211 -2
-2 -21 -6 11.5184 4.61211 1
2 22 6 2556.44 35.3591 -2
2 -22 -7 2556.44 35.3591 1
2 22 5 667.14 16.5692 -2
2 -22 -6 667.14 16.5692 1
2 22 4 20.3354 10.3304 -2
2 -22 -5 20.3354 10.3304 1
2 22 3 7284.33 46.3312 -2
2 -22 -4 7284.33 46.3312 1
2 22 2 4834.66 35.8857 -2
2 -22 -3 4834.66 35.8857 1
2 22 1 501.317 17.3633 -2
2 -22 -2 501.317 17.3633 1
2 22 0 3731.16 33.6588 -2
2 -22 -1 3731.16 33.6588 1
2 22 -1 4004.26 38.3947 -2
2 -22 0 4004.26 38.3947 1
2 -22 -2 402.536 14.0199 -2
2 22 1 402.536 14.0199 1
2 -22 -3 5000.94 33.1224 -2
2 22 2 5000.94 33.1224 1
2 -22 -4 5582.72 34.2132 -2
2 22 3 5582.72 34.2132 1
2 -22 -5 64.576 11.614 -2
2 22 4 64.576 11.614 1
-2 22 6 539.953 10.1343 -2
-2 -22 -5 539.953 10.1343 1
2 -22 -7 2918.63 21.1026 -2
2 22 6 2918.63 21.1026 1
2 23 5 926.499 19.5711 -2
2 -23 -6 926.499 19.5711 1
2 23 4 2721.88 25.7585 -2
2 -23 -5 2721.88 25.7585 1
2 23 3 800.312 16.7362 -2
2 -23 -4 800.312 16.7362 1
2 23 2 2304.32 23.8383 -2
2 -23 -3 2304.32 23.8383 1
2 23 1 6337.19 32.8128 -2
2 -23 -2 6337.19 32.8128 1
2 23 0 1559.51 21.7237 -2
2 -23 -1 1559.51 21.7237 1
2 -23 -1 1753.97 24.8236 -2
2 23 0 1753.97 24.8236 1
2 -23 -2 5783.53 31.8619 -2
2 23 1 5783.53 31.8619 1
2 -23 -3 1998.02 20.5828 -2
2 23 2 1998.02 20.5828 1
2 -23 -4 803.581 17.493 -2
2 23 3 803.581 17.493 1
2 -23 -5 2878.96 32.5296 -2
2 23 4 2878.96 32.5296 1
-2 23 6 850.085 12.1841 -2
-2 -23 -5 850.085 12.1841 1
2 -24 5 2405.98 24.3811 -2
2 24 -6 2405.98 24.3811 1
2 24 4 467.167 13.8518 -2
2 -24 -5 467.167 13.8518 1
2 24 3 2549.21 26.7225 -2
2 -24 -4 2549.21 26.7225 1
2 24 2 1037.19 12.9162 -2
2 -24 -3 1037.19 12.9162 1
2 24 1 198.298 8.53617 -2
2 -24 -2 198.298 8.53617 1
2 -24 0 4915.48 32.3412 -2
2 24 -1 4915.48 32.3412 1
2 24 -1 4167.93 23.3457 -2
2 -24 0 4167.93 23.3457 1
2 -24 -2 195.388 10.9421 -2
2 24 1 195.388 10.9421 1
2 -24 -3 863.836 13.2179 -2
2 24 2 863.836 13.2179 1
2 -24 -4 2724.44 21.4343 -2
2 24 3 2724.44 21.4343 1
-2 24 5 354.326 8.18818 -2
-2 -24 -4 354.326 8.18818 1
2 24 -6 1951.45 26.151 -2
2 -24 5 1951.45 26.151 1
2 -25 4 2639.89 15.5372 -2
2 25 -5 2639.89 15.5372 1
2 -25 3 452.246 7.91245 -2
2 25 -4 452.246 7.91245 1
2 25 2 622.165 9.97375 -2
2 -25 -3 622.165 9.97375 1
2 25 1 3868.72 20.0844 -2
2 -25 -2 3868.72 20.0844 1
2 -25 0 1096.19 14.1027 -2
2 25 -1 1096.19 14.1027 1
2 -25 -1 1199.75 12.8682 -2
2 25 0 1199.75 12.8682 1
2 -25 -2 3508.23 19.4891 -2
2 25 1 3508.23 19.4891 1
2 -25 -3 700.342 16.9278 -2
2 25 2 700.342 16.9278 1
2 25 -4 477.941 8.25523 -2
2 -25 3 477.941 8.25523 1
2 -25 -5 2485.63 30.9073 -2
2 25 4 2485.63 30.9073 1
2 -26 3 1769.03 16.6044 -2
2 26 -4 1769.03 16.6044 1
2 -26 2 1639.86 16.0472 -2
2 26 -3 1639.86 16.0472 1
2 26 1 433.444 7.8715 -2
2 -26 -2 433.444 7.8715 1
2 -26 0 2325.76 15.7334 -2
2 26 -1 2325.76 15.7334 1
2 26 -1 2402.28 15.6333 -2
2 -26 0 2402.28 15.6333 1
2 26 -2 337.898 9.30752 -2
2 -26 1 337.898 9.30752 1
2 -26 -3 1793.02 20.3785 -2
2 26 2 1793.02 20.3785 1
2 26 -4 1478.06 12.2779 -2
2 -26 3 1478.06 12.2779 1
2 27 2 1212.2 22.5382 -2
2 -27 -3 1212.2 22.5382 1
2 27 1 1502.52 13.2199 -2
2 -27 -2 1502.52 13.2199 1
2 27 0 169.904 10.646 -2
2 -27 -1 169.904 10.646 1
2 27 -1 157.717 7.35736 -2
2 -27 0 157.717 7.35736 1
2 27 -2 1774.54 13.8313 -2
2 -27 1 1774.54 13.8313 1
2 27 -3 1052.51 19.419 -2
2 -27 2 1052.51 19.419 1
3 0 -10 145.362 11.9723 1
3 0 -8 1245.26 14.7847 1
3 0 -6 15541.3 55.046 1
3 0 -4 2651.28 15.4709 1
3 0 -2 6459.54 19.4335 1
3 0 0 12548.1 32.8707 1
3 0 2 34.1714 3.75135 1
-3 0 -4 12409.8 40.7049 1
3 0 6 4803.86 34.1833 1
3 0 8 395.213 11.096 1
3 1 -10 169.564 12.2825 1
3 1 -9 19.5667 6.42221 1
3 -1 -8 711.156 8.71233 1
3 -1 -7 2320.34 14.5997 1
3 -1 -6 207.86 7.16621 1
-3 -1 5 2213.29 13.2016 1
3 -1 -4 2677.8 10.5479 1
3 1 -3 679.095 5.80562 1
3 1 -2 1646.37 8.46097 1
3 1 -1 11770.7 25.2589 1
3 1 0 2947.33 11.1111 1
3 -1 1 3784.12 9.95257 1
3 -1 2 4644.1 9.45977 1
3 1 3 2665.66 8.57837 1
3 -1 4 288.261 6.2382 1
-3 1 -5 4751.78 19.4256 1
3 -1 6 950.865 15.1814 1
3 1 7 336.157 10.963 1
3 1 8 663.262 10.4251 1
3 1 9 646.816 16.4283 1
3 2 -10 141.468 11.0562 1
3 -2 -9 2364.66 19.0655 1
3 2 -8 17.0751 5.2951 1
3 -2 -7 521.051 9.30225 1
3 -2 -6 721.944 9.04674 1
3 2 -5 2771.43 12.9116 1
3 2 -4 64.2175 4.10318 1
3 2 -3 8887.66 18.2724 1
3 -2 -2 1273.52 8.42837 1
3 2 -1 885.298 6.85835 1
3 2 0 2479.64 10.2166 1
3 -2 1 8220.67 14.4891 1
3 2 2 168.59 3.39297 1
-3 -2 -3 7642.72 15.1869 1
3 2 4 507.196 6.5845 1
3 -2 5 85.2939 5.54035 1
3 -2 6 271.834 10.8293 1
3 -2 7 2781.09 15.8789 1
3 2 8 3.54632 5.83536 1
3 2 9 367.183 13.6962 1
3 -3 -10 824.69 12.8834 1
3 -3 -9 4.56615 4.97052 1
3 3 -8 2284.11 14.6915 1
3 -3 -7 277.461 7.28028 1
3 3 -6 601.601 8.02803 1
3 3 -5 12.7174 3.66731 1
3 3 -4 15681.4 28.003 1
3 3 -3 20.5948 3.64022 1
3 3 -2 5914.88 13.3089 1
3 3 -1 193.152 4.12243 1
3 3 0 1795.36 7.476 1
3 3 1 50.3527 3.3955 1
3 -3 2 12519.8 15.9454 1
3 3 3 190.47 4.31893 1
3 3 4 1402.7 8.63924 1
3 3 5 92.8455 5.93992 1
3 -3 6 4985.64 29.1282 1
3 -3 7 4.42945 5.50858 1
3 3 8 2571.15 24.9729 1
3 -3 9 8.14381 5.79298 1
3 4 -10 184.801 6.23591 1
-3 4 9 795.401 8.59033 1
3 -4 -8 418.09 8.23567 1
3 -4 -7 375.458 9.93662 1
3 -4 -6 3163.64 16.7561 1
3 -4 -5 753.056 7.36474 1
3 4 -4 2080.98 12.0372 1
3 4 -3 7309.14 17.1606 1
3 4 -2 5193.13 11.953 1
3 -4 -1 146.95 3.78473 1
3 4 0 3580.91 9.50518 1
3 4 1 7634.95 15.1021 1
3 4 2 134.018 4.04479 1
3 4 3 4965.24 14.8093 1
3 -4 4 2791.78 12.8725 1
3 4 5 22.4841 5.2519 1
3 -4 6 1237.38 15.1474 1
3 -4 7 2084.94 17.38 1
3 4 8 35.482 7.78343 1
3 -4 9 63.1505 9.40612 1
-3 -5 10 10.9077 4.13655 1
3 5 -9 15.4048 4.18737 1
3 -5 -8 136.952 7.05209 1
3 -5 -7 3011.92 19.7329 1
3 5 -6 46.0209 6.22908 1
3 -5 -5 3160.35 13.435 1
3 5 -4 385.071 6.90925 1
3 5 -3 965.515 6.83563 1
3 5 -2 513.903 5.34593 1
3 5 -1 15589.7 21.7873 1
3 5 0 38.2012 3.21807 1
3 5 1 6164.05 12.7939 1
3 -5 2 585.729 5.74418 1
3 5 3 3751.33 13.2427 1
3 5 4 10.5268 4.84086 1
3 5 5 11072.9 30.3802 1
3 -5 6 0.70587 6.99168 1
3 -5 7 261.318 8.34174 1
3 -5 8 15.5512 8.43693 1
3 6 -10 476.196 8.55925 1
3 -6 -9 246.268 5.51823 1
3 -6 -8 1023.6 16.9566 1
3 6 -7 237.936 8.69228 1
3 -6 -6 5045.86 21.3146 1
3 -6 -5 357.25 6.37586 1
3 6 -4 213.731 5.51222 1
3 6 -3 1565.66 8.44526 1
3 -6 -2 10364 18.9376 1
3 -6 -1 830.169 6.21883 1
3 6 0 11858.9 17.0913 1
3 -6 1 1010.71 5.78882 1
3 6 2 109.241 4.16123 1
3 -6 3 780.345 7.97238 1
3 6 4 8418.4 29.5641 1
3 -6 5 101.829 6.5039 1
3 -6 6 1850.37 17.0145 1
3 6 7 163.47 6.2376 1
3 -6 8 140.652 6.25651 1
3 7 -10 309.813 7.93503 1
-3 -7 9 5.67234 3.74754 1
3 7 -8 1084.94 19.0561 1
3 -7 -7 678.636 9.89237 1
3 -7 -6 203.874 6.62064 1
3 -7 -5 1347.2 9.88373 1
3 7 -4 6285.4 19.8412 1
3 7 -3 262.381 4.59384 1
3 -7 -2 4527.41 12.5026 1
3 7 -1 6089.77 15.0757 1
3 -7 0 2485.74 8.79462 1
3 7 1 1151.63 7.02475 1
3 7 2 5453.72 17.6363 1
3 -7 3 101.629 5.3631 1
3 -7 4 201.069 7.72707 1
3 -7 5 1141.97 12.3257 1
3 -7 6 1052.69 12.5376 1
3 -7 7 58.9397 5.46365 1
3 7 8 1665.81 13.3083 1
3 8 -10 7.02243 4.24482 1
3 8 -9 1418.68 11.043 1
3 -8 -8 7.01673 9.21719 1
3 -8 -7 732.271 11.5582 1
3 -8 -6 26.0208 4.79187 1
3 8 -5 3289.98 13.5568 1
3 8 -4 241.358 5.15669 1
3 -8 -3 6748.22 15.8997 1
3 -8 -2 34.5562 3.83587 1
3 -8 -1 18.5377 3.74637 1
3 8 0 50.3161 3.63115 1
3 8 1 9682.6 17.6219 1
3 -8 2 144.107 5.78355 1
3 -8 3 13118.5 30.7974 1
3 -8 4 554.556 10.8529 1
3 -8 5 17.8872 6.58659 1
3 -8 6 -1.85109 6.29415 1
3 -8 7 3887.91 17.2933 1
3 8 8 8.12463 4.79931 1
3 -9 -10 302.137 9.9315 1
3 9 -9 10.6007 5.60251 1
3 9 -8 2047.57 16.4158 1
3 -9 -7 488.141 7.63961 1
3 -9 -6 54.8725 5.17318 1
3 9 -5 1028.36 9.0351 1
3 9 -4 5956.46 17.5576 1
3 -9 -3 297.764 5.12443 1
3 -9 -2 5097.43 16.2361 1
3 -9 -1 2641.28 10.196 1
3 -9 0 1968.64 8.42389 1
3 9 1 1047.36 7.67245 1
3 -9 2 11964.8 25.4364 1
3 -9 3 616.283 9.53509 1
3 -9 4 865.096 12.1258 1
3 -9 5 1018.88 10.7856 1
3 -9 6 1614.95 14.184 1
3 9 7 27.1688 5.50424 1
3 9 8 1406.69 16.0748 1
3 10 -9 164.751 5.37468 1
3 10 -8 586.496 8.4994 1
3 -10 -7 77.7782 5.78336 1
3 -10 -6 4330.3 17.2262 1
3 10 -5 383.988 6.99112 1
3 -10 -4 852.558 9.68441 1
3 -10 -3 1192.24 8.96298 1
3 -10 -2 3824.39 14.6811 1
3 -10 -1 27.6837 3.98983 1
3 -10 0 9550.31 17.3145 1
3 10 1 1228.38 9.94862 1
3 10 2 651.588 7.78262 1
3 -10 3 463.014 8.07704 1
3 -10 4 5138.56 24.9252 1
3 -10 5 50.5784 5.74386 1
3 -10 6 1532.82 15.0678 1
3 10 7 851.404 16.3985 1
3 10 8 189.753 7.2197 1
3 11 -9 1.37335 3.42329 1
3 -11 -8 62.7634 5.87904 1
3 11 -7 2544.51 14.3629 1
3 -11 -6 15.8393 5.89589 1
3 11 -5 2725.99 17.4125 1
3 11 -4 44.7232 5.32354 1
3 -11 -3 1824.81 12.395 1
3 -11 -2 29.7712 4.68531 1
3 -11 -1 8093.12 18.7944 1
3 11 0 275.123 5.75832 1
3 11 1 5029.72 21.0603 1
3 11 2 979.06 9.56286 1
3 -11 3 1209.3 11.1573 1
3 -11 4 193.048 8.64276 1
3 -11 5 6812.09 23.8945 1
3 11 6 16.9746 6.57389 1
3 11 7 182.703 9.41175 1
3 11 8 2.25916 3.89757 1
3 12 -9 298.388 5.66626 1
3 12 -8 494.006 8.39878 1
3 -12 -7 89.7273 5.14856 1
3 -12 -6 2574.08 18.6092 1
3 12 -5 681.744 11.8105 1
3 -12 -4 308.375 6.99524 1
3 -12 -3 3021.34 15.9795 1
3 -12 -2 2659.14 14.7624 1
3 12 -1 8.23052 4.61382 1
3 -12 0 4151.21 15.0872 1
3 -12 1 1774.62 13.6796 1
3 12 2 716.404 8.7797 1
3 -12 3 1116.45 12.1694 1
3 -12 4 4303.04 35.5589 1
3 12 5 28.7844 6.01565 1
3 12 6 2483.84 17.9239 1
3 12 7 1317.07 17.6381 1
3 13 -9 5.78783 3.67187 1
3 13 -8 1663.52 12.1438 1
3 13 -7 110.987 4.8555 1
3 -13 -6 92.31 6.29429 1
3 13 -5 324.442 9.43717 1
3 13 -4 5198.28 20.1271 1
3 -13 -3 31.5869 5.54466 1
3 -13 -2 4646.68 17.9175 1
3 -13 -1 355.729 6.79494 1
3 -13 0 1158.11 11.5762 1
3 13 1 246.926 7.01326 1
3 13 2 5646.16 19.6401 1
3 13 3 606.103 9.80492 1
3 13 4 332.884 12.0277 1
3 13 5 310.925 7.71275 1
3 13 6 1685.81 14.2803 1
3 13 7 18.5558 6.04566 1
3 14 -8 56.7913 5.12315 1
3 -14 -7 414.486 6.27149 1
3 -14 -6 282.038 7.67241 1
3 14 -5 1566.46 13.5927 1
3 -14 -4 44.258 5.70592 1
3 -14 -3 3960.72 18.0222 1
3 -14 -2 295.37 6.83721 1
3 -14 -1 104.869 5.9529 1
3 -14 0 360.451 7.93119 1
3 14 1 5145.57 20.3115 1
3 14 2 93.6253 6.4293 1
3 14 3 7621.03 29.708 1
3 14 4 1599.26 19.9845 1
3 14 5 245.719 6.93636 1
3 14 6 127.71 8.10934 1
3 14 7 2853.61 21.0703 1
3 15 -8 283.824 6.03061 1
3 -15 -7 819.677 8.23202 1
3 15 -6 47.0667 5.44315 1
3 15 -5 1703.93 14.8221 1
3 -15 -4 2085.02 13.7331 1
3 -15 -3 18.4359 6.02838 1
3 -15 -2 1276.22 11.2371 1
3 -15 -1 3690.66 20.9327 1
3 -15 0 925.967 10.4354 1
3 15 1 662.351 8.57894 1
3 15 2 1492.89 12.3258 1
3 15 3 962.483 11.7882 1
3 15 4 274.231 9.5391 1
3 15 5 2238.25 15.7509 1
3 15 6 540.473 9.77764 1
3 15 7 126.24 5.51466 1
-3 16 8 312.394 9.10212 1
3 -16 -7 8.98261 3.62007 1
3 -16 -6 3043.11 15.8878 1
3 16 -5 9.8352 5.49899 1
3 16 -4 261.961 8.96143 1
3 -16 -3 11.8675 5.71136 1
3 -16 -2 3955.46 20.5069 1
3 -16 -1 6.91056 7.3931 1
3 -16 0 3504.98 17.2851 1
3 16 1 87.8325 5.82708 1
3 16 2 24.837 5.47693 1
3 16 3 115.928 7.1897 1
3 16 4 4431.44 31.6068 1
3 16 5 26.5185 4.9167 1
3 16 6 969.729 18.7229 1
3 -17 -7 989.456 16.9733 1
3 17 -6 16.3169 5.04941 1
3 17 -5 1009.84 13.8416 1
3 17 -4 946.2 12.1014 1
3 -17 -3 272.361 6.76479 1
3 -17 -2 307.539 9.22237 1
3 -17 -1 4433.45 21.4741 1
3 17 0 112.413 6.49434 1
3 17 1 2255.86 13.7976 1
3 17 2 903.142 9.47485 1
3 17 3 1117.39 10.865 1
3 17 4 11.702 7.53303 1
3 17 5 3005.18 15.2341 1
3 17 6 102.787 8.72939 1
3 18 -7 155.973 7.55387 1
3 -18 -6 506.686 7.52972 1
3 18 -5 423.716 9.40317 1
3 18 -4 313.289 11.0004 1
3 -18 -3 1955.23 14.6977 1
3 -18 -2 1131.16 11.4634 1
3 18 -1 32.1524 5.73027 1
3 18 0 1104.75 10.5127 1
3 18 1 4511.09 17.7966 1
3 -18 2 4.96019 4.80854 1
3 18 3 2111.54 14.7186 1
3 18 4 833.495 10.324 1
3 18 5 5.45384 4.21937 1
3 18 6 223.957 7.3128 1
-3 19 7 122.039 9.16675 1
3 19 -6 17.5957 3.72415 1
3 -19 -5 220.332 6.2922 1
3 19 -4 4256.53 34.1872 1
3 -19 -3 77.5056 6.42066 1
3 -19 -2 1533.74 11.3998 1
3 19 -1 6.042 5.1568 1
3 19 0 912.661 9.66852 1
3 19 1 7.33866 4.65507 1
3 -19 2 4928.13 19.6353 1
3 19 3 49.6919 6.33742 1
3 19 4 591.808 7.38998 1
3 19 5 81.1394 4.17429 1
3 20 -6 629.457 9.1234 1
3 -20 -5 826.741 11.1267 1
3 -20 -4 49.3788 10.1421 1
3 -20 -3 1975.57 12.9982 1
3 -20 -2 1140.88 9.28106 1
3 20 -1 240.195 7.11872 1
3 20 0 1452.58 9.93893 1
3 20 1 1811.68 13.1215 1
3 20 2 39.411 4.36504 1
3 20 3 1736.94 15.5718 1
3 20 4 754.405 6.5749 1
3 20 5 -1.70857 5.15874 1
3 -21 -5 230.057 6.85987 1
3 21 -4 256.941 9.08343 1
3 -21 -3 355.644 7.11074 1
3 -21 -2 134.526 5.31432 1
3 21 -1 3427.82 21.9224 1
3 21 0 90.3475 4.87778 1
3 -21 1 944.756 9.20003 1
3 21 2 357.638 6.76941 1
3 21 3 595.939 12.3161 1
3 21 4 6.03917 3.72543 1
3 -22 -5 119.3 5.89288 1
3 22 -4 108.149 7.30262 1
3 -22 -3 157.2 6.2029 1
3 -22 -2 1619.63 10.3297 1
3 22 -1 11.4699 5.06835 1
3 22 0 2498.62 15.7809 1
3 -22 1 74.0272 5.0762 1
3 22 2 1.13419 4.12121 1
3 22 3 102.49 6.23558 1
3 23 -4 728.798 9.83448 1
3 23 -3 76.5981 4.90314 1
3 -23 -2 551.577 6.52151 1
3 23 -1 1544.44 11.5005 1
3 23 0 602.055 9.20723 1
3 -23 1 307.766 6.88705 1
3 23 2 1330.99 14.652 1
3 24 -3 949.369 17.0207 1
3 24 -2 11.0732 5.25716 1
3 24 -1 57.2247 5.71576 1
3 24 0 32.0529 3.68158 1
3 -24 1 984.879 14.9957 1
4 0 6 3275.77 30.274 -2
4 0 -8 3275.77 30.274 1
4 0 4 3721.03 31.1138 -2
4 0 -6 3721.03 31.1138 1
4 0 2 9417.48 40.8924 -2
4 0 -4 9417.48 40.8924 1
4 0 0 5139.37 28.5155 -2
4 0 -2 5139.37 28.5155 1
4 0 -2 4574.37 23.9219 -2
4 0 0 4574.37 23.9219 1
4 0 -4 9482.12 52.6727 -2
4 0 2 9482.12 52.6727 1
4 0 -6 3085.26 38.4394 -2
4 0 4 3085.26 38.4394 1
4 0 -8 2190.44 31.9589 -2
4 0 6 2190.44 31.9589 1
4 -1 6 1295.82 15.1793 -2
4 1 -8 1295.82 15.1793 1
4 -1 5 813.469 12.793 -2
4 1 -7 813.469 12.793 1
4 -1 4 1291.67 15.8623 -2
4 1 -6 1291.67 15.8623 1
4 -1 3 3690.59 26.4079 -2
4 1 -5 3690.59 26.4079 1
4 1 2 657.467 10.083 -2
4 -1 -4 657.467 10.083 1
4 1 1 5606.44 22.1708 -2
4 -1 -3 5606.44 22.1708 1
4 1 0 2854.1 15.6352 -2
4 -1 -2 2854.1 15.6352 1
4 -1 -1 2541.63 17.7349 -2
4 1 -1 2541.63 17.7349 1
4 -1 -2 3076.33 15.7012 -2
4 1 0 3076.33 15.7012 1
4 1 -3 5279.6 17.7707 -2
4 -1 1 5279.6 17.7707 1
4 1 -4 601.894 12.5692 -2
4 -1 2 601.894 12.5692 1
4 1 -5 3632.9 22.544 -2
4 -1 3 3632.9 22.544 1
4 1 -6 1008.89 20.3119 -2
4 -1 4 1008.89 20.3119 1
4 1 -7 553.091 17.3459 -2
4 -1 5 553.091 17.3459 1
4 1 -8 910.93 15.8407 -2
4 -1 6 910.93 15.8407 1
4 -2 6 212.586 7.25013 -2
4 2 -8 212.586 7.25013 1
4 2 5 3788.07 23.6751 -2
4 -2 -7 3788.07 23.6751 1
4 -2 4 211.314 8.84323 -2
4 2 -6 211.314 8.84323 1
4 2 3 2635.22 19.0177 -2
4 -2 -5 2635.22 19.0177 1
4 2 2 848.141 10.2429 -2
4 -2 -4 848.141 10.2429 1
4 2 1 3516.62 17.9227 -2
4 -2 -3 3516.62 17.9227 1
4 2 0 802.969 9.41517 -2
4 -2 -2 802.969 9.41517 1
4 -2 -1 7535.12 28.5414 -2
4 2 -1 7535.12 28.5414 1
4 2 -2 703.056 9.18345 -2
4 -2 0 703.056 9.18345 1
4 2 -3 3919.17 17.3082 -2
4 -2 1 3919.17 17.3082 1
4 2 -4 819.039 10.7739 -2
4 -2 2 819.039 10.7739 1
4 -2 -5 1938.49 19.8078 -2
4 2 3 1938.49 19.8078 1
4 2 -6 197.847 13.8882 -2
4 -2 4 197.847 13.8882 1
4 2 -7 3213.98 47.2674 -2
4 -2 5 3213.98 47.2674 1
4 2 -8 123.387 9.39281 -2
4 -2 6 123.387 9.39281 1
4 3 6 2492.94 31.1097 -2
4 -3 -8 2492.94 31.1097 1
4 -3 5 13.5964 7.25544 -2
4 3 -7 13.5964 7.25544 1
4 -3 4 7315.44 33.0853 -2
4 3 -6 7315.44 33.0853 1
4 3 3 128.732 8.42161 -2
4 -3 -5 128.732 8.42161 1
4 3 2 2349.44 15.1516 -2
4 -3 -4 2349.44 15.1516 1
4 3 1 191.777 6.24051 -2
4 -3 -3 191.777 6.24051 1
4 3 0 6600.76 21.5664 -2
4 -3 -2 6600.76 21.5664 1
4 3 -1 52.3933 6.44056 -2
4 -3 -1 52.3933 6.44056 1
4 3 -2 7513.06 24.0115 -2
4 -3 0 7513.06 24.0115 1
4 3 -3 181.046 6.90019 -2
4 -3 1 181.046 6.90019 1
4 3 -4 1928.22 14.7561 -2
4 -3 2 1928.22 14.7561 1
4 3 -5 140.255 11.0042 -2
4 -3 3 140.255 11.0042 1
4 3 -6 6409.59 42.0596 -2
4 -3 4 6409.59 42.0596 1
4 3 -7 49.1621 15.6086 -2
4 -3 5 49.1621 15.6086 1
4 3 -8 2390.56 22.1195 -2
4 -3 6 2390.56 22.1195 1
4 4 6 782.702 13.2465 -2
4 -4 -8 782.702 13.2465 1
4 -4 5 2235.32 16.5721 -2
4 4 -7 2235.32 16.5721 1
4 4 4 1324.55 15.9097 -2
4 -4 -6 1324.55 15.9097 1
4 -4 3 1815.83 18.8127 -2
4 4 -5 1815.83 18.8127 1
4 4 2 3109.05 18.8802 -2
4 -4 -4 3109.05 18.8802 1
4 4 1 2371.02 14.258 -2
4 -4 -3 2371.02 14.258 1
4 4 0 1521.5 11.4517 -2
4 -4 -2 1521.5 11.4517 1
4 4 -1 5974.78 21.2707 -2
4 -4 -1 5974.78 21.2707 1
4 -4 -2 1354.78 12.9894 -2
4 4 0 1354.78 12.9894 1
4 4 -3 2675.57 16.4121 -2
4 -4 1 2675.57 16.4121 1
4 4 -4 2908.73 20.0419 -2
4 -4 2 2908.73 20.0419 1
4 -4 -5 1296.87 20.6366 -2
4 4 3 1296.87 20.6366 1
4 4 -6 1166.18 20.9247 -2
4 -4 4 1166.18 20.9247 1
4 4 -7 1993.51 37.8338 -2
4 -4 5 1993.51 37.8338 1
4 4 -8 412.994 11.667 -2
4 -4 6 412.994 11.667 1
4 -5 6 17.6348 6.09052 -2
4 5 -8 17.6348 6.09052 1
4 -5 5 876.079 12.241 -2
4 5 -7 876.079 12.241 1
4 -5 4 182.643 9.603 -2
4 5 -6 182.643 9.603 1
4 5 3 6839.05 42.8713 -2
4 -5 -5 6839.05 42.8713 1
4 5 2 112.553 7.09289 -2
4 -5 -4 112.553 7.09289 1
4 5 1 7185.73 23.0327 -2
4 -5 -3 7185.73 23.0327 1
4 5 0 216.229 7.28402 -2
4 -5 -2 216.229 7.28402 1
4 -5 -1 4013.73 18.0833 -2
4 5 -1 4013.73 18.0833 1
4 5 -2 236.258 7.90387 -2
4 -5 0 236.258 7.90387 1
4 5 -3 6756.74 27.5207 -2
4 -5 1 6756.74 27.5207 1
4 5 -4 73.6385 8.79249 -2
4 -5 2 73.6385 8.79249 1
4 -5 -5 7128.29 41.0453 -2
4 5 3 7128.29 41.0453 1
4 5 -6 120.729 14.3278 -2
4 -5 4 120.729 14.3278 1
4 5 -7 632.45 17.6341 -2
4 -5 5 632.45 17.6341 1
4 5 -8 27.2914 7.22651 -2
4 -5 6 27.2914 7.22651 1
4 -6 6 1368.69 12.6126 -2
4 6 -8 1368.69 12.6126 1
4 -6 5 303.659 8.54007 -2
4 6 -7 303.659 8.54007 1
4 6 4 1049.11 15.5582 -2
4 -6 -6 1049.11 15.5582 1
4 6 3 402.157 14.0772 -2
4 -6 -5 402.157 14.0772 1
4 6 2 7826.38 29.2201 -2
4 -6 -4 7826.38 29.2201 1
4 6 1 697.774 9.73516 -2
4 -6 -3 697.774 9.73516 1
4 6 0 4476.01 19.2603 -2
4 -6 -2 4476.01 19.2603 1
4 -6 -1 595.107 9.90174 -2
4 6 -1 595.107 9.90174 1
4 -6 -2 4191.8 17.8836 -2
4 6 0 4191.8 17.8836 1
4 6 -3 707.678 12.8915 -2
4 -6 1 707.678 12.8915 1
4 6 -4 7669.04 35.0699 -2
4 -6 2 7669.04 35.0699 1
4 -6 -5 266.504 12.4242 -2
4 6 3 266.504 12.4242 1
4 6 -6 968.497 22.6855 -2
4 -6 4 968.497 22.6855 1
4 6 -7 255.454 13.3318 -2
4 -6 5 255.454 13.3318 1
4 -6 -8 808.695 17.5518 -2
4 6 6 808.695 17.5518 1
4 -7 6 1677.99 24.6807 -2
4 7 -8 1677.99 24.6807 1
4 -7 5 305.192 7.05767 -2
4 7 -7 305.192 7.05767 1
4 7 4 3113.16 22.7195 -2
4 -7 -6 3113.16 22.7195 1
4 -7 3 745.507 17.2963 -2
4 7 -5 745.507 17.2963 1
4 7 2 1329.74 14.0497 -2
4 -7 -4 1329.74 14.0497 1
4 7 1 2113.55 13.956 -2
4 -7 -3 2113.55 13.956 1
4 7 0 3154.78 16.3471 -2
4 -7 -2 3154.78 16.3471 1
4 -7 -1 667.274 10.5705 -2
4 7 -1 667.274 10.5705 1
4 -7 -2 3393.07 18.9654 -2
4 7 0 3393.07 18.9654 1
4 7 -3 1910.91 18.6384 -2
4 -7 1 1910.91 18.6384 1
4 7 -4 969.523 17.5639 -2
4 -7 2 969.523 17.5639 1
4 -7 -5 777.92 15.9127 -2
4 7 3 777.92 15.9127 1
4 7 -6 2008.1 29.2971 -2
4 -7 4 2008.1 29.2971 1
4 7 -7 228.329 12.7574 -2
4 -7 5 228.329 12.7574 1
4 -7 -8 1198.61 18.2405 -2
4 7 6 1198.61 18.2405 1
4 -8 5 3853.39 20.9799 -2
4 8 -7 3853.39 20.9799 1
4 8 4 48.661 9.1743 -2
4 -8 -6 48.661 9.1743 1
4 -8 3 1897.56 20.3805 -2
4 8 -5 1897.56 20.3805 1
4 8 2 238.05 8.34245 -2
4 -8 -4 238.05 8.34245 1
4 8 1 4844.65 24.6585 -2
4 -8 -3 4844.65 24.6585 1
4 -8 0 29.2917 6.88788 -2
4 8 -2 29.2917 6.88788 1
4 -8 -1 8944.62 30.2634 -2
4 8 -1 8944.62 30.2634 1
4 8 -2 15.4705 8.1184 -2
4 -8 0 15.4705 8.1184 1
4 8 -3 5696.58 28.6615 -2
4 -8 1 5696.58 28.6615 1
4 8 -4 243.682 11.4489 -2
4 -8 2 243.682 11.4489 1
4 -8 -5 1234.19 21.1452 -2
4 8 3 1234.19 21.1452 1
4 8 -6 20.5363 9.29291 -2
4 -8 4 20.5363 9.29291 1
4 -8 -7 3931.02 44.7695 -2
4 8 5 3931.02 44.7695 1
4 -9 5 225.942 8.66954 -2
4 9 -7 225.942 8.66954 1
4 9 4 2769.09 17.5135 -2
4 -9 -6 2769.09 17.5135 1
4 -9 3 663.74 13.2382 -2
4 9 -5 663.74 13.2382 1
4 9 2 1528.19 14.8467 -2
4 -9 -4 1528.19 14.8467 1
4 9 1 1153.38 13.4658 -2
4 -9 -3 1153.38 13.4658 1
4 9 0 5877.68 25.0928 -2
4 -9 -2 5877.68 25.0928 1
4 -9 -1 814.509 11.9265 -2
4 9 -1 814.509 11.9265 1
4 -9 -2 6223.89 33.7049 -2
4 9 0 6223.89 33.7049 1
4 -9 -3 1057.76 13.7538 -2
4 9 1 1057.76 13.7538 1
4 9 -4 1326.75 20.6892 -2
4 -9 2 1326.75 20.6892 1
4 9 -5 620.595 13.9342 -2
4 -9 3 620.595 13.9342 1
4 9 -6 2180.38 22.9048 -2
4 -9 4 2180.38 22.9048 1
4 -9 -7 154.33 14.9458 -2
4 9 5 154.33 14.9458 1
4 10 5 914.576 11.7367 -2
4 -10 -7 914.576 11.7367 1
4 10 4 1180.85 13.0411 -2
4 -10 -6 1180.85 13.0411 1
4 -10 3 421.47 11.5272 -2
4 10 -5 421.47 11.5272 1
4 10 2 4251.63 21.4253 -2
4 -10 -4 4251.63 21.4253 1
4 10 1 240.039 9.40359 -2
4 -10 -3 240.039 9.40359 1
4 10 0 3404.94 21.9895 -2
4 -10 -2 3404.94 21.9895 1
4 -10 -1 969.941 16.8619 -2
4 10 -1 969.941 16.8619 1
4 -10 -2 3089.78 24.1838 -2
4 10 0 3089.78 24.1838 1
4 -10 -3 262.139 13.6666 -2
4 10 1 262.139 13.6666 1
4 -10 -4 3564.54 45.6342 -2
4 10 2 3564.54 45.6342 1
4 -10 -5 258.751 11.8665 -2
4 10 3 258.751 11.8665 1
4 -10 -6 916.816 18.6627 -2
4 10 4 916.816 18.6627 1
4 -10 -7 754.286 19.7026 -2
4 10 5 754.286 19.7026 1
4 -11 5 779.393 9.716 -2
4 11 -7 779.393 9.716 1
4 11 4 41.0895 6.14967 -2
4 -11 -6 41.0895 6.14967 1
4 -11 3 4682.64 23.1629 -2
4 11 -5 4682.64 23.1629 1
4 11 2 128.12 8.88768 -2
4 -11 -4 128.12 8.88768 1
4 11 1 4187.97 24.7102 -2
4 -11 -3 4187.97 24.7102 1
4 -11 0 469.35 12.3766 -2
4 11 -2 469.35 12.3766 1
4 -11 -1 2759.77 22.5148 -2
4 11 -1 2759.77 22.5148 1
4 -11 -2 477.016 13.3442 -2
4 11 0 477.016 13.3442 1
4 -11 -3 3144.98 55.566 -2
4 11 1 3144.98 55.566 1
4 -11 -4 89.2611 14.5642 -2
4 11 2 89.2611 14.5642 1
4 -11 -5 3634.8 22.528 -2
4 11 3 3634.8 22.528 1
4 -11 -6 37.1075 9.53989 -2
4 11 4 37.1075 9.53989 1
4 -11 -7 428.564 14.6102 -2
4 11 5 428.564 14.6102 1
4 -12 4 1151.17 17.1453 -2
4 12 -6 1151.17 17.1453 1
4 12 3 1010.47 13.7505 -2
4 -12 -5 1010.47 13.7505 1
4 -12 2 3652.44 28.3328 -2
4 12 -4 3652.44 28.3328 1
4 12 1 443.364 11.6373 -2
4 -12 -3 443.364 11.6373 1
4 -12 0 1981.89 22.2794 -2
4 12 -2 1981.89 22.2794 1
4 -12 -1 1473.96 18.0534 -2
4 12 -1 1473.96 18.0534 1
4 -12 -2 1579.13 17.9583 -2
4 12 0 1579.13 17.9583 1
4 -12 -3 479.51 16.01 -2
4 12 1 479.51 16.01 1
4 -12 -4 3082.17 29.4926 -2
4 12 2 3082.17 29.4926 1
4 -12 -5 572.996 12.7751 -2
4 12 3 572.996 12.7751 1
4 -12 -6 1104.04 17.3961 -2
4 12 4 1104.04 17.3961 1
4 13 4 3277.62 17.45 -2
4 -13 -6 3277.62 17.45 1
4 13 3 286.091 8.39706 -2
4 -13 -5 286.091 8.39706 1
4 -13 2 1477.71 17.688 -2
4 13 -4 1477.71 17.688 1
4 13 1 285.137 9.40381 -2
4 -13 -3 285.137 9.40381 1
4 -13 0 3328.37 34.549 -2
4 13 -2 3328.37 34.549 1
4 -13 -1 228.83 9.94191 -2
4 13 -1 228.83 9.94191 1
4 -13 -2 3128.38 28.2682 -2
4 13 0 3128.38 28.2682 1
4 -13 -3 241.341 14.9105 -2
4 13 1 241.341 14.9105 1
4 -13 -4 1047.69 17.5318 -2
4 13 2 1047.69 17.5318 1
4 -13 -5 218.684 12.7351 -2
4 13 3 218.684 12.7351 1
4 -13 -6 2466.34 30.5457 -2
4 13 4 2466.34 30.5457 1
4 14 4 81.0282 9.79896 -2
4 -14 -6 81.0282 9.79896 1
4 14 3 1460.79 13.0688 -2
4 -14 -5 1460.79 13.0688 1
4 -14 2 1020.61 13.0416 -2
4 14 -4 1020.61 13.0416 1
4 14 1 3448.33 24.9313 -2
4 -14 -3 3448.33 24.9313 1
4 -14 0 156.687 10.0002 -2
4 14 -2 156.687 10.0002 1
4 -14 -1 4374.21 31.2801 -2
4 14 -1 4374.21 31.2801 1
4 -14 -2 113.163 11.3735 -2
4 14 0 113.163 11.3735 1
4 -14 -3 3782.63 35.9749 -2
4 14 1 3782.63 35.9749 1
4 -14 -4 804.779 18.0506 -2
4 14 2 804.779 18.0506 1
4 -14 -5 748.318 15.99 -2
4 14 3 748.318 15.99 1
4 -14 -6 101.188 9.98861 -2
4 14 4 101.188 9.98861 1
4 15 3 1440.95 15.0405 -2
4 -15 -5 1440.95 15.0405 1
4 -15 2 452.456 11.9598 -2
4 15 -4 452.456 11.9598 1
4 -15 1 1719.94 14.6558 -2
4 15 -3 1719.94 14.6558 1
4 -15 0 1203.63 22.8086 -2
4 15 -2 1203.63 22.8086 1
4 -15 -1 352.578 13.5698 -2
4 15 -1 352.578 13.5698 1
4 -15 -2 1082.8 18.1078 -2
4 15 0 1082.8 18.1078 1
4 -15 -3 1673.33 32.5757 -2
4 15 1 1673.33 32.5757 1
4 -15 -4 279.02 11.5974 -2
4 15 2 279.02 11.5974 1
4 -15 -5 1165.06 16.5401 -2
4 15 3 1165.06 16.5401 1
4 16 3 24.4854 8.06292 -2
4 -16 -5 24.4854 8.06292 1
4 -16 2 4242.4 38.6471 -2
4 16 -4 4242.4 38.6471 1
4 16 1 57.1445 6.923 -2
4 -16 -3 57.1445 6.923 1
4 16 0 1565.97 22.4125 -2
4 -16 -2 1565.97 22.4125 1
4 -16 -1 35.1305 8.8794 -2
4 16 -1 35.1305 8.8794 1
4 -16 -2 1209.38 17.2859 -2
4 16 0 1209.38 17.2859 1
4 -16 -3 49.239 10.3178 -2
4 16 1 49.239 10.3178 1
4 -16 -4 1835.41 26.4606 -2
4 16 2 1835.41 26.4606 1
4 -16 -5 22.7312 8.04953 -2
4 16 3 22.7312 8.04953 1
4 17 2 90.0756 10.5332 -2
4 -17 -4 90.0756 10.5332 1
4 17 1 2235.54 18.2278 -2
4 -17 -3 2235.54 18.2278 1
4 17 0 387.54 12.251 -2
4 -17 -2 387.54 12.251 1
4 -17 -1 1430.34 16.9736 -2
4 17 -1 1430.34 16.9736 1
4 -17 -2 422.335 10.6749 -2
4 17 0 422.335 10.6749 1
4 -17 -3 1732.32 19.7459 -2
4 17 1 1732.32 19.7459 1
4 -17 -4 57.9355 7.52027 -2
4 17 2 57.9355 7.52027 1
4 -18 1 872.23 21.1642 -2
4 18 -3 872.23 21.1642 1
4 18 0 316.646 9.48414 -2
4 -18 -2 316.646 9.48414 1
4 -18 -1 3076.01 19.1901 -2
4 18 -1 3076.01 19.1901 1
4 -18 -2 340.108 9.18481 -2
4 18 0 340.108 9.18481 1
4 -18 -3 723.888 19.0166 -2
4 18 1 723.888 19.0166 1
4 -19 -1 14.3181 6.68387 -2
4 19 -1 14.3181 6.68387 1
5 0 -4 479.153 24.0155 1
5 1 -4 103.217 11.8435 1
5 1 -3 148.476 14.2763 1
5 2 -3 698.633 19.6306 1
5 3 -3 3.65021 12.1255 1
5 3 -2 1413.58 24.5313 1
5 3 -1 20.9698 12.1937 1
5 4 -3 394.416 9.28326 1
5 4 -2 32.1216 12.2712 1
5 4 -1 509.105 16.7263 1
5 5 -3 221.828 7.67604 1
5 5 -2 31.6993 13.3351 1
5 5 -1 403.423 14.528 1
5 5 0 3.21798 9.28252 1
5 6 -2 3.7891 7.24954 1
5 6 -1 86.6606 10.4275 1
5 6 0 812.323 12.6875 1
5 7 -1 9.6676 8.04406 1
-1 0 10 31.7102 6.01783 2
1 0 -8 3945.24 25.6201 2
1 0 -6 2185.68 38.9448 2
1 0 -4 12209.9 43.5246 2
1 0 -2 292966 148.85 2
1 0 0 26740.6 42.7583 2
-1 0 -2 11322.3 47.5929 2
-1 0 -4 14615.3 72.7327 2
1 0 6 38.2408 4.92374 2
1 0 8 7818.76 43.4207 2
1 0 10 3026.52 28.021 2
1 -1 -12 -9.45542 9.60851 2
-1 -1 11 74.3071 5.12184 2
-1 -1 10 799.182 10.0424 2
-1 -1 9 1587 10.9043 2
1 -1 -8 338.041 6.4208 2
1 1 -7 7702.4 22.9583 2
1 1 -6 1272.15 17.846 2
1 -1 -5 157.936 7.76268 2
1 1 -4 7011.87 24.4043 2
-1 1 3 12242 30.8257 2
1 1 -2 907.701 7.83812 2
1 -1 -1 9135.32 13.6321 2
1 -1 0 15581.6 52.4732 2
-1 1 -1 81.9673 5.80177 2
-1 1 -2 5053.14 20.4052 2
-1 1 -3 31164.7 57.5347 2
-1 1 -4 5337.77 28.2649 2
-1 1 -5 5843.83 42.247 2
1 -1 6 5372.08 17.7142 2
1 -1 7 1552.61 10.9448 2
1 -1 8 80.9375 6.28433 2
1 -1 9 2746.48 20.8124 2
1 1 10 550.071 13.9423 2
1 -1 11 213.353 10.403 2
1 -2 -12 27.9563 9.96016 2
-1 -2 11 1086.17 14.4336 2
-1 -2 10 10.2086 4.23371 2
1 2 -9 1672.65 11.7323 2
-1 -2 8 2033.3 12.3947 2
1 2 -7 2304.73 12.5282 2
1 2 -6 534.786 13.0977 2
1 2 -5 21012.2 67.0406 2
1 2 -4 158.16 7.61144 2
-1 2 3 4255.97 25.3019 2
1 2 -2 1333.43 11.1554 2
1 -2 -1 8078.86 25.4862 2
1 -2 0 1771.48 33.4645 2
-1 -2 -1 52088.5 65.4374 2
-1 2 -2 1212.63 8.91527 2
-1 2 -3 6839.44 27.3771 2
-1 2 -4 7482.86 35.2486 2
-1 2 -5 7833.24 48.4963 2
1 -2 6 106.02 4.02148 2
1 2 7 7235.54 21.5028 2
-1 2 -8 396.157 7.47784 2
1 2 9 35.4075 7.28121 2
1 2 10 177.671 9.72528 2
1 -2 11 1028.17 22.7135 2
1 -3 -12 99.6099 10.2063 2
-1 3 11 4.88153 4.24565 2
1 3 -10 2212.02 17.2181 2
1 -3 -9 60.4837 4.45491 2
-1 -3 8 199.027 5.32867 2
-1 -3 7 144.141 4.03382 2
1 3 -6 5632.63 37.1778 2
1 -3 -5 285.534 9.63772 2
1 3 -4 30192.1 60.3867 2
1 3 -3 547.591 8.52589 2
1 3 -2 1634.97 8.68044 2
1 3 -1 545.779 6.89763 2
1 3 0 105049 67.2145 2
-1 -3 -1 1292.9 12.3056 2
1 3 2 16630.2 33.8794 2
-1 3 -3 223.239 7.37067 2
-1 3 -4 913.104 13.5339 2
-1 3 -5 190.01 9.75503 2
1 -3 6 12432.7 27.7946 2
1 -3 7 150.536 4.84335 2
1 -3 8 1859.64 14.5036 2
1 -3 9 40.0026 6.61892 2
1 3 10 2096.66 18.9091 2
1 -3 11 6.63776 4.71559 2
-1 -4 12 232.36 8.33092 2
-1 4 11 427.421 8.52837 2
-1 4 10 40.8498 5.48347 2
-1 -4 9 1323.63 10.1219 2
-1 -4 8 2615.8 13.1522 2
-1 -4 7 547.9 6.47724 2
-1 -4 6 2551.51 17.3762 2
1 4 -5 9143.11 38.5768 2
1 4 -4 5128.09 24.5553 2
1 4 -3 3567.21 19.5707 2
1 4 -2 20999.1 33.9599 2
1 4 -1 3448.28 14.9001 2
1 4 0 20872 24.2678 2
-1 -4 -1 38723.6 78.7565 2
-1 -4 -2 14507.2 42.5247 2
-1 4 -3 889.476 10.9182 2
-1 4 -4 7009.29 29.8404 2
-1 4 -5 9159.32 43.1818 2
1 -4 6 15.8865 3.81513 2
1 -4 7 3800.26 16.4744 2
1 -4 8 2005.46 13.9351 2
1 4 9 6.59946 5.76158 2
1 4 10 642.239 10.4719 2
1 -4 11 676.376 14.4963 2
-1 5 11 126.36 4.81497 2
-1 -5 10 221.578 6.97801 2
-1 -5 9 1967.48 14.5664 2
-1 -5 8 111.034 4.58636 2
1 -5 -7 8860.57 21.1162 2
1 5 -6 420.213 5.65211 2
1 5 -5 1315.66 15.0924 2
1 5 -4 340.099 8.58427 2
1 5 -3 22078.2 50.5391 2
1 5 -2 74.6693 4.62308 2
-1 -5 1 25513.6 47.0691 2
1 5 0 410.41 4.79951 2
-1 -5 -1 6877.49 28.6318 2
-1 -5 -2 2961.56 21.4647 2
-1 -5 -3 41400.4 66.7513 2
-1 5 -4 282.711 8.43245 2
-1 5 -5 9090.69 45.3291 2
1 -5 6 1063.45 9.36403 2
1 5 7 2018.72 14.3801 2
1 5 8 12.6742 4.3854 2
1 5 9 5820.26 26.2743 2
1 5 10 18.0971 3.96602 2
1 -5 11 225.292 6.75772 2
-1 6 11 48.759 4.4298 2
-1 6 10 181.266 8.32267 2
-1 -6 9 200.196 6.16885 2
-1 -6 8 5021.35 19.0677 2
1 -6 -7 356.478 5.73578 2
1 6 -6 7779.48 19.9506 2
1 6 -5 2694.4 18.7512 2
1 6 -4 6931.64 28.735 2
1 6 -3 1931.53 16.0054 2
1 6 -2 39424.7 60.3637 2
1 6 -1 2017.74 11.9411 2
1 6 0 6284.54 14.8807 2
-1 6 -1 10484.2 25.2887 2
-1 6 -2 35606.4 64.4438 2
-1 -6 -3 2726.96 24.0843 2
-1 6 -4 17434.7 65.1511 2
1 -6 5 1692.53 16.7744 2
-1 6 -6 602.426 9.89448 2
-1 6 -7 305.252 8.14291 2
1 6 8 3907.36 20.183 2
1 6 9 67.3321 5.60077 2
1 6 10 1368.15 11.9428 2
1 -6 11 58.4068 4.62493 2
-1 7 11 25.4926 4.3372 2
1 7 -10 1330.75 17.4252 2
-1 -7 9 1274.12 11.1249 2
-1 -7 8 600.88 7.84666 2
-1 -7 7 2677.14 12.5303 2
1 7 -6 4905.33 16.585 2
1 7 -5 7.99979 5.83435 2
1 7 -4 5779.08 31.9302 2
1 7 -3 4841.96 25.7284 2
1 7 -2 257.717 7.52764 2
1 7 -1 6844.46 23.8023 2
1 7 0 18306.7 26.1769 2
-1 7 -1 119.679 4.6559 2
-1 -7 -2 16588.8 46.7395 2
-1 -7 -3 12953.5 43.6049 2
-1 7 -4 3538.52 29.1675 2
-1 7 -5 3455.18 23.5931 2
-1 7 -6 6148.43 28.2028 2
-1 7 -7 71.0691 5.52199 2
1 7 8 345.955 6.80693 2
1 7 9 950.255 10.2667 2
1 -7 10 385.012 7.09914 2
1 -7 11 28.2402 3.79659 2
-1 8 11 1729.97 19.5813 2
-1 8 10 189.085 8.50132 2
1 -8 -9 1460.86 12.9171 2
-1 -8 8 234.603 5.90717 2
-1 -8 7 806.114 7.7884 2
1 8 -6 6.92309 4.05148 2
1 8 -5 10478.1 42.6598 2
1 8 -4 832.88 14.107 2
1 8 -3 13401.2 34.8469 2
1 8 -2 25.8496 5.62264 2
1 8 -1 24815.4 49.3447 2
-1 8 0 4577.19 18.3468 2
-1 8 -1 21237 40.4388 2
-1 8 -2 72.0414 5.53098 2
-1 8 -3 438.754 8.21489 2
-1 8 -4 419.263 12.3301 2
1 8 5 9115.65 28.6173 2
-1 8 -6 715.896 10.7295 2
-1 8 -7 11903.8 36.7186 2
1 8 8 527.182 7.13937 2
1 8 9 61.6155 5.245 2
1 8 10 12.1236 4.73338 2
1 8 11 1315.92 15.5118 2
-1 9 11 101.368 4.7759 2
-1 9 10 1371.77 18.6384 2
1 -9 -9 339.997 7.42477 2
1 9 -8 638.943 8.65779 2
1 9 -7 1136.35 9.53224 2
1 9 -6 6439.77 22.206 2
1 9 -5 5.73929 5.59139 2
1 9 -4 21662.5 54.2716 2
1 9 -3 2944.78 18.68 2
1 9 -2 69.501 4.47029 2
-1 -9 1 4765.31 19.5092 2
-1 9 0 36846 57.8101 2
-1 9 -1 163.021 5.13882 2
-1 9 -2 22163.9 45.2523 2
-1 9 -3 5869.54 25.4751 2
-1 9 -4 3431.25 29.7132 2
1 9 5 1574.42 12.2696 2
-1 9 -6 9483.63 34.6971 2
-1 9 -7 643.958 7.93572 2
1 9 8 884.955 9.35789 2
1 9 9 698.022 8.5262 2
1 -9 10 283.805 7.50358 2
1 9 11 10.6073 4.1803 2
-1 10 11 121.395 4.52079 2
-1 10 10 182.698 10.1145 2
1 -10 -9 257.551 6.79855 2
1 10 -8 2735.45 16.114 2
1 10 -7 386.963 7.25836 2
1 10 -6 2540.2 14.5116 2
1 10 -5 1034.86 11.452 2
1 10 -4 5095.15 28.4746 2
1 10 -3 462.006 9.58136 2
-1 -10 2 30765.4 66.6713 2
-1 -10 1 849.837 9.82089 2
-1 10 0 7038.29 32.6539 2
-1 10 -1 2764.67 13.8187 2
-1 10 -2 9119.07 25.965 2
-1 10 -3 609.519 9.78903 2
-1 10 -4 16794.8 47.065 2
1 10 5 1669.36 11.4711 2
-1 10 -6 1229.41 10.1353 2
-1 10 -7 526.007 7.37941 2
1 10 8 3064.8 15.5337 2
1 -10 9 73.311 5.72135 2
1 10 10 736.169 14.3983 2
-1 11 11 14.4638 3.0511 2
-1 11 10 62.4932 7.66856 2
1 -11 -9 3121.49 18.317 2
1 11 -8 137.095 6.97567 2
1 11 -7 5439 20.9704 2
1 11 -6 45.6766 5.24653 2
1 11 -5 705.706 8.92065 2
1 11 -4 527.612 12.276 2
1 11 -3 17252.3 47.6577 2
1 -11 -2 30.6801 7.1394 2
-1 -11 1 17897.3 45.676 2
-1 11 0 353.577 9.92447 2
-1 11 -1 6422.31 24.1804 2
-1 11 -2 111.813 5.81548 2
-1 11 -3 16287.6 44.3491 2
1 11 4 789.461 9.28906 2
1 11 5 11053.1 31.3435 2
-1 11 -6 795.663 9.16105 2
-1 11 -7 178.746 5.83809 2
1 11 8 110.441 5.22021 2
-1 11 -9 3168.68 19.3016 2
1 11 10 2.67562 4.71589 2
-1 12 11 281.222 9.56703 2
-1 12 10 15.6895 6.31104 2
1 -12 -9 480.183 8.82507 2
1 12 -8 2004.04 18.221 2
1 12 -7 404.56 7.31632 2
1 12 -6 1323.59 11.1452 2
1 12 -5 2333.26 15.1609 2
1 12 -4 2707.24 17.3182 2
1 -12 -3 643.239 12.1939 2
-1 -12 2 18750.1 58.2551 2
-1 -12 1 1215.38 15.3195 2
-1 12 0 2135.51 21.0641 2
-1 12 -1 6936.74 29.2764 2
-1 12 -2 5096.13 23.3638 2
-1 12 -3 214.82 7.12934 2
-1 12 -4 8824.13 28.4585 2
1 12 5 2045.61 14.4456 2
1 12 6 365.694 7.55992 2
-1 12 -7 1588.68 15.1784 2
1 12 8 2073.6 17.4451 2
1 12 9 30.0377 5.00487 2
1 12 10 1025.07 18.4562 2
-1 13 11 34.0349 5.48941 2
-1 13 10 1181.84 17.3908 2
-1 13 9 25.1589 4.77087 2
1 13 -8 271.151 9.50693 2
1 13 -7 352.239 7.01426 2
1 13 -6 5625.15 22.0001 2
1 13 -5 15.186 5.03999 2
1 13 -4 12861.3 28.3687 2
1 -13 -3 907.32 14.6069 2
-1 -13 2 98.9552 9.1671 2
-1 -13 1 1357.02 17.8674 2
1 13 0 24052.1 65.8194 2
-1 13 -1 235.647 8.09631 2
-1 13 -2 17325.7 49.0826 2
-1 13 -3 1787.76 13.9353 2
-1 13 -4 1561.49 13.2331 2
1 13 5 220.927 6.61891 2
1 13 6 5309.91 22.9368 2
-1 13 -7 580.625 10.5531 2
1 13 8 269.55 7.30377 2
1 13 9 69.9289 5.09377 2
-1 13 -10 406.179 8.0083 2
-1 14 10 7.80708 5.34705 2
1 -14 -9 671.524 9.30496 2
1 14 -8 117.975 7.46217 2
1 14 -7 423.434 9.87841 2
1 14 -6 527.004 8.62955 2
1 14 -5 9449.86 29.8293 2
1 14 -4 570.577 7.6798 2
1 -14 -3 4883.81 20.9142 2
1 14 -2 1147.67 15.5902 2
1 14 -1 8086 39.7169 2
1 14 0 750.172 13.3112 2
-1 14 -1 18991.7 52.6221 2
-1 14 -2 1548.22 11.5577 2
1 14 3 523.567 8.18046 2
1 14 4 671.346 10.1545 2
1 14 5 5048.54 21.2156 2
1 14 6 98.1534 5.63116 2
1 14 7 5946.85 32.4457 2
1 -14 8 592.13 9.09037 2
1 14 9 52.9739 4.64391 2
-1 14 -10 56.5537 10.4364 2
-1 15 10 631.512 10.0145 2
1 -15 -9 547.065 7.92231 2
1 15 -8 97.3613 7.02416 2
1 15 -7 2339.73 22.2706 2
1 15 -6 1636.27 13.7915 2
1 15 -5 6.87043 5.94362 2
1 15 -4 3187.85 18.534 2
1 -15 -3 6399.74 25.1898 2
1 15 -2 46.91 6.78486 2
1 15 -1 8719.02 48.2117 2
1 15 0 8032.71 29.5671 2
-1 15 -1 36.8389 5.32804 2
-1 15 -2 4582.6 18.1438 2
-1 15 -3 10338.4 27.3022 2
1 15 4 854.144 11.1738 2
1 15 5 1642.48 13.3676 2
1 15 6 2057.73 14.8734 2
1 15 7 780.826 12.9265 2
1 15 8 411.492 8.44487 2
-1 15 -9 880.594 8.61126 2
-1 15 -10 89.5122 9.14582 2
-1 16 10 38.3577 4.0371 2
-1 16 9 46.2948 5.34401 2
1 16 -8 1998.21 18.2163 2
1 16 -7 5.80453 6.46811 2
1 16 -6 2030 15.0108 2
1 16 -5 66.4098 6.6267 2
1 16 -4 2645.1 19.4604 2
1 16 -3 65.1466 6.36058 2
1 16 -2 18008.8 50.9688 2
1 16 -1 172.8 11.4813 2
-1 -16 0 2327.66 20.2421 2
-1 16 -1 97.7984 5.77997 2
-1 16 -2 9454.96 28.0339 2
-1 16 -3 1.52385 5.00942 2
1 16 4 6367.7 23.8452 2
1 16 5 229.404 7.11864 2
1 16 6 92.5213 5.69822 2
1 16 7 130.517 7.19242 2
-1 16 -8 2404.45 15.3127 2
-1 16 -9 15.1868 4.80159 2
-1 17 10 155.819 6.06373 2
1 -17 -9 709.01 9.60097 2
1 17 -8 2.22203 5.23921 2
1 17 -7 2778.14 22.62 2
1 17 -6 790.671 12.1524 2
1 -17 -5 21.9626 7.20751 2
1 17 -4 1749.79 15.9881 2
1 -17 -3 9363.83 32.1855 2
1 -17 -2 20.1512 7.02742 2
1 17 -1 7987.9 43.8406 2
-1 -17 0 3175.6 26.1152 2
-1 17 -1 441.425 7.59025 2
-1 17 -2 1517.36 12.6756 2
-1 17 -3 10165.9 28.1704 2
1 17 4 65.6992 5.75827 2
1 17 5 3104.04 17.9757 2
1 17 6 1001.45 10.83 2
-1 17 -7 447.374 8.49263 2
-1 17 -8 87.5062 5.19252 2
-1 17 -9 1022.01 14.2896 2
-1 18 9 1033.44 13.0957 2
1 -18 -8 450.358 10.1312 2
1 18 -7 257.945 8.88072 2
1 18 -6 562.72 16.0237 2
1 18 -5 3971.67 24.0894 2
1 18 -4 702.118 11.0932 2
1 18 -3 1033.05 14.9412 2
1 -18 -2 4313.24 24.6372 2
1 18 -1 1403.34 19.5546 2
-1 -18 0 1795.08 20.7304 2
-1 18 -1 8147.88 28.2276 2
-1 18 -2 2924.84 17.6157 2
-1 18 -3 418.317 7.37534 2
1 18 4 1944.44 14.9 2
1 18 5 5363.55 23.4716 2
-1 18 -6 3.07463 4.98777 2
-1 18 -7 1520.69 14.1185 2
-1 18 -8 575.653 10.3707 2
-1 18 -9 5.95881 5.69627 2
-1 19 9 26.8198 4.51895 2
1 -19 -8 159.591 5.05844 2
1 19 -7 10.0964 5.66358 2
1 19 -6 1366.04 21.7832 2
1 19 -5 110.749 10.6085 2
1 19 -4 8190.99 35.7254 2
1 19 -3 1289.58 17.9173 2
1 -19 -2 24.9658 5.96862 2
-1 -19 1 1771.32 24.2974 2
-1 -19 0 19494.5 68.3489 2
-1 -19 -1 207.846 9.66428 2
-1 19 -2 3992.95 21.5746 2
-1 19 -3 19.1408 5.82673 2
1 19 4 954.08 11.0789 2
1 19 5 17.9854 5.03817 2
-1 19 -6 4836.06 21.169 2
-1 19 -7 24.9313 6.64128 2
-1 19 -8 443.882 8.37574 2
-1 20 9 278.657 5.97815 2
1 -20 -8 638.444 7.5746 2
1 20 -7 526.264 9.33096 2
1 20 -6 476.542 14.0145 2
1 20 -5 3284.32 33.0935 2
1 20 -4 88.757 8.45537 2
1 20 -3 835.896 13.0406 2
1 20 -2 4609.26 30.9023 2
1 -20 -1 3026.45 24.8281 2
-1 -20 0 161.561 11.4479 2
-1 -20 -1 7069.67 35.5434 2
-1 20 -2 2241.13 19.0182 2
-1 20 -3 1037.5 11.0716 2
1 20 4 2685.61 15.7814 2
1 20 5 1820.45 13.6778 2
-1 20 -6 16.1761 4.33555 2
-1 20 -7 1527.24 16.1407 2
-1 20 -8 427.735 7.30825 2
-1 21 8 20.4599 4.20325 2
1 -21 -7 3110.11 19.7435 2
1 -21 -6 185.028 10.2995 2
1 -21 -5 26.8143 8.61849 2
-1 21 4 304.791 8.8871 2
1 21 -3 1795.57 15.7221 2
1 21 -2 6.88438 8.19976 2
1 -21 -1 1622.38 17.0694 2
-1 -21 0 779.832 14.0591 2
-1 -21 -1 336.65 11.1101 2
-1 -21 -2 574.223 14.0707 2
-1 21 -3 8789.4 33.1358 2
1 21 4 100.779 5.39506 2
1 21 5 1851.34 15.3657 2
-1 21 -6 320.765 7.7196 2
-1 21 -7 242.4 8.52982 2
-1 22 8 1063.34 10.9373 2
-1 22 7 8.70178 4.22626 2
1 -22 -6 1147.64 13.8431 2
1 -22 -5 336.018 12.1498 2
1 -22 -4 837.018 11.958 2
1 -22 -3 19.1953 8.68307 2
1 22 -2 14310 65.4086 2
-1 -22 1 138.926 8.89767 2
-1 -22 0 771.021 13.4865 2
-1 -22 -1 541.301 12.5895 2
1 22 2 3818.58 27.3551 2
-1 -22 -3 23.2206 7.1199 2
1 22 4 4017.93 27.9309 2
1 22 5 45.3475 6.85319 2
-1 22 -6 41.3747 6.87947 2
-1 -22 -7 91.9545 6.83249 2
-1 23 7 901.945 11.9999 2
1 -23 -6 569.756 9.53663 2
1 -23 -5 6.91699 7.06472 2
1 -23 -4 2013.91 23.7144 2
-1 23 3 1938.03 16.8158 2
1 23 -2 11.0574 8.99648 2
1 23 -1 2255.61 18.3471 2
1 23 0 4128.21 30.6237 2
1 23 1 158.208 10.5241 2
1 23 2 1747.14 14.6297 2
-1 23 -3 3604.6 24.6337 2
1 23 4 686.483 14.746 2
-1 -23 -5 670.224 17.0552 2
-1 -23 -6 1311.78 18.9759 2
1 23 7 102.731 4.76269 2
-1 24 7 93.0287 5.96362 2
-1 24 6 26.0594 4.05706 2
1 -24 -5 3127.61 24.4567 2
1 24 -4 158.509 9.51122 2
-1 24 3 895.369 12.0129 2
-1 24 2 251.71 9.37465 2
1 24 -1 1313.67 15.7029 2
-1 24 0 101.303 8.3277 2
1 -24 1 6669.94 26.2194 2
-1 -24 -2 81.8232 6.88195 2
1 24 3 253.603 9.45702 2
1 24 4 112.66 8.42633 2
-1 -24 -5 1710.17 22.9341 2
-1 -24 -6 7.51005 5.05328 2
-1 25 6 829.187 13.7266 2
1 -25 -5 27.4207 6.64656 2
1 -25 -4 2402.45 29.2894 2
-1 25 3 500.081 10.7232 2
1 -25 -2 92.8522 5.67183 2
1 25 -1 395.913 10.0694 2
-1 25 0 4384.39 20.3778 2
1 25 1 92.4039 7.29223 2
1 25 2 1663.3 14.4217 2
1 25 3 874.579 12.8146 2
1 25 4 322.947 9.22825 2
-1 -25 -5 199.801 6.53289 2
1 26 -6 234.704 5.71992 2
1 26 -5 754.393 11.3418 2
1 -26 -4 646.716 9.29946 2
-1 26 3 229.824 6.9825 2
-1 26 2 2421.56 13.7393 2
1 26 -1 281.065 8.5101 2
-1 26 0 900.89 10.5662 2
1 26 1 1761.5 12.4293 2
1 26 2 1429.61 15.5684 2
1 26 3 32.8289 6.51654 2
1 26 4 1394.01 14.7895 2
1 26 5 181.04 6.50615 2
-1 27 5 8.01362 3.35131 2
1 27 -4 -1.14966 8.91949 2
1 27 -3 2067.56 17.8013 2
1 27 -2 1.92225 4.84764 2
1 27 -1 2637.29 15.9964 2
1 27 0 7.09124 5.1607 2
1 27 1 102.692 5.90846 2
1 27 2 73.9069 5.13443 2
1 27 3 1516.05 12.5804 2
-1 27 -4 2.60313 3.29084 2
1 -28 -3 359.997 7.92071 2
1 28 -2 1863.73 21.7213 2
1 28 -1 463.449 7.4736 2
1 28 0 491.494 7.70385 2
1 28 1 857.714 10.6105 2
1 28 2 1095.42 10.5411 2
-1 -28 -3 72.1804 4.43781 2
1 29 -2 2.68367 4.97169 2
-1 -29 1 28.375 4.42227 2
1 29 0 1176.89 10.5771 2
1 29 1 61.1834 3.58012 2
2 0 -10 717.821 19.9103 2
2 0 -8 662.29 16.8967 2
2 0 -6 3012.47 21.9798 2
2 0 -4 49108.6 117.928 2
2 0 -2 9418.86 45.7234 2
2 0 0 9733.03 110.362 2
-2 0 -2 15526.2 81.8321 2
2 0 4 31.5279 6.62 2
-2 0 -6 9794.74 43.7139 2
2 0 8 4827.51 24.7638 2
2 0 10 351.226 14.1318 2
3 0 -10 20.0891 13.3995 2
3 0 -8 947.935 25.0118 2
-3 0 6 13079.2 45.7972 2
3 0 -4 2121.74 9.56115 2
3 0 -2 5711.18 19.3464 2
3 0 0 10836.2 38.7728 2
3 0 2 60.236 5.05084 2
3 0 4 9827.09 39.3942 2
3 0 6 4436.32 27.489 2
3 0 8 713.611 19.8134 2
3 -1 -10 57.3978 13.4225 2
3 1 -9 30.4582 6.52134 2
3 1 -8 460.427 14.1378 2
3 1 -7 2051.79 15.426 2
3 1 -6 169.574 7.45226 2
3 -1 -5 1903.14 10.2819 2
3 -1 -4 2118.77 7.19169 2
3 -1 -3 540.818 4.10941 2
3 -1 -2 1437.98 7.61503 2
3 -1 -1 10781.8 21.4978 2
3 -1 0 2738.67 14.4695 2
3 -1 1 3187.37 10.8014 2
3 -1 2 4452.5 12.8477 2
3 -1 3 2539.15 13.2337 2
3 1 4 242.952 7.53018 2
3 1 5 4147.42 22.1018 2
3 1 6 947.331 10.7871 2
3 -1 7 354.157 7.21482 2
3 -1 8 1247.98 24.3767 2
3 -1 9 1373.08 17.3329 2
3 -2 -10 48.0294 8.03766 2
3 2 -9 1350.4 16.3295 2
3 2 -8 20.3059 9.01266 2
3 2 -7 447.825 9.15477 2
3 2 -6 589.467 8.35492 2
3 -2 -5 2348.27 10.1085 2
3 -2 -4 43.9263 3.21158 2
3 -2 -3 7396.73 12.3616 2
3 -2 -2 1135.47 6.8319 2
3 -2 -1 745.157 6.16937 2
3 -2 0 2172.22 9.13592 2
3 -2 1 7224.53 16.9952 2
3 -2 2 175.578 4.6193 2
3 -2 3 6991.6 17.7284 2
3 2 4 466.946 7.10377 2
3 2 5 110.969 5.81415 2
3 2 6 286.619 6.89761 2
3 -2 7 3007.79 17.2667 2
3 -2 8 1.51634 7.4214 2
3 2 9 1002.14 10.537 2
3 -3 -10 244.765 9.70396 2
3 3 -9 2.23827 5.74003 2
3 3 -8 1552.97 16.0651 2
3 -3 -7 232.725 9.66676 2
3 -3 -6 538.314 7.2673 2
3 -3 -5 11.2183 3.87956 2
3 -3 -4 13322.2 17.8504 2
3 -3 -3 17.4244 3.22914 2
3 -3 -2 5220.25 12.9353 2
3 -3 -1 153.561 3.81891 2
3 -3 0 1661.85 7.68994 2
3 -3 1 40.8562 3.38099 2
3 -3 2 11312.9 20.3614 2
3 -3 3 193.333 4.74142 2
3 3 4 1277.93 8.81975 2
3 3 5 84.716 5.0392 2
3 -3 6 4756.03 22.8281 2
3 -3 7 1.48884 4.81455 2
3 -3 8 3555.29 22.8472 2
3 3 9 24.863 3.646 2
3 -4 -10 77.8233 7.66232 2
3 4 -9 478.561 8.76875 2
3 4 -8 268.426 9.85711 2
3 -4 -7 303.85 9.42335 2
3 -4 -6 2547.33 13.4894 2
3 -4 -5 653.377 6.90027 2
3 4 -4 1689.02 7.9272 2
3 4 -3 6277.56 14.0058 2
3 -4 -2 4690.8 11.8547 2
3 -4 -1 115.405 3.81178 2
3 -4 0 3082.94 10.5701 2
3 -4 1 6741.08 15.4888 2
3 -4 2 129.365 4.31341 2
3 -4 3 4473.08 16.0844 2
3 4 4 2765.83 14.1981 2
3 4 5 15.2323 5.63767 2
3 4 6 1296.52 13.5894 2
3 -4 7 2188 14.8276 2
3 -4 8 35.6133 5.92109 2
3 -4 9 127.522 6.93202 2
3 -5 -10 13.5433 6.7442 2
3 5 -9 6.79073 4.91966 2
3 5 -8 86.5802 8.93755 2
3 5 -7 2459.56 18.6262 2
-3 -5 6 30.1796 6.48964 2
3 -5 -5 2616.07 13.3579 2
3 -5 -4 324.336 5.37546 2
3 5 -3 850.386 6.53982 2
3 -5 -2 469.702 5.02633 2
3 -5 -1 13701.1 19.9278 2
3 -5 0 29.0342 3.60455 2
3 5 1 5183.13 12.7469 2
3 5 2 516.767 5.83194 2
3 5 3 3456.36 13.6527 2
3 5 4 17.678 4.63388 2
3 5 5 11243.2 39.5165 2
3 5 6 14.1265 5.74985 2
3 -5 7 249.157 6.4462 2
3 -5 8 17.041 4.04835 2
3 -6 -10 170.38 8.15737 2
3 -6 -9 164.636 7.76499 2
3 6 -8 624.739 12.7966 2
3 6 -7 185.801 8.25296 2
3 6 -6 4429.08 21.8774 2
3 -6 -5 276.395 7.91298 2
3 -6 -4 171.082 5.10304 2
3 -6 -3 1305.36 6.84595 2
3 -6 -2 9463.96 16.5232 2
3 -6 -1 712.667 5.07856 2
3 6 0 10316.2 19.1453 2
3 6 1 870.03 6.72887 2
3 6 2 85.0975 4.15294 2
3 6 3 698.692 7.98839 2
3 6 4 8093.76 23.2299 2
3 6 5 127.575 6.96353 2
3 6 6 1904.54 18.0915 2
3 -6 7 175.532 6.03948 2
3 -6 8 142.845 4.90893 2
3 -7 -10 117.87 8.51 2
3 -7 -9 2.62954 5.96668 2
3 7 -8 522.282 9.79541 2
3 7 -7 597.766 9.25364 2
3 7 -6 156.35 9.97536 2
3 7 -5 1247.85 13.9165 2
3 7 -4 5332.97 17.7525 2
3 -7 -3 245.669 4.49135 2
3 -7 -2 3953.15 11.4445 2
3 7 -1 5393.2 11.8474 2
3 7 0 2219.21 10.1215 2
3 7 1 981.478 6.8023 2
3 7 2 4716.78 14.7078 2
3 7 3 102.926 4.64648 2
3 7 4 153.122 5.42337 2
3 7 5 1121.15 11.3568 2
3 7 6 1080.62 13.8024 2
3 7 7 53.4046 4.88417 2
3 -7 8 1481.31 15.0004 2
3 8 -9 878.142 12.6805 2
3 8 -8 5.30384 6.12254 2
3 8 -7 582.952 9.25945 2
3 8 -6 17.8533 8.78695 2
3 8 -5 3016.15 19.3926 2
3 -8 -4 203.291 6.6915 2
3 8 -3 5792.72 16.314 2
3 -8 -2 29.5507 3.76134 2
3 8 -1 19.7279 3.5075 2
3 8 0 46.2075 4.5508 2
3 8 1 8893.55 17.8167 2
3 8 2 126.983 4.22965 2
3 8 3 11290.6 23.2657 2
3 8 4 557.884 7.52227 2
3 8 5 22.6569 4.91792 2
3 8 6 5.30819 5.43209 2
3 -8 7 3190.27 21.1595 2
3 -8 8 3.21617 3.57471 2
3 -9 -9 11.2621 7.04196 2
3 9 -8 1030.99 11.3022 2
3 9 -7 338.461 7.72538 2
3 9 -6 41.7017 9.08689 2
3 9 -5 871.648 10.6577 2
3 9 -4 5232.01 21.2363 2
3 9 -3 235.134 6.33453 2
3 -9 -2 4537.8 12.4836 2
3 9 -1 2353.95 8.59288 2
3 9 0 1782.69 9.27724 2
3 9 1 930.054 7.06609 2
3 9 2 10289.5 22.1715 2
3 9 3 597.978 7.12286 2
3 9 4 792.158 9.60033 2
3 9 5 981.174 10.4618 2
3 9 6 1535.54 13.3724 2
3 -9 7 21.9293 3.75971 2
3 -9 8 775.875 15.2854 2
3 -10 -9 119 7.80804 2
3 -10 -8 345.476 10.5214 2
3 10 -7 55.0649 5.82606 2
3 10 -6 3213.4 24.4781 2
3 10 -5 347.555 10.7227 2
3 -10 -4 638.254 8.38516 2
3 -10 -3 936.938 9.74328 2
3 -10 -2 3451.53 11.8456 2
3 10 -1 21.6022 3.5094 2
3 10 0 8715.37 19.6975 2
3 10 1 1213.51 8.8662 2
3 10 2 625.588 7.48214 2
3 -10 3 407.543 7.41477 2
3 10 4 5069.93 19.7134 2
3 10 5 54.3857 5.35821 2
3 -10 6 1674.04 13.9043 2
3 -10 7 711.495 9.5862 2
3 -10 8 216.835 5.66571 2
3 -11 -9 1.77786 5.72028 2
3 -11 -8 23.7486 7.69681 2
3 11 -7 1750.16 12.8294 2
3 11 -6 1.299 6.71161 2
3 11 -5 2166.46 18.587 2
3 -11 -4 18.228 4.66431 2
3 -11 -3 1393.32 11.0122 2
3 -11 -2 22.5992 4.20699 2
3 11 -1 7099.93 15.7937 2
3 11 0 259.269 5.83394 2
3 11 1 4681.68 17.2305 2
3 11 2 801.648 8.20833 2
3 -11 3 1131.7 10.4931 2
3 11 4 177.812 7.92229 2
3 11 5 6154.35 22.7518 2
3 11 6 15.5681 5.17715 2
3 11 7 102.218 4.42071 2
3 -11 8 -0.37123 2.93157 2
3 -12 -9 228.813 7.8045 2
3 -12 -8 258.08 9.43045 2
3 -12 -7 70.5746 5.88574 2
3 12 -6 2079.77 19.0764 2
3 12 -5 537.066 11.2458 2
3 -12 -4 212.212 5.95276 2
3 -12 -3 2138.46 12.6206 2
3 12 -2 1975.85 11.7584 2
3 12 -1 14.1158 4.3856 2
3 12 0 3600.14 15.0697 2
3 12 1 1688.46 12.3244 2
3 12 2 671.947 7.86733 2
3 -12 3 966.853 10.1523 2
3 12 4 3974.78 22.8285 2
3 12 5 51.4805 5.25696 2
3 12 6 2110.78 16.4117 2
3 -12 7 980.572 11.3497 2
3 -13 -9 0.11346 4.28719 2
3 -13 -8 759.587 11.5876 2
3 -13 -7 82.0135 5.58967 2
3 -13 -6 48.217 7.68716 2
3 13 -5 249.812 9.10519 2
3 -13 -4 3639.26 16.3886 2
3 -13 -3 16.3756 5.24995 2
3 13 -2 3082.44 16.6653 2
3 13 -1 283.564 5.98329 2
3 13 0 1048.19 9.12574 2
3 13 1 222.887 6.67017 2
3 13 2 5017.7 18.9398 2
3 -13 3 539.723 9.09095 2
3 13 4 202.703 7.19746 2
3 13 5 264.444 6.15295 2
3 13 6 1531.55 13.1064 2
3 -13 7 13.8109 3.00602 2
3 -14 -8 38.4839 9.80334 2
3 -14 -7 292.924 6.68361 2
3 -14 -6 184.542 8.59768 2
3 -14 -5 985.88 20.0182 2
3 -14 -4 30.879 5.4846 2
3 -14 -3 2843.84 16.1527 2
3 14 -2 199.762 6.41371 2
3 14 -1 68.8227 6.07115 2
3 14 0 288.903 6.93199 2
3 14 1 4774.41 18.7903 2
3 14 2 85.9466 5.15508 2
3 -14 3 6805.4 24.7952 2
3 14 4 1481.89 13.0167 2
3 14 5 280.479 6.78913 2
3 14 6 115.502 5.00924 2
3 -14 7 2826.51 20.382 2
3 -15 -8 147.062 9.89674 2
3 -15 -7 558.222 7.45163 2
3 -15 -6 30.6949 6.52986 2
3 -15 -5 1176.86 15.5855 2
3 -15 -4 1367.32 11.1528 2
3 -15 -3 12.0871 4.9238 2
3 -15 -2 854.894 9.05946 2
3 15 -1 2350.41 17.4401 2
3 15 0 798.032 10.478 2
3 15 1 563.464 7.74879 2
3 15 2 1608.85 12.0917 2
3 -15 3 931.005 10.3054 2
3 15 4 229.729 6.65775 2
3 15 5 2114.98 13.5636 2
3 15 6 522.696 12.1527 2
3 -15 7 87.9792 6.54078 2
3 -16 -8 184.647 9.11823 2
3 -16 -7 7.94532 3.76845 2
3 -16 -6 2073.37 15.3108 2
3 -16 -5 5.12903 6.57589 2
3 -16 -4 176.696 6.15709 2
3 -16 -3 5.87643 4.69989 2
3 -16 -2 2999.63 17.3414 2
3 16 -1 2.85792 5.06568 2
3 16 0 2526.87 18.4868 2
3 16 1 91.4361 6.26319 2
3 16 2 28.87 5.10035 2
3 -16 3 115.059 7.80134 2
3 16 4 4023.45 18.1214 2
3 16 5 17.7022 4.12659 2
3 -16 6 1208.14 15.7208 2
3 -17 -7 1155.53 11.5991 2
3 -17 -6 14.8218 4.69957 2
3 -17 -5 686.694 11.3487 2
3 -17 -4 642.555 8.92694 2
3 -17 -3 198.73 5.72566 2
3 -17 -2 228.301 6.90956 2
3 17 -1 3200.75 16.7569 2
3 17 0 87.7644 7.49293 2
3 17 1 1805.65 13.1692 2
3 17 2 817.189 9.25703 2
3 -17 3 1194.72 14.7377 2
3 17 4 14.8516 4.91334 2
3 17 5 2512.31 15.1172 2
3 -17 6 139.735 8.03193 2
3 -18 -7 159.469 6.68653 2
3 -18 -6 427.187 6.67919 2
3 -18 -5 273.106 7.964 2
3 -18 -4 219.962 6.33147 2
3 -18 -3 1372.92 11.0454 2
3 -18 -2 890.812 8.91824 2
3 18 -1 21.2806 5.08212 2
3 18 0 902.048 10.4382 2
3 18 1 3838.35 19.6736 2
3 18 2 9.74469 4.70184 2
3 -18 3 1907.06 16.2188 2
3 18 4 713.592 8.51609 2
3 18 5 18.6981 3.78101 2
3 -19 -6 10.7433 3.10709 2
3 -19 -5 159.308 7.75632 2
3 -19 -4 3133.63 14.3839 2
3 -19 -3 55.8176 4.96033 2
3 -19 -2 1204.41 9.3885 2
3 19 -1 5.46794 4.86263 2
3 19 0 749.647 9.83446 2
3 19 1 11.9356 4.34947 2
3 19 2 4478.28 18.5851 2
3 -19 3 46.0921 7.1726 2
3 19 4 431.018 6.70143 2
3 -19 5 70.0206 4.95442 2
3 -20 -6 458.509 6.00405 2
3 -20 -5 830.381 12.9723 2
3 -20 -4 40.4338 5.66037 2
3 -20 -3 1403.83 10.8249 2
3 -20 -2 897.531 7.7726 2
3 -20 -1 193.55 5.58769 2
3 20 0 1155.22 9.87082 2
3 20 1 1548.79 10.073 2
3 -20 2 39.0775 4.8708 2
3 20 3 1404.86 20.1725 2
3 -20 4 610.349 9.67338 2
3 -21 -5 328.462 8.86161 2
3 -21 -4 279.946 7.5608 2
3 21 -3 249.046 5.63635 2
3 -21 -2 100.151 5.21131 2
3 -21 -1 2979.07 15.4232 2
3 21 0 73.3178 6.41375 2
3 21 1 792.738 8.28926 2
3 -21 2 336.527 8.71065 2
3 21 3 459.227 10.3247 2
3 21 4 6.76631 5.55993 2
3 -22 -5 122.04 5.38605 2
3 -22 -4 143.527 7.28587 2
3 22 -3 107.255 5.4313 2
3 -22 -2 1296.26 9.35201 2
3 -22 -1 8.42053 4.13147 2
3 -22 0 1990.86 13.4811 2
3 22 1 58.0119 4.71859 2
3 -22 2 11.526 4.91207 2
3 -22 3 57.046 4.59012 2
3 -23 -4 852 10.5653 2
3 23 -3 70.5538 4.12728 2
3 -23 -2 431.904 6.77148 2
3 -23 -1 1371.75 12.5188 2
3 23 0 531.793 7.03738 2
3 23 1 342.015 7.39112 2
3 -23 2 956.438 9.21437 2
3 -24 -3 1392.56 12.302 2
3 -24 -2 6.62819 4.26336 2
3 -24 -1 44.4367 5.46515 2
3 -24 0 31.6783 5.42011 2
3 -24 1 1103.67 8.80459 2
5 -1 0 63.455 14.32 2
5 -1 1 778.402 14.0098 2
5 -2 0 124.546 14.2974 2
5 -2 1 95.1828 12.4505 2
5 -3 0 42.1385 9.09501 2
5 -3 1 41.3312 10.7946 2
5 -4 -2 23.8192 11.2276 2
5 -4 0 394.024 11.1854 2
5 -4 1 -0.9327 9.62587 2
5 -5 -2 20.9796 9.78731 2
5 -5 0 -8.18854 8.12146 2
5 -6 -2 3.42284 8.40356 2
0 0 2 69908.2 148.504 -2
0 0 -2 69908.2 148.504 1
0 0 4 16721.3 80.3474 -2
0 0 -4 16721.3 80.3474 1
0 0 -6 20918.6 98.1053 -2
0 0 6 20918.6 98.1053 1
0 0 -8 127.323 10.1884 -2
0 0 8 127.323 10.1884 1
0 0 10 7774.07 58.4215 -2
0 0 -10 7774.07 58.4215 1
0 0 -12 1879.59 19.7378 -2
0 0 12 1879.59 19.7378 1
0 -1 1 33851.2 51.0148 -2
0 1 -1 33851.2 51.0148 1
0 1 -2 38067.3 71.8748 -2
0 -1 2 38067.3 71.8748 1
0 1 3 611.937 12.1856 -2
0 -1 -3 611.937 12.1856 1
0 1 4 8362.31 43.5768 -2
0 -1 -4 8362.31 43.5768 1
0 -1 -5 52563.8 117.191 -2
0 1 5 52563.8 117.191 1
0 -1 -6 4618.31 34.5624 -2
0 1 6 4618.31 34.5624 1
0 1 7 9639.76 34.8365 -2
0 -1 -7 9639.76 34.8365 1
0 -1 8 6360.32 31.1556 -2
0 1 -8 6360.32 31.1556 1
0 -1 -9 1155.38 15.0122 -2
0 1 9 1155.38 15.0122 1
0 1 10 76.4058 8.60498 -2
0 -1 -10 76.4058 8.60498 1
0 1 11 2480.07 22.7273 -2
0 -1 -11 2480.07 22.7273 1
0 -1 -12 346.706 9.27145 -2
0 1 12 346.706 9.27145 1
0 2 0 2226.96 10.1548 -2
0 -2 0 2226.96 10.1548 1
0 2 1 16909.5 30.7223 -2
0 -2 -1 16909.5 30.7223 1
0 -2 -2 3796.78 21.0474 -2
0 2 2 3796.78 21.0474 1
0 2 -3 135180 159.595 -2
0 -2 3 135180 159.595 1
0 -2 4 2273.3 24.0814 -2
0 2 -4 2273.3 24.0814 1
0 -2 5 14436.9 56.9007 -2
0 2 -5 14436.9 56.9007 1
0 2 6 12358.6 56.26 -2
0 -2 -6 12358.6 56.26 1
0 2 -7 11278.3 35.3119 -2
0 -2 7 11278.3 35.3119 1
0 -2 -8 21.4622 6.25896 -2
0 2 8 21.4622 6.25896 1
0 -2 -9 8504.64 35.3538 -2
0 2 9 8504.64 35.3538 1
0 -2 10 477.876 12.5453 -2
0 2 -10 477.876 12.5453 1
0 2 -11 131.409 9.86461 -2
0 -2 11 131.409 9.86461 1
0 2 -12 115.47 7.08826 -2
0 -2 12 115.47 7.08826 1
0 3 -1 110.002 5.11989 -2
0 -3 1 110.002 5.11989 1
0 -3 -2 220168 145.466 -2
0 3 2 220168 145.466 1
0 -3 3 3576.99 22.4817 -2
0 3 -3 3576.99 22.4817 1
0 3 4 33258.5 76.4747 -2
0 -3 -4 33258.5 76.4747 1
0 3 5 466.432 12.028 -2
0 -3 -5 466.432 12.028 1
0 3 6 1070.18 19.2383 -2
0 -3 -6 1070.18 19.2383 1
0 -3 7 361.635 8.6124 -2
0 3 -7 361.635 8.6124 1
0 -3 -8 15623.2 48.4219 -2
0 3 8 15623.2 48.4219 1
0 -3 -9 123.032 7.94423 -2
0 3 9 123.032 7.94423 1
0 3 10 2323.75 23.6298 -2
0 -3 -10 2323.75 23.6298 1
0 3 11 56.4844 8.30128 -2
0 -3 -11 56.4844 8.30128 1
0 3 12 1016.49 10.8198 -2
0 -3 -12 1016.49 10.8198 1
0 4 0 72733.2 105.176 -2
0 -4 0 72733.2 105.176 1
0 -4 -1 12722.6 33.4897 -2
0 4 1 12722.6 33.4897 1
0 -4 -2 43986.4 65.778 -2
0 4 2 43986.4 65.778 1
0 4 -3 65983.6 92.7661 -2
0 -4 3 65983.6 92.7661 1
0 -4 4 19159.7 60.1686 -2
0 4 -4 19159.7 60.1686 1
0 4 -5 2098.47 23.5518 -2
0 -4 5 2098.47 23.5518 1
0 -4 6 13389.8 56.9426 -2
0 4 -6 13389.8 56.9426 1
0 4 -7 10661.9 38.4066 -2
0 -4 7 10661.9 38.4066 1
0 4 8 83.4077 7.10857 -2
0 -4 -8 83.4077 7.10857 1
0 -4 9 4313.65 30.7647 -2
0 4 -9 4313.65 30.7647 1
0 4 10 2707.14 35.5773 -2
0 -4 -10 2707.14 35.5773 1
0 4 -11 14.5653 9.58966 -2
0 -4 11 14.5653 9.58966 1
0 4 12 380.461 11.106 -2
0 -4 -12 380.461 11.106 1
0 5 -1 84709.4 93.6929 -2
0 -5 1 84709.4 93.6929 1
0 5 2 836.173 12.4882 -2
0 -5 -2 836.173 12.4882 1
0 -5 -3 13092.2 42.7113 -2
0 5 3 13092.2 42.7113 1
0 -5 -4 3563.25 27.3382 -2
0 5 4 3563.25 27.3382 1
0 -5 5 55240.3 116.056 -2
0 5 -5 55240.3 116.056 1
0 5 -6 546.687 8.72095 -2
0 -5 6 546.687 8.72095 1
0 5 -7 13279.3 41.2303 -2
0 -5 7 13279.3 41.2303 1
0 -5 -8 1465.51 15.5102 -2
0 5 8 1465.51 15.5102 1
0 5 -9 1717.1 18.6654 -2
0 -5 9 1717.1 18.6654 1
0 5 -10 29.4289 11.9827 -2
0 -5 10 29.4289 11.9827 1
0 5 -11 4184.16 38.5479 -2
0 -5 11 4184.16 38.5479 1
0 -6 0 117030 145.386 -2
0 6 0 117030 145.386 1
0 -6 1 7602.17 30.024 -2
0 6 -1 7602.17 30.024 1
0 6 2 27795.7 60.7256 -2
0 -6 -2 27795.7 60.7256 1
0 6 -3 19978.4 55.0841 -2
0 -6 3 19978.4 55.0841 1
0 6 4 53407.3 101.49 -2
0 -6 -4 53407.3 101.49 1
0 -6 -5 3090.76 29.4546 -2
0 6 5 3090.76 29.4546 1
0 6 -6 27176.9 56.2256 -2
0 -6 6 27176.9 56.2256 1
0 -6 7 1867.35 16.1028 -2
0 6 -7 1867.35 16.1028 1
0 -6 -8 959.804 13.4891 -2
0 6 8 959.804 13.4891 1
0 -6 -9 349.716 12.8208 -2
0 6 9 349.716 12.8208 1
0 6 10 3651.56 42.5765 -2
0 -6 -10 3651.56 42.5765 1
0 6 11 45.3945 7.44379 -2
0 -6 -11 45.3945 7.44379 1
0 7 1 18443.3 52.5549 -2
0 -7 -1 18443.3 52.5549 1
0 7 -2 31579.9 68.893 -2
0 -7 2 31579.9 68.893 1
0 7 -3 37.0965 7.04434 -2
0 -7 3 37.0965 7.04434 1
0 -7 4 29111.2 77.727 -2
0 7 -4 29111.2 77.727 1
0 -7 -5 16987 65.566 -2
0 7 5 16987 65.566 1
0 7 -6 3915.31 21.8413 -2
0 -7 6 3915.31 21.8413 1
0 -7 7 6564.28 29.1769 -2
0 7 -7 6564.28 29.1769 1
0 -7 8 9909 46.0517 -2
0 7 -8 9909 46.0517 1
0 7 9 108.768 11.0331 -2
0 -7 -9 108.768 11.0331 1
0 7 10 648.435 20.6276 -2
0 -7 -10 648.435 20.6276 1
0 7 -11 978.874 14.4393 -2
0 -7 11 978.874 14.4393 1
0 -8 0 76.3153 10.413 -2
0 8 0 76.3153 10.413 1
0 -8 1 66588.6 100.294 -2
0 8 -1 66588.6 100.294 1
0 8 -2 10331.7 42.3623 -2
0 -8 2 10331.7 42.3623 1
0 -8 -3 48349.3 87.235 -2
0 8 3 48349.3 87.235 1
0 -8 -4 61.3819 8.42177 -2
0 8 4 61.3819 8.42177 1
0 8 -5 2008.67 24.2597 -2
0 -8 5 2008.67 24.2597 1
0 8 -6 922.254 11.6666 -2
0 -8 6 922.254 11.6666 1
0 -8 7 11361.7 43.6632 -2
0 8 -7 11361.7 43.6632 1
0 -8 -8 1358.56 17.6254 -2
0 8 8 1358.56 17.6254 1
0 8 9 15073.6 63.9322 -2
0 -8 -9 15073.6 63.9322 1
0 8 10 402.351 13.5522 -2
0 -8 -10 402.351 13.5522 1
0 8 11 62.8446 5.69294 -2
0 -8 -11 62.8446 5.69294 1
0 -9 -1 11187.2 44.7227 -2
0 9 1 11187.2 44.7227 1
0 -9 2 101987 160.061 -2
0 9 -2 101987 160.061 1
0 9 -3 16.7836 6.8317 -2
0 -9 3 16.7836 6.8317 1
0 9 4 40381.3 93.2086 -2
0 -9 -4 40381.3 93.2086 1
0 9 -5 7927.67 47.4774 -2
0 -9 5 7927.67 47.4774 1
0 9 -6 4932.23 27.4549 -2
0 -9 6 4932.23 27.4549 1
0 9 -7 2342.79 21.2967 -2
0 -9 7 2342.79 21.2967 1
0 -9 8 11018.4 47.2445 -2
0 9 -8 11018.4 47.2445 1
0 -9 -9 798.12 17.4775 -2
0 9 9 798.12 17.4775 1
0 9 -10 918.303 17.6698 -2
0 -9 10 918.303 17.6698 1
0 9 11 706.799 10.1427 -2
0 -9 -11 706.799 10.1427 1
0 -10 0 97710.1 197.208 -2
0 10 0 97710.1 197.208 1
0 10 1 1610.65 18.1703 -2
0 -10 -1 1610.65 18.1703 1
0 10 -2 21457.9 72.9413 -2
0 -10 2 21457.9 72.9413 1
0 10 -3 4794.57 34.1464 -2
0 -10 3 4794.57 34.1464 1
0 -10 4 15416.6 48.4657 -2
0 10 -4 15416.6 48.4657 1
0 -10 -5 1732.65 19.726 -2
0 10 5 1732.65 19.726 1
0 -10 -6 21364.2 59.6931 -2
0 10 6 21364.2 59.6931 1
0 -10 7 1883.44 19.3019 -2
0 10 -7 1883.44 19.3019 1
0 10 -8 1366.91 19.2281 -2
0 -10 8 1366.91 19.2281 1
0 10 9 733.804 14.1201 -2
0 -10 -9 733.804 14.1201 1
0 10 10 2658.4 21.3125 -2
0 -10 -10 2658.4 21.3125 1
0 10 11 84.5434 7.22998 -2
0 -10 -11 84.5434 7.22998 1
0 11 1 60992.9 105.218 -2
0 -11 -1 60992.9 105.218 1
0 11 2 1754.64 25.2555 -2
0 -11 -2 1754.64 25.2555 1
0 11 3 9231.71 51.5036 -2
0 -11 -3 9231.71 51.5036 1
0 11 4 234.189 9.13966 -2
0 -11 -4 234.189 9.13966 1
0 -11 -5 27142 77.699 -2
0 11 5 27142 77.699 1
0 -11 -6 1066.16 19.1272 -2
0 11 6 1066.16 19.1272 1
0 11 -7 18378.3 58.4094 -2
0 -11 7 18378.3 58.4094 1
0 11 -8 656.744 13.0567 -2
0 -11 8 656.744 13.0567 1
0 -11 -9 109.421 8.36993 -2
0 11 9 109.421 8.36993 1
0 11 10 103.771 9.68966 -2
0 -11 -10 103.771 9.68966 1
0 11 11 3090.18 23.3174 -2
0 -11 -11 3090.18 23.3174 1
0 12 0 61872.3 178.044 -2
0 -12 0 61872.3 178.044 1
0 -12 -1 2639.63 26.3623 -2
0 12 1 2639.63 26.3623 1
0 -12 -2 8581.23 51.2314 -2
0 12 2 8581.23 51.2314 1
0 12 -3 12553.9 62.0855 -2
0 -12 3 12553.9 62.0855 1
0 12 -4 8044.7 36.9912 -2
0 -12 4 8044.7 36.9912 1
0 12 5 1274.97 22.9381 -2
0 -12 -5 1274.97 22.9381 1
0 -12 -6 12303 72.5148 -2
0 12 6 12303 72.5148 1
0 -12 -7 2630.34 21.3603 -2
0 12 7 2630.34 21.3603 1
0 -12 -8 231.693 10.3533 -2
0 12 8 231.693 10.3533 1
0 12 9 2621.67 22.3004 -2
0 -12 -9 2621.67 22.3004 1
0 12 10 1914.33 24.4622 -2
0 -12 -10 1914.33 24.4622 1
0 12 11 50.1585 7.16928 -2
0 -12 -11 50.1585 7.16928 1
0 13 -1 3764.75 32.6377 -2
0 -13 1 3764.75 32.6377 1
0 -13 -2 60629.6 151.457 -2
0 13 2 60629.6 151.457 1
0 13 -3 313.23 13.4359 -2
0 -13 3 313.23 13.4359 1
0 13 -4 33127.3 61.7907 -2
0 -13 4 33127.3 61.7907 1
0 13 5 2572.02 26.6804 -2
0 -13 -5 2572.02 26.6804 1
0 -13 -6 1686.89 24.0716 -2
0 13 6 1686.89 24.0716 1
0 -13 -7 195.299 9.49808 -2
0 13 7 195.299 9.49808 1
0 -13 -8 6659.56 40.3147 -2
0 13 8 6659.56 40.3147 1
0 -13 -9 563.741 14.9892 -2
0 13 9 563.741 14.9892 1
0 13 10 407.568 11.2267 -2
0 -13 -10 407.568 11.2267 1
0 13 11 65.102 5.90353 -2
0 -13 -11 65.102 5.90353 1
0 14 0 2847.63 44.4839 -2
0 -14 0 2847.63 44.4839 1
0 -14 1 22462.6 81.7372 -2
0 14 -1 22462.6 81.7372 1
0 -14 -2 2572.94 31.2137 -2
0 14 2 2572.94 31.2137 1
0 14 3 45775.6 93.9365 -2
0 -14 -3 45775.6 93.9365 1
0 14 4 3036.62 20.4819 -2
0 -14 -4 3036.62 20.4819 1
0 -14 -5 1297.21 20.8935 -2
0 14 5 1297.21 20.8935 1
0 -14 6 943.69 19.3291 -2
0 14 -6 943.69 19.3291 1
0 -14 -7 5660.99 38.2632 -2
0 14 7 5660.99 38.2632 1
0 -14 -8 101.965 9.21543 -2
0 14 8 101.965 9.21543 1
0 -14 9 5881.5 39.4535 -2
0 14 -9 5881.5 39.4535 1
0 14 -10 405.667 10.3413 -2
0 -14 10 405.667 10.3413 1
0 -15 1 22443.3 90.9255 -2
0 15 -1 22443.3 90.9255 1
0 15 -2 16287 66.7394 -2
0 -15 2 16287 66.7394 1
0 -15 -3 47.5251 7.38301 -2
0 15 3 47.5251 7.38301 1
0 15 -4 8646.53 36.7762 -2
0 -15 4 8646.53 36.7762 1
0 -15 -5 14687.8 68.4359 -2
0 15 5 14687.8 68.4359 1
0 -15 -6 750.546 15.9912 -2
0 15 6 750.546 15.9912 1
0 -15 -7 2949.26 29.0905 -2
0 15 7 2949.26 29.0905 1
0 -15 -8 3126.8 30.1704 -2
0 15 8 3126.8 30.1704 1
0 -15 -9 814.763 14.7541 -2
0 15 9 814.763 14.7541 1
0 15 10 546.223 13.2924 -2
0 -15 -10 546.223 13.2924 1
0 -16 0 55345.9 206.584 -2
0 16 0 55345.9 206.584 1
0 -16 -1 526.377 15.1686 -2
0 16 1 526.377 15.1686 1
0 16 -2 8315.99 44.1679 -2
0 -16 2 8315.99 44.1679 1
0 16 3 227.757 8.51132 -2
0 -16 -3 227.757 8.51132 1
0 16 -4 13942.9 42.7678 -2
0 -16 4 13942.9 42.7678 1
0 16 -5 21.1712 8.88657 -2
0 -16 5 21.1712 8.88657 1
0 -16 -6 10154.3 51.5709 -2
0 16 6 10154.3 51.5709 1
0 -16 -7 303.595 16.5255 -2
0 16 7 303.595 16.5255 1
0 -16 -8 233.555 11.7868 -2
0 16 8 233.555 11.7868 1
0 16 -9 138.514 8.21075 -2
0 -16 9 138.514 8.21075 1
0 16 10 2599.81 22.0405 -2
0 -16 -10 2599.81 22.0405 1
0 -17 -1 26740.4 77.59 -2
0 17 1 26740.4 77.59 1
0 17 -2 7195.67 39.7835 -2
0 -17 2 7195.67 39.7835 1
0 17 -3 424.678 10.3797 -2
0 -17 3 424.678 10.3797 1
0 17 -4 3656.38 23.3681 -2
0 -17 4 3656.38 23.3681 1
0 17 -5 15625.6 65.8516 -2
0 -17 5 15625.6 65.8516 1
0 17 -6 36.7503 10.7133 -2
0 -17 6 36.7503 10.7133 1
0 -17 -7 4443.51 46.1774 -2
0 17 7 4443.51 46.1774 1
0 17 -8 1464.8 25.7216 -2
0 -17 8 1464.8 25.7216 1
0 -17 -9 324.738 11.8822 -2
0 17 9 324.738 11.8822 1
0 17 -10 159.449 6.61972 -2
0 -17 10 159.449 6.61972 1
0 -18 0 12967.3 124.952 -2
0 18 0 12967.3 124.952 1
0 18 -1 3550.57 30.3571 -2
0 -18 1 3550.57 30.3571 1
0 -18 2 3713.5 25.1043 -2
0 18 -2 3713.5 25.1043 1
0 -18 -3 17887.4 54.7816 -2
0 18 3 17887.4 54.7816 1
0 -18 -4 4301.53 24.6688 -2
0 18 4 4301.53 24.6688 1
0 -18 -5 1069.91 19.9726 -2
0 18 5 1069.91 19.9726 1
0 18 -6 2653.29 33.4031 -2
0 -18 6 2653.29 33.4031 1
0 -18 -7 6945.52 48.5512 -2
0 18 7 6945.52 48.5512 1
0 18 -8 18.5109 9.78039 -2
0 -18 8 18.5109 9.78039 1
0 -18 9 1733.49 20.1962 -2
0 18 -9 1733.49 20.1962 1
0 19 -1 4954.52 35.797 -2
0 -19 1 4954.52 35.797 1
0 -19 2 40336.3 80.4027 -2
0 19 -2 40336.3 80.4027 1
0 -19 3 445.908 11.8735 -2
0 19 -3 445.908 11.8735 1
0 -19 -4 7853.11 35.3501 -2
0 19 4 7853.11 35.3501 1
0 19 -5 12.4131 8.81248 -2
0 -19 5 12.4131 8.81248 1
0 -19 6 1145.66 20.7364 -2
0 19 -6 1145.66 20.7364 1
0 -19 -7 74.6856 10.9507 -2
0 19 7 74.6856 10.9507 1
0 -19 -8 6638.03 64.4328 -2
0 19 8 6638.03 64.4328 1
0 -19 9 39.492 6.61085 -2
0 19 -9 39.492 6.61085 1
0 -20 0 13973.6 98.3287 -2
0 20 0 13973.6 98.3287 1
0 -20 -1 4930.54 36.3034 -2
0 20 1 4930.54 36.3034 1
0 -20 -2 370.734 11.5407 -2
0 20 2 370.734 11.5407 1
0 -20 -3 15513.8 52.8605 -2
0 20 3 15513.8 52.8605 1
0 20 -4 3446.77 24.3654 -2
0 -20 4 3446.77 24.3654 1
0 20 -5 2210.74 27.7862 -2
0 -20 5 2210.74 27.7862 1
0 20 6 3973.9 29.1587 -2
0 -20 -6 3973.9 29.1587 1
0 20 7 2358.37 26.1257 -2
0 -20 -7 2358.37 26.1257 1
0 -20 -8 -3.17564 9.89918 -2
0 20 8 -3.17564 9.89918 1
0 -20 -9 1887.16 19.0518 -2
0 20 9 1887.16 19.0518 1
0 21 1 4906.3 36.6515 -2
0 -21 -1 4906.3 36.6515 1
0 -21 2 1375.66 19.5736 -2
0 21 -2 1375.66 19.5736 1
0 -21 3 279.055 11.0024 -2
0 21 -3 279.055 11.0024 1
0 21 -4 1018.48 17.9402 -2
0 -21 4 1018.48 17.9402 1
0 -21 -5 15019.4 77.8395 -2
0 21 5 15019.4 77.8395 1
0 21 6 121.705 9.30322 -2
0 -21 -6 121.705 9.30322 1
0 21 7 3231.47 28.245 -2
0 -21 -7 3231.47 28.245 1
0 21 8 442.802 10.0929 -2
0 -21 -8 442.802 10.0929 1
0 -22 0 41052.5 147.739 -2
0 22 0 41052.5 147.739 1
0 -22 -1 53.5522 11.388 -2
0 22 1 53.5522 11.388 1
0 -22 -2 2466.25 25.0203 -2
0 22 2 2466.25 25.0203 1
0 22 3 1617.43 24.8831 -2
0 -22 -3 1617.43 24.8831 1
0 22 4 6528 37.8504 -2
0 -22 -4 6528 37.8504 1
0 -22 5 69.6313 12.2117 -2
0 22 -5 69.6313 12.2117 1
0 22 6 6480.92 37.1478 -2
0 -22 -6 6480.92 37.1478 1
0 22 7 88.0156 7.5988 -2
0 -22 -7 88.0156 7.5988 1
0 -22 8 91.2585 5.45026 -2
0 22 -8 91.2585 5.45026 1
0 -23 -1 6526.39 54.0075 -2
0 23 1 6526.39 54.0075 1
0 23 2 9587.05 61.8381 -2
0 -23 -2 9587.05 61.8381 1
0 23 3 174.084 11.2049 -2
0 -23 -3 174.084 11.2049 1
0 -23 -4 3235.98 34.0006 -2
0 23 4 3235.98 34.0006 1
0 -23 5 5211.87 51.8081 -2
0 23 -5 5211.87 51.8081 1
0 -23 6 691.027 14.5282 -2
0 23 -6 691.027 14.5282 1
0 -23 -7 970.877 13.8161 -2
0 23 7 970.877 13.8161 1
0 24 0 683.379 25.8678 -2
0 -24 0 683.379 25.8678 1
0 24 1 3477.97 47.3043 -2
0 -24 -1 3477.97 47.3043 1
0 24 2 523.911 19.2321 -2
0 -24 -2 523.911 19.2321 1
0 24 3 14892.6 68.0122 -2
0 -24 -3 14892.6 68.0122 1
0 24 -4 181.136 11.808 -2
0 -24 4 181.136 11.808 1
0 -24 5 590.182 14.3406 -2
0 24 -5 590.182 14.3406 1
0 -24 6 174.646 8.56181 -2
0 24 -6 174.646 8.56181 1
0 24 7 2212.66 18.4169 -2
0 -24 -7 2212.66 18.4169 1
0 25 1 1594.2 23.7082 -2
0 -25 -1 1594.2 23.7082 1
0 25 -2 10913 61.2116 -2
0 -25 2 10913 61.2116 1
0 -25 -3 133.591 11.1842 -2
0 25 3 133.591 11.1842 1
0 -25 -4 3768.77 54.673 -2
0 25 4 3768.77 54.673 1
0 25 5 1271.22 19.3934 -2
0 -25 -5 1271.22 19.3934 1
0 -25 -6 345.531 9.80615 -2
0 25 6 345.531 9.80615 1
0 26 0 7874.73 63.5066 -2
0 -26 0 7874.73 63.5066 1
0 26 1 906.319 17.8106 -2
0 -26 -1 906.319 17.8106 1
0 26 2 2915.4 26.3175 -2
0 -26 -2 2915.4 26.3175 1
0 -26 -3 4026.89 31.285 -2
0 26 3 4026.89 31.285 1
0 -26 -4 2160.57 38.3884 -2
0 26 4 2160.57 38.3884 1
0 -26 -5 187.062 8.3988 -2
0 26 5 187.062 8.3988 1
0 -26 -6 2764.75 29.3599 -2
0 26 6 2764.75 29.3599 1
0 27 1 8614.97 42.1409 -2
0 -27 -1 8614.97 42.1409 1
0 27 -2 21.457 7.82026 -2
0 -27 2 21.457 7.82026 1
0 -27 -3 101.125 14.1026 -2
0 27 3 101.125 14.1026 1
0 27 -4 58.6176 6.69722 -2
0 -27 4 58.6176 6.69722 1
0 -27 -5 2517.07 21.7563 -2
0 27 5 2517.07 21.7563 1
0 28 0 8535.77 54.6418 -2
0 -28 0 8535.77 54.6418 1
0 28 1 1782.35 16.5659 -2
0 -28 -1 1782.35 16.5659 1
0 -28 -2 1676.4 33.0461 -2
0 28 2 1676.4 33.0461 1
0 -28 -3 2128.87 33.2766 -2
0 28 3 2128.87 33.2766 1
0 -28 -4 2272.26 21.4032 -2
0 28 4 2272.26 21.4032 1
0 -29 -1 175.277 10.6449 -2
0 29 1 175.277 10.6449 1
0 -29 -2 3619.14 39.4776 -2
0 29 2 3619.14 39.4776 1
0 -29 -3 82.1702 8.61173 -2
0 29 3 82.1702 8.61173 1
0 -30 0 275.628 12.3662 -2
0 30 0 275.628 12.3662 1
0 -30 -1 1957.8 18.0022 -2
0 30 1 1957.8 18.0022 1
-1 0 12 826.096 10.7204 1
1 0 -10 26.0312 12.5964 1
1 0 -8 4869.62 32.5676 1
1 0 -6 3748.93 54.8359 1
1 0 -4 15301.2 72.9679 1
1 0 -2 346346 180.756 1
1 0 0 31332.5 78.0846 1
-1 0 -2 12810.2 38.8825 1
-1 0 -4 17640.8 57.7067 1
1 0 6 56.4802 5.26789 1
1 0 8 8640.91 31.8917 1
1 0 10 2325.99 18.0019 1
-1 1 12 6.59104 4.96008 1
1 1 -11 129.707 12.5421 1
1 -1 -10 873.727 13.7043 1
1 -1 -9 1865.58 14.2504 1
1 1 -8 436.411 7.9533 1
-1 1 7 10313.8 24.7667 1
1 -1 -6 1926.26 25.9466 1
-1 -1 5 195.883 12.3537 1
1 1 -4 8866.11 34.9215 1
-1 1 3 15030.1 37.2178 1
-1 1 2 1234.26 9.54218 1
-1 -1 1 11765.2 27.8846 1
1 1 0 17816.1 34.7003 1
1 -1 1 83.1871 3.74972 1
-1 -1 -2 6025.49 21.4551 1
-1 1 -3 38833.6 52.925 1
1 -1 4 6307.37 26.7823 1
-1 -1 -5 7798.43 42.5628 1
-1 -1 -6 6182.08 17.1428 1
-1 -1 -7 1578.48 11.2902 1
1 -1 8 106.471 4.74692 1
-1 -1 -9 2828.81 15.8163 1
1 -1 10 444.691 7.2857 1
1 1 11 195.534 9.25384 1
1 2 -12 80.8563 5.48619 1
1 2 -11 1416.55 26.1004 1
1 2 -10 12.1135 6.75097 1
1 2 -9 2049.4 18.1736 1
-1 -2 8 2445.36 14.8071 1
1 2 -7 3028.78 14.1673 1
1 2 -6 772.603 12.559 1
1 -2 -5 32166.1 99.3561 1
1 2 -4 205.951 8.6439 1
-1 -2 3 5253.65 22.1923 1
1 -2 -2 1675.91 10.4366 1
-1 -2 1 9696.5 45.8672 1
1 -2 0 2102.9 17.0984 1
-1 -2 -1 60892.4 50.2217 1
1 -2 2 1379.77 12.5906 1
1 -2 3 8450.44 32.6395 1
-1 2 -4 9378.45 43.5498 1
-1 2 -5 9875.17 46.9123 1
-1 2 -6 106.983 4.12468 1
1 2 7 8183.73 21.0219 1
1 2 8 408.642 6.8754 1
-1 -2 -9 52.5538 4.45009 1
-1 -2 -10 142.787 5.49159 1
1 2 11 907.218 11.8312 1
1 -3 -12 254.181 5.40089 1
-1 -3 11 5.19996 5.22103 1
1 -3 -10 2516.56 18.1373 1
-1 -3 9 83.0537 6.63366 1
1 -3 -8 227.604 5.77881 1
1 -3 -7 192.782 5.08226 1
1 -3 -6 8452.67 25.9797 1
1 -3 -5 412.471 14.6431 1
1 3 -4 43435.7 80.3737 1
-1 -3 3 776.411 8.04605 1
-1 3 2 1946.29 14.6336 1
-1 3 1 694.279 10.5212 1
1 3 0 121538 98.6645 1
1 3 1 1526.35 9.47486 1
1 -3 2 21003.3 40.75 1
1 -3 3 313.25 7.32766 1
-1 3 -4 1048.98 16.2597 1
-1 -3 -5 255.866 10.3073 1
1 -3 6 14748.6 24.9092 1
1 -3 7 162.348 4.46577 1
-1 3 -8 2229.48 12.9473 1
-1 3 -9 39.3703 4.23036 1
1 -3 10 1692.34 11.2998 1
1 3 11 5.15642 5.12036 1
1 -4 -12 273.148 5.15467 1
-1 -4 11 600.44 9.21907 1
1 -4 -10 33.1863 5.94638 1
1 -4 -9 1586.38 14.7691 1
1 4 -8 3419.73 16.6125 1
-1 4 7 698.767 8.57158 1
1 -4 -6 3222.74 16.6279 1
-1 -4 5 13767.9 51.9076 1
1 4 -4 7478.02 30.8288 1
1 -4 -3 4552.47 17.4475 1
-1 -4 2 26323 58.6333 1
1 4 -1 4117.11 16.4669 1
1 -4 0 24426.6 27.1536 1
1 4 1 42754.9 54.1594 1
1 4 2 17741.1 38.4138 1
1 4 3 1135.64 12.9596 1
1 4 4 9170.51 33.0596 1
-1 4 -5 11390.5 46.7794 1
-1 -4 -6 13.6758 3.22583 1
1 -4 7 4328.2 16.5677 1
-1 4 -8 2525.3 13.1055 1
-1 -4 -9 7.07601 4.86617 1
-1 -4 -10 597.326 8.20947 1
-1 -4 -11 585.113 8.08542 1
1 -5 -11 177.75 6.24468 1
1 5 -10 253.103 7.3316 1
-1 5 9 2462.83 21.7565 1
1 -5 -8 141.977 6.22628 1
-1 -5 7 11582.1 33.2008 1
1 -5 -6 532.185 7.90822 1
-1 -5 5 1810.72 19.8344 1
-1 5 4 497.69 9.58288 1
1 5 -3 30932.5 67.8503 1
-1 5 2 89.2584 7.30234 1
-1 5 1 31582.3 37.0095 1
1 5 0 453.317 4.3626 1
-1 5 -1 7671.06 22.5945 1
-1 -5 -2 3526.66 15.9691 1
-1 -5 -3 46619.9 83.3451 1
1 -5 4 318.798 7.86565 1
-1 -5 -5 11416.3 44.2449 1
-1 5 -6 1213.28 7.99122 1
-1 5 -7 2341.21 11.7196 1
1 -5 8 5.58428 4.29298 1
1 -5 9 5972.2 23.1824 1
1 5 10 13.2814 4.7121 1
1 -5 11 116.205 5.63345 1
-1 6 12 311.044 11.857 1
1 6 -11 58.8821 4.96225 1
-1 -6 10 172.887 6.21591 1
1 -6 -9 262.151 7.0551 1
-1 6 8 6154.53 23.3724 1
1 -6 -7 508.099 9.32134 1
-1 -6 6 10652.9 33.6863 1
-1 -6 5 4917.65 38.189 1
-1 -6 4 10675.6 50.9729 1
-1 -6 3 2600.88 20.1591 1
-1 6 2 46860.6 70.1595 1
1 -6 -1 2610.77 12.5335 1
1 -6 0 6932.36 16.71 1
1 6 1 12282.7 32.4565 1
1 6 2 41338.2 60.9669 1
-1 6 -3 3040.21 21.7617 1
1 6 4 22097 51.9759 1
-1 -6 -5 2187.57 18.7302 1
1 -6 6 743.636 6.91875 1
1 -6 7 387.828 6.301 1
1 -6 8 5105.15 19.0534 1
-1 6 -9 59.0035 5.15987 1
-1 -6 -10 1344.67 12.1734 1
-1 -6 -11 27.0828 7.46955 1
1 -7 -11 28.1293 4.64291 1
1 -7 -10 1896.15 13.2584 1
1 7 -9 1584.55 13.1227 1
-1 -7 8 739.517 9.63431 1
-1 -7 7 3711.96 23.4113 1
-1 -7 6 6898.15 28.952 1
-1 -7 5 20.7135 8.63936 1
-1 -7 4 9439.73 42.8625 1
-1 -7 3 6193.11 30.2005 1
-1 -7 2 272.112 6.72977 1
-1 7 1 8326 22.6966 1
-1 -7 0 21001.1 31.3425 1
1 7 1 124.565 6.04569 1
1 7 2 19759.3 49.1385 1
-1 -7 -3 13846.3 47.074 1
-1 7 -4 3983.16 28.0912 1
-1 7 -5 4379.01 21.7323 1
1 7 6 8018.46 19.9905 1
1 -7 7 89.352 4.73206 1
-1 -7 -8 422.925 6.97631 1
-1 -7 -9 994.604 12.5314 1
1 -7 10 352.462 8.78332 1
-1 -7 -11 24.2748 6.845 1
1 -8 -11 2243.09 14.1548 1
1 8 -10 219.219 6.7043 1
1 8 -9 1952.5 14.7649 1
-1 8 8 299.124 7.53023 1
-1 8 7 1142.27 13.9826 1
1 -8 -6 11.2516 5.21753 1
-1 8 5 17279.2 68.0122 1
1 -8 -4 991.802 12.3368 1
1 -8 -3 15313.7 38.8603 1
1 8 -2 36.5108 4.77085 1
-1 -8 1 31064.7 44.338 1
-1 -8 0 5337.83 19.7735 1
-1 -8 -1 24458.4 43.6455 1
1 8 2 86.8464 6.80615 1
1 -8 3 494.339 8.54204 1
1 -8 4 523.892 12.5034 1
-1 8 -5 11377 27.1617 1
1 -8 6 962.26 7.87071 1
-1 -8 -7 14956.4 31.2685 1
-1 -8 -8 589.588 8.83839 1
1 8 9 58.2967 5.54806 1
-1 -8 -10 -1.32891 5.37961 1
-1 -8 -11 1061.68 16.4182 1
1 9 -11 112.688 5.25326 1
1 -9 -10 1489.04 17.364 1
1 -9 -9 466.335 8.09325 1
1 9 -8 851.2 9.27707 1
-1 -9 7 1657.22 15.032 1
-1 -9 6 9529.07 31.3068 1
-1 -9 5 13.6264 7.38545 1
1 -9 -4 24717.2 54.3777 1
-1 9 3 3476.84 19.5099 1
-1 -9 2 93.0828 4.83585 1
-1 9 1 6313.59 20.8779 1
1 9 0 43880.4 53.7687 1
1 9 1 160.82 5.72846 1
1 9 2 27210.3 50.1421 1
-1 -9 -3 6415.5 28.3929 1
1 9 4 4329.86 31.5761 1
1 -9 5 1980.86 12.7929 1
1 -9 6 12244.7 27.229 1
1 -9 7 762.087 8.9548 1
1 9 8 974.337 11.1762 1
1 -9 9 741.634 8.94708 1
-1 -9 -10 252.959 8.30804 1
-1 -9 -11 9.17429 5.83266 1
1 -10 -11 143.856 7.80722 1
1 -10 -10 184.761 6.75282 1
1 -10 -9 332.539 7.84527 1
-1 10 8 3751.27 17.663 1
1 10 -7 491.937 7.59846 1
1 -10 -6 3752.58 17.4986 1
-1 -10 5 1405.24 12.018 1
1 -10 -4 5916.44 27.8616 1
1 10 -3 502.544 9.66837 1
-1 -10 2 35285.8 52.6096 1
-1 10 1 978.772 10.7061 1
1 10 0 8669.42 26.8322 1
1 10 1 2984.35 17.4795 1
1 -10 2 11315 37.6942 1
1 -10 3 689.818 11.6884 1
-1 -10 -4 19444.7 73.9984 1
-1 10 -5 2062.3 13.4588 1
1 10 6 1437.93 10.5465 1
-1 10 -7 584.555 8.36132 1
1 10 8 3514.62 19.0483 1
1 10 9 60.6689 5.1028 1
-1 -10 -10 791.174 11.804 1
-1 -10 -11 218.675 7.94233 1
1 -11 -11 12.8596 5.37222 1
-1 11 10 64.4034 6.44222 1
-1 11 9 4508.68 23.1389 1
1 -11 -8 168.542 5.77077 1
-1 -11 7 7428.3 26.8011 1
-1 11 6 75.2196 5.56048 1
1 11 -5 1023.63 10.3867 1
1 11 -4 663.697 10.6787 1
-1 -11 3 20790.7 47.6071 1
-1 -11 2 23.9354 5.35055 1
-1 11 1 24873.5 61.6834 1
1 11 0 412.531 9.12271 1
-1 11 -1 7107.72 28.7553 1
-1 11 -2 162.832 8.3729 1
-1 -11 -3 18759.9 55.9763 1
1 -11 4 944.994 12.5977 1
-1 -11 -5 14093.6 30.852 1
1 -11 6 959.747 8.9684 1
1 11 7 191.324 6.04276 1
-1 -11 -8 131.164 6.5376 1
-1 -11 -9 4494.84 29.2475 1
-1 -11 -10 2.20153 4.85498 1
1 -12 -11 378.722 7.56004 1
-1 -12 10 19.448 5.65351 1
-1 -12 9 661.4 10.5297 1
-1 12 8 2684.06 20.9575 1
1 -12 -7 569.317 10.3683 1
-1 12 6 1857.7 14.3266 1
-1 12 5 3438.81 18.1609 1
-1 12 4 3499.52 19.1272 1
-1 12 3 783.683 11.8065 1
-1 -12 2 21628.3 54.855 1
-1 12 1 1831.22 18.886 1
-1 12 0 2447.22 18.7993 1
1 12 1 7775.24 33.0666 1
-1 12 -2 6431.46 34.1023 1
-1 -12 -3 291.456 10.1333 1
1 -12 4 10924.1 31.3229 1
-1 -12 -5 2675.58 16.2838 1
1 -12 6 437.283 6.687 1
1 12 7 2094.74 18.3211 1
-1 -12 -8 2764.46 16.1542 1
1 12 9 34.6171 6.09012 1
-1 -12 -10 1094.63 12.1496 1
-1 -13 11 25.7575 8.23797 1
-1 -13 10 1207.33 12.9156 1
1 -13 -9 30.4074 5.45124 1
1 13 -8 322.604 9.18679 1
-1 -13 7 480.536 10.0909 1
-1 13 6 8124.51 28.5704 1
-1 -13 5 9.76549 5.83193 1
-1 13 4 17887.7 38.3342 1
1 13 -3 1039.46 12.4453 1
-1 13 2 95.3845 7.68309 1
1 -13 -1 1840.02 19.9229 1
1 -13 0 26788.5 67.0383 1
-1 13 -1 285.585 10.4061 1
-1 13 -2 22628.6 69.3459 1
1 -13 3 2056.11 18.4935 1
1 -13 4 1891.24 12.6179 1
1 -13 5 250.505 7.36944 1
1 13 6 6797.09 24.6887 1
1 13 7 733.553 12.0529 1
1 -13 8 404.528 8.1124 1
-1 -13 -9 65.8751 6.18205 1
-1 -13 -10 385.959 6.82987 1
-1 -14 10 13.7162 4.37833 1
-1 14 9 1003.21 11.4119 1
-1 14 8 185.258 7.63454 1
-1 -14 7 568.882 11.4674 1
-1 -14 6 778.898 9.49575 1
-1 -14 5 14302.1 38.351 1
-1 -14 4 810.692 10.6118 1
-1 -14 3 6346.08 24.394 1
1 -14 -2 1421.5 11.9921 1
-1 -14 1 10853.2 45.3196 1
1 -14 0 967.917 15.3612 1
1 14 1 24957.1 87.1657 1
1 -14 2 1884.08 18.8184 1
1 -14 3 608.913 8.87886 1
1 14 4 889.685 9.87194 1
1 -14 5 6417.6 27.4688 1
1 -14 6 111.498 6.04832 1
-1 -14 -7 7130.19 35.4575 1
1 -14 8 751.733 9.81553 1
1 14 9 56.4216 5.7225 1
-1 -14 -10 37.0554 4.20022 1
-1 -15 10 695.918 13.0085 1
1 -15 -9 823.686 9.52081 1
1 -15 -8 117.847 6.88728 1
1 -15 -7 3119.33 24.7683 1
1 -15 -6 2264.62 15.9881 1
-1 15 5 9.61518 6.5128 1
1 -15 -4 4247.76 21.7505 1
-1 15 3 7900.99 25.8229 1
1 -15 -2 55.0285 4.9092 1
1 15 -1 11033.3 31.8834 1
-1 15 0 9759.61 42.2792 1
1 -15 1 30.6611 8.34055 1
1 15 2 5461.1 21.9232 1
1 15 3 11860.8 37.2025 1
1 15 4 1087.68 11.7893 1
1 -15 5 2150.79 17.9074 1
1 -15 6 2561.5 16.1055 1
1 -15 7 886.802 13.9385 1
1 15 8 531.617 8.98126 1
-1 -15 -9 1141.94 13.1233 1
-1 15 -10 76.0126 8.54299 1
-1 -16 10 45.2735 6.43402 1
-1 16 9 45.2837 4.03748 1
-1 16 8 2596.55 17.5642 1
1 16 -7 7.15003 6.39754 1
-1 16 6 2891.17 17.3409 1
1 -16 -5 93.6651 7.50353 1
-1 -16 4 3558.63 19.0164 1
-1 16 3 99.042 6.17104 1
-1 -16 2 22670 38.9383 1
-1 -16 1 234.866 6.7522 1
1 -16 0 3077.72 28.3213 1
-1 16 -1 97.1392 11.6934 1
-1 16 -2 11435.7 30.9283 1
1 16 3 16.5555 5.61606 1
-1 -16 -4 8247.83 33.0858 1
-1 -16 -5 277.379 9.13947 1
1 -16 6 131.778 9.95816 1
1 -16 7 115.837 7.7032 1
1 16 8 3123.56 18.0149 1
-1 -16 -9 15.4057 5.6448 1
-1 -17 10 178.165 11.0014 1
-1 17 9 938.376 10.0004 1
-1 17 8 7.99779 4.78224 1
-1 -17 7 3616.39 22.9258 1
1 17 -6 1201.87 11.9771 1
-1 17 5 30.3056 6.40684 1
-1 17 4 2332.63 15.7464 1
1 -17 -3 11689.1 32.9877 1
1 -17 -2 34.4334 5.10134 1
-1 17 1 9398.63 36.6442 1
1 -17 0 4267.29 35.6848 1
1 17 1 518.872 15.393 1
1 -17 2 1844.31 14.9615 1
1 -17 3 11932 41.1627 1
-1 -17 -4 85.5185 7.46531 1
1 -17 5 4134.86 31.3608 1
1 17 6 1433.59 22.3198 1
-1 -17 -7 525.89 10.8312 1
1 17 8 103.674 4.59768 1
-1 -17 -9 1363 16.3568 1
-1 18 9 1153.26 11.2385 1
-1 -18 8 516.708 8.8756 1
-1 -18 7 350.019 8.86658 1
1 -18 -6 808.021 10.8092 1
-1 18 5 5305.3 22.4339 1
-1 18 4 946.829 11.4522 1
1 -18 -3 1395.93 12.9233 1
-1 -18 2 5226.08 21.5143 1
1 -18 -1 1774.43 23.1836 1
-1 -18 0 2231.64 26.691 1
1 -18 1 9785.32 40.5806 1
1 -18 2 3228.83 21.9518 1
1 18 3 524.323 9.96812 1
1 -18 4 2325.55 20.3733 1
1 18 5 6965.69 31.8159 1
-1 -18 -6 7.82004 6.34815 1
1 -18 7 1924.94 17.5304 1
-1 -18 -8 699.255 7.1641 1
-1 -18 -9 -0.13048 3.7808 1
-1 19 9 23.5048 4.84783 1
-1 -19 8 219.977 8.35735 1
-1 -19 7 9.00139 5.28439 1
-1 -19 6 2086.35 15.3222 1
-1 19 5 165.496 6.73873 1
1 19 -4 11497.6 35.9339 1
1 19 -3 1704.81 13.6438 1
1 -19 -2 18.1356 6.5436 1
-1 19 1 2204.24 23.8504 1
-1 -19 0 23363.5 69.6567 1
1 19 1 230.904 9.29427 1
1 -19 2 4761.83 31.0981 1
-1 -19 -3 7.81875 6.46964 1
1 -19 4 1088.66 14.3654 1
1 -19 5 28.7769 6.84377 1
-1 -19 -6 6076.76 31.7613 1
1 -19 7 38.5497 5.81243 1
1 19 8 617.043 7.55702 1
-1 19 -9 27.7263 7.51824 1
-1 -20 9 277.515 12.1874 1
-1 -20 8 1025.66 14.0832 1
-1 20 7 827.374 15.4911 1
-1 -20 6 685.157 9.01659 1
1 -20 -5 4691.63 21.866 1
-1 -20 4 133.299 7.26229 1
1 -20 -3 999.863 11.2625 1
-1 -20 2 5647.14 37.1911 1
1 -20 -1 3442.01 29.2462 1
-1 20 0 191.293 11.1352 1
1 -20 1 7930.47 33.5379 1
-1 -20 -2 2479.38 22.5224 1
1 -20 3 1232.41 13.8069 1
-1 -20 -4 3314.6 21.8552 1
1 -20 5 2398.62 27.7135 1
1 -20 6 12.9323 5.88068 1
1 20 7 1891.29 15.9921 1
-1 20 -8 519.547 9.7228 1
1 -21 -8 28.214 4.50129 1
-1 -21 7 4259.56 28.9822 1
-1 -21 6 242.269 8.87249 1
1 -21 -5 32.7835 5.1905 1
-1 21 4 352.244 7.96416 1
1 -21 -3 2314.09 16.3563 1
-1 21 2 13.3399 8.89264 1
1 -21 -1 1934.77 23.1061 1
1 21 0 874.225 17.1736 1
1 21 1 374.149 11.1126 1
1 -21 2 587.201 13.4661 1
1 21 3 9841.22 38.0683 1
1 21 4 127.239 10.9712 1
1 21 5 2344.93 26.6392 1
-1 21 -6 411.247 9.46376 1
-1 21 -7 282.618 7.07484 1
-1 -21 -8 7.45225 3.78545 1
1 -22 -8 1119.37 16.9032 1
-1 -22 7 23.9938 6.32915 1
-1 22 6 1597.46 19.9545 1
-1 -22 5 483.895 11.513 1
1 -22 -4 992.49 13.047 1
1 -22 -3 25.3921 8.01768 1
1 -22 -2 16562.9 69.6965 1
-1 22 1 181.952 10.4667 1
1 22 0 905.963 12.0856 1
1 22 1 709.315 14.2286 1
1 -22 2 4535.53 37.866 1
-1 -22 -3 41.4741 7.83542 1
1 22 4 5073.04 38.0165 1
1 22 5 67.1774 8.67487 1
1 22 6 42.5083 5.28118 1
-1 22 -7 128.136 4.3957 1
-1 23 7 1229.77 16.1534 1
-1 23 6 703.051 12.5097 1
1 -23 -5 5.03622 6.92452 1
-1 23 4 2623.92 21.5263 1
-1 -23 3 2268.38 18.0588 1
1 -23 -2 4.66121 9.8104 1
1 -23 -1 2548.63 29.2626 1
-1 -23 0 5064.37 28.965 1
1 -23 1 196.95 11.1251 1
1 -23 2 2106.74 16.4483 1
1 -23 3 3998.61 25.9715 1
1 23 4 822.678 16.2159 1
-1 23 -5 816.605 14.9201 1
-1 -23 -6 1587.8 13.2306 1
1 23 7 122.948 4.65546 1
1 -24 -7 151.822 9.63988 1
1 -24 -6 22.9266 4.77109 1
1 -24 -5 3507.55 27.1197 1
1 -24 -4 204.023 8.60091 1
1 -24 -3 1153.33 15.1171 1
1 -24 -2 246.414 8.69446 1
-1 -24 1 1520.67 18.5783 1
1 -24 0 114.471 7.75944 1
1 -24 1 7749.98 29.6613 1
1 24 2 103.633 6.66604 1
1 24 3 337.032 9.9496 1
1 24 4 123.314 8.86688 1
1 24 5 2076.75 15.5998 1
-1 -24 -6 17.9418 4.81926 1
-1 25 6 1198.16 14.8313 1
-1 25 5 29.5164 7.31074 1
1 -25 -4 2806.93 23.5936 1
-1 -25 3 679.54 12.2144 1
1 -25 -2 107.859 6.89773 1
1 -25 -1 473.099 10.2638 1
1 -25 0 5092.25 26.3777 1
1 -25 1 113.931 6.70672 1
1 -25 2 1857.02 12.7771 1
1 25 3 976.169 15.8216 1
1 25 4 413.511 13.3883 1
-1 -25 -5 294.005 10.5018 1
-1 -25 -6 1490.85 15.4605 1
1 -26 -6 320.348 10.1385 1
1 -26 -5 928.771 10.6063 1
-1 26 4 862.958 12.4348 1
1 -26 -3 311.419 8.88239 1
1 -26 -2 3099.43 16.4613 1
-1 -26 1 311.769 7.09102 1
-1 -26 0 1041.84 12.5396 1
-1 -26 -1 1921.85 12.6212 1
-1 -26 -2 1615.81 13.8493 1
1 26 3 39.2228 6.59275 1
1 -26 4 1910.29 26.5585 1
-1 -26 -5 239.936 6.76731 1
-1 -27 5 9.55674 7.02415 1
-1 -27 4 1.91241 4.81505 1
1 -27 -3 2716.73 17.3341 1
-1 -27 2 4.17681 4.80368 1
-1 -27 1 3596.03 18.6834 1
-1 -27 0 7.36722 6.20487 1
1 -27 1 105.714 5.34565 1
1 -27 2 91.8887 6.07777 1
1 27 3 1764.64 15.988 1
-1 -27 -4 7.00876 4.32728 1
-1 -28 4 455.936 12.4679 1
-1 28 3 456.83 8.44895 1
1 -28 -2 2883.7 16.8451 1
-1 -28 1 634.855 8.8124 1
1 28 0 528.321 7.38401 1
1 -28 1 874.799 12.3548 1
1 -28 2 1079.81 16.7625 1
1 -28 3 67.1887 6.91648 1
-1 -29 2 2.90059 6.32305 1
1 -29 -1 38.7151 3.95149 1
-1 29 0 1507.52 16.6688 1
1 29 1 59.005 4.087 1
1 -29 2 1103.74 16.2703 1
2 0 -10 1253.37 19.9892 1
2 0 -8 981.597 12.1324 1
2 0 -6 4723.33 25.157 1
-2 0 4 88769.3 243.596 1
2 0 -2 10212.2 49.8119 1
2 0 0 11726 49.5521 1
2 0 2 22458 142.703 1
2 0 4 30.9547 5.94914 1
2 0 6 14260.4 41.9047 1
2 0 8 4134.79 25.181 1
2 0 10 257.157 11.7067 1
2 -1 10 1417.57 29.5807 -2
2 1 -11 1417.57 29.5807 1
2 1 9 367.845 12.0568 -2
2 -1 -10 367.845 12.0568 1
2 -1 8 3762.03 27.5472 -2
2 1 -9 3762.03 27.5472 1
-2 1 -7 5038.57 23.2007 -2
-2 -1 8 5038.57 23.2007 1
-2 -1 -6 260.672 7.6615 -2
-2 1 7 260.672 7.6615 1
2 -1 5 5078.44 23.1572 -2
2 1 -6 5078.44 23.1572 1
-2 1 -4 13990.1 46.7456 -2
-2 -1 5 13990.1 46.7456 1
2 1 3 7625.35 67.3488 -2
2 -1 -4 7625.35 67.3488 1
-2 -1 -2 13324.5 72.3337 -2
-2 1 3 13324.5 72.3337 1
2 -1 1 33983.4 83.8608 -2
2 1 -2 33983.4 83.8608 1
2 -1 0 4484.68 73.1679 -2
2 1 -1 4484.68 73.1679 1
2 -1 -1 5019.09 41.267 -2
2 1 0 5019.09 41.267 1
2 -1 -2 34967.4 92.6632 -2
2 1 1 34967.4 92.6632 1
2 -1 -3 12132.2 66.4163 -2
2 1 2 12132.2 66.4163 1
2 1 -4 8719.91 46.392 -2
2 -1 3 8719.91 46.392 1
2 1 -5 13452.9 36.1859 -2
2 -1 4 13452.9 36.1859 1
2 1 -6 5097.21 20.2046 -2
2 -1 5 5097.21 20.2046 1
2 1 -7 276.539 9.20275 -2
2 -1 6 276.539 9.20275 1
2 -1 -8 5471.05 28.6633 -2
2 1 7 5471.05 28.6633 1
-2 1 9 2996.01 23.4414 -2
-2 -1 -8 2996.01 23.4414 1
2 1 -10 392.868 11.2734 -2
2 -1 9 392.868 11.2734 1
2 1 -11 733.784 18.1413 -2
2 -1 10 733.784 18.1413 1
2 -2 10 566.343 20.6315 -2
2 2 -11 566.343 20.6315 1
2 2 9 2997.87 31.7176 -2
2 -2 -10 2997.87 31.7176 1
-2 -2 -8 1232.16 17.1385 -2
-2 2 9 1232.16 17.1385 1
-2 -2 -7 394.257 8.52837 -2
-2 2 8 394.257 8.52837 1
-2 2 -6 11069.7 35.1114 -2
-2 -2 7 11069.7 35.1114 1
2 -2 5 9000.46 30.3025 -2
2 2 -6 9000.46 30.3025 1
2 2 4 2256.5 17.4649 -2
2 -2 -5 2256.5 17.4649 1
2 -2 3 13467.1 89.4675 -2
2 2 -4 13467.1 89.4675 1
2 2 2 12961.9 57.8246 -2
2 -2 -3 12961.9 57.8246 1
-2 -2 -1 3916.48 28.2424 -2
-2 2 2 3916.48 28.2424 1
2 -2 0 25460.2 67.5972 -2
2 2 -1 25460.2 67.5972 1
2 -2 -1 25455.8 101.408 -2
2 2 0 25455.8 101.408 1
-2 -2 2 4189.57 31.3466 -2
-2 2 -1 4189.57 31.3466 1
2 -2 -3 12633 44.3947 -2
2 2 2 12633 44.3947 1
2 2 -4 14102.1 63.0004 -2
2 -2 3 14102.1 63.0004 1
2 -2 -5 1810.61 15.6655 -2
2 2 4 1810.61 15.6655 1
2 -2 -6 10803.6 29.7273 -2
2 2 5 10803.6 29.7273 1
2 2 -7 8563.3 30.7403 -2
2 -2 6 8563.3 30.7403 1
2 2 -8 289.225 9.20079 -2
2 -2 7 289.225 9.20079 1
2 -2 -9 944.387 14.9744 -2
2 2 8 944.387 14.9744 1
2 2 -10 2804.02 22.5447 -2
2 -2 9 2804.02 22.5447 1
2 2 -11 228.646 13.5237 -2
2 -2 10 228.646 13.5237 1
2 3 10 3387.12 28.4115 -2
2 -3 -11 3387.12 28.4115 1
2 -3 9 53.784 9.09197 -2
2 3 -10 53.784 9.09197 1
2 3 8 4086.75 28.149 -2
2 -3 -9 4086.75 28.149 1
2 -3 7 3140.68 20.9417 -2
2 3 -8 3140.68 20.9417 1
2 3 6 2435.09 17.403 -2
2 -3 -7 2435.09 17.403 1
2 3 5 11362.6 31.5604 -2
2 -3 -6 11362.6 31.5604 1
2 3 4 17094.7 41.7002 -2
2 -3 -5 17094.7 41.7002 1
-2 -3 -3 1711.61 24.3161 -2
-2 3 4 1711.61 24.3161 1
-2 -3 -2 1795.69 21.9376 -2
-2 3 3 1795.69 21.9376 1
-2 -3 -1 53977.6 99.6468 -2
-2 3 2 53977.6 99.6468 1
-2 3 0 11701.2 44.7629 -2
-2 -3 1 11701.2 44.7629 1
2 -3 -1 14102.8 62.9305 -2
2 3 0 14102.8 62.9305 1
2 -3 -2 45938 87.4502 -2
2 3 1 45938 87.4502 1
2 -3 -3 1879.83 19.8656 -2
2 3 2 1879.83 19.8656 1
2 3 -4 1416.64 16.9438 -2
2 -3 3 1416.64 16.9438 1
2 3 -5 19912.8 48.7012 -2
2 -3 4 19912.8 48.7012 1
2 3 -6 8925.14 28.8505 -2
2 -3 5 8925.14 28.8505 1
2 3 -7 2714.68 17.8808 -2
2 -3 6 2714.68 17.8808 1
2 3 -8 2331.37 18.352 -2
2 -3 7 2331.37 18.352 1
2 -3 -9 4269.32 33.9892 -2
2 3 8 4269.32 33.9892 1
2 -3 -10 31.7749 8.45238 -2
2 3 9 31.7749 8.45238 1
2 3 -11 2025.99 25.3309 -2
2 -3 10 2025.99 25.3309 1
2 -4 10 301.354 8.86297 -2
2 4 -11 301.354 8.86297 1
2 4 9 2962.31 22.8485 -2
2 -4 -10 2962.31 22.8485 1
-2 -4 -8 1423.06 17.6761 -2
-2 4 9 1423.06 17.6761 1
2 4 7 885.55 13.383 -2
2 -4 -8 885.55 13.383 1
2 -4 6 6919.72 27.233 -2
2 4 -7 6919.72 27.233 1
2 4 5 7320.17 27.022 -2
2 -4 -6 7320.17 27.022 1
2 -4 4 1806.39 13.8451 -2
2 4 -5 1806.39 13.8451 1
-2 4 -3 23353.4 85.9026 -2
-2 -4 4 23353.4 85.9026 1
2 -4 2 8638.55 47.0858 -2
2 4 -3 8638.55 47.0858 1
2 -4 1 9736.97 45.2935 -2
2 4 -2 9736.97 45.2935 1
2 -4 0 32620.4 78.735 -2
2 4 -1 32620.4 78.735 1
-2 4 1 32068.3 66.0402 -2
-2 -4 0 32068.3 66.0402 1
-2 4 2 8154.18 39.1632 -2
-2 -4 -1 8154.18 39.1632 1
-2 4 3 8911.47 43.6057 -2
-2 -4 -2 8911.47 43.6057 1
2 -4 -4 21916.8 64.6281 -2
2 4 3 21916.8 64.6281 1
2 4 -5 1407.57 13.7988 -2
2 -4 4 1407.57 13.7988 1
2 -4 -6 7465.41 30.0588 -2
2 4 5 7465.41 30.0588 1
2 -4 -7 6188.26 25.9651 -2
2 4 6 6188.26 25.9651 1
2 4 -8 629.848 12.4109 -2
2 -4 7 629.848 12.4109 1
2 4 -9 1393.58 21.1616 -2
2 -4 8 1393.58 21.1616 1
-2 4 10 2444.11 18.2464 -2
-2 -4 -9 2444.11 18.2464 1
2 4 -11 179.448 12.2045 -2
2 -4 10 179.448 12.2045 1
2 5 10 610.212 11.9386 -2
2 -5 -11 610.212 11.9386 1
2 5 9 342.689 11.884 -2
2 -5 -10 342.689 11.884 1
2 5 8 3123.33 29.4007 -2
2 -5 -9 3123.33 29.4007 1
2 5 7 10540.9 47.4446 -2
2 -5 -8 10540.9 47.4446 1
2 5 6 230.7 7.87826 -2
2 -5 -7 230.7 7.87826 1
2 5 5 4270.18 20.0508 -2
2 -5 -6 4270.18 20.0508 1
-2 5 -4 12282.9 32.6057 -2
-2 -5 5 12282.9 32.6057 1
-2 5 -3 10836.9 45.0266 -2
-2 -5 4 10836.9 45.0266 1
-2 -5 -2 12738.5 57.7898 -2
-2 5 3 12738.5 57.7898 1
-2 -5 -1 33306 81.5928 -2
-2 5 2 33306 81.5928 1
-2 5 0 4705.76 34.5649 -2
-2 -5 1 4705.76 34.5649 1
2 -5 -1 4795.95 29.1718 -2
2 5 0 4795.95 29.1718 1
-2 5 2 35997.8 81.0212 -2
-2 -5 -1 35997.8 81.0212 1
-2 5 3 10681.6 50.1349 -2
-2 -5 -2 10681.6 50.1349 1
2 5 -4 11735.2 46.8237 -2
2 -5 3 11735.2 46.8237 1
2 -5 -5 10122.5 41.9422 -2
2 5 4 10122.5 41.9422 1
-2 5 6 4400.13 22.3712 -2
-2 -5 -5 4400.13 22.3712 1
2 5 -7 191.031 8.36426 -2
2 -5 6 191.031 8.36426 1
2 -5 -8 11021.2 40.298 -2
2 5 7 11021.2 40.298 1
2 -5 -9 2184.2 31.1177 -2
2 5 8 2184.2 31.1177 1
2 -5 -10 291.18 10.0518 -2
2 5 9 291.18 10.0518 1
2 -5 -11 324.631 12.8875 -2
2 5 10 324.631 12.8875 1
2 -6 10 95.0238 7.35812 -2
2 6 -11 95.0238 7.35812 1
2 6 9 2074.82 21.7845 -2
2 -6 -10 2074.82 21.7845 1
2 6 8 2450.47 25.6019 -2
2 -6 -9 2450.47 25.6019 1
2 6 7 2752.9 22.4348 -2
2 -6 -8 2752.9 22.4348 1
2 6 6 9279.89 33.1294 -2
2 -6 -7 9279.89 33.1294 1
2 6 5 4461.3 22.4682 -2
2 -6 -6 4461.3 22.4682 1
2 6 4 1386.98 12.2852 -2
2 -6 -5 1386.98 12.2852 1
-2 -6 -3 20360.5 46.4271 -2
-2 6 4 20360.5 46.4271 1
-2 -6 -2 20858.2 74.2247 -2
-2 6 3 20858.2 74.2247 1
-2 -6 -1 3545.84 37.6507 -2
-2 6 2 3545.84 37.6507 1
-2 6 0 30691.5 112.568 -2
-2 -6 1 30691.5 112.568 1
-2 -6 1 31862.6 120.875 -2
-2 6 0 31862.6 120.875 1
2 6 -2 3557.74 30.8872 -2
2 -6 1 3557.74 30.8872 1
2 6 -3 21542.6 74.3994 -2
2 -6 2 21542.6 74.3994 1
2 -6 -4 15800 37.9898 -2
2 6 3 15800 37.9898 1
2 6 -5 1221.35 15.583 -2
2 -6 4 1221.35 15.583 1
-2 6 6 3564.9 30.5389 -2
-2 -6 -5 3564.9 30.5389 1
-2 6 7 9472.17 35.7073 -2
-2 -6 -6 9472.17 35.7073 1
-2 -6 8 1878.15 19.1737 -2
-2 6 -7 1878.15 19.1737 1
2 6 -9 2304.19 22.9691 -2
2 -6 8 2304.19 22.9691 1
-2 6 10 1437.6 16.5963 -2
-2 -6 -9 1437.6 16.5963 1
2 6 -11 80.8503 9.77356 -2
2 -6 10 80.8503 9.77356 1
2 7 10 1575.67 20.8874 -2
2 -7 -11 1575.67 20.8874 1
2 7 9 270.789 10.2955 -2
2 -7 -10 270.789 10.2955 1
2 -7 8 1993.12 27.7494 -2
2 7 -9 1993.12 27.7494 1
2 7 7 3296.85 28.2453 -2
2 -7 -8 3296.85 28.2453 1
2 7 6 316.752 7.96685 -2
2 -7 -7 316.752 7.96685 1
2 -7 5 3302.27 19.6119 -2
2 7 -6 3302.27 19.6119 1
2 7 4 10428.4 31.9289 -2
2 -7 -5 10428.4 31.9289 1
2 -7 3 3101.44 19.6339 -2
2 7 -4 3101.44 19.6339 1
2 -7 2 8794.4 46.2269 -2
2 7 -3 8794.4 46.2269 1
-2 7 -1 27899.5 95.7697 -2
-2 -7 2 27899.5 95.7697 1
2 -7 0 11598.3 78.2934 -2
2 7 -1 11598.3 78.2934 1
-2 7 1 13259.9 93.5595 -2
-2 -7 0 13259.9 93.5595 1
2 -7 -2 26570.9 96.5102 -2
2 7 1 26570.9 96.5102 1
2 7 -3 8098.13 48.1249 -2
2 -7 2 8098.13 48.1249 1
2 -7 -4 3267.71 17.4313 -2
2 7 3 3267.71 17.4313 1
2 -7 -5 10384.7 42.9867 -2
2 7 4 10384.7 42.9867 1
2 7 -6 2507.02 25.6813 -2
2 -7 5 2507.02 25.6813 1
2 7 -7 369.5 10.4543 -2
2 -7 6 369.5 10.4543 1
2 -7 -8 2799.94 26.2744 -2
2 7 7 2799.94 26.2744 1
2 -7 -9 1446.58 21.3717 -2
2 7 8 1446.58 21.3717 1
-2 7 10 210.678 9.773 -2
-2 -7 -9 210.678 9.773 1
2 -7 -11 1315.95 17.6561 -2
2 7 10 1315.95 17.6561 1
-2 8 -10 344.269 13.7553 -2
-2 -8 11 344.269 13.7553 1
2 8 9 3385.65 29.5002 -2
2 -8 -10 3385.65 29.5002 1
2 -8 8 642.113 16.8941 -2
2 8 -9 642.113 16.8941 1
2 8 7 35.5094 6.79473 -2
2 -8 -8 35.5094 6.79473 1
2 8 6 6701.3 29.6876 -2
2 -8 -7 6701.3 29.6876 1
-2 8 -5 17881.2 43.2807 -2
-2 -8 6 17881.2 43.2807 1
2 8 4 4463.26 21.3287 -2
2 -8 -5 4463.26 21.3287 1
-2 -8 -3 12862.8 35.4847 -2
-2 8 4 12862.8 35.4847 1
2 -8 2 13299.6 55.5047 -2
2 8 -3 13299.6 55.5047 1
-2 8 -1 1559.16 29.4164 -2
-2 -8 2 1559.16 29.4164 1
2 8 0 17997.8 89.0068 -2
2 -8 -1 17997.8 89.0068 1
-2 -8 1 14036.1 101.184 -2
-2 8 0 14036.1 101.184 1
-2 8 2 1414.65 29.2696 -2
-2 -8 -1 1414.65 29.2696 1
2 -8 -3 11028.4 39.0096 -2
2 8 2 11028.4 39.0096 1
2 -8 -4 14084.3 37.1574 -2
2 8 3 14084.3 37.1574 1
-2 8 5 3836.85 26.2872 -2
-2 -8 -4 3836.85 26.2872 1
2 8 -6 19465.9 52.731 -2
2 -8 5 19465.9 52.731 1
-2 -8 7 5055.94 24.4177 -2
-2 8 -6 5055.94 24.4177 1
2 -8 -8 52.5271 9.9511 -2
2 8 7 52.5271 9.9511 1
2 -8 -9 360.434 13.3601 -2
2 8 8 360.434 13.3601 1
2 8 -10 3033.91 23.7646 -2
2 -8 9 3033.91 23.7646 1
2 -8 -11 237.736 13.695 -2
2 8 10 237.736 13.695 1
2 -9 10 874.665 17.568 -2
2 9 -11 874.665 17.568 1
2 9 9 188.365 10.3441 -2
2 -9 -10 188.365 10.3441 1
2 -9 8 1573.59 29.1512 -2
2 9 -9 1573.59 29.1512 1
2 -9 7 3840.43 25.2922 -2
2 9 -8 3840.43 25.2922 1
2 9 6 1066.28 12.6792 -2
2 -9 -7 1066.28 12.6792 1
-2 9 -5 8909.57 36.8103 -2
-2 -9 6 8909.57 36.8103 1
2 9 4 16831.6 41.3659 -2
2 -9 -5 16831.6 41.3659 1
2 9 3 1854.09 13.8919 -2
2 -9 -4 1854.09 13.8919 1
2 9 2 7026.16 36.821 -2
2 -9 -3 7026.16 36.821 1
2 -9 1 26651.3 114.084 -2
2 9 -2 26651.3 114.084 1
2 -9 0 14607.6 90.5861 -2
2 9 -1 14607.6 90.5861 1
2 -9 -1 17093.2 101.113 -2
2 9 0 17093.2 101.113 1
2 9 -2 24500.4 117.117 -2
2 -9 1 24500.4 117.117 1
-2 -9 3 6835.3 31.3587 -2
-2 9 -2 6835.3 31.3587 1
2 -9 -4 2005.76 13.5072 -2
2 9 3 2005.76 13.5072 1
-2 -9 5 18148.8 56.416 -2
-2 9 -4 18148.8 56.416 1
2 9 -6 7135.79 32.7277 -2
2 -9 5 7135.79 32.7277 1
2 9 -7 1135.49 14.2822 -2
2 -9 6 1135.49 14.2822 1
2 -9 -8 3074.72 23.8027 -2
2 9 7 3074.72 23.8027 1
2 9 -9 1259.54 19.3053 -2
2 -9 8 1259.54 19.3053 1
2 9 -10 131.797 9.96922 -2
2 -9 9 131.797 9.96922 1
2 -9 -11 869.053 18.2382 -2
2 9 10 869.053 18.2382 1
-2 10 -10 106.69 9.38213 -2
-2 -10 11 106.69 9.38213 1
2 10 9 1511.87 20.973 -2
2 -10 -10 1511.87 20.973 1
-2 -10 -8 1855.65 29.4076 -2
-2 10 9 1855.65 29.4076 1
2 -10 7 1253.39 17.144 -2
2 10 -8 1253.39 17.144 1
-2 -10 -6 5727.67 26.6647 -2
-2 10 7 5727.67 26.6647 1
2 10 5 2698.99 21.3613 -2
2 -10 -6 2698.99 21.3613 1
-2 -10 -4 1622.31 15.113 -2
-2 10 5 1622.31 15.113 1
2 -10 3 17115.1 49.2584 -2
2 10 -4 17115.1 49.2584 1
2 10 2 18952 61.3456 -2
2 -10 -3 18952 61.3456 1
-2 10 -1 3941.71 30.6401 -2
-2 -10 2 3941.71 30.6401 1
-2 10 0 10434 91.9319 -2
-2 -10 1 10434 91.9319 1
2 10 -1 11187.4 63.2615 -2
2 -10 0 11187.4 63.2615 1
2 -10 -2 3337.52 19.5327 -2
2 10 1 3337.52 19.5327 1
2 10 -3 21384.8 53.4528 -2
2 -10 2 21384.8 53.4528 1
2 -10 -4 14073.7 36.3597 -2
2 10 3 14073.7 36.3597 1
2 10 -5 1707.71 19.3333 -2
2 -10 4 1707.71 19.3333 1
2 -10 -6 2279.7 21.2398 -2
2 10 5 2279.7 21.2398 1
2 10 -7 5807.61 28.6885 -2
2 -10 6 5807.61 28.6885 1
2 -10 -8 872.592 14.2179 -2
2 10 7 872.592 14.2179 1
2 10 -9 1656.81 21.18 -2
2 -10 8 1656.81 21.18 1
2 -10 -10 1285.42 17.8718 -2
2 10 9 1285.42 17.8718 1
2 -10 -11 115.834 9.17777 -2
2 10 10 115.834 9.17777 1
2 11 9 117.137 9.86903 -2
2 -11 -10 117.137 9.86903 1
-2 -11 -8 2903.67 63.6763 -2
-2 11 9 2903.67 63.6763 1
2 -11 7 6821.22 40.2966 -2
2 11 -8 6821.22 40.2966 1
-2 11 -6 263.873 7.92713 -2
-2 -11 7 263.873 7.92713 1
2 11 5 917.723 17.3887 -2
2 -11 -6 917.723 17.3887 1
-2 11 -4 9665.64 43.2429 -2
-2 -11 5 9665.64 43.2429 1
2 11 3 10803.2 55.313 -2
2 -11 -4 10803.2 55.313 1
2 11 2 11484.1 47.1829 -2
2 -11 -3 11484.1 47.1829 1
2 11 1 14948.7 47.885 -2
2 -11 -2 14948.7 47.885 1
2 -11 0 4986.84 28.6946 -2
2 11 -1 4986.84 28.6946 1
2 -11 -1 4632.64 26.227 -2
2 11 0 4632.64 26.227 1
2 11 -2 17534.8 52.1159 -2
2 -11 1 17534.8 52.1159 1
2 11 -3 9362.92 32.0934 -2
2 -11 2 9362.92 32.0934 1
2 -11 -4 11903.9 34.6841 -2
2 11 3 11903.9 34.6841 1
2 11 -5 8290.5 39.8934 -2
2 -11 4 8290.5 39.8934 1
2 11 -6 850.911 12.7439 -2
2 -11 5 850.911 12.7439 1
-2 11 7 245.965 8.73068 -2
-2 -11 -6 245.965 8.73068 1
2 -11 -8 7519.74 39.2506 -2
2 11 7 7519.74 39.2506 1
2 11 -9 1541.64 20.0271 -2
2 -11 8 1541.64 20.0271 1
2 -11 -10 215.089 11.0003 -2
2 11 9 215.089 11.0003 1
-2 12 -9 1635.13 14.2309 -2
-2 -12 10 1635.13 14.2309 1
-2 12 -8 1834.16 31.3458 -2
-2 -12 9 1834.16 31.3458 1
2 12 7 518.338 17.1981 -2
2 -12 -8 518.338 17.1981 1
2 12 6 5068.02 40.0213 -2
2 -12 -7 5068.02 40.0213 1
-2 12 -5 3424.31 35.1443 -2
-2 -12 6 3424.31 35.1443 1
2 -12 4 1146.86 18.8567 -2
2 12 -5 1146.86 18.8567 1
2 12 3 11985.4 49.5786 -2
2 -12 -4 11985.4 49.5786 1
2 12 2 9143.26 44.1974 -2
2 -12 -3 9143.26 44.1974 1
2 -12 1 1129.54 14.0633 -2
2 12 -2 1129.54 14.0633 1
2 -12 0 11685.5 47.5785 -2
2 12 -1 11685.5 47.5785 1
2 -12 -1 11792.3 43.0167 -2
2 12 0 11792.3 43.0167 1
2 -12 -2 937.823 14.4692 -2
2 12 1 937.823 14.4692 1
2 12 -3 10720.2 36.7577 -2
2 -12 2 10720.2 36.7577 1
2 -12 -4 10038.9 34.2679 -2
2 12 3 10038.9 34.2679 1
2 12 -5 1089.47 17.2425 -2
2 -12 4 1089.47 17.2425 1
2 -12 -6 3055.6 21.9724 -2
2 12 5 3055.6 21.9724 1
-2 12 7 4811.44 30.8379 -2
-2 -12 -6 4811.44 30.8379 1
2 -12 -8 458.206 10.4187 -2
2 12 7 458.206 10.4187 1
2 12 -9 2519.33 23.3694 -2
2 -12 8 2519.33 23.3694 1
2 -12 -10 1634.95 20.165 -2
2 12 9 1634.95 20.165 1
2 13 9 70.8292 5.98353 -2
2 -13 -10 70.8292 5.98353 1
-2 13 -8 992.448 30.4942 -2
-2 -13 9 992.448 30.4942 1
2 13 7 2796.73 27.3346 -2
2 -13 -8 2796.73 27.3346 1
2 13 6 272.206 11.7449 -2
2 -13 -7 272.206 11.7449 1
2 13 5 7274.09 41.7672 -2
2 -13 -6 7274.09 41.7672 1
-2 13 -4 7774.51 35.8434 -2
-2 -13 5 7774.51 35.8434 1
2 13 3 465.413 14.1743 -2
2 -13 -4 465.413 14.1743 1
-2 -13 -2 2783.62 24.6578 -2
-2 13 3 2783.62 24.6578 1
2 -13 1 17812.1 68.7802 -2
2 13 -2 17812.1 68.7802 1
-2 -13 0 12397.7 42.4718 -2
-2 13 1 12397.7 42.4718 1
-2 -13 1 15084.5 68.8773 -2
-2 13 0 15084.5 68.8773 1
2 13 -2 15199 50.8928 -2
2 -13 1 15199 50.8928 1
2 -13 -3 2896.5 21.9948 -2
2 13 2 2896.5 21.9948 1
2 -13 -4 496.196 11.0658 -2
2 13 3 496.196 11.0658 1
2 13 -5 9088.23 39.9217 -2
2 -13 4 9088.23 39.9217 1
2 -13 -6 5416.79 30.9079 -2
2 13 5 5416.79 30.9079 1
-2 13 7 374.778 11.237 -2
-2 -13 -6 374.778 11.237 1
2 13 -8 2185.29 18.0102 -2
2 -13 7 2185.29 18.0102 1
2 -13 -9 1291.7 19.1673 -2
2 13 8 1291.7 19.1673 1
2 -13 -10 65.8141 6.77006 -2
2 13 9 65.8141 6.77006 1
2 14 9 2015.39 20.6608 -2
2 -14 -10 2015.39 20.6608 1
2 -14 8 426.398 9.71345 -2
2 14 -9 426.398 9.71345 1
2 14 7 380.593 12.4767 -2
2 -14 -8 380.593 12.4767 1
2 14 6 6634.81 47.383 -2
2 -14 -7 6634.81 47.383 1
2 -14 5 8860.59 45.6838 -2
2 14 -6 8860.59 45.6838 1
-2 -14 -4 2006.48 19.6132 -2
-2 14 5 2006.48 19.6132 1
2 -14 3 7901.06 39.7611 -2
2 14 -4 7901.06 39.7611 1
2 -14 2 6282.95 32.3449 -2
2 14 -3 6282.95 32.3449 1
2 -14 1 608.289 15.8773 -2
2 14 -2 608.289 15.8773 1
2 -14 0 14793.5 55.2593 -2
2 14 -1 14793.5 55.2593 1
-2 -14 1 13074 57.2864 -2
-2 14 0 13074 57.2864 1
2 14 -2 656.377 15.0129 -2
2 -14 1 656.377 15.0129 1
2 -14 -3 5376.24 33.6076 -2
2 14 2 5376.24 33.6076 1
2 -14 -4 8515.24 36.4693 -2
2 14 3 8515.24 36.4693 1
-2 14 5 1472.12 20.4813 -2
-2 -14 -4 1472.12 20.4813 1
2 -14 -6 10019.5 47.1742 -2
2 14 5 10019.5 47.1742 1
-2 14 7 5222.4 36.085 -2
-2 -14 -6 5222.4 36.085 1
-2 14 8 331.797 9.0551 -2
-2 -14 -7 331.797 9.0551 1
2 -14 -9 317.455 11.0649 -2
2 14 8 317.455 11.0649 1
-2 14 10 1803.34 22.853 -2
-2 -14 -9 1803.34 22.853 1
2 15 9 45.7815 8.145 -2
2 -15 -10 45.7815 8.145 1
-2 15 -8 1414.48 15.4767 -2
-2 -15 9 1414.48 15.4767 1
2 -15 7 2622.78 18.7894 -2
2 15 -8 2622.78 18.7894 1
2 15 6 407.725 13.8107 -2
2 -15 -7 407.725 13.8107 1
-2 15 -5 2570.87 27.8471 -2
-2 -15 6 2570.87 27.8471 1
2 -15 4 5336.81 25.8027 -2
2 15 -5 5336.81 25.8027 1
2 15 3 1509.55 19.1828 -2
2 -15 -4 1509.55 19.1828 1
2 -15 2 7292 41.3326 -2
2 15 -3 7292 41.3326 1
2 -15 1 14761.3 55.5573 -2
2 15 -2 14761.3 55.5573 1
2 -15 0 3199.48 25.1521 -2
2 15 -1 3199.48 25.1521 1
-2 15 1 3582.9 34.1213 -2
-2 -15 0 3582.9 34.1213 1
2 -15 -2 15808.6 51.4044 -2
2 15 1 15808.6 51.4044 1
2 15 -3 5982.85 36.4296 -2
2 -15 2 5982.85 36.4296 1
2 -15 -4 1685.52 16.8731 -2
2 15 3 1685.52 16.8731 1
2 15 -5 4403.61 36.4662 -2
2 -15 4 4403.61 36.4662 1
2 -15 -6 2160.38 30.5426 -2
2 15 5 2160.38 30.5426 1
-2 15 7 468.459 14.2698 -2
-2 -15 -6 468.459 14.2698 1
-2 15 8 2611.09 22.443 -2
-2 -15 -7 2611.09 22.443 1
2 -15 -9 1041.98 15.2513 -2
2 15 8 1041.98 15.2513 1
-2 -15 10 74.7656 10.4774 -2
-2 15 -9 74.7656 10.4774 1
-2 16 -8 938.731 13.0526 -2
-2 -16 9 938.731 13.0526 1
2 -16 7 967.599 15.0857 -2
2 16 -8 967.599 15.0857 1
-2 16 -6 4142.72 26.3927 -2
-2 -16 7 4142.72 26.3927 1
2 16 5 1927.91 20.5836 -2
2 -16 -6 1927.91 20.5836 1
2 16 4 30.6686 6.56063 -2
2 -16 -5 30.6686 6.56063 1
2 16 3 10088.3 39.8354 -2
2 -16 -4 10088.3 39.8354 1
2 16 2 6112.58 38.2653 -2
2 -16 -3 6112.58 38.2653 1
2 16 1 1166.9 17.7201 -2
2 -16 -2 1166.9 17.7201 1
2 -16 0 8611.29 43.4381 -2
2 16 -1 8611.29 43.4381 1
-2 16 1 9832.19 53.4184 -2
-2 -16 0 9832.19 53.4184 1
2 -16 -2 980.792 16.9134 -2
2 16 1 980.792 16.9134 1
2 -16 -3 7042.78 39.3531 -2
2 16 2 7042.78 39.3531 1
2 -16 -4 7102.4 30.4327 -2
2 16 3 7102.4 30.4327 1
2 16 -5 43.1467 12.7549 -2
2 -16 4 43.1467 12.7549 1
2 -16 -6 1263.02 23.6652 -2
2 16 5 1263.02 23.6652 1
-2 16 7 4132.9 33.53 -2
-2 -16 -6 4132.9 33.53 1
2 -16 -8 717.723 12.4217 -2
2 16 7 717.723 12.4217 1
2 -16 -9 1189.51 14.5346 -2
2 16 8 1189.51 14.5346 1
2 -17 8 1222.6 13.128 -2
2 17 -9 1222.6 13.128 1
2 -17 7 3185.91 22.3013 -2
2 17 -8 3185.91 22.3013 1
-2 17 -6 68.8548 7.624 -2
-2 -17 7 68.8548 7.624 1
-2 17 -5 2069.03 18.0611 -2
-2 -17 6 2069.03 18.0611 1
2 17 4 6741.29 38.4197 -2
2 -17 -5 6741.29 38.4197 1
2 -17 3 3628.09 27.0714 -2
2 17 -4 3628.09 27.0714 1
2 17 2 3841.87 30.9352 -2
2 -17 -3 3841.87 30.9352 1
2 17 1 11794 58.8849 -2
2 -17 -2 11794 58.8849 1
-2 -17 0 1378.75 22.0164 -2
-2 17 1 1378.75 22.0164 1
2 -17 -1 1515.55 23.5579 -2
2 17 0 1515.55 23.5579 1
2 -17 -2 11769 52.2612 -2
2 17 1 11769 52.2612 1
2 -17 -3 2854.74 22.9326 -2
2 17 2 2854.74 22.9326 1
2 -17 -4 4005.31 39.6874 -2
2 17 3 4005.31 39.6874 1
2 -17 -5 4986.03 65.3917 -2
2 17 4 4986.03 65.3917 1
2 -17 -6 1790.87 36.7891 -2
2 17 5 1790.87 36.7891 1
-2 17 7 54.1591 8.03871 -2
-2 -17 -6 54.1591 8.03871 1
-2 17 8 2994.61 20.6875 -2
-2 -17 -7 2994.61 20.6875 1
2 -17 -9 903.251 14.5194 -2
2 17 8 903.251 14.5194 1
2 -18 7 204.648 7.31168 -2
2 18 -8 204.648 7.31168 1
-2 18 -6 3142.12 21.0588 -2
-2 -18 7 3142.12 21.0588 1
2 18 5 2387.52 17.5923 -2
2 -18 -6 2387.52 17.5923 1
2 -18 4 727.134 17.1691 -2
2 18 -5 727.134 17.1691 1
2 18 3 9216.23 50.475 -2
2 -18 -4 9216.23 50.475 1
2 18 2 2849.47 31.194 -2
2 -18 -3 2849.47 31.194 1
2 18 1 1319.41 24.6634 -2
2 -18 -2 1319.41 24.6634 1
-2 18 0 8612.69 49.5672 -2
-2 -18 1 8612.69 49.5672 1
-2 18 1 8013.82 49.0319 -2
-2 -18 0 8013.82 49.0319 1
2 -18 -2 1123.67 18.4928 -2
2 18 1 1123.67 18.4928 1
2 -18 -3 2834.57 25.496 -2
2 18 2 2834.57 25.496 1
2 -18 -4 8939.17 65.105 -2
2 18 3 8939.17 65.105 1
2 -18 -5 440.137 17.4168 -2
2 18 4 440.137 17.4168 1
2 -18 -6 2852.61 43.4719 -2
2 18 5 2852.61 43.4719 1
-2 18 7 2619.78 24.0127 -2
-2 -18 -6 2619.78 24.0127 1
-2 18 8 152.981 6.14539 -2
-2 -18 -7 152.981 6.14539 1
-2 -18 9 316.69 14.1637 -2
-2 18 -8 316.69 14.1637 1
2 19 7 901.069 17.4483 -2
2 -19 -8 901.069 17.4483 1
-2 19 -6 777.748 10.8187 -2
-2 -19 7 777.748 10.8187 1
2 19 5 3957.21 25.4858 -2
2 -19 -6 3957.21 25.4858 1
2 19 4 6513.72 57.253 -2
2 -19 -5 6513.72 57.253 1
2 19 3 35.6442 10.7342 -2
2 -19 -4 35.6442 10.7342 1
2 19 2 2328.3 39.5299 -2
2 -19 -3 2328.3 39.5299 1
-2 -19 -1 13626.5 63.5261 -2
-2 19 2 13626.5 63.5261 1
-2 19 0 3173.24 33.6296 -2
-2 -19 1 3173.24 33.6296 1
2 -19 -1 4025.69 29.497 -2
2 19 0 4025.69 29.497 1
-2 19 2 10664.7 58.0245 -2
-2 -19 -1 10664.7 58.0245 1
2 -19 -3 2041.66 30.2977 -2
2 19 2 2041.66 30.2977 1
2 -19 -4 27.855 13.3169 -2
2 19 3 27.855 13.3169 1
2 -19 -5 7343.65 69.512 -2
2 19 4 7343.65 69.512 1
-2 19 6 3362.62 30.5047 -2
-2 -19 -5 3362.62 30.5047 1
-2 19 7 889.388 13.8786 -2
-2 -19 -6 889.388 13.8786 1
2 -19 -8 695.693 11.2753 -2
2 19 7 695.693 11.2753 1
2 20 7 236.04 14.4005 -2
2 -20 -8 236.04 14.4005 1
2 20 6 2541.29 21.8102 -2
2 -20 -7 2541.29 21.8102 1
2 20 5 2121.44 25.5576 -2
2 -20 -6 2121.44 25.5576 1
-2 20 -4 248.659 16.7044 -2
-2 -20 5 248.659 16.7044 1
2 20 3 5061.3 37.6262 -2
2 -20 -4 5061.3 37.6262 1
2 20 2 5373.09 41.5234 -2
2 -20 -3 5373.09 41.5234 1
2 20 1 841.346 22.5895 -2
2 -20 -2 841.346 22.5895 1
2 20 0 7900.61 66.3258 -2
2 -20 -1 7900.61 66.3258 1
2 -20 -1 6983.91 47.2219 -2
2 20 0 6983.91 47.2219 1
2 -20 -2 966.059 22.9914 -2
2 20 1 966.059 22.9914 1
2 -20 -3 4697.14 41.5383 -2
2 20 2 4697.14 41.5383 1
2 -20 -4 4322.35 42.7468 -2
2 20 3 4322.35 42.7468 1
-2 20 6 2259.49 23.8866 -2
-2 -20 -5 2259.49 23.8866 1
-2 20 7 2364.94 15.5492 -2
-2 -20 -6 2364.94 15.5492 1
2 -20 -8 175.038 6.89811 -2
2 20 7 175.038 6.89811 1
2 21 6 16.1183 6.53465 -2
2 -21 -7 16.1183 6.53465 1
2 21 5 690.391 19.4241 -2
2 -21 -6 690.391 19.4241 1
2 21 4 1825.22 31.2451 -2
2 -21 -5 1825.22 31.2451 1
2 21 3 1862.61 23.2273 -2
2 -21 -4 1862.61 23.2273 1
2 21 2 1110.84 20.8944 -2
2 -21 -3 1110.84 20.8944 1
2 21 1 8173.78 55.3582 -2
2 -21 -2 8173.78 55.3582 1
2 -21 0 945.095 18.8975 -2
2 21 -1 945.095 18.8975 1
2 -21 -1 874.049 19.0514 -2
2 21 0 874.049 19.0514 1
2 -21 -2 8949.51 49.9682 -2
2 21 1 8949.51 49.9682 1
2 -21 -3 732.919 25.2522 -2
2 21 2 732.919 25.2522 1
2 -21 -4 1993.77 28.4875 -2
2 21 3 1993.77 28.4875 1
2 -21 -5 1760.88 33.0982 -2
2 21 4 1760.88 33.0982 1
-2 21 6 634.52 11.0593 -2
-2 -21 -5 634.52 11.0593 1
-2 21 7 11.5184 4.61211 -2
-2 -21 -6 11.5184 4.61211 1
2 22 6 2556.44 35.3591 -2
2 -22 -7 2556.44 35.3591 1
2 22 5 667.14 16.5692 -2
2 -22 -6 667.14 16.5692 1
2 22 4 20.3354 10.3304 -2
2 -22 -5 20.3354 10.3304 1
2 22 3 7284.33 46.3312 -2
2 -22 -4 7284.33 46.3312 1
2 22 2 4834.66 35.8857 -2
2 -22 -3 4834.66 35.8857 1
2 22 1 501.317 17.3633 -2
2 -22 -2 501.317 17.3633 1
2 22 0 3731.16 33.6588 -2
2 -22 -1 3731.16 33.6588 1
2 22 -1 4004.26 38.3947 -2
2 -22 0 4004.26 38.3947 1
2 -22 -2 402.536 14.0199 -2
2 22 1 402.536 14.0199 1
2 -22 -3 5000.94 33.1224 -2
2 22 2 5000.94 33.1224 1
2 -22 -4 5582.72 34.2132 -2
2 22 3 5582.72 34.2132 1
2 -22 -5 64.576 11.614 -2
2 22 4 64.576 11.614 1
-2 22 6 539.953 10.1343 -2
-2 -22 -5 539.953 10.1343 1
2 -22 -7 2918.63 21.1026 -2
2 22 6 2918.63 21.1026 1
2 23 5 926.499 19.5711 -2
2 -23 -6 926.499 19.5711 1
2 23 4 2721.88 25.7585 -2
2 -23 -5 2721.88 25.7585 1
2 23 3 800.312 16.7362 -2
2 -23 -4 800.312 16.7362 1
2 23 2 2304.32 23.8383 -2
2 -23 -3 2304.32 23.8383 1
2 23 1 6337.19 32.8128 -2
2 -23 -2 6337.19 32.8128 1
2 23 0 1559.51 21.7237 -2
2 -23 -1 1559.51 21.7237 1
2 -23 -1 1753.97 24.8236 -2
2 23 0 1753.97 24.8236 1
2 -23 -2 5783.53 31.8619 -2
2 23 1 5783.53 31.8619 1
2 -23 -3 1998.02 20.5828 -2
2 23 2 1998.02 20.5828 1
2 -23 -4 803.581 17.493 -2
2 23 3 803.581 17.493 1
2 -23 -5 2878.96 32.5296 -2
2 23 4 2878.96 32.5296 1
-2 23 6 850.085 12.1841 -2
-2 -23 -5 850.085 12.1841 1
2 -24 5 2405.98 24.3811 -2
2 24 -6 2405.98 24.3811 1
2 24 4 467.167 13.8518 -2
2 -24 -5 467.167 13.8518 1
2 24 3 2549.21 26.7225 -2
2 -24 -4 2549.21 26.7225 1
2 24 2 1037.19 12.9162 -2
2 -24 -3 1037.19 12.9162 1
2 24 1 198.298 8.53617 -2
2 -24 -2 198.298 8.53617 1
2 -24 0 4915.48 32.3412 -2
2 24 -1 4915.48 32.3412 1
2 24 -1 4167.93 23.3457 -2
2 -24 0 4167.93 23.3457 1
2 -24 -2 195.388 10.9421 -2
2 24 1 195.388 10.9421 1
2 -24 -3 863.836 13.2179 -2
2 24 2 863.836 13.2179 1
2 -24 -4 2724.44 21.4343 -2
2 24 3 2724.44 21.4343 1
-2 24 5 354.326 8.18818 -2
-2 -24 -4 354.326 8.18818 1
2 24 -6 1951.45 26.151 -2
2 -24 5 1951.45 26.151 1
2 -25 4 2639.89 15.5372 -2
2 25 -5 2639.89 15.5372 1
2 -25 3 452.246 7.91245 -2
2 25 -4 452.246 7.91245 1
2 25 2 622.165 9.97375 -2
2 -25 -3 622.165 9.97375 1
2 25 1 3868.72 20.0844 -2
2 -25 -2 3868.72 20.0844 1
2 -25 0 1096.19 14.1027 -2
2 25 -1 1096.19 14.1027 1
2 -25 -1 1199.75 12.8682 -2
2 25 0 1199.75 12.8682 1
2 -25 -2 3508.23 19.4891 -2
2 25 1 3508.23 19.4891 1
2 -25 -3 700.342 16.9278 -2
2 25 2 700.342 16.9278 1
2 25 -4 477.941 8.25523 -2
2 -25 3 477.941 8.25523 1
2 -25 -5 2485.63 30.9073 -2
2 25 4 2485.63 30.9073 1
2 -26 3 1769.03 16.6044 -2
2 26 -4 1769.03 16.6044 1
2 -26 2 1639.86 16.0472 -2
2 26 -3 1639.86 16.0472 1
2 26 1 433.444 7.8715 -2
2 -26 -2 433.444 7.8715 1
2 -26 0 2325.76 15.7334 -2
2 26 -1 2325.76 15.7334 1
2 26 -1 2402.28 15.6333 -2
2 -26 0 2402.28 15.6333 1
2 26 -2 337.898 9.30752 -2
2 -26 1 337.898 9.30752 1
2 -26 -3 1793.02 20.3785 -2
2 26 2 1793.02 20.3785 1
2 26 -4 1478.06 12.2779 -2
2 -26 3 1478.06 12.2779 1
2 27 2 1212.2 22.5382 -2
2 -27 -3 1212.2 22.5382 1
2 27 1 1502.52 13.2199 -2
2 -27 -2 1502.52 13.2199 1
2 27 0 169.904 10.646 -2
2 -27 -1 169.904 10.646 1
2 27 -1 157.717 7.35736 -2
2 -27 0 157.717 7.35736 1
2 27 -2 1774.54 13.8313 -2
2 -27 1 1774.54 13.8313 1
2 27 -3 1052.51 19.419 -2
2 -27 2 1052.51 19.419 1
3 0 -10 145.362 11.9723 1
3 0 -8 1245.26 14.7847 1
3 0 -6 15541.3 55.046 1
3 0 -4 2651.28 15.4709 1
3 0 -2 6459.54 19.4335 1
3 0 0 12548.1 32.8707 1
3 0 2 34.1714 3.75135 1
-3 0 -4 12409.8 40.7049 1
3 0 6 4803.86 34.1833 1
3 0 8 395.213 11.096 1
3 1 -10 169.564 12.2825 1
3 1 -9 19.5667 6.42221 1
3 -1 -8 711.156 8.71233 1
3 -1 -7 2320.34 14.5997 1
3 -1 -6 207.86 7.16621 1
-3 -1 5 2213.29 13.2016 1
3 -1 -4 2677.8 10.5479 1
3 1 -3 679.095 5.80562 1
3 1 -2 1646.37 8.46097 1
3 1 -1 11770.7 25.2589 1
3 1 0 2947.33 11.1111 1
3 -1 1 3784.12 9.95257 1
3 -1 2 4644.1 9.45977 1
3 1 3 2665.66 8.57837 1
3 -1 4 288.261 6.2382 1
-3 1 -5 4751.78 19.4256 1
3 -1 6 950.865 15.1814 1
3 1 7 336.157 10.963 1
3 1 8 663.262 10.4251 1
3 1 9 646.816 16.4283 1
3 2 -10 141.468 11.0562 1
3 -2 -9 2364.66 19.0655 1
3 2 -8 17.0751 5.2951 1
3 -2 -7 521.051 9.30225 1
3 -2 -6 721.944 9.04674 1
3 2 -5 2771.43 12.9116 1
3 2 -4 64.2175 4.10318 1
3 2 -3 8887.66 18.2724 1
3 -2 -2 1273.52 8.42837 1
3 2 -1 885.298 6.85835 1
3 2 0 2479.64 10.2166 1
3 -2 1 8220.67 14.4891 1
3 2 2 168.59 3.39297 1
-3 -2 -3 7642.72 15.1869 1
3 2 4 507.196 6.5845 1
3 -2 5 85.2939 5.54035 1
3 -2 6 271.834 10.8293 1
3 -2 7 2781.09 15.8789 1
3 2 8 3.54632 5.83536 1
3 2 9 367.183 13.6962 1
3 -3 -10 824.69 12.8834 1
3 -3 -9 4.56615 4.97052 1
3 3 -8 2284.11 14.6915 1
3 -3 -7 277.461 7.28028 1
3 3 -6 601.601 8.02803 1
3 3 -5 12.7174 3.66731 1
3 3 -4 15681.4 28.003 1
3 3 -3 20.5948 3.64022 1
3 3 -2 5914.88 13.3089 1
3 3 -1 193.152 4.12243 1
3 3 0 1795.36 7.476 1
3 3 1 50.3527 3.3955 1
3 -3 2 12519.8 15.9454 1
3 3 3 190.47 4.31893 1
3 3 4 1402.7 8.63924 1
3 3 5 92.8455 5.93992 1
3 -3 6 4985.64 29.1282 1
3 -3 7 4.42945 5.50858 1
3 3 8 2571.15 24.9729 1
3 -3 9 8.14381 5.79298 1
3 4 -10 184.801 6.23591 1
-3 4 9 795.401 8.59033 1
3 -4 -8 418.09 8.23567 1
3 -4 -7 375.458 9.93662 1
3 -4 -6 3163.64 16.7561 1
3 -4 -5 753.056 7.36474 1
3 4 -4 2080.98 12.0372 1
3 4 -3 7309.14 17.1606 1
3 4 -2 5193.13 11.953 1
3 -4 -1 146.95 3.78473 1
3 4 0 3580.91 9.50518 1
3 4 1 7634.95 15.1021 1
3 4 2 134.018 4.04479 1
3 4 3 4965.24 14.8093 1
3 -4 4 2791.78 12.8725 1
3 4 5 22.4841 5.2519 1
3 -4 6 1237.38 15.1474 1
3 -4 7 2084.94 17.38 1
3 4 8 35.482 7.78343 1
3 -4 9 63.1505 9.40612 1
-3 -5 10 10.9077 4.13655 1
3 5 -9 15.4048 4.18737 1
3 -5 -8 136.952 7.05209 1
3 -5 -7 3011.92 19.7329 1
3 5 -6 46.0209 6.22908 1
3 -5 -5 3160.35 13.435 1
3 5 -4 385.071 6.90925 1
3 5 -3 965.515 6.83563 1
3 5 -2 513.903 5.34593 1
3 5 -1 15589.7 21.7873 1
3 5 0 38.2012 3.21807 1
3 5 1 6164.05 12.7939 1
3 -5 2 585.729 5.74418 1
3 5 3 3751.33 13.2427 1
3 5 4 10.5268 4.84086 1
3 5 5 11072.9 30.3802 1
3 -5 6 0.70587 6.99168 1
3 -5 7 261.318 8.34174 1
3 -5 8 15.5512 8.43693 1
3 6 -10 476.196 8.55925 1
3 -6 -9 246.268 5.51823 1
3 -6 -8 1023.6 16.9566 1
3 6 -7 237.936 8.69228 1
3 -6 -6 5045.86 21.3146 1
3 -6 -5 357.25 6.37586 1
3 6 -4 213.731 5.51222 1
3 6 -3 1565.66 8.44526 1
3 -6 -2 10364 18.9376 1
3 -6 -1 830.169 6.21883 1
3 6 0 11858.9 17.0913 1
3 -6 1 1010.71 5.78882 1
3 6 2 109.241 4.16123 1
3 -6 3 780.345 7.97238 1
3 6 4 8418.4 29.5641 1
3 -6 5 101.829 6.5039 1
3 -6 6 1850.37 17.0145 1
3 6 7 163.47 6.2376 1
3 -6 8 140.652 6.25651 1
3 7 -10 309.813 7.93503 1
-3 -7 9 5.67234 3.74754 1
3 7 -8 1084.94 19.0561 1
3 -7 -7 678.636 9.89237 1
3 -7 -6 203.874 6.62064 1
3 -7 -5 1347.2 9.88373 1
3 7 -4 6285.4 19.8412 1
3 7 -3 262.381 4.59384 1
3 -7 -2 4527.41 12.5026 1
3 7 -1 6089.77 15.0757 1
3 -7 0 2485.74 8.79462 1
3 7 1 1151.63 7.02475 1
3 7 2 5453.72 17.6363 1
3 -7 3 101.629 5.3631 1
3 -7 4 201.069 7.72707 1
3 -7 5 1141.97 12.3257 1
3 -7 6 1052.69 12.5376 1
3 -7 7 58.9397 5.46365 1
3 7 8 1665.81 13.3083 1
3 8 -10 7.02243 4.24482 1
3 8 -9 1418.68 11.043 1
3 -8 -8 7.01673 9.21719 1
3 -8 -7 732.271 11.5582 1
3 -8 -6 26.0208 4.79187 1
3 8 -5 3289.98 13.5568 1
3 8 -4 241.358 5.15669 1
3 -8 -3 6748.22 15.8997 1
3 -8 -2 34.5562 3.83587 1
3 -8 -1 18.5377 3.74637 1
3 8 0 50.3161 3.63115 1
3 8 1 9682.6 17.6219 1
3 -8 2 144.107 5.78355 1
3 -8 3 13118.5 30.7974 1
3 -8 4 554.556 10.8529 1
3 -8 5 17.8872 6.58659 1
3 -8 6 -1.85109 6.29415 1
3 -8 7 3887.91 17.2933 1
3 8 8 8.12463 4.79931 1
3 -9 -10 302.137 9.9315 1
3 9 -9 10.6007 5.60251 1
3 9 -8 2047.57 16.4158 1
3 -9 -7 488.141 7.63961 1
3 -9 -6 54.8725 5.17318 1
3 9 -5 1028.36 9.0351 1
3 9 -4 5956.46 17.5576 1
3 -9 -3 297.764 5.12443 1
3 -9 -2 5097.43 16.2361 1
3 -9 -1 2641.28 10.196 1
3 -9 0 1968.64 8.42389 1
3 9 1 1047.36 7.67245 1
3 -9 2 11964.8 25.4364 1
3 -9 3 616.283 9.53509 1
3 -9 4 865.096 12.1258 1
3 -9 5 1018.88 10.7856 1
3 -9 6 1614.95 14.184 1
3 9 7 27.1688 5.50424 1
3 9 8 1406.69 16.0748 1
3 10 -9 164.751 5.37468 1
3 10 -8 586.496 8.4994 1
3 -10 -7 77.7782 5.78336 1
3 -10 -6 4330.3 17.2262 1
3 10 -5 383.988 6.99112 1
3 -10 -4 852.558 9.68441 1
3 -10 -3 1192.24 8.96298 1
3 -10 -2 3824.39 14.6811 1
3 -10 -1 27.6837 3.98983 1
3 -10 0 9550.31 17.3145 1
3 10 1 1228.38 9.94862 1
3 10 2 651.588 7.78262 1
3 -10 3 463.014 8.07704 1
3 -10 4 5138.56 24.9252 1
3 -10 5 50.5784 5.74386 1
3 -10 6 1532.82 15.0678 1
3 10 7 851.404 16.3985 1
3 10 8 189.753 7.2197 1
3 11 -9 1.37335 3.42329 1
3 -11 -8 62.7634 5.87904 1
3 11 -7 2544.51 14.3629 1
3 -11 -6 15.8393 5.89589 1
3 11 -5 2725.99 17.4125 1
3 11 -4 44.7232 5.32354 1
3 -11 -3 1824.81 12.395 1
3 -11 -2 29.7712 4.68531 1
3 -11 -1 8093.12 18.7944 1
3 11 0 275.123 5.75832 1
3 11 1 5029.72 21.0603 1
3 11 2 979.06 9.56286 1
3 -11 3 1209.3 11.1573 1
3 -11 4 193.048 8.64276 1
3 -11 5 6812.09 23.8945 1
3 11 6 16.9746 6.57389 1
3 11 7 182.703 9.41175 1
3 11 8 2.25916 3.89757 1
3 12 -9 298.388 5.66626 1
3 12 -8 494.006 8.39878 1
3 -12 -7 89.7273 5.14856 1
3 -12 -6 2574.08 18.6092 1
3 12 -5 681.744 11.8105 1
3 -12 -4 308.375 6.99524 1
3 -12 -3 3021.34 15.9795 1
3 -12 -2 2659.14 14.7624 1
3 12 -1 8.23052 4.61382 1
3 -12 0 4151.21 15.0872 1
3 -12 1 1774.62 13.6796 1
3 12 2 716.404 8.7797 1
3 -12 3 1116.45 12.1694 1
3 -12 4 4303.04 35.5589 1
3 12 5 28.7844 6.01565 1
3 12 6 2483.84 17.9239 1
3 12 7 1317.07 17.6381 1
3 13 -9 5.78783 3.67187 1
3 13 -8 1663.52 12.1438 1
3 13 -7 110.987 4.8555 1
3 -13 -6 92.31 6.29429 1
3 13 -5 324.442 9.43717 1
3 13 -4 5198.28 20.1271 1
3 -13 -3 31.5869 5.54466 1
3 -13 -2 4646.68 17.9175 1
3 -13 -1 355.729 6.79494 1
3 -13 0 1158.11 11.5762 1
3 13 1 246.926 7.01326 1
3 13 2 5646.16 19.6401 1
3 13 3 606.103 9.80492 1
3 13 4 332.884 12.0277 1
3 13 5 310.925 7.71275 1
3 13 6 1685.81 14.2803 1
3 13 7 18.5558 6.04566 1
3 14 -8 56.7913 5.12315 1
3 -14 -7 414.486 6.27149 1
3 -14 -6 282.038 7.67241 1
3 14 -5 1566.46 13.5927 1
3 -14 -4 44.258 5.70592 1
3 -14 -3 3960.72 18.0222 1
3 -14 -2 295.37 6.83721 1
3 -14 -1 104.869 5.9529 1
3 -14 0 360.451 7.93119 1
3 14 1 5145.57 20.3115 1
3 14 2 93.6253 6.4293 1
3 14 3 7621.03 29.708 1
3 14 4 1599.26 19.9845 1
3 14 5 245.719 6.93636 1
3 14 6 127.71 8.10934 1
3 14 7 2853.61 21.0703 1
3 15 -8 283.824 6.03061 1
3 -15 -7 819.677 8.23202 1
3 15 -6 47.0667 5.44315 1
3 15 -5 1703.93 14.8221 1
3 -15 -4 2085.02 13.7331 1
3 -15 -3 18.4359 6.02838 1
3 -15 -2 1276.22 11.2371 1
3 -15 -1 3690.66 20.9327 1
3 -15 0 925.967 10.4354 1
3 15 1 662.351 8.57894 1
3 15 2 1492.89 12.3258 1
3 15 3 962.483 11.7882 1
3 15 4 274.231 9.5391 1
3 15 5 2238.25 15.7509 1
3 15 6 540.473 9.77764 1
3 15 7 126.24 5.51466 1
-3 16 8 312.394 9.10212 1
3 -16 -7 8.98261 3.62007 1
3 -16 -6 3043.11 15.8878 1
3 16 -5 9.8352 5.49899 1
3 16 -4 261.961 8.96143 1
3 -16 -3 11.8675 5.71136 1
3 -16 -2 3955.46 20.5069 1
3 -16 -1 6.91056 7.3931 1
3 -16 0 3504.98 17.2851 1
3 16 1 87.8325 5.82708 1
3 16 2 24.837 5.47693 1
3 16 3 115.928 7.1897 1
3 16 4 4431.44 31.6068 1
3 16 5 26.5185 4.9167 1
3 16 6 969.729 18.7229 1
3 -17 -7 989.456 16.9733 1
3 17 -6 16.3169 5.04941 1
3 17 -5 1009.84 13.8416 1
3 17 -4 946.2 12.1014 1
3 -17 -3 272.361 6.76479 1
3 -17 -2 307.539 9.22237 1
3 -17 -1 4433.45 21.4741 1
3 17 0 112.413 6.49434 1
3 17 1 2255.86 13.7976 1
3 17 2 903.142 9.47485 1
3 17 3 1117.39 10.865 1
3 17 4 11.702 7.53303 1
3 17 5 3005.18 15.2341 1
3 17 6 102.787 8.72939 1
3 18 -7 155.973 7.55387 1
3 -18 -6 506.686 7.52972 1
3 18 -5 423.716 9.40317 1
3 18 -4 313.289 11.0004 1
3 -18 -3 1955.23 14.6977 1
3 -18 -2 1131.16 11.4634 1
3 18 -1 32.1524 5.73027 1
3 18 0 1104.75 10.5127 1
3 18 1 4511.09 17.7966 1
3 -18 2 4.96019 4.80854 1
3 18 3 2111.54 14.7186 1
3 18 4 833.495 10.324 1
3 18 5 5.45384 4.21937 1
3 18 6 223.957 7.3128 1
-3 19 7 122.039 9.16675 1
3 19 -6 17.5957 3.72415 1
3 -19 -5 220.332 6.2922 1
3 19 -4 4256.53 34.1872 1
3 -19 -3 77.5056 6.42066 1
3 -19 -2 1533.74 11.3998 1
3 19 -1 6.042 5.1568 1
3 19 0 912.661 9.66852 1
3 19 1 7.33866 4.65507 1
3 -19 2 4928.13 19.6353 1
3 19 3 49.6919 6.33742 1
3 19 4 591.808 7.38998 1
3 19 5 81.1394 4.17429 1
3 20 -6 629.457 9.1234 1
3 -20 -5 826.741 11.1267 1
3 -20 -4 49.3788 10.1421 1
3 -20 -3 1975.57 12.9982 1
3 -20 -2 1140.88 9.28106 1
3 20 -1 240.195 7.11872 1
3 20 0 1452.58 9.93893 1
3 20 1 1811.68 13.1215 1
3 20 2 39.411 4.36504 1
3 20 3 1736.94 15.5718 1
3 20 4 754.405 6.5749 1
3 20 5 -1.70857 5.15874 1
3 -21 -5 230.057 6.85987 1
3 21 -4 256.941 9.08343 1
3 -21 -3 355.644 7.11074 1
3 -21 -2 134.526 5.31432 1
3 21 -1 3427.82 21.9224 1
3 21 0 90.3475 4.87778 1
3 -21 1 944.756 9.20003 1
3 21 2 357.638 6.76941 1
3 21 3 595.939 12.3161 1
3 21 4 6.03917 3.72543 1
3 -22 -5 119.3 5.89288 1
3 22 -4 108.149 7.30262 1
3 -22 -3 157.2 6.2029 1
3 -22 -2 1619.63 10.3297 1
3 22 -1 11.4699 5.06835 1
3 22 0 2498.62 15.7809 1
3 -22 1 74.0272 5.0762 1
3 22 2 1.13419 4.12121 1
3 22 3 102.49 6.23558 1
3 23 -4 728.798 9.83448 1
3 23 -3 76.5981 4.90314 1
3 -23 -2 551.577 6.52151 1
3 23 -1 1544.44 11.5005 1
3 23 0 602.055 9.20723 1
3 -23 1 307.766 6.88705 1
3 23 2 1330.99 14.652 1
3 24 -3 949.369 17.0207 1
3 24 -2 11.0732 5.25716 1
3 24 -1 57.2247 5.71576 1
3 24 0 32.0529 3.68158 1
3 -24 1 984.879 14.9957 1
4 0 6 3275.77 30.274 -2
4 0 -8 3275.77 30.274 1
4 0 4 3721.03 31.1138 -2
4 0 -6 3721.03 31.1138 1
4 0 2 9417.48 40.8924 -2
4 0 -4 9417.48 40.8924 1
4 0 0 5139.37 28.5155 -2
4 0 -2 5139.37 28.5155 1
4 0 -2 4574.37 23.9219 -2
4 0 0 4574.37 23.9219 1
4 0 -4 9482.12 52.6727 -2
4 0 2 9482.12 52.6727 1
4 0 -6 3085.26 38.4394 -2
4 0 4 3085.26 38.4394 1
4 0 -8 2190.44 31.9589 -2
4 0 6 2190.44 31.9589 1
4 -1 6 1295.82 15.1793 -2
4 1 -8 1295.82 15.1793 1
4 -1 5 813.469 12.793 -2
4 1 -7 813.469 12.793 1
4 -1 4 1291.67 15.8623 -2
4 1 -6 1291.67 15.8623 1
4 -1 3 3690.59 26.4079 -2
4 1 -5 3690.59 26.4079 1
4 1 2 657.467 10.083 -2
4 -1 -4 657.467 10.083 1
4 1 1 5606.44 22.1708 -2
4 -1 -3 5606.44 22.1708 1
4 1 0 2854.1 15.6352 -2
4 -1 -2 2854.1 15.6352 1
4 -1 -1 2541.63 17.7349 -2
4 1 -1 2541.63 17.7349 1
4 -1 -2 3076.33 15.7012 -2
4 1 0 3076.33 15.7012 1
4 1 -3 5279.6 17.7707 -2
4 -1 1 5279.6 17.7707 1
4 1 -4 601.894 12.5692 -2
4 -1 2 601.894 12.5692 1
4 1 -5 3632.9 22.544 -2
4 -1 3 3632.9 22.544 1
4 1 -6 1008.89 20.3119 -2
4 -1 4 1008.89 20.3119 1
4 1 -7 553.091 17.3459 -2
4 -1 5 553.091 17.3459 1
4 1 -8 910.93 15.8407 -2
4 -1 6 910.93 15.8407 1
4 -2 6 212.586 7.25013 -2
4 2 -8 212.586 7.25013 1
4 2 5 3788.07 23.6751 -2
4 -2 -7 3788.07 23.6751 1
4 -2 4 211.314 8.84323 -2
4 2 -6 211.314 8.84323 1
4 2 3 2635.22 19.0177 -2
4 -2 -5 2635.22 19.0177 1
4 2 2 848.141 10.2429 -2
4 -2 -4 848.141 10.2429 1
4 2 1 3516.62 17.9227 -2
4 -2 -3 3516.62 17.9227 1
4 2 0 802.969 9.41517 -2
4 -2 -2 802.969 9.41517 1
4 -2 -1 7535.12 28.5414 -2
4 2 -1 7535.12 28.5414 1
4 2 -2 703.056 9.18345 -2
4 -2 0 703.056 9.18345 1
4 2 -3 3919.17 17.3082 -2
4 -2 1 3919.17 17.3082 1
4 2 -4 819.039 10.7739 -2
4 -2 2 819.039 10.7739 1
4 -2 -5 1938.49 19.8078 -2
4 2 3 1938.49 19.8078 1
4 2 -6 197.847 13.8882 -2
4 -2 4 197.847 13.8882 1
4 2 -7 3213.98 47.2674 -2
4 -2 5 3213.98 47.2674 1
4 2 -8 123.387 9.39281 -2
4 -2 6 123.387 9.39281 1
4 3 6 2492.94 31.1097 -2
4 -3 -8 2492.94 31.1097 1
4 -3 5 13.5964 7.25544 -2
4 3 -7 13.5964 7.25544 1
4 -3 4 7315.44 33.0853 -2
4 3 -6 7315.44 33.0853 1
4 3 3 128.732 8.42161 -2
4 -3 -5 128.732 8.42161 1
4 3 2 2349.44 15.1516 -2
4 -3 -4 2349.44 15.1516 1
4 3 1 191.777 6.24051 -2
4 -3 -3 191.777 6.24051 1
4 3 0 6600.76 21.5664 -2
4 -3 -2 6600.76 21.5664 1
4 3 -1 52.3933 6.44056 -2
4 -3 -1 52.3933 6.44056 1
4 3 -2 7513.06 24.0115 -2
4 -3 0 7513.06 24.0115 1
4 3 -3 181.046 6.90019 -2
4 -3 1 181.046 6.90019 1
4 3 -4 1928.22 14.7561 -2
4 -3 2 1928.22 14.7561 1
4 3 -5 140.255 11.0042 -2
4 -3 3 140.255 11.0042 1
4 3 -6 6409.59 42.0596 -2
4 -3 4 6409.59 42.0596 1
4 3 -7 49.1621 15.6086 -2
4 -3 5 49.1621 15.6086 1
4 3 -8 2390.56 22.1195 -2
4 -3 6 2390.56 22.1195 1
4 4 6 782.702 13.2465 -2
4 -4 -8 782.702 13.2465 1
4 -4 5 2235.32 16.5721 -2
4 4 -7 2235.32 16.5721 1
4 4 4 1324.55 15.9097 -2
4 -4 -6 1324.55 15.9097 1
4 -4 3 1815.83 18.8127 -2
4 4 -5 1815.83 18.8127 1
4 4 2 3109.05 18.8802 -2
4 -4 -4 3109.05 18.8802 1
4 4 1 2371.02 14.258 -2
4 -4 -3 2371.02 14.258 1
4 4 0 1521.5 11.4517 -2
4 -4 -2 1521.5 11.4517 1
4 4 -1 5974.78 21.2707 -2
4 -4 -1 5974.78 21.2707 1
4 -4 -2 1354.78 12.9894 -2
4 4 0 1354.78 12.9894 1
4 4 -3 2675.57 16.4121 -2
4 -4 1 2675.57 16.4121 1
4 4 -4 2908.73 20.0419 -2
4 -4 2 2908.73 20.0419 1
4 -4 -5 1296.87 20.6366 -2
4 4 3 1296.87 20.6366 1
4 4 -6 1166.18 20.9247 -2
4 -4 4 1166.18 20.9247 1
4 4 -7 1993.51 37.8338 -2
4 -4 5 1993.51 37.8338 1
4 4 -8 412.994 11.667 -2
4 -4 6 412.994 11.667 1
4 -5 6 17.6348 6.09052 -2
4 5 -8 17.6348 6.09052 1
4 -5 5 876.079 12.241 -2
4 5 -7 876.079 12.241 1
4 -5 4 182.643 9.603 -2
4 5 -6 182.643 9.603 1
4 5 3 6839.05 42.8713 -2
4 -5 -5 6839.05 42.8713 1
4 5 2 112.553 7.09289 -2
4 -5 -4 112.553 7.09289 1
4 5 1 7185.73 23.0327 -2
4 -5 -3 7185.73 23.0327 1
4 5 0 216.229 7.28402 -2
4 -5 -2 216.229 7.28402 1
4 -5 -1 4013.73 18.0833 -2
4 5 -1 4013.73 18.0833 1
4 5 -2 236.258 7.90387 -2
4 -5 0 236.258 7.90387 1
4 5 -3 6756.74 27.5207 -2
4 -5 1 6756.74 27.5207 1
4 5 -4 73.6385 8.79249 -2
4 -5 2 73.6385 8.79249 1
4 -5 -5 7128.29 41.0453 -2
4 5 3 7128.29 41.0453 1
4 5 -6 120.729 14.3278 -2
4 -5 4 120.729 14.3278 1
4 5 -7 632.45 17.6341 -2
4 -5 5 632.45 17.6341 1
4 5 -8 27.2914 7.22651 -2
4 -5 6 27.2914 7.22651 1
4 -6 6 1368.69 12.6126 -2
4 6 -8 1368.69 12.6126 1
4 -6 5 303.659 8.54007 -2
4 6 -7 303.659 8.54007 1
4 6 4 1049.11 15.5582 -2
4 -6 -6 1049.11 15.5582 1
4 6 3 402.157 14.0772 -2
4 -6 -5 402.157 14.0772 1
4 6 2 7826.38 29.2201 -2
4 -6 -4 7826.38 29.2201 1
4 6 1 697.774 9.73516 -2
4 -6 -3 697.774 9.73516 1
4 6 0 4476.01 19.2603 -2
4 -6 -2 4476.01 19.2603 1
4 -6 -1 595.107 9.90174 -2
4 6 -1 595.107 9.90174 1
4 -6 -2 4191.8 17.8836 -2
4 6 0 4191.8 17.8836 1
4 6 -3 707.678 12.8915 -2
4 -6 1 707.678 12.8915 1
4 6 -4 7669.04 35.0699 -2
4 -6 2 7669.04 35.0699 1
4 -6 -5 266.504 12.4242 -2
4 6 3 266.504 12.4242 1
4 6 -6 968.497 22.6855 -2
4 -6 4 968.497 22.6855 1
4 6 -7 255.454 13.3318 -2
4 -6 5 255.454 13.3318 1
4 -6 -8 808.695 17.5518 -2
4 6 6 808.695 17.5518 1
4 -7 6 1677.99 24.6807 -2
4 7 -8 1677.99 24.6807 1
4 -7 5 305.192 7.05767 -2
4 7 -7 305.192 7.05767 1
4 7 4 3113.16 22.7195 -2
4 -7 -6 3113.16 22.7195 1
4 -7 3 745.507 17.2963 -2
4 7 -5 745.507 17.2963 1
4 7 2 1329.74 14.0497 -2
4 -7 -4 1329.74 14.0497 1
4 7 1 2113.55 13.956 -2
4 -7 -3 2113.55 13.956 1
4 7 0 3154.78 16.3471 -2
4 -7 -2 3154.78 16.3471 1
4 -7 -1 667.274 10.5705 -2
4 7 -1 667.274 10.5705 1
4 -7 -2 3393.07 18.9654 -2
4 7 0 3393.07 18.9654 1
4 7 -3 1910.91 18.6384 -2
4 -7 1 1910.91 18.6384 1
4 7 -4 969.523 17.5639 -2
4 -7 2 969.523 17.5639 1
4 -7 -5 777.92 15.9127 -2
4 7 3 777.92 15.9127 1
4 7 -6 2008.1 29.2971 -2
4 -7 4 2008.1 29.2971 1
4 7 -7 228.329 12.7574 -2
4 -7 5 228.329 12.7574 1
4 -7 -8 1198.61 18.2405 -2
4 7 6 1198.61 18.2405 1
4 -8 5 3853.39 20.9799 -2
4 8 -7 3853.39 20.9799 1
4 8 4 48.661 9.1743 -2
4 -8 -6 48.661 9.1743 1
4 -8 3 1897.56 20.3805 -2
4 8 -5 1897.56 20.3805 1
4 8 2 238.05 8.34245 -2
4 -8 -4 238.05 8.34245 1
4 8 1 4844.65 24.6585 -2
4 -8 -3 4844.65 24.6585 1
4 -8 0 29.2917 6.88788 -2
4 8 -2 29.2917 6.88788 1
4 -8 -1 8944.62 30.2634 -2
4 8 -1 8944.62 30.2634 1
4 8 -2 15.4705 8.1184 -2
4 -8 0 15.4705 8.1184 1
4 8 -3 5696.58 28.6615 -2
4 -8 1 5696.58 28.6615 1
4 8 -4 243.682 11.4489 -2
4 -8 2 243.682 11.4489 1
4 -8 -5 1234.19 21.1452 -2
4 8 3 1234.19 21.1452 1
4 8 -6 20.5363 9.29291 -2
4 -8 4 20.5363 9.29291 1
4 -8 -7 3931.02 44.7695 -2
4 8 5 3931.02 44.7695 1
4 -9 5 225.942 8.66954 -2
4 9 -7 225.942 8.66954 1
4 9 4 2769.09 17.5135 -2
4 -9 -6 2769.09 17.5135 1
4 -9 3 663.74 13.2382 -2
4 9 -5 663.74 13.2382 1
4 9 2 1528.19 14.8467 -2
4 -9 -4 1528.19 14.8467 1
4 9 1 1153.38 13.4658 -2
4 -9 -3 1153.38 13.4658 1
4 9 0 5877.68 25.0928 -2
4 -9 -2 5877.68 25.0928 1
4 -9 -1 814.509 11.9265 -2
4 9 -1 814.509 11.9265 1
4 -9 -2 6223.89 33.7049 -2
4 9 0 6223.89 33.7049 1
4 -9 -3 1057.76 13.7538 -2
4 9 1 1057.76 13.7538 1
4 9 -4 1326.75 20.6892 -2
4 -9 2 1326.75 20.6892 1
4 9 -5 620.595 13.9342 -2
4 -9 3 620.595 13.9342 1
4 9 -6 2180.38 22.9048 -2
4 -9 4 2180.38 22.9048 1
4 -9 -7 154.33 14.9458 -2
4 9 5 154.33 14.9458 1
4 10 5 914.576 11.7367 -2
4 -10 -7 914.576 11.7367 1
4 10 4 1180.85 13.0411 -2
4 -10 -6 1180.85 13.0411 1
4 -10 3 421.47 11.5272 -2
4 10 -5 421.47 11.5272 1
4 10 2 4251.63 21.4253 -2
4 -10 -4 4251.63 21.4253 1
4 10 1 240.039 9.40359 -2
4 -10 -3 240.039 9.40359 1
4 10 0 3404.94 21.9895 -2
4 -10 -2 3404.94 21.9895 1
4 -10 -1 969.941 16.8619 -2
4 10 -1 969.941 16.8619 1
4 -10 -2 3089.78 24.1838 -2
4 10 0 3089.78 24.1838 1
4 -10 -3 262.139 13.6666 -2
4 10 1 262.139 13.6666 1
4 -10 -4 3564.54 45.6342 -2
4 10 2 3564.54 45.6342 1
4 -10 -5 258.751 11.8665 -2
4 10 3 258.751 11.8665 1
4 -10 -6 916.816 18.6627 -2
4 10 4 916.816 18.6627 1
4 -10 -7 754.286 19.7026 -2
4 10 5 754.286 19.7026 1
4 -11 5 779.393 9.716 -2
4 11 -7 779.393 9.716 1
4 11 4 41.0895 6.14967 -2
4 -11 -6 41.0895 6.14967 1
4 -11 3 4682.64 23.1629 -2
4 11 -5 4682.64 23.1629 1
4 11 2 128.12 8.88768 -2
4 -11 -4 128.12 8.88768 1
4 11 1 4187.97 24.7102 -2
4 -11 -3 4187.97 24.7102 1
4 -11 0 469.35 12.3766 -2
4 11 -2 469.35 12.3766 1
4 -11 -1 2759.77 22.5148 -2
4 11 -1 2759.77 22.5148 1
4 -11 -2 477.016 13.3442 -2
4 11 0 477.016 13.3442 1
4 -11 -3 3144.98 55.566 -2
4 11 1 3144.98 55.566 1
4 -11 -4 89.2611 14.5642 -2
4 11 2 89.2611 14.5642 1
4 -11 -5 3634.8 22.528 -2
4 11 3 3634.8 22.528 1
4 -11 -6 37.1075 9.53989 -2
4 11 4 37.1075 9.53989 1
4 -11 -7 428.564 14.6102 -2
4 11 5 428.564 14.6102 1
4 -12 4 1151.17 17.1453 -2
4 12 -6 1151.17 17.1453 1
4 12 3 1010.47 13.7505 -2
4 -12 -5 1010.47 13.7505 1
4 -12 2 3652.44 28.3328 -2
4 12 -4 3652.44 28.3328 1
4 12 1 443.364 11.6373 -2
4 -12 -3 443.364 11.6373 1
4 -12 0 1981.89 22.2794 -2
4 12 -2 1981.89 22.2794 1
4 -12 -1 1473.96 18.0534 -2
4 12 -1 1473.96 18.0534 1
4 -12 -2 1579.13 17.9583 -2
4 12 0 1579.13 17.9583 1
4 -12 -3 479.51 16.01 -2
4 12 1 479.51 16.01 1
4 -12 -4 3082.17 29.4926 -2
4 12 2 3082.17 29.4926 1
4 -12 -5 572.996 12.7751 -2
4 12 3 572.996 12.7751 1
4 -12 -6 1104.04 17.3961 -2
4 12 4 1104.04 17.3961 1
4 13 4 3277.62 17.45 -2
4 -13 -6 3277.62 17.45 1
4 13 3 286.091 8.39706 -2
4 -13 -5 286.091 8.39706 1
4 -13 2 1477.71 17.688 -2
4 13 -4 1477.71 17.688 1
4 13 1 285.137 9.40381 -2
4 -13 -3 285.137 9.40381 1
4 -13 0 3328.37 34.549 -2
4 13 -2 3328.37 34.549 1
4 -13 -1 228.83 9.94191 -2
4 13 -1 228.83 9.94191 1
4 -13 -2 3128.38 28.2682 -2
4 13 0 3128.38 28.2682 1
4 -13 -3 241.341 14.9105 -2
4 13 1 241.341 14.9105 1
4 -13 -4 1047.69 17.5318 -2
4 13 2 1047.69 17.5318 1
4 -13 -5 218.684 12.7351 -2
4 13 3 218.684 12.7351 1
4 -13 -6 2466.34 30.5457 -2
4 13 4 2466.34 30.5457 1
4 14 4 81.0282 9.79896 -2
4 -14 -6 81.0282 9.79896 1
4 14 3 1460.79 13.0688 -2
4 -14 -5 1460.79 13.0688 1
4 -14 2 1020.61 13.0416 -2
4 14 -4 1020.61 13.0416 1
4 14 1 3448.33 24.9313 -2
4 -14 -3 3448.33 24.9313 1
4 -14 0 156.687 10.0002 -2
4 14 -2 156.687 10.0002 1
4 -14 -1 4374.21 31.2801 -2
4 14 -1 4374.21 31.2801 1
4 -14 -2 113.163 11.3735 -2
4 14 0 113.163 11.3735 1
4 -14 -3 3782.63 35.9749 -2
4 14 1 3782.63 35.9749 1
4 -14 -4 804.779 18.0506 -2
4 14 2 804.779 18.0506 1
4 -14 -5 748.318 15.99 -2
4 14 3 748.318 15.99 1
4 -14 -6 101.188 9.98861 -2
4 14 4 101.188 9.98861 1
4 15 3 1440.95 15.0405 -2
4 -15 -5 1440.95 15.0405 1
4 -15 2 452.456 11.9598 -2
4 15 -4 452.456 11.9598 1
4 -15 1 1719.94 14.6558 -2
4 15 -3 1719.94 14.6558 1
4 -15 0 1203.63 22.8086 -2
4 15 -2 1203.63 22.8086 1
4 -15 -1 352.578 13.5698 -2
4 15 -1 352.578 13.5698 1
4 -15 -2 1082.8 18.1078 -2
4 15 0 1082.8 18.1078 1
4 -15 -3 1673.33 32.5757 -2
4 15 1 1673.33 32.5757 1
4 -15 -4 279.02 11.5974 -2
4 15 2 279.02 11.5974 1
4 -15 -5 1165.06 16.5401 -2
4 15 3 1165.06 16.5401 1
4 16 3 24.4854 8.06292 -2
4 -16 -5 24.4854 8.06292 1
4 -16 2 4242.4 38.6471 -2
4 16 -4 4242.4 38.6471 1
4 16 1 57.1445 6.923 -2
4 -16 -3 57.1445 6.923 1
4 16 0 1565.97 22.4125 -2
4 -16 -2 1565.97 22.4125 1
4 -16 -1 35.1305 8.8794 -2
4 16 -1 35.1305 8.8794 1
4 -16 -2 1209.38 17.2859 -2
4 16 0 1209.38 17.2859 1
4 -16 -3 49.239 10.3178 -2
4 16 1 49.239 10.3178 1
4 -16 -4 1835.41 26.4606 -2
4 16 2 1835.41 26.4606 1
4 -16 -5 22.7312 8.04953 -2
4 16 3 22.7312 8.04953 1
4 17 2 90.0756 10.5332 -2
4 -17 -4 90.0756 10.5332 1
4 17 1 2235.54 18.2278 -2
4 -17 -3 2235.54 18.2278 1
4 17 0 387.54 12.251 -2
4 -17 -2 387.54 12.251 1
4 -17 -1 1430.34 16.9736 -2
4 17 -1 1430.34 16.9736 1
4 -17 -2 422.335 10.6749 -2
4 17 0 422.335 10.6749 1
4 -17 -3 1732.32 19.7459 -2
4 17 1 1732.32 19.7459 1
4 -17 -4 57.9355 7.52027 -2
4 17 2 57.9355 7.52027 1
4 -18 1 872.23 21.1642 -2
4 18 -3 872.23 21.1642 1
4 18 0 316.646 9.48414 -2
4 -18 -2 316.646 9.48414 1
4 -18 -1 3076.01 19.1901 -2
4 18 -1 3076.01 19.1901 1
4 -18 -2 340.108 9.18481 -2
4 18 0 340.108 9.18481 1
4 -18 -3 723.888 19.0166 -2
4 18 1 723.888 19.0166 1
4 -19 -1 14.3181 6.68387 -2
4 19 -1 14.3181 6.68387 1
5 0 -4 479.153 24.0155 1
5 1 -4 103.217 11.8435 1
5 1 -3 148.476 14.2763 1
5 2 -3 698.633 19.6306 1
5 3 -3 3.65021 12.1255 1
5 3 -2 1413.58 24.5313 1
5 3 -1 20.9698 12.1937 1
5 4 -3 394.416 9.28326 1
5 4 -2 32.1216 12.2712 1
5 4 -1 509.105 16.7263 1
5 5 -3 221.828 7.67604 1
5 5 -2 31.6993 13.3351 1
5 5 -1 403.423 14.528 1
5 5 0 3.21798 9.28252 1
5 6 -2 3.7891 7.24954 1
5 6 -1 86.6606 10.4275 1
5 6 0 812.323 12.6875 1
5 7 -1 9.6676 8.04406 1
-1 0 10 31.7102 6.01783 2
1 0 -8 3945.24 25.6201 2
1 0 -6 2185.68 38.9448 2
1 0 -4 12209.9 43.5246 2
1 0 -2 292966 148.85 2
1 0 0 26740.6 42.7583 2
-1 0 -2 11322.3 47.5929 2
-1 0 -4 14615.3 72.7327 2
1 0 6 38.2408 4.92374 2
1 0 8 7818.76 43.4207 2
1 0 10 3026.52 28.021 2
1 -1 -12 -9.45542 9.60851 2
-1 -1 11 74.3071 5.12184 2
-1 -1 10 799.182 10.0424 2
-1 -1 9 1587 10.9043 2
1 -1 -8 338.041 6.4208 2
1 1 -7 7702.4 22.9583 2
1 1 -6 1272.15 17.846 2
1 -1 -5 157.936 7.76268 2
1 1 -4 7011.87 24.4043 2
-1 1 3 12242 30.8257 2
1 1 -2 907.701 7.83812 2
1 -1 -1 9135.32 13.6321 2
1 -1 0 15581.6 52.4732 2
-1 1 -1 81.9673 5.80177 2
-1 1 -2 5053.14 20.4052 2
-1 1 -3 31164.7 57.5347 2
-1 1 -4 5337.77 28.2649 2
-1 1 -5 5843.83 42.247 2
1 -1 6 5372.08 17.7142 2
1 -1 7 1552.61 10.9448 2
1 -1 8 80.9375 6.28433 2
1 -1 9 2746.48 20.8124 2
1 1 10 550.071 13.9423 2
1 -1 11 213.353 10.403 2
1 -2 -12 27.9563 9.96016 2
-1 -2 11 1086.17 14.4336 2
-1 -2 10 10.2086 4.23371 2
1 2 -9 1672.65 11.7323 2
-1 -2 8 2033.3 12.3947 2
1 2 -7 2304.73 12.5282 2
1 2 -6 534.786 13.0977 2
1 2 -5 21012.2 67.0406 2
1 2 -4 158.16 7.61144 2
-1 2 3 4255.97 25.3019 2
1 2 -2 1333.43 11.1554 2
1 -2 -1 8078.86 25.4862 2
1 -2 0 1771.48 33.4645 2
-1 -2 -1 52088.5 65.4374 2
-1 2 -2 1212.63 8.91527 2
-1 2 -3 6839.44 27.3771 2
-1 2 -4 7482.86 35.2486 2
-1 2 -5 7833.24 48.4963 2
1 -2 6 106.02 4.02148 2
1 2 7 7235.54 21.5028 2
-1 2 -8 396.157 7.47784 2
1 2 9 35.4075 7.28121 2
1 2 10 177.671 9.72528 2
1 -2 11 1028.17 22.7135 2
1 -3 -12 99.6099 10.2063 2
-1 3 11 4.88153 4.24565 2
1 3 -10 2212.02 17.2181 2
1 -3 -9 60.4837 4.45491 2
-1 -3 8 199.027 5.32867 2
-1 -3 7 144.141 4.03382 2
1 3 -6 5632.63 37.1778 2
1 -3 -5 285.534 9.63772 2
1 3 -4 30192.1 60.3867 2
1 3 -3 547.591 8.52589 2
1 3 -2 1634.97 8.68044 2
1 3 -1 545.779 6.89763 2
1 3 0 105049 67.2145 2
-1 -3 -1 1292.9 12.3056 2
1 3 2 16630.2 33.8794 2
-1 3 -3 223.239 7.37067 2
-1 3 -4 913.104 13.5339 2
-1 3 -5 190.01 9.75503 2
1 -3 6 12432.7 27.7946 2
1 -3 7 150.536 4.84335 2
1 -3 8 1859.64 14.5036 2
1 -3 9 40.0026 6.61892 2
1 3 10 2096.66 18.9091 2
1 -3 11 6.63776 4.71559 2
-1 -4 12 232.36 8.33092 2
-1 4 11 427.421 8.52837 2
-1 4 10 40.8498 5.48347 2
-1 -4 9 1323.63 10.1219 2
-1 -4 8 2615.8 13.1522 2
-1 -4 7 547.9 6.47724 2
-1 -4 6 2551.51 17.3762 2
1 4 -5 9143.11 38.5768 2
1 4 -4 5128.09 24.5553 2
1 4 -3 3567.21 19.5707 2
1 4 -2 20999.1 33.9599 2
1 4 -1 3448.28 14.9001 2
1 4 0 20872 24.2678 2
-1 -4 -1 38723.6 78.7565 2
-1 -4 -2 14507.2 42.5247 2
-1 4 -3 889.476 10.9182 2
-1 4 -4 7009.29 29.8404 2
-1 4 -5 9159.32 43.1818 2
1 -4 6 15.8865 3.81513 2
1 -4 7 3800.26 16.4744 2
1 -4 8 2005.46 13.9351 2
1 4 9 6.59946 5.76158 2
1 4 10 642.239 10.4719 2
1 -4 11 676.376 14.4963 2
-1 5 11 126.36 4.81497 2
-1 -5 10 221.578 6.97801 2
-1 -5 9 1967.48 14.5664 2
-1 -5 8 111.034 4.58636 2
1 -5 -7 8860.57 21.1162 2
1 5 -6 420.213 5.65211 2
1 5 -5 1315.66 15.0924 2
1 5 -4 340.099 8.58427 2
1 5 -3 22078.2 50.5391 2
1 5 -2 74.6693 4.62308 2
-1 -5 1 25513.6 47.0691 2
1 5 0 410.41 4.79951 2
-1 -5 -1 6877.49 28.6318 2
-1 -5 -2 2961.56 21.4647 2
-1 -5 -3 41400.4 66.7513 2
-1 5 -4 282.711 8.43245 2
-1 5 -5 9090.69 45.3291 2
1 -5 6 1063.45 9.36403 2
1 5 7 2018.72 14.3801 2
1 5 8 12.6742 4.3854 2
1 5 9 5820.26 26.2743 2
1 5 10 18.0971 3.96602 2
1 -5 11 225.292 6.75772 2
-1 6 11 48.759 4.4298 2
-1 6 10 181.266 8.32267 2
-1 -6 9 200.196 6.16885 2
-1 -6 8 5021.35 19.0677 2
1 -6 -7 356.478 5.73578 2
1 6 -6 7779.48 19.9506 2
1 6 -5 2694.4 18.7512 2
1 6 -4 6931.64 28.735 2
1 6 -3 1931.53 16.0054 2
1 6 -2 39424.7 60.3637 2
1 6 -1 2017.74 11.9411 2
1 6 0 6284.54 14.8807 2
-1 6 -1 10484.2 25.2887 2
-1 6 -2 35606.4 64.4438 2
-1 -6 -3 2726.96 24.0843 2
-1 6 -4 17434.7 65.1511 2
1 -6 5 1692.53 16.7744 2
-1 6 -6 602.426 9.89448 2
-1 6 -7 305.252 8.14291 2
1 6 8 3907.36 20.183 2
1 6 9 67.3321 5.60077 2
1 6 10 1368.15 11.9428 2
1 -6 11 58.4068 4.62493 2
-1 7 11 25.4926 4.3372 2
1 7 -10 1330.75 17.4252 2
-1 -7 9 1274.12 11.1249 2
-1 -7 8 600.88 7.84666 2
-1 -7 7 2677.14 12.5303 2
1 7 -6 4905.33 16.585 2
1 7 -5 7.99979 5.83435 2
1 7 -4 5779.08 31.9302 2
1 7 -3 4841.96 25.7284 2
1 7 -2 257.717 7.52764 2
1 7 -1 6844.46 23.8023 2
1 7 0 18306.7 26.1769 2
-1 7 -1 119.679 4.6559 2
-1 -7 -2 16588.8 46.7395 2
-1 -7 -3 12953.5 43.6049 2
-1 7 -4 3538.52 29.1675 2
-1 7 -5 3455.18 23.5931 2
-1 7 -6 6148.43 28.2028 2
-1 7 -7 71.0691 5.52199 2
1 7 8 345.955 6.80693 2
1 7 9 950.255 10.2667 2
1 -7 10 385.012 7.09914 2
1 -7 11 28.2402 3.79659 2
-1 8 11 1729.97 19.5813 2
-1 8 10 189.085 8.50132 2
1 -8 -9 1460.86 12.9171 2
-1 -8 8 234.603 5.90717 2
-1 -8 7 806.114 7.7884 2
1 8 -6 6.92309 4.05148 2
1 8 -5 10478.1 42.6598 2
1 8 -4 832.88 14.107 2
1 8 -3 13401.2 34.8469 2
1 8 -2 25.8496 5.62264 2
1 8 -1 24815.4 49.3447 2
-1 8 0 4577.19 18.3468 2
-1 8 -1 21237 40.4388 2
-1 8 -2 72.0414 5.53098 2
-1 8 -3 438.754 8.21489 2
-1 8 -4 419.263 12.3301 2
1 8 5 9115.65 28.6173 2
-1 8 -6 715.896 10.7295 2
-1 8 -7 11903.8 36.7186 2
1 8 8 527.182 7.13937 2
1 8 9 61.6155 5.245 2
1 8 10 12.1236 4.73338 2
1 8 11 1315.92 15.5118 2
-1 9 11 101.368 4.7759 2
-1 9 10 1371.77 18.6384 2
1 -9 -9 339.997 7.42477 2
1 9 -8 638.943 8.65779 2
1 9 -7 1136.35 9.53224 2
1 9 -6 6439.77 22.206 2
1 9 -5 5.73929 5.59139 2
1 9 -4 21662.5 54.2716 2
1 9 -3 2944.78 18.68 2
1 9 -2 69.501 4.47029 2
-1 -9 1 4765.31 19.5092 2
-1 9 0 36846 57.8101 2
-1 9 -1 163.021 5.13882 2
-1 9 -2 22163.9 45.2523 2
-1 9 -3 5869.54 25.4751 2
-1 9 -4 3431.25 29.7132 2
1 9 5 1574.42 12.2696 2
-1 9 -6 9483.63 34.6971 2
-1 9 -7 643.958 7.93572 2
1 9 8 884.955 9.35789 2
1 9 9 698.022 8.5262 2
1 -9 10 283.805 7.50358 2
1 9 11 10.6073 4.1803 2
-1 10 11 121.395 4.52079 2
-1 10 10 182.698 10.1145 2
1 -10 -9 257.551 6.79855 2
1 10 -8 2735.45 16.114 2
1 10 -7 386.963 7.25836 2
1 10 -6 2540.2 14.5116 2
1 10 -5 1034.86 11.452 2
1 10 -4 5095.15 28.4746 2
1 10 -3 462.006 9.58136 2
-1 -10 2 30765.4 66.6713 2
-1 -10 1 849.837 9.82089 2
-1 10 0 7038.29 32.6539 2
-1 10 -1 2764.67 13.8187 2
-1 10 -2 9119.07 25.965 2
-1 10 -3 609.519 9.78903 2
-1 10 -4 16794.8 47.065 2
1 10 5 1669.36 11.4711 2
-1 10 -6 1229.41 10.1353 2
-1 10 -7 526.007 7.37941 2
1 10 8 3064.8 15.5337 2
1 -10 9 73.311 5.72135 2
1 10 10 736.169 14.3983 2
-1 11 11 14.4638 3.0511 2
-1 11 10 62.4932 7.66856 2
1 -11 -9 3121.49 18.317 2
1 11 -8 137.095 6.97567 2
1 11 -7 5439 20.9704 2
1 11 -6 45.6766 5.24653 2
1 11 -5 705.706 8.92065 2
1 11 -4 527.612 12.276 2
1 11 -3 17252.3 47.6577 2
1 -11 -2 30.6801 7.1394 2
-1 -11 1 17897.3 45.676 2
-1 11 0 353.577 9.92447 2
-1 11 -1 6422.31 24.1804 2
-1 11 -2 111.813 5.81548 2
-1 11 -3 16287.6 44.3491 2
1 11 4 789.461 9.28906 2
1 11 5 11053.1 31.3435 2
-1 11 -6 795.663 9.16105 2
-1 11 -7 178.746 5.83809 2
1 11 8 110.441 5.22021 2
-1 11 -9 3168.68 19.3016 2
1 11 10 2.67562 4.71589 2
-1 12 11 281.222 9.56703 2
-1 12 10 15.6895 6.31104 2
1 -12 -9 480.183 8.82507 2
1 12 -8 2004.04 18.221 2
1 12 -7 404.56 7.31632 2
1 12 -6 1323.59 11.1452 2
1 12 -5 2333.26 15.1609 2
1 12 -4 2707.24 17.3182 2
1 -12 -3 643.239 12.1939 2
-1 -12 2 18750.1 58.2551 2
-1 -12 1 1215.38 15.3195 2
-1 12 0 2135.51 21.0641 2
-1 12 -1 6936.74 29.2764 2
-1 12 -2 5096.13 23.3638 2
-1 12 -3 214.82 7.12934 2
-1 12 -4 8824.13 28.4585 2
1 12 5 2045.61 14.4456 2
1 12 6 365.694 7.55992 2
-1 12 -7 1588.68 15.1784 2
1 12 8 2073.6 17.4451 2
1 12 9 30.0377 5.00487 2
1 12 10 1025.07 18.4562 2
-1 13 11 34.0349 5.48941 2
-1 13 10 1181.84 17.3908 2
-1 13 9 25.1589 4.77087 2
1 13 -8 271.151 9.50693 2
1 13 -7 352.239 7.01426 2
1 13 -6 5625.15 22.0001 2
1 13 -5 15.186 5.03999 2
1 13 -4 12861.3 28.3687 2
1 -13 -3 907.32 14.6069 2
-1 -13 2 98.9552 9.1671 2
-1 -13 1 1357.02 17.8674 2
1 13 0 24052.1 65.8194 2
-1 13 -1 235.647 8.09631 2
-1 13 -2 17325.7 49.0826 2
-1 13 -3 1787.76 13.9353 2
-1 13 -4 1561.49 13.2331 2
1 13 5 220.927 6.61891 2
1 13 6 5309.91 22.9368 2
-1 13 -7 580.625 10.5531 2
1 13 8 269.55 7.30377 2
1 13 9 69.9289 5.09377 2
-1 13 -10 406.179 8.0083 2
-1 14 10 7.80708 5.34705 2
1 -14 -9 671.524 9.30496 2
1 14 -8 117.975 7.46217 2
1 14 -7 423.434 9.87841 2
1 14 -6 527.004 8.62955 2
1 14 -5 9449.86 29.8293 2
1 14 -4 570.577 7.6798 2
1 -14 -3 4883.81 20.9142 2
1 14 -2 1147.67 15.5902 2
1 14 -1 8086 39.7169 2
1 14 0 750.172 13.3112 2
-1 14 -1 18991.7 52.6221 2
-1 14 -2 1548.22 11.5577 2
1 14 3 523.567 8.18046 2
1 14 4 671.346 10.1545 2
1 14 5 5048.54 21.2156 2
1 14 6 98.1534 5.63116 2
1 14 7 5946.85 32.4457 2
1 -14 8 592.13 9.09037 2
1 14 9 52.9739 4.64391 2
-1 14 -10 56.5537 10.4364 2
-1 15 10 631.512 10.0145 2
1 -15 -9 547.065 7.92231 2
1 15 -8 97.3613 7.02416 2
1 15 -7 2339.73 22.2706 2
1 15 -6 1636.27 13.7915 2
1 15 -5 6.87043 5.94362 2
1 15 -4 3187.85 18.534 2
1 -15 -3 6399.74 25.1898 2
1 15 -2 46.91 6.78486 2
1 15 -1 8719.02 48.2117 2
1 15 0 8032.71 29.5671 2
-1 15 -1 36.8389 5.32804 2
-1 15 -2 4582.6 18.1438 2
-1 15 -3 10338.4 27.3022 2
1 15 4 854.144 11.1738 2
1 15 5 1642.48 13.3676 2
1 15 6 2057.73 14.8734 2
1 15 7 780.826 12.9265 2
1 15 8 411.492 8.44487 2
-1 15 -9 880.594 8.61126 2
-1 15 -10 89.5122 9.14582 2
-1 16 10 38.3577 4.0371 2
-1 16 9 46.2948 5.34401 2
1 16 -8 1998.21 18.2163 2
1 16 -7 5.80453 6.46811 2
1 16 -6 2030 15.0108 2
1 16 -5 66.4098 6.6267 2
1 16 -4 2645.1 19.4604 2
1 16 -3 65.1466 6.36058 2
1 16 -2 18008.8 50.9688 2
1 16 -1 172.8 11.4813 2
-1 -16 0 2327.66 20.2421 2
-1 16 -1 97.7984 5.77997 2
-1 16 -2 9454.96 28.0339 2
-1 16 -3 1.52385 5.00942 2
1 16 4 6367.7 23.8452 2
1 16 5 229.404 7.11864 2
1 16 6 92.5213 5.69822 2
1 16 7 130.517 7.19242 2
-1 16 -8 2404.45 15.3127 2
-1 16 -9 15.1868 4.80159 2
-1 17 10 155.819 6.06373 2
1 -17 -9 709.01 9.60097 2
1 17 -8 2.22203 5.23921 2
1 17 -7 2778.14 22.62 2
1 17 -6 790.671 12.1524 2
1 -17 -5 21.9626 7.20751 2
1 17 -4 1749.79 15.9881 2
1 -17 -3 9363.83 32.1855 2
1 -17 -2 20.1512 7.02742 2
1 17 -1 7987.9 43.8406 2
-1 -17 0 3175.6 26.1152 2
-1 17 -1 441.425 7.59025 2
-1 17 -2 1517.36 12.6756 2
-1 17 -3 10165.9 28.1704 2
1 17 4 65.6992 5.75827 2
1 17 5 3104.04 17.9757 2
1 17 6 1001.45 10.83 2
-1 17 -7 447.374 8.49263 2
-1 17 -8 87.5062 5.19252 2
-1 17 -9 1022.01 14.2896 2
-1 18 9 1033.44 13.0957 2
1 -18 -8 450.358 10.1312 2
1 18 -7 257.945 8.88072 2
1 18 -6 562.72 16.0237 2
1 18 -5 3971.67 24.0894 2
1 18 -4 702.118 11.0932 2
1 18 -3 1033.05 14.9412 2
1 -18 -2 4313.24 24.6372 2
1 18 -1 1403.34 19.5546 2
-1 -18 0 1795.08 20.7304 2
-1 18 -1 8147.88 28.2276 2
-1 18 -2 2924.84 17.6157 2
-1 18 -3 418.317 7.37534 2
1 18 4 1944.44 14.9 2
1 18 5 5363.55 23.4716 2
-1 18 -6 3.07463 4.98777 2
-1 18 -7 1520.69 14.1185 2
-1 18 -8 575.653 10.3707 2
-1 18 -9 5.95881 5.69627 2
-1 19 9 26.8198 4.51895 2
1 -19 -8 159.591 5.05844 2
1 19 -7 10.0964 5.66358 2
1 19 -6 1366.04 21.7832 2
1 19 -5 110.749 10.6085 2
1 19 -4 8190.99 35.7254 2
1 19 -3 1289.58 17.9173 2
1 -19 -2 24.9658 5.96862 2
-1 -19 1 1771.32 24.2974 2
-1 -19 0 19494.5 68.3489 2
-1 -19 -1 207.846 9.66428 2
-1 19 -2 3992.95 21.5746 2
-1 19 -3 19.1408 5.82673 2
1 19 4 954.08 11.0789 2
1 19 5 17.9854 5.03817 2
-1 19 -6 4836.06 21.169 2
-1 19 -7 24.9313 6.64128 2
-1 19 -8 443.882 8.37574 2
-1 20 9 278.657 5.97815 2
1 -20 -8 638.444 7.5746 2
1 20 -7 526.264 9.33096 2
1 20 -6 476.542 14.0145 2
1 20 -5 3284.32 33.0935 2
1 20 -4 88.757 8.45537 2
1 20 -3 835.896 13.0406 2
1 20 -2 4609.26 30.9023 2
1 -20 -1 3026.45 24.8281 2
-1 -20 0 161.561 11.4479 2
-1 -20 -1 7069.67 35.5434 2
-1 20 -2 2241.13 19.0182 2
-1 20 -3 1037.5 11.0716 2
1 20 4 2685.61 15.7814 2
1 20 5 1820.45 13.6778 2
-1 20 -6 16.1761 4.33555 2
-1 20 -7 1527.24 16.1407 2
-1 20 -8 427.735 7.30825 2
-1 21 8 20.4599 4.20325 2
1 -21 -7 3110.11 19.7435 2
1 -21 -6 185.028 10.2995 2
1 -21 -5 26.8143 8.61849 2
-1 21 4 304.791 8.8871 2
1 21 -3 1795.57 15.7221 2
1 21 -2 6.88438 8.19976 2
1 -21 -1 1622.38 17.0694 2
-1 -21 0 779.832 14.0591 2
-1 -21 -1 336.65 11.1101 2
-1 -21 -2 574.223 14.0707 2
-1 21 -3 8789.4 33.1358 2
1 21 4 100.779 5.39506 2
1 21 5 1851.34 15.3657 2
-1 21 -6 320.765 7.7196 2
-1 21 -7 242.4 8.52982 2
-1 22 8 1063.34 10.9373 2
-1 22 7 8.70178 4.22626 2
1 -22 -6 1147.64 13.8431 2
1 -22 -5 336.018 12.1498 2
1 -22 -4 837.018 11.958 2
1 -22 -3 19.1953 8.68307 2
1 22 -2 14310 65.4086 2
-1 -22 1 138.926 8.89767 2
-1 -22 0 771.021 13.4865 2
-1 -22 -1 541.301 12.5895 2
1 22 2 3818.58 27.3551 2
-1 -22 -3 23.2206 7.1199 2
1 22 4 4017.93 27.9309 2
1 22 5 45.3475 6.85319 2
-1 22 -6 41.3747 6.87947 2
-1 -22 -7 91.9545 6.83249 2
-1 23 7 901.945 11.9999 2
1 -23 -6 569.756 9.53663 2
1 -23 -5 6.91699 7.06472 2
1 -23 -4 2013.91 23.7144 2
-1 23 3 1938.03 16.8158 2
1 23 -2 11.0574 8.99648 2
1 23 -1 2255.61 18.3471 2
1 23 0 4128.21 30.6237 2
1 23 1 158.208 10.5241 2
1 23 2 1747.14 14.6297 2
-1 23 -3 3604.6 24.6337 2
1 23 4 686.483 14.746 2
-1 -23 -5 670.224 17.0552 2
-1 -23 -6 1311.78 18.9759 2
1 23 7 102.731 4.76269 2
-1 24 7 93.0287 5.96362 2
-1 24 6 26.0594 4.05706 2
1 -24 -5 3127.61 24.4567 2
1 24 -4 158.509 9.51122 2
-1 24 3 895.369 12.0129 2
-1 24 2 251.71 9.37465 2
1 24 -1 1313.67 15.7029 2
-1 24 0 101.303 8.3277 2
1 -24 1 6669.94 26.2194 2
-1 -24 -2 81.8232 6.88195 2
1 24 3 253.603 9.45702 2
1 24 4 112.66 8.42633 2
-1 -24 -5 1710.17 22.9341 2
-1 -24 -6 7.51005 5.05328 2
-1 25 6 829.187 13.7266 2
1 -25 -5 27.4207 6.64656 2
1 -25 -4 2402.45 29.2894 2
-1 25 3 500.081 10.7232 2
1 -25 -2 92.8522 5.67183 2
1 25 -1 395.913 10.0694 2
-1 25 0 4384.39 20.3778 2
1 25 1 92.4039 7.29223 2
1 25 2 1663.3 14.4217 2
1 25 3 874.579 12.8146 2
1 25 4 322.947 9.22825 2
-1 -25 -5 199.801 6.53289 2
1 26 -6 234.704 5.71992 2
1 26 -5 754.393 11.3418 2
1 -26 -4 646.716 9.29946 2
-1 26 3 229.824 6.9825 2
-1 26 2 2421.56 13.7393 2
1 26 -1 281.065 8.5101 2
-1 26 0 900.89 10.5662 2
1 26 1 1761.5 12.4293 2
1 26 2 1429.61 15.5684 2
1 26 3 32.8289 6.51654 2
1 26 4 1394.01 14.7895 2
1 26 5 181.04 6.50615 2
-1 27 5 8.01362 3.35131 2
1 27 -4 -1.14966 8.91949 2
1 27 -3 2067.56 17.8013 2
1 27 -2 1.92225 4.84764 2
1 27 -1 2637.29 15.9964 2
1 27 0 7.09124 5.1607 2
1 27 1 102.692 5.90846 2
1 27 2 73.9069 5.13443 2
1 27 3 1516.05 12.5804 2
-1 27 -4 2.60313 3.29084 2
1 -28 -3 359.997 7.92071 2
1 28 -2 1863.73 21.7213 2
1 28 -1 463.449 7.4736 2
1 28 0 491.494 7.70385 2
1 28 1 857.714 10.6105 2
1 28 2 1095.42 10.5411 2
-1 -28 -3 72.1804 4.43781 2
1 29 -2 2.68367 4.97169 2
-1 -29 1 28.375 4.42227 2
1 29 0 1176.89 10.5771 2
1 29 1 61.1834 3.58012 2
2 0 -10 717.821 19.9103 2
2 0 -8 662.29 16.8967 2
2 0 -6 3012.47 21.9798 2
2 0 -4 49108.6 117.928 2
2 0 -2 9418.86 45.7234 2
2 0 0 9733.03 110.362 2
-2 0 -2 15526.2 81.8321 2
2 0 4 31.5279 6.62 2
-2 0 -6 9794.74 43.7139 2
2 0 8 4827.51 24.7638 2
2 0 10 351.226 14.1318 2
3 0 -10 20.0891 13.3995 2
3 0 -8 947.935 25.0118 2
-3 0 6 13079.2 45.7972 2
3 0 -4 2121.74 9.56115 2
3 0 -2 5711.18 19.3464 2
3 0 0 10836.2 38.7728 2
3 0 2 60.236 5.05084 2
3 0 4 9827.09 39.3942 2
3 0 6 4436.32 27.489 2
3 0 8 713.611 19.8134 2
3 -1 -10 57.3978 13.4225 2
3 1 -9 30.4582 6.52134 2
3 1 -8 460.427 14.1378 2
3 1 -7 2051.79 15.426 2
3 1 -6 169.574 7.45226 2
3 -1 -5 1903.14 10.2819 2
3 -1 -4 2118.77 7.19169 2
3 -1 -3 540.818 4.10941 2
3 -1 -2 1437.98 7.61503 2
3 -1 -1 10781.8 21.4978 2
3 -1 0 2738.67 14.4695 2
3 -1 1 3187.37 10.8014 2
3 -1 2 4452.5 12.8477 2
3 -1 3 2539.15 13.2337 2
3 1 4 242.952 7.53018 2
3 1 5 4147.42 22.1018 2
3 1 6 947.331 10.7871 2
3 -1 7 354.157 7.21482 2
3 -1 8 1247.98 24.3767 2
3 -1 9 1373.08 17.3329 2
3 -2 -10 48.0294 8.03766 2
3 2 -9 1350.4 16.3295 2
3 2 -8 20.3059 9.01266 2
3 2 -7 447.825 9.15477 2
3 2 -6 589.467 8.35492 2
3 -2 -5 2348.27 10.1085 2
3 -2 -4 43.9263 3.21158 2
3 -2 -3 7396.73 12.3616 2
3 -2 -2 1135.47 6.8319 2
3 -2 -1 745.157 6.16937 2
3 -2 0 2172.22 9.13592 2
3 -2 1 7224.53 16.9952 2
3 -2 2 175.578 4.6193 2
3 -2 3 6991.6 17.7284 2
3 2 4 466.946 7.10377 2
3 2 5 110.969 5.81415 2
3 2 6 286.619 6.89761 2
3 -2 7 3007.79 17.2667 2
3 -2 8 1.51634 7.4214 2
3 2 9 1002.14 10.537 2
3 -3 -10 244.765 9.70396 2
3 3 -9 2.23827 5.74003 2
3 3 -8 1552.97 16.0651 2
3 -3 -7 232.725 9.66676 2
3 -3 -6 538.314 7.2673 2
3 -3 -5 11.2183 3.87956 2
3 -3 -4 13322.2 17.8504 2
3 -3 -3 17.4244 3.22914 2
3 -3 -2 5220.25 12.9353 2
3 -3 -1 153.561 3.81891 2
3 -3 0 1661.85 7.68994 2
3 -3 1 40.8562 3.38099 2
3 -3 2 11312.9 20.3614 2
3 -3 3 193.333 4.74142 2
3 3 4 1277.93 8.81975 2
3 3 5 84.716 5.0392 2
3 -3 6 4756.03 22.8281 2
3 -3 7 1.48884 4.81455 2
3 -3 8 3555.29 22.8472 2
3 3 9 24.863 3.646 2
3 -4 -10 77.8233 7.66232 2
3 4 -9 478.561 8.76875 2
3 4 -8 268.426 9.85711 2
3 -4 -7 303.85 9.42335 2
3 -4 -6 2547.33 13.4894 2
3 -4 -5 653.377 6.90027 2
3 4 -4 1689.02 7.9272 2
3 4 -3 6277.56 14.0058 2
3 -4 -2 4690.8 11.8547 2
3 -4 -1 115.405 3.81178 2
3 -4 0 3082.94 10.5701 2
3 -4 1 6741.08 15.4888 2
3 -4 2 129.365 4.31341 2
3 -4 3 4473.08 16.0844 2
3 4 4 2765.83 14.1981 2
3 4 5 15.2323 5.63767 2
3 4 6 1296.52 13.5894 2
3 -4 7 2188 14.8276 2
3 -4 8 35.6133 5.92109 2
3 -4 9 127.522 6.93202 2
3 -5 -10 13.5433 6.7442 2
3 5 -9 6.79073 4.91966 2
3 5 -8 86.5802 8.93755 2
3 5 -7 2459.56 18.6262 2
-3 -5 6 30.1796 6.48964 2
3 -5 -5 2616.07 13.3579 2
3 -5 -4 324.336 5.37546 2
3 5 -3 850.386 6.53982 2
3 -5 -2 469.702 5.02633 2
3 -5 -1 13701.1 19.9278 2
3 -5 0 29.0342 3.60455 2
3 5 1 5183.13 12.7469 2
3 5 2 516.767 5.83194 2
3 5 3 3456.36 13.6527 2
3 5 4 17.678 4.63388 2
3 5 5 11243.2 39.5165 2
3 5 6 14.1265 5.74985 2
3 -5 7 249.157 6.4462 2
3 -5 8 17.041 4.04835 2
3 -6 -10 170.38 8.15737 2
3 -6 -9 164.636 7.76499 2
3 6 -8 624.739 12.7966 2
3 6 -7 185.801 8.25296 2
3 6 -6 4429.08 21.8774 2
3 -6 -5 276.395 7.91298 2
3 -6 -4 171.082 5.10304 2
3 -6 -3 1305.36 6.84595 2
3 -6 -2 9463.96 16.5232 2
3 -6 -1 712.667 5.07856 2
3 6 0 10316.2 19.1453 2
3 6 1 870.03 6.72887 2
3 6 2 85.0975 4.15294 2
3 6 3 698.692 7.98839 2
3 6 4 8093.76 23.2299 2
3 6 5 127.575 6.96353 2
3 6 6 1904.54 18.0915 2
3 -6 7 175.532 6.03948 2
3 -6 8 142.845 4.90893 2
3 -7 -10 117.87 8.51 2
3 -7 -9 2.62954 5.96668 2
3 7 -8 522.282 9.79541 2
3 7 -7 597.766 9.25364 2
3 7 -6 156.35 9.97536 2
3 7 -5 1247.85 13.9165 2
3 7 -4 5332.97 17.7525 2
3 -7 -3 245.669 4.49135 2
3 -7 -2 3953.15 11.4445 2
3 7 -1 5393.2 11.8474 2
3 7 0 2219.21 10.1215 2
3 7 1 981.478 6.8023 2
3 7 2 4716.78 14.7078 2
3 7 3 102.926 4.64648 2
3 7 4 153.122 5.42337 2
3 7 5 1121.15 11.3568 2
3 7 6 1080.62 13.8024 2
3 7 7 53.4046 4.88417 2
3 -7 8 1481.31 15.0004 2
3 8 -9 878.142 12.6805 2
3 8 -8 5.30384 6.12254 2
3 8 -7 582.952 9.25945 2
3 8 -6 17.8533 8.78695 2
3 8 -5 3016.15 19.3926 2
3 -8 -4 203.291 6.6915 2
3 8 -3 5792.72 16.314 2
3 -8 -2 29.5507 3.76134 2
3 8 -1 19.7279 3.5075 2
3 8 0 46.2075 4.5508 2
3 8 1 8893.55 17.8167 2
3 8 2 126.983 4.22965 2
3 8 3 11290.6 23.2657 2
3 8 4 557.884 7.52227 2
3 8 5 22.6569 4.91792 2
3 8 6 5.30819 5.43209 2
3 -8 7 3190.27 21.1595 2
3 -8 8 3.21617 3.57471 2
3 -9 -9 11.2621 7.04196 2
3 9 -8 1030.99 11.3022 2
3 9 -7 338.461 7.72538 2
3 9 -6 41.7017 9.08689 2
3 9 -5 871.648 10.6577 2
3 9 -4 5232.01 21.2363 2
3 9 -3 235.134 6.33453 2
3 -9 -2 4537.8 12.4836 2
3 9 -1 2353.95 8.59288 2
3 9 0 1782.69 9.27724 2
3 9 1 930.054 7.06609 2
3 9 2 10289.5 22.1715 2
3 9 3 597.978 7.12286 2
3 9 4 792.158 9.60033 2
3 9 5 981.174 10.4618 2
3 9 6 1535.54 13.3724 2
3 -9 7 21.9293 3.75971 2
3 -9 8 775.875 15.2854 2
3 -10 -9 119 7.80804 2
3 -10 -8 345.476 10.5214 2
3 10 -7 55.0649 5.82606 2
3 10 -6 3213.4 24.4781 2
3 10 -5 347.555 10.7227 2
3 -10 -4 638.254 8.38516 2
3 -10 -3 936.938 9.74328 2
3 -10 -2 3451.53 11.8456 2
3 10 -1 21.6022 3.5094 2
3 10 0 8715.37 19.6975 2
3 10 1 1213.51 8.8662 2
3 10 2 625.588 7.48214 2
3 -10 3 407.543 7.41477 2
3 10 4 5069.93 19.7134 2
3 10 5 54.3857 5.35821 2
3 -10 6 1674.04 13.9043 2
3 -10 7 711.495 9.5862 2
3 -10 8 216.835 5.66571 2
3 -11 -9 1.77786 5.72028 2
3 -11 -8 23.7486 7.69681 2
3 11 -7 1750.16 12.8294 2
3 11 -6 1.299 6.71161 2
3 11 -5 2166.46 18.587 2
3 -11 -4 18.228 4.66431 2
3 -11 -3 1393.32 11.0122 2
3 -11 -2 22.5992 4.20699 2
3 11 -1 7099.93 15.7937 2
3 11 0 259.269 5.83394 2
3 11 1 4681.68 17.2305 2
3 11 2 801.648 8.20833 2
3 -11 3 1131.7 10.4931 2
3 11 4 177.812 7.92229 2
3 11 5 6154.35 22.7518 2
3 11 6 15.5681 5.17715 2
3 11 7 102.218 4.42071 2
3 -11 8 -0.37123 2.93157 2
3 -12 -9 228.813 7.8045 2
3 -12 -8 258.08 9.43045 2
3 -12 -7 70.5746 5.88574 2
3 12 -6 2079.77 19.0764 2
3 12 -5 537.066 11.2458 2
3 -12 -4 212.212 5.95276 2
3 -12 -3 2138.46 12.6206 2
3 12 -2 1975.85 11.7584 2
3 12 -1 14.1158 4.3856 2
3 12 0 3600.14 15.0697 2
3 12 1 1688.46 12.3244 2
3 12 2 671.947 7.86733 2
3 -12 3 966.853 10.1523 2
3 12 4 3974.78 22.8285 2
3 12 5 51.4805 5.25696 2
3 12 6 2110.78 16.4117 2
3 -12 7 980.572 11.3497 2
3 -13 -9 0.11346 4.28719 2
3 -13 -8 759.587 11.5876 2
3 -13 -7 82.0135 5.58967 2
3 -13 -6 48.217 7.68716 2
3 13 -5 249.812 9.10519 2
3 -13 -4 3639.26 16.3886 2
3 -13 -3 16.3756 5.24995 2
3 13 -2 3082.44 16.6653 2
3 13 -1 283.564 5.98329 2
3 13 0 1048.19 9.12574 2
3 13 1 222.887 6.67017 2
3 13 2 5017.7 18.9398 2
3 -13 3 539.723 9.09095 2
3 13 4 202.703 7.19746 2
3 13 5 264.444 6.15295 2
3 13 6 1531.55 13.1064 2
3 -13 7 13.8109 3.00602 2
3 -14 -8 38.4839 9.80334 2
3 -14 -7 292.924 6.68361 2
3 -14 -6 184.542 8.59768 2
3 -14 -5 985.88 20.0182 2
3 -14 -4 30.879 5.4846 2
3 -14 -3 2843.84 16.1527 2
3 14 -2 199.762 6.41371 2
3 14 -1 68.8227 6.07115 2
3 14 0 288.903 6.93199 2
3 14 1 4774.41 18.7903 2
3 14 2 85.9466 5.15508 2
3 -14 3 6805.4 24.7952 2
3 14 4 1481.89 13.0167 2
3 14 5 280.479 6.78913 2
3 14 6 115.502 5.00924 2
3 -14 7 2826.51 20.382 2
3 -15 -8 147.062 9.89674 2
3 -15 -7 558.222 7.45163 2
3 -15 -6 30.6949 6.52986 2
3 -15 -5 1176.86 15.5855 2
3 -15 -4 1367.32 11.1528 2
3 -15 -3 12.0871 4.9238 2
3 -15 -2 854.894 9.05946 2
3 15 -1 2350.41 17.4401 2
3 15 0 798.032 10.478 2
3 15 1 563.464 7.74879 2
3 15 2 1608.85 12.0917 2
3 -15 3 931.005 10.3054 2
3 15 4 229.729 6.65775 2
3 15 5 2114.98 13.5636 2
3 15 6 522.696 12.1527 2
3 -15 7 87.9792 6.54078 2
3 -16 -8 184.647 9.11823 2
3 -16 -7 7.94532 3.76845 2
3 -16 -6 2073.37 15.3108 2
3 -16 -5 5.12903 6.57589 2
3 -16 -4 176.696 6.15709 2
3 -16 -3 5.87643 4.69989 2
3 -16 -2 2999.63 17.3414 2
3 16 -1 2.85792 5.06568 2
3 16 0 2526.87 18.4868 2
3 16 1 91.4361 6.26319 2
3 16 2 28.87 5.10035 2
3 -16 3 115.059 7.80134 2
3 16 4 4023.45 18.1214 2
3 16 5 17.7022 4.12659 2
3 -16 6 1208.14 15.7208 2
3 -17 -7 1155.53 11.5991 2
3 -17 -6 14.8218 4.69957 2
3 -17 -5 686.694 11.3487 2
3 -17 -4 642.555 8.92694 2
3 -17 -3 198.73 5.72566 2
3 -17 -2 228.301 6.90956 2
3 17 -1 3200.75 16.7569 2
3 17 0 87.7644 7.49293 2
3 17 1 1805.65 13.1692 2
3 17 2 817.189 9.25703 2
3 -17 3 1194.72 14.7377 2
3 17 4 14.8516 4.91334 2
3 17 5 2512.31 15.1172 2
3 -17 6 139.735 8.03193 2
3 -18 -7 159.469 6.68653 2
3 -18 -6 427.187 6.67919 2
3 -18 -5 273.106 7.964 2
3 -18 -4 219.962 6.33147 2
3 -18 -3 1372.92 11.0454 2
3 -18 -2 890.812 8.91824 2
3 18 -1 21.2806 5.08212 2
3 18 0 902.048 10.4382 2
3 18 1 3838.35 19.6736 2
3 18 2 9.74469 4.70184 2
3 -18 3 1907.06 16.2188 2
3 18 4 713.592 8.51609 2
3 18 5 18.6981 3.78101 2
3 -19 -6 10.7433 3.10709 2
3 -19 -5 159.308 7.75632 2
3 -19 -4 3133.63 14.3839 2
3 -19 -3 55.8176 4.96033 2
3 -19 -2 1204.41 9.3885 2
3 19 -1 5.46794 4.86263 2
3 19 0 749.647 9.83446 2
3 19 1 11.9356 4.34947 2
3 19 2 4478.28 18.5851 2
3 -19 3 46.0921 7.1726 2
3 19 4 431.018 6.70143 2
3 -19 5 70.0206 4.95442 2
3 -20 -6 458.509 6.00405 2
3 -20 -5 830.381 12.9723 2
3 -20 -4 40.4338 5.66037 2
3 -20 -3 1403.83 10.8249 2
3 -20 -2 897.531 7.7726 2
3 -20 -1 193.55 5.58769 2
3 20 0 1155.22 9.87082 2
3 20 1 1548.79 10.073 2
3 -20 2 39.0775 4.8708 2
3 20 3 1404.86 20.1725 2
3 -20 4 610.349 9.67338 2
3 -21 -5 328.462 8.86161 2
3 -21 -4 279.946 7.5608 2
3 21 -3 249.046 5.63635 2
3 -21 -2 100.151 5.21131 2
3 -21 -1 2979.07 15.4232 2
3 21 0 73.3178 6.41375 2
3 21 1 792.738 8.28926 2
3 -21 2 336.527 8.71065 2
3 21 3 459.227 10.3247 2
3 21 4 6.76631 5.55993 2
3 -22 -5 122.04 5.38605 2
3 -22 -4 143.527 7.28587 2
3 22 -3 107.255 5.4313 2
3 -22 -2 1296.26 9.35201 2
3 -22 -1 8.42053 4.13147 2
3 -22 0 1990.86 13.4811 2
3 22 1 58.0119 4.71859 2
3 -22 2 11.526 4.91207 2
3 -22 3 57.046 4.59012 2
3 -23 -4 852 10.5653 2
3 23 -3 70.5538 4.12728 2
3 -23 -2 431.904 6.77148 2
3 -23 -1 1371.75 12.5188 2
3 23 0 531.793 7.03738 2
3 23 1 342.015 7.39112 2
3 -23 2 956.438 9.21437 2
3 -24 -3 1392.56 12.302 2
3 -24 -2 6.62819 4.26336 2
3 -24 -1 44.4367 5.46515 2
3 -24 0 31.6783 5.42011 2
3 -24 1 1103.67 8.80459 2
5 -1 0 63.455 14.32 2
5 -1 1 778.402 14.0098 2
5 -2 0 124.546 14.2974 2
5 -2 1 95.1828 12.4505 2
5 -3 0 42.1385 9.09501 2
5 -3 1 41.3312 10.7946 2
5 -4 -2 23.8192 11.2276 2
5 -4 0 394.024 11.1854 2
5 -4 1 -0.9327 9.62587 2
5 -5 -2 20.9796 9.78731 2
5 -5 0 -8.18854 8.12146 2
5 -6 -2 3.42284 8.40356 2
0 0 2 69908.2 148.504 -2
0 0 -2 69908.2 148.504 1
0 0 4 16721.3 80.3474 -2
0 0 -4 16721.3 80.3474 1
0 0 -6 20918.6 98.1053 -2
0 0 6 20918.6 98.1053 1
0 0 -8 127.323 10.1884 -2
0 0 8 127.323 10.1884 1
0 0 10 7774.07 58.4215 -2
0 0 -10 7774.07 58.4215 1
0 0 -12 1879.59 19.7378 -2
0 0 12 1879.59 19.7378 1
0 -1 1 33851.2 51.0148 -2
0 1 -1 33851.2 51.0148 1
0 1 -2 38067.3 71.8748 -2
0 -1 2 38067.3 71.8748 1
0 1 3 611.937 12.1856 -2
0 -1 -3 611.937 12.1856 1
0 1 4 8362.31 43.5768 -2
0 -1 -4 8362.31 43.5768 1
0 -1 -5 52563.8 117.191 -2
0 1 5 52563.8 117.191 1
0 -1 -6 4618.31 34.5624 -2
0 1 6 4618.31 34.5624 1
0 1 7 9639.76 34.8365 -2
0 -1 -7 9639.76 34.8365 1
0 -1 8 6360.32 31.1556 -2
0 1 -8 6360.32 31.1556 1
0 -1 -9 1155.38 15.0122 -2
0 1 9 1155.38 15.0122 1
0 1 10 76.4058 8.60498 -2
0 -1 -10 76.4058 8.60498 1
0 1 11 2480.07 22.7273 -2
0 -1 -11 2480.07 22.7273 1
0 -1 -12 346.706 9.27145 -2
0 1 12 346.706 9.27145 1
0 2 0 2226.96 10.1548 -2
0 -2 0 2226.96 10.1548 1
0 2 1 16909.5 30.7223 -2
0 -2 -1 16909.5 30.7223 1
0 -2 -2 3796.78 21.0474 -2
0 2 2 3796.78 21.0474 1
0 2 -3 135180 159.595 -2
0 -2 3 135180 159.595 1
0 -2 4 2273.3 24.0814 -2
0 2 -4 2273.3 24.0814 1
0 -2 5 14436.9 56.9007 -2
0 2 -5 14436.9 56.9007 1
0 2 6 12358.6 56.26 -2
0 -2 -6 12358.6 56.26 1
0 2 -7 11278.3 35.3119 -2
0 -2 7 11278.3 35.3119 1
0 -2 -8 21.4622 6.25896 -2
0 2 8 21.4622 6.25896 1
0 -2 -9 8504.64 35.3538 -2
0 2 9 8504.64 35.3538 1
0 -2 10 477.876 12.5453 -2
0 2 -10 477.876 12.5453 1
0 2 -11 131.409 9.86461 -2
0 -2 11 131.409 9.86461 1
0 2 -12 115.47 7.08826 -2
0 -2 12 115.47 7.08826 1
0 3 -1 110.002 5.11989 -2
0 -3 1 110.002 5.11989 1
0 -3 -2 220168 145.466 -2
0 3 2 220168 145.466 1
0 -3 3 3576.99 22.4817 -2
0 3 -3 3576.99 22.4817 1
0 3 4 33258.5 76.4747 -2
0 -3 -4 33258.5 76.4747 1
0 3 5 466.432 12.028 -2
0 -3 -5 466.432 12.028 1
0 3 6 1070.18 19.2383 -2
0 -3 -6 1070.18 19.2383 1
0 -3 7 361.635 8.6124 -2
0 3 -7 361.635 8.6124 1
0 -3 -8 15623.2 48.4219 -2
0 3 8 15623.2 48.4219 1
0 -3 -9 123.032 7.94423 -2
0 3 9 123.032 7.94423 1
0 3 10 2323.75 23.6298 -2
0 -3 -10 2323.75 23.6298 1
0 3 11 56.4844 8.30128 -2
0 -3 -11 56.4844 8.30128 1
0 3 12 1016.49 10.8198 -2
0 -3 -12 1016.49 10.8198 1
0 4 0 72733.2 105.176 -2
0 -4 0 72733.2 105.176 1
0 -4 -1 12722.6 33.4897 -2
0 4 1 12722.6 33.4897 1
0 -4 -2 43986.4 65.778 -2
0 4 2 43986.4 65.778 1
0 4 -3 65983.6 92.7661 -2
0 -4 3 65983.6 92.7661 1
0 -4 4 19159.7 60.1686 -2
0 4 -4 19159.7 60.1686 1
0 4 -5 2098.47 23.5518 -2
0 -4 5 2098.47 23.5518 1
0 -4 6 13389.8 56.9426 -2
0 4 -6 13389.8 56.9426 1
0 4 -7 10661.9 38.4066 -2
0 -4 7 10661.9 38.4066 1
0 4 8 83.4077 7.10857 -2
0 -4 -8 83.4077 7.10857 1
0 -4 9 4313.65 30.7647 -2
0 4 -9 4313.65 30.7647 1
0 4 10 2707.14 35.5773 -2
0 -4 -10 2707.14 35.5773 1
0 4 -11 14.5653 9.58966 -2
0 -4 11 14.5653 9.58966 1
0 4 12 380.461 11.106 -2
0 -4 -12 380.461 11.106 1
0 5 -1 84709.4 93.6929 -2
0 -5 1 84709.4 93.6929 1
0 5 2 836.173 12.4882 -2
0 -5 -2 836.173 12.4882 1
0 -5 -3 13092.2 42.7113 -2
0 5 3 13092.2 42.7113 1
0 -5 -4 3563.25 27.3382 -2
0 5 4 3563.25 27.3382 1
0 -5 5 55240.3 116.056 -2
0 5 -5 55240.3 116.056 1
0 5 -6 546.687 8.72095 -2
0 -5 6 546.687 8.72095 1
0 5 -7 13279.3 41.2303 -2
0 -5 7 13279.3 41.2303 1
0 -5 -8 1465.51 15.5102 -2
0 5 8 1465.51 15.5102 1
0 5 -9 1717.1 18.6654 -2
0 -5 9 1717.1 18.6654 1
0 5 -10 29.4289 11.9827 -2
0 -5 10 29.4289 11.9827 1
0 5 -11 4184.16 38.5479 -2
0 -5 11 4184.16 38.5479 1
0 -6 0 117030 145.386 -2
0 6 0 117030 145.386 1
0 -6 1 7602.17 30.024 -2
0 6 -1 7602.17 30.024 1
0 6 2 27795.7 60.7256 -2
0 -6 -2 27795.7 60.7256 1
0 6 -3 19978.4 55.0841 -2
0 -6 3 19978.4 55.0841 1
0 6 4 53407.3 101.49 -2
0 -6 -4 53407.3 101.49 1
0 -6 -5 3090.76 29.4546 -2
0 6 5 3090.76 29.4546 1
0 6 -6 27176.9 56.2256 -2
0 -6 6 27176.9 56.2256 1
0 -6 7 1867.35 16.1028 -2
0 6 -7 1867.35 16.1028 1
0 -6 -8 959.804 13.4891 -2
0 6 8 959.804 13.4891 1
0 -6 -9 349.716 12.8208 -2
0 6 9 349.716 12.8208 1
0 6 10 3651.56 42.5765 -2
0 -6 -10 3651.56 42.5765 1
0 6 11 45.3945 7.44379 -2
0 -6 -11 45.3945 7.44379 1
0 7 1 18443.3 52.5549 -2
0 -7 -1 18443.3 52.5549 1
0 7 -2 31579.9 68.893 -2
0 -7 2 31579.9 68.893 1
0 7 -3 37.0965 7.04434 -2
0 -7 3 37.0965 7.04434 1
0 -7 4 29111.2 77.727 -2
0 7 -4 29111.2 77.727 1
0 -7 -5 16987 65.566 -2
0 7 5 16987 65.566 1
0 7 -6 3915.31 21.8413 -2
0 -7 6 3915.31 21.8413 1
0 -7 7 6564.28 29.1769 -2
0 7 -7 6564.28 29.1769 1
0 -7 8 9909 46.0517 -2
0 7 -8 9909 46.0517 1
0 7 9 108.768 11.0331 -2
0 -7 -9 108.768 11.0331 1
0 7 10 648.435 20.6276 -2
0 -7 -10 648.435 20.6276 1
0 7 -11 978.874 14.4393 -2
0 -7 11 978.874 14.4393 1
0 -8 0 76.3153 10.413 -2
0 8 0 76.3153 10.413 1
0 -8 1 66588.6 100.294 -2
0 8 -1 66588.6 100.294 1
0 8 -2 10331.7 42.3623 -2
0 -8 2 10331.7 42.3623 1
0 -8 -3 48349.3 87.235 -2
0 8 3 48349.3 87.235 1
0 -8 -4 61.3819 8.42177 -2
0 8 4 61.3819 8.42177 1
0 8 -5 2008.67 24.2597 -2
0 -8 5 2008.67 24.2597 1
0 8 -6 922.254 11.6666 -2
0 -8 6 922.254 11.6666 1
0 -8 7 11361.7 43.6632 -2
0 8 -7 11361.7 43.6632 1
0 -8 -8 1358.56 17.6254 -2
0 8 8 1358.56 17.6254 1
0 8 9 15073.6 63.9322 -2
0 -8 -9 15073.6 63.9322 1
0 8 10 402.351 13.5522 -2
0 -8 -10 402.351 13.5522 1
0 8 11 62.8446 5.69294 -2
0 -8 -11 62.8446 5.69294 1
0 -9 -1 11187.2 44.7227 -2
0 9 1 11187.2 44.7227 1
0 -9 2 101987 160.061 -2
0 9 -2 101987 160.061 1
0 9 -3 16.7836 6.8317 -2
0 -9 3 16.7836 6.8317 1
0 9 4 40381.3 93.2086 -2
0 -9 -4 40381.3 93.2086 1
0 9 -5 7927.67 47.4774 -2
0 -9 5 7927.67 47.4774 1
0 9 -6 4932.23 27.4549 -2
0 -9 6 4932.23 27.4549 1
0 9 -7 2342.79 21.2967 -2
0 -9 7 2342.79 21.2967 1
0 -9 8 11018.4 47.2445 -2
0 9 -8 11018.4 47.2445 1
0 -9 -9 798.12 17.4775 -2
0 9 9 798.12 17.4775 1
0 9 -10 918.303 17.6698 -2
0 -9 10 918.303 17.6698 1
0 9 11 706.799 10.1427 -2
0 -9 -11 706.799 10.1427 1
0 -10 0 97710.1 197.208 -2
0 10 0 97710.1 197.208 1
0 10 1 1610.65 18.1703 -2
0 -10 -1 1610.65 18.1703 1
0 10 -2 21457.9 72.9413 -2
0 -10 2 21457.9 72.9413 1
0 10 -3 4794.57 34.1464 -2
0 -10 3 4794.57 34.1464 1
0 -10 4 15416.6 48.4657 -2
0 10 -4 15416.6 48.4657 1
0 -10 -5 1732.65 19.726 -2
0 10 5 1732.65 19.726 1
0 -10 -6 21364.2 59.6931 -2
0 10 6 21364.2 59.6931 1
0 -10 7 1883.44 19.3019 -2
0 10 -7 1883.44 19.3019 1
0 10 -8 1366.91 19.2281 -2
0 -10 8 1366.91 19.2281 1
0 10 9 733.804 14.1201 -2
0 -10 -9 733.804 14.1201 1
0 10 10 2658.4 21.3125 -2
0 -10 -10 2658.4 21.3125 1
0 10 11 84.5434 7.22998 -2
0 -10 -11 84.5434 7.22998 1
0 11 1 60992.9 105.218 -2
0 -11 -1 60992.9 105.218 1
0 11 2 1754.64 25.2555 -2
0 -11 -2 1754.64 25.2555 1
0 11 3 9231.71 51.5036 -2
0 -11 -3 9231.71 51.5036 1
0 11 4 234.189 9.13966 -2
0 -11 -4 234.189 9.13966 1
0 -11 -5 27142 77.699 -2
0 11 5 27142 77.699 1
0 -11 -6 1066.16 19.1272 -2
0 11 6 1066.16 19.1272 1
0 11 -7 18378.3 58.4094 -2
0 -11 7 18378.3 58.4094 1
0 11 -8 656.744 13.0567 -2
0 -11 8 656.744 13.0567 1
0 -11 -9 109.421 8.36993 -2
0 11 9 109.421 8.36993 1
0 11 10 103.771 9.68966 -2
0 -11 -10 103.771 9.68966 1
0 11 11 3090.18 23.3174 -2
0 -11 -11 3090.18 23.3174 1
0 12 0 61872.3 178.044 -2
0 -12 0 61872.3 178.044 1
0 -12 -1 2639.63 26.3623 -2
0 12 1 2639.63 26.3623 1
0 -12 -2 8581.23 51.2314 -2
0 12 2 8581.23 51.2314 1
0 12 -3 12553.9 62.0855 -2
0 -12 3 12553.9 62.0855 1
0 12 -4 8044.7 36.9912 -2
0 -12 4 8044.7 36.9912 1
0 12 5 1274.97 22.9381 -2
0 -12 -5 1274.97 22.9381 1
0 -12 -6 12303 72.5148 -2
0 12 6 12303 72.5148 1
0 -12 -7 2630.34 21.3603 -2
0 12 7 2630.34 21.3603 1
0 -12 -8 231.693 10.3533 -2
0 12 8 231.693 10.3533 1
0 12 9 2621.67 22.3004 -2
0 -12 -9 2621.67 22.3004 1
0 12 10 1914.33 24.4622 -2
0 -12 -10 1914.33 24.4622 1
0 12 11 50.1585 7.16928 -2
0 -12 -11 50.1585 7.16928 1
0 13 -1 3764.75 32.6377 -2
0 -13 1 3764.75 32.6377 1
0 -13 -2 60629.6 151.457 -2
0 13 2 60629.6 151.457 1
0 13 -3 313.23 13.4359 -2
0 -13 3 313.23 13.4359 1
0 13 -4 33127.3 61.7907 -2
0 -13 4 33127.3 61.7907 1
0 13 5 2572.02 26.6804 -2
0 -13 -5 2572.02 26.6804 1
0 -13 -6 1686.89 24.0716 -2
0 13 6 1686.89 24.0716 1
0 -13 -7 195.299 9.49808 -2
0 13 7 195.299 9.49808 1
0 -13 -8 6659.56 40.3147 -2
0 13 8 6659.56 40.3147 1
0 -13 -9 563.741 14.9892 -2
0 13 9 563.741 14.9892 1
0 13 10 407.568 11.2267 -2
0 -13 -10 407.568 11.2267 1
0 13 11 65.102 5.90353 -2
0 -13 -11 65.102 5.90353 1
0 14 0 2847.63 44.4839 -2
0 -14 0 2847.63 44.4839 1
0 -14 1 22462.6 81.7372 -2
0 14 -1 22462.6 81.7372 1
0 -14 -2 2572.94 31.2137 -2
0 14 2 2572.94 31.2137 1
0 14 3 45775.6 93.9365 -2
0 -14 -3 45775.6 93.9365 1
0 14 4 3036.62 20.4819 -2
0 -14 -4 3036.62 20.4819 1
0 -14 -5 1297.21 20.8935 -2
0 14 5 1297.21 20.8935 1
0 -14 6 943.69 19.3291 -2
0 14 -6 943.69 19.3291 1
0 -14 -7 5660.99 38.2632 -2
0 14 7 5660.99 38.2632 1
0 -14 -8 101.965 9.21543 -2
0 14 8 101.965 9.21543 1
0 -14 9 5881.5 39.4535 -2
0 14 -9 5881.5 39.4535 1
0 14 -10 405.667 10.3413 -2
0 -14 10 405.667 10.3413 1
0 -15 1 22443.3 90.9255 -2
0 15 -1 22443.3 90.9255 1
0 15 -2 16287 66.7394 -2
0 -15 2 16287 66.7394 1
0 -15 -3 47.5251 7.38301 -2
0 15 3 47.5251 7.38301 1
0 15 -4 8646.53 36.7762 -2
0 -15 4 8646.53 36.7762 1
0 -15 -5 14687.8 68.4359 -2
0 15 5 14687.8 68.4359 1
0 -15 -6 750.546 15.9912 -2
0 15 6 750.546 15.9912 1
0 -15 -7 2949.26 29.0905 -2
0 15 7 2949.26 29.0905 1
0 -15 -8 3126.8 30.1704 -2
0 15 8 3126.8 30.1704 1
0 -15 -9 814.763 14.7541 -2
0 15 9 814.763 14.7541 1
0 15 10 546.223 13.2924 -2
0 -15 -10 546.223 13.2924 1
0 -16 0 55345.9 206.584 -2
0 16 0 55345.9 206.584 1
0 -16 -1 526.377 15.1686 -2
0 16 1 526.377 15.1686 1
0 16 -2 8315.99 44.1679 -2
0 -16 2 8315.99 44.1679 1
0 16 3 227.757 8.51132 -2
0 -16 -3 227.757 8.51132 1
0 16 -4 13942.9 42.7678 -2
0 -16 4 13942.9 42.7678 1
0 16 -5 21.1712 8.88657 -2
0 -16 5 21.1712 8.88657 1
0 -16 -6 10154.3 51.5709 -2
0 16 6 10154.3 51.5709 1
0 -16 -7 303.595 16.5255 -2
0 16 7 303.595 16.5255 1
0 -16 -8 233.555 11.7868 -2
0 16 8 233.555 11.7868 1
0 16 -9 138.514 8.21075 -2
0 -16 9 138.514 8.21075 1
0 16 10 2599.81 22.0405 -2
0 -16 -10 2599.81 22.0405 1
0 -17 -1 26740.4 77.59 -2
0 17 1 26740.4 77.59 1
0 17 -2 7195.67 39.7835 -2
0 -17 2 7195.67 39.7835 1
0 17 -3 424.678 10.3797 -2
0 -17 3 424.678 10.3797 1
0 17 -4 3656.38 23.3681 -2
0 -17 4 3656.38 23.3681 1
0 17 -5 15625.6 65.8516 -2
0 -17 5 15625.6 65.8516 1
0 17 -6 36.7503 10.7133 -2
0 -17 6 36.7503 10.7133 1
0 -17 -7 4443.51 46.1774 -2
0 17 7 4443.51 46.1774 1
0 17 -8 1464.8 25.7216 -2
0 -17 8 1464.8 25.7216 1
0 -17 -9 324.738 11.8822 -2
0 17 9 324.738 11.8822 1
0 17 -10 159.449 6.61972 -2
0 -17 10 159.449 6.61972 1
0 -18 0 12967.3 124.952 -2
0 18 0 12967.3 124.952 1
0 18 -1 3550.57 30.3571 -2
0 -18 1 3550.57 30.3571 1
0 -18 2 3713.5 25.1043 -2
0 18 -2 3713.5 25.1043 1
0 -18 -3 17887.4 54.7816 -2
0 18 3 17887.4 54.7816 1
0 -18 -4 4301.53 24.6688 -2
0 18 4 4301.53 24.6688 1
0 -18 -5 1069.91 19.9726 -2
0 18 5 1069.91 19.9726 1
0 18 -6 2653.29 33.4031 -2
0 -18 6 2653.29 33.4031 1
0 -18 -7 6945.52 48.5512 -2
0 18 7 6945.52 48.5512 1
0 18 -8 18.5109 9.78039 -2
0 -18 8 18.5109 9.78039 1
0 -18 9 1733.49 20.1962 -2
0 18 -9 1733.49 20.1962 1
0 19 -1 4954.52 35.797 -2
0 -19 1 4954.52 35.797 1
0 -19 2 40336.3 80.4027 -2
0 19 -2 40336.3 80.4027 1
0 -19 3 445.908 11.8735 -2
0 19 -3 445.908 11.8735 1
0 -19 -4 7853.11 35.3501 -2
0 19 4 7853.11 35.3501 1
0 19 -5 12.4131 8.81248 -2
0 -19 5 12.4131 8.81248 1
0 -19 6 1145.66 20.7364 -2
0 19 -6 1145.66 20.7364 1
0 -19 -7 74.6856 10.9507 -2
0 19 7 74.6856 10.9507 1
0 -19 -8 6638.03 64.4328 -2
0 19 8 6638.03 64.4328 1
0 -19 9 39.492 6.61085 -2
0 19 -9 39.492 6.61085 1
0 -20 0 13973.6 98.3287 -2
0 20 0 13973.6 98.3287 1
0 -20 -1 4930.54 36.3034 -2
0 20 1 4930.54 36.3034 1
0 -20 -2 370.734 11.5407 -2
0 20 2 370.734 11.5407 1
0 -20 -3 15513.8 52.8605 -2
0 20 3 15513.8 52.8605 1
0 20 -4 3446.77 24.3654 -2
0 -20 4 3446.77 24.3654 1
0 20 -5 2210.74 27.7862 -2
0 -20 5 2210.74 27.7862 1
0 20 6 3973.9 29.1587 -2
0 -20 -6 3973.9 29.1587 1
0 20 7 2358.37 26.1257 -2
0 -20 -7 2358.37 26.1257 1
0 -20 -8 -3.17564 9.89918 -2
0 20 8 -3.17564 9.89918 1
0 -20 -9 1887.16 19.0518 -2
0 20 9 1887.16 19.0518 1
0 21 1 4906.3 36.6515 -2
0 -21 -1 4906.3 36.6515 1
0 -21 2 1375.66 19.5736 -2
0 21 -2 1375.66 19.5736 1
0 -21 3 279.055 11.0024 -2
0 21 -3 279.055 11.0024 1
0 21 -4 1018.48 17.9402 -2
0 -21 4 1018.48 17.9402 1
0 -21 -5 15019.4 77.8395 -2
0 21 5 15019.4 77.8395 1
0 21 6 121.705 9.30322 -2
0 -21 -6 121.705 9.30322 1
0 21 7 3231.47 28.245 -2
0 -21 -7 3231.47 28.245 1
0 21 8 442.802 10.0929 -2
0 -21 -8 442.802 10.0929 1
0 -22 0 41052.5 147.739 -2
0 22 0 41052.5 147.739 1
0 -22 -1 53.5522 11.388 -2
0 22 1 53.5522 11.388 1
0 -22 -2 2466.25 25.0203 -2
0 22 2 2466.25 25.0203 1
0 22 3 1617.43 24.8831 -2
0 -22 -3 1617.43 24.8831 1
0 22 4 6528 37.8504 -2
0 -22 -4 6528 37.8504 1
0 -22 5 69.6313 12.2117 -2
0 22 -5 69.6313 12.2117 1
0 22 6 6480.92 37.1478 -2
0 -22 -6 6480.92 37.1478 1
0 22 7 88.0156 7.5988 -2
0 -22 -7 88.0156 7.5988 1
0 -22 8 91.2585 5.45026 -2
0 22 -8 91.2585 5.45026 1
0 -23 -1 6526.39 54.0075 -2
0 23 1 6526.39 54.0075 1
0 23 2 9587.05 61.8381 -2
0 -23 -2 9587.05 61.8381 1
0 23 3 174.084 11.2049 -2
0 -23 -3 174.084 11.2049 1
0 -23 -4 3235.98 34.0006 -2
0 23 4 3235.98 34.0006 1
0 -23 5 5211.87 51.8081 -2
0 23 -5 5211.87 51.8081 1
0 -23 6 691.027 14.5282 -2
0 23 -6 691.027 14.5282 1
0 -23 -7 970.877 13.8161 -2
0 23 7 970.877 13.8161 1
0 24 0 683.379 25.8678 -2
0 -24 0 683.379 25.8678 1
0 24 1 3477.97 47.3043 -2
0 -24 -1 3477.97 47.3043 1
0 24 2 523.911 19.2321 -2
0 -24 -2 523.911 19.2321 1
0 24 3 14892.6 68.0122 -2
0 -24 -3 14892.6 68.0122 1
0 24 -4 181.136 11.808 -2
0 -24 4 181.136 11.808 1
0 -24 5 590.182 14.3406 -2
0 24 -5 590.182 14.3406 1
0 -24 6 174.646 8.56181 -2
0 24 -6 174.646 8.56181 1
0 24 7 2212.66 18.4169 -2
0 -24 -7 2212.66 18.4169 1
0 25 1 1594.2 23.7082 -2
0 -25 -1 1594.2 23.7082 1
0 25 -2 10913 61.2116 -2
0 -25 2 10913 61.2116 1
0 -25 -3 133.591 11.1842 -2
0 25 3 133.591 11.1842 1
0 -25 -4 3768.77 54.673 -2
0 25 4 3768.77 54.673 1
0 25 5 1271.22 19.3934 -2
0 -25 -5 1271.22 19.3934 1
0 -25 -6 345.531 9.80615 -2
0 25 6 345.531 9.80615 1
0 26 0 7874.73 63.5066 -2
0 -26 0 7874.73 63.5066 1
0 26 1 906.319 17.8106 -2
0 -26 -1 906.319 17.8106 1
0 26 2 2915.4 26.3175 -2
0 -26 -2 2915.4 26.3175 1
0 -26 -3 4026.89 31.285 -2
0 26 3 4026.89 31.285 1
0 -26 -4 2160.57 38.3884 -2
0 26 4 2160.57 38.3884 1
0 -26 -5 187.062 8.3988 -2
0 26 5 187.062 8.3988 1
0 -26 -6 2764.75 29.3599 -2
0 26 6 2764.75 29.3599 1
0 27 1 8614.97 42.1409 -2
0 -27 -1 8614.97 42.1409 1
0 27 -2 21.457 7.82026 -2
0 -27 2 21.457 7.82026 1
0 -27 -3 101.125 14.1026 -2
0 27 3 101.125 14.1026 1
0 27 -4 58.6176 6.69722 -2
0 -27 4 58.6176 6.69722 1
0 -27 -5 2517.07 21.7563 -2
0 27 5 2517.07 21.7563 1
0 28 0 8535.77 54.6418 -2
0 -28 0 8535.77 54.6418 1
0 28 1 1782.35 16.5659 -2
0 -28 -1 1782.35 16.5659 1
0 -28 -2 1676.4 33.0461 -2
0 28 2 1676.4 33.0461 1
0 -28 -3 2128.87 33.2766 -2
0 28 3 2128.87 33.2766 1
0 -28 -4 2272.26 21.4032 -2
0 28 4 2272.26 21.4032 1
0 -29 -1 175.277 10.6449 -2
0 29 1 175.277 10.6449 1
0 -29 -2 3619.14 39.4776 -2
0 29 2 3619.14 39.4776 1
0 -29 -3 82.1702 8.61173 -2
0 29 3 82.1702 8.61173 1
0 -30 0 275.628 12.3662 -2
0 30 0 275.628 12.3662 1
0 -30 -1 1957.8 18.0022 -2
0 30 1 1957.8 18.0022 1
-1 0 12 826.096 10.7204 1
1 0 -10 26.0312 12.5964 1
1 0 -8 4869.62 32.5676 1
1 0 -6 3748.93 54.8359 1
1 0 -4 15301.2 72.9679 1
1 0 -2 346346 180.756 1
1 0 0 31332.5 78.0846 1
-1 0 -2 12810.2 38.8825 1
-1 0 -4 17640.8 57.7067 1
1 0 6 56.4802 5.26789 1
1 0 8 8640.91 31.8917 1
1 0 10 2325.99 18.0019 1
-1 1 12 6.59104 4.96008 1
1 1 -11 129.707 12.5421 1
1 -1 -10 873.727 13.7043 1
1 -1 -9 1865.58 14.2504 1
1 1 -8 436.411 7.9533 1
-1 1 7 10313.8 24.7667 1
1 -1 -6 1926.26 25.9466 1
-1 -1 5 195.883 12.3537 1
1 1 -4 8866.11 34.9215 1
-1 1 3 15030.1 37.2178 1
-1 1 2 1234.26 9.54218 1
-1 -1 1 11765.2 27.8846 1
1 1 0 17816.1 34.7003 1
1 -1 1 83.1871 3.74972 1
-1 -1 -2 6025.49 21.4551 1
-1 1 -3 38833.6 52.925 1
1 -1 4 6307.37 26.7823 1
-1 -1 -5 7798.43 42.5628 1
-1 -1 -6 6182.08 17.1428 1
-1 -1 -7 1578.48 11.2902 1
1 -1 8 106.471 4.74692 1
-1 -1 -9 2828.81 15.8163 1
1 -1 10 444.691 7.2857 1
1 1 11 195.534 9.25384 1
1 2 -12 80.8563 5.48619 1
1 2 -11 1416.55 26.1004 1
1 2 -10 12.1135 6.75097 1
1 2 -9 2049.4 18.1736 1
-1 -2 8 2445.36 14.8071 1
1 2 -7 3028.78 14.1673 1
1 2 -6 772.603 12.559 1
1 -2 -5 32166.1 99.3561 1
1 2 -4 205.951 8.6439 1
-1 -2 3 5253.65 22.1923 1
1 -2 -2 1675.91 10.4366 1
-1 -2 1 9696.5 45.8672 1
1 -2 0 2102.9 17.0984 1
-1 -2 -1 60892.4 50.2217 1
1 -2 2 1379.77 12.5906 1
1 -2 3 8450.44 32.6395 1
-1 2 -4 9378.45 43.5498 1
-1 2 -5 9875.17 46.9123 1
-1 2 -6 106.983 4.12468 1
1 2 7 8183.73 21.0219 1
1 2 8 408.642 6.8754 1
-1 -2 -9 52.5538 4.45009 1
-1 -2 -10 142.787 5.49159 1
1 2 11 907.218 11.8312 1
1 -3 -12 254.181 5.40089 1
-1 -3 11 5.19996 5.22103 1
1 -3 -10 2516.56 18.1373 1
-1 -3 9 83.0537 6.63366 1
1 -3 -8 227.604 5.77881 1
1 -3 -7 192.782 5.08226 1
1 -3 -6 8452.67 25.9797 1
1 -3 -5 412.471 14.6431 1
1 3 -4 43435.7 80.3737 1
-1 -3 3 776.411 8.04605 1
-1 3 2 1946.29 14.6336 1
-1 3 1 694.279 10.5212 1
1 3 0 121538 98.6645 1
1 3 1 1526.35 9.47486 1
1 -3 2 21003.3 40.75 1
1 -3 3 313.25 7.32766 1
-1 3 -4 1048.98 16.2597 1
-1 -3 -5 255.866 10.3073 1
1 -3 6 14748.6 24.9092 1
1 -3 7 162.348 4.46577 1
-1 3 -8 2229.48 12.9473 1
-1 3 -9 39.3703 4.23036 1
1 -3 10 1692.34 11.2998 1
1 3 11 5.15642 5.12036 1
1 -4 -12 273.148 5.15467 1
-1 -4 11 600.44 9.21907 1
1 -4 -10 33.1863 5.94638 1
1 -4 -9 1586.38 14.7691 1
1 4 -8 3419.73 16.6125 1
-1 4 7 698.767 8.57158 1
1 -4 -6 3222.74 16.6279 1
-1 -4 5 13767.9 51.9076 1
1 4 -4 7478.02 30.8288 1
1 -4 -3 4552.47 17.4475 1
-1 -4 2 26323 58.6333 1
1 4 -1 4117.11 16.4669 1
1 -4 0 24426.6 27.1536 1
1 4 1 42754.9 54.1594 1
1 4 2 17741.1 38.4138 1
1 4 3 1135.64 12.9596 1
1 4 4 9170.51 33.0596 1
-1 4 -5 11390.5 46.7794 1
-1 -4 -6 13.6758 3.22583 1
1 -4 7 4328.2 16.5677 1
-1 4 -8 2525.3 13.1055 1
-1 -4 -9 7.07601 4.86617 1
-1 -4 -10 597.326 8.20947 1
-1 -4 -11 585.113 8.08542 1
1 -5 -11 177.75 6.24468 1
1 5 -10 253.103 7.3316 1
-1 5 9 2462.83 21.7565 1
1 -5 -8 141.977 6.22628 1
-1 -5 7 11582.1 33.2008 1
1 -5 -6 532.185 7.90822 1
-1 -5 5 1810.72 19.8344 1
-1 5 4 497.69 9.58288 1
1 5 -3 30932.5 67.8503 1
-1 5 2 89.2584 7.30234 1
-1 5 1 31582.3 37.0095 1
1 5 0 453.317 4.3626 1
-1 5 -1 7671.06 22.5945 1
-1 -5 -2 3526.66 15.9691 1
-1 -5 -3 46619.9 83.3451 1
1 -5 4 318.798 7.86565 1
-1 -5 -5 11416.3 44.2449 1
-1 5 -6 1213.28 7.99122 1
-1 5 -7 2341.21 11.7196 1
1 -5 8 5.58428 4.29298 1
1 -5 9 5972.2 23.1824 1
1 5 10 13.2814 4.7121 1
1 -5 11 116.205 5.63345 1
-1 6 12 311.044 11.857 1
1 6 -11 58.8821 4.96225 1
-1 -6 10 172.887 6.21591 1
1 -6 -9 262.151 7.0551 1
-1 6 8 6154.53 23.3724 1
1 -6 -7 508.099 9.32134 1
-1 -6 6 10652.9 33.6863 1
-1 -6 5 4917.65 38.189 1
-1 -6 4 10675.6 50.9729 1
-1 -6 3 2600.88 20.1591 1
-1 6 2 46860.6 70.1595 1
1 -6 -1 2610.77 12.5335 1
1 -6 0 6932.36 16.71 1
1 6 1 12282.7 32.4565 1
1 6 2 41338.2 60.9669 1
-1 6 -3 3040.21 21.7617 1
1 6 4 22097 51.9759 1
-1 -6 -5 2187.57 18.7302 1
1 -6 6 743.636 6.91875 1
1 -6 7 387.828 6.301 1
1 -6 8 5105.15 19.0534 1
-1 6 -9 59.0035 5.15987 1
-1 -6 -10 1344.67 12.1734 1
-1 -6 -11 27.0828 7.46955 1
1 -7 -11 28.1293 4.64291 1
1 -7 -10 1896.15 13.2584 1
1 7 -9 1584.55 13.1227 1
-1 -7 8 739.517 9.63431 1
-1 -7 7 3711.96 23.4113 1
-1 -7 6 6898.15 28.952 1
-1 -7 5 20.7135 8.63936 1
-1 -7 4 9439.73 42.8625 1
-1 -7 3 6193.11 30.2005 1
-1 -7 2 272.112 6.72977 1
-1 7 1 8326 22.6966 1
-1 -7 0 21001.1 31.3425 1
1 7 1 124.565 6.04569 1
1 7 2 19759.3 49.1385 1
-1 -7 -3 13846.3 47.074 1
-1 7 -4 3983.16 28.0912 1
-1 7 -5 4379.01 21.7323 1
1 7 6 8018.46 19.9905 1
1 -7 7 89.352 4.73206 1
-1 -7 -8 422.925 6.97631 1
-1 -7 -9 994.604 12.5314 1
1 -7 10 352.462 8.78332 1
-1 -7 -11 24.2748 6.845 1
1 -8 -11 2243.09 14.1548 1
1 8 -10 219.219 6.7043 1
1 8 -9 1952.5 14.7649 1
-1 8 8 299.124 7.53023 1
-1 8 7 1142.27 13.9826 1
1 -8 -6 11.2516 5.21753 1
-1 8 5 17279.2 68.0122 1
1 -8 -4 991.802 12.3368 1
1 -8 -3 15313.7 38.8603 1
1 8 -2 36.5108 4.77085 1
-1 -8 1 31064.7 44.338 1
-1 -8 0 5337.83 19.7735 1
-1 -8 -1 24458.4 43.6455 1
1 8 2 86.8464 6.80615 1
1 -8 3 494.339 8.54204 1
1 -8 4 523.892 12.5034 1
-1 8 -5 11377 27.1617 1
1 -8 6 962.26 7.87071 1
-1 -8 -7 14956.4 31.2685 1
-1 -8 -8 589.588 8.83839 1
1 8 9 58.2967 5.54806 1
-1 -8 -10 -1.32891 5.37961 1
-1 -8 -11 1061.68 16.4182 1
1 9 -11 112.688 5.25326 1
1 -9 -10 1489.04 17.364 1
1 -9 -9 466.335 8.09325 1
1 9 -8 851.2 9.27707 1
-1 -9 7 1657.22 15.032 1
-1 -9 6 9529.07 31.3068 1
-1 -9 5 13.6264 7.38545 1
1 -9 -4 24717.2 54.3777 1
-1 9 3 3476.84 19.5099 1
-1 -9 2 93.0828 4.83585 1
-1 9 1 6313.59 20.8779 1
1 9 0 43880.4 53.7687 1
1 9 1 160.82 5.72846 1
1 9 2 27210.3 50.1421 1
-1 -9 -3 6415.5 28.3929 1
1 9 4 4329.86 31.5761 1
1 -9 5 1980.86 12.7929 1
1 -9 6 12244.7 27.229 1
1 -9 7 762.087 8.9548 1
1 9 8 974.337 11.1762 1
1 -9 9 741.634 8.94708 1
-1 -9 -10 252.959 8.30804 1
-1 -9 -11 9.17429 5.83266 1
1 -10 -11 143.856 7.80722 1
1 -10 -10 184.761 6.75282 1
1 -10 -9 332.539 7.84527 1
-1 10 8 3751.27 17.663 1
1 10 -7 491.937 7.59846 1
1 -10 -6 3752.58 17.4986 1
-1 -10 5 1405.24 12.018 1
1 -10 -4 5916.44 27.8616 1
1 10 -3 502.544 9.66837 1
-1 -10 2 35285.8 52.6096 1
-1 10 1 978.772 10.7061 1
1 10 0 8669.42 26.8322 1
1 10 1 2984.35 17.4795 1
1 -10 2 11315 37.6942 1
1 -10 3 689.818 11.6884 1
-1 -10 -4 19444.7 73.9984 1
-1 10 -5 2062.3 13.4588 1
1 10 6 1437.93 10.5465 1
-1 10 -7 584.555 8.36132 1
1 10 8 3514.62 19.0483 1
1 10 9 60.6689 5.1028 1
-1 -10 -10 791.174 11.804 1
-1 -10 -11 218.675 7.94233 1
1 -11 -11 12.8596 5.37222 1
-1 11 10 64.4034 6.44222 1
-1 11 9 4508.68 23.1389 1
1 -11 -8 168.542 5.77077 1
-1 -11 7 7428.3 26.8011 1
-1 11 6 75.2196 5.56048 1
1 11 -5 1023.63 10.3867 1
1 11 -4 663.697 10.6787 1
-1 -11 3 20790.7 47.6071 1
-1 -11 2 23.9354 5.35055 1
-1 11 1 24873.5 61.6834 1
1 11 0 412.531 9.12271 1
-1 11 -1 7107.72 28.7553 1
-1 11 -2 162.832 8.3729 1
-1 -11 -3 18759.9 55.9763 1
1 -11 4 944.994 12.5977 1
-1 -11 -5 14093.6 30.852 1
1 -11 6 959.747 8.9684 1
1 11 7 191.324 6.04276 1
-1 -11 -8 131.164 6.5376 1
-1 -11 -9 4494.84 29.2475 1
-1 -11 -10 2.20153 4.85498 1
1 -12 -11 378.722 7.56004 1
-1 -12 10 19.448 5.65351 1
-1 -12 9 661.4 10.5297 1
-1 12 8 2684.06 20.9575 1
1 -12 -7 569.317 10.3683 1
-1 12 6 1857.7 14.3266 1
-1 12 5 3438.81 18.1609 1
-1 12 4 3499.52 19.1272 1
-1 12 3 783.683 11.8065 1
-1 -12 2 21628.3 54.855 1
-1 12 1 1831.22 18.886 1
-1 12 0 2447.22 18.7993 1
1 12 1 7775.24 33.0666 1
-1 12 -2 6431.46 34.1023 1
-1 -12 -3 291.456 10.1333 1
1 -12 4 10924.1 31.3229 1
-1 -12 -5 2675.58 16.2838 1
1 -12 6 437.283 6.687 1
1 12 7 2094.74 18.3211 1
-1 -12 -8 2764.46 16.1542 1
1 12 9 34.6171 6.09012 1
-1 -12 -10 1094.63 12.1496 1
-1 -13 11 25.7575 8.23797 1
-1 -13 10 1207.33 12.9156 1
1 -13 -9 30.4074 5.45124 1
1 13 -8 322.604 9.18679 1
-1 -13 7 480.536 10.0909 1
-1 13 6 8124.51 28.5704 1
-1 -13 5 9.76549 5.83193 1
-1 13 4 17887.7 38.3342 1
1 13 -3 1039.46 12.4453 1
-1 13 2 95.3845 7.68309 1
1 -13 -1 1840.02 19.9229 1
1 -13 0 26788.5 67.0383 1
-1 13 -1 285.585 10.4061 1
-1 13 -2 22628.6 69.3459 1
1 -13 3 2056.11 18.4935 1
1 -13 4 1891.24 12.6179 1
1 -13 5 250.505 7.36944 1
1 13 6 6797.09 24.6887 1
1 13 7 733.553 12.0529 1
1 -13 8 404.528 8.1124 1
-1 -13 -9 65.8751 6.18205 1
-1 -13 -10 385.959 6.82987 1
-1 -14 10 13.7162 4.37833 1
-1 14 9 1003.21 11.4119 1
-1 14 8 185.258 7.63454 1
-1 -14 7 568.882 11.4674 1
-1 -14 6 778.898 9.49575 1
-1 -14 5 14302.1 38.351 1
-1 -14 4 810.692 10.6118 1
-1 -14 3 6346.08 24.394 1
1 -14 -2 1421.5 11.9921 1
-1 -14 1 10853.2 45.3196 1
1 -14 0 967.917 15.3612 1
1 14 1 24957.1 87.1657 1
1 -14 2 1884.08 18.8184 1
1 -14 3 608.913 8.87886 1
1 14 4 889.685 9.87194 1
1 -14 5 6417.6 27.4688 1
1 -14 6 111.498 6.04832 1
-1 -14 -7 7130.19 35.4575 1
1 -14 8 751.733 9.81553 1
1 14 9 56.4216 5.7225 1
-1 -14 -10 37.0554 4.20022 1
-1 -15 10 695.918 13.0085 1
1 -15 -9 823.686 9.52081 1
1 -15 -8 117.847 6.88728 1
1 -15 -7 3119.33 24.7683 1
1 -15 -6 2264.62 15.9881 1
-1 15 5 9.61518 6.5128 1
1 -15 -4 4247.76 21.7505 1
-1 15 3 7900.99 25.8229 1
1 -15 -2 55.0285 4.9092 1
1 15 -1 11033.3 31.8834 1
-1 15 0 9759.61 42.2792 1
1 -15 1 30.6611 8.34055 1
1 15 2 5461.1 21.9232 1
1 15 3 11860.8 37.2025 1
1 15 4 1087.68 11.7893 1
1 -15 5 2150.79 17.9074 1
1 -15 6 2561.5 16.1055 1
1 -15 7 886.802 13.9385 1
1 15 8 531.617 8.98126 1
-1 -15 -9 1141.94 13.1233 1
-1 15 -10 76.0126 8.54299 1
-1 -16 10 45.2735 6.43402 1
-1 16 9 45.2837 4.03748 1
-1 16 8 2596.55 17.5642 1
1 16 -7 7.15003 6.39754 1
-1 16 6 2891.17 17.3409 1
1 -16 -5 93.6651 7.50353 1
-1 -16 4 3558.63 19.0164 1
-1 16 3 99.042 6.17104 1
-1 -16 2 22670 38.9383 1
-1 -16 1 234.866 6.7522 1
1 -16 0 3077.72 28.3213 1
-1 16 -1 97.1392 11.6934 1
-1 16 -2 11435.7 30.9283 1
1 16 3 16.5555 5.61606 1
-1 -16 -4 8247.83 33.0858 1
-1 -16 -5 277.379 9.13947 1
1 -16 6 131.778 9.95816 1
1 -16 7 115.837 7.7032 1
1 16 8 3123.56 18.0149 1
-1 -16 -9 15.4057 5.6448 1
-1 -17 10 178.165 11.0014 1
-1 17 9 938.376 10.0004 1
-1 17 8 7.99779 4.78224 1
-1 -17 7 3616.39 22.9258 1
1 17 -6 1201.87 11.9771 1
-1 17 5 30.3056 6.40684 1
-1 17 4 2332.63 15.7464 1
1 -17 -3 11689.1 32.9877 1
1 -17 -2 34.4334 5.10134 1
-1 17 1 9398.63 36.6442 1
1 -17 0 4267.29 35.6848 1
1 17 1 518.872 15.393 1
1 -17 2 1844.31 14.9615 1
1 -17 3 11932 41.1627 1
-1 -17 -4 85.5185 7.46531 1
1 -17 5 4134.86 31.3608 1
1 17 6 1433.59 22.3198 1
-1 -17 -7 525.89 10.8312 1
1 17 8 103.674 4.59768 1
-1 -17 -9 1363 16.3568 1
-1 18 9 1153.26 11.2385 1
-1 -18 8 516.708 8.8756 1
-1 -18 7 350.019 8.86658 1
1 -18 -6 808.021 10.8092 1
-1 18 5 5305.3 22.4339 1
-1 18 4 946.829 11.4522 1
1 -18 -3 1395.93 12.9233 1
-1 -18 2 5226.08 21.5143 1
1 -18 -1 1774.43 23.1836 1
-1 -18 0 2231.64 26.691 1
1 -18 1 9785.32 40.5806 1
1 -18 2 3228.83 21.9518 1
1 18 3 524.323 9.96812 1
1 -18 4 2325.55 20.3733 1
1 18 5 6965.69 31.8159 1
-1 -18 -6 7.82004 6.34815 1
1 -18 7 1924.94 17.5304 1
-1 -18 -8 699.255 7.1641 1
-1 -18 -9 -0.13048 3.7808 1
-1 19 9 23.5048 4.84783 1
-1 -19 8 219.977 8.35735 1
-1 -19 7 9.00139 5.28439 1
-1 -19 6 2086.35 15.3222 1
-1 19 5 165.496 6.73873 1
1 19 -4 11497.6 35.9339 1
1 19 -3 1704.81 13.6438 1
1 -19 -2 18.1356 6.5436 1
-1 19 1 2204.24 23.8504 1
-1 -19 0 23363.5 69.6567 1
1 19 1 230.904 9.29427 1
1 -19 2 4761.83 31.0981 1
-1 -19 -3 7.81875 6.46964 1
1 -19 4 1088.66 14.3654 1
1 -19 5 28.7769 6.84377 1
-1 -19 -6 6076.76 31.7613 1
1 -19 7 38.5497 5.81243 1
1 19 8 617.043 7.55702 1
-1 19 -9 27.7263 7.51824 1
-1 -20 9 277.515 12.1874 1
-1 -20 8 1025.66 14.0832 1
-1 20 7 827.374 15.4911 1
-1 -20 6 685.157 9.01659 1
1 -20 -5 4691.63 21.866 1
-1 -20 4 133.299 7.26229 1
1 -20 -3 999.863 11.2625 1
-1 -20 2 5647.14 37.1911 1
1 -20 -1 3442.01 29.2462 1
-1 20 0 191.293 11.1352 1
1 -20 1 7930.47 33.5379 1
-1 -20 -2 2479.38 22.5224 1
1 -20 3 1232.41 13.8069 1
-1 -20 -4 3314.6 21.8552 1
1 -20 5 2398.62 27.7135 1
1 -20 6 12.9323 5.88068 1
1 20 7 1891.29 15.9921 1
-1 20 -8 519.547 9.7228 1
1 -21 -8 28.214 4.50129 1
-1 -21 7 4259.56 28.9822 1
-1 -21 6 242.269 8.87249 1
1 -21 -5 32.7835 5.1905 1
-1 21 4 352.244 7.96416 1
1 -21 -3 2314.09 16.3563 1
-1 21 2 13.3399 8.89264 1
1 -21 -1 1934.77 23.1061 1
1 21 0 874.225 17.1736 1
1 21 1 374.149 11.1126 1
1 -21 2 587.201 13.4661 1
1 21 3 9841.22 38.0683 1
1 21 4 127.239 10.9712 1
1 21 5 2344.93 26.6392 1
-1 21 -6 411.247 9.46376 1
-1 21 -7 282.618 7.07484 1
-1 -21 -8 7.45225 3.78545 1
1 -22 -8 1119.37 16.9032 1
-1 -22 7 23.9938 6.32915 1
-1 22 6 1597.46 19.9545 1
-1 -22 5 483.895 11.513 1
1 -22 -4 992.49 13.047 1
1 -22 -3 25.3921 8.01768 1
1 -22 -2 16562.9 69.6965 1
-1 22 1 181.952 10.4667 1
1 22 0 905.963 12.0856 1
1 22 1 709.315 14.2286 1
1 -22 2 4535.53 37.866 1
-1 -22 -3 41.4741 7.83542 1
1 22 4 5073.04 38.0165 1
1 22 5 67.1774 8.67487 1
1 22 6 42.5083 5.28118 1
-1 22 -7 128.136 4.3957 1
-1 23 7 1229.77 16.1534 1
-1 23 6 703.051 12.5097 1
1 -23 -5 5.03622 6.92452 1
-1 23 4 2623.92 21.5263 1
-1 -23 3 2268.38 18.0588 1
1 -23 -2 4.66121 9.8104 1
1 -23 -1 2548.63 29.2626 1
-1 -23 0 5064.37 28.965 1
1 -23 1 196.95 11.1251 1
1 -23 2 2106.74 16.4483 1
1 -23 3 3998.61 25.9715 1
1 23 4 822.678 16.2159 1
-1 23 -5 816.605 14.9201 1
-1 -23 -6 1587.8 13.2306 1
1 23 7 122.948 4.65546 1
1 -24 -7 151.822 9.63988 1
1 -24 -6 22.9266 4.77109 1
1 -24 -5 3507.55 27.1197 1
1 -24 -4 204.023 8.60091 1
1 -24 -3 1153.33 15.1171 1
1 -24 -2 246.414 8.69446 1
-1 -24 1 1520.67 18.5783 1
1 -24 0 114.471 7.75944 1
1 -24 1 7749.98 29.6613 1
1 24 2 103.633 6.66604 1
1 24 3 337.032 9.9496 1
1 24 4 123.314 8.86688 1
1 24 5 2076.75 15.5998 1
-1 -24 -6 17.9418 4.81926 1
-1 25 6 1198.16 14.8313 1
-1 25 5 29.5164 7.31074 1
1 -25 -4 2806.93 23.5936 1
-1 -25 3 679.54 12.2144 1
1 -25 -2 107.859 6.89773 1
1 -25 -1 473.099 10.2638 1
1 -25 0 5092.25 26.3777 1
1 -25 1 113.931 6.70672 1
1 -25 2 1857.02 12.7771 1
1 25 3 976.169 15.8216 1
1 25 4 413.511 13.3883 1
-1 -25 -5 294.005 10.5018 1
-1 -25 -6 1490.85 15.4605 1
1 -26 -6 320.348 10.1385 1
1 -26 -5 928.771 10.6063 1
-1 26 4 862.958 12.4348 1
1 -26 -3 311.419 8.88239 1
1 -26 -2 3099.43 16.4613 1
-1 -26 1 311.769 7.09102 1
-1 -26 0 1041.84 12.5396 1
-1 -26 -1 1921.85 12.6212 1
-1 -26 -2 1615.81 13.8493 1
1 26 3 39.2228 6.59275 1
1 -26 4 1910.29 26.5585 1
-1 -26 -5 239.936 6.76731 1
-1 -27 5 9.55674 7.02415 1
-1 -27 4 1.91241 4.81505 1
1 -27 -3 2716.73 17.3341 1
-1 -27 2 4.17681 4.80368 1
-1 -27 1 3596.03 18.6834 1
-1 -27 0 7.36722 6.20487 1
1 -27 1 105.714 5.34565 1
1 -27 2 91.8887 6.07777 1
1 27 3 1764.64 15.988 1
-1 -27 -4 7.00876 4.32728 1
-1 -28 4 455.936 12.4679 1
-1 28 3 456.83 8.44895 1
1 -28 -2 2883.7 16.8451 1
-1 -28 1 634.855 8.8124 1
1 28 0 528.321 7.38401 1
1 -28 1 874.799 12.3548 1
1 -28 2 1079.81 16.7625 1
1 -28 3 67.1887 6.91648 1
-1 -29 2 2.90059 6.32305 1
1 -29 -1 38.7151 3.95149 1
-1 29 0 1507.52 16.6688 1
1 29 1 59.005 4.087 1
1 -29 2 1103.74 16.2703 1
2 0 -10 1253.37 19.9892 1
2 0 -8 981.597 12.1324 1
2 0 -6 4723.33 25.157 1
-2 0 4 88769.3 243.596 1
2 0 -2 10212.2 49.8119 1
2 0 0 11726 49.5521 1
2 0 2 22458 142.703 1
2 0 4 30.9547 5.94914 1
2 0 6 14260.4 41.9047 1
2 0 8 4134.79 25.181 1
2 0 10 257.157 11.7067 1
2 -1 10 1417.57 29.5807 -2
2 1 -11 1417.57 29.5807 1
2 1 9 367.845 12.0568 -2
2 -1 -10 367.845 12.0568 1
2 -1 8 3762.03 27.5472 -2
2 1 -9 3762.03 27.5472 1
-2 1 -7 5038.57 23.2007 -2
-2 -1 8 5038.57 23.2007 1
-2 -1 -6 260.672 7.6615 -2
-2 1 7 260.672 7.6615 1
2 -1 5 5078.44 23.1572 -2
2 1 -6 5078.44 23.1572 1
-2 1 -4 13990.1 46.7456 -2
-2 -1 5 13990.1 46.7456 1
2 1 3 7625.35 67.3488 -2
2 -1 -4 7625.35 67.3488 1
-2 -1 -2 13324.5 72.3337 -2
-2 1 3 13324.5 72.3337 1
2 -1 1 33983.4 83.8608 -2
2 1 -2 33983.4 83.8608 1
2 -1 0 4484.68 73.1679 -2
2 1 -1 4484.68 73.1679 1
2 -1 -1 5019.09 41.267 -2
2 1 0 5019.09 41.267 1
2 -1 -2 34967.4 92.6632 -2
2 1 1 34967.4 92.6632 1
2 -1 -3 12132.2 66.4163 -2
2 1 2 12132.2 66.4163 1
2 1 -4 8719.91 46.392 -2
2 -1 3 8719.91 46.392 1
2 1 -5 13452.9 36.1859 -2
2 -1 4 13452.9 36.1859 1
2 1 -6 5097.21 20.2046 -2
2 -1 5 5097.21 20.2046 1
2 1 -7 276.539 9.20275 -2
2 -1 6 276.539 9.20275 1
2 -1 -8 5471.05 28.6633 -2
2 1 7 5471.05 28.6633 1
-2 1 9 2996.01 23.4414 -2
-2 -1 -8 2996.01 23.4414 1
2 1 -10 392.868 11.2734 -2
2 -1 9 392.868 11.2734 1
2 1 -11 733.784 18.1413 -2
2 -1 10 733.784 18.1413 1
2 -2 10 566.343 20.6315 -2
2 2 -11 566.343 20.6315 1
2 2 9 2997.87 31.7176 -2
2 -2 -10 2997.87 31.7176 1
-2 -2 -8 1232.16 17.1385 -2
-2 2 9 1232.16 17.1385 1
-2 -2 -7 394.257 8.52837 -2
-2 2 8 394.257 8.52837 1
-2 2 -6 11069.7 35.1114 -2
-2 -2 7 11069.7 35.1114 1
2 -2 5 9000.46 30.3025 -2
2 2 -6 9000.46 30.3025 1
2 2 4 2256.5 17.4649 -2
2 -2 -5 2256.5 17.4649 1
2 -2 3 13467.1 89.4675 -2
2 2 -4 13467.1 89.4675 1
2 2 2 12961.9 57.8246 -2
2 -2 -3 12961.9 57.8246 1
-2 -2 -1 3916.48 28.2424 -2
-2 2 2 3916.48 28.2424 1
2 -2 0 25460.2 67.5972 -2
2 2 -1 25460.2 67.5972 1
2 -2 -1 25455.8 101.408 -2
2 2 0 25455.8 101.408 1
-2 -2 2 4189.57 31.3466 -2
-2 2 -1 4189.57 31.3466 1
2 -2 -3 12633 44.3947 -2
2 2 2 12633 44.3947 1
2 2 -4 14102.1 63.0004 -2
2 -2 3 14102.1 63.0004 1
2 -2 -5 1810.61 15.6655 -2
2 2 4 1810.61 15.6655 1
2 -2 -6 10803.6 29.7273 -2
2 2 5 10803.6 29.7273 1
2 2 -7 8563.3 30.7403 -2
2 -2 6 8563.3 30.7403 1
2 2 -8 289.225 9.20079 -2
2 -2 7 289.225 9.20079 1
2 -2 -9 944.387 14.9744 -2
2 2 8 944.387 14.9744 1
2 2 -10 2804.02 22.5447 -2
2 -2 9 2804.02 22.5447 1
2 2 -11 228.646 13.5237 -2
2 -2 10 228.646 13.5237 1
2 3 10 3387.12 28.4115 -2
2 -3 -11 3387.12 28.4115 1
2 -3 9 53.784 9.09197 -2
2 3 -10 53.784 9.09197 1
2 3 8 4086.75 28.149 -2
2 -3 -9 4086.75 28.149 1
2 -3 7 3140.68 20.9417 -2
2 3 -8 3140.68 20.9417 1
2 3 6 2435.09 17.403 -2
2 -3 -7 2435.09 17.403 1
2 3 5 11362.6 31.5604 -2
2 -3 -6 11362.6 31.5604 1
2 3 4 17094.7 41.7002 -2
2 -3 -5 17094.7 41.7002 1
-2 -3 -3 1711.61 24.3161 -2
-2 3 4 1711.61 24.3161 1
-2 -3 -2 1795.69 21.9376 -2
-2 3 3 1795.69 21.9376 1
-2 -3 -1 53977.6 99.6468 -2
-2 3 2 53977.6 99.6468 1
-2 3 0 11701.2 44.7629 -2
-2 -3 1 11701.2 44.7629 1
2 -3 -1 14102.8 62.9305 -2
2 3 0 14102.8 62.9305 1
2 -3 -2 45938 87.4502 -2
2 3 1 45938 87.4502 1
2 -3 -3 1879.83 19.8656 -2
2 3 2 1879.83 19.8656 1
2 3 -4 1416.64 16.9438 -2
2 -3 3 1416.64 16.9438 1
2 3 -5 19912.8 48.7012 -2
2 -3 4 19912.8 48.7012 1
2 3 -6 8925.14 28.8505 -2
2 -3 5 8925.14 28.8505 1
2 3 -7 2714.68 17.8808 -2
2 -3 6 2714.68 17.8808 1
2 3 -8 2331.37 18.352 -2
2 -3 7 2331.37 18.352 1
2 -3 -9 4269.32 33.9892 -2
2 3 8 4269.32 33.9892 1
2 -3 -10 31.7749 8.45238 -2
2 3 9 31.7749 8.45238 1
2 3 -11 2025.99 25.3309 -2
2 -3 10 2025.99 25.3309 1
2 -4 10 301.354 8.86297 -2
2 4 -11 301.354 8.86297 1
2 4 9 2962.31 22.8485 -2
2 -4 -10 2962.31 22.8485 1
-2 -4 -8 1423.06 17.6761 -2
-2 4 9 1423.06 17.6761 1
2 4 7 885.55 13.383 -2
2 -4 -8 885.55 13.383 1
2 -4 6 6919.72 27.233 -2
2 4 -7 6919.72 27.233 1
2 4 5 7320.17 27.022 -2
2 -4 -6 7320.17 27.022 1
2 -4 4 1806.39 13.8451 -2
2 4 -5 1806.39 13.8451 1
-2 4 -3 23353.4 85.9026 -2
-2 -4 4 23353.4 85.9026 1
2 -4 2 8638.55 47.0858 -2
2 4 -3 8638.55 47.0858 1
2 -4 1 9736.97 45.2935 -2
2 4 -2 9736.97 45.2935 1
2 -4 0 32620.4 78.735 -2
2 4 -1 32620.4 78.735 1
-2 4 1 32068.3 66.0402 -2
-2 -4 0 32068.3 66.0402 1
-2 4 2 8154.18 39.1632 -2
-2 -4 -1 8154.18 39.1632 1
-2 4 3 8911.47 43.6057 -2
-2 -4 -2 8911.47 43.6057 1
2 -4 -4 21916.8 64.6281 -2
2 4 3 21916.8 64.6281 1
2 4 -5 1407.57 13.7988 -2
2 -4 4 1407.57 13.7988 1
2 -4 -6 7465.41 30.0588 -2
2 4 5 7465.41 30.0588 1
2 -4 -7 6188.26 25.9651 -2
2 4 6 6188.26 25.9651 1
2 4 -8 629.848 12.4109 -2
2 -4 7 629.848 12.4109 1
2 4 -9 1393.58 21.1616 -2
2 -4 8 1393.58 21.1616 1
-2 4 10 2444.11 18.2464 -2
-2 -4 -9 2444.11 18.2464 1
2 4 -11 179.448 12.2045 -2
2 -4 10 179.448 12.2045 1
2 5 10 610.212 11.9386 -2
2 -5 -11 610.212 11.9386 1
2 5 9 342.689 11.884 -2
2 -5 -10 342.689 11.884 1
2 5 8 3123.33 29.4007 -2
2 -5 -9 3123.33 29.4007 1
2 5 7 10540.9 47.4446 -2
2 -5 -8 10540.9 47.4446 1
2 5 6 230.7 7.87826 -2
2 -5 -7 230.7 7.87826 1
2 5 5 4270.18 20.0508 -2
2 -5 -6 4270.18 20.0508 1
-2 5 -4 12282.9 32.6057 -2
-2 -5 5 12282.9 32.6057 1
-2 5 -3 10836.9 45.0266 -2
-2 -5 4 10836.9 45.0266 1
-2 -5 -2 12738.5 57.7898 -2
-2 5 3 12738.5 57.7898 1
-2 -5 -1 33306 81.5928 -2
-2 5 2 33306 81.5928 1
-2 5 0 4705.76 34.5649 -2
-2 -5 1 4705.76 34.5649 1
2 -5 -1 4795.95 29.1718 -2
2 5 0 4795.95 29.1718 1
-2 5 2 35997.8 81.0212 -2
-2 -5 -1 35997.8 81.0212 1
-2 5 3 10681.6 50.1349 -2
-2 -5 -2 10681.6 50.1349 1
2 5 -4 11735.2 46.8237 -2
2 -5 3 11735.2 46.8237 1
2 -5 -5 10122.5 41.9422 -2
2 5 4 10122.5 41.9422 1
-2 5 6 4400.13 22.3712 -2
-2 -5 -5 4400.13 22.3712 1
2 5 -7 191.031 8.36426 -2
2 -5 6 191.031 8.36426 1
2 -5 -8 11021.2 40.298 -2
2 5 7 11021.2 40.298 1
2 -5 -9 2184.2 31.1177 -2
2 5 8 2184.2 31.1177 1
2 -5 -10 291.18 10.0518 -2
2 5 9 291.18 10.0518 1
2 -5 -11 324.631 12.8875 -2
2 5 10 324.631 12.8875 1
2 -6 10 95.0238 7.35812 -2
2 6 -11 95.0238 7.35812 1
2 6 9 2074.82 21.7845 -2
2 -6 -10 2074.82 21.7845 1
2 6 8 2450.47 25.6019 -2
2 -6 -9 2450.47 25.6019 1
2 6 7 2752.9 22.4348 -2
2 -6 -8 2752.9 22.4348 1
2 6 6 9279.89 33.1294 -2
2 -6 -7 9279.89 33.1294 1
2 6 5 4461.3 22.4682 -2
2 -6 -6 4461.3 22.4682 1
2 6 4 1386.98 12.2852 -2
2 -6 -5 1386.98 12.2852 1
-2 -6 -3 20360.5 46.4271 -2
-2 6 4 20360.5 46.4271 1
-2 -6 -2 20858.2 74.2247 -2
-2 6 3 20858.2 74.2247 1
-2 -6 -1 3545.84 37.6507 -2
-2 6 2 3545.84 37.6507 1
-2 6 0 30691.5 112.568 -2
-2 -6 1 30691.5 112.568 1
-2 -6 1 31862.6 120.875 -2
-2 6 0 31862.6 120.875 1
2 6 -2 3557.74 30.8872 -2
2 -6 1 3557.74 30.8872 1
2 6 -3 21542.6 74.3994 -2
2 -6 2 21542.6 74.3994 1
2 -6 -4 15800 37.9898 -2
2 6 3 15800 37.9898 1
2 6 -5 1221.35 15.583 -2
2 -6 4 1221.35 15.583 1
-2 6 6 3564.9 30.5389 -2
-2 -6 -5 3564.9 30.5389 1
-2 6 7 9472.17 35.7073 -2
-2 -6 -6 9472.17 35.7073 1
-2 -6 8 1878.15 19.1737 -2
-2 6 -7 1878.15 19.1737 1
2 6 -9 2304.19 22.9691 -2
2 -6 8 2304.19 22.9691 1
-2 6 10 1437.6 16.5963 -2
-2 -6 -9 1437.6 16.5963 1
2 6 -11 80.8503 9.77356 -2
2 -6 10 80.8503 9.77356 1
2 7 10 1575.67 20.8874 -2
2 -7 -11 1575.67 20.8874 1
2 7 9 270.789 10.2955 -2
2 -7 -10 270.789 10.2955 1
2 -7 8 1993.12 27.7494 -2
2 7 -9 1993.12 27.7494 1
2 7 7 3296.85 28.2453 -2
2 -7 -8 3296.85 28.2453 1
2 7 6 316.752 7.96685 -2
2 -7 -7 316.752 7.96685 1
2 -7 5 3302.27 19.6119 -2
2 7 -6 3302.27 19.6119 1
2 7 4 10428.4 31.9289 -2
2 -7 -5 10428.4 31.9289 1
2 -7 3 3101.44 19.6339 -2
2 7 -4 3101.44 19.6339 1
2 -7 2 8794.4 46.2269 -2
2 7 -3 8794.4 46.2269 1
-2 7 -1 27899.5 95.7697 -2
-2 -7 2 27899.5 95.7697 1
2 -7 0 11598.3 78.2934 -2
2 7 -1 11598.3 78.2934 1
-2 7 1 13259.9 93.5595 -2
-2 -7 0 13259.9 93.5595 1
2 -7 -2 26570.9 96.5102 -2
2 7 1 26570.9 96.5102 1
2 7 -3 8098.13 48.1249 -2
2 -7 2 8098.13 48.1249 1
2 -7 -4 3267.71 17.4313 -2
2 7 3 3267.71 17.4313 1
2 -7 -5 10384.7 42.9867 -2
2 7 4 10384.7 42.9867 1
2 7 -6 2507.02 25.6813 -2
2 -7 5 2507.02 25.6813 1
2 7 -7 369.5 10.4543 -2
2 -7 6 369.5 10.4543 1
2 -7 -8 2799.94 26.2744 -2
2 7 7 2799.94 26.2744 1
2 -7 -9 1446.58 21.3717 -2
2 7 8 1446.58 21.3717 1
-2 7 10 210.678 9.773 -2
-2 -7 -9 210.678 9.773 1
2 -7 -11 1315.95 17.6561 -2
2 7 10 1315.95 17.6561 1
-2 8 -10 344.269 13.7553 -2
-2 -8 11 344.269 13.7553 1
2 8 9 3385.65 29.5002 -2
2 -8 -10 3385.65 29.5002 1
2 -8 8 642.113 16.8941 -2
2 8 -9 642.113 16.8941 1
2 8 7 35.5094 6.79473 -2
2 -8 -8 35.5094 6.79473 1
2 8 6 6701.3 29.6876 -2
2 -8 -7 6701.3 29.6876 1
-2 8 -5 17881.2 43.2807 -2
-2 -8 6 17881.2 43.2807 1
2 8 4 4463.26 21.3287 -2
2 -8 -5 4463.26 21.3287 1
-2 -8 -3 12862.8 35.4847 -2
-2 8 4 12862.8 35.4847 1
2 -8 2 13299.6 55.5047 -2
2 8 -3 13299.6 55.5047 1
-2 8 -1 1559.16 29.4164 -2
-2 -8 2 1559.16 29.4164 1
2 8 0 17997.8 89.0068 -2
2 -8 -1 17997.8 89.0068 1
-2 -8 1 14036.1 101.184 -2
-2 8 0 14036.1 101.184 1
-2 8 2 1414.65 29.2696 -2
-2 -8 -1 1414.65 29.2696 1
2 -8 -3 11028.4 39.0096 -2
2 8 2 11028.4 39.0096 1
2 -8 -4 14084.3 37.1574 -2
2 8 3 14084.3 37.1574 1
-2 8 5 3836.85 26.2872 -2
-2 -8 -4 3836.85 26.2872 1
2 8 -6 19465.9 52.731 -2
2 -8 5 19465.9 52.731 1
-2 -8 7 5055.94 24.4177 -2
-2 8 -6 5055.94 24.4177 1
2 -8 -8 52.5271 9.9511 -2
2 8 7 52.5271 9.9511 1
2 -8 -9 360.434 13.3601 -2
2 8 8 360.434 13.3601 1
2 8 -10 3033.91 23.7646 -2
2 -8 9 3033.91 23.7646 1
2 -8 -11 237.736 13.695 -2
2 8 10 237.736 13.695 1
2 -9 10 874.665 17.568 -2
2 9 -11 874.665 17.568 1
2 9 9 188.365 10.3441 -2
2 -9 -10 188.365 10.3441 1
2 -9 8 1573.59 29.1512 -2
2 9 -9 1573.59 29.1512 1
2 -9 7 3840.43 25.2922 -2
2 9 -8 3840.43 25.2922 1
2 9 6 1066.28 12.6792 -2
2 -9 -7 1066.28 12.6792 1
-2 9 -5 8909.57 36.8103 -2
-2 -9 6 8909.57 36.8103 1
2 9 4 16831.6 41.3659 -2
2 -9 -5 16831.6 41.3659 1
2 9 3 1854.09 13.8919 -2
2 -9 -4 1854.09 13.8919 1
2 9 2 7026.16 36.821 -2
2 -9 -3 7026.16 36.821 1
2 -9 1 26651.3 114.084 -2
2 9 -2 26651.3 114.084 1
2 -9 0 14607.6 90.5861 -2
2 9 -1 14607.6 90.5861 1
2 -9 -1 17093.2 101.113 -2
2 9 0 17093.2 101.113 1
2 9 -2 24500.4 117.117 -2
2 -9 1 24500.4 117.117 1
-2 -9 3 6835.3 31.3587 -2
-2 9 -2 6835.3 31.3587 1
2 -9 -4 2005.76 13.5072 -2
2 9 3 2005.76 13.5072 1
-2 -9 5 18148.8 56.416 -2
-2 9 -4 18148.8 56.416 1
2 9 -6 7135.79 32.7277 -2
2 -9 5 7135.79 32.7277 1
2 9 -7 1135.49 14.2822 -2
2 -9 6 1135.49 14.2822 1
2 -9 -8 3074.72 23.8027 -2
2 9 7 3074.72 23.8027 1
2 9 -9 1259.54 19.3053 -2
2 -9 8 1259.54 19.3053 1
2 9 -10 131.797 9.96922 -2
2 -9 9 131.797 9.96922 1
2 -9 -11 869.053 18.2382 -2
2 9 10 869.053 18.2382 1
-2 10 -10 106.69 9.38213 -2
-2 -10 11 106.69 9.38213 1
2 10 9 1511.87 20.973 -2
2 -10 -10 1511.87 20.973 1
-2 -10 -8 1855.65 29.4076 -2
-2 10 9 1855.65 29.4076 1
2 -10 7 1253.39 17.144 -2
2 10 -8 1253.39 17.144 1
-2 -10 -6 5727.67 26.6647 -2
-2 10 7 5727.67 26.6647 1
2 10 5 2698.99 21.3613 -2
2 -10 -6 2698.99 21.3613 1
-2 -10 -4 1622.31 15.113 -2
-2 10 5 1622.31 15.113 1
2 -10 3 17115.1 49.2584 -2
2 10 -4 17115.1 49.2584 1
2 10 2 18952 61.3456 -2
2 -10 -3 18952 61.3456 1
-2 10 -1 3941.71 30.6401 -2
-2 -10 2 3941.71 30.6401 1
-2 10 0 10434 91.9319 -2
-2 -10 1 10434 91.9319 1
2 10 -1 11187.4 63.2615 -2
2 -10 0 11187.4 63.2615 1
2 -10 -2 3337.52 19.5327 -2
2 10 1 3337.52 19.5327 1
2 10 -3 21384.8 53.4528 -2
2 -10 2 21384.8 53.4528 1
2 -10 -4 14073.7 36.3597 -2
2 10 3 14073.7 36.3597 1
2 10 -5 1707.71 19.3333 -2
2 -10 4 1707.71 19.3333 1
2 -10 -6 2279.7 21.2398 -2
2 10 5 2279.7 21.2398 1
2 10 -7 5807.61 28.6885 -2
2 -10 6 5807.61 28.6885 1
2 -10 -8 872.592 14.2179 -2
2 10 7 872.592 14.2179 1
2 10 -9 1656.81 21.18 -2
2 -10 8 1656.81 21.18 1
2 -10 -10 1285.42 17.8718 -2
2 10 9 1285.42 17.8718 1
2 -10 -11 115.834 9.17777 -2
2 10 10 115.834 9.17777 1
2 11 9 117.137 9.86903 -2
2 -11 -10 117.137 9.86903 1
-2 -11 -8 2903.67 63.6763 -2
-2 11 9 2903.67 63.6763 1
2 -11 7 6821.22 40.2966 -2
2 11 -8 6821.22 40.2966 1
-2 11 -6 263.873 7.92713 -2
-2 -11 7 263.873 7.92713 1
2 11 5 917.723 17.3887 -2
2 -11 -6 917.723 17.3887 1
-2 11 -4 9665.64 43.2429 -2
-2 -11 5 9665.64 43.2429 1
2 11 3 10803.2 55.313 -2
2 -11 -4 10803.2 55.313 1
2 11 2 11484.1 47.1829 -2
2 -11 -3 11484.1 47.1829 1
2 11 1 14948.7 47.885 -2
2 -11 -2 14948.7 47.885 1
2 -11 0 4986.84 28.6946 -2
2 11 -1 4986.84 28.6946 1
2 -11 -1 4632.64 26.227 -2
2 11 0 4632.64 26.227 1
2 11 -2 17534.8 52.1159 -2
2 -11 1 17534.8 52.1159 1
2 11 -3 9362.92 32.0934 -2
2 -11 2 9362.92 32.0934 1
2 -11 -4 11903.9 34.6841 -2
2 11 3 11903.9 34.6841 1
2 11 -5 8290.5 39.8934 -2
2 -11 4 8290.5 39.8934 1
2 11 -6 850.911 12.7439 -2
2 -11 5 850.911 12.7439 1
-2 11 7 245.965 8.73068 -2
-2 -11 -6 245.965 8.73068 1
2 -11 -8 7519.74 39.2506 -2
2 11 7 7519.74 39.2506 1
2 11 -9 1541.64 20.0271 -2
2 -11 8 1541.64 20.0271 1
2 -11 -10 215.089 11.0003 -2
2 11 9 215.089 11.0003 1
-2 12 -9 1635.13 14.2309 -2
-2 -12 10 1635.13 14.2309 1
-2 12 -8 1834.16 31.3458 -2
-2 -12 9 1834.16 31.3458 1
2 12 7 518.338 17.1981 -2
2 -12 -8 518.338 17.1981 1
2 12 6 5068.02 40.0213 -2
2 -12 -7 5068.02 40.0213 1
-2 12 -5 3424.31 35.1443 -2
-2 -12 6 3424.31 35.1443 1
2 -12 4 1146.86 18.8567 -2
2 12 -5 1146.86 18.8567 1
2 12 3 11985.4 49.5786 -2
2 -12 -4 11985.4 49.5786 1
2 12 2 9143.26 44.1974 -2
2 -12 -3 9143.26 44.1974 1
2 -12 1 1129.54 14.0633 -2
2 12 -2 1129.54 14.0633 1
2 -12 0 11685.5 47.5785 -2
2 12 -1 11685.5 47.5785 1
2 -12 -1 11792.3 43.0167 -2
2 12 0 11792.3 43.0167 1
2 -12 -2 937.823 14.4692 -2
2 12 1 937.823 14.4692 1
2 12 -3 10720.2 36.7577 -2
2 -12 2 10720.2 36.7577 1
2 -12 -4 10038.9 34.2679 -2
2 12 3 10038.9 34.2679 1
2 12 -5 1089.47 17.2425 -2
2 -12 4 1089.47 17.2425 1
2 -12 -6 3055.6 21.9724 -2
2 12 5 3055.6 21.9724 1
-2 12 7 4811.44 30.8379 -2
-2 -12 -6 4811.44 30.8379 1
2 -12 -8 458.206 10.4187 -2
2 12 7 458.206 10.4187 1
2 12 -9 2519.33 23.3694 -2
2 -12 8 2519.33 23.3694 1
2 -12 -10 1634.95 20.165 -2
2 12 9 1634.95 20.165 1
2 13 9 70.8292 5.98353 -2
2 -13 -10 70.8292 5.98353 1
-2 13 -8 992.448 30.4942 -2
-2 -13 9 992.448 30.4942 1
2 13 7 2796.73 27.3346 -2
2 -13 -8 2796.73 27.3346 1
2 13 6 272.206 11.7449 -2
2 -13 -7 272.206 11.7449 1
2 13 5 7274.09 41.7672 -2
2 -13 -6 7274.09 41.7672 1
-2 13 -4 7774.51 35.8434 -2
-2 -13 5 7774.51 35.8434 1
2 13 3 465.413 14.1743 -2
2 -13 -4 465.413 14.1743 1
-2 -13 -2 2783.62 24.6578 -2
-2 13 3 2783.62 24.6578 1
2 -13 1 17812.1 68.7802 -2
2 13 -2 17812.1 68.7802 1
-2 -13 0 12397.7 42.4718 -2
-2 13 1 12397.7 42.4718 1
-2 -13 1 15084.5 68.8773 -2
-2 13 0 15084.5 68.8773 1
2 13 -2 15199 50.8928 -2
2 -13 1 15199 50.8928 1
2 -13 -3 2896.5 21.9948 -2
2 13 2 2896.5 21.9948 1
2 -13 -4 496.196 11.0658 -2
2 13 3 496.196 11.0658 1
2 13 -5 9088.23 39.9217 -2
2 -13 4 9088.23 39.9217 1
2 -13 -6 5416.79 30.9079 -2
2 13 5 5416.79 30.9079 1
-2 13 7 374.778 11.237 -2
-2 -13 -6 374.778 11.237 1
2 13 -8 2185.29 18.0102 -2
2 -13 7 2185.29 18.0102 1
2 -13 -9 1291.7 19.1673 -2
2 13 8 1291.7 19.1673 1
2 -13 -10 65.8141 6.77006 -2
2 13 9 65.8141 6.77006 1
2 14 9 2015.39 20.6608 -2
2 -14 -10 2015.39 20.6608 1
2 -14 8 426.398 9.71345 -2
2 14 -9 426.398 9.71345 1
2 14 7 380.593 12.4767 -2
2 -14 -8 380.593 12.4767 1
2 14 6 6634.81 47.383 -2
2 -14 -7 6634.81 47.383 1
2 -14 5 8860.59 45.6838 -2
2 14 -6 8860.59 45.6838 1
-2 -14 -4 2006.48 19.6132 -2
-2 14 5 2006.48 19.6132 1
2 -14 3 7901.06 39.7611 -2
2 14 -4 7901.06 39.7611 1
2 -14 2 6282.95 32.3449 -2
2 14 -3 6282.95 32.3449 1
2 -14 1 608.289 15.8773 -2
2 14 -2 608.289 15.8773 1
2 -14 0 14793.5 55.2593 -2
2 14 -1 14793.5 55.2593 1
-2 -14 1 13074 57.2864 -2
-2 14 0 13074 57.2864 1
2 14 -2 656.377 15.0129 -2
2 -14 1 656.377 15.0129 1
2 -14 -3 5376.24 33.6076 -2
2 14 2 5376.24 33.6076 1
2 -14 -4 8515.24 36.4693 -2
2 14 3 8515.24 36.4693 1
-2 14 5 1472.12 20.4813 -2
-2 -14 -4 1472.12 20.4813 1
2 -14 -6 10019.5 47.1742 -2
2 14 5 10019.5 47.1742 1
-2 14 7 5222.4 36.085 -2
-2 -14 -6 5222.4 36.085 1
-2 14 8 331.797 9.0551 -2
-2 -14 -7 331.797 9.0551 1
2 -14 -9 317.455 11.0649 -2
2 14 8 317.455 11.0649 1
-2 14 10 1803.34 22.853 -2
-2 -14 -9 1803.34 22.853 1
2 15 9 45.7815 8.145 -2
2 -15 -10 45.7815 8.145 1
-2 15 -8 1414.48 15.4767 -2
-2 -15 9 1414.48 15.4767 1
2 -15 7 2622.78 18.7894 -2
2 15 -8 2622.78 18.7894 1
2 15 6 407.725 13.8107 -2
2 -15 -7 407.725 13.8107 1
-2 15 -5 2570.87 27.8471 -2
-2 -15 6 2570.87 27.8471 1
2 -15 4 5336.81 25.8027 -2
2 15 -5 5336.81 25.8027 1
2 15 3 1509.55 19.1828 -2
2 -15 -4 1509.55 19.1828 1
2 -15 2 7292 41.3326 -2
2 15 -3 7292 41.3326 1
2 -15 1 14761.3 55.5573 -2
2 15 -2 14761.3 55.5573 1
2 -15 0 3199.48 25.1521 -2
2 15 -1 3199.48 25.1521 1
-2 15 1 3582.9 34.1213 -2
-2 -15 0 3582.9 34.1213 1
2 -15 -2 15808.6 51.4044 -2
2 15 1 15808.6 51.4044 1
2 15 -3 5982.85 36.4296 -2
2 -15 2 5982.85 36.4296 1
2 -15 -4 1685.52 16.8731 -2
2 15 3 1685.52 16.8731 1
2 15 -5 4403.61 36.4662 -2
2 -15 4 4403.61 36.4662 1
2 -15 -6 2160.38 30.5426 -2
2 15 5 2160.38 30.5426 1
-2 15 7 468.459 14.2698 -2
-2 -15 -6 468.459 14.2698 1
-2 15 8 2611.09 22.443 -2
-2 -15 -7 2611.09 22.443 1
2 -15 -9 1041.98 15.2513 -2
2 15 8 1041.98 15.2513 1
-2 -15 10 74.7656 10.4774 -2
-2 15 -9 74.7656 10.4774 1
-2 16 -8 938.731 13.0526 -2
-2 -16 9 938.731 13.0526 1
2 -16 7 967.599 15.0857 -2
2 16 -8 967.599 15.0857 1
-2 16 -6 4142.72 26.3927 -2
-2 -16 7 4142.72 26.3927 1
2 16 5 1927.91 20.5836 -2
2 -16 -6 1927.91 20.5836 1
2 16 4 30.6686 6.56063 -2
2 -16 -5 30.6686 6.56063 1
2 16 3 10088.3 39.8354 -2
2 -16 -4 10088.3 39.8354 1
2 16 2 6112.58 38.2653 -2
2 -16 -3 6112.58 38.2653 1
2 16 1 1166.9 17.7201 -2
2 -16 -2 1166.9 17.7201 1
2 -16 0 8611.29 43.4381 -2
2 16 -1 8611.29 43.4381 1
-2 16 1 9832.19 53.4184 -2
-2 -16 0 9832.19 53.4184 1
2 -16 -2 980.792 16.9134 -2
2 16 1 980.792 16.9134 1
2 -16 -3 7042.78 39.3531 -2
2 16 2 7042.78 39.3531 1
2 -16 -4 7102.4 30.4327 -2
2 16 3 7102.4 30.4327 1
2 16 -5 43.1467 12.7549 -2
2 -16 4 43.1467 12.7549 1
2 -16 -6 1263.02 23.6652 -2
2 16 5 1263.02 23.6652 1
-2 16 7 4132.9 33.53 -2
-2 -16 -6 4132.9 33.53 1
2 -16 -8 717.723 12.4217 -2
2 16 7 717.723 12.4217 1
2 -16 -9 1189.51 14.5346 -2
2 16 8 1189.51 14.5346 1
2 -17 8 1222.6 13.128 -2
2 17 -9 1222.6 13.128 1
2 -17 7 3185.91 22.3013 -2
2 17 -8 3185.91 22.3013 1
-2 17 -6 68.8548 7.624 -2
-2 -17 7 68.8548 7.624 1
-2 17 -5 2069.03 18.0611 -2
-2 -17 6 2069.03 18.0611 1
2 17 4 6741.29 38.4197 -2
2 -17 -5 6741.29 38.4197 1
2 -17 3 3628.09 27.0714 -2
2 17 -4 3628.09 27.0714 1
2 17 2 3841.87 30.9352 -2
2 -17 -3 3841.87 30.9352 1
2 17 1 11794 58.8849 -2
2 -17 -2 11794 58.8849 1
-2 -17 0 1378.75 22.0164 -2
-2 17 1 1378.75 22.0164 1
2 -17 -1 1515.55 23.5579 -2
2 17 0 1515.55 23.5579 1
2 -17 -2 11769 52.2612 -2
2 17 1 11769 52.2612 1
2 -17 -3 2854.74 22.9326 -2
2 17 2 2854.74 22.9326 1
2 -17 -4 4005.31 39.6874 -2
2 17 3 4005.31 39.6874 1
2 -17 -5 4986.03 65.3917 -2
2 17 4 4986.03 65.3917 1
2 -17 -6 1790.87 36.7891 -2
2 17 5 1790.87 36.7891 1
-2 17 7 54.1591 8.03871 -2
-2 -17 -6 54.1591 8.03871 1
-2 17 8 2994.61 20.6875 -2
-2 -17 -7 2994.61 20.6875 1
2 -17 -9 903.251 14.5194 -2
2 17 8 903.251 14.5194 1
2 -18 7 204.648 7.31168 -2
2 18 -8 204.648 7.31168 1
-2 18 -6 3142.12 21.0588 -2
-2 -18 7 3142.12 21.0588 1
2 18 5 2387.52 17.5923 -2
2 -18 -6 2387.52 17.5923 1
2 -18 4 727.134 17.1691 -2
2 18 -5 727.134 17.1691 1
2 18 3 9216.23 50.475 -2
2 -18 -4 9216.23 50.475 1
2 18 2 2849.47 31.194 -2
2 -18 -3 2849.47 31.194 1
2 18 1 1319.41 24.6634 -2
2 -18 -2 1319.41 24.6634 1
-2 18 0 8612.69 49.5672 -2
-2 -18 1 8612.69 49.5672 1
-2 18 1 8013.82 49.0319 -2
-2 -18 0 8013.82 49.0319 1
2 -18 -2 1123.67 18.4928 -2
2 18 1 1123.67 18.4928 1
2 -18 -3 2834.57 25.496 -2
2 18 2 2834.57 25.496 1
2 -18 -4 8939.17 65.105 -2
2 18 3 8939.17 65.105 1
2 -18 -5 440.137 17.4168 -2
2 18 4 440.137 17.4168 1
2 -18 -6 2852.61 43.4719 -2
2 18 5 2852.61 43.4719 1
-2 18 7 2619.78 24.0127 -2
-2 -18 -6 2619.78 24.0127 1
-2 18 8 152.981 6.14539 -2
-2 -18 -7 152.981 6.14539 1
-2 -18 9 316.69 14.1637 -2
-2 18 -8 316.69 14.1637 1
2 19 7 901.069 17.4483 -2
2 -19 -8 901.069 17.4483 1
-2 19 -6 777.748 10.8187 -2
-2 -19 7 777.748 10.8187 1
2 19 5 3957.21 25.4858 -2
2 -19 -6 3957.21 25.4858 1
2 19 4 6513.72 57.253 -2
2 -19 -5 6513.72 57.253 1
2 19 3 35.6442 10.7342 -2
2 -19 -4 35.6442 10.7342 1
2 19 2 2328.3 39.5299 -2
2 -19 -3 2328.3 39.5299 1
-2 -19 -1 13626.5 63.5261 -2
-2 19 2 13626.5 63.5261 1
-2 19 0 3173.24 33.6296 -2
-2 -19 1 3173.24 33.6296 1
2 -19 -1 4025.69 29.497 -2
2 19 0 4025.69 29.497 1
-2 19 2 10664.7 58.0245 -2
-2 -19 -1 10664.7 58.0245 1
2 -19 -3 2041.66 30.2977 -2
2 19 2 2041.66 30.2977 1
2 -19 -4 27.855 13.3169 -2
2 19 3 27.855 13.3169 1
2 -19 -5 7343.65 69.512 -2
2 19 4 7343.65 69.512 1
-2 19 6 3362.62 30.5047 -2
-2 -19 -5 3362.62 30.5047 1
-2 19 7 889.388 13.8786 -2
-2 -19 -6 889.388 13.8786 1
2 -19 -8 695.693 11.2753 -2
2 19 7 695.693 11.2753 1
2 20 7 236.04 14.4005 -2
2 -20 -8 236.04 14.4005 1
2 20 6 2541.29 21.8102 -2
2 -20 -7 2541.29 21.8102 1
2 20 5 2121.44 25.5576 -2
2 -20 -6 2121.44 25.5576 1
-2 20 -4 248.659 16.7044 -2
-2 -20 5 248.659 16.7044 1
2 20 3 5061.3 37.6262 -2
2 -20 -4 5061.3 37.6262 1
2 20 2 5373.09 41.5234 -2
2 -20 -3 5373.09 41.5234 1
2 20 1 841.346 22.5895 -2
2 -20 -2 841.346 22.5895 1
2 20 0 7900.61 66.3258 -2
2 -20 -1 7900.61 66.3258 1
2 -20 -1 6983.91 47.2219 -2
2 20 0 6983.91 47.2219 1
2 -20 -2 966.059 22.9914 -2
2 20 1 966.059 22.9914 1
2 -20 -3 4697.14 41.5383 -2
2 20 2 4697.14 41.5383 1
2 -20 -4 4322.35 42.7468 -2
2 20 3 4322.35 42.7468 1
-2 20 6 2259.49 23.8866 -2
-2 -20 -5 2259.49 23.8866 1
-2 20 7 2364.94 15.5492 -2
-2 -20 -6 2364.94 15.5492 1
2 -20 -8 175.038 6.89811 -2
2 20 7 175.038 6.89811 1
2 21 6 16.1183 6.53465 -2
2 -21 -7 16.1183 6.53465 1
2 21 5 690.391 19.4241 -2
2 -21 -6 690.391 19.4241 1
2 21 4 1825.22 31.2451 -2
2 -21 -5 1825.22 31.2451 1
2 21 3 1862.61 23.2273 -2
2 -21 -4 1862.61 23.2273 1
2 21 2 1110.84 20.8944 -2
2 -21 -3 1110.84 20.8944 1
2 21 1 8173.78 55.3582 -2
2 -21 -2 8173.78 55.3582 1
2 -21 0 945.095 18.8975 -2
2 21 -1 945.095 18.8975 1
2 -21 -1 874.049 19.0514 -2
2 21 0 874.049 19.0514 1
2 -21 -2 8949.51 49.9682 -2
2 21 1 8949.51 49.9682 1
2 -21 -3 732.919 25.2522 -2
2 21 2 732.919 25.2522 1
2 -21 -4 1993.77 28.4875 -2
2 21 3 1993.77 28.4875 1
2 -21 -5 1760.88 33.0982 -2
2 21 4 1760.88 33.0982 1
-2 21 6 634.52 11.0593 -2
-2 -21 -5 634.52 11.0593 1
-2 21 7 11.5184 4.61211 -2
-2 -21 -6 11.5184 4.61211 1
2 22 6 2556.44 35.3591 -2
2 -22 -7 2556.44 35.3591 1
2 22 5 667.14 16.5692 -2
2 -22 -6 667.14 16.5692 1
2 22 4 20.3354 10.3304 -2
2 -22 -5 20.3354 10.3304 1
2 22 3 7284.33 46.3312 -2
2 -22 -4 7284.33 46.3312 1
2 22 2 4834.66 35.8857 -2
2 -22 -3 4834.66 35.8857 1
2 22 1 501.317 17.3633 -2
2 -22 -2 501.317 17.3633 1
2 22 0 3731.16 33.6588 -2
2 -22 -1 3731.16 33.6588 1
2 22 -1 4004.26 38.3947 -2
2 -22 0 4004.26 38.3947 1
2 -22 -2 402.536 14.0199 -2
2 22 1 402.536 14.0199 1
2 -22 -3 5000.94 33.1224 -2
2 22 2 5000.94 33.1224 1
2 -22 -4 5582.72 34.2132 -2
2 22 3 5582.72 34.2132 1
2 -22 -5 64.576 11.614 -2
2 22 4 64.576 11.614 1
-2 22 6 539.953 10.1343 -2
-2 -22 -5 539.953 10.1343 1
2 -22 -7 2918.63 21.1026 -2
2 22 6 2918.63 21.1026 1
2 23 5 926.499 19.5711 -2
2 -23 -6 926.499 19.5711 1
2 23 4 2721.88 25.7585 -2
2 -23 -5 2721.88 25.7585 1
2 23 3 800.312 16.7362 -2
2 -23 -4 800.312 16.7362 1
2 23 2 2304.32 23.8383 -2
2 -23 -3 2304.32 23.8383 1
2 23 1 6337.19 32.8128 -2
2 -23 -2 6337.19 32.8128 1
2 23 0 1559.51 21.7237 -2
2 -23 -1 1559.51 21.7237 1
2 -23 -1 1753.97 24.8236 -2
2 23 0 1753.97 24.8236 1
2 -23 -2 5783.53 31.8619 -2
2 23 1 5783.53 31.8619 1
2 -23 -3 1998.02 20.5828 -2
2 23 2 1998.02 20.5828 1
2 -23 -4 803.581 17.493 -2
2 23 3 803.581 17.493 1
2 -23 -5 2878.96 32.5296 -2
2 23 4 2878.96 32.5296 1
-2 23 6 850.085 12.1841 -2
-2 -23 -5 850.085 12.1841 1
2 -24 5 2405.98 24.3811 -2
2 24 -6 2405.98 24.3811 1
2 24 4 467.167 13.8518 -2
2 -24 -5 467.167 13.8518 1
2 24 3 2549.21 26.7225 -2
2 -24 -4 2549.21 26.7225 1
2 24 2 1037.19 12.9162 -2
2 -24 -3 1037.19 12.9162 1
2 24 1 198.298 8.53617 -2
2 -24 -2 198.298 8.53617 1
2 -24 0 4915.48 32.3412 -2
2 24 -1 4915.48 32.3412 1
2 24 -1 4167.93 23.3457 -2
2 -24 0 4167.93 23.3457 1
2 -24 -2 195.388 10.9421 -2
2 24 1 195.388 10.9421 1
2 -24 -3 863.836 13.2179 -2
2 24 2 863.836 13.2179 1
2 -24 -4 2724.44 21.4343 -2
2 24 3 2724.44 21.4343 1
-2 24 5 354.326 8.18818 -2
-2 -24 -4 354.326 8.18818 1
2 24 -6 1951.45 26.151 -2
2 -24 5 1951.45 26.151 1
2 -25 4 2639.89 15.5372 -2
2 25 -5 2639.89 15.5372 1
2 -25 3 452.246 7.91245 -2
2 25 -4 452.246 7.91245 1
2 25 2 622.165 9.97375 -2
2 -25 -3 622.165 9.97375 1
2 25 1 3868.72 20.0844 -2
2 -25 -2 3868.72 20.0844 1
2 -25 0 1096.19 14.1027 -2
2 25 -1 1096.19 14.1027 1
2 -25 -1 1199.75 12.8682 -2
2 25 0 1199.75 12.8682 1
2 -25 -2 3508.23 19.4891 -2
2 25 1 3508.23 19.4891 1
2 -25 -3 700.342 16.9278 -2
2 25 2 700.342 16.9278 1
2 25 -4 477.941 8.25523 -2
2 -25 3 477.941 8.25523 1
2 -25 -5 2485.63 30.9073 -2
2 25 4 2485.63 30.9073 1
2 -26 3 1769.03 16.6044 -2
2 26 -4 1769.03 16.6044 1
2 -26 2 1639.86 16.0472 -2
2 26 -3 1639.86 16.0472 1
2 26 1 433.444 7.8715 -2
2 -26 -2 433.444 7.8715 1
2 -26 0 2325.76 15.7334 -2
2 26 -1 2325.76 15.7334 1
2 26 -1 2402.28 15.6333 -2
2 -26 0 2402.28 15.6333 1
2 26 -2 337.898 9.30752 -2
2 -26 1 337.898 9.30752 1
2 -26 -3 1793.02 20.3785 -2
2 26 2 1793.02 20.3785 1
2 26 -4 1478.06 12.2779 -2
2 -26 3 1478.06 12.2779 1
2 27 2 1212.2 22.5382 -2
2 -27 -3 1212.2 22.5382 1
2 27 1 1502.52 13.2199 -2
2 -27 -2 1502.52 13.2199 1
2 27 0 169.904 10.646 -2
2 -27 -1 169.904 10.646 1
2 27 -1 157.717 7.35736 -2
2 -27 0 157.717 7.35736 1
2 27 -2 1774.54 13.8313 -2
2 -27 1 1774.54 13.8313 1
2 27 -3 1052.51 19.419 -2
2 -27 2 1052.51 19.419 1
3 0 -10 145.362 11.9723 1
3 0 -8 1245.26 14.7847 1
3 0 -6 15541.3 55.046 1
3 0 -4 2651.28 15.4709 1
3 0 -2 6459.54 19.4335 1
3 0 0 12548.1 32.8707 1
3 0 2 34.1714 3.75135 1
-3 0 -4 12409.8 40.7049 1
3 0 6 4803.86 34.1833 1
3 0 8 395.213 11.096 1
3 1 -10 169.564 12.2825 1
3 1 -9 19.5667 6.42221 1
3 -1 -8 711.156 8.71233 1
3 -1 -7 2320.34 14.5997 1
3 -1 -6 207.86 7.16621 1
-3 -1 5 2213.29 13.2016 1
3 -1 -4 2677.8 10.5479 1
3 1 -3 679.095 5.80562 1
3 1 -2 1646.37 8.46097 1
3 1 -1 11770.7 25.2589 1
3 1 0 2947.33 11.1111 1
3 -1 1 3784.12 9.95257 1
3 -1 2 4644.1 9.45977 1
3 1 3 2665.66 8.57837 1
3 -1 4 288.261 6.2382 1
-3 1 -5 4751.78 19.4256 1
3 -1 6 950.865 15.1814 1
3 1 7 336.157 10.963 1
3 1 8 663.262 10.4251 1
3 1 9 646.816 16.4283 1
3 2 -10 141.468 11.0562 1
3 -2 -9 2364.66 19.0655 1
3 2 -8 17.0751 5.2951 1
3 -2 -7 521.051 9.30225 1
3 -2 -6 721.944 9.04674 1
3 2 -5 2771.43 12.9116 1
3 2 -4 64.2175 4.10318 1
3 2 -3 8887.66 18.2724 1
3 -2 -2 1273.52 8.42837 1
3 2 -1 885.298 6.85835 1
3 2 0 2479.64 10.2166 1
3 -2 1 8220.67 14.4891 1
3 2 2 168.59 3.39297 1
-3 -2 -3 7642.72 15.1869 1
3 2 4 507.196 6.5845 1
3 -2 5 85.2939 5.54035 1
3 -2 6 271.834 10.8293 1
3 -2 7 2781.09 15.8789 1
3 2 8 3.54632 5.83536 1
3 2 9 367.183 13.6962 1
3 -3 -10 824.69 12.8834 1
3 -3 -9 4.56615 4.97052 1
3 3 -8 2284.11 14.6915 1
3 -3 -7 277.461 7.28028 1
3 3 -6 601.601 8.02803 1
3 3 -5 12.7174 3.66731 1
3 3 -4 15681.4 28.003 1
3 3 -3 20.5948 3.64022 1
3 3 -2 5914.88 13.3089 1
3 3 -1 193.152 4.12243 1
3 3 0 1795.36 7.476 1
3 3 1 50.3527 3.3955 1
3 -3 2 12519.8 15.9454 1
3 3 3 190.47 4.31893 1
3 3 4 1402.7 8.63924 1
3 3 5 92.8455 5.93992 1
3 -3 6 4985.64 29.1282 1
3 -3 7 4.42945 5.50858 1
3 3 8 2571.15 24.9729 1
3 -3 9 8.14381 5.79298 1
3 4 -10 184.801 6.23591 1
-3 4 9 795.401 8.59033 1
3 -4 -8 418.09 8.23567 1
3 -4 -7 375.458 9.93662 1
3 -4 -6 3163.64 16.7561 1
3 -4 -5 753.056 7.36474 1
3 4 -4 2080.98 12.0372 1
3 4 -3 7309.14 17.1606 1
3 4 -2 5193.13 11.953 1
3 -4 -1 146.95 3.78473 1
3 4 0 3580.91 9.50518 1
3 4 1 7634.95 15.1021 1
3 4 2 134.018 4.04479 1
3 4 3 4965.24 14.8093 1
3 -4 4 2791.78 12.8725 1
3 4 5 22.4841 5.2519 1
3 -4 6 1237.38 15.1474 1
3 -4 7 2084.94 17.38 1
3 4 8 35.482 7.78343 1
3 -4 9 63.1505 9.40612 1
-3 -5 10 10.9077 4.13655 1
3 5 -9 15.4048 4.18737 1
3 -5 -8 136.952 7.05209 1
3 -5 -7 3011.92 19.7329 1
3 5 -6 46.0209 6.22908 1
3 -5 -5 3160.35 13.435 1
3 5 -4 385.071 6.90925 1
3 5 -3 965.515 6.83563 1
3 5 -2 513.903 5.34593 1
3 5 -1 15589.7 21.7873 1
3 5 0 38.2012 3.21807 1
3 5 1 6164.05 12.7939 1
3 -5 2 585.729 5.74418 1
3 5 3 3751.33 13.2427 1
3 5 4 10.5268 4.84086 1
3 5 5 11072.9 30.3802 1
3 -5 6 0.70587 6.99168 1
3 -5 7 261.318 8.34174 1
3 -5 8 15.5512 8.43693 1
3 6 -10 476.196 8.55925 1
3 -6 -9 246.268 5.51823 1
3 -6 -8 1023.6 16.9566 1
3 6 -7 237.936 8.69228 1
3 -6 -6 5045.86 21.3146 1
3 -6 -5 357.25 6.37586 1
3 6 -4 213.731 5.51222 1
3 6 -3 1565.66 8.44526 1
3 -6 -2 10364 18.9376 1
3 -6 -1 830.169 6.21883 1
3 6 0 11858.9 17.0913 1
3 -6 1 1010.71 5.78882 1
3 6 2 109.241 4.16123 1
3 -6 3 780.345 7.97238 1
3 6 4 8418.4 29.5641 1
3 -6 5 101.829 6.5039 1
3 -6 6 1850.37 17.0145 1
3 6 7 163.47 6.2376 1
3 -6 8 140.652 6.25651 1
3 7 -10 309.813 7.93503 1
-3 -7 9 5.67234 3.74754 1
3 7 -8 1084.94 19.0561 1
3 -7 -7 678.636 9.89237 1
3 -7 -6 203.874 6.62064 1
3 -7 -5 1347.2 9.88373 1
3 7 -4 6285.4 19.8412 1
3 7 -3 262.381 4.59384 1
3 -7 -2 4527.41 12.5026 1
3 7 -1 6089.77 15.0757 1
3 -7 0 2485.74 8.79462 1
3 7 1 1151.63 7.02475 1
3 7 2 5453.72 17.6363 1
3 -7 3 101.629 5.3631 1
3 -7 4 201.069 7.72707 1
3 -7 5 1141.97 12.3257 1
3 -7 6 1052.69 12.5376 1
3 -7 7 58.9397 5.46365 1
3 7 8 1665.81 13.3083 1
3 8 -10 7.02243 4.24482 1
3 8 -9 1418.68 11.043 1
3 -8 -8 7.01673 9.21719 1
3 -8 -7 732.271 11.5582 1
3 -8 -6 26.0208 4.79187 1
3 8 -5 3289.98 13.5568 1
3 8 -4 241.358 5.15669 1
3 -8 -3 6748.22 15.8997 1
3 -8 -2 34.5562 3.83587 1
3 -8 -1 18.5377 3.74637 1
3 8 0 50.3161 3.63115 1
3 8 1 9682.6 17.6219 1
3 -8 2 144.107 5.78355 1
3 -8 3 13118.5 30.7974 1
3 -8 4 554.556 10.8529 1
3 -8 5 17.8872 6.58659 1
3 -8 6 -1.85109 6.29415 1
3 -8 7 3887.91 17.2933 1
3 8 8 8.12463 4.79931 1
3 -9 -10 302.137 9.9315 1
3 9 -9 10.6007 5.60251 1
3 9 -8 2047.57 16.4158 1
3 -9 -7 488.141 7.63961 1
3 -9 -6 54.8725 5.17318 1
3 9 -5 1028.36 9.0351 1
3 9 -4 5956.46 17.5576 1
3 -9 -3 297.764 5.12443 1
3 -9 -2 5097.43 16.2361 1
3 -9 -1 2641.28 10.196 1
3 -9 0 1968.64 8.42389 1
3 9 1 1047.36 7.67245 1
3 -9 2 11964.8 25.4364 1
3 -9 3 616.283 9.53509 1
3 -9 4 865.096 12.1258 1
3 -9 5 1018.88 10.7856 1
3 -9 6 1614.95 14.184 1
3 9 7 27.1688 5.50424 1
3 9 8 1406.69 16.0748 1
3 10 -9 164.751 5.37468 1
3 10 -8 586.496 8.4994 1
3 -10 -7 77.7782 5.78336 1
3 -10 -6 4330.3 17.2262 1
3 10 -5 383.988 6.99112 1
3 -10 -4 852.558 9.68441 1
3 -10 -3 1192.24 8.96298 1
3 -10 -2 3824.39 14.6811 1
3 -10 -1 27.6837 3.98983 1
3 -10 0 9550.31 17.3145 1
3 10 1 1228.38 9.94862 1
3 10 2 651.588 7.78262 1
3 -10 3 463.014 8.07704 1
3 -10 4 5138.56 24.9252 1
3 -10 5 50.5784 5.74386 1
3 -10 6 1532.82 15.0678 1
3 10 7 851.404 16.3985 1
3 10 8 189.753 7.2197 1
3 11 -9 1.37335 3.42329 1
3 -11 -8 62.7634 5.87904 1
3 11 -7 2544.51 14.3629 1
3 -11 -6 15.8393 5.89589 1
3 11 -5 2725.99 17.4125 1
3 11 -4 44.7232 5.32354 1
3 -11 -3 1824.81 12.395 1
3 -11 -2 29.7712 4.68531 1
3 -11 -1 8093.12 18.7944 1
3 11 0 275.123 5.75832 1
3 11 1 5029.72 21.0603 1
3 11 2 979.06 9.56286 1
3 -11 3 1209.3 11.1573 1
3 -11 4 193.048 8.64276 1
3 -11 5 6812.09 23.8945 1
3 11 6 16.9746 6.57389 1
3 11 7 182.703 9.41175 1
3 11 8 2.25916 3.89757 1
3 12 -9 298.388 5.66626 1
3 12 -8 494.006 8.39878 1
3 -12 -7 89.7273 5.14856 1
3 -12 -6 2574.08 18.6092 1
3 12 -5 681.744 11.8105 1
3 -12 -4 308.375 6.99524 1
3 -12 -3 3021.34 15.9795 1
3 -12 -2 2659.14 14.7624 1
3 12 -1 8.23052 4.61382 1
3 -12 0 4151.21 15.0872 1
3 -12 1 1774.62 13.6796 1
3 12 2 716.404 8.7797 1
3 -12 3 1116.45 12.1694 1
3 -12 4 4303.04 35.5589 1
3 12 5 28.7844 6.01565 1
3 12 6 2483.84 17.9239 1
3 12 7 1317.07 17.6381 1
3 13 -9 5.78783 3.67187 1
3 13 -8 1663.52 12.1438 1
3 13 -7 110.987 4.8555 1
3 -13 -6 92.31 6.29429 1
3 13 -5 324.442 9.43717 1
3 13 -4 5198.28 20.1271 1
3 -13 -3 31.5869 5.54466 1
3 -13 -2 4646.68 17.9175 1
3 -13 -1 355.729 6.79494 1
3 -13 0 1158.11 11.5762 1
3 13 1 246.926 7.01326 1
3 13 2 5646.16 19.6401 1
3 13 3 606.103 9.80492 1
3 13 4 332.884 12.0277 1
3 13 5 310.925 7.71275 1
3 13 6 1685.81 14.2803 1
3 13 7 18.5558 6.04566 1
3 14 -8 56.7913 5.12315 1
3 -14 -7 414.486 6.27149 1
3 -14 -6 282.038 7.67241 1
3 14 -5 1566.46 13.5927 1
3 -14 -4 44.258 5.70592 1
3 -14 -3 3960.72 18.0222 1
3 -14 -2 295.37 6.83721 1
3 -14 -1 104.869 5.9529 1
3 -14 0 360.451 7.93119 1
3 14 1 5145.57 20.3115 1
3 14 2 93.6253 6.4293 1
3 14 3 7621.03 29.708 1
3 14 4 1599.26 19.9845 1
3 14 5 245.719 6.93636 1
3 14 6 127.71 8.10934 1
3 14 7 2853.61 21.0703 1
3 15 -8 283.824 6.03061 1
3 -15 -7 819.677 8.23202 1
3 15 -6 47.0667 5.44315 1
3 15 -5 1703.93 14.8221 1
3 -15 -4 2085.02 13.7331 1
3 -15 -3 18.4359 6.02838 1
3 -15 -2 1276.22 11.2371 1
3 -15 -1 3690.66 20.9327 1
3 -15 0 925.967 10.4354 1
3 15 1 662.351 8.57894 1
3 15 2 1492.89 12.3258 1
3 15 3 962.483 11.7882 1
3 15 4 274.231 9.5391 1
3 15 5 2238.25 15.7509 1
3 15 6 540.473 9.77764 1
3 15 7 126.24 5.51466 1
-3 16 8 312.394 9.10212 1
3 -16 -7 8.98261 3.62007 1
3 -16 -6 3043.11 15.8878 1
3 16 -5 9.8352 5.49899 1
3 16 -4 261.961 8.96143 1
3 -16 -3 11.8675 5.71136 1
3 -16 -2 3955.46 20.5069 1
3 -16 -1 6.91056 7.3931 1
3 -16 0 3504.98 17.2851 1
3 16 1 87.8325 5.82708 1
3 16 2 24.837 5.47693 1
3 16 3 115.928 7.1897 1
3 16 4 4431.44 31.6068 1
3 16 5 26.5185 4.9167 1
3 16 6 969.729 18.7229 1
3 -17 -7 989.456 16.9733 1
3 17 -6 16.3169 5.04941 1
3 17 -5 1009.84 13.8416 1
3 17 -4 946.2 12.1014 1
3 -17 -3 272.361 6.76479 1
3 -17 -2 307.539 9.22237 1
3 -17 -1 4433.45 21.4741 1
3 17 0 112.413 6.49434 1
3 17 1 2255.86 13.7976 1
3 17 2 903.142 9.47485 1
3 17 3 1117.39 10.865 1
3 17 4 11.702 7.53303 1
3 17 5 3005.18 15.2341 1
3 17 6 102.787 8.72939 1
3 18 -7 155.973 7.55387 1
3 -18 -6 506.686 7.52972 1
3 18 -5 423.716 9.40317 1
3 18 -4 313.289 11.0004 1
3 -18 -3 1955.23 14.6977 1
3 -18 -2 1131.16 11.4634 1
3 18 -1 32.1524 5.73027 1
3 18 0 1104.75 10.5127 1
3 18 1 4511.09 17.7966 1
3 -18 2 4.96019 4.80854 1
3 18 3 2111.54 14.7186 1
3 18 4 833.495 10.324 1
3 18 5 5.45384 4.21937 1
3 18 6 223.957 7.3128 1
-3 19 7 122.039 9.16675 1
3 19 -6 17.5957 3.72415 1
3 -19 -5 220.332 6.2922 1
3 19 -4 4256.53 34.1872 1
3 -19 -3 77.5056 6.42066 1
3 -19 -2 1533.74 11.3998 1
3 19 -1 6.042 5.1568 1
3 19 0 912.661 9.66852 1
3 19 1 7.33866 4.65507 1
3 -19 2 4928.13 19.6353 1
3 19 3 49.6919 6.33742 1
3 19 4 591.808 7.38998 1
3 19 5 81.1394 4.17429 1
3 20 -6 629.457 9.1234 1
3 -20 -5 826.741 11.1267 1
3 -20 -4 49.3788 10.1421 1
3 -20 -3 1975.57 12.9982 1
3 -20 -2 1140.88 9.28106 1
3 20 -1 240.195 7.11872 1
3 20 0 1452.58 9.93893 1
3 20 1 1811.68 13.1215 1
3 20 2 39.411 4.36504 1
3 20 3 1736.94 15.5718 1
3 20 4 754.405 6.5749 1
3 20 5 -1.70857 5.15874 1
3 -21 -5 230.057 6.85987 1
3 21 -4 256.941 9.08343 1
3 -21 -3 355.644 7.11074 1
3 -21 -2 134.526 5.31432 1
3 21 -1 3427.82 21.9224 1
3 21 0 90.3475 4.87778 1
3 -21 1 944.756 9.20003 1
3 21 2 357.638 6.76941 1
3 21 3 595.939 12.3161 1
3 21 4 6.03917 3.72543 1
3 -22 -5 119.3 5.89288 1
3 22 -4 108.149 7.30262 1
3 -22 -3 157.2 6.2029 1
3 -22 -2 1619.63 10.3297 1
3 22 -1 11.4699 5.06835 1
3 22 0 2498.62 15.7809 1
3 -22 1 74.0272 5.0762 1
3 22 2 1.13419 4.12121 1
3 22 3 102.49 6.23558 1
3 23 -4 728.798 9.83448 1
3 23 -3 76.5981 4.90314 1
3 -23 -2 551.577 6.52151 1
3 23 -1 1544.44 11.5005 1
3 23 0 602.055 9.20723 1
3 -23 1 307.766 6.88705 1
3 23 2 1330.99 14.652 1
3 24 -3 949.369 17.0207 1
3 24 -2 11.0732 5.25716 1
3 24 -1 57.2247 5.71576 1
3 24 0 32.0529 3.68158 1
3 -24 1 984.879 14.9957 1
4 0 6 3275.77 30.274 -2
4 0 -8 3275.77 30.274 1
4 0 4 3721.03 31.1138 -2
4 0 -6 3721.03 31.1138 1
4 0 2 9417.48 40.8924 -2
4 0 -4 9417.48 40.8924 1
4 0 0 5139.37 28.5155 -2
4 0 -2 5139.37 28.5155 1
4 0 -2 4574.37 23.9219 -2
4 0 0 4574.37 23.9219 1
4 0 -4 9482.12 52.6727 -2
4 0 2 9482.12 52.6727 1
4 0 -6 3085.26 38.4394 -2
4 0 4 3085.26 38.4394 1
4 0 -8 2190.44 31.9589 -2
4 0 6 2190.44 31.9589 1
4 -1 6 1295.82 15.1793 -2
4 1 -8 1295.82 15.1793 1
4 -1 5 813.469 12.793 -2
4 1 -7 813.469 12.793 1
4 -1 4 1291.67 15.8623 -2
4 1 -6 1291.67 15.8623 1
4 -1 3 3690.59 26.4079 -2
4 1 -5 3690.59 26.4079 1
4 1 2 657.467 10.083 -2
4 -1 -4 657.467 10.083 1
4 1 1 5606.44 22.1708 -2
4 -1 -3 5606.44 22.1708 1
4 1 0 2854.1 15.6352 -2
4 -1 -2 2854.1 15.6352 1
4 -1 -1 2541.63 17.7349 -2
4 1 -1 2541.63 17.7349 1
4 -1 -2 3076.33 15.7012 -2
4 1 0 3076.33 15.7012 1
4 1 -3 5279.6 17.7707 -2
4 -1 1 5279.6 17.7707 1
4 1 -4 601.894 12.5692 -2
4 -1 2 601.894 12.5692 1
4 1 -5 3632.9 22.544 -2
4 -1 3 3632.9 22.544 1
4 1 -6 1008.89 20.3119 -2
4 -1 4 1008.89 20.3119 1
4 1 -7 553.091 17.3459 -2
4 -1 5 553.091 17.3459 1
4 1 -8 910.93 15.8407 -2
4 -1 6 910.93 15.8407 1
4 -2 6 212.586 7.25013 -2
4 2 -8 212.586 7.25013 1
4 2 5 3788.07 23.6751 -2
4 -2 -7 3788.07 23.6751 1
4 -2 4 211.314 8.84323 -2
4 2 -6 211.314 8.84323 1
4 2 3 2635.22 19.0177 -2
4 -2 -5 2635.22 19.0177 1
4 2 2 848.141 10.2429 -2
4 -2 -4 848.141 10.2429 1
4 2 1 3516.62 17.9227 -2
4 -2 -3 3516.62 17.9227 1
4 2 0 802.969 9.41517 -2
4 -2 -2 802.969 9.41517 1
4 -2 -1 7535.12 28.5414 -2
4 2 -1 7535.12 28.5414 1
4 2 -2 703.056 9.18345 -2
4 -2 0 703.056 9.18345 1
4 2 -3 3919.17 17.3082 -2
4 -2 1 3919.17 17.3082 1
4 2 -4 819.039 10.7739 -2
4 -2 2 819.039 10.7739 1
4 -2 -5 1938.49 19.8078 -2
4 2 3 1938.49 19.8078 1
4 2 -6 197.847 13.8882 -2
4 -2 4 197.847 13.8882 1
4 2 -7 3213.98 47.2674 -2
4 -2 5 3213.98 47.2674 1
4 2 -8 123.387 9.39281 -2
4 -2 6 123.387 9.39281 1
4 3 6 2492.94 31.1097 -2
4 -3 -8 2492.94 31.1097 1
4 -3 5 13.5964 7.25544 -2
4 3 -7 13.5964 7.25544 1
4 -3 4 7315.44 33.0853 -2
4 3 -6 7315.44 33.0853 1
4 3 3 128.732 8.42161 -2
4 -3 -5 128.732 8.42161 1
4 3 2 2349.44 15.1516 -2
4 -3 -4 2349.44 15.1516 1
4 3 1 191.777 6.24051 -2
4 -3 -3 191.777 6.24051 1
4 3 0 6600.76 21.5664 -2
4 -3 -2 6600.76 21.5664 1
4 3 -1 52.3933 6.44056 -2
4 -3 -1 52.3933 6.44056 1
4 3 -2 7513.06 24.0115 -2
4 -3 0 7513.06 24.0115 1
4 3 -3 181.046 6.90019 -2
4 -3 1 181.046 6.90019 1
4 3 -4 1928.22 14.7561 -2
4 -3 2 1928.22 14.7561 1
4 3 -5 140.255 11.0042 -2
4 -3 3 140.255 11.0042 1
4 3 -6 6409.59 42.0596 -2
4 -3 4 6409.59 42.0596 1
4 3 -7 49.1621 15.6086 -2
4 -3 5 49.1621 15.6086 1
4 3 -8 2390.56 22.1195 -2
4 -3 6 2390.56 22.1195 1
4 4 6 782.702 13.2465 -2
4 -4 -8 782.702 13.2465 1
4 -4 5 2235.32 16.5721 -2
4 4 -7 2235.32 16.5721 1
4 4 4 1324.55 15.9097 -2
4 -4 -6 1324.55 15.9097 1
4 -4 3 1815.83 18.8127 -2
4 4 -5 1815.83 18.8127 1
4 4 2 3109.05 18.8802 -2
4 -4 -4 3109.05 18.8802 1
4 4 1 2371.02 14.258 -2
4 -4 -3 2371.02 14.258 1
4 4 0 1521.5 11.4517 -2
4 -4 -2 1521.5 11.4517 1
4 4 -1 5974.78 21.2707 -2
4 -4 -1 5974.78 21.2707 1
4 -4 -2 1354.78 12.9894 -2
4 4 0 1354.78 12.9894 1
4 4 -3 2675.57 16.4121 -2
4 -4 1 2675.57 16.4121 1
4 4 -4 2908.73 20.0419 -2
4 -4 2 2908.73 20.0419 1
4 -4 -5 1296.87 20.6366 -2
4 4 3 1296.87 20.6366 1
4 4 -6 1166.18 20.9247 -2
4 -4 4 1166.18 20.9247 1
4 4 -7 1993.51 37.8338 -2
4 -4 5 1993.51 37.8338 1
4 4 -8 412.994 11.667 -2
4 -4 6 412.994 11.667 1
4 -5 6 17.6348 6.09052 -2
4 5 -8 17.6348 6.09052 1
4 -5 5 876.079 12.241 -2
4 5 -7 876.079 12.241 1
4 -5 4 182.643 9.603 -2
4 5 -6 182.643 9.603 1
4 5 3 6839.05 42.8713 -2
4 -5 -5 6839.05 42.8713 1
4 5 2 112.553 7.09289 -2
4 -5 -4 112.553 7.09289 1
4 5 1 7185.73 23.0327 -2
4 -5 -3 7185.73 23.0327 1
4 5 0 216.229 7.28402 -2
4 -5 -2 216.229 7.28402 1
4 -5 -1 4013.73 18.0833 -2
4 5 -1 4013.73 18.0833 1
4 5 -2 236.258 7.90387 -2
4 -5 0 236.258 7.90387 1
4 5 -3 6756.74 27.5207 -2
4 -5 1 6756.74 27.5207 1
4 5 -4 73.6385 8.79249 -2
4 -5 2 73.6385 8.79249 1
4 -5 -5 7128.29 41.0453 -2
4 5 3 7128.29 41.0453 1
4 5 -6 120.729 14.3278 -2
4 -5 4 120.729 14.3278 1
4 5 -7 632.45 17.6341 -2
4 -5 5 632.45 17.6341 1
4 5 -8 27.2914 7.22651 -2
4 -5 6 27.2914 7.22651 1
4 -6 6 1368.69 12.6126 -2
4 6 -8 1368.69 12.6126 1
4 -6 5 303.659 8.54007 -2
4 6 -7 303.659 8.54007 1
4 6 4 1049.11 15.5582 -2
4 -6 -6 1049.11 15.5582 1
4 6 3 402.157 14.0772 -2
4 -6 -5 402.157 14.0772 1
4 6 2 7826.38 29.2201 -2
4 -6 -4 7826.38 29.2201 1
4 6 1 697.774 9.73516 -2
4 -6 -3 697.774 9.73516 1
4 6 0 4476.01 19.2603 -2
4 -6 -2 4476.01 19.2603 1
4 -6 -1 595.107 9.90174 -2
4 6 -1 595.107 9.90174 1
4 -6 -2 4191.8 17.8836 -2
4 6 0 4191.8 17.8836 1
4 6 -3 707.678 12.8915 -2
4 -6 1 707.678 12.8915 1
4 6 -4 7669.04 35.0699 -2
4 -6 2 7669.04 35.0699 1
4 -6 -5 266.504 12.4242 -2
4 6 3 266.504 12.4242 1
4 6 -6 968.497 22.6855 -2
4 -6 4 968.497 22.6855 1
4 6 -7 255.454 13.3318 -2
4 -6 5 255.454 13.3318 1
4 -6 -8 808.695 17.5518 -2
4 6 6 808.695 17.5518 1
4 -7 6 1677.99 24.6807 -2
4 7 -8 1677.99 24.6807 1
4 -7 5 305.192 7.05767 -2
4 7 -7 305.192 7.05767 1
4 7 4 3113.16 22.7195 -2
4 -7 -6 3113.16 22.7195 1
4 -7 3 745.507 17.2963 -2
4 7 -5 745.507 17.2963 1
4 7 2 1329.74 14.0497 -2
4 -7 -4 1329.74 14.0497 1
4 7 1 2113.55 13.956 -2
4 -7 -3 2113.55 13.956 1
4 7 0 3154.78 16.3471 -2
4 -7 -2 3154.78 16.3471 1
4 -7 -1 667.274 10.5705 -2
4 7 -1 667.274 10.5705 1
4 -7 -2 3393.07 18.9654 -2
4 7 0 3393.07 18.9654 1
4 7 -3 1910.91 18.6384 -2
4 -7 1 1910.91 18.6384 1
4 7 -4 969.523 17.5639 -2
4 -7 2 969.523 17.5639 1
4 -7 -5 777.92 15.9127 -2
4 7 3 777.92 15.9127 1
4 7 -6 2008.1 29.2971 -2
4 -7 4 2008.1 29.2971 1
4 7 -7 228.329 12.7574 -2
4 -7 5 228.329 12.7574 1
4 -7 -8 1198.61 18.2405 -2
4 7 6 1198.61 18.2405 1
4 -8 5 3853.39 20.9799 -2
4 8 -7 3853.39 20.9799 1
4 8 4 48.661 9.1743 -2
4 -8 -6 48.661 9.1743 1
4 -8 3 1897.56 20.3805 -2
4 8 -5 1897.56 20.3805 1
4 8 2 238.05 8.34245 -2
4 -8 -4 238.05 8.34245 1
4 8 1 4844.65 24.6585 -2
4 -8 -3 4844.65 24.6585 1
4 -8 0 29.2917 6.88788 -2
4 8 -2 29.2917 6.88788 1
4 -8 -1 8944.62 30.2634 -2
4 8 -1 8944.62 30.2634 1
4 8 -2 15.4705 8.1184 -2
4 -8 0 15.4705 8.1184 1
4 8 -3 5696.58 28.6615 -2
4 -8 1 5696.58 28.6615 1
4 8 -4 243.682 11.4489 -2
4 -8 2 243.682 11.4489 1
4 -8 -5 1234.19 21.1452 -2
4 8 3 1234.19 21.1452 1
4 8 -6 20.5363 9.29291 -2
4 -8 4 20.5363 9.29291 1
4 -8 -7 3931.02 44.7695 -2
4 8 5 3931.02 44.7695 1
4 -9 5 225.942 8.66954 -2
4 9 -7 225.942 8.66954 1
4 9 4 2769.09 17.5135 -2
4 -9 -6 2769.09 17.5135 1
4 -9 3 663.74 13.2382 -2
4 9 -5 663.74 13.2382 1
4 9 2 1528.19 14.8467 -2
4 -9 -4 1528.19 14.8467 1
4 9 1 1153.38 13.4658 -2
4 -9 -3 1153.38 13.4658 1
4 9 0 5877.68 25.0928 -2
4 -9 -2 5877.68 25.0928 1
4 -9 -1 814.509 11.9265 -2
4 9 -1 814.509 11.9265 1
4 -9 -2 6223.89 33.7049 -2
4 9 0 6223.89 33.7049 1
4 -9 -3 1057.76 13.7538 -2
4 9 1 1057.76 13.7538 1
4 9 -4 1326.75 20.6892 -2
4 -9 2 1326.75 20.6892 1
4 9 -5 620.595 13.9342 -2
4 -9 3 620.595 13.9342 1
4 9 -6 2180.38 22.9048 -2
4 -9 4 2180.38 22.9048 1
4 -9 -7 154.33 14.9458 -2
4 9 5 154.33 14.9458 1
4 10 5 914.576 11.7367 -2
4 -10 -7 914.576 11.7367 1
4 10 4 1180.85 13.0411 -2
4 -10 -6 1180.85 13.0411 1
4 -10 3 421.47 11.5272 -2
4 10 -5 421.47 11.5272 1
4 10 2 4251.63 21.4253 -2
4 -10 -4 4251.63 21.4253 1
4 10 1 240.039 9.40359 -2
4 -10 -3 240.039 9.40359 1
4 10 0 3404.94 21.9895 -2
4 -10 -2 3404.94 21.9895 1
4 -10 -1 969.941 16.8619 -2
4 10 -1 969.941 16.8619 1
4 -10 -2 3089.78 24.1838 -2
4 10 0 3089.78 24.1838 1
4 -10 -3 262.139 13.6666 -2
4 10 1 262.139 13.6666 1
4 -10 -4 3564.54 45.6342 -2
4 10 2 3564.54 45.6342 1
4 -10 -5 258.751 11.8665 -2
4 10 3 258.751 11.8665 1
4 -10 -6 916.816 18.6627 -2
4 10 4 916.816 18.6627 1
4 -10 -7 754.286 19.7026 -2
4 10 5 754.286 19.7026 1
4 -11 5 779.393 9.716 -2
4 11 -7 779.393 9.716 1
4 11 4 41.0895 6.14967 -2
4 -11 -6 41.0895 6.14967 1
4 -11 3 4682.64 23.1629 -2
4 11 -5 4682.64 23.1629 1
4 11 2 128.12 8.88768 -2
4 -11 -4 128.12 8.88768 1
4 11 1 4187.97 24.7102 -2
4 -11 -3 4187.97 24.7102 1
4 -11 0 469.35 12.3766 -2
4 11 -2 469.35 12.3766 1
4 -11 -1 2759.77 22.5148 -2
4 11 -1 2759.77 22.5148 1
4 -11 -2 477.016 13.3442 -2
4 11 0 477.016 13.3442 1
4 -11 -3 3144.98 55.566 -2
4 11 1 3144.98 55.566 1
4 -11 -4 89.2611 14.5642 -2
4 11 2 89.2611 14.5642 1
4 -11 -5 3634.8 22.528 -2
4 11 3 3634.8 22.528 1
4 -11 -6 37.1075 9.53989 -2
4 11 4 37.1075 9.53989 1
4 -11 -7 428.564 14.6102 -2
4 11 5 428.564 14.6102 1
4 -12 4 1151.17 17.1453 -2
4 12 -6 1151.17 17.1453 1
4 12 3 1010.47 13.7505 -2
4 -12 -5 1010.47 13.7505 1
4 -12 2 3652.44 28.3328 -2
4 12 -4 3652.44 28.3328 1
4 12 1 443.364 11.6373 -2
4 -12 -3 443.364 11.6373 1
4 -12 0 1981.89 22.2794 -2
4 12 -2 1981.89 22.2794 1
4 -12 -1 1473.96 18.0534 -2
4 12 -1 1473.96 18.0534 1
4 -12 -2 1579.13 17.9583 -2
4 12 0 1579.13 17.9583 1
4 -12 -3 479.51 16.01 -2
4 12 1 479.51 16.01 1
4 -12 -4 3082.17 29.4926 -2
4 12 2 3082.17 29.4926 1
4 -12 -5 572.996 12.7751 -2
4 12 3 572.996 12.7751 1
4 -12 -6 1104.04 17.3961 -2
4 12 4 1104.04 17.3961 1
4 13 4 3277.62 17.45 -2
4 -13 -6 3277.62 17.45 1
4 13 3 286.091 8.39706 -2
4 -13 -5 286.091 8.39706 1
4 -13 2 1477.71 17.688 -2
4 13 -4 1477.71 17.688 1
4 13 1 285.137 9.40381 -2
4 -13 -3 285.137 9.40381 1
4 -13 0 3328.37 34.549 -2
4 13 -2 3328.37 34.549 1
4 -13 -1 228.83 9.94191 -2
4 13 -1 228.83 9.94191 1
4 -13 -2 3128.38 28.2682 -2
4 13 0 3128.38 28.2682 1
4 -13 -3 241.341 14.9105 -2
4 13 1 241.341 14.9105 1
4 -13 -4 1047.69 17.5318 -2
4 13 2 1047.69 17.5318 1
4 -13 -5 218.684 12.7351 -2
4 13 3 218.684 12.7351 1
4 -13 -6 2466.34 30.5457 -2
4 13 4 2466.34 30.5457 1
4 14 4 81.0282 9.79896 -2
4 -14 -6 81.0282 9.79896 1
4 14 3 1460.79 13.0688 -2
4 -14 -5 1460.79 13.0688 1
4 -14 2 1020.61 13.0416 -2
4 14 -4 1020.61 13.0416 1
4 14 1 3448.33 24.9313 -2
4 -14 -3 3448.33 24.9313 1
4 -14 0 156.687 10.0002 -2
4 14 -2 156.687 10.0002 1
4 -14 -1 4374.21 31.2801 -2
4 14 -1 4374.21 31.2801 1
4 -14 -2 113.163 11.3735 -2
4 14 0 113.163 11.3735 1
4 -14 -3 3782.63 35.9749 -2
4 14 1 3782.63 35.9749 1
4 -14 -4 804.779 18.0506 -2
4 14 2 804.779 18.0506 1
4 -14 -5 748.318 15.99 -2
4 14 3 748.318 15.99 1
4 -14 -6 101.188 9.98861 -2
4 14 4 101.188 9.98861 1
4 15 3 1440.95 15.0405 -2
4 -15 -5 1440.95 15.0405 1
4 -15 2 452.456 11.9598 -2
4 15 -4 452.456 11.9598 1
4 -15 1 1719.94 14.6558 -2
4 15 -3 1719.94 14.6558 1
4 -15 0 1203.63 22.8086 -2
4 15 -2 1203.63 22.8086 1
4 -15 -1 352.578 13.5698 -2
4 15 -1 352.578 13.5698 1
4 -15 -2 1082.8 18.1078 -2
4 15 0 1082.8 18.1078 1
4 -15 -3 1673.33 32.5757 -2
4 15 1 1673.33 32.5757 1
4 -15 -4 279.02 11.5974 -2
4 15 2 279.02 11.5974 1
4 -15 -5 1165.06 16.5401 -2
4 15 3 1165.06 16.5401 1
4 16 3 24.4854 8.06292 -2
4 -16 -5 24.4854 8.06292 1
4 -16 2 4242.4 38.6471 -2
4 16 -4 4242.4 38.6471 1
4 16 1 57.1445 6.923 -2
4 -16 -3 57.1445 6.923 1
4 16 0 1565.97 22.4125 -2
4 -16 -2 1565.97 22.4125 1
4 -16 -1 35.1305 8.8794 -2
4 16 -1 35.1305 8.8794 1
4 -16 -2 1209.38 17.2859 -2
4 16 0 1209.38 17.2859 1
4 -16 -3 49.239 10.3178 -2
4 16 1 49.239 10.3178 1
4 -16 -4 1835.41 26.4606 -2
4 16 2 1835.41 26.4606 1
4 -16 -5 22.7312 8.04953 -2
4 16 3 22.7312 8.04953 1
4 17 2 90.0756 10.5332 -2
4 -17 -4 90.0756 10.5332 1
4 17 1 2235.54 18.2278 -2
4 -17 -3 2235.54 18.2278 1
4 17 0 387.54 12.251 -2
4 -17 -2 387.54 12.251 1
4 -17 -1 1430.34 16.9736 -2
4 17 -1 1430.34 16.9736 1
4 -17 -2 422.335 10.6749 -2
4 17 0 422.335 10.6749 1
4 -17 -3 1732.32 19.7459 -2
4 17 1 1732.32 19.7459 1
4 -17 -4 57.9355 7.52027 -2
4 17 2 57.9355 7.52027 1
4 -18 1 872.23 21.1642 -2
4 18 -3 872.23 21.1642 1
4 18 0 316.646 9.48414 -2
4 -18 -2 316.646 9.48414 1
4 -18 -1 3076.01 19.1901 -2
4 18 -1 3076.01 19.1901 1
4 -18 -2 340.108 9.18481 -2
4 18 0 340.108 9.18481 1
4 -18 -3 723.888 19.0166 -2
4 18 1 723.888 19.0166 1
4 -19 -1 14.3181 6.68387 -2
4 19 -1 14.3181 6.68387 1
5 0 -4 479.153 24.0155 1
5 1 -4 103.217 11.8435 1
5 1 -3 148.476 14.2763 1
5 2 -3 698.633 19.6306 1
5 3 -3 3.65021 12.1255 1
5 3 -2 1413.58 24.5313 1
5 3 -1 20.9698 12.1937 1
5 4 -3 394.416 9.28326 1
5 4 -2 32.1216 12.2712 1
5 4 -1 509.105 16.7263 1
5 5 -3 221.828 7.67604 1
5 5 -2 31.6993 13.3351 1
5 5 -1 403.423 14.528 1
5 5 0 3.21798 9.28252 1
5 6 -2 3.7891 7.24954 1
5 6 -1 86.6606 10.4275 1
5 6 0 812.323 12.6875 1
5 7 -1 9.6676 8.04406 1
-1 0 10 31.7102 6.01783 2
1 0 -8 3945.24 25.6201 2
1 0 -6 2185.68 38.9448 2
1 0 -4 12209.9 43.5246 2
1 0 -2 292966 148.85 2
1 0 0 26740.6 42.7583 2
-1 0 -2 11322.3 47.5929 2
-1 0 -4 14615.3 72.7327 2
1 0 6 38.2408 4.92374 2
1 0 8 7818.76 43.4207 2
1 0 10 3026.52 28.021 2
1 -1 -12 -9.45542 9.60851 2
-1 -1 11 74.3071 5.12184 2
-1 -1 10 799.182 10.0424 2
-1 -1 9 1587 10.9043 2
1 -1 -8 338.041 6.4208 2
1 1 -7 7702.4 22.9583 2
1 1 -6 1272.15 17.846 2
1 -1 -5 157.936 7.76268 2
1 1 -4 7011.87 24.4043 2
-1 1 3 12242 30.8257 2
1 1 -2 907.701 7.83812 2
1 -1 -1 9135.32 13.6321 2
1 -1 0 15581.6 52.4732 2
-1 1 -1 81.9673 5.80177 2
-1 1 -2 5053.14 20.4052 2
-1 1 -3 31164.7 57.5347 2
-1 1 -4 5337.77 28.2649 2
-1 1 -5 5843.83 42.247 2
1 -1 6 5372.08 17.7142 2
1 -1 7 1552.61 10.9448 2
1 -1 8 80.9375 6.28433 2
1 -1 9 2746.48 20.8124 2
1 1 10 550.071 13.9423 2
1 -1 11 213.353 10.403 2
1 -2 -12 27.9563 9.96016 2
-1 -2 11 1086.17 14.4336 2
-1 -2 10 10.2086 4.23371 2
1 2 -9 1672.65 11.7323 2
-1 -2 8 2033.3 12.3947 2
1 2 -7 2304.73 12.5282 2
1 2 -6 534.786 13.0977 2
1 2 -5 21012.2 67.0406 2
1 2 -4 158.16 7.61144 2
-1 2 3 4255.97 25.3019 2
1 2 -2 1333.43 11.1554 2
1 -2 -1 8078.86 25.4862 2
1 -2 0 1771.48 33.4645 2
-1 -2 -1 52088.5 65.4374 2
-1 2 -2 1212.63 8.91527 2
-1 2 -3 6839.44 27.3771 2
-1 2 -4 7482.86 35.2486 2
-1 2 -5 7833.24 48.4963 2
1 -2 6 106.02 4.02148 2
1 2 7 7235.54 21.5028 2
-1 2 -8 396.157 7.47784 2
1 2 9 35.4075 7.28121 2
1 2 10 177.671 9.72528 2
1 -2 11 1028.17 22.7135 2
1 -3 -12 99.6099 10.2063 2
-1 3 11 4.88153 4.24565 2
1 3 -10 2212.02 17.2181 2
1 -3 -9 60.4837 4.45491 2
-1 -3 8 199.027 5.32867 2
-1 -3 7 144.141 4.03382 2
1 3 -6 5632.63 37.1778 2
1 -3 -5 285.534 9.63772 2
1 3 -4 30192.1 60.3867 2
1 3 -3 547.591 8.52589 2
1 3 -2 1634.97 8.68044 2
1 3 -1 545.779 6.89763 2
1 3 0 105049 67.2145 2
-1 -3 -1 1292.9 12.3056 2
1 3 2 16630.2 33.8794 2
-1 3 -3 223.239 7.37067 2
-1 3 -4 913.104 13.5339 2
-1 3 -5 190.01 9.75503 2
1 -3 6 12432.7 27.7946 2
1 -3 7 150.536 4.84335 2
1 -3 8 1859.64 14.5036 2
1 -3 9 40.0026 6.61892 2
1 3 10 2096.66 18.9091 2
1 -3 11 6.63776 4.71559 2
-1 -4 12 232.36 8.33092 2
-1 4 11 427.421 8.52837 2
-1 4 10 40.8498 5.48347 2
-1 -4 9 1323.63 10.1219 2
-1 -4 8 2615.8 13.1522 2
-1 -4 7 547.9 6.47724 2
-1 -4 6 2551.51 17.3762 2
1 4 -5 9143.11 38.5768 2
1 4 -4 5128.09 24.5553 2
1 4 -3 3567.21 19.5707 2
1 4 -2 20999.1 33.9599 2
1 4 -1 3448.28 14.9001 2
1 4 0 20872 24.2678 2
-1 -4 -1 38723.6 78.7565 2
-1 -4 -2 14507.2 42.5247 2
-1 4 -3 889.476 10.9182 2
-1 4 -4 7009.29 29.8404 2
-1 4 -5 9159.32 43.1818 2
1 -4 6 15.8865 3.81513 2
1 -4 7 3800.26 16.4744 2
1 -4 8 2005.46 13.9351 2
1 4 9 6.59946 5.76158 2
1 4 10 642.239 10.4719 2
1 -4 11 676.376 14.4963 2
-1 5 11 126.36 4.81497 2
-1 -5 10 221.578 6.97801 2
-1 -5 9 1967.48 14.5664 2
-1 -5 8 111.034 4.58636 2
1 -5 -7 8860.57 21.1162 2
1 5 -6 420.213 5.65211 2
1 5 -5 1315.66 15.0924 2
1 5 -4 340.099 8.58427 2
1 5 -3 22078.2 50.5391 2
1 5 -2 74.6693 4.62308 2
-1 -5 1 25513.6 47.0691 2
1 5 0 410.41 4.79951 2
-1 -5 -1 6877.49 28.6318 2
-1 -5 -2 2961.56 21.4647 2
-1 -5 -3 41400.4 66.7513 2
-1 5 -4 282.711 8.43245 2
-1 5 -5 9090.69 45.3291 2
1 -5 6 1063.45 9.36403 2
1 5 7 2018.72 14.3801 2
1 5 8 12.6742 4.3854 2
1 5 9 5820.26 26.2743 2
1 5 10 18.0971 3.96602 2
1 -5 11 225.292 6.75772 2
-1 6 11 48.759 4.4298 2
-1 6 10 181.266 8.32267 2
-1 -6 9 200.196 6.16885 2
-1 -6 8 5021.35 19.0677 2
1 -6 -7 356.478 5.73578 2
1 6 -6 7779.48 19.9506 2
1 6 -5 2694.4 18.7512 2
1 6 -4 6931.64 28.735 2
1 6 -3 1931.53 16.0054 2
1 6 -2 39424.7 60.3637 2
1 6 -1 2017.74 11.9411 2
1 6 0 6284.54 14.8807 2
-1 6 -1 10484.2 25.2887 2
-1 6 -2 35606.4 64.4438 2
-1 -6 -3 2726.96 24.0843 2
-1 6 -4 17434.7 65.1511 2
1 -6 5 1692.53 16.7744 2
-1 6 -6 602.426 9.89448 2
-1 6 -7 305.252 8.14291 2
1 6 8 3907.36 20.183 2
1 6 9 67.3321 5.60077 2
1 6 10 1368.15 11.9428 2
1 -6 11 58.4068 4.62493 2
-1 7 11 25.4926 4.3372 2
1 7 -10 1330.75 17.4252 2
-1 -7 9 1274.12 11.1249 2
-1 -7 8 600.88 7.84666 2
-1 -7 7 2677.14 12.5303 2
1 7 -6 4905.33 16.585 2
1 7 -5 7.99979 5.83435 2
1 7 -4 5779.08 31.9302 2
1 7 -3 4841.96 25.7284 2
1 7 -2 257.717 7.52764 2
1 7 -1 6844.46 23.8023 2
1 7 0 18306.7 26.1769 2
-1 7 -1 119.679 4.6559 2
-1 -7 -2 16588.8 46.7395 2
-1 -7 -3 12953.5 43.6049 2
-1 7 -4 3538.52 29.1675 2
-1 7 -5 3455.18 23.5931 2
-1 7 -6 6148.43 28.2028 2
-1 7 -7 71.0691 5.52199 2
1 7 8 345.955 6.80693 2
1 7 9 950.255 10.2667 2
1 -7 10 385.012 7.09914 2
1 -7 11 28.2402 3.79659 2
-1 8 11 1729.97 19.5813 2
-1 8 10 189.085 8.50132 2
1 -8 -9 1460.86 12.9171 2
-1 -8 8 234.603 5.90717 2
-1 -8 7 806.114 7.7884 2
1 8 -6 6.92309 4.05148 2
1 8 -5 10478.1 42.6598 2
1 8 -4 832.88 14.107 2
1 8 -3 13401.2 34.8469 2
1 8 -2 25.8496 5.62264 2
1 8 -1 24815.4 49.3447 2
-1 8 0 4577.19 18.3468 2
-1 8 -1 21237 40.4388 2
-1 8 -2 72.0414 5.53098 2
-1 8 -3 438.754 8.21489 2
-1 8 -4 419.263 12.3301 2
1 8 5 9115.65 28.6173 2
-1 8 -6 715.896 10.7295 2
-1 8 -7 11903.8 36.7186 2
1 8 8 527.182 7.13937 2
1 8 9 61.6155 5.245 2
1 8 10 12.1236 4.73338 2
1 8 11 1315.92 15.5118 2
-1 9 11 101.368 4.7759 2
-1 9 10 1371.77 18.6384 2
1 -9 -9 339.997 7.42477 2
1 9 -8 638.943 8.65779 2
1 9 -7 1136.35 9.53224 2
1 9 -6 6439.77 22.206 2
1 9 -5 5.73929 5.59139 2
1 9 -4 21662.5 54.2716 2
1 9 -3 2944.78 18.68 2
1 9 -2 69.501 4.47029 2
-1 -9 1 4765.31 19.5092 2
-1 9 0 36846 57.8101 2
-1 9 -1 163.021 5.13882 2
-1 9 -2 22163.9 45.2523 2
-1 9 -3 5869.54 25.4751 2
-1 9 -4 3431.25 29.7132 2
1 9 5 1574.42 12.2696 2
-1 9 -6 9483.63 34.6971 2
-1 9 -7 643.958 7.93572 2
1 9 8 884.955 9.35789 2
1 9 9 698.022 8.5262 2
1 -9 10 283.805 7.50358 2
1 9 11 10.6073 4.1803 2
-1 10 11 121.395 4.52079 2
-1 10 10 182.698 10.1145 2
1 -10 -9 257.551 6.79855 2
1 10 -8 2735.45 16.114 2
1 10 -7 386.963 7.25836 2
1 10 -6 2540.2 14.5116 2
1 10 -5 1034.86 11.452 2
1 10 -4 5095.15 28.4746 2
1 10 -3 462.006 9.58136 2
-1 -10 2 30765.4 66.6713 2
-1 -10 1 849.837 9.82089 2
-1 10 0 7038.29 32.6539 2
-1 10 -1 2764.67 13.8187 2
-1 10 -2 9119.07 25.965 2
-1 10 -3 609.519 9.78903 2
-1 10 -4 16794.8 47.065 2
1 10 5 1669.36 11.4711 2
-1 10 -6 1229.41 10.1353 2
-1 10 -7 526.007 7.37941 2
1 10 8 3064.8 15.5337 2
1 -10 9 73.311 5.72135 2
1 10 10 736.169 14.3983 2
-1 11 11 14.4638 3.0511 2
-1 11 10 62.4932 7.66856 2
1 -11 -9 3121.49 18.317 2
1 11 -8 137.095 6.97567 2
1 11 -7 5439 20.9704 2
1 11 -6 45.6766 5.24653 2
1 11 -5 705.706 8.92065 2
1 11 -4 527.612 12.276 2
1 11 -3 17252.3 47.6577 2
1 -11 -2 30.6801 7.1394 2
-1 -11 1 17897.3 45.676 2
-1 11 0 353.577 9.92447 2
-1 11 -1 6422.31 24.1804 2
-1 11 -2 111.813 5.81548 2
-1 11 -3 16287.6 44.3491 2
1 11 4 789.461 9.28906 2
1 11 5 11053.1 31.3435 2
-1 11 -6 795.663 9.16105 2
-1 11 -7 178.746 5.83809 2
1 11 8 110.441 5.22021 2
-1 11 -9 3168.68 19.3016 2
1 11 10 2.67562 4.71589 2
-1 12 11 281.222 9.56703 2
-1 12 10 15.6895 6.31104 2
1 -12 -9 480.183 8.82507 2
1 12 -8 2004.04 18.221 2
1 12 -7 404.56 7.31632 2
1 12 -6 1323.59 11.1452 2
1 12 -5 2333.26 15.1609 2
1 12 -4 2707.24 17.3182 2
1 -12 -3 643.239 12.1939 2
-1 -12 2 18750.1 58.2551 2
-1 -12 1 1215.38 15.3195 2
-1 12 0 2135.51 21.0641 2
-1 12 -1 6936.74 29.2764 2
-1 12 -2 5096.13 23.3638 2
-1 12 -3 214.82 7.12934 2
-1 12 -4 8824.13 28.4585 2
1 12 5 2045.61 14.4456 2
1 12 6 365.694 7.55992 2
-1 12 -7 1588.68 15.1784 2
1 12 8 2073.6 17.4451 2
1 12 9 30.0377 5.00487 2
1 12 10 1025.07 18.4562 2
-1 13 11 34.0349 5.48941 2
-1 13 10 1181.84 17.3908 2
-1 13 9 25.1589 4.77087 2
1 13 -8 271.151 9.50693 2
1 13 -7 352.239 7.01426 2
1 13 -6 5625.15 22.0001 2
1 13 -5 15.186 5.03999 2
1 13 -4 12861.3 28.3687 2
1 -13 -3 907.32 14.6069 2
-1 -13 2 98.9552 9.1671 2
-1 -13 1 1357.02 17.8674 2
1 13 0 24052.1 65.8194 2
-1 13 -1 235.647 8.09631 2
-1 13 -2 17325.7 49.0826 2
-1 13 -3 1787.76 13.9353 2
-1 13 -4 1561.49 13.2331 2
1 13 5 220.927 6.61891 2
1 13 6 5309.91 22.9368 2
-1 13 -7 580.625 10.5531 2
1 13 8 269.55 7.30377 2
1 13 9 69.9289 5.09377 2
-1 13 -10 406.179 8.0083 2
-1 14 10 7.80708 5.34705 2
1 -14 -9 671.524 9.30496 2
1 14 -8 117.975 7.46217 2
1 14 -7 423.434 9.87841 2
1 14 -6 527.004 8.62955 2
1 14 -5 9449.86 29.8293 2
1 14 -4 570.577 7.6798 2
1 -14 -3 4883.81 20.9142 2
1 14 -2 1147.67 15.5902 2
1 14 -1 8086 39.7169 2
1 14 0 750.172 13.3112 2
-1 14 -1 18991.7 52.6221 2
-1 14 -2 1548.22 11.5577 2
1 14 3 523.567 8.18046 2
1 14 4 671.346 10.1545 2
1 14 5 5048.54 21.2156 2
1 14 6 98.1534 5.63116 2
1 14 7 5946.85 32.4457 2
1 -14 8 592.13 9.09037 2
1 14 9 52.9739 4.64391 2
-1 14 -10 56.5537 10.4364 2
-1 15 10 631.512 10.0145 2
1 -15 -9 547.065 7.92231 2
1 15 -8 97.3613 7.02416 2
1 15 -7 2339.73 22.2706 2
1 15 -6 1636.27 13.7915 2
1 15 -5 6.87043 5.94362 2
1 15 -4 3187.85 18.534 2
1 -15 -3 6399.74 25.1898 2
1 15 -2 46.91 6.78486 2
1 15 -1 8719.02 48.2117 2
1 15 0 8032.71 29.5671 2
-1 15 -1 36.8389 5.32804 2
-1 15 -2 4582.6 18.1438 2
-1 15 -3 10338.4 27.3022 2
1 15 4 854.144 11.1738 2
1 15 5 1642.48 13.3676 2
1 15 6 2057.73 14.8734 2
1 15 7 780.826 12.9265 2
1 15 8 411.492 8.44487 2
-1 15 -9 880.594 8.61126 2
-1 15 -10 89.5122 9.14582 2
-1 16 10 38.3577 4.0371 2
-1 16 9 46.2948 5.34401 2
1 16 -8 1998.21 18.2163 2
1 16 -7 5.80453 6.46811 2
1 16 -6 2030 15.0108 2
1 16 -5 66.4098 6.6267 2
1 16 -4 2645.1 19.4604 2
1 16 -3 65.1466 6.36058 2
1 16 -2 18008.8 50.9688 2
1 16 -1 172.8 11.4813 2
-1 -16 0 2327.66 20.2421 2
-1 16 -1 97.7984 5.77997 2
-1 16 -2 9454.96 28.0339 2
-1 16 -3 1.52385 5.00942 2
1 16 4 6367.7 23.8452 2
1 16 5 229.404 7.11864 2
1 16 6 92.5213 5.69822 2
1 16 7 130.517 7.19242 2
-1 16 -8 2404.45 15.3127 2
-1 16 -9 15.1868 4.80159 2
-1 17 10 155.819 6.06373 2
1 -17 -9 709.01 9.60097 2
1 17 -8 2.22203 5.23921 2
1 17 -7 2778.14 22.62 2
1 17 -6 790.671 12.1524 2
1 -17 -5 21.9626 7.20751 2
1 17 -4 1749.79 15.9881 2
1 -17 -3 9363.83 32.1855 2
1 -17 -2 20.1512 7.02742 2
1 17 -1 7987.9 43.8406 2
-1 -17 0 3175.6 26.1152 2
-1 17 -1 441.425 7.59025 2
-1 17 -2 1517.36 12.6756 2
-1 17 -3 10165.9 28.1704 2
1 17 4 65.6992 5.75827 2
1 17 5 3104.04 17.9757 2
1 17 6 1001.45 10.83 2
-1 17 -7 447.374 8.49263 2
-1 17 -8 87.5062 5.19252 2
-1 17 -9 1022.01 14.2896 2
-1 18 9 1033.44 13.0957 2
1 -18 -8 450.358 10.1312 2
1 18 -7 257.945 8.88072 2
1 18 -6 562.72 16.0237 2
1 18 -5 3971.67 24.0894 2
1 18 -4 702.118 11.0932 2
1 18 -3 1033.05 14.9412 2
1 -18 -2 4313.24 24.6372 2
1 18 -1 1403.34 19.5546 2
-1 -18 0 1795.08 20.7304 2
-1 18 -1 8147.88 28.2276 2
-1 18 -2 2924.84 17.6157 2
-1 18 -3 418.317 7.37534 2
1 18 4 1944.44 14.9 2
1 18 5 5363.55 23.4716 2
-1 18 -6 3.07463 4.98777 2
-1 18 -7 1520.69 14.1185 2
-1 18 -8 575.653 10.3707 2
-1 18 -9 5.95881 5.69627 2
-1 19 9 26.8198 4.51895 2
1 -19 -8 159.591 5.05844 2
1 19 -7 10.0964 5.66358 2
1 19 -6 1366.04 21.7832 2
1 19 -5 110.749 10.6085 2
1 19 -4 8190.99 35.7254 2
1 19 -3 1289.58 17.9173 2
1 -19 -2 24.9658 5.96862 2
-1 -19 1 1771.32 24.2974 2
-1 -19 0 19494.5 68.3489 2
-1 -19 -1 207.846 9.66428 2
-1 19 -2 3992.95 21.5746 2
-1 19 -3 19.1408 5.82673 2
1 19 4 954.08 11.0789 2
1 19 5 17.9854 5.03817 2
-1 19 -6 4836.06 21.169 2
-1 19 -7 24.9313 6.64128 2
-1 19 -8 443.882 8.37574 2
-1 20 9 278.657 5.97815 2
1 -20 -8 638.444 7.5746 2
1 20 -7 526.264 9.33096 2
1 20 -6 476.542 14.0145 2
1 20 -5 3284.32 33.0935 2
1 20 -4 88.757 8.45537 2
1 20 -3 835.896 13.0406 2
1 20 -2 4609.26 30.9023 2
1 -20 -1 3026.45 24.8281 2
-1 -20 0 161.561 11.4479 2
-1 -20 -1 7069.67 35.5434 2
-1 20 -2 2241.13 19.0182 2
-1 20 -3 1037.5 11.0716 2
1 20 4 2685.61 15.7814 2
1 20 5 1820.45 13.6778 2
-1 20 -6 16.1761 4.33555 2
-1 20 -7 1527.24 16.1407 2
-1 20 -8 427.735 7.30825 2
-1 21 8 20.4599 4.20325 2
1 -21 -7 3110.11 19.7435 2
1 -21 -6 185.028 10.2995 2
1 -21 -5 26.8143 8.61849 2
-1 21 4 304.791 8.8871 2
1 21 -3 1795.57 15.7221 2
1 21 -2 6.88438 8.19976 2
1 -21 -1 1622.38 17.0694 2
-1 -21 0 779.832 14.0591 2
-1 -21 -1 336.65 11.1101 2
-1 -21 -2 574.223 14.0707 2
-1 21 -3 8789.4 33.1358 2
1 21 4 100.779 5.39506 2
1 21 5 1851.34 15.3657 2
-1 21 -6 320.765 7.7196 2
-1 21 -7 242.4 8.52982 2
-1 22 8 1063.34 10.9373 2
-1 22 7 8.70178 4.22626 2
1 -22 -6 1147.64 13.8431 2
1 -22 -5 336.018 12.1498 2
1 -22 -4 837.018 11.958 2
1 -22 -3 19.1953 8.68307 2
1 22 -2 14310 65.4086 2
-1 -22 1 138.926 8.89767 2
-1 -22 0 771.021 13.4865 2
-1 -22 -1 541.301 12.5895 2
1 22 2 3818.58 27.3551 2
-1 -22 -3 23.2206 7.1199 2
1 22 4 4017.93 27.9309 2
1 22 5 45.3475 6.85319 2
-1 22 -6 41.3747 6.87947 2
-1 -22 -7 91.9545 6.83249 2
-1 23 7 901.945 11.9999 2
1 -23 -6 569.756 9.53663 2
1 -23 -5 6.91699 7.06472 2
1 -23 -4 2013.91 23.7144 2
-1 23 3 1938.03 16.8158 2
1 23 -2 11.0574 8.99648 2
1 23 -1 2255.61 18.3471 2
1 23 0 4128.21 30.6237 2
1 23 1 158.208 10.5241 2
1 23 2 1747.14 14.6297 2
-1 23 -3 3604.6 24.6337 2
1 23 4 686.483 14.746 2
-1 -23 -5 670.224 17.0552 2
-1 -23 -6 1311.78 18.9759 2
1 23 7 102.731 4.76269 2
-1 24 7 93.0287 5.96362 2
-1 24 6 26.0594 4.05706 2
1 -24 -5 3127.61 24.4567 2
1 24 -4 158.509 9.51122 2
-1 24 3 895.369 12.0129 2
-1 24 2 251.71 9.37465 2
1 24 -1 1313.67 15.7029 2
-1 24 0 101.303 8.3277 2
1 -24 1 6669.94 26.2194 2
-1 -24 -2 81.8232 6.88195 2
1 24 3 253.603 9.45702 2
1 24 4 112.66 8.42633 2
-1 -24 -5 1710.17 22.9341 2
-1 -24 -6 7.51005 5.05328 2
-1 25 6 829.187 13.7266 2
1 -25 -5 27.4207 6.64656 2
1 -25 -4 2402.45 29.2894 2
-1 25 3 500.081 10.7232 2
1 -25 -2 92.8522 5.67183 2
1 25 -1 395.913 10.0694 2
-1 25 0 4384.39 20.3778 2
1 25 1 92.4039 7.29223 2
1 25 2 1663.3 14.4217 2
1 25 3 874.579 12.8146 2
1 25 4 322.947 9.22825 2
-1 -25 -5 199.801 6.53289 2
1 26 -6 234.704 5.71992 2
1 26 -5 754.393 11.3418 2
1 -26 -4 646.716 9.29946 2
-1 26 3 229.824 6.9825 2
-1 26 2 2421.56 13.7393 2
1 26 -1 281.065 8.5101 2
-1 26 0 900.89 10.5662 2
1 26 1 1761.5 12.4293 2
1 26 2 1429.61 15.5684 2
1 26 3 32.8289 6.51654 2
1 26 4 1394.01 14.7895 2
1 26 5 181.04 6.50615 2
-1 27 5 8.01362 3.35131 2
1 27 -4 -1.14966 8.91949 2
1 27 -3 2067.56 17.8013 2
1 27 -2 1.92225 4.84764 2
1 27 -1 2637.29 15.9964 2
1 27 0 7.09124 5.1607 2
1 27 1 102.692 5.90846 2
1 27 2 73.9069 5.13443 2
1 27 3 1516.05 12.5804 2
-1 27 -4 2.60313 3.29084 2
1 -28 -3 359.997 7.92071 2
1 28 -2 1863.73 21.7213 2
1 28 -1 463.449 7.4736 2
1 28 0 491.494 7.70385 2
1 28 1 857.714 10.6105 2
1 28 2 1095.42 10.5411 2
-1 -28 -3 72.1804 4.43781 2
1 29 -2 2.68367 4.97169 2
-1 -29 1 28.375 4.42227 2
1 29 0 1176.89 10.5771 2
1 29 1 61.1834 3.58012 2
2 0 -10 717.821 19.9103 2
2 0 -8 662.29 16.8967 2
2 0 -6 3012.47 21.9798 2
2 0 -4 49108.6 117.928 2
2 0 -2 9418.86 45.7234 2
2 0 0 9733.03 110.362 2
-2 0 -2 15526.2 81.8321 2
2 0 4 31.5279 6.62 2
-2 0 -6 9794.74 43.7139 2
2 0 8 4827.51 24.7638 2
2 0 10 351.226 14.1318 2
3 0 -10 20.0891 13.3995 2
3 0 -8 947.935 25.0118 2
-3 0 6 13079.2 45.7972 2
3 0 -4 2121.74 9.56115 2
3 0 -2 5711.18 19.3464 2
3 0 0 10836.2 38.7728 2
3 0 2 60.236 5.05084 2
3 0 4 9827.09 39.3942 2
3 0 6 4436.32 27.489 2
3 0 8 713.611 19.8134 2
3 -1 -10 57.3978 13.4225 2
3 1 -9 30.4582 6.52134 2
3 1 -8 460.427 14.1378 2
3 1 -7 2051.79 15.426 2
3 1 -6 169.574 7.45226 2
3 -1 -5 1903.14 10.2819 2
3 -1 -4 2118.77 7.19169 2
3 -1 -3 540.818 4.10941 2
3 -1 -2 1437.98 7.61503 2
3 -1 -1 10781.8 21.4978 2
3 -1 0 2738.67 14.4695 2
3 -1 1 3187.37 10.8014 2
3 -1 2 4452.5 12.8477 2
3 -1 3 2539.15 13.2337 2
3 1 4 242.952 7.53018 2
3 1 5 4147.42 22.1018 2
3 1 6 947.331 10.7871 2
3 -1 7 354.157 7.21482 2
3 -1 8 1247.98 24.3767 2
3 -1 9 1373.08 17.3329 2
3 -2 -10 48.0294 8.03766 2
3 2 -9 1350.4 16.3295 2
3 2 -8 20.3059 9.01266 2
3 2 -7 447.825 9.15477 2
3 2 -6 589.467 8.35492 2
3 -2 -5 2348.27 10.1085 2
3 -2 -4 43.9263 3.21158 2
3 -2 -3 7396.73 12.3616 2
3 -2 -2 1135.47 6.8319 2
3 -2 -1 745.157 6.16937 2
3 -2 0 2172.22 9.13592 2
3 -2 1 7224.53 16.9952 2
3 -2 2 175.578 4.6193 2
3 -2 3 6991.6 17.7284 2
3 2 4 466.946 7.10377 2
3 2 5 110.969 5.81415 2
3 2 6 286.619 6.89761 2
3 -2 7 3007.79 17.2667 2
3 -2 8 1.51634 7.4214 2
3 2 9 1002.14 10.537 2
3 -3 -10 244.765 9.70396 2
3 3 -9 2.23827 5.74003 2
3 3 -8 1552.97 16.0651 2
3 -3 -7 232.725 9.66676 2
3 -3 -6 538.314 7.2673 2
3 -3 -5 11.2183 3.87956 2
3 -3 -4 13322.2 17.8504 2
3 -3 -3 17.4244 3.22914 2
3 -3 -2 5220.25 12.9353 2
3 -3 -1 153.561 3.81891 2
3 -3 0 1661.85 7.68994 2
3 -3 1 40.8562 3.38099 2
3 -3 2 11312.9 20.3614 2
3 -3 3 193.333 4.74142 2
3 3 4 1277.93 8.81975 2
3 3 5 84.716 5.0392 2
3 -3 6 4756.03 22.8281 2
3 -3 7 1.48884 4.81455 2
3 -3 8 3555.29 22.8472 2
3 3 9 24.863 3.646 2
3 -4 -10 77.8233 7.66232 2
3 4 -9 478.561 8.76875 2
3 4 -8 268.426 9.85711 2
3 -4 -7 303.85 9.42335 2
3 -4 -6 2547.33 13.4894 2
3 -4 -5 653.377 6.90027 2
3 4 -4 1689.02 7.9272 2
3 4 -3 6277.56 14.0058 2
3 -4 -2 4690.8 11.8547 2
3 -4 -1 115.405 3.81178 2
3 -4 0 3082.94 10.5701 2
3 -4 1 6741.08 15.4888 2
3 -4 2 129.365 4.31341 2
3 -4 3 4473.08 16.0844 2
3 4 4 2765.83 14.1981 2
3 4 5 15.2323 5.63767 2
3 4 6 1296.52 13.5894 2
3 -4 7 2188 14.8276 2
3 -4 8 35.6133 5.92109 2
3 -4 9 127.522 6.93202 2
3 -5 -10 13.5433 6.7442 2
3 5 -9 6.79073 4.91966 2
3 5 -8 86.5802 8.93755 2
3 5 -7 2459.56 18.6262 2
-3 -5 6 30.1796 6.48964 2
3 -5 -5 2616.07 13.3579 2
3 -5 -4 324.336 5.37546 2
3 5 -3 850.386 6.53982 2
3 -5 -2 469.702 5.02633 2
3 -5 -1 13701.1 19.9278 2
3 -5 0 29.0342 3.60455 2
3 5 1 5183.13 12.7469 2
3 5 2 516.767 5.83194 2
3 5 3 3456.36 13.6527 2
3 5 4 17.678 4.63388 2
3 5 5 11243.2 39.5165 2
3 5 6 14.1265 5.74985 2
3 -5 7 249.157 6.4462 2
3 -5 8 17.041 4.04835 2
3 -6 -10 170.38 8.15737 2
3 -6 -9 164.636 7.76499 2
3 6 -8 624.739 12.7966 2
3 6 -7 185.801 8.25296 2
3 6 -6 4429.08 21.8774 2
3 -6 -5 276.395 7.91298 2
3 -6 -4 171.082 5.10304 2
3 -6 -3 1305.36 6.84595 2
3 -6 -2 9463.96 16.5232 2
3 -6 -1 712.667 5.07856 2
3 6 0 10316.2 19.1453 2
3 6 1 870.03 6.72887 2
3 6 2 85.0975 4.15294 2
3 6 3 698.692 7.98839 2
3 6 4 8093.76 23.2299 2
3 6 5 127.575 6.96353 2
3 6 6 1904.54 18.0915 2
3 -6 7 175.532 6.03948 2
3 -6 8 142.845 4.90893 2
3 -7 -10 117.87 8.51 2
3 -7 -9 2.62954 5.96668 2
3 7 -8 522.282 9.79541 2
3 7 -7 597.766 9.25364 2
3 7 -6 156.35 9.97536 2
3 7 -5 1247.85 13.9165 2
3 7 -4 5332.97 17.7525 2
3 -7 -3 245.669 4.49135 2
3 -7 -2 3953.15 11.4445 2
3 7 -1 5393.2 11.8474 2
3 7 0 2219.21 10.1215 2
3 7 1 981.478 6.8023 2
3 7 2 4716.78 14.7078 2
3 7 3 102.926 4.64648 2
3 7 4 153.122 5.42337 2
3 7 5 1121.15 11.3568 2
3 7 6 1080.62 13.8024 2
3 7 7 53.4046 4.88417 2
3 -7 8 1481.31 15.0004 2
3 8 -9 878.142 12.6805 2
3 8 -8 5.30384 6.12254 2
3 8 -7 582.952 9.25945 2
3 8 -6 17.8533 8.78695 2
3 8 -5 3016.15 19.3926 2
3 -8 -4 203.291 6.6915 2
3 8 -3 5792.72 16.314 2
3 -8 -2 29.5507 3.76134 2
3 8 -1 19.7279 3.5075 2
3 8 0 46.2075 4.5508 2
3 8 1 8893.55 17.8167 2
3 8 2 126.983 4.22965 2
3 8 3 11290.6 23.2657 2
3 8 4 557.884 7.52227 2
3 8 5 22.6569 4.91792 2
3 8 6 5.30819 5.43209 2
3 -8 7 3190.27 21.1595 2
3 -8 8 3.21617 3.57471 2
3 -9 -9 11.2621 7.04196 2
3 9 -8 1030.99 11.3022 2
3 9 -7 338.461 7.72538 2
3 9 -6 41.7017 9.08689 2
3 9 -5 871.648 10.6577 2
3 9 -4 5232.01 21.2363 2
3 9 -3 235.134 6.33453 2
3 -9 -2 4537.8 12.4836 2
3 9 -1 2353.95 8.59288 2
3 9 0 1782.69 9.27724 2
3 9 1 930.054 7.06609 2
3 9 2 10289.5 22.1715 2
3 9 3 597.978 7.12286 2
3 9 4 792.158 9.60033 2
3 9 5 981.174 10.4618 2
3 9 6 1535.54 13.3724 2
3 -9 7 21.9293 3.75971 2
3 -9 8 775.875 15.2854 2
3 -10 -9 119 7.80804 2
3 -10 -8 345.476 10.5214 2
3 10 -7 55.0649 5.82606 2
3 10 -6 3213.4 24.4781 2
3 10 -5 347.555 10.7227 2
3 -10 -4 638.254 8.38516 2
3 -10 -3 936.938 9.74328 2
3 -10 -2 3451.53 11.8456 2
3 10 -1 21.6022 3.5094 2
3 10 0 8715.37 19.6975 2
3 10 1 1213.51 8.8662 2
3 10 2 625.588 7.48214 2
3 -10 3 407.543 7.41477 2
3 10 4 5069.93 19.7134 2
3 10 5 54.3857 5.35821 2
3 -10 6 1674.04 13.9043 2
3 -10 7 711.495 9.5862 2
3 -10 8 216.835 5.66571 2
3 -11 -9 1.77786 5.72028 2
3 -11 -8 23.7486 7.69681 2
3 11 -7 1750.16 12.8294 2
3 11 -6 1.299 6.71161 2
3 11 -5 2166.46 18.587 2
3 -11 -4 18.228 4.66431 2
3 -11 -3 1393.32 11.0122 2
3 -11 -2 22.5992 4.20699 2
3 11 -1 7099.93 15.7937 2
3 11 0 259.269 5.83394 2
3 11 1 4681.68 17.2305 2
3 11 2 801.648 8.20833 2
3 -11 3 1131.7 10.4931 2
3 11 4 177.812 7.92229 2
3 11 5 6154.35 22.7518 2
3 11 6 15.5681 5.17715 2
3 11 7 102.218 4.42071 2
3 -11 8 -0.37123 2.93157 2
3 -12 -9 228.813 7.8045 2
3 -12 -8 258.08 9.43045 2
3 -12 -7 70.5746 5.88574 2
3 12 -6 2079.77 19.0764 2
3 12 -5 537.066 11.2458 2
3 -12 -4 212.212 5.95276 2
3 -12 -3 2138.46 12.6206 2
3 12 -2 1975.85 11.7584 2
3 12 -1 14.1158 4.3856 2
3 12 0 3600.14 15.0697 2
3 12 1 1688.46 12.3244 2
3 12 2 671.947 7.86733 2
3 -12 3 966.853 10.1523 2
3 12 4 3974.78 22.8285 2
3 12 5 51.4805 5.25696 2
3 12 6 2110.78 16.4117 2
3 -12 7 980.572 11.3497 2
3 -13 -9 0.11346 4.28719 2
3 -13 -8 759.587 11.5876 2
3 -13 -7 82.0135 5.58967 2
3 -13 -6 48.217 7.68716 2
3 13 -5 249.812 9.10519 2
3 -13 -4 3639.26 16.3886 2
3 -13 -3 16.3756 5.24995 2
3 13 -2 3082.44 16.6653 2
3 13 -1 283.564 5.98329 2
3 13 0 1048.19 9.12574 2
3 13 1 222.887 6.67017 2
3 13 2 5017.7 18.9398 2
3 -13 3 539.723 9.09095 2
3 13 4 202.703 7.19746 2
3 13 5 264.444 6.15295 2
3 13 6 1531.55 13.1064 2
3 -13 7 13.8109 3.00602 2
3 -14 -8 38.4839 9.80334 2
3 -14 -7 292.924 6.68361 2
3 -14 -6 184.542 8.59768 2
3 -14 -5 985.88 20.0182 2
3 -14 -4 30.879 5.4846 2
3 -14 -3 2843.84 16.1527 2
3 14 -2 199.762 6.41371 2
3 14 -1 68.8227 6.07115 2
3 14 0 288.903 6.93199 2
3 14 1 4774.41 18.7903 2
3 14 2 85.9466 5.15508 2
3 -14 3 6805.4 24.7952 2
3 14 4 1481.89 13.0167 2
3 14 5 280.479 6.78913 2
3 14 6 115.502 5.00924 2
3 -14 7 2826.51 20.382 2
3 -15 -8 147.062 9.89674 2
3 -15 -7 558.222 7.45163 2
3 -15 -6 30.6949 6.52986 2
3 -15 -5 1176.86 15.5855 2
3 -15 -4 1367.32 11.1528 2
3 -15 -3 12.0871 4.9238 2
3 -15 -2 854.894 9.05946 2
3 15 -1 2350.41 17.4401 2
3 15 0 798.032 10.478 2
3 15 1 563.464 7.74879 2
3 15 2 1608.85 12.0917 2
3 -15 3 931.005 10.3054 2
3 15 4 229.729 6.65775 2
3 15 5 2114.98 13.5636 2
3 15 6 522.696 12.1527 2
3 -15 7 87.9792 6.54078 2
3 -16 -8 184.647 9.11823 2
3 -16 -7 7.94532 3.76845 2
3 -16 -6 2073.37 15.3108 2
3 -16 -5 5.12903 6.57589 2
3 -16 -4 176.696 6.15709 2
3 -16 -3 5.87643 4.69989 2
3 -16 -2 2999.63 17.3414 2
3 16 -1 2.85792 5.06568 2
3 16 0 2526.87 18.4868 2
3 16 1 91.4361 6.26319 2
3 16 2 28.87 5.10035 2
3 -16 3 115.059 7.80134 2
3 16 4 4023.45 18.1214 2
3 16 5 17.7022 4.12659 2
3 -16 6 1208.14 15.7208 2
3 -17 -7 1155.53 11.5991 2
3 -17 -6 14.8218 4.69957 2
3 -17 -5 686.694 11.3487 2
3 -17 -4 642.555 8.92694 2
3 -17 -3 198.73 5.72566 2
3 -17 -2 228.301 6.90956 2
3 17 -1 3200.75 16.7569 2
3 17 0 87.7644 7.49293 2
3 17 1 1805.65 13.1692 2
3 17 2 817.189 9.25703 2
3 -17 3 1194.72 14.7377 2
3 17 4 14.8516 4.91334 2
3 17 5 2512.31 15.1172 2
3 -17 6 139.735 8.03193 2
3 -18 -7 159.469 6.68653 2
3 -18 -6 427.187 6.67919 2
3 -18 -5 273.106 7.964 2
3 -18 -4 219.962 6.33147 2
3 -18 -3 1372.92 11.0454 2
3 -18 -2 890.812 8.91824 2
3 18 -1 21.2806 5.08212 2
3 18 0 902.048 10.4382 2
3 18 1 3838.35 19.6736 2
3 18 2 9.74469 4.70184 2
3 -18 3 1907.06 16.2188 2
3 18 4 713.592 8.51609 2
3 18 5 18.6981 3.78101 2
3 -19 -6 10.7433 3.10709 2
3 -19 -5 159.308 7.75632 2
3 -19 -4 3133.63 14.3839 2
3 -19 -3 55.8176 4.96033 2
3 -19 -2 1204.41 9.3885 2
3 19 -1 5.46794 4.86263 2
3 19 0 749.647 9.83446 2
3 19 1 11.9356 4.34947 2
3 19 2 4478.28 18.5851 2
3 -19 3 46.0921 7.1726 2
3 19 4 431.018 6.70143 2
3 -19 5 70.0206 4.95442 2
3 -20 -6 458.509 6.00405 2
3 -20 -5 830.381 12.9723 2
3 -20 -4 40.4338 5.66037 2
3 -20 -3 1403.83 10.8249 2
3 -20 -2 897.531 7.7726 2
3 -20 -1 193.55 5.58769 2
3 20 0 1155.22 9.87082 2
3 20 1 1548.79 10.073 2
3 -20 2 39.0775 4.8708 2
3 20 3 1404.86 20.1725 2
3 -20 4 610.349 9.67338 2
3 -21 -5 328.462 8.86161 2
3 -21 -4 279.946 7.5608 2
3 21 -3 249.046 5.63635 2
3 -21 -2 100.151 5.21131 2
3 -21 -1 2979.07 15.4232 2
3 21 0 73.3178 6.41375 2
3 21 1 792.738 8.28926 2
3 -21 2 336.527 8.71065 2
3 21 3 459.227 10.3247 2
3 21 4 6.76631 5.55993 2
3 -22 -5 122.04 5.38605 2
3 -22 -4 143.527 7.28587 2
3 22 -3 107.255 5.4313 2
3 -22 -2 1296.26 9.35201 2
3 -22 -1 8.42053 4.13147 2
3 -22 0 1990.86 13.4811 2
3 22 1 58.0119 4.71859 2
3 -22 2 11.526 4.91207 2
3 -22 3 57.046 4.59012 2
3 -23 -4 852 10.5653 2
3 23 -3 70.5538 4.12728 2
3 -23 -2 431.904 6.77148 2
3 -23 -1 1371.75 12.5188 2
3 23 0 531.793 7.03738 2
3 23 1 342.015 7.39112 2
3 -23 2 956.438 9.21437 2
3 -24 -3 1392.56 12.302 2
3 -24 -2 6.62819 4.26336 2
3 -24 -1 44.4367 5.46515 2
3 -24 0 31.6783 5.42011 2
3 -24 1 1103.67 8.80459 2
5 -1 0 63.455 14.32 2
5 -1 1 778.402 14.0098 2
5 -2 0 124.546 14.2974 2
5 -2 1 95.1828 12.4505 2
5 -3 0 42.1385 9.09501 2
5 -3 1 41.3312 10.7946 2
5 -4 -2 23.8192 11.2276 2
5 -4 0 394.024 11.1854 2
5 -4 1 -0.9327 9.62587 2
5 -5 -2 20.9796 9.78731 2
5 -5 0 -8.18854 8.12146 2
5 -6 -2 3.42284 8.40356 2
0 0 2 69908.2 148.504 -2
0 0 -2 69908.2 148.504 1
0 0 4 16721.3 80.3474 -2
0 0 -4 16721.3 80.3474 1
0 0 -6 20918.6 98.1053 -2
0 0 6 20918.6 98.1053 1
0 0 -8 127.323 10.1884 -2
0 0 8 127.323 10.1884 1
0 0 10 7774.07 58.4215 -2
0 0 -10 7774.07 58.4215 1
0 0 -12 1879.59 19.7378 -2
0 0 12 1879.59 19.7378 1
0 -1 1 33851.2 51.0148 -2
0 1 -1 33851.2 51.0148 1
0 1 -2 38067.3 71.8748 -2
0 -1 2 38067.3 71.8748 1
0 1 3 611.937 12.1856 -2
0 -1 -3 611.937 12.1856 1
0 1 4 8362.31 43.5768 -2
0 -1 -4 8362.31 43.5768 1
0 -1 -5 52563.8 117.191 -2
0 1 5 52563.8 117.191 1
0 -1 -6 4618.31 34.5624 -2
0 1 6 4618.31 34.5624 1
0 1 7 9639.76 34.8365 -2
0 -1 -7 9639.76 34.8365 1
0 -1 8 6360.32 31.1556 -2
0 1 -8 6360.32 31.1556 1
0 -1 -9 1155.38 15.0122 -2
0 1 9 1155.38 15.0122 1
0 1 10 76.4058 8.60498 -2
0 -1 -10 76.4058 8.60498 1
0 1 11 2480.07 22.7273 -2
0 -1 -11 2480.07 22.7273 1
0 -1 -12 346.706 9.27145 -2
0 1 12 346.706 9.27145 1
0 2 0 2226.96 10.1548 -2
0 -2 0 2226.96 10.1548 1
0 2 1 16909.5 30.7223 -2
0 -2 -1 16909.5 30.7223 1
0 -2 -2 3796.78 21.0474 -2
0 2 2 3796.78 21.0474 1
0 2 -3 135180 159.595 -2
0 -2 3 135180 159.595 1
0 -2 4 2273.3 24.0814 -2
0 2 -4 2273.3 24.0814 1
0 -2 5 14436.9 56.9007 -2
0 2 -5 14436.9 56.9007 1
0 2 6 12358.6 56.26 -2
0 -2 -6 12358.6 56.26 1
0 2 -7 11278.3 35.3119 -2
0 -2 7 11278.3 35.3119 1
0 -2 -8 21.4622 6.25896 -2
0 2 8 21.4622 6.25896 1
0 -2 -9 8504.64 35.3538 -2
0 2 9 8504.64 35.3538 1
0 -2 10 477.876 12.5453 -2
0 2 -10 477.876 12.5453 1
0 2 -11 131.409 9.86461 -2
0 -2 11 131.409 9.86461 1
0 2 -12 115.47 7.08826 -2
0 -2 12 115.47 7.08826 1
0 3 -1 110.002 5.11989 -2
0 -3 1 110.002 5.11989 1
0 -3 -2 220168 145.466 -2
0 3 2 220168 145.466 1
0 -3 3 3576.99 22.4817 -2
0 3 -3 3576.99 22.4817 1
0 3 4 33258.5 76.4747 -2
0 -3 -4 33258.5 76.4747 1
0 3 5 466.432 12.028 -2
0 -3 -5 466.432 12.028 1
0 3 6 1070.18 19.2383 -2
0 -3 -6 1070.18 19.2383 1
0 -3 7 361.635 8.6124 -2
0 3 -7 361.635 8.6124 1
0 -3 -8 15623.2 48.4219 -2
0 3 8 15623.2 48.4219 1
0 -3 -9 123.032 7.94423 -2
0 3 9 123.032 7.94423 1
0 3 10 2323.75 23.6298 -2
0 -3 -10 2323.75 23.6298 1
0 3 11 56.4844 8.30128 -2
0 -3 -11 56.4844 8.30128 1
0 3 12 1016.49 10.8198 -2
0 -3 -12 1016.49 10.8198 1
0 4 0 72733.2 105.176 -2
0 -4 0 72733.2 105.176 1
0 -4 -1 12722.6 33.4897 -2
0 4 1 12722.6 33.4897 1
0 -4 -2 43986.4 65.778 -2
0 4 2 43986.4 65.778 1
0 4 -3 65983.6 92.7661 -2
0 -4 3 65983.6 92.7661 1
0 -4 4 19159.7 60.1686 -2
0 4 -4 19159.7 60.1686 1
0 4 -5 2098.47 23.5518 -2
0 -4 5 2098.47 23.5518 1
0 -4 6 13389.8 56.9426 -2
0 4 -6 13389.8 56.9426 1
0 4 -7 10661.9 38.4066 -2
0 -4 7 10661.9 38.4066 1
0 4 8 83.4077 7.10857 -2
0 -4 -8 83.4077 7.10857 1
0 -4 9 4313.65 30.7647 -2
0 4 -9 4313.65 30.7647 1
0 4 10 2707.14 35.5773 -2
0 -4 -10 2707.14 35.5773 1
0 4 -11 14.5653 9.58966 -2
0 -4 11 14.5653 9.58966 1
0 4 12 380.461 11.106 -2
0 -4 -12 380.461 11.106 1
0 5 -1 84709.4 93.6929 -2
0 -5 1 84709.4 93.6929 1
0 5 2 836.173 12.4882 -2
0 -5 -2 836.173 12.4882 1
0 -5 -3 13092.2 42.7113 -2
0 5 3 13092.2 42.7113 1
0 -5 -4 3563.25 27.3382 -2
0 5 4 3563.25 27.3382 1
0 -5 5 55240.3 116.056 -2
0 5 -5 55240.3 116.056 1
0 5 -6 546.687 8.72095 -2
0 -5 6 546.687 8.72095 1
0 5 -7 13279.3 41.2303 -2
0 -5 7 13279.3 41.2303 1
0 -5 -8 1465.51 15.5102 -2
0 5 8 1465.51 15.5102 1
0 5 -9 1717.1 18.6654 -2
0 -5 9 1717.1 18.6654 1
0 5 -10 29.4289 11.9827 -2
0 -5 10 29.4289 11.9827 1
0 5 -11 4184.16 38.5479 -2
0 -5 11 4184.16 38.5479 1
0 -6 0 117030 145.386 -2
0 6 0 117030 145.386 1
0 -6 1 7602.17 30.024 -2
0 6 -1 7602.17 30.024 1
0 6 2 27795.7 60.7256 -2
0 -6 -2 27795.7 60.7256 1
0 6 -3 19978.4 55.0841 -2
0 -6 3 19978.4 55.0841 1
0 6 4 53407.3 101.49 -2
0 -6 -4 53407.3 101.49 1
0 -6 -5 3090.76 29.4546 -2
0 6 5 3090.76 29.4546 1
0 6 -6 27176.9 56.2256 -2
0 -6 6 27176.9 56.2256 1
0 -6 7 1867.35 16.1028 -2
0 6 -7 1867.35 16.1028 1
0 -6 -8 959.804 13.4891 -2
0 6 8 959.804 13.4891 1
0 -6 -9 349.716 12.8208 -2
0 6 9 349.716 12.8208 1
0 6 10 3651.56 42.5765 -2
0 -6 -10 3651.56 42.5765 1
0 6 11 45.3945 7.44379 -2
0 -6 -11 45.3945 7.44379 1
0 7 1 18443.3 52.5549 -2
0 -7 -1 18443.3 52.5549 1
0 7 -2 31579.9 68.893 -2
0 -7 2 31579.9 68.893 1
0 7 -3 37.0965 7.04434 -2
0 -7 3 37.0965 7.04434 1
0 -7 4 29111.2 77.727 -2
0 7 -4 29111.2 77.727 1
0 -7 -5 16987 65.566 -2
0 7 5 16987 65.566 1
0 7 -6 3915.31 21.8413 -2
0 -7 6 3915.31 21.8413 1
0 -7 7 6564.28 29.1769 -2
0 7 -7 6564.28 29.1769 1
0 -7 8 9909 46.0517 -2
0 7 -8 9909 46.0517 1
0 7 9 108.768 11.0331 -2
0 -7 -9 108.768 11.0331 1
0 7 10 648.435 20.6276 -2
0 -7 -10 648.435 20.6276 1
0 7 -11 978.874 14.4393 -2
0 -7 11 978.874 14.4393 1
0 -8 0 76.3153 10.413 -2
0 8 0 76.3153 10.413 1
0 -8 1 66588.6 100.294 -2
0 8 -1 66588.6 100.294 1
0 8 -2 10331.7 42.3623 -2
0 -8 2 10331.7 42.3623 1
0 -8 -3 48349.3 87.235 -2
0 8 3 48349.3 87.235 1
0 -8 -4 61.3819 8.42177 -2
0 8 4 61.3819 8.42177 1
0 8 -5 2008.67 24.2597 -2
0 -8 5 2008.67 24.2597 1
0 8 -6 922.254 11.6666 -2
0 -8 6 922.254 11.6666 1
0 -8 7 11361.7 43.6632 -2
0 8 -7 11361.7 43.6632 1
0 -8 -8 1358.56 17.6254 -2
0 8 8 1358.56 17.6254 1
0 8 9 15073.6 63.9322 -2
0 -8 -9 15073.6 63.9322 1
0 8 10 402.351 13.5522 -2
0 -8 -10 402.351 13.5522 1
0 8 11 62.8446 5.69294 -2
0 -8 -11 62.8446 5.69294 1
0 -9 -1 11187.2 44.7227 -2
0 9 1 11187.2 44.7227 1
0 -9 2 101987 160.061 -2
0 9 -2 101987 160.061 1
0 9 -3 16.7836 6.8317 -2
0 -9 3 16.7836 6.8317 1
0 9 4 40381.3 93.2086 -2
0 -9 -4 40381.3 93.2086 1
0 9 -5 7927.67 47.4774 -2
0 -9 5 7927.67 47.4774 1
0 9 -6 4932.23 27.4549 -2
0 -9 6 4932.23 27.4549 1
0 9 -7 2342.79 21.2967 -2
0 -9 7 2342.79 21.2967 1
0 -9 8 11018.4 47.2445 -2
0 9 -8 11018.4 47.2445 1
0 -9 -9 798.12 17.4775 -2
0 9 9 798.12 17.4775 1
0 9 -10 918.303 17.6698 -2
0 -9 10 918.303 17.6698 1
0 9 11 706.799 10.1427 -2
0 -9 -11 706.799 10.1427 1
0 -10 0 97710.1 197.208 -2
0 10 0 97710.1 197.208 1
0 10 1 1610.65 18.1703 -2
0 -10 -1 1610.65 18.1703 1
0 10 -2 21457.9 72.9413 -2
0 -10 2 21457.9 72.9413 1
0 10 -3 4794.57 34.1464 -2
0 -10 3 4794.57 34.1464 1
0 -10 4 15416.6 48.4657 -2
0 10 -4 15416.6 48.4657 1
0 -10 -5 1732.65 19.726 -2
0 10 5 1732.65 19.726 1
0 -10 -6 21364.2 59.6931 -2
0 10 6 21364.2 59.6931 1
0 -10 7 1883.44 19.3019 -2
0 10 -7 1883.44 19.3019 1
0 10 -8 1366.91 19.2281 -2
0 -10 8 1366.91 19.2281 1
0 10 9 733.804 14.1201 -2
0 -10 -9 733.804 14.1201 1
0 10 10 2658.4 21.3125 -2
0 -10 -10 2658.4 21.3125 1
0 10 11 84.5434 7.22998 -2
0 -10 -11 84.5434 7.22998 1
0 11 1 60992.9 105.218 -2
0 -11 -1 60992.9 105.218 1
0 11 2 1754.64 25.2555 -2
0 -11 -2 1754.64 25.2555 1
0 11 3 9231.71 51.5036 -2
0 -11 -3 9231.71 51.5036 1
0 11 4 234.189 9.13966 -2
0 -11 -4 234.189 9.13966 1
0 -11 -5 27142 77.699 -2
0 11 5 27142 77.699 1
0 -11 -6 1066.16 19.1272 -2
0 11 6 1066.16 19.1272 1
0 11 -7 18378.3 58.4094 -2
0 -11 7 18378.3 58.4094 1
0 11 -8 656.744 13.0567 -2
0 -11 8 656.744 13.0567 1
0 -11 -9 109.421 8.36993 -2
0 11 9 109.421 8.36993 1
0 11 10 103.771 9.68966 -2
0 -11 -10 103.771 9.68966 1
0 11 11 3090.18 23.3174 -2
0 -11 -11 3090.18 23.3174 1
0 12 0 61872.3 178.044 -2
0 -12 0 61872.3 178.044 1
0 -12 -1 2639.63 26.3623 -2
0 12 1 2639.63 26.3623 1
0 -12 -2 8581.23 51.2314 -2
0 12 2 8581.23 51.2314 1
0 12 -3 12553.9 62.0855 -2
0 -12 3 12553.9 62.0855 1
0 12 -4 8044.7 36.9912 -2
0 -12 4 8044.7 36.9912 1
0 12 5 1274.97 22.9381 -2
0 -12 -5 1274.97 22.9381 1
0 -12 -6 12303 72.5148 -2
0 12 6 12303 72.5148 1
0 -12 -7 2630.34 21.3603 -2
0 12 7 2630.34 21.3603 1
0 -12 -8 231.693 10.3533 -2
0 12 8 231.693 10.3533 1
0 12 9 2621.67 22.3004 -2
0 -12 -9 2621.67 22.3004 1
0 12 10 1914.33 24.4622 -2
0 -12 -10 1914.33 24.4622 1
0 12 11 50.1585 7.16928 -2
0 -12 -11 50.1585 7.16928 1
0 13 -1 3764.75 32.6377 -2
0 -13 1 3764.75 32.6377 1
0 -13 -2 60629.6 151.457 -2
0 13 2 60629.6 151.457 1
0 13 -3 313.23 13.4359 -2
0 -13 3 313.23 13.4359 1
0 13 -4 33127.3 61.7907 -2
0 -13 4 33127.3 61.7907 1
0 13 5 2572.02 26.6804 -2
0 -13 -5 2572.02 26.6804 1
0 -13 -6 1686.89 24.0716 -2
0 13 6 1686.89 24.0716 1
0 -13 -7 195.299 9.49808 -2
0 13 7 195.299 9.49808 1
0 -13 -8 6659.56 40.3147 -2
0 13 8 6659.56 40.3147 1
0 -13 -9 563.741 14.9892 -2
0 13 9 563.741 14.9892 1
0 13 10 407.568 11.2267 -2
0 -13 -10 407.568 11.2267 1
0 13 11 65.102 5.90353 -2
0 -13 -11 65.102 5.90353 1
0 14 0 2847.63 44.4839 -2
0 -14 0 2847.63 44.4839 1
0 -14 1 22462.6 81.7372 -2
0 14 -1 22462.6 81.7372 1
0 -14 -2 2572.94 31.2137 -2
0 14 2 2572.94 31.2137 1
0 14 3 45775.6 93.9365 -2
0 -14 -3 45775.6 93.9365 1
0 14 4 3036.62 20.4819 -2
0 -14 -4 3036.62 20.4819 1
0 -14 -5 1297.21 20.8935 -2
0 14 5 1297.21 20.8935 1
0 -14 6 943.69 19.3291 -2
0 14 -6 943.69 19.3291 1
0 -14 -7 5660.99 38.2632 -2
0 14 7 5660.99 38.2632 1
0 -14 -8 101.965 9.21543 -2
0 14 8 101.965 9.21543 1
0 -14 9 5881.5 39.4535 -2
0 14 -9 5881.5 39.4535 1
0 14 -10 405.667 10.3413 -2
0 -14 10 405.667 10.3413 1
0 -15 1 22443.3 90.9255 -2
0 15 -1 22443.3 90.9255 1
0 15 -2 16287 66.7394 -2
0 -15 2 16287 66.7394 1
0 -15 -3 47.5251 7.38301 -2
0 15 3 47.5251 7.38301 1
0 15 -4 8646.53 36.7762 -2
0 -15 4 8646.53 36.7762 1
0 -15 -5 14687.8 68.4359 -2
0 15 5 14687.8 68.4359 1
0 -15 -6 750.546 15.9912 -2
0 15 6 750.546 15.9912 1
0 -15 -7 2949.26 29.0905 -2
0 15 7 2949.26 29.0905 1
0 -15 -8 3126.8 30.1704 -2
0 15 8 3126.8 30.1704 1
0 -15 -9 814.763 14.7541 -2
0 15 9 814.763 14.7541 1
0 15 10 546.223 13.2924 -2
0 -15 -10 546.223 13.2924 1
0 -16 0 55345.9 206.584 -2
0 16 0 55345.9 206.584 1
0 -16 -1 526.377 15.1686 -2
0 16 1 526.377 15.1686 1
0 16 -2 8315.99 44.1679 -2
0 -16 2 8315.99 44.1679 1
0 16 3 227.757 8.51132 -2
0 -16 -3 227.757 8.51132 1
0 16 -4 13942.9 42.7678 -2
0 -16 4 13942.9 42.7678 1
0 16 -5 21.1712 8.88657 -2
0 -16 5 21.1712 8.88657 1
0 -16 -6 10154.3 51.5709 -2
0 16 6 10154.3 51.5709 1
0 -16 -7 303.595 16.5255 -2
0 16 7 303.595 16.5255 1
0 -16 -8 233.555 11.7868 -2
0 16 8 233.555 11.7868 1
0 16 -9 138.514 8.21075 -2
0 -16 9 138.514 8.21075 1
0 16 10 2599.81 22.0405 -2
0 -16 -10 2599.81 22.0405 1
0 -17 -1 26740.4 77.59 -2
0 17 1 26740.4 77.59 1
0 17 -2 7195.67 39.7835 -2
0 -17 2 7195.67 39.7835 1
0 17 -3 424.678 10.3797 -2
0 -17 3 424.678 10.3797 1
0 17 -4 3656.38 23.3681 -2
0 -17 4 3656.38 23.3681 1
0 17 -5 15625.6 65.8516 -2
0 -17 5 15625.6 65.8516 1
0 17 -6 36.7503 10.7133 -2
0 -17 6 36.7503 10.7133 1
0 -17 -7 4443.51 46.1774 -2
0 17 7 4443.51 46.1774 1
0 17 -8 1464.8 25.7216 -2
0 -17 8 1464.8 25.7216 1
0 -17 -9 324.738 11.8822 -2
0 17 9 324.738 11.8822 1
0 17 -10 159.449 6.61972 -2
0 -17 10 159.449 6.61972 1
0 -18 0 12967.3 124.952 -2
0 18 0 12967.3 124.952 1
0 18 -1 3550.57 30.3571 -2
0 -18 1 3550.57 30.3571 1
0 -18 2 3713.5 25.1043 -2
0 18 -2 3713.5 25.1043 1
0 -18 -3 17887.4 54.7816 -2
0 18 3 17887.4 54.7816 1
0 -18 -4 4301.53 24.6688 -2
0 18 4 4301.53 24.6688 1
0 -18 -5 1069.91 19.9726 -2
0 18 5 1069.91 19.9726 1
0 18 -6 2653.29 33.4031 -2
0 -18 6 2653.29 33.4031 1
0 -18 -7 6945.52 48.5512 -2
0 18 7 6945.52 48.5512 1
0 18 -8 18.5109 9.78039 -2
0 -18 8 18.5109 9.78039 1
0 -18 9 1733.49 20.1962 -2
0 18 -9 1733.49 20.1962 1
0 19 -1 4954.52 35.797 -2
0 -19 1 4954.52 35.797 1
0 -19 2 40336.3 80.4027 -2
0 19 -2 40336.3 80.4027 1
0 -19 3 445.908 11.8735 -2
0 19 -3 445.908 11.8735 1
0 -19 -4 7853.11 35.3501 -2
0 19 4 7853.11 35.3501 1
0 19 -5 12.4131 8.81248 -2
0 -19 5 12.4131 8.81248 1
0 -19 6 1145.66 20.7364 -2
0 19 -6 1145.66 20.7364 1
0 -19 -7 74.6856 10.9507 -2
0 19 7 74.6856 10.9507 1
0 -19 -8 6638.03 64.4328 -2
0 19 8 6638.03 64.4328 1
0 -19 9 39.492 6.61085 -2
0 19 -9 39.492 6.61085 1
0 -20 0 13973.6 98.3287 -2
0 20 0 13973.6 98.3287 1
0 -20 -1 4930.54 36.3034 -2
0 20 1 4930.54 36.3034 1
0 -20 -2 370.734 11.5407 -2
0 20 2 370.734 11.5407 1
0 -20 -3 15513.8 52.8605 -2
0 20 3 15513.8 52.8605 1
0 20 -4 3446.77 24.3654 -2
0 -20 4 3446.77 24.3654 1
0 20 -5 2210.74 27.7862 -2
0 -20 5 2210.74 27.7862 1
0 20 6 3973.9 29.1587 -2
0 -20 -6 3973.9 29.1587 1
0 20 7 2358.37 26.1257 -2
0 -20 -7 2358.37 26.1257 1
0 -20 -8 -3.17564 9.89918 -2
0 20 8 -3.17564 9.89918 1
0 -20 -9 1887.16 19.0518 -2
0 20 9 1887.16 19.0518 1
0 21 1 4906.3 36.6515 -2
0 -21 -1 4906.3 36.6515 1
0 -21 2 1375.66 19.5736 -2
0 21 -2 1375.66 19.5736 1
0 -21 3 279.055 11.0024 -2
0 21 -3 279.055 11.0024 1
0 21 -4 1018.48 17.9402 -2
0 -21 4 1018.48 17.9402 1
0 -21 -5 15019.4 77.8395 -2
0 21 5 15019.4 77.8395 1
0 21 6 121.705 9.30322 -2
0 -21 -6 121.705 9.30322 1
0 21 7 3231.47 28.245 -2
0 -21 -7 3231.47 28.245 1
0 21 8 442.802 10.0929 -2
0 -21 -8 442.802 10.0929 1
0 -22 0 41052.5 147.739 -2
0 22 0 41052.5 147.739 1
0 -22 -1 53.5522 11.388 -2
0 22 1 53.5522 11.388 1
0 -22 -2 2466.25 25.0203 -2
0 22 2 2466.25 25.0203 1
0 22 3 1617.43 24.8831 -2
0 -22 -3 1617.43 24.8831 1
0 22 4 6528 37.8504 -2
0 -22 -4 6528 37.8504 1
0 -22 5 69.6313 12.2117 -2
0 22 -5 69.6313 12.2117 1
0 22 6 6480.92 37.1478 -2
0 -22 -6 6480.92 37.1478 1
0 22 7 88.0156 7.5988 -2
0 -22 -7 88.0156 7.5988 1
0 -22 8 91.2585 5.45026 -2
0 22 -8 91.2585 5.45026 1
0 -23 -1 6526.39 54.0075 -2
0 23 1 6526.39 54.0075 1
0 23 2 9587.05 61.8381 -2
0 -23 -2 9587.05 61.8381 1
0 23 3 174.084 11.2049 -2
0 -23 -3 174.084 11.2049 1
0 -23 -4 3235.98 34.0006 -2
0 23 4 3235.98 34.0006 1
0 -23 5 5211.87 51.8081 -2
0 23 -5 5211.87 51.8081 1
0 -23 6 691.027 14.5282 -2
0 23 -6 691.027 14.5282 1
0 -23 -7 970.877 13.8161 -2
0 23 7 970.877 13.8161 1
0 24 0 683.379 25.8678 -2
0 -24 0 683.379 25.8678 1
0 24 1 3477.97 47.3043 -2
0 -24 -1 3477.97 47.3043 1
0 24 2 523.911 19.2321 -2
0 -24 -2 523.911 19.2321 1
0 24 3 14892.6 68.0122 -2
0 -24 -3 14892.6 68.0122 1
0 24 -4 181.136 11.808 -2
0 -24 4 181.136 11.808 1
0 -24 5 590.182 14.3406 -2
0 24 -5 590.182 14.3406 1
0 -24 6 174.646 8.56181 -2
0 24 -6 174.646 8.56181 1
0 24 7 2212.66 18.4169 -2
0 -24 -7 2212.66 18.4169 1
0 25 1 1594.2 23.7082 -2
0 -25 -1 1594.2 23.7082 1
0 25 -2 10913 61.2116 -2
0 -25 2 10913 61.2116 1
0 -25 -3 133.591 11.1842 -2
0 25 3 133.591 11.1842 1
0 -25 -4 3768.77 54.673 -2
0 25 4 3768.77 54.673 1
0 25 5 1271.22 19.3934 -2
0 -25 -5 1271.22 19.3934 1
0 -25 -6 345.531 9.80615 -2
0 25 6 345.531 9.80615 1
0 26 0 7874.73 63.5066 -2
0 -26 0 7874.73 63.5066 1
0 26 1 906.319 17.8106 -2
0 -26 -1 906.319 17.8106 1
0 26 2 2915.4 26.3175 -2
0 -26 -2 2915.4 26.3175 1
0 -26 -3 4026.89 31.285 -2
0 26 3 4026.89 31.285 1
0 -26 -4 2160.57 38.3884 -2
0 26 4 2160.57 38.3884 1
0 -26 -5 187.062 8.3988 -2
0 26 5 187.062 8.3988 1
0 -26 -6 2764.75 29.3599 -2
0 26 6 2764.75 29.3599 1
0 27 1 8614.97 42.1409 -2
0 -27 -1 8614.97 42.1409 1
0 27 -2 21.457 7.82026 -2
0 -27 2 21.457 7.82026 1
0 -27 -3 101.125 14.1026 -2
0 27 3 101.125 14.1026 1
0 27 -4 58.6176 6.69722 -2
0 -27 4 58.6176 6.69722 1
0 -27 -5 2517.07 21.7563 -2
0 27 5 2517.07 21.7563 1
0 28 0 8535.77 54.6418 -2
0 -28 0 8535.77 54.6418 1
0 28 1 1782.35 16.5659 -2
0 -28 -1 1782.35 16.5659 1
0 -28 -2 1676.4 33.0461 -2
0 28 2 1676.4 33.0461 1
0 -28 -3 2128.87 33.2766 -2
0 28 3 2128.87 33.2766 1
0 -28 -4 2272.26 21.4032 -2
0 28 4 2272.26 21.4032 1
0 -29 -1 175.277 10.6449 -2
0 29 1 175.277 10.6449 1
0 -29 -2 3619.14 39.4776 -2
0 29 2 3619.14 39.4776 1
0 -29 -3 82.1702 8.61173 -2
0 29 3 82.1702 8.61173 1
0 -30 0 275.628 12.3662 -2
0 30 0 275.628 12.3662 1
0 -30 -1 1957.8 18.0022 -2
0 30 1 1957.8 18.0022 1
-1 0 12 826.096 10.7204 1
1 0 -10 26.0312 12.5964 1
1 0 -8 4869.62 32.5676 1
1 0 -6 3748.93 54.8359 1
1 0 -4 15301.2 72.9679 1
1 0 -2 346346 180.756 1
1 0 0 31332.5 78.0846 1
-1 0 -2 12810.2 38.8825 1
-1 0 -4 17640.8 57.7067 1
1 0 6 56.4802 5.26789 1
1 0 8 8640.91 31.8917 1
1 0 10 2325.99 18.0019 1
-1 1 12 6.59104 4.96008 1
1 1 -11 129.707 12.5421 1
1 -1 -10 873.727 13.7043 1
1 -1 -9 1865.58 14.2504 1
1 1 -8 436.411 7.9533 1
-1 1 7 10313.8 24.7667 1
1 -1 -6 1926.26 25.9466 1
-1 -1 5 195.883 12.3537 1
1 1 -4 8866.11 34.9215 1
-1 1 3 15030.1 37.2178 1
-1 1 2 1234.26 9.54218 1
-1 -1 1 11765.2 27.8846 1
1 1 0 17816.1 34.7003 1
1 -1 1 83.1871 3.74972 1
-1 -1 -2 6025.49 21.4551 1
-1 1 -3 38833.6 52.925 1
1 -1 4 6307.37 26.7823 1
-1 -1 -5 7798.43 42.5628 1
-1 -1 -6 6182.08 17.1428 1
-1 -1 -7 1578.48 11.2902 1
1 -1 8 106.471 4.74692 1
-1 -1 -9 2828.81 15.8163 1
1 -1 10 444.691 7.2857 1
1 1 11 195.534 9.25384 1
1 2 -12 80.8563 5.48619 1
1 2 -11 1416.55 26.1004 1
1 2 -10 12.1135 6.75097 1
1 2 -9 2049.4 18.1736 1
-1 -2 8 2445.36 14.8071 1
1 2 -7 3028.78 14.1673 1
1 2 -6 772.603 12.559 1
1 -2 -5 32166.1 99.3561 1
1 2 -4 205.951 8.6439 1
-1 -2 3 5253.65 22.1923 1
1 -2 -2 1675.91 10.4366 1
-1 -2 1 9696.5 45.8672 1
1 -2 0 2102.9 17.0984 1
-1 -2 -1 60892.4 50.2217 1
1 -2 2 1379.77 12.5906 1
1 -2 3 8450.44 32.6395 1
-1 2 -4 9378.45 43.5498 1
-1 2 -5 9875.17 46.9123 1
-1 2 -6 106.983 4.12468 1
1 2 7 8183.73 21.0219 1
1 2 8 408.642 6.8754 1
-1 -2 -9 52.5538 4.45009 1
-1 -2 -10 142.787 5.49159 1
1 2 11 907.218 11.8312 1
1 -3 -12 254.181 5.40089 1
-1 -3 11 5.19996 5.22103 1
1 -3 -10 2516.56 18.1373 1
-1 -3 9 83.0537 6.63366 1
1 -3 -8 227.604 5.77881 1
1 -3 -7 192.782 5.08226 1
1 -3 -6 8452.67 25.9797 1
1 -3 -5 412.471 14.6431 1
1 3 -4 43435.7 80.3737 1
-1 -3 3 776.411 8.04605 1
-1 3 2 1946.29 14.6336 1
-1 3 1 694.279 10.5212 1
1 3 0 121538 98.6645 1
1 3 1 1526.35 9.47486 1
1 -3 2 21003.3 40.75 1
1 -3 3 313.25 7.32766 1
-1 3 -4 1048.98 16.2597 1
-1 -3 -5 255.866 10.3073 1
1 -3 6 14748.6 24.9092 1
1 -3 7 162.348 4.46577 1
-1 3 -8 2229.48 12.9473 1
-1 3 -9 39.3703 4.23036 1
1 -3 10 1692.34 11.2998 1
1 3 11 5.15642 5.12036 1
1 -4 -12 273.148 5.15467 1
-1 -4 11 600.44 9.21907 1
1 -4 -10 33.1863 5.94638 1
1 -4 -9 1586.38 14.7691 1
1 4 -8 3419.73 16.6125 1
-1 4 7 698.767 8.57158 1
1 -4 -6 3222.74 16.6279 1
-1 -4 5 13767.9 51.9076 1
1 4 -4 7478.02 30.8288 1
1 -4 -3 4552.47 17.4475 1
-1 -4 2 26323 58.6333 1
1 4 -1 4117.11 16.4669 1
1 -4 0 24426.6 27.1536 1
1 4 1 42754.9 54.1594 1
1 4 2 17741.1 38.4138 1
1 4 3 1135.64 12.9596 1
1 4 4 9170.51 33.0596 1
-1 4 -5 11390.5 46.7794 1
-1 -4 -6 13.6758 3.22583 1
1 -4 7 4328.2 16.5677 1
-1 4 -8 2525.3 13.1055 1
-1 -4 -9 7.07601 4.86617 1
-1 -4 -10 597.326 8.20947 1
-1 -4 -11 585.113 8.08542 1
1 -5 -11 177.75 6.24468 1
1 5 -10 253.103 7.3316 1
-1 5 9 2462.83 21.7565 1
1 -5 -8 141.977 6.22628 1
-1 -5 7 11582.1 33.2008 1
1 -5 -6 532.185 7.90822 1
-1 -5 5 1810.72 19.8344 1
-1 5 4 497.69 9.58288 1
1 5 -3 30932.5 67.8503 1
-1 5 2 89.2584 7.30234 1
-1 5 1 31582.3 37.0095 1
1 5 0 453.317 4.3626 1
-1 5 -1 7671.06 22.5945 1
-1 -5 -2 3526.66 15.9691 1
-1 -5 -3 46619.9 83.3451 1
1 -5 4 318.798 7.86565 1
-1 -5 -5 11416.3 44.2449 1
-1 5 -6 1213.28 7.99122 1
-1 5 -7 2341.21 11.7196 1
1 -5 8 5.58428 4.29298 1
1 -5 9 5972.2 23.1824 1
1 5 10 13.2814 4.7121 1
1 -5 11 116.205 5.63345 1
-1 6 12 311.044 11.857 1
1 6 -11 58.8821 4.96225 1
-1 -6 10 172.887 6.21591 1
1 -6 -9 262.151 7.0551 1
-1 6 8 6154.53 23.3724 1
1 -6 -7 508.099 9.32134 1
-1 -6 6 10652.9 33.6863 1
-1 -6 5 4917.65 38.189 1
-1 -6 4 10675.6 50.9729 1
-1 -6 3 2600.88 20.1591 1
-1 6 2 46860.6 70.1595 1
1 -6 -1 2610.77 12.5335 1
1 -6 0 6932.36 16.71 1
1 6 1 12282.7 32.4565 1
1 6 2 41338.2 60.9669 1
-1 6 -3 3040.21 21.7617 1
1 6 4 22097 51.9759 1
-1 -6 -5 2187.57 18.7302 1
1 -6 6 743.636 6.91875 1
1 -6 7 387.828 6.301 1
1 -6 8 5105.15 19.0534 1
-1 6 -9 59.0035 5.15987 1
-1 -6 -10 1344.67 12.1734 1
-1 -6 -11 27.0828 7.46955 1
1 -7 -11 28.1293 4.64291 1
1 -7 -10 1896.15 13.2584 1
1 7 -9 1584.55 13.1227 1
-1 -7 8 739.517 9.63431 1
-1 -7 7 3711.96 23.4113 1
-1 -7 6 6898.15 28.952 1
-1 -7 5 20.7135 8.63936 1
-1 -7 4 9439.73 42.8625 1
-1 -7 3 6193.11 30.2005 1
-1 -7 2 272.112 6.72977 1
-1 7 1 8326 22.6966 1
-1 -7 0 21001.1 31.3425 1
1 7 1 124.565 6.04569 1
1 7 2 19759.3 49.1385 1
-1 -7 -3 13846.3 47.074 1
-1 7 -4 3983.16 28.0912 1
-1 7 -5 4379.01 21.7323 1
1 7 6 8018.46 19.9905 1
1 -7 7 89.352 4.73206 1
-1 -7 -8 422.925 6.97631 1
-1 -7 -9 994.604 12.5314 1
1 -7 10 352.462 8.78332 1
-1 -7 -11 24.2748 6.845 1
1 -8 -11 2243.09 14.1548 1
1 8 -10 219.219 6.7043 1
1 8 -9 1952.5 14.7649 1
-1 8 8 299.124 7.53023 1
-1 8 7 1142.27 13.9826 1
1 -8 -6 11.2516 5.21753 1
-1 8 5 17279.2 68.0122 1
1 -8 -4 991.802 12.3368 1
1 -8 -3 15313.7 38.8603 1
1 8 -2 36.5108 4.77085 1
-1 -8 1 31064.7 44.338 1
-1 -8 0 5337.83 19.7735 1
-1 -8 -1 24458.4 43.6455 1
1 8 2 86.8464 6.80615 1
1 -8 3 494.339 8.54204 1
1 -8 4 523.892 12.5034 1
-1 8 -5 11377 27.1617 1
1 -8 6 962.26 7.87071 1
-1 -8 -7 14956.4 31.2685 1
-1 -8 -8 589.588 8.83839 1
1 8 9 58.2967 5.54806 1
-1 -8 -10 -1.32891 5.37961 1
-1 -8 -11 1061.68 16.4182 1
1 9 -11 112.688 5.25326 1
1 -9 -10 1489.04 17.364 1
1 -9 -9 466.335 8.09325 1
1 9 -8 851.2 9.27707 1
-1 -9 7 1657.22 15.032 1
-1 -9 6 9529.07 31.3068 1
-1 -9 5 13.6264 7.38545 1
1 -9 -4 24717.2 54.3777 1
-1 9 3 3476.84 19.5099 1
-1 -9 2 93.0828 4.83585 1
-1 9 1 6313.59 20.8779 1
1 9 0 43880.4 53.7687 1
1 9 1 160.82 5.72846 1
1 9 2 27210.3 50.1421 1
-1 -9 -3 6415.5 28.3929 1
1 9 4 4329.86 31.5761 1
1 -9 5 1980.86 12.7929 1
1 -9 6 12244.7 27.229 1
1 -9 7 762.087 8.9548 1
1 9 8 974.337 11.1762 1
1 -9 9 741.634 8.94708 1
-1 -9 -10 252.959 8.30804 1
-1 -9 -11 9.17429 5.83266 1
1 -10 -11 143.856 7.80722 1
1 -10 -10 184.761 6.75282 1
1 -10 -9 332.539 7.84527 1
-1 10 8 3751.27 17.663 1
1 10 -7 491.937 7.59846 1
1 -10 -6 3752.58 17.4986 1
-1 -10 5 1405.24 12.018 1
1 -10 -4 5916.44 27.8616 1
1 10 -3 502.544 9.66837 1
-1 -10 2 35285.8 52.6096 1
-1 10 1 978.772 10.7061 1
1 10 0 8669.42 26.8322 1
1 10 1 2984.35 17.4795 1
1 -10 2 11315 37.6942 1
1 -10 3 689.818 11.6884 1
-1 -10 -4 19444.7 73.9984 1
-1 10 -5 2062.3 13.4588 1
1 10 6 1437.93 10.5465 1
-1 10 -7 584.555 8.36132 1
1 10 8 3514.62 19.0483 1
1 10 9 60.6689 5.1028 1
-1 -10 -10 791.174 11.804 1
-1 -10 -11 218.675 7.94233 1
1 -11 -11 12.8596 5.37222 1
-1 11 10 64.4034 6.44222 1
-1 11 9 4508.68 23.1389 1
1 -11 -8 168.542 5.77077 1
-1 -11 7 7428.3 26.8011 1
-1 11 6 75.2196 5.56048 1
1 11 -5 1023.63 10.3867 1
1 11 -4 663.697 10.6787 1
-1 -11 3 20790.7 47.6071 1
-1 -11 2 23.9354 5.35055 1
-1 11 1 24873.5 61.6834 1
1 11 0 412.531 9.12271 1
-1 11 -1 7107.72 28.7553 1
-1 11 -2 162.832 8.3729 1
-1 -11 -3 18759.9 55.9763 1
1 -11 4 944.994 12.5977 1
-1 -11 -5 14093.6 30.852 1
1 -11 6 959.747 8.9684 1
1 11 7 191.324 6.04276 1
-1 -11 -8 131.164 6.5376 1
-1 -11 -9 4494.84 29.2475 1
-1 -11 -10 2.20153 4.85498 1
1 -12 -11 378.722 7.56004 1
-1 -12 10 19.448 5.65351 1
-1 -12 9 661.4 10.5297 1
-1 12 8 2684.06 20.9575 1
1 -12 -7 569.317 10.3683 1
-1 12 6 1857.7 14.3266 1
-1 12 5 3438.81 18.1609 1
-1 12 4 3499.52 19.1272 1
-1 12 3 783.683 11.8065 1
-1 -12 2 21628.3 54.855 1
-1 12 1 1831.22 18.886 1
-1 12 0 2447.22 18.7993 1
1 12 1 7775.24 33.0666 1
-1 12 -2 6431.46 34.1023 1
-1 -12 -3 291.456 10.1333 1
1 -12 4 10924.1 31.3229 1
-1 -12 -5 2675.58 16.2838 1
1 -12 6 437.283 6.687 1
1 12 7 2094.74 18.3211 1
-1 -12 -8 2764.46 16.1542 1
1 12 9 34.6171 6.09012 1
-1 -12 -10 1094.63 12.1496 1
-1 -13 11 25.7575 8.23797 1
-1 -13 10 1207.33 12.9156 1
1 -13 -9 30.4074 5.45124 1
1 13 -8 322.604 9.18679 1
-1 -13 7 480.536 10.0909 1
-1 13 6 8124.51 28.5704 1
-1 -13 5 9.76549 5.83193 1
-1 13 4 17887.7 38.3342 1
1 13 -3 1039.46 12.4453 1
-1 13 2 95.3845 7.68309 1
1 -13 -1 1840.02 19.9229 1
1 -13 0 26788.5 67.0383 1
-1 13 -1 285.585 10.4061 1
-1 13 -2 22628.6 69.3459 1
1 -13 3 2056.11 18.4935 1
1 -13 4 1891.24 12.6179 1
1 -13 5 250.505 7.36944 1
1 13 6 6797.09 24.6887 1
1 13 7 733.553 12.0529 1
1 -13 8 404.528 8.1124 1
-1 -13 -9 65.8751 6.18205 1
-1 -13 -10 385.959 6.82987 1
-1 -14 10 13.7162 4.37833 1
-1 14 9 1003.21 11.4119 1
-1 14 8 185.258 7.63454 1
-1 -14 7 568.882 11.4674 1
-1 -14 6 778.898 9.49575 1
-1 -14 5 14302.1 38.351 1
-1 -14 4 810.692 10.6118 1
-1 -14 3 6346.08 24.394 1
1 -14 -2 1421.5 11.9921 1
-1 -14 1 10853.2 45.3196 1
1 -14 0 967.917 15.3612 1
1 14 1 24957.1 87.1657 1
1 -14 2 1884.08 18.8184 1
1 -14 3 608.913 8.87886 1
1 14 4 889.685 9.87194 1
1 -14 5 6417.6 27.4688 1
1 -14 6 111.498 6.04832 1
-1 -14 -7 7130.19 35.4575 1
1 -14 8 751.733 9.81553 1
1 14 9 56.4216 5.7225 1
-1 -14 -10 37.0554 4.20022 1
-1 -15 10 695.918 13.0085 1
1 -15 -9 823.686 9.52081 1
1 -15 -8 117.847 6.88728 1
1 -15 -7 3119.33 24.7683 1
1 -15 -6 2264.62 15.9881 1
-1 15 5 9.61518 6.5128 1
1 -15 -4 4247.76 21.7505 1
-1 15 3 7900.99 25.8229 1
1 -15 -2 55.0285 4.9092 1
1 15 -1 11033.3 31.8834 1
-1 15 0 9759.61 42.2792 1
1 -15 1 30.6611 8.34055 1
1 15 2 5461.1 21.9232 1
1 15 3 11860.8 37.2025 1
1 15 4 1087.68 11.7893 1
1 -15 5 2150.79 17.9074 1
1 -15 6 2561.5 16.1055 1
1 -15 7 886.802 13.9385 1
1 15 8 531.617 8.98126 1
-1 -15 -9 1141.94 13.1233 1
-1 15 -10 76.0126 8.54299 1
-1 -16 10 45.2735 6.43402 1
-1 16 9 45.2837 4.03748 1
-1 16 8 2596.55 17.5642 1
1 16 -7 7.15003 6.39754 1
-1 16 6 2891.17 17.3409 1
1 -16 -5 93.6651 7.50353 1
-1 -16 4 3558.63 19.0164 1
-1 16 3 99.042 6.17104 1
-1 -16 2 22670 38.9383 1
-1 -16 1 234.866 6.7522 1
1 -16 0 3077.72 28.3213 1
-1 16 -1 97.1392 11.6934 1
-1 16 -2 11435.7 30.9283 1
1 16 3 16.5555 5.61606 1
-1 -16 -4 8247.83 33.0858 1
-1 -16 -5 277.379 9.13947 1
1 -16 6 131.778 9.95816 1
1 -16 7 115.837 7.7032 1
1 16 8 3123.56 18.0149 1
-1 -16 -9 15.4057 5.6448 1
-1 -17 10 178.165 11.0014 1
-1 17 9 938.376 10.0004 1
-1 17 8 7.99779 4.78224 1
-1 -17 7 3616.39 22.9258 1
1 17 -6 1201.87 11.9771 1
-1 17 5 30.3056 6.40684 1
-1 17 4 2332.63 15.7464 1
1 -17 -3 11689.1 32.9877 1
1 -17 -2 34.4334 5.10134 1
-1 17 1 9398.63 36.6442 1
1 -17 0 4267.29 35.6848 1
1 17 1 518.872 15.393 1
1 -17 2 1844.31 14.9615 1
1 -17 3 11932 41.1627 1
-1 -17 -4 85.5185 7.46531 1
1 -17 5 4134.86 31.3608 1
1 17 6 1433.59 22.3198 1
-1 -17 -7 525.89 10.8312 1
1 17 8 103.674 4.59768 1
-1 -17 -9 1363 16.3568 1
-1 18 9 1153.26 11.2385 1
-1 -18 8 516.708 8.8756 1
-1 -18 7 350.019 8.86658 1
1 -18 -6 808.021 10.8092 1
-1 18 5 5305.3 22.4339 1
-1 18 4 946.829 11.4522 1
1 -18 -3 1395.93 12.9233 1
-1 -18 2 5226.08 21.5143 1
1 -18 -1 1774.43 23.1836 1
-1 -18 0 2231.64 26.691 1
1 -18 1 9785.32 40.5806 1
1 -18 2 3228.83 21.9518 1
1 18 3 524.323 9.96812 1
1 -18 4 2325.55 20.3733 1
1 18 5 6965.69 31.8159 1
-1 -18 -6 7.82004 6.34815 1
1 -18 7 1924.94 17.5304 1
-1 -18 -8 699.255 7.1641 1
-1 -18 -9 -0.13048 3.7808 1
-1 19 9 23.5048 4.84783 1
-1 -19 8 219.977 8.35735 1
-1 -19 7 9.00139 5.28439 1
-1 -19 6 2086.35 15.3222 1
-1 19 5 165.496 6.73873 1
1 19 -4 11497.6 35.9339 1
1 19 -3 1704.81 13.6438 1
1 -19 -2 18.1356 6.5436 1
-1 19 1 2204.24 23.8504 1
-1 -19 0 23363.5 69.6567 1
1 19 1 230.904 9.29427 1
1 -19 2 4761.83 31.0981 1
-1 -19 -3 7.81875 6.46964 1
1 -19 4 1088.66 14.3654 1
1 -19 5 28.7769 6.84377 1
-1 -19 -6 6076.76 31.7613 1
1 -19 7 38.5497 5.81243 1
1 19 8 617.043 7.55702 1
-1 19 -9 27.7263 7.51824 1
-1 -20 9 277.515 12.1874 1
-1 -20 8 1025.66 14.0832 1
-1 20 7 827.374 15.4911 1
-1 -20 6 685.157 9.01659 1
1 -20 -5 4691.63 21.866 1
-1 -20 4 133.299 7.26229 1
1 -20 -3 999.863 11.2625 1
-1 -20 2 5647.14 37.1911 1
1 -20 -1 3442.01 29.2462 1
-1 20 0 191.293 11.1352 1
1 -20 1 7930.47 33.5379 1
-1 -20 -2 2479.38 22.5224 1
1 -20 3 1232.41 13.8069 1
-1 -20 -4 3314.6 21.8552 1
1 -20 5 2398.62 27.7135 1
1 -20 6 12.9323 5.88068 1
1 20 7 1891.29 15.9921 1
-1 20 -8 519.547 9.7228 1
1 -21 -8 28.214 4.50129 1
-1 -21 7 4259.56 28.9822 1
-1 -21 6 242.269 8.87249 1
1 -21 -5 32.7835 5.1905 1
-1 21 4 352.244 7.96416 1
1 -21 -3 2314.09 16.3563 1
-1 21 2 13.3399 8.89264 1
1 -21 -1 1934.77 23.1061 1
1 21 0 874.225 17.1736 1
1 21 1 374.149 11.1126 1
1 -21 2 587.201 13.4661 1
1 21 3 9841.22 38.0683 1
1 21 4 127.239 10.9712 1
1 21 5 2344.93 26.6392 1
-1 21 -6 411.247 9.46376 1
-1 21 -7 282.618 7.07484 1
-1 -21 -8 7.45225 3.78545 1
1 -22 -8 1119.37 16.9032 1
-1 -22 7 23.9938 6.32915 1
-1 22 6 1597.46 19.9545 1
-1 -22 5 483.895 11.513 1
1 -22 -4 992.49 13.047 1
1 -22 -3 25.3921 8.01768 1
1 -22 -2 16562.9 69.6965 1
-1 22 1 181.952 10.4667 1
1 22 0 905.963 12.0856 1
1 22 1 709.315 14.2286 1
1 -22 2 4535.53 37.866 1
-1 -22 -3 41.4741 7.83542 1
1 22 4 5073.04 38.0165 1
1 22 5 67.1774 8.67487 1
1 22 6 42.5083 5.28118 1
-1 22 -7 128.136 4.3957 1
-1 23 7 1229.77 16.1534 1
-1 23 6 703.051 12.5097 1
1 -23 -5 5.03622 6.92452 1
-1 23 4 2623.92 21.5263 1
-1 -23 3 2268.38 18.0588 1
1 -23 -2 4.66121 9.8104 1
1 -23 -1 2548.63 29.2626 1
-1 -23 0 5064.37 28.965 1
1 -23 1 196.95 11.1251 1
1 -23 2 2106.74 16.4483 1
1 -23 3 3998.61 25.9715 1
1 23 4 822.678 16.2159 1
-1 23 -5 816.605 14.9201 1
-1 -23 -6 1587.8 13.2306 1
1 23 7 122.948 4.65546 1
1 -24 -7 151.822 9.63988 1
1 -24 -6 22.9266 4.77109 1
1 -24 -5 3507.55 27.1197 1
1 -24 -4 204.023 8.60091 1
1 -24 -3 1153.33 15.1171 1
1 -24 -2 246.414 8.69446 1
-1 -24 1 1520.67 18.5783 1
1 -24 0 114.471 7.75944 1
1 -24 1 7749.98 29.6613 1
1 24 2 103.633 6.66604 1
1 24 3 337.032 9.9496 1
1 24 4 123.314 8.86688 1
1 24 5 2076.75 15.5998 1
-1 -24 -6 17.9418 4.81926 1
-1 25 6 1198.16 14.8313 1
-1 25 5 29.5164 7.31074 1
1 -25 -4 2806.93 23.5936 1
-1 -25 3 679.54 12.2144 1
1 -25 -2 107.859 6.89773 1
1 -25 -1 473.099 10.2638 1
1 -25 0 5092.25 26.3777 1
1 -25 1 113.931 6.70672 1
1 -25 2 1857.02 12.7771 1
1 25 3 976.169 15.8216 1
1 25 4 413.511 13.3883 1
-1 -25 -5 294.005 10.5018 1
-1 -25 -6 1490.85 15.4605 1
1 -26 -6 320.348 10.1385 1
1 -26 -5 928.771 10.6063 1
-1 26 4 862.958 12.4348 1
1 -26 -3 311.419 8.88239 1
1 -26 -2 3099.43 16.4613 1
-1 -26 1 311.769 7.09102 1
-1 -26 0 1041.84 12.5396 1
-1 -26 -1 1921.85 12.6212 1
-1 -26 -2 1615.81 13.8493 1
1 26 3 39.2228 6.59275 1
1 -26 4 1910.29 26.5585 1
-1 -26 -5 239.936 6.76731 1
-1 -27 5 9.55674 7.02415 1
-1 -27 4 1.91241 4.81505 1
1 -27 -3 2716.73 17.3341 1
-1 -27 2 4.17681 4.80368 1
-1 -27 1 3596.03 18.6834 1
-1 -27 0 7.36722 6.20487 1
1 -27 1 105.714 5.34565 1
1 -27 2 91.8887 6.07777 1
1 27 3 1764.64 15.988 1
-1 -27 -4 7.00876 4.32728 1
-1 -28 4 455.936 12.4679 1
-1 28 3 456.83 8.44895 1
1 -28 -2 2883.7 16.8451 1
-1 -28 1 634.855 8.8124 1
1 28 0 528.321 7.38401 1
1 -28 1 874.799 12.3548 1
1 -28 2 1079.81 16.7625 1
1 -28 3 67.1887 6.91648 1
-1 -29 2 2.90059 6.32305 1
1 -29 -1 38.7151 3.95149 1
-1 29 0 1507.52 16.6688 1
1 29 1 59.005 4.087 1
1 -29 2 1103.74 16.2703 1
2 0 -10 1253.37 19.9892 1
2 0 -8 981.597 12.1324 1
2 0 -6 4723.33 25.157 1
-2 0 4 88769.3 243.596 1
2 0 -2 10212.2 49.8119 1
2 0 0 11726 49.5521 1
2 0 2 22458 142.703 1
2 0 4 30.9547 5.94914 1
2 0 6 14260.4 41.9047 1
2 0 8 4134.79 25.181 1
2 0 10 257.157 11.7067 1
2 -1 10 1417.57 29.5807 -2
2 1 -11 1417.57 29.5807 1
2 1 9 367.845 12.0568 -2
2 -1 -10 367.845 12.0568 1
2 -1 8 3762.03 27.5472 -2
2 1 -9 3762.03 27.5472 1
-2 1 -7 5038.57 23.2007 -2
-2 -1 8 5038.57 23.2007 1
-2 -1 -6 260.672 7.6615 -2
-2 1 7 260.672 7.6615 1
2 -1 5 5078.44 23.1572 -2
2 1 -6 5078.44 23.1572 1
-2 1 -4 13990.1 46.7456 -2
-2 -1 5 13990.1 46.7456 1
2 1 3 7625.35 67.3488 -2
2 -1 -4 7625.35 67.3488 1
-2 -1 -2 13324.5 72.3337 -2
-2 1 3 13324.5 72.3337 1
2 -1 1 33983.4 83.8608 -2
2 1 -2 33983.4 83.8608 1
2 -1 0 4484.68 73.1679 -2
2 1 -1 4484.68 73.1679 1
2 -1 -1 5019.09 41.267 -2
2 1 0 5019.09 41.267 1
2 -1 -2 34967.4 92.6632 -2
2 1 1 34967.4 92.6632 1
2 -1 -3 12132.2 66.4163 -2
2 1 2 12132.2 66.4163 1
2 1 -4 8719.91 46.392 -2
2 -1 3 8719.91 46.392 1
2 1 -5 13452.9 36.1859 -2
2 -1 4 13452.9 36.1859 1
2 1 -6 5097.21 20.2046 -2
2 -1 5 5097.21 20.2046 1
2 1 -7 276.539 9.20275 -2
2 -1 6 276.539 9.20275 1
2 -1 -8 5471.05 28.6633 -2
2 1 7 5471.05 28.6633 1
-2 1 9 2996.01 23.4414 -2
-2 -1 -8 2996.01 23.4414 1
2 1 -10 392.868 11.2734 -2
2 -1 9 392.868 11.2734 1
2 1 -11 733.784 18.1413 -2
2 -1 10 733.784 18.1413 1
2 -2 10 566.343 20.6315 -2
2 2 -11 566.343 20.6315 1
2 2 9 2997.87 31.7176 -2
2 -2 -10 2997.87 31.7176 1
-2 -2 -8 1232.16 17.1385 -2
-2 2 9 1232.16 17.1385 1
-2 -2 -7 394.257 8.52837 -2
-2 2 8 394.257 8.52837 1
-2 2 -6 11069.7 35.1114 -2
-2 -2 7 11069.7 35.1114 1
2 -2 5 9000.46 30.3025 -2
2 2 -6 9000.46 30.3025 1
2 2 4 2256.5 17.4649 -2
2 -2 -5 2256.5 17.4649 1
2 -2 3 13467.1 89.4675 -2
2 2 -4 13467.1 89.4675 1
2 2 2 12961.9 57.8246 -2
2 -2 -3 12961.9 57.8246 1
-2 -2 -1 3916.48 28.2424 -2
-2 2 2 3916.48 28.2424 1
2 -2 0 25460.2 67.5972 -2
2 2 -1 25460.2 67.5972 1
2 -2 -1 25455.8 101.408 -2
2 2 0 25455.8 101.408 1
-2 -2 2 4189.57 31.3466 -2
-2 2 -1 4189.57 31.3466 1
2 -2 -3 12633 44.3947 -2
2 2 2 12633 44.3947 1
2 2 -4 14102.1 63.0004 -2
2 -2 3 14102.1 63.0004 1
2 -2 -5 1810.61 15.6655 -2
2 2 4 1810.61 15.6655 1
2 -2 -6 10803.6 29.7273 -2
2 2 5 10803.6 29.7273 1
2 2 -7 8563.3 30.7403 -2
2 -2 6 8563.3 30.7403 1
2 2 -8 289.225 9.20079 -2
2 -2 7 289.225 9.20079 1
2 -2 -9 944.387 14.9744 -2
2 2 8 944.387 14.9744 1
2 2 -10 2804.02 22.5447 -2
2 -2 9 2804.02 22.5447 1
2 2 -11 228.646 13.5237 -2
2 -2 10 228.646 13.5237 1
2 3 10 3387.12 28.4115 -2
2 -3 -11 3387.12 28.4115 1
2 -3 9 53.784 9.09197 -2
2 3 -10 53.784 9.09197 1
2 3 8 4086.75 28.149 -2
2 -3 -9 4086.75 28.149 1
2 -3 7 3140.68 20.9417 -2
2 3 -8 3140.68 20.9417 1
2 3 6 2435.09 17.403 -2
2 -3 -7 2435.09 17.403 1
2 3 5 11362.6 31.5604 -2
2 -3 -6 11362.6 31.5604 1
2 3 4 17094.7 41.7002 -2
2 -3 -5 17094.7 41.7002 1
-2 -3 -3 1711.61 24.3161 -2
-2 3 4 1711.61 24.3161 1
-2 -3 -2 1795.69 21.9376 -2
-2 3 3 1795.69 21.9376 1
-2 -3 -1 53977.6 99.6468 -2
-2 3 2 53977.6 99.6468 1
-2 3 0 11701.2 44.7629 -2
-2 -3 1 11701.2 44.7629 1
2 -3 -1 14102.8 62.9305 -2
2 3 0 14102.8 62.9305 1
2 -3 -2 45938 87.4502 -2
2 3 1 45938 87.4502 1
2 -3 -3 1879.83 19.8656 -2
2 3 2 1879.83 19.8656 1
2 3 -4 1416.64 16.9438 -2
2 -3 3 1416.64 16.9438 1
2 3 -5 19912.8 48.7012 -2
2 -3 4 19912.8 48.7012 1
2 3 -6 8925.14 28.8505 -2
2 -3 5 8925.14 28.8505 1
2 3 -7 2714.68 17.8808 -2
2 -3 6 2714.68 17.8808 1
2 3 -8 2331.37 18.352 -2
2 -3 7 2331.37 18.352 1
2 -3 -9 4269.32 33.9892 -2
2 3 8 4269.32 33.9892 1
2 -3 -10 31.7749 8.45238 -2
2 3 9 31.7749 8.45238 1
2 3 -11 2025.99 25.3309 -2
2 -3 10 2025.99 25.3309 1
2 -4 10 301.354 8.86297 -2
2 4 -11 301.354 8.86297 1
2 4 9 2962.31 22.8485 -2
2 -4 -10 2962.31 22.8485 1
-2 -4 -8 1423.06 17.6761 -2
-2 4 9 1423.06 17.6761 1
2 4 7 885.55 13.383 -2
2 -4 -8 885.55 13.383 1
2 -4 6 6919.72 27.233 -2
2 4 -7 6919.72 27.233 1
2 4 5 7320.17 27.022 -2
2 -4 -6 7320.17 27.022 1
2 -4 4 1806.39 13.8451 -2
2 4 -5 1806.39 13.8451 1
-2 4 -3 23353.4 85.9026 -2
-2 -4 4 23353.4 85.9026 1
2 -4 2 8638.55 47.0858 -2
2 4 -3 8638.55 47.0858 1
2 -4 1 9736.97 45.2935 -2
2 4 -2 9736.97 45.2935 1
2 -4 0 32620.4 78.735 -2
2 4 -1 32620.4 78.735 1
-2 4 1 32068.3 66.0402 -2
-2 -4 0 32068.3 66.0402 1
-2 4 2 8154.18 39.1632 -2
-2 -4 -1 8154.18 39.1632 1
-2 4 3 8911.47 43.6057 -2
-2 -4 -2 8911.47 43.6057 1
2 -4 -4 21916.8 64.6281 -2
2 4 3 21916.8 64.6281 1
2 4 -5 1407.57 13.7988 -2
2 -4 4 1407.57 13.7988 1
2 -4 -6 7465.41 30.0588 -2
2 4 5 7465.41 30.0588 1
2 -4 -7 6188.26 25.9651 -2
2 4 6 6188.26 25.9651 1
2 4 -8 629.848 12.4109 -2
2 -4 7 629.848 12.4109 1
2 4 -9 1393.58 21.1616 -2
2 -4 8 1393.58 21.1616 1
-2 4 10 2444.11 18.2464 -2
-2 -4 -9 2444.11 18.2464 1
2 4 -11 179.448 12.2045 -2
2 -4 10 179.448 12.2045 1
2 5 10 610.212 11.9386 -2
2 -5 -11 610.212 11.9386 1
2 5 9 342.689 11.884 -2
2 -5 -10 342.689 11.884 1
2 5 8 3123.33 29.4007 -2
2 -5 -9 3123.33 29.4007 1
2 5 7 10540.9 47.4446 -2
2 -5 -8 10540.9 47.4446 1
2 5 6 230.7 7.87826 -2
2 -5 -7 230.7 7.87826 1
2 5 5 4270.18 20.0508 -2
2 -5 -6 4270.18 20.0508 1
-2 5 -4 12282.9 32.6057 -2
-2 -5 5 12282.9 32.6057 1
-2 5 -3 10836.9 45.0266 -2
-2 -5 4 10836.9 45.0266 1
-2 -5 -2 12738.5 57.7898 -2
-2 5 3 12738.5 57.7898 1
-2 -5 -1 33306 81.5928 -2
-2 5 2 33306 81.5928 1
-2 5 0 4705.76 34.5649 -2
-2 -5 1 4705.76 34.5649 1
2 -5 -1 4795.95 29.1718 -2
2 5 0 4795.95 29.1718 1
-2 5 2 35997.8 81.0212 -2
-2 -5 -1 35997.8 81.0212 1
-2 5 3 10681.6 50.1349 -2
-2 -5 -2 10681.6 50.1349 1
2 5 -4 11735.2 46.8237 -2
2 -5 3 11735.2 46.8237 1
2 -5 -5 10122.5 41.9422 -2
2 5 4 10122.5 41.9422 1
-2 5 6 4400.13 22.3712 -2
-2 -5 -5 4400.13 22.3712 1
2 5 -7 191.031 8.36426 -2
2 -5 6 191.031 8.36426 1
2 -5 -8 11021.2 40.298 -2
2 5 7 11021.2 40.298 1
2 -5 -9 2184.2 31.1177 -2
2 5 8 2184.2 31.1177 1
2 -5 -10 291.18 10.0518 -2
2 5 9 291.18 10.0518 1
2 -5 -11 324.631 12.8875 -2
2 5 10 324.631 12.8875 1
2 -6 10 95.0238 7.35812 -2
2 6 -11 95.0238 7.35812 1
2 6 9 2074.82 21.7845 -2
2 -6 -10 2074.82 21.7845 1
2 6 8 2450.47 25.6019 -2
2 -6 -9 2450.47 25.6019 1
2 6 7 2752.9 22.4348 -2
2 -6 -8 2752.9 22.4348 1
2 6 6 9279.89 33.1294 -2
2 -6 -7 9279.89 33.1294 1
2 6 5 4461.3 22.4682 -2
2 -6 -6 4461.3 22.4682 1
2 6 4 1386.98 12.2852 -2
2 -6 -5 1386.98 12.2852 1
-2 -6 -3 20360.5 46.4271 -2
-2 6 4 20360.5 46.4271 1
-2 -6 -2 20858.2 74.2247 -2
-2 6 3 20858.2 74.2247 1
-2 -6 -1 3545.84 37.6507 -2
-2 6 2 3545.84 37.6507 1
-2 6 0 30691.5 112.568 -2
-2 -6 1 30691.5 112.568 1
-2 -6 1 31862.6 120.875 -2
-2 6 0 31862.6 120.875 1
2 6 -2 3557.74 30.8872 -2
2 -6 1 3557.74 30.8872 1
2 6 -3 21542.6 74.3994 -2
2 -6 2 21542.6 74.3994 1
2 -6 -4 15800 37.9898 -2
2 6 3 15800 37.9898 1
2 6 -5 1221.35 15.583 -2
2 -6 4 1221.35 15.583 1
-2 6 6 3564.9 30.5389 -2
-2 -6 -5 3564.9 30.5389 1
-2 6 7 9472.17 35.7073 -2
-2 -6 -6 9472.17 35.7073 1
-2 -6 8 1878.15 19.1737 -2
-2 6 -7 1878.15 19.1737 1
2 6 -9 2304.19 22.9691 -2
2 -6 8 2304.19 22.9691 1
-2 6 10 1437.6 16.5963 -2
-2 -6 -9 1437.6 16.5963 1
2 6 -11 80.8503 9.77356 -2
2 -6 10 80.8503 9.77356 1
2 7 10 1575.67 20.8874 -2
2 -7 -11 1575.67 20.8874 1
2 7 9 270.789 10.2955 -2
2 -7 -10 270.789 10.2955 1
2 -7 8 1993.12 27.7494 -2
2 7 -9 1993.12 27.7494 1
2 7 7 3296.85 28.2453 -2
2 -7 -8 3296.85 28.2453 1
2 7 6 316.752 7.96685 -2
2 -7 -7 316.752 7.96685 1
2 -7 5 3302.27 19.6119 -2
2 7 -6 3302.27 19.6119 1
2 7 4 10428.4 31.9289 -2
2 -7 -5 10428.4 31.9289 1
2 -7 3 3101.44 19.6339 -2
2 7 -4 3101.44 19.6339 1
2 -7 2 8794.4 46.2269 -2
2 7 -3 8794.4 46.2269 1
-2 7 -1 27899.5 95.7697 -2
-2 -7 2 27899.5 95.7697 1
2 -7 0 11598.3 78.2934 -2
2 7 -1 11598.3 78.2934 1
-2 7 1 13259.9 93.5595 -2
-2 -7 0 13259.9 93.5595 1
2 -7 -2 26570.9 96.5102 -2
2 7 1 26570.9 96.5102 1
2 7 -3 8098.13 48.1249 -2
2 -7 2 8098.13 48.1249 1
2 -7 -4 3267.71 17.4313 -2
2 7 3 3267.71 17.4313 1
2 -7 -5 10384.7 42.9867 -2
2 7 4 10384.7 42.9867 1
2 7 -6 2507.02 25.6813 -2
2 -7 5 2507.02 25.6813 1
2 7 -7 369.5 10.4543 -2
2 -7 6 369.5 10.4543 1
2 -7 -8 2799.94 26.2744 -2
2 7 7 2799.94 26.2744 1
2 -7 -9 1446.58 21.3717 -2
2 7 8 1446.58 21.3717 1
-2 7 10 210.678 9.773 -2
-2 -7 -9 210.678 9.773 1
2 -7 -11 1315.95 17.6561 -2
2 7 10 1315.95 17.6561 1
-2 8 -10 344.269 13.7553 -2
-2 -8 11 344.269 13.7553 1
2 8 9 3385.65 29.5002 -2
2 -8 -10 3385.65 29.5002 1
2 -8 8 642.113 16.8941 -2
2 8 -9 642.113 16.8941 1
2 8 7 35.5094 6.79473 -2
2 -8 -8 35.5094 6.79473 1
2 8 6 6701.3 29.6876 -2
2 -8 -7 6701.3 29.6876 1
-2 8 -5 17881.2 43.2807 -2
-2 -8 6 17881.2 43.2807 1
2 8 4 4463.26 21.3287 -2
2 -8 -5 4463.26 21.3287 1
-2 -8 -3 12862.8 35.4847 -2
-2 8 4 12862.8 35.4847 1
2 -8 2 13299.6 55.5047 -2
2 8 -3 13299.6 55.5047 1
-2 8 -1 1559.16 29.4164 -2
-2 -8 2 1559.16 29.4164 1
2 8 0 17997.8 89.0068 -2
2 -8 -1 17997.8 89.0068 1
-2 -8 1 14036.1 101.184 -2
-2 8 0 14036.1 101.184 1
-2 8 2 1414.65 29.2696 -2
-2 -8 -1 1414.65 29.2696 1
2 -8 -3 11028.4 39.0096 -2
2 8 2 11028.4 39.0096 1
2 -8 -4 14084.3 37.1574 -2
2 8 3 14084.3 37.1574 1
-2 8 5 3836.85 26.2872 -2
-2 -8 -4 3836.85 26.2872 1
2 8 -6 19465.9 52.731 -2
2 -8 5 19465.9 52.731 1
-2 -8 7 5055.94 24.4177 -2
-2 8 -6 5055.94 24.4177 1
2 -8 -8 52.5271 9.9511 -2
2 8 7 52.5271 9.9511 1
2 -8 -9 360.434 13.3601 -2
2 8 8 360.434 13.3601 1
2 8 -10 3033.91 23.7646 -2
2 -8 9 3033.91 23.7646 1
2 -8 -11 237.736 13.695 -2
2 8 10 237.736 13.695 1
2 -9 10 874.665 17.568 -2
2 9 -11 874.665 17.568 1
2 9 9 188.365 10.3441 -2
2 -9 -10 188.365 10.3441 1
2 -9 8 1573.59 29.1512 -2
2 9 -9 1573.59 29.1512 1
2 -9 7 3840.43 25.2922 -2
2 9 -8 3840.43 25.2922 1
2 9 6 1066.28 12.6792 -2
2 -9 -7 1066.28 12.6792 1
-2 9 -5 8909.57 36.8103 -2
-2 -9 6 8909.57 36.8103 1
2 9 4 16831.6 41.3659 -2
2 -9 -5 16831.6 41.3659 1
2 9 3 1854.09 13.8919 -2
2 -9 -4 1854.09 13.8919 1
2 9 2 7026.16 36.821 -2
2 -9 -3 7026.16 36.821 1
2 -9 1 26651.3 114.084 -2
2 9 -2 26651.3 114.084 1
2 -9 0 14607.6 90.5861 -2
2 9 -1 14607.6 90.5861 1
2 -9 -1 17093.2 101.113 -2
2 9 0 17093.2 101.113 1
2 9 -2 24500.4 117.117 -2
2 -9 1 24500.4 117.117 1
-2 -9 3 6835.3 31.3587 -2
-2 9 -2 6835.3 31.3587 1
2 -9 -4 2005.76 13.5072 -2
2 9 3 2005.76 13.5072 1
-2 -9 5 18148.8 56.416 -2
-2 9 -4 18148.8 56.416 1
2 9 -6 7135.79 32.7277 -2
2 -9 5 7135.79 32.7277 1
2 9 -7 1135.49 14.2822 -2
2 -9 6 1135.49 14.2822 1
2 -9 -8 3074.72 23.8027 -2
2 9 7 3074.72 23.8027 1
2 9 -9 1259.54 19.3053 -2
2 -9 8 1259.54 19.3053 1
2 9 -10 131.797 9.96922 -2
2 -9 9 131.797 9.96922 1
2 -9 -11 869.053 18.2382 -2
2 9 10 869.053 18.2382 1
-2 10 -10 106.69 9.38213 -2
-2 -10 11 106.69 9.38213 1
2 10 9 1511.87 20.973 -2
2 -10 -10 1511.87 20.973 1
-2 -10 -8 1855.65 29.4076 -2
-2 10 9 1855.65 29.4076 1
2 -10 7 1253.39 17.144 -2
2 10 -8 1253.39 17.144 1
-2 -10 -6 5727.67 26.6647 -2
-2 10 7 5727.67 26.6647 1
2 10 5 2698.99 21.3613 -2
2 -10 -6 2698.99 21.3613 1
-2 -10 -4 1622.31 15.113 -2
-2 10 5 1622.31 15.113 1
2 -10 3 17115.1 49.2584 -2
2 10 -4 17115.1 49.2584 1
2 10 2 18952 61.3456 -2
2 -10 -3 18952 61.3456 1
-2 10 -1 3941.71 30.6401 -2
-2 -10 2 3941.71 30.6401 1
-2 10 0 10434 91.9319 -2
-2 -10 1 10434 91.9319 1
2 10 -1 11187.4 63.2615 -2
2 -10 0 11187.4 63.2615 1
2 -10 -2 3337.52 19.5327 -2
2 10 1 3337.52 19.5327 1
2 10 -3 21384.8 53.4528 -2
2 -10 2 21384.8 53.4528 1
2 -10 -4 14073.7 36.3597 -2
2 10 3 14073.7 36.3597 1
2 10 -5 1707.71 19.3333 -2
2 -10 4 1707.71 19.3333 1
2 -10 -6 2279.7 21.2398 -2
2 10 5 2279.7 21.2398 1
2 10 -7 5807.61 28.6885 -2
2 -10 6 5807.61 28.6885 1
2 -10 -8 872.592 14.2179 -2
2 10 7 872.592 14.2179 1
2 10 -9 1656.81 21.18 -2
2 -10 8 1656.81 21.18 1
2 -10 -10 1285.42 17.8718 -2
2 10 9 1285.42 17.8718 1
2 -10 -11 115.834 9.17777 -2
2 10 10 115.834 9.17777 1
2 11 9 117.137 9.86903 -2
2 -11 -10 117.137 9.86903 1
-2 -11 -8 2903.67 63.6763 -2
-2 11 9 2903.67 63.6763 1
2 -11 7 6821.22 40.2966 -2
2 11 -8 6821.22 40.2966 1
-2 11 -6 263.873 7.92713 -2
-2 -11 7 263.873 7.92713 1
2 11 5 917.723 17.3887 -2
2 -11 -6 917.723 17.3887 1
-2 11 -4 9665.64 43.2429 -2
-2 -11 5 9665.64 43.2429 1
2 11 3 10803.2 55.313 -2
2 -11 -4 10803.2 55.313 1
2 11 2 11484.1 47.1829 -2
2 -11 -3 11484.1 47.1829 1
2 11 1 14948.7 47.885 -2
2 -11 -2 14948.7 47.885 1
2 -11 0 4986.84 28.6946 -2
2 11 -1 4986.84 28.6946 1
2 -11 -1 4632.64 26.227 -2
2 11 0 4632.64 26.227 1
2 11 -2 17534.8 52.1159 -2
2 -11 1 17534.8 52.1159 1
2 11 -3 9362.92 32.0934 -2
2 -11 2 9362.92 32.0934 1
2 -11 -4 11903.9 34.6841 -2
2 11 3 11903.9 34.6841 1
2 11 -5 8290.5 39.8934 -2
2 -11 4 8290.5 39.8934 1
2 11 -6 850.911 12.7439 -2
2 -11 5 850.911 12.7439 1
-2 11 7 245.965 8.73068 -2
-2 -11 -6 245.965 8.73068 1
2 -11 -8 7519.74 39.2506 -2
2 11 7 7519.74 39.2506 1
2 11 -9 1541.64 20.0271 -2
2 -11 8 1541.64 20.0271 1
2 -11 -10 215.089 11.0003 -2
2 11 9 215.089 11.0003 1
-2 12 -9 1635.13 14.2309 -2
-2 -12 10 1635.13 14.2309 1
-2 12 -8 1834.16 31.3458 -2
-2 -12 9 1834.16 31.3458 1
2 12 7 518.338 17.1981 -2
2 -12 -8 518.338 17.1981 1
2 12 6 5068.02 40.0213 -2
2 -12 -7 5068.02 40.0213 1
-2 12 -5 3424.31 35.1443 -2
-2 -12 6 3424.31 35.1443 1
2 -12 4 1146.86 18.8567 -2
2 12 -5 1146.86 18.8567 1
2 12 3 11985.4 49.5786 -2
2 -12 -4 11985.4 49.5786 1
2 12 2 9143.26 44.1974 -2
2 -12 -3 9143.26 44.1974 1
2 -12 1 1129.54 14.0633 -2
2 12 -2 1129.54 14.0633 1
2 -12 0 11685.5 47.5785 -2
2 12 -1 11685.5 47.5785 1
2 -12 -1 11792.3 43.0167 -2
2 12 0 11792.3 43.0167 1
2 -12 -2 937.823 14.4692 -2
2 12 1 937.823 14.4692 1
2 12 -3 10720.2 36.7577 -2
2 -12 2 10720.2 36.7577 1
2 -12 -4 10038.9 34.2679 -2
2 12 3 10038.9 34.2679 1
2 12 -5 1089.47 17.2425 -2
2 -12 4 1089.47 17.2425 1
2 -12 -6 3055.6 21.9724 -2
2 12 5 3055.6 21.9724 1
-2 12 7 4811.44 30.8379 -2
-2 -12 -6 4811.44 30.8379 1
2 -12 -8 458.206 10.4187 -2
2 12 7 458.206 10.4187 1
2 12 -9 2519.33 23.3694 -2
2 -12 8 2519.33 23.3694 1
2 -12 -10 1634.95 20.165 -2
2 12 9 1634.95 20.165 1
2 13 9 70.8292 5.98353 -2
2 -13 -10 70.8292 5.98353 1
-2 13 -8 992.448 30.4942 -2
-2 -13 9 992.448 30.4942 1
2 13 7 2796.73 27.3346 -2
2 -13 -8 2796.73 27.3346 1
2 13 6 272.206 11.7449 -2
2 -13 -7 272.206 11.7449 1
2 13 5 7274.09 41.7672 -2
2 -13 -6 7274.09 41.7672 1
-2 13 -4 7774.51 35.8434 -2
-2 -13 5 7774.51 35.8434 1
2 13 3 465.413 14.1743 -2
2 -13 -4 465.413 14.1743 1
-2 -13 -2 2783.62 24.6578 -2
-2 13 3 2783.62 24.6578 1
2 -13 1 17812.1 68.7802 -2
2 13 -2 17812.1 68.7802 1
-2 -13 0 12397.7 42.4718 -2
-2 13 1 12397.7 42.4718 1
-2 -13 1 15084.5 68.8773 -2
-2 13 0 15084.5 68.8773 1
2 13 -2 15199 50.8928 -2
2 -13 1 15199 50.8928 1
2 -13 -3 2896.5 21.9948 -2
2 13 2 2896.5 21.9948 1
2 -13 -4 496.196 11.0658 -2
2 13 3 496.196 11.0658 1
2 13 -5 9088.23 39.9217 -2
2 -13 4 9088.23 39.9217 1
2 -13 -6 5416.79 30.9079 -2
2 13 5 5416.79 30.9079 1
-2 13 7 374.778 11.237 -2
-2 -13 -6 374.778 11.237 1
2 13 -8 2185.29 18.0102 -2
2 -13 7 2185.29 18.0102 1
2 -13 -9 1291.7 19.1673 -2
2 13 8 1291.7 19.1673 1
2 -13 -10 65.8141 6.77006 -2
2 13 9 65.8141 6.77006 1
2 14 9 2015.39 20.6608 -2
2 -14 -10 2015.39 20.6608 1
2 -14 8 426.398 9.71345 -2
2 14 -9 426.398 9.71345 1
2 14 7 380.593 12.4767 -2
2 -14 -8 380.593 12.4767 1
2 14 6 6634.81 47.383 -2
2 -14 -7 6634.81 47.383 1
2 -14 5 8860.59 45.6838 -2
2 14 -6 8860.59 45.6838 1
-2 -14 -4 2006.48 19.6132 -2
-2 14 5 2006.48 19.6132 1
2 -14 3 7901.06 39.7611 -2
2 14 -4 7901.06 39.7611 1
2 -14 2 6282.95 32.3449 -2
2 14 -3 6282.95 32.3449 1
2 -14 1 608.289 15.8773 -2
2 14 -2 608.289 15.8773 1
2 -14 0 14793.5 55.2593 -2
2 14 -1 14793.5 55.2593 1
-2 -14 1 13074 57.2864 -2
-2 14 0 13074 57.2864 1
2 14 -2 656.377 15.0129 -2
2 -14 1 656.377 15.0129 1
2 -14 -3 5376.24 33.6076 -2
2 14 2 5376.24 33.6076 1
2 -14 -4 8515.24 36.4693 -2
2 14 3 8515.24 36.4693 1
-2 14 5 1472.12 20.4813 -2
-2 -14 -4 1472.12 20.4813 1
2 -14 -6 10019.5 47.1742 -2
2 14 5 10019.5 47.1742 1
-2 14 7 5222.4 36.085 -2
-2 -14 -6 5222.4 36.085 1
-2 14 8 331.797 9.0551 -2
-2 -14 -7 331.797 9.0551 1
2 -14 -9 317.455 11.0649 -2
2 14 8 317.455 11.0649 1
-2 14 10 1803.34 22.853 -2
-2 -14 -9 1803.34 22.853 1
2 15 9 45.7815 8.145 -2
2 -15 -10 45.7815 8.145 1
-2 15 -8 1414.48 15.4767 -2
-2 -15 9 1414.48 15.4767 1
2 -15 7 2622.78 18.7894 -2
2 15 -8 2622.78 18.7894 1
2 15 6 407.725 13.8107 -2
2 -15 -7 407.725 13.8107 1
-2 15 -5 2570.87 27.8471 -2
-2 -15 6 2570.87 27.8471 1
2 -15 4 5336.81 25.8027 -2
2 15 -5 5336.81 25.8027 1
2 15 3 1509.55 19.1828 -2
2 -15 -4 1509.55 19.1828 1
2 -15 2 7292 41.3326 -2
2 15 -3 7292 41.3326 1
2 -15 1 14761.3 55.5573 -2
2 15 -2 14761.3 55.5573 1
2 -15 0 3199.48 25.1521 -2
2 15 -1 3199.48 25.1521 1
-2 15 1 3582.9 34.1213 -2
-2 -15 0 3582.9 34.1213 1
2 -15 -2 15808.6 51.4044 -2
2 15 1 15808.6 51.4044 1
2 15 -3 5982.85 36.4296 -2
2 -15 2 5982.85 36.4296 1
2 -15 -4 1685.52 16.8731 -2
2 15 3 1685.52 16.8731 1
2 15 -5 4403.61 36.4662 -2
2 -15 4 4403.61 36.4662 1
2 -15 -6 2160.38 30.5426 -2
2 15 5 2160.38 30.5426 1
-2 15 7 468.459 14.2698 -2
-2 -15 -6 468.459 14.2698 1
-2 15 8 2611.09 22.443 -2
-2 -15 -7 2611.09 22.443 1
2 -15 -9 1041.98 15.2513 -2
2 15 8 1041.98 15.2513 1
-2 -15 10 74.7656 10.4774 -2
-2 15 -9 74.7656 10.4774 1
-2 16 -8 938.731 13.0526 -2
-2 -16 9 938.731 13.0526 1
2 -16 7 967.599 15.0857 -2
2 16 -8 967.599 15.0857 1
-2 16 -6 4142.72 26.3927 -2
-2 -16 7 4142.72 26.3927 1
2 16 5 1927.91 20.5836 -2
2 -16 -6 1927.91 20.5836 1
2 16 4 30.6686 6.56063 -2
2 -16 -5 30.6686 6.56063 1
2 16 3 10088.3 39.8354 -2
2 -16 -4 10088.3 39.8354 1
2 16 2 6112.58 38.2653 -2
2 -16 -3 6112.58 38.2653 1
2 16 1 1166.9 17.7201 -2
2 -16 -2 1166.9 17.7201 1
2 -16 0 8611.29 43.4381 -2
2 16 -1 8611.29 43.4381 1
-2 16 1 9832.19 53.4184 -2
-2 -16 0 9832.19 53.4184 1
2 -16 -2 980.792 16.9134 -2
2 16 1 980.792 16.9134 1
2 -16 -3 7042.78 39.3531 -2
2 16 2 7042.78 39.3531 1
2 -16 -4 7102.4 30.4327 -2
2 16 3 7102.4 30.4327 1
2 16 -5 43.1467 12.7549 -2
2 -16 4 43.1467 12.7549 1
2 -16 -6 1263.02 23.6652 -2
2 16 5 1263.02 23.6652 1
-2 16 7 4132.9 33.53 -2
-2 -16 -6 4132.9 33.53 1
2 -16 -8 717.723 12.4217 -2
2 16 7 717.723 12.4217 1
2 -16 -9 1189.51 14.5346 -2
2 16 8 1189.51 14.5346 1
2 -17 8 1222.6 13.128 -2
2 17 -9 1222.6 13.128 1
2 -17 7 3185.91 22.3013 -2
2 17 -8 3185.91 22.3013 1
-2 17 -6 68.8548 7.624 -2
-2 -17 7 68.8548 7.624 1
-2 17 -5 2069.03 18.0611 -2
-2 -17 6 2069.03 18.0611 1
2 17 4 6741.29 38.4197 -2
2 -17 -5 6741.29 38.4197 1
2 -17 3 3628.09 27.0714 -2
2 17 -4 3628.09 27.0714 1
2 17 2 3841.87 30.9352 -2
2 -17 -3 3841.87 30.9352 1
2 17 1 11794 58.8849 -2
2 -17 -2 11794 58.8849 1
-2 -17 0 1378.75 22.0164 -2
-2 17 1 1378.75 22.0164 1
2 -17 -1 1515.55 23.5579 -2
2 17 0 1515.55 23.5579 1
2 -17 -2 11769 52.2612 -2
2 17 1 11769 52.2612 1
2 -17 -3 2854.74 22.9326 -2
2 17 2 2854.74 22.9326 1
2 -17 -4 4005.31 39.6874 -2
2 17 3 4005.31 39.6874 1
2 -17 -5 4986.03 65.3917 -2
2 17 4 4986.03 65.3917 1
2 -17 -6 1790.87 36.7891 -2
2 17 5 1790.87 36.7891 1
-2 17 7 54.1591 8.03871 -2
-2 -17 -6 54.1591 8.03871 1
-2 17 8 2994.61 20.6875 -2
-2 -17 -7 2994.61 20.6875 1
2 -17 -9 903.251 14.5194 -2
2 17 8 903.251 14.5194 1
2 -18 7 204.648 7.31168 -2
2 18 -8 204.648 7.31168 1
-2 18 -6 3142.12 21.0588 -2
-2 -18 7 3142.12 21.0588 1
2 18 5 2387.52 17.5923 -2
2 -18 -6 2387.52 17.5923 1
2 -18 4 727.134 17.1691 -2
2 18 -5 727.134 17.1691 1
2 18 3 9216.23 50.475 -2
2 -18 -4 9216.23 50.475 1
2 18 2 2849.47 31.194 -2
2 -18 -3 2849.47 31.194 1
2 18 1 1319.41 24.6634 -2
2 -18 -2 1319.41 24.6634 1
-2 18 0 8612.69 49.5672 -2
-2 -18 1 8612.69 49.5672 1
-2 18 1 8013.82 49.0319 -2
-2 -18 0 8013.82 49.0319 1
2 -18 -2 1123.67 18.4928 -2
2 18 1 1123.67 18.4928 1
2 -18 -3 2834.57 25.496 -2
2 18 2 2834.57 25.496 1
2 -18 -4 8939.17 65.105 -2
2 18 3 8939.17 65.105 1
2 -18 -5 440.137 17.4168 -2
2 18 4 440.137 17.4168 1
2 -18 -6 2852.61 43.4719 -2
2 18 5 2852.61 43.4719 1
-2 18 7 2619.78 24.0127 -2
-2 -18 -6 2619.78 24.0127 1
-2 18 8 152.981 6.14539 -2
-2 -18 -7 152.981 6.14539 1
-2 -18 9 316.69 14.1637 -2
-2 18 -8 316.69 14.1637 1
2 19 7 901.069 17.4483 -2
2 -19 -8 901.069 17.4483 1
-2 19 -6 777.748 10.8187 -2
-2 -19 7 777.748 10.8187 1
2 19 5 3957.21 25.4858 -2
2 -19 -6 3957.21 25.4858 1
2 19 4 6513.72 57.253 -2
2 -19 -5 6513.72 57.253 1
2 19 3 35.6442 10.7342 -2
2 -19 -4 35.6442 10.7342 1
2 19 2 2328.3 39.5299 -2
2 -19 -3 2328.3 39.5299 1
-2 -19 -1 13626.5 63.5261 -2
-2 19 2 13626.5 63.5261 1
-2 19 0 3173.24 33.6296 -2
-2 -19 1 3173.24 33.6296 1
2 -19 -1 4025.69 29.497 -2
2 19 0 4025.69 29.497 1
-2 19 2 10664.7 58.0245 -2
-2 -19 -1 10664.7 58.0245 1
2 -19 -3 2041.66 30.2977 -2
2 19 2 2041.66 30.2977 1
2 -19 -4 27.855 13.3169 -2
2 19 3 27.855 13.3169 1
2 -19 -5 7343.65 69.512 -2
2 19 4 7343.65 69.512 1
-2 19 6 3362.62 30.5047 -2
-2 -19 -5 3362.62 30.5047 1
-2 19 7 889.388 13.8786 -2
-2 -19 -6 889.388 13.8786 1
2 -19 -8 695.693 11.2753 -2
2 19 7 695.693 11.2753 1
2 20 7 236.04 14.4005 -2
2 -20 -8 236.04 14.4005 1
2 20 6 2541.29 21.8102 -2
2 -20 -7 2541.29 21.8102 1
2 20 5 2121.44 25.5576 -2
2 -20 -6 2121.44 25.5576 1
-2 20 -4 248.659 16.7044 -2
-2 -20 5 248.659 16.7044 1
2 20 3 5061.3 37.6262 -2
2 -20 -4 5061.3 37.6262 1
2 20 2 5373.09 41.5234 -2
2 -20 -3 5373.09 41.5234 1
2 20 1 841.346 22.5895 -2
2 -20 -2 841.346 22.5895 1
2 20 0 7900.61 66.3258 -2
2 -20 -1 7900.61 66.3258 1
2 -20 -1 6983.91 47.2219 -2
2 20 0 6983.91 47.2219 1
2 -20 -2 966.059 22.9914 -2
2 20 1 966.059 22.9914 1
2 -20 -3 4697.14 41.5383 -2
2 20 2 4697.14 41.5383 1
2 -20 -4 4322.35 42.7468 -2
2 20 3 4322.35 42.7468 1
-2 20 6 2259.49 23.8866 -2
-2 -20 -5 2259.49 23.8866 1
-2 20 7 2364.94 15.5492 -2
-2 -20 -6 2364.94 15.5492 1
2 -20 -8 175.038 6.89811 -2
2 20 7 175.038 6.89811 1
2 21 6 16.1183 6.53465 -2
2 -21 -7 16.1183 6.53465 1
2 21 5 690.391 19.4241 -2
2 -21 -6 690.391 19.4241 1
2 21 4 1825.22 31.2451 -2
2 -21 -5 1825.22 31.2451 1
2 21 3 1862.61 23.2273 -2
2 -21 -4 1862.61 23.2273 1
2 21 2 1110.84 20.8944 -2
2 -21 -3 1110.84 20.8944 1
2 21 1 8173.78 55.3582 -2
2 -21 -2 8173.78 55.3582 1
2 -21 0 945.095 18.8975 -2
2 21 -1 945.095 18.8975 1
2 -21 -1 874.049 19.0514 -2
2 21 0 874.049 19.0514 1
2 -21 -2 8949.51 49.9682 -2
2 21 1 8949.51 49.9682 1
2 -21 -3 732.919 25.2522 -2
2 21 2 732.919 25.2522 1
2 -21 -4 1993.77 28.4875 -2
2 21 3 1993.77 28.4875 1
2 -21 -5 1760.88 33.0982 -2
2 21 4 1760.88 33.0982 1
-2 21 6 634.52 11.0593 -2
-2 -21 -5 634.52 11.0593 1
-2 21 7 11.5184 4.61211 -2
-2 -21 -6 11.5184 4.61211 1
2 22 6 2556.44 35.3591 -2
2 -22 -7 2556.44 35.3591 1
2 22 5 667.14 16.5692 -2
2 -22 -6 667.14 16.5692 1
2 22 4 20.3354 10.3304 -2
2 -22 -5 20.3354 10.3304 1
2 22 3 7284.33 46.3312 -2
2 -22 -4 7284.33 46.3312 1
2 22 2 4834.66 35.8857 -2
2 -22 -3 4834.66 35.8857 1
2 22 1 501.317 17.3633 -2
2 -22 -2 501.317 17.3633 1
2 22 0 3731.16 33.6588 -2
2 -22 -1 3731.16 33.6588 1
2 22 -1 4004.26 38.3947 -2
2 -22 0 4004.26 38.3947 1
2 -22 -2 402.536 14.0199 -2
2 22 1 402.536 14.0199 1
2 -22 -3 5000.94 33.1224 -2
2 22 2 5000.94 33.1224 1
2 -22 -4 5582.72 34.2132 -2
2 22 3 5582.72 34.2132 1
2 -22 -5 64.576 11.614 -2
2 22 4 64.576 11.614 1
-2 22 6 539.953 10.1343 -2
-2 -22 -5 539.953 10.1343 1
2 -22 -7 2918.63 21.1026 -2
2 22 6 2918.63 21.1026 1
2 23 5 926.499 19.5711 -2
2 -23 -6 926.499 19.5711 1
2 23 4 2721.88 25.7585 -2
2 -23 -5 2721.88 25.7585 1
2 23 3 800.312 16.7362 -2
2 -23 -4 800.312 16.7362 1
2 23 2 2304.32 23.8383 -2
2 -23 -3 2304.32 23.8383 1
2 23 1 6337.19 32.8128 -2
2 -23 -2 6337.19 32.8128 1
2 23 0 1559.51 21.7237 -2
2 -23 -1 1559.51 21.7237 1
2 -23 -1 1753.97 24.8236 -2
2 23 0 1753.97 24.8236 1
2 -23 -2 5783.53 31.8619 -2
2 23 1 5783.53 31.8619 1
2 -23 -3 1998.02 20.5828 -2
2 23 2 1998.02 20.5828 1
2 -23 -4 803.581 17.493 -2
2 23 3 803.581 17.493 1
2 -23 -5 2878.96 32.5296 -2
2 23 4 2878.96 32.5296 1
-2 23 6 850.085 12.1841 -2
-2 -23 -5 850.085 12.1841 1
2 -24 5 2405.98 24.3811 -2
2 24 -6 2405.98 24.3811 1
2 24 4 467.167 13.8518 -2
2 -24 -5 467.167 13.8518 1
2 24 3 2549.21 26.7225 -2
2 -24 -4 2549.21 26.7225 1
2 24 2 1037.19 12.9162 -2
2 -24 -3 1037.19 12.9162 1
2 24 1 198.298 8.53617 -2
2 -24 -2 198.298 8.53617 1
2 -24 0 4915.48 32.3412 -2
2 24 -1 4915.48 32.3412 1
2 24 -1 4167.93 23.3457 -2
2 -24 0 4167.93 23.3457 1
2 -24 -2 195.388 10.9421 -2
2 24 1 195.388 10.9421 1
2 -24 -3 863.836 13.2179 -2
2 24 2 863.836 13.2179 1
2 -24 -4 2724.44 21.4343 -2
2 24 3 2724.44 21.4343 1
-2 24 5 354.326 8.18818 -2
-2 -24 -4 354.326 8.18818 1
2 24 -6 1951.45 26.151 -2
2 -24 5 1951.45 26.151 1
2 -25 4 2639.89 15.5372 -2
2 25 -5 2639.89 15.5372 1
2 -25 3 452.246 7.91245 -2
2 25 -4 452.246 7.91245 1
2 25 2 622.165 9.97375 -2
2 -25 -3 622.165 9.97375 1
2 25 1 3868.72 20.0844 -2
2 -25 -2 3868.72 20.0844 1
2 -25 0 1096.19 14.1027 -2
2 25 -1 1096.19 14.1027 1
2 -25 -1 1199.75 12.8682 -2
2 25 0 1199.75 12.8682 1
2 -25 -2 3508.23 19.4891 -2
2 25 1 3508.23 19.4891 1
2 -25 -3 700.342 16.9278 -2
2 25 2 700.342 16.9278 1
2 25 -4 477.941 8.25523 -2
2 -25 3 477.941 8.25523 1
2 -25 -5 2485.63 30.9073 -2
2 25 4 2485.63 30.9073 1
2 -26 3 1769.03 16.6044 -2
2 26 -4 1769.03 16.6044 1
2 -26 2 1639.86 16.0472 -2
2 26 -3 1639.86 16.0472 1
2 26 1 433.444 7.8715 -2
2 -26 -2 433.444 7.8715 1
2 -26 0 2325.76 15.7334 -2
2 26 -1 2325.76 15.7334 1
2 26 -1 2402.28 15.6333 -2
2 -26 0 2402.28 15.6333 1
2 26 -2 337.898 9.30752 -2
2 -26 1 337.898 9.30752 1
2 -26 -3 1793.02 20.3785 -2
2 26 2 1793.02 20.3785 1
2 26 -4 1478.06 12.2779 -2
2 -26 3 1478.06 12.2779 1
2 27 2 1212.2 22.5382 -2
2 -27 -3 1212.2 22.5382 1
2 27 1 1502.52 13.2199 -2
2 -27 -2 1502.52 13.2199 1
2 27 0 169.904 10.646 -2
2 -27 -1 169.904 10.646 1
2 27 -1 157.717 7.35736 -2
2 -27 0 157.717 7.35736 1
2 27 -2 1774.54 13.8313 -2
2 -27 1 1774.54 13.8313 1
2 27 -3 1052.51 19.419 -2
2 -27 2 1052.51 19.419 1
3 0 -10 145.362 11.9723 1
3 0 -8 1245.26 14.7847 1
3 0 -6 15541.3 55.046 1
3 0 -4 2651.28 15.4709 1
3 0 -2 6459.54 19.4335 1
3 0 0 12548.1 32.8707 1
3 0 2 34.1714 3.75135 1
-3 0 -4 12409.8 40.7049 1
3 0 6 4803.86 34.1833 1
3 0 8 395.213 11.096 1
3 1 -10 169.564 12.2825 1
3 1 -9 19.5667 6.42221 1
3 -1 -8 711.156 8.71233 1
3 -1 -7 2320.34 14.5997 1
3 -1 -6 207.86 7.16621 1
-3 -1 5 2213.29 13.2016 1
3 -1 -4 2677.8 10.5479 1
3 1 -3 679.095 5.80562 1
3 1 -2 1646.37 8.46097 1
3 1 -1 11770.7 25.2589 1
3 1 0 2947.33 11.1111 1
3 -1 1 3784.12 9.95257 1
3 -1 2 4644.1 9.45977 1
3 1 3 2665.66 8.57837 1
3 -1 4 288.261 6.2382 1
-3 1 -5 4751.78 19.4256 1
3 -1 6 950.865 15.1814 1
3 1 7 336.157 10.963 1
3 1 8 663.262 10.4251 1
3 1 9 646.816 16.4283 1
3 2 -10 141.468 11.0562 1
3 -2 -9 2364.66 19.0655 1
3 2 -8 17.0751 5.2951 1
3 -2 -7 521.051 9.30225 1
3 -2 -6 721.944 9.04674 1
3 2 -5 2771.43 12.9116 1
3 2 -4 64.2175 4.10318 1
3 2 -3 8887.66 18.2724 1
3 -2 -2 1273.52 8.42837 1
3 2 -1 885.298 6.85835 1
3 2 0 2479.64 10.2166 1
3 -2 1 8220.67 14.4891 1
3 2 2 168.59 3.39297 1
-3 -2 -3 7642.72 15.1869 1
3 2 4 507.196 6.5845 1
3 -2 5 85.2939 5.54035 1
3 -2 6 271.834 10.8293 1
3 -2 7 2781.09 15.8789 1
3 2 8 3.54632 5.83536 1
3 2 9 367.183 13.6962 1
3 -3 -10 824.69 12.8834 1
3 -3 -9 4.56615 4.97052 1
3 3 -8 2284.11 14.6915 1
3 -3 -7 277.461 7.28028 1
3 3 -6 601.601 8.02803 1
3 3 -5 12.7174 3.66731 1
3 3 -4 15681.4 28.003 1
3 3 -3 20.5948 3.64022 1
3 3 -2 5914.88 13.3089 1
3 3 -1 193.152 4.12243 1
3 3 0 1795.36 7.476 1
3 3 1 50.3527 3.3955 1
3 -3 2 12519.8 15.9454 1
3 3 3 190.47 4.31893 1
3 3 4 1402.7 8.63924 1
3 3 5 92.8455 5.93992 1
3 -3 6 4985.64 29.1282 1
3 -3 7 4.42945 5.50858 1
3 3 8 2571.15 24.9729 1
3 -3 9 8.14381 5.79298 1
3 4 -10 184.801 6.23591 1
-3 4 9 795.401 8.59033 1
3 -4 -8 418.09 8.23567 1
3 -4 -7 375.458 9.93662 1
3 -4 -6 3163.64 16.7561 1
3 -4 -5 753.056 7.36474 1
3 4 -4 2080.98 12.0372 1
3 4 -3 7309.14 17.1606 1
3 4 -2 5193.13 11.953 1
3 -4 -1 146.95 3.78473 1
3 4 0 3580.91 9.50518 1
3 4 1 7634.95 15.1021 1
3 4 2 134.018 4.04479 1
3 4 3 4965.24 14.8093 1
3 -4 4 2791.78 12.8725 1
3 4 5 22.4841 5.2519 1
3 -4 6 1237.38 15.1474 1
3 -4 7 2084.94 17.38 1
3 4 8 35.482 7.78343 1
3 -4 9 63.1505 9.40612 1
-3 -5 10 10.9077 4.13655 1
3 5 -9 15.4048 4.18737 1
3 -5 -8 136.952 7.05209 1
3 -5 -7 3011.92 19.7329 1
3 5 -6 46.0209 6.22908 1
3 -5 -5 3160.35 13.435 1
3 5 -4 385.071 6.90925 1
3 5 -3 965.515 6.83563 1
3 5 -2 513.903 5.34593 1
3 5 -1 15589.7 21.7873 1
3 5 0 38.2012 3.21807 1
3 5 1 6164.05 12.7939 1
3 -5 2 585.729 5.74418 1
3 5 3 3751.33 13.2427 1
3 5 4 10.5268 4.84086 1
3 5 5 11072.9 30.3802 1
3 -5 6 0.70587 6.99168 1
3 -5 7 261.318 8.34174 1
3 -5 8 15.5512 8.43693 1
3 6 -10 476.196 8.55925 1
3 -6 -9 246.268 5.51823 1
3 -6 -8 1023.6 16.9566 1
3 6 -7 237.936 8.69228 1
3 -6 -6 5045.86 21.3146 1
3 -6 -5 357.25 6.37586 1
3 6 -4 213.731 5.51222 1
3 6 -3 1565.66 8.44526 1
3 -6 -2 10364 18.9376 1
3 -6 -1 830.169 6.21883 1
3 6 0 11858.9 17.0913 1
3 -6 1 1010.71 5.78882 1
3 6 2 109.241 4.16123 1
3 -6 3 780.345 7.97238 1
3 6 4 8418.4 29.5641 1
3 -6 5 101.829 6.5039 1
3 -6 6 1850.37 17.0145 1
3 6 7 163.47 6.2376 1
3 -6 8 140.652 6.25651 1
3 7 -10 309.813 7.93503 1
-3 -7 9 5.67234 3.74754 1
3 7 -8 1084.94 19.0561 1
3 -7 -7 678.636 9.89237 1
3 -7 -6 203.874 6.62064 1
3 -7 -5 1347.2 9.88373 1
3 7 -4 6285.4 19.8412 1
3 7 -3 262.381 4.59384 1
3 -7 -2 4527.41 12.5026 1
3 7 -1 6089.77 15.0757 1
3 -7 0 2485.74 8.79462 1
3 7 1 1151.63 7.02475 1
3 7 2 5453.72 17.6363 1
3 -7 3 101.629 5.3631 1
3 -7 4 201.069 7.72707 1
3 -7 5 1141.97 12.3257 1
3 -7 6 1052.69 12.5376 1
3 -7 7 58.9397 5.46365 1
3 7 8 1665.81 13.3083 1
3 8 -10 7.02243 4.24482 1
3 8 -9 1418.68 11.043 1
3 -8 -8 7.01673 9.21719 1
3 -8 -7 732.271 11.5582 1
3 -8 -6 26.0208 4.79187 1
3 8 -5 3289.98 13.5568 1
3 8 -4 241.358 5.15669 1
3 -8 -3 6748.22 15.8997 1
3 -8 -2 34.5562 3.83587 1
3 -8 -1 18.5377 3.74637 1
3 8 0 50.3161 3.63115 1
3 8 1 9682.6 17.6219 1
3 -8 2 144.107 5.78355 1
3 -8 3 13118.5 30.7974 1
3 -8 4 554.556 10.8529 1
3 -8 5 17.8872 6.58659 1
3 -8 6 -1.85109 6.29415 1
3 -8 7 3887.91 17.2933 1
3 8 8 8.12463 4.79931 1
3 -9 -10 302.137 9.9315 1
3 9 -9 10.6007 5.60251 1
3 9 -8 2047.57 16.4158 1
3 -9 -7 488.141 7.63961 1
3 -9 -6 54.8725 5.17318 1
3 9 -5 1028.36 9.0351 1
3 9 -4 5956.46 17.5576 1
3 -9 -3 297.764 5.12443 1
3 -9 -2 5097.43 16.2361 1
3 -9 -1 2641.28 10.196 1
3 -9 0 1968.64 8.42389 1
3 9 1 1047.36 7.67245 1
3 -9 2 11964.8 25.4364 1
3 -9 3 616.283 9.53509 1
3 -9 4 865.096 12.1258 1
3 -9 5 1018.88 10.7856 1
3 -9 6 1614.95 14.184 1
3 9 7 27.1688 5.50424 1
3 9 8 1406.69 16.0748 1
3 10 -9 164.751 5.37468 1
3 10 -8 586.496 8.4994 1
3 -10 -7 77.7782 5.78336 1
3 -10 -6 4330.3 17.2262 1
3 10 -5 383.988 6.99112 1
3 -10 -4 852.558 9.68441 1
3 -10 -3 1192.24 8.96298 1
3 -10 -2 3824.39 14.6811 1
3 -10 -1 27.6837 3.98983 1
3 -10 0 9550.31 17.3145 1
3 10 1 1228.38 9.94862 1
3 10 2 651.588 7.78262 1
3 -10 3 463.014 8.07704 1
3 -10 4 5138.56 24.9252 1
3 -10 5 50.5784 5.74386 1
3 -10 6 1532.82 15.0678 1
3 10 7 851.404 16.3985 1
3 10 8 189.753 7.2197 1
3 11 -9 1.37335 3.42329 1
3 -11 -8 62.7634 5.87904 1
3 11 -7 2544.51 14.3629 1
3 -11 -6 15.8393 5.89589 1
3 11 -5 2725.99 17.4125 1
3 11 -4 44.7232 5.32354 1
3 -11 -3 1824.81 12.395 1
3 -11 -2 29.7712 4.68531 1
3 -11 -1 8093.12 18.7944 1
3 11 0 275.123 5.75832 1
3 11 1 5029.72 21.0603 1
3 11 2 979.06 9.56286 1
3 -11 3 1209.3 11.1573 1
3 -11 4 193.048 8.64276 1
3 -11 5 6812.09 23.8945 1
3 11 6 16.9746 6.57389 1
3 11 7 182.703 9.41175 1
3 11 8 2.25916 3.89757 1
3 12 -9 298.388 5.66626 1
3 12 -8 494.006 8.39878 1
3 -12 -7 89.7273 5.14856 1
3 -12 -6 2574.08 18.6092 1
3 12 -5 681.744 11.8105 1
3 -12 -4 308.375 6.99524 1
3 -12 -3 3021.34 15.9795 1
3 -12 -2 2659.14 14.7624 1
3 12 -1 8.23052 4.61382 1
3 -12 0 4151.21 15.0872 1
3 -12 1 1774.62 13.6796 1
3 12 2 716.404 8.7797 1
3 -12 3 1116.45 12.1694 1
3 -12 4 4303.04 35.5589 1
3 12 5 28.7844 6.01565 1
3 12 6 2483.84 17.9239 1
3 12 7 1317.07 17.6381 1
3 13 -9 5.78783 3.67187 1
3 13 -8 1663.52 12.1438 1
3 13 -7 110.987 4.8555 1
3 -13 -6 92.31 6.29429 1
3 13 -5 324.442 9.43717 1
3 13 -4 5198.28 20.1271 1
3 -13 -3 31.5869 5.54466 1
3 -13 -2 4646.68 17.9175 1
3 -13 -1 355.729 6.79494 1
3 -13 0 1158.11 11.5762 1
3 13 1 246.926 7.01326 1
3 13 2 5646.16 19.6401 1
3 13 3 606.103 9.80492 1
3 13 4 332.884 12.0277 1
3 13 5 310.925 7.71275 1
3 13 6 1685.81 14.2803 1
3 13 7 18.5558 6.04566 1
3 14 -8 56.7913 5.12315 1
3 -14 -7 414.486 6.27149 1
3 -14 -6 282.038 7.67241 1
3 14 -5 1566.46 13.5927 1
3 -14 -4 44.258 5.70592 1
3 -14 -3 3960.72 18.0222 1
3 -14 -2 295.37 6.83721 1
3 -14 -1 104.869 5.9529 1
3 -14 0 360.451 7.93119 1
3 14 1 5145.57 20.3115 1
3 14 2 93.6253 6.4293 1
3 14 3 7621.03 29.708 1
3 14 4 1599.26 19.9845 1
3 14 5 245.719 6.93636 1
3 14 6 127.71 8.10934 1
3 14 7 2853.61 21.0703 1
3 15 -8 283.824 6.03061 1
3 -15 -7 819.677 8.23202 1
3 15 -6 47.0667 5.44315 1
3 15 -5 1703.93 14.8221 1
3 -15 -4 2085.02 13.7331 1
3 -15 -3 18.4359 6.02838 1
3 -15 -2 1276.22 11.2371 1
3 -15 -1 3690.66 20.9327 1
3 -15 0 925.967 10.4354 1
3 15 1 662.351 8.57894 1
3 15 2 1492.89 12.3258 1
3 15 3 962.483 11.7882 1
3 15 4 274.231 9.5391 1
3 15 5 2238.25 15.7509 1
3 15 6 540.473 9.77764 1
3 15 7 126.24 5.51466 1
-3 16 8 312.394 9.10212 1
3 -16 -7 8.98261 3.62007 1
3 -16 -6 3043.11 15.8878 1
3 16 -5 9.8352 5.49899 1
3 16 -4 261.961 8.96143 1
3 -16 -3 11.8675 5.71136 1
3 -16 -2 3955.46 20.5069 1
3 -16 -1 6.91056 7.3931 1
3 -16 0 3504.98 17.2851 1
3 16 1 87.8325 5.82708 1
3 16 2 24.837 5.47693 1
3 16 3 115.928 7.1897 1
3 16 4 4431.44 31.6068 1
3 16 5 26.5185 4.9167 1
3 16 6 969.729 18.7229 1
3 -17 -7 989.456 16.9733 1
3 17 -6 16.3169 5.04941 1
3 17 -5 1009.84 13.8416 1
3 17 -4 946.2 12.1014 1
3 -17 -3 272.361 6.76479 1
3 -17 -2 307.539 9.22237 1
3 -17 -1 4433.45 21.4741 1
3 17 0 112.413 6.49434 1
3 17 1 2255.86 13.7976 1
3 17 2 903.142 9.47485 1
3 17 3 1117.39 10.865 1
3 17 4 11.702 7.53303 1
3 17 5 3005.18 15.2341 1
3 17 6 102.787 8.72939 1
3 18 -7 155.973 7.55387 1
3 -18 -6 506.686 7.52972 1
3 18 -5 423.716 9.40317 1
3 18 -4 313.289 11.0004 1
3 -18 -3 1955.23 14.6977 1
3 -18 -2 1131.16 11.4634 1
3 18 -1 32.1524 5.73027 1
3 18 0 1104.75 10.5127 1
3 18 1 4511.09 17.7966 1
3 -18 2 4.96019 4.80854 1
3 18 3 2111.54 14.7186 1
3 18 4 833.495 10.324 1
3 18 5 5.45384 4.21937 1
3 18 6 223.957 7.3128 1
-3 19 7 122.039 9.16675 1
3 19 -6 17.5957 3.72415 1
3 -19 -5 220.332 6.2922 1
3 19 -4 4256.53 34.1872 1
3 -19 -3 77.5056 6.42066 1
3 -19 -2 1533.74 11.3998 1
3 19 -1 6.042 5.1568 1
3 19 0 912.661 9.66852 1
3 19 1 7.33866 4.65507 1
3 -19 2 4928.13 19.6353 1
3 19 3 49.6919 6.33742 1
3 19 4 591.808 7.38998 1
3 19 5 81.1394 4.17429 1
3 20 -6 629.457 9.1234 1
3 -20 -5 826.741 11.1267 1
3 -20 -4 49.3788 10.1421 1
3 -20 -3 1975.57 12.9982 1
3 -20 -2 1140.88 9.28106 1
3 20 -1 240.195 7.11872 1
3 20 0 1452.58 9.93893 1
3 20 1 1811.68 13.1215 1
3 20 2 39.411 4.36504 1
3 20 3 1736.94 15.5718 1
3 20 4 754.405 6.5749 1
3 20 5 -1.70857 5.15874 1
3 -21 -5 230.057 6.85987 1
3 21 -4 256.941 9.08343 1
3 -21 -3 355.644 7.11074 1
3 -21 -2 134.526 5.31432 1
3 21 -1 3427.82 21.9224 1
3 21 0 90.3475 4.87778 1
3 -21 1 944.756 9.20003 1
3 21 2 357.638 6.76941 1
3 21 3 595.939 12.3161 1
3 21 4 6.03917 3.72543 1
3 -22 -5 119.3 5.89288 1
3 22 -4 108.149 7.30262 1
3 -22 -3 157.2 6.2029 1
3 -22 -2 1619.63 10.3297 1
3 22 -1 11.4699 5.06835 1
3 22 0 2498.62 15.7809 1
3 -22 1 74.0272 5.0762 1
3 22 2 1.13419 4.12121 1
3 22 3 102.49 6.23558 1
3 23 -4 728.798 9.83448 1
3 23 -3 76.5981 4.90314 1
3 -23 -2 551.577 6.52151 1
3 23 -1 1544.44 11.5005 1
3 23 0 602.055 9.20723 1
3 -23 1 307.766 6.88705 1
3 23 2 1330.99 14.652 1
3 24 -3 949.369 17.0207 1
3 24 -2 11.0732 5.25716 1
3 24 -1 57.2247 5.71576 1
3 24 0 32.0529 3.68158 1
3 -24 1 984.879 14.9957 1
4 0 6 3275.77 30.274 -2
4 0 -8 3275.77 30.274 1
4 0 4 3721.03 31.1138 -2
4 0 -6 3721.03 31.1138 1
4 0 2 9417.48 40.8924 -2
4 0 -4 9417.48 40.8924 1
4 0 0 5139.37 28.5155 -2
4 0 -2 5139.37 28.5155 1
4 0 -2 4574.37 23.9219 -2
4 0 0 4574.37 23.9219 1
4 0 -4 9482.12 52.6727 -2
4 0 2 9482.12 52.6727 1
4 0 -6 3085.26 38.4394 -2
4 0 4 3085.26 38.4394 1
4 0 -8 2190.44 31.9589 -2
4 0 6 2190.44 31.9589 1
4 -1 6 1295.82 15.1793 -2
4 1 -8 1295.82 15.1793 1
4 -1 5 813.469 12.793 -2
4 1 -7 813.469 12.793 1
4 -1 4 1291.67 15.8623 -2
4 1 -6 1291.67 15.8623 1
4 -1 3 3690.59 26.4079 -2
4 1 -5 3690.59 26.4079 1
4 1 2 657.467 10.083 -2
4 -1 -4 657.467 10.083 1
4 1 1 5606.44 22.1708 -2
4 -1 -3 5606.44 22.1708 1
4 1 0 2854.1 15.6352 -2
4 -1 -2 2854.1 15.6352 1
4 -1 -1 2541.63 17.7349 -2
4 1 -1 2541.63 17.7349 1
4 -1 -2 3076.33 15.7012 -2
4 1 0 3076.33 15.7012 1
4 1 -3 5279.6 17.7707 -2
4 -1 1 5279.6 17.7707 1
4 1 -4 601.894 12.5692 -2
4 -1 2 601.894 12.5692 1
4 1 -5 3632.9 22.544 -2
4 -1 3 3632.9 22.544 1
4 1 -6 1008.89 20.3119 -2
4 -1 4 1008.89 20.3119 1
4 1 -7 553.091 17.3459 -2
4 -1 5 553.091 17.3459 1
4 1 -8 910.93 15.8407 -2
4 -1 6 910.93 15.8407 1
4 -2 6 212.586 7.25013 -2
4 2 -8 212.586 7.25013 1
4 2 5 3788.07 23.6751 -2
4 -2 -7 3788.07 23.6751 1
4 -2 4 211.314 8.84323 -2
4 2 -6 211.314 8.84323 1
4 2 3 2635.22 19.0177 -2
4 -2 -5 2635.22 19.0177 1
4 2 2 848.141 10.2429 -2
4 -2 -4 848.141 10.2429 1
4 2 1 3516.62 17.9227 -2
4 -2 -3 3516.62 17.9227 1
4 2 0 802.969 9.41517 -2
4 -2 -2 802.969 9.41517 1
4 -2 -1 7535.12 28.5414 -2
4 2 -1 7535.12 28.5414 1
4 2 -2 703.056 9.18345 -2
4 -2 0 703.056 9.18345 1
4 2 -3 3919.17 17.3082 -2
4 -2 1 3919.17 17.3082 1
4 2 -4 819.039 10.7739 -2
4 -2 2 819.039 10.7739 1
4 -2 -5 1938.49 19.8078 -2
4 2 3 1938.49 19.8078 1
4 2 -6 197.847 13.8882 -2
4 -2 4 197.847 13.8882 1
4 2 -7 3213.98 47.2674 -2
4 -2 5 3213.98 47.2674 1
4 2 -8 123.387 9.39281 -2
4 -2 6 123.387 9.39281 1
4 3 6 2492.94 31.1097 -2
4 -3 -8 2492.94 31.1097 1
4 -3 5 13.5964 7.25544 -2
4 3 -7 13.5964 7.25544 1
4 -3 4 7315.44 33.0853 -2
4 3 -6 7315.44 33.0853 1
4 3 3 128.732 8.42161 -2
4 -3 -5 128.732 8.42161 1
4 3 2 2349.44 15.1516 -2
4 -3 -4 2349.44 15.1516 1
4 3 1 191.777 6.24051 -2
4 -3 -3 191.777 6.24051 1
4 3 0 6600.76 21.5664 -2
4 -3 -2 6600.76 21.5664 1
4 3 -1 52.3933 6.44056 -2
4 -3 -1 52.3933 6.44056 1
4 3 -2 7513.06 24.0115 -2
4 -3 0 7513.06 24.0115 1
4 3 -3 181.046 6.90019 -2
4 -3 1 181.046 6.90019 1
4 3 -4 1928.22 14.7561 -2
4 -3 2 1928.22 14.7561 1
4 3 -5 140.255 11.0042 -2
4 -3 3 140.255 11.0042 1
4 3 -6 6409.59 42.0596 -2
4 -3 4 6409.59 42.0596 1
4 3 -7 49.1621 15.6086 -2
4 -3 5 49.1621 15.6086 1
4 3 -8 2390.56 22.1195 -2
4 -3 6 2390.56 22.1195 1
4 4 6 782.702 13.2465 -2
4 -4 -8 782.702 13.2465 1
4 -4 5 2235.32 16.5721 -2
4 4 -7 2235.32 16.5721 1
4 4 4 1324.55 15.9097 -2
4 -4 -6 1324.55 15.9097 1
4 -4 3 1815.83 18.8127 -2
4 4 -5 1815.83 18.8127 1
4 4 2 3109.05 18.8802 -2
4 -4 -4 3109.05 18.8802 1
4 4 1 2371.02 14.258 -2
4 -4 -3 2371.02 14.258 1
4 4 0 1521.5 11.4517 -2
4 -4 -2 1521.5 11.4517 1
4 4 -1 5974.78 21.2707 -2
4 -4 -1 5974.78 21.2707 1
4 -4 -2 1354.78 12.9894 -2
4 4 0 1354.78 12.9894 1
4 4 -3 2675.57 16.4121 -2
4 -4 1 2675.57 16.4121 1
4 4 -4 2908.73 20.0419 -2
4 -4 2 2908.73 20.0419 1
4 -4 -5 1296.87 20.6366 -2
4 4 3 1296.87 20.6366 1
4 4 -6 1166.18 20.9247 -2
4 -4 4 1166.18 20.9247 1
4 4 -7 1993.51 37.8338 -2
4 -4 5 1993.51 37.8338 1
4 4 -8 412.994 11.667 -2
4 -4 6 412.994 11.667 1
4 -5 6 17.6348 6.09052 -2
4 5 -8 17.6348 6.09052 1
4 -5 5 876.079 12.241 -2
4 5 -7 876.079 12.241 1
4 -5 4 182.643 9.603 -2
4 5 -6 182.643 9.603 1
4 5 3 6839.05 42.8713 -2
4 -5 -5 6839.05 42.8713 1
4 5 2 112.553 7.09289 -2
4 -5 -4 112.553 7.09289 1
4 5 1 7185.73 23.0327 -2
4 -5 -3 7185.73 23.0327 1
4 5 0 216.229 7.28402 -2
4 -5 -2 216.229 7.28402 1
4 -5 -1 4013.73 18.0833 -2
4 5 -1 4013.73 18.0833 1
4 5 -2 236.258 7.90387 -2
4 -5 0 236.258 7.90387 1
4 5 -3 6756.74 27.5207 -2
4 -5 1 6756.74 27.5207 1
4 5 -4 73.6385 8.79249 -2
4 -5 2 73.6385 8.79249 1
4 -5 -5 7128.29 41.0453 -2
4 5 3 7128.29 41.0453 1
4 5 -6 120.729 14.3278 -2
4 -5 4 120.729 14.3278 1
4 5 -7 632.45 17.6341 -2
4 -5 5 632.45 17.6341 1
4 5 -8 27.2914 7.22651 -2
4 -5 6 27.2914 7.22651 1
4 -6 6 1368.69 12.6126 -2
4 6 -8 1368.69 12.6126 1
4 -6 5 303.659 8.54007 -2
4 6 -7 303.659 8.54007 1
4 6 4 1049.11 15.5582 -2
4 -6 -6 1049.11 15.5582 1
4 6 3 402.157 14.0772 -2
4 -6 -5 402.157 14.0772 1
4 6 2 7826.38 29.2201 -2
4 -6 -4 7826.38 29.2201 1
4 6 1 697.774 9.73516 -2
4 -6 -3 697.774 9.73516 1
4 6 0 4476.01 19.2603 -2
4 -6 -2 4476.01 19.2603 1
4 -6 -1 595.107 9.90174 -2
4 6 -1 595.107 9.90174 1
4 -6 -2 4191.8 17.8836 -2
4 6 0 4191.8 17.8836 1
4 6 -3 707.678 12.8915 -2
4 -6 1 707.678 12.8915 1
4 6 -4 7669.04 35.0699 -2
4 -6 2 7669.04 35.0699 1
4 -6 -5 266.504 12.4242 -2
4 6 3 266.504 12.4242 1
4 6 -6 968.497 22.6855 -2
4 -6 4 968.497 22.6855 1
4 6 -7 255.454 13.3318 -2
4 -6 5 255.454 13.3318 1
4 -6 -8 808.695 17.5518 -2
4 6 6 808.695 17.5518 1
4 -7 6 1677.99 24.6807 -2
4 7 -8 1677.99 24.6807 1
4 -7 5 305.192 7.05767 -2
4 7 -7 305.192 7.05767 1
4 7 4 3113.16 22.7195 -2
4 -7 -6 3113.16 22.7195 1
4 -7 3 745.507 17.2963 -2
4 7 -5 745.507 17.2963 1
4 7 2 1329.74 14.0497 -2
4 -7 -4 1329.74 14.0497 1
4 7 1 2113.55 13.956 -2
4 -7 -3 2113.55 13.956 1
4 7 0 3154.78 16.3471 -2
4 -7 -2 3154.78 16.3471 1
4 -7 -1 667.274 10.5705 -2
4 7 -1 667.274 10.5705 1
4 -7 -2 3393.07 18.9654 -2
4 7 0 3393.07 18.9654 1
4 7 -3 1910.91 18.6384 -2
4 -7 1 1910.91 18.6384 1
4 7 -4 969.523 17.5639 -2
4 -7 2 969.523 17.5639 1
4 -7 -5 777.92 15.9127 -2
4 7 3 777.92 15.9127 1
4 7 -6 2008.1 29.2971 -2
4 -7 4 2008.1 29.2971 1
4 7 -7 228.329 12.7574 -2
4 -7 5 228.329 12.7574 1
4 -7 -8 1198.61 18.2405 -2
4 7 6 1198.61 18.2405 1
4 -8 5 3853.39 20.9799 -2
4 8 -7 3853.39 20.9799 1
4 8 4 48.661 9.1743 -2
4 -8 -6 48.661 9.1743 1
4 -8 3 1897.56 20.3805 -2
4 8 -5 1897.56 20.3805 1
4 8 2 238.05 8.34245 -2
4 -8 -4 238.05 8.34245 1
4 8 1 4844.65 24.6585 -2
4 -8 -3 4844.65 24.6585 1
4 -8 0 29.2917 6.88788 -2
4 8 -2 29.2917 6.88788 1
4 -8 -1 8944.62 30.2634 -2
4 8 -1 8944.62 30.2634 1
4 8 -2 15.4705 8.1184 -2
4 -8 0 15.4705 8.1184 1
4 8 -3 5696.58 28.6615 -2
4 -8 1 5696.58 28.6615 1
4 8 -4 243.682 11.4489 -2
4 -8 2 243.682 11.4489 1
4 -8 -5 1234.19 21.1452 -2
4 8 3 1234.19 21.1452 1
4 8 -6 20.5363 9.29291 -2
4 -8 4 20.5363 9.29291 1
4 -8 -7 3931.02 44.7695 -2
4 8 5 3931.02 44.7695 1
4 -9 5 225.942 8.66954 -2
4 9 -7 225.942 8.66954 1
4 9 4 2769.09 17.5135 -2
4 -9 -6 2769.09 17.5135 1
4 -9 3 663.74 13.2382 -2
4 9 -5 663.74 13.2382 1
4 9 2 1528.19 14.8467 -2
4 -9 -4 1528.19 14.8467 1
4 9 1 1153.38 13.4658 -2
4 -9 -3 1153.38 13.4658 1
4 9 0 5877.68 25.0928 -2
4 -9 -2 5877.68 25.0928 1
4 -9 -1 814.509 11.9265 -2
4 9 -1 814.509 11.9265 1
4 -9 -2 6223.89 33.7049 -2
4 9 0 6223.89 33.7049 1
4 -9 -3 1057.76 13.7538 -2
4 9 1 1057.76 13.7538 1
4 9 -4 1326.75 20.6892 -2
4 -9 2 1326.75 20.6892 1
4 9 -5 620.595 13.9342 -2
4 -9 3 620.595 13.9342 1
4 9 -6 2180.38 22.9048 -2
4 -9 4 2180.38 22.9048 1
4 -9 -7 154.33 14.9458 -2
4 9 5 154.33 14.9458 1
4 10 5 914.576 11.7367 -2
4 -10 -7 914.576 11.7367 1
4 10 4 1180.85 13.0411 -2
4 -10 -6 1180.85 13.0411 1
4 -10 3 421.47 11.5272 -2
4 10 -5 421.47 11.5272 1
4 10 2 4251.63 21.4253 -2
4 -10 -4 4251.63 21.4253 1
4 10 1 240.039 9.40359 -2
4 -10 -3 240.039 9.40359 1
4 10 0 3404.94 21.9895 -2
4 -10 -2 3404.94 21.9895 1
4 -10 -1 969.941 16.8619 -2
4 10 -1 969.941 16.8619 1
4 -10 -2 3089.78 24.1838 -2
4 10 0 3089.78 24.1838 1
4 -10 -3 262.139 13.6666 -2
4 10 1 262.139 13.6666 1
4 -10 -4 3564.54 45.6342 -2
4 10 2 3564.54 45.6342 1
4 -10 -5 258.751 11.8665 -2
4 10 3 258.751 11.8665 1
4 -10 -6 916.816 18.6627 -2
4 10 4 916.816 18.6627 1
4 -10 -7 754.286 19.7026 -2
4 10 5 754.286 19.7026 1
4 -11 5 779.393 9.716 -2
4 11 -7 779.393 9.716 1
4 11 4 41.0895 6.14967 -2
4 -11 -6 41.0895 6.14967 1
4 -11 3 4682.64 23.1629 -2
4 11 -5 4682.64 23.1629 1
4 11 2 128.12 8.88768 -2
4 -11 -4 128.12 8.88768 1
4 11 1 4187.97 24.7102 -2
4 -11 -3 4187.97 24.7102 1
4 -11 0 469.35 12.3766 -2
4 11 -2 469.35 12.3766 1
4 -11 -1 2759.77 22.5148 -2
4 11 -1 2759.77 22.5148 1
4 -11 -2 477.016 13.3442 -2
4 11 0 477.016 13.3442 1
4 -11 -3 3144.98 55.566 -2
4 11 1 3144.98 55.566 1
4 -11 -4 89.2611 14.5642 -2
4 11 2 89.2611 14.5642 1
4 -11 -5 3634.8 22.528 -2
4 11 3 3634.8 22.528 1
4 -11 -6 37.1075 9.53989 -2
4 11 4 37.1075 9.53989 1
4 -11 -7 428.564 14.6102 -2
4 11 5 428.564 14.6102 1
4 -12 4 1151.17 17.1453 -2
4 12 -6 1151.17 17.1453 1
4 12 3 1010.47 13.7505 -2
4 -12 -5 1010.47 13.7505 1
4 -12 2 3652.44 28.3328 -2
4 12 -4 3652.44 28.3328 1
4 12 1 443.364 11.6373 -2
4 -12 -3 443.364 11.6373 1
4 -12 0 1981.89 22.2794 -2
4 12 -2 1981.89 22.2794 1
4 -12 -1 1473.96 18.0534 -2
4 12 -1 1473.96 18.0534 1
4 -12 -2 1579.13 17.9583 -2
4 12 0 1579.13 17.9583 1
4 -12 -3 479.51 16.01 -2
4 12 1 479.51 16.01 1
4 -12 -4 3082.17 29.4926 -2
4 12 2 3082.17 29.4926 1
4 -12 -5 572.996 12.7751 -2
4 12 3 572.996 12.7751 1
4 -12 -6 1104.04 17.3961 -2
4 12 4 1104.04 17.3961 1
4 13 4 3277.62 17.45 -2
4 -13 -6 3277.62 17.45 1
4 13 3 286.091 8.39706 -2
4 -13 -5 286.091 8.39706 1
4 -13 2 1477.71 17.688 -2
4 13 -4 1477.71 17.688 1
4 13 1 285.137 9.40381 -2
4 -13 -3 285.137 9.40381 1
4 -13 0 3328.37 34.549 -2
4 13 -2 3328.37 34.549 1
4 -13 -1 228.83 9.94191 -2
4 13 -1 228.83 9.94191 1
4 -13 -2 3128.38 28.2682 -2
4 13 0 3128.38 28.2682 1
4 -13 -3 241.341 14.9105 -2
4 13 1 241.341 14.9105 1
4 -13 -4 1047.69 17.5318 -2
4 13 2 1047.69 17.5318 1
4 -13 -5 218.684 12.7351 -2
4 13 3 218.684 12.7351 1
4 -13 -6 2466.34 30.5457 -2
4 13 4 2466.34 30.5457 1
4 14 4 81.0282 9.79896 -2
4 -14 -6 81.0282 9.79896 1
4 14 3 1460.79 13.0688 -2
4 -14 -5 1460.79 13.0688 1
4 -14 2 1020.61 13.0416 -2
4 14 -4 1020.61 13.0416 1
4 14 1 3448.33 24.9313 -2
4 -14 -3 3448.33 24.9313 1
4 -14 0 156.687 10.0002 -2
4 14 -2 156.687 10.0002 1
4 -14 -1 4374.21 31.2801 -2
4 14 -1 4374.21 31.2801 1
4 -14 -2 113.163 11.3735 -2
4 14 0 113.163 11.3735 1
4 -14 -3 3782.63 35.9749 -2
4 14 1 3782.63 35.9749 1
4 -14 -4 804.779 18.0506 -2
4 14 2 804.779 18.0506 1
4 -14 -5 748.318 15.99 -2
4 14 3 748.318 15.99 1
4 -14 -6 101.188 9.98861 -2
4 14 4 101.188 9.98861 1
4 15 3 1440.95 15.0405 -2
4 -15 -5 1440.95 15.0405 1
4 -15 2 452.456 11.9598 -2
4 15 -4 452.456 11.9598 1
4 -15 1 1719.94 14.6558 -2
4 15 -3 1719.94 14.6558 1
4 -15 0 1203.63 22.8086 -2
4 15 -2 1203.63 22.8086 1
4 -15 -1 352.578 13.5698 -2
4 15 -1 352.578 13.5698 1
4 -15 -2 1082.8 18.1078 -2
4 15 0 1082.8 18.1078 1
4 -15 -3 1673.33 32.5757 -2
4 15 1 1673.33 32.5757 1
4 -15 -4 279.02 11.5974 -2
4 15 2 279.02 11.5974 1
4 -15 -5 1165.06 16.5401 -2
4 15 3 1165.06 16.5401 1
4 16 3 24.4854 8.06292 -2
4 -16 -5 24.4854 8.06292 1
4 -16 2 4242.4 38.6471 -2
4 16 -4 4242.4 38.6471 1
4 16 1 57.1445 6.923 -2
4 -16 -3 57.1445 6.923 1
4 16 0 1565.97 22.4125 -2
4 -16 -2 1565.97 22.4125 1
4 -16 -1 35.1305 8.8794 -2
4 16 -1 35.1305 8.8794 1
4 -16 -2 1209.38 17.2859 -2
4 16 0 1209.38 17.2859 1
4 -16 -3 49.239 10.3178 -2
4 16 1 49.239 10.3178 1
4 -16 -4 1835.41 26.4606 -2
4 16 2 1835.41 26.4606 1
4 -16 -5 22.7312 8.04953 -2
4 16 3 22.7312 8.04953 1
4 17 2 90.0756 10.5332 -2
4 -17 -4 90.0756 10.5332 1
4 17 1 2235.54 18.2278 -2
4 -17 -3 2235.54 18.2278 1
4 17 0 387.54 12.251 -2
4 -17 -2 387.54 12.251 1
4 -17 -1 1430.34 16.9736 -2
4 17 -1 1430.34 16.9736 1
4 -17 -2 422.335 10.6749 -2
4 17 0 422.335 10.6749 1
4 -17 -3 1732.32 19.7459 -2
4 17 1 1732.32 19.7459 1
4 -17 -4 57.9355 7.52027 -2
4 17 2 57.9355 7.52027 1
4 -18 1 872.23 21.1642 -2
4 18 -3 872.23 21.1642 1
4 18 0 316.646 9.48414 -2
4 -18 -2 316.646 9.48414 1
4 -18 -1 3076.01 19.1901 -2
4 18 -1 3076.01 19.1901 1
4 -18 -2 340.108 9.18481 -2
4 18 0 340.108 9.18481 1
4 -18 -3 723.888 19.0166 -2
4 18 1 723.888 19.0166 1
4 -19 -1 14.3181 6.68387 -2
4 19 -1 14.3181 6.68387 1
5 0 -4 479.153 24.0155 1
5 1 -4 103.217 11.8435 1
5 1 -3 148.476 14.2763 1
5 2 -3 698.633 19.6306 1
5 3 -3 3.65021 12.1255 1
5 3 -2 1413.58 24.5313 1
5 3 -1 20.9698 12.1937 1
5 4 -3 394.416 9.28326 1
5 4 -2 32.1216 12.2712 1
5 4 -1 509.105 16.7263 1
5 5 -3 221.828 7.67604 1
5 5 -2 31.6993 13.3351 1
5 5 -1 403.423 14.528 1
5 5 0 3.21798 9.28252 1
5 6 -2 3.7891 7.24954 1
5 6 -1 86.6606 10.4275 1
5 6 0 812.323 12.6875 1
5 7 -1 9.6676 8.04406 1
-1 0 10 31.7102 6.01783 2
1 0 -8 3945.24 25.6201 2
1 0 -6 2185.68 38.9448 2
1 0 -4 12209.9 43.5246 2
1 0 -2 292966 148.85 2
1 0 0 26740.6 42.7583 2
-1 0 -2 11322.3 47.5929 2
-1 0 -4 14615.3 72.7327 2
1 0 6 38.2408 4.92374 2
1 0 8 7818.76 43.4207 2
1 0 10 3026.52 28.021 2
1 -1 -12 -9.45542 9.60851 2
-1 -1 11 74.3071 5.12184 2
-1 -1 10 799.182 10.0424 2
-1 -1 9 1587 10.9043 2
1 -1 -8 338.041 6.4208 2
1 1 -7 7702.4 22.9583 2
1 1 -6 1272.15 17.846 2
1 -1 -5 157.936 7.76268 2
1 1 -4 7011.87 24.4043 2
-1 1 3 12242 30.8257 2
1 1 -2 907.701 7.83812 2
1 -1 -1 9135.32 13.6321 2
1 -1 0 15581.6 52.4732 2
-1 1 -1 81.9673 5.80177 2
-1 1 -2 5053.14 20.4052 2
-1 1 -3 31164.7 57.5347 2
-1 1 -4 5337.77 28.2649 2
-1 1 -5 5843.83 42.247 2
1 -1 6 5372.08 17.7142 2
1 -1 7 1552.61 10.9448 2
1 -1 8 80.9375 6.28433 2
1 -1 9 2746.48 20.8124 2
1 1 10 550.071 13.9423 2
1 -1 11 213.353 10.403 2
1 -2 -12 27.9563 9.96016 2
-1 -2 11 1086.17 14.4336 2
-1 -2 10 10.2086 4.23371 2
1 2 -9 1672.65 11.7323 2
-1 -2 8 2033.3 12.3947 2
1 2 -7 2304.73 12.5282 2
1 2 -6 534.786 13.0977 2
1 2 -5 21012.2 67.0406 2
1 2 -4 158.16 7.61144 2
-1 2 3 4255.97 25.3019 2
1 2 -2 1333.43 11.1554 2
1 -2 -1 8078.86 25.4862 2
1 -2 0 1771.48 33.4645 2
-1 -2 -1 52088.5 65.4374 2
-1 2 -2 1212.63 8.91527 2
-1 2 -3 6839.44 27.3771 2
-1 2 -4 7482.86 35.2486 2
-1 2 -5 7833.24 48.4963 2
1 -2 6 106.02 4.02148 2
1 2 7 7235.54 21.5028 2
-1 2 -8 396.157 7.47784 2
1 2 9 35.4075 7.28121 2
1 2 10 177.671 9.72528 2
1 -2 11 1028.17 22.7135 2
1 -3 -12 99.6099 10.2063 2
-1 3 11 4.88153 4.24565 2
1 3 -10 2212.02 17.2181 2
1 -3 -9 60.4837 4.45491 2
-1 -3 8 199.027 5.32867 2
-1 -3 7 144.141 4.03382 2
1 3 -6 5632.63 37.1778 2
1 -3 -5 285.534 9.63772 2
1 3 -4 30192.1 60.3867 2
1 3 -3 547.591 8.52589 2
1 3 -2 1634.97 8.68044 2
1 3 -1 545.779 6.89763 2
1 3 0 105049 67.2145 2
-1 -3 -1 1292.9 12.3056 2
1 3 2 16630.2 33.8794 2
-1 3 -3 223.239 7.37067 2
-1 3 -4 913.104 13.5339 2
-1 3 -5 190.01 9.75503 2
1 -3 6 12432.7 27.7946 2
1 -3 7 150.536 4.84335 2
1 -3 8 1859.64 14.5036 2
1 -3 9 40.0026 6.61892 2
1 3 10 2096.66 18.9091 2
1 -3 11 6.63776 4.71559 2
-1 -4 12 232.36 8.33092 2
-1 4 11 427.421 8.52837 2
-1 4 10 40.8498 5.48347 2
-1 -4 9 1323.63 10.1219 2
-1 -4 8 2615.8 13.1522 2
-1 -4 7 547.9 6.47724 2
-1 -4 6 2551.51 17.3762 2
1 4 -5 9143.11 38.5768 2
1 4 -4 5128.09 24.5553 2
1 4 -3 3567.21 19.5707 2
1 4 -2 20999.1 33.9599 2
1 4 -1 3448.28 14.9001 2
1 4 0 20872 24.2678 2
-1 -4 -1 38723.6 78.7565 2
-1 -4 -2 14507.2 42.5247 2
-1 4 -3 889.476 10.9182 2
-1 4 -4 7009.29 29.8404 2
-1 4 -5 9159.32 43.1818 2
1 -4 6 15.8865 3.81513 2
1 -4 7 3800.26 16.4744 2
1 -4 8 2005.46 13.9351 2
1 4 9 6.59946 5.76158 2
1 4 10 642.239 10.4719 2
1 -4 11 676.376 14.4963 2
-1 5 11 126.36 4.81497 2
-1 -5 10 221.578 6.97801 2
-1 -5 9 1967.48 14.5664 2
-1 -5 8 111.034 4.58636 2
1 -5 -7 8860.57 21.1162 2
1 5 -6 420.213 5.65211 2
1 5 -5 1315.66 15.0924 2
1 5 -4 340.099 8.58427 2
1 5 -3 22078.2 50.5391 2
1 5 -2 74.6693 4.62308 2
-1 -5 1 25513.6 47.0691 2
1 5 0 410.41 4.79951 2
-1 -5 -1 6877.49 28.6318 2
-1 -5 -2 2961.56 21.4647 2
-1 -5 -3 41400.4 66.7513 2
-1 5 -4 282.711 8.43245 2
-1 5 -5 9090.69 45.3291 2
1 -5 6 1063.45 9.36403 2
1 5 7 2018.72 14.3801 2
1 5 8 12.6742 4.3854 2
1 5 9 5820.26 26.2743 2
1 5 10 18.0971 3.96602 2
1 -5 11 225.292 6.75772 2
-1 6 11 48.759 4.4298 2
-1 6 10 181.266 8.32267 2
-1 -6 9 200.196 6.16885 2
-1 -6 8 5021.35 19.0677 2
1 -6 -7 356.478 5.73578 2
1 6 -6 7779.48 19.9506 2
1 6 -5 2694.4 18.7512 2
1 6 -4 6931.64 28.735 2
1 6 -3 1931.53 16.0054 2
1 6 -2 39424.7 60.3637 2
1 6 -1 2017.74 11.9411 2
1 6 0 6284.54 14.8807 2
-1 6 -1 10484.2 25.2887 2
-1 6 -2 35606.4 64.4438 2
-1 -6 -3 2726.96 24.0843 2
-1 6 -4 17434.7 65.1511 2
1 -6 5 1692.53 16.7744 2
-1 6 -6 602.426 9.89448 2
-1 6 -7 305.252 8.14291 2
1 6 8 3907.36 20.183 2
1 6 9 67.3321 5.60077 2
1 6 10 1368.15 11.9428 2
1 -6 11 58.4068 4.62493 2
-1 7 11 25.4926 4.3372 2
1 7 -10 1330.75 17.4252 2
-1 -7 9 1274.12 11.1249 2
-1 -7 8 600.88 7.84666 2
-1 -7 7 2677.14 12.5303 2
1 7 -6 4905.33 16.585 2
1 7 -5 7.99979 5.83435 2
1 7 -4 5779.08 31.9302 2
1 7 -3 4841.96 25.7284 2
1 7 -2 257.717 7.52764 2
1 7 -1 6844.46 23.8023 2
1 7 0 18306.7 26.1769 2
-1 7 -1 119.679 4.6559 2
-1 -7 -2 16588.8 46.7395 2
-1 -7 -3 12953.5 43.6049 2
-1 7 -4 3538.52 29.1675 2
-1 7 -5 3455.18 23.5931 2
-1 7 -6 6148.43 28.2028 2
-1 7 -7 71.0691 5.52199 2
1 7 8 345.955 6.80693 2
1 7 9 950.255 10.2667 2
1 -7 10 385.012 7.09914 2
1 -7 11 28.2402 3.79659 2
-1 8 11 1729.97 19.5813 2
-1 8 10 189.085 8.50132 2
1 -8 -9 1460.86 12.9171 2
-1 -8 8 234.603 5.90717 2
-1 -8 7 806.114 7.7884 2
1 8 -6 6.92309 4.05148 2
1 8 -5 10478.1 42.6598 2
1 8 -4 832.88 14.107 2
1 8 -3 13401.2 34.8469 2
1 8 -2 25.8496 5.62264 2
1 8 -1 24815.4 49.3447 2
-1 8 0 4577.19 18.3468 2
-1 8 -1 21237 40.4388 2
-1 8 -2 72.0414 5.53098 2
-1 8 -3 438.754 8.21489 2
-1 8 -4 419.263 12.3301 2
1 8 5 9115.65 28.6173 2
-1 8 -6 715.896 10.7295 2
-1 8 -7 11903.8 36.7186 2
1 8 8 527.182 7.13937 2
1 8 9 61.6155 5.245 2
1 8 10 12.1236 4.73338 2
1 8 11 1315.92 15.5118 2
-1 9 11 101.368 4.7759 2
-1 9 10 1371.77 18.6384 2
1 -9 -9 339.997 7.42477 2
1 9 -8 638.943 8.65779 2
1 9 -7 1136.35 9.53224 2
1 9 -6 6439.77 22.206 2
1 9 -5 5.73929 5.59139 2
1 9 -4 21662.5 54.2716 2
1 9 -3 2944.78 18.68 2
1 9 -2 69.501 4.47029 2
-1 -9 1 4765.31 19.5092 2
-1 9 0 36846 57.8101 2
-1 9 -1 163.021 5.13882 2
-1 9 -2 22163.9 45.2523 2
-1 9 -3 5869.54 25.4751 2
-1 9 -4 3431.25 29.7132 2
1 9 5 1574.42 12.2696 2
-1 9 -6 9483.63 34.6971 2
-1 9 -7 643.958 7.93572 2
1 9 8 884.955 9.35789 2
1 9 9 698.022 8.5262 2
1 -9 10 283.805 7.50358 2
1 9 11 10.6073 4.1803 2
-1 10 11 121.395 4.52079 2
-1 10 10 182.698 10.1145 2
1 -10 -9 257.551 6.79855 2
1 10 -8 2735.45 16.114 2
1 10 -7 386.963 7.25836 2
1 10 -6 2540.2 14.5116 2
1 10 -5 1034.86 11.452 2
1 10 -4 5095.15 28.4746 2
1 10 -3 462.006 9.58136 2
-1 -10 2 30765.4 66.6713 2
-1 -10 1 849.837 9.82089 2
-1 10 0 7038.29 32.6539 2
-1 10 -1 2764.67 13.8187 2
-1 10 -2 9119.07 25.965 2
-1 10 -3 609.519 9.78903 2
-1 10 -4 16794.8 47.065 2
1 10 5 1669.36 11.4711 2
-1 10 -6 1229.41 10.1353 2
-1 10 -7 526.007 7.37941 2
1 10 8 3064.8 15.5337 2
1 -10 9 73.311 5.72135 2
1 10 10 736.169 14.3983 2
-1 11 11 14.4638 3.0511 2
-1 11 10 62.4932 7.66856 2
1 -11 -9 3121.49 18.317 2
1 11 -8 137.095 6.97567 2
1 11 -7 5439 20.9704 2
1 11 -6 45.6766 5.24653 2
1 11 -5 705.706 8.92065 2
1 11 -4 527.612 12.276 2
1 11 -3 17252.3 47.6577 2
1 -11 -2 30.6801 7.1394 2
-1 -11 1 17897.3 45.676 2
-1 11 0 353.577 9.92447 2
-1 11 -1 6422.31 24.1804 2
-1 11 -2 111.813 5.81548 2
-1 11 -3 16287.6 44.3491 2
1 11 4 789.461 9.28906 2
1 11 5 11053.1 31.3435 2
-1 11 -6 795.663 9.16105 2
-1 11 -7 178.746 5.83809 2
1 11 8 110.441 5.22021 2
-1 11 -9 3168.68 19.3016 2
1 11 10 2.67562 4.71589 2
-1 12 11 281.222 9.56703 2
-1 12 10 15.6895 6.31104 2
1 -12 -9 480.183 8.82507 2
1 12 -8 2004.04 18.221 2
1 12 -7 404.56 7.31632 2
1 12 -6 1323.59 11.1452 2
1 12 -5 2333.26 15.1609 2
1 12 -4 2707.24 17.3182 2
1 -12 -3 643.239 12.1939 2
-1 -12 2 18750.1 58.2551 2
-1 -12 1 1215.38 15.3195 2
-1 12 0 2135.51 21.0641 2
-1 12 -1 6936.74 29.2764 2
-1 12 -2 5096.13 23.3638 2
-1 12 -3 214.82 7.12934 2
-1 12 -4 8824.13 28.4585 2
1 12 5 2045.61 14.4456 2
1 12 6 365.694 7.55992 2
-1 12 -7 1588.68 15.1784 2
1 12 8 2073.6 17.4451 2
1 12 9 30.0377 5.00487 2
1 12 10 1025.07 18.4562 2
-1 13 11 34.0349 5.48941 2
-1 13 10 1181.84 17.3908 2
-1 13 9 25.1589 4.77087 2
1 13 -8 271.151 9.50693 2
1 13 -7 352.239 7.01426 2
1 13 -6 5625.15 22.0001 2
1 13 -5 15.186 5.03999 2
1 13 -4 12861.3 28.3687 2
1 -13 -3 907.32 14.6069 2
-1 -13 2 98.9552 9.1671 2
-1 -13 1 1357.02 17.8674 2
1 13 0 24052.1 65.8194 2
-1 13 -1 235.647 8.09631 2
-1 13 -2 17325.7 49.0826 2
-1 13 -3 1787.76 13.9353 2
-1 13 -4 1561.49 13.2331 2
1 13 5 220.927 6.61891 2
1 13 6 5309.91 22.9368 2
-1 13 -7 580.625 10.5531 2
1 13 8 269.55 7.30377 2
1 13 9 69.9289 5.09377 2
-1 13 -10 406.179 8.0083 2
-1 14 10 7.80708 5.34705 2
1 -14 -9 671.524 9.30496 2
1 14 -8 117.975 7.46217 2
1 14 -7 423.434 9.87841 2
1 14 -6 527.004 8.62955 2
1 14 -5 9449.86 29.8293 2
1 14 -4 570.577 7.6798 2
1 -14 -3 4883.81 20.9142 2
1 14 -2 1147.67 15.5902 2
1 14 -1 8086 39.7169 2
1 14 0 750.172 13.3112 2
-1 14 -1 18991.7 52.6221 2
-1 14 -2 1548.22 11.5577 2
1 14 3 523.567 8.18046 2
1 14 4 671.346 10.1545 2
1 14 5 5048.54 21.2156 2
1 14 6 98.1534 5.63116 2
1 14 7 5946.85 32.4457 2
1 -14 8 592.13 9.09037 2
1 14 9 52.9739 4.64391 2
-1 14 -10 56.5537 10.4364 2
-1 15 10 631.512 10.0145 2
1 -15 -9 547.065 7.92231 2
1 15 -8 97.3613 7.02416 2
1 15 -7 2339.73 22.2706 2
1 15 -6 1636.27 13.7915 2
1 15 -5 6.87043 5.94362 2
1 15 -4 3187.85 18.534 2
1 -15 -3 6399.74 25.1898 2
1 15 -2 46.91 6.78486 2
1 15 -1 8719.02 48.2117 2
1 15 0 8032.71 29.5671 2
-1 15 -1 36.8389 5.32804 2
-1 15 -2 4582.6 18.1438 2
-1 15 -3 10338.4 27.3022 2
1 15 4 854.144 11.1738 2
1 15 5 1642.48 13.3676 2
1 15 6 2057.73 14.8734 2
1 15 7 780.826 12.9265 2
1 15 8 411.492 8.44487 2
-1 15 -9 880.594 8.61126 2
-1 15 -10 89.5122 9.14582 2
-1 16 10 38.3577 4.0371 2
-1 16 9 46.2948 5.34401 2
1 16 -8 1998.21 18.2163 2
1 16 -7 5.80453 6.46811 2
1 16 -6 2030 15.0108 2
1 16 -5 66.4098 6.6267 2
1 16 -4 2645.1 19.4604 2
1 16 -3 65.1466 6.36058 2
1 16 -2 18008.8 50.9688 2
1 16 -1 172.8 11.4813 2
-1 -16 0 2327.66 20.2421 2
-1 16 -1 97.7984 5.77997 2
-1 16 -2 9454.96 28.0339 2
-1 16 -3 1.52385 5.00942 2
1 16 4 6367.7 23.8452 2
1 16 5 229.404 7.11864 2
1 16 6 92.5213 5.69822 2
1 16 7 130.517 7.19242 2
-1 16 -8 2404.45 15.3127 2
-1 16 -9 15.1868 4.80159 2
-1 17 10 155.819 6.06373 2
1 -17 -9 709.01 9.60097 2
1 17 -8 2.22203 5.23921 2
1 17 -7 2778.14 22.62 2
1 17 -6 790.671 12.1524 2
1 -17 -5 21.9626 7.20751 2
1 17 -4 1749.79 15.9881 2
1 -17 -3 9363.83 32.1855 2
1 -17 -2 20.1512 7.02742 2
1 17 -1 7987.9 43.8406 2
-1 -17 0 3175.6 26.1152 2
-1 17 -1 441.425 7.59025 2
-1 17 -2 1517.36 12.6756 2
-1 17 -3 10165.9 28.1704 2
1 17 4 65.6992 5.75827 2
1 17 5 3104.04 17.9757 2
1 17 6 1001.45 10.83 2
-1 17 -7 447.374 8.49263 2
-1 17 -8 87.5062 5.19252 2
-1 17 -9 1022.01 14.2896 2
-1 18 9 1033.44 13.0957 2
1 -18 -8 450.358 10.1312 2
1 18 -7 257.945 8.88072 2
1 18 -6 562.72 16.0237 2
1 18 -5 3971.67 24.0894 2
1 18 -4 702.118 11.0932 2
1 18 -3 1033.05 14.9412 2
1 -18 -2 4313.24 24.6372 2
1 18 -1 1403.34 19.5546 2
-1 -18 0 1795.08 20.7304 2
-1 18 -1 8147.88 28.2276 2
-1 18 -2 2924.84 17.6157 2
-1 18 -3 418.317 7.37534 2
1 18 4 1944.44 14.9 2
1 18 5 5363.55 23.4716 2
-1 18 -6 3.07463 4.98777 2
-1 18 -7 1520.69 14.1185 2
-1 18 -8 575.653 10.3707 2
-1 18 -9 5.95881 5.69627 2
-1 19 9 26.8198 4.51895 2
1 -19 -8 159.591 5.05844 2
1 19 -7 10.0964 5.66358 2
1 19 -6 1366.04 21.7832 2
1 19 -5 110.749 10.6085 2
1 19 -4 8190.99 35.7254 2
1 19 -3 1289.58 17.9173 2
1 -19 -2 24.9658 5.96862 2
-1 -19 1 1771.32 24.2974 2
-1 -19 0 19494.5 68.3489 2
-1 -19 -1 207.846 9.66428 2
-1 19 -2 3992.95 21.5746 2
-1 19 -3 19.1408 5.82673 2
1 19 4 954.08 11.0789 2
1 19 5 17.9854 5.03817 2
-1 19 -6 4836.06 21.169 2
-1 19 -7 24.9313 6.64128 2
-1 19 -8 443.882 8.37574 2
-1 20 9 278.657 5.97815 2
1 -20 -8 638.444 7.5746 2
1 20 -7 526.264 9.33096 2
1 20 -6 476.542 14.0145 2
1 20 -5 3284.32 33.0935 2
1 20 -4 88.757 8.45537 2
1 20 -3 835.896 13.0406 2
1 20 -2 4609.26 30.9023 2
1 -20 -1 3026.45 24.8281 2
-1 -20 0 161.561 11.4479 2
-1 -20 -1 7069.67 35.5434 2
-1 20 -2 2241.13 19.0182 2
-1 20 -3 1037.5 11.0716 2
1 20 4 2685.61 15.7814 2
1 20 5 1820.45 13.6778 2
-1 20 -6 16.1761 4.33555 2
-1 20 -7 1527.24 16.1407 2
-1 20 -8 427.735 7.30825 2
-1 21 8 20.4599 4.20325 2
1 -21 -7 3110.11 19.7435 2
1 -21 -6 185.028 10.2995 2
1 -21 -5 26.8143 8.61849 2
-1 21 4 304.791 8.8871 2
1 21 -3 1795.57 15.7221 2
1 21 -2 6.88438 8.19976 2
1 -21 -1 1622.38 17.0694 2
-1 -21 0 779.832 14.0591 2
-1 -21 -1 336.65 11.1101 2
-1 -21 -2 574.223 14.0707 2
-1 21 -3 8789.4 33.1358 2
1 21 4 100.779 5.39506 2
1 21 5 1851.34 15.3657 2
-1 21 -6 320.765 7.7196 2
-1 21 -7 242.4 8.52982 2
-1 22 8 1063.34 10.9373 2
-1 22 7 8.70178 4.22626 2
1 -22 -6 1147.64 13.8431 2
1 -22 -5 336.018 12.1498 2
1 -22 -4 837.018 11.958 2
1 -22 -3 19.1953 8.68307 2
1 22 -2 14310 65.4086 2
-1 -22 1 138.926 8.89767 2
-1 -22 0 771.021 13.4865 2
-1 -22 -1 541.301 12.5895 2
1 22 2 3818.58 27.3551 2
-1 -22 -3 23.2206 7.1199 2
1 22 4 4017.93 27.9309 2
1 22 5 45.3475 6.85319 2
-1 22 -6 41.3747 6.87947 2
-1 -22 -7 91.9545 6.83249 2
-1 23 7 901.945 11.9999 2
1 -23 -6 569.756 9.53663 2
1 -23 -5 6.91699 7.06472 2
1 -23 -4 2013.91 23.7144 2
-1 23 3 1938.03 16.8158 2
1 23 -2 11.0574 8.99648 2
1 23 -1 2255.61 18.3471 2
1 23 0 4128.21 30.6237 2
1 23 1 158.208 10.5241 2
1 23 2 1747.14 14.6297 2
-1 23 -3 3604.6 24.6337 2
1 23 4 686.483 14.746 2
-1 -23 -5 670.224 17.0552 2
-1 -23 -6 1311.78 18.9759 2
1 23 7 102.731 4.76269 2
-1 24 7 93.0287 5.96362 2
-1 24 6 26.0594 4.05706 2
1 -24 -5 3127.61 24.4567 2
1 24 -4 158.509 9.51122 2
-1 24 3 895.369 12.0129 2
-1 24 2 251.71 9.37465 2
1 24 -1 1313.67 15.7029 2
-1 24 0 101.303 8.3277 2
1 -24 1 6669.94 26.2194 2
-1 -24 -2 81.8232 6.88195 2
1 24 3 253.603 9.45702 2
1 24 4 112.66 8.42633 2
-1 -24 -5 1710.17 22.9341 2
-1 -24 -6 7.51005 5.05328 2
-1 25 6 829.187 13.7266 2
1 -25 -5 27.4207 6.64656 2
1 -25 -4 2402.45 29.2894 2
-1 25 3 500.081 10.7232 2
1 -25 -2 92.8522 5.67183 2
1 25 -1 395.913 10.0694 2
-1 25 0 4384.39 20.3778 2
1 25 1 92.4039 7.29223 2
1 25 2 1663.3 14.4217 2
1 25 3 874.579 12.8146 2
1 25 4 322.947 9.22825 2
-1 -25 -5 199.801 6.53289 2
1 26 -6 234.704 5.71992 2
1 26 -5 754.393 11.3418 2
1 -26 -4 646.716 9.29946 2
-1 26 3 229.824 6.9825 2
-1 26 2 2421.56 13.7393 2
1 26 -1 281.065 8.5101 2
-1 26 0 900.89 10.5662 2
1 26 1 1761.5 12.4293 2
1 26 2 1429.61 15.5684 2
1 26 3 32.8289 6.51654 2
1 26 4 1394.01 14.7895 2
1 26 5 181.04 6.50615 2
-1 27 5 8.01362 3.35131 2
1 27 -4 -1.14966 8.91949 2
1 27 -3 2067.56 17.8013 2
1 27 -2 1.92225 4.84764 2
1 27 -1 2637.29 15.9964 2
1 27 0 7.09124 5.1607 2
1 27 1 102.692 5.90846 2
1 27 2 73.9069 5.13443 2
1 27 3 1516.05 12.5804 2
-1 27 -4 2.60313 3.29084 2
1 -28 -3 359.997 7.92071 2
1 28 -2 1863.73 21.7213 2
1 28 -1 463.449 7.4736 2
1 28 0 491.494 7.70385 2
1 28 1 857.714 10.6105 2
1 28 2 1095.42 10.5411 2
-1 -28 -3 72.1804 4.43781 2
1 29 -2 2.68367 4.97169 2
-1 -29 1 28.375 4.42227 2
1 29 0 1176.89 10.5771 2
1 29 1 61.1834 3.58012 2
2 0 -10 717.821 19.9103 2
2 0 -8 662.29 16.8967 2
2 0 -6 3012.47 21.9798 2
2 0 -4 49108.6 117.928 2
2 0 -2 9418.86 45.7234 2
2 0 0 9733.03 110.362 2
-2 0 -2 15526.2 81.8321 2
2 0 4 31.5279 6.62 2
-2 0 -6 9794.74 43.7139 2
2 0 8 4827.51 24.7638 2
2 0 10 351.226 14.1318 2
3 0 -10 20.0891 13.3995 2
3 0 -8 947.935 25.0118 2
-3 0 6 13079.2 45.7972 2
3 0 -4 2121.74 9.56115 2
3 0 -2 5711.18 19.3464 2
3 0 0 10836.2 38.7728 2
3 0 2 60.236 5.05084 2
3 0 4 9827.09 39.3942 2
3 0 6 4436.32 27.489 2
3 0 8 713.611 19.8134 2
3 -1 -10 57.3978 13.4225 2
3 1 -9 30.4582 6.52134 2
3 1 -8 460.427 14.1378 2
3 1 -7 2051.79 15.426 2
3 1 -6 169.574 7.45226 2
3 -1 -5 1903.14 10.2819 2
3 -1 -4 2118.77 7.19169 2
3 -1 -3 540.818 4.10941 2
3 -1 -2 1437.98 7.61503 2
3 -1 -1 10781.8 21.4978 2
3 -1 0 2738.67 14.4695 2
3 -1 1 3187.37 10.8014 2
3 -1 2 4452.5 12.8477 2
3 -1 3 2539.15 13.2337 2
3 1 4 242.952 7.53018 2
3 1 5 4147.42 22.1018 2
3 1 6 947.331 10.7871 2
3 -1 7 354.157 7.21482 2
3 -1 8 1247.98 24.3767 2
3 -1 9 1373.08 17.3329 2
3 -2 -10 48.0294 8.03766 2
3 2 -9 1350.4 16.3295 2
3 2 -8 20.3059 9.01266 2
3 2 -7 447.825 9.15477 2
3 2 -6 589.467 8.35492 2
3 -2 -5 2348.27 10.1085 2
3 -2 -4 43.9263 3.21158 2
3 -2 -3 7396.73 12.3616 2
3 -2 -2 1135.47 6.8319 2
3 -2 -1 745.157 6.16937 2
3 -2 0 2172.22 9.13592 2
3 -2 1 7224.53 16.9952 2
3 -2 2 175.578 4.6193 2
3 -2 3 6991.6 17.7284 2
3 2 4 466.946 7.10377 2
3 2 5 110.969 5.81415 2
3 2 6 286.619 6.89761 2
3 -2 7 3007.79 17.2667 2
3 -2 8 1.51634 7.4214 2
3 2 9 1002.14 10.537 2
3 -3 -10 244.765 9.70396 2
3 3 -9 2.23827 5.74003 2
3 3 -8 1552.97 16.0651 2
3 -3 -7 232.725 9.66676 2
3 -3 -6 538.314 7.2673 2
3 -3 -5 11.2183 3.87956 2
3 -3 -4 13322.2 17.8504 2
3 -3 -3 17.4244 3.22914 2
3 -3 -2 5220.25 12.9353 2
3 -3 -1 153.561 3.81891 2
3 -3 0 1661.85 7.68994 2
3 -3 1 40.8562 3.38099 2
3 -3 2 11312.9 20.3614 2
3 -3 3 193.333 4.74142 2
3 3 4 1277.93 8.81975 2
3 3 5 84.716 5.0392 2
3 -3 6 4756.03 22.8281 2
3 -3 7 1.48884 4.81455 2
3 -3 8 3555.29 22.8472 2
3 3 9 24.863 3.646 2
3 -4 -10 77.8233 7.66232 2
3 4 -9 478.561 8.76875 2
3 4 -8 268.426 9.85711 2
3 -4 -7 303.85 9.42335 2
3 -4 -6 2547.33 13.4894 2
3 -4 -5 653.377 6.90027 2
3 4 -4 1689.02 7.9272 2
3 4 -3 6277.56 14.0058 2
3 -4 -2 4690.8 11.8547 2
3 -4 -1 115.405 3.81178 2
3 -4 0 3082.94 10.5701 2
3 -4 1 6741.08 15.4888 2
3 -4 2 129.365 4.31341 2
3 -4 3 4473.08 16.0844 2
3 4 4 2765.83 14.1981 2
3 4 5 15.2323 5.63767 2
3 4 6 1296.52 13.5894 2
3 -4 7 2188 14.8276 2
3 -4 8 35.6133 5.92109 2
3 -4 9 127.522 6.93202 2
3 -5 -10 13.5433 6.7442 2
3 5 -9 6.79073 4.91966 2
3 5 -8 86.5802 8.93755 2
3 5 -7 2459.56 18.6262 2
-3 -5 6 30.1796 6.48964 2
3 -5 -5 2616.07 13.3579 2
3 -5 -4 324.336 5.37546 2
3 5 -3 850.386 6.53982 2
3 -5 -2 469.702 5.02633 2
3 -5 -1 13701.1 19.9278 2
3 -5 0 29.0342 3.60455 2
3 5 1 5183.13 12.7469 2
3 5 2 516.767 5.83194 2
3 5 3 3456.36 13.6527 2
3 5 4 17.678 4.63388 2
3 5 5 11243.2 39.5165 2
3 5 6 14.1265 5.74985 2
3 -5 7 249.157 6.4462 2
3 -5 8 17.041 4.04835 2
3 -6 -10 170.38 8.15737 2
3 -6 -9 164.636 7.76499 2
3 6 -8 624.739 12.7966 2
3 6 -7 185.801 8.25296 2
3 6 -6 4429.08 21.8774 2
3 -6 -5 276.395 7.91298 2
3 -6 -4 171.082 5.10304 2
3 -6 -3 1305.36 6.84595 2
3 -6 -2 9463.96 16.5232 2
3 -6 -1 712.667 5.07856 2
3 6 0 10316.2 19.1453 2
3 6 1 870.03 6.72887 2
3 6 2 85.0975 4.15294 2
3 6 3 698.692 7.98839 2
3 6 4 8093.76 23.2299 2
3 6 5 127.575 6.96353 2
3 6 6 1904.54 18.0915 2
3 -6 7 175.532 6.03948 2
3 -6 8 142.845 4.90893 2
3 -7 -10 117.87 8.51 2
3 -7 -9 2.62954 5.96668 2
3 7 -8 522.282 9.79541 2
3 7 -7 597.766 9.25364 2
3 7 -6 156.35 9.97536 2
3 7 -5 1247.85 13.9165 2
3 7 -4 5332.97 17.7525 2
3 -7 -3 245.669 4.49135 2
3 -7 -2 3953.15 11.4445 2
3 7 -1 5393.2 11.8474 2
3 7 0 2219.21 10.1215 2
3 7 1 981.478 6.8023 2
3 7 2 4716.78 14.7078 2
3 7 3 102.926 4.64648 2
3 7 4 153.122 5.42337 2
3 7 5 1121.15 11.3568 2
3 7 6 1080.62 13.8024 2
3 7 7 53.4046 4.88417 2
3 -7 8 1481.31 15.0004 2
3 8 -9 878.142 12.6805 2
3 8 -8 5.30384 6.12254 2
3 8 -7 582.952 9.25945 2
3 8 -6 17.8533 8.78695 2
3 8 -5 3016.15 19.3926 2
3 -8 -4 203.291 6.6915 2
3 8 -3 5792.72 16.314 2
3 -8 -2 29.5507 3.76134 2
3 8 -1 19.7279 3.5075 2
3 8 0 46.2075 4.5508 2
3 8 1 8893.55 17.8167 2
3 8 2 126.983 4.22965 2
3 8 3 11290.6 23.2657 2
3 8 4 557.884 7.52227 2
3 8 5 22.6569 4.91792 2
3 8 6 5.30819 5.43209 2
3 -8 7 3190.27 21.1595 2
3 -8 8 3.21617 3.57471 2
3 -9 -9 11.2621 7.04196 2
3 9 -8 1030.99 11.3022 2
3 9 -7 338.461 7.72538 2
3 9 -6 41.7017 9.08689 2
3 9 -5 871.648 10.6577 2
3 9 -4 5232.01 21.2363 2
3 9 -3 235.134 6.33453 2
3 -9 -2 4537.8 12.4836 2
3 9 -1 2353.95 8.59288 2
3 9 0 1782.69 9.27724 2
3 9 1 930.054 7.06609 2
3 9 2 10289.5 22.1715 2
3 9 3 597.978 7.12286 2
3 9 4 792.158 9.60033 2
3 9 5 981.174 10.4618 2
3 9 6 1535.54 13.3724 2
3 -9 7 21.9293 3.75971 2
3 -9 8 775.875 15.2854 2
3 -10 -9 119 7.80804 2
3 -10 -8 345.476 10.5214 2
3 10 -7 55.0649 5.82606 2
3 10 -6 3213.4 24.4781 2
3 10 -5 347.555 10.7227 2
3 -10 -4 638.254 8.38516 2
3 -10 -3 936.938 9.74328 2
3 -10 -2 3451.53 11.8456 2
3 10 -1 21.6022 3.5094 2
3 10 0 8715.37 19.6975 2
3 10 1 1213.51 8.8662 2
3 10 2 625.588 7.48214 2
3 -10 3 407.543 7.41477 2
3 10 4 5069.93 19.7134 2
3 10 5 54.3857 5.35821 2
3 -10 6 1674.04 13.9043 2
3 -10 7 711.495 9.5862 2
3 -10 8 216.835 5.66571 2
3 -11 -9 1.77786 5.72028 2
3 -11 -8 23.7486 7.69681 2
3 11 -7 1750.16 12.8294 2
3 11 -6 1.299 6.71161 2
3 11 -5 2166.46 18.587 2
3 -11 -4 18.228 4.66431 2
3 -11 -3 1393.32 11.0122 2
3 -11 -2 22.5992 4.20699 2
3 11 -1 7099.93 15.7937 2
3 11 0 259.269 5.83394 2
3 11 1 4681.68 17.2305 2
3 11 2 801.648 8.20833 2
3 -11 3 1131.7 10.4931 2
3 11 4 177.812 7.92229 2
3 11 5 6154.35 22.7518 2
3 11 6 15.5681 5.17715 2
3 11 7 102.218 4.42071 2
3 -11 8 -0.37123 2.93157 2
3 -12 -9 228.813 7.8045 2
3 -12 -8 258.08 9.43045 2
3 -12 -7 70.5746 5.88574 2
3 12 -6 2079.77 19.0764 2
3 12 -5 537.066 11.2458 2
3 -12 -4 212.212 5.95276 2
3 -12 -3 2138.46 12.6206 2
3 12 -2 1975.85 11.7584 2
3 12 -1 14.1158 4.3856 2
3 12 0 3600.14 15.0697 2
3 12 1 1688.46 12.3244 2
3 12 2 671.947 7.86733 2
3 -12 3 966.853 10.1523 2
3 12 4 3974.78 22.8285 2
3 12 5 51.4805 5.25696 2
3 12 6 2110.78 16.4117 2
3 -12 7 980.572 11.3497 2
3 -13 -9 0.11346 4.28719 2
3 -13 -8 759.587 11.5876 2
3 -13 -7 82.0135 5.58967 2
3 -13 -6 48.217 7.68716 2
3 13 -5 249.812 9.10519 2
3 -13 -4 3639.26 16.3886 2
3 -13 -3 16.3756 5.24995 2
3 13 -2 3082.44 16.6653 2
3 13 -1 283.564 5.98329 2
3 13 0 1048.19 9.12574 2
3 13 1 222.887 6.67017 2
3 13 2 5017.7 18.9398 2
3 -13 3 539.723 9.09095 2
3 13 4 202.703 7.19746 2
3 13 5 264.444 6.15295 2
3 13 6 1531.55 13.1064 2
3 -13 7 13.8109 3.00602 2
3 -14 -8 38.4839 9.80334 2
3 -14 -7 292.924 6.68361 2
3 -14 -6 184.542 8.59768 2
3 -14 -5 985.88 20.0182 2
3 -14 -4 30.879 5.4846 2
3 -14 -3 2843.84 16.1527 2
3 14 -2 199.762 6.41371 2
3 14 -1 68.8227 6.07115 2
3 14 0 288.903 6.93199 2
3 14 1 4774.41 18.7903 2
3 14 2 85.9466 5.15508 2
3 -14 3 6805.4 24.7952 2
3 14 4 1481.89 13.0167 2
3 14 5 280.479 6.78913 2
3 14 6 115.502 5.00924 2
3 -14 7 2826.51 20.382 2
3 -15 -8 147.062 9.89674 2
3 -15 -7 558.222 7.45163 2
3 -15 -6 30.6949 6.52986 2
3 -15 -5 1176.86 15.5855 2
3 -15 -4 1367.32 11.1528 2
3 -15 -3 12.0871 4.9238 2
3 -15 -2 854.894 9.05946 2
3 15 -1 2350.41 17.4401 2
3 15 0 798.032 10.478 2
3 15 1 563.464 7.74879 2
3 15 2 1608.85 12.0917 2
3 -15 3 931.005 10.3054 2
3 15 4 229.729 6.65775 2
3 15 5 2114.98 13.5636 2
3 15 6 522.696 12.1527 2
3 -15 7 87.9792 6.54078 2
3 -16 -8 184.647 9.11823 2
3 -16 -7 7.94532 3.76845 2
3 -16 -6 2073.37 15.3108 2
3 -16 -5 5.12903 6.57589 2
3 -16 -4 176.696 6.15709 2
3 -16 -3 5.87643 4.69989 2
3 -16 -2 2999.63 17.3414 2
3 16 -1 2.85792 5.06568 2
3 16 0 2526.87 18.4868 2
3 16 1 91.4361 6.26319 2
3 16 2 28.87 5.10035 2
3 -16 3 115.059 7.80134 2
3 16 4 4023.45 18.1214 2
3 16 5 17.7022 4.12659 2
3 -16 6 1208.14 15.7208 2
3 -17 -7 1155.53 11.5991 2
3 -17 -6 14.8218 4.69957 2
3 -17 -5 686.694 11.3487 2
3 -17 -4 642.555 8.92694 2
3 -17 -3 198.73 5.72566 2
3 -17 -2 228.301 6.90956 2
3 17 -1 3200.75 16.7569 2
3 17 0 87.7644 7.49293 2
3 17 1 1805.65 13.1692 2
3 17 2 817.189 9.25703 2
3 -17 3 1194.72 14.7377 2
3 17 4 14.8516 4.91334 2
3 17 5 2512.31 15.1172 2
3 -17 6 139.735 8.03193 2
3 -18 -7 159.469 6.68653 2
3 -18 -6 427.187 6.67919 2
3 -18 -5 273.106 7.964 2
3 -18 -4 219.962 6.33147 2
3 -18 -3 1372.92 11.0454 2
3 -18 -2 890.812 8.91824 2
3 18 -1 21.2806 5.08212 2
3 18 0 902.048 10.4382 2
3 18 1 3838.35 19.6736 2
3 18 2 9.74469 4.70184 2
3 -18 3 1907.06 16.2188 2
3 18 4 713.592 8.51609 2
3 18 5 18.6981 3.78101 2
3 -19 -6 10.7433 3.10709 2
3 -19 -5 159.308 7.75632 2
3 -19 -4 3133.63 14.3839 2
3 -19 -3 55.8176 4.96033 2
3 -19 -2 1204.41 9.3885 2
3 19 -1 5.46794 4.86263 2
3 19 0 749.647 9.83446 2
3 19 1 11.9356 4.34947 2
3 19 2 4478.28 18.5851 2
3 -19 3 46.0921 7.1726 2
3 19 4 431.018 6.70143 2
3 -19 5 70.0206 4.95442 2
3 -20 -6 458.509 6.00405 2
3 -20 -5 830.381 12.9723 2
3 -20 -4 40.4338 5.66037 2
3 -20 -3 1403.83 10.8249 2
3 -20 -2 897.531 7.7726 2
3 -20 -1 193.55 5.58769 2
3 20 0 1155.22 9.87082 2
3 20 1 1548.79 10.073 2
3 -20 2 39.0775 4.8708 2
3 20 3 1404.86 20.1725 2
3 -20 4 610.349 9.67338 2
3 -21 -5 328.462 8.86161 2
3 -21 -4 279.946 7.5608 2
3 21 -3 249.046 5.63635 2
3 -21 -2 100.151 5.21131 2
3 -21 -1 2979.07 15.4232 2
3 21 0 73.3178 6.41375 2
3 21 1 792.738 8.28926 2
3 -21 2 336.527 8.71065 2
3 21 3 459.227 10.3247 2
3 21 4 6.76631 5.55993 2
3 -22 -5 122.04 5.38605 2
3 -22 -4 143.527 7.28587 2
3 22 -3 107.255 5.4313 2
3 -22 -2 1296.26 9.35201 2
3 -22 -1 8.42053 4.13147 2
3 -22 0 1990.86 13.4811 2
3 22 1 58.0119 4.71859 2
3 -22 2 11.526 4.91207 2
3 -22 3 57.046 4.59012 2
3 -23 -4 852 10.5653 2
3 23 -3 70.5538 4.12728 2
3 -23 -2 431.904 6.77148 2
3 -23 -1 1371.75 12.5188 2
3 23 0 531.793 7.03738 2
3 23 1 342.015 7.39112 2
3 -23 2 956.438 9.21437 2
3 -24 -3 1392.56 12.302 2
3 -24 -2 6.62819 4.26336 2
3 -24 -1 44.4367 5.46515 2
3 -24 0 31.6783 5.42011 2
3 -24 1 1103.67 8.80459 2
5 -1 0 63.455 14.32 2
5 -1 1 778.402 14.0098 2
5 -2 0 124.546 14.2974 2
5 -2 1 95.1828 12.4505 2
5 -3 0 42.1385 9.09501 2
5 -3 1 41.3312 10.7946 2
5 -4 -2 23.8192 11.2276 2
5 -4 0 394.024 11.1854 2
5 -4 1 -0.9327 9.62587 2
5 -5 -2 20.9796 9.78731 2
5 -5 0 -8.18854 8.12146 2
5 -6 -2 3.42284 8.40356 2
0 0 2 69908.2 148.504 -2
0 0 -2 69908.2 148.504 1
0 0 4 16721.3 80.3474 -2
0 0 -4 16721.3 80.3474 1
0 0 -6 20918.6 98.1053 -2
0 0 6 20918.6 98.1053 1
0 0 -8 127.323 10.1884 -2
0 0 8 127.323 10.1884 1
0 0 10 7774.07 58.4215 -2
0 0 -10 7774.07 58.4215 1
0 0 -12 1879.59 19.7378 -2
0 0 12 1879.59 19.7378 1
0 -1 1 33851.2 51.0148 -2
0 1 -1 33851.2 51.0148 1
0 1 -2 38067.3 71.8748 -2
0 -1 2 38067.3 71.8748 1
0 1 3 611.937 12.1856 -2
0 -1 -3 611.937 12.1856 1
0 1 4 8362.31 43.5768 -2
0 -1 -4 8362.31 43.5768 1
0 -1 -5 52563.8 117.191 -2
0 1 5 52563.8 117.191 1
0 -1 -6 4618.31 34.5624 -2
0 1 6 4618.31 34.5624 1
0 1 7 9639.76 34.8365 -2
0 -1 -7 9639.76 34.8365 1
0 -1 8 6360.32 31.1556 -2
0 1 -8 6360.32 31.1556 1
0 -1 -9 1155.38 15.0122 -2
0 1 9 1155.38 15.0122 1
0 1 10 76.4058 8.60498 -2
0 -1 -10 76.4058 8.60498 1
0 1 11 2480.07 22.7273 -2
0 -1 -11 2480.07 22.7273 1
0 -1 -12 346.706 9.27145 -2
0 1 12 346.706 9.27145 1
0 2 0 2226.96 10.1548 -2
0 -2 0 2226.96 10.1548 1
0 2 1 16909.5 30.7223 -2
0 -2 -1 16909.5 30.7223 1
0 -2 -2 3796.78 21.0474 -2
0 2 2 3796.78 21.0474 1
0 2 -3 135180 159.595 -2
0 -2 3 135180 159.595 1
0 -2 4 2273.3 24.0814 -2
0 2 -4 2273.3 24.0814 1
0 -2 5 14436.9 56.9007 -2
0 2 -5 14436.9 56.9007 1
0 2 6 12358.6 56.26 -2
0 -2 -6 12358.6 56.26 1
0 2 -7 11278.3 35.3119 -2
0 -2 7 11278.3 35.3119 1
0 -2 -8 21.4622 6.25896 -2
0 2 8 21.4622 6.25896 1
0 -2 -9 8504.64 35.3538 -2
0 2 9 8504.64 35.3538 1
0 -2 10 477.876 12.5453 -2
0 2 -10 477.876 12.5453 1
0 2 -11 131.409 9.86461 -2
0 -2 11 131.409 9.86461 1
0 2 -12 115.47 7.08826 -2
0 -2 12 115.47 7.08826 1
0 3 -1 110.002 5.11989 -2
0 -3 1 110.002 5.11989 1
0 -3 -2 220168 145.466 -2
0 3 2 220168 145.466 1
0 -3 3 3576.99 22.4817 -2
0 3 -3 3576.99 22.4817 1
0 3 4 33258.5 76.4747 -2
0 -3 -4 33258.5 76.4747 1
0 3 5 466.432 12.028 -2
0 -3 -5 466.432 12.028 1
0 3 6 1070.18 19.2383 -2
0 -3 -6 1070.18 19.2383 1
0 -3 7 361.635 8.6124 -2
0 3 -7 361.635 8.6124 1
0 -3 -8 15623.2 48.4219 -2
0 3 8 15623.2 48.4219 1
0 -3 -9 123.032 7.94423 -2
0 3 9 123.032 7.94423 1
0 3 10 2323.75 23.6298 -2
0 -3 -10 2323.75 23.6298 1
0 3 11 56.4844 8.30128 -2
0 -3 -11 56.4844 8.30128 1
0 3 12 1016.49 10.8198 -2
0 -3 -12 1016.49 10.8198 1
0 4 0 72733.2 105.176 -2
0 -4 0 72733.2 105.176 1
0 -4 -1 12722.6 33.4897 -2
0 4 1 12722.6 33.4897 1
0 -4 -2 43986.4 65.778 -2
0 4 2 43986.4 65.778 1
0 4 -3 65983.6 92.7661 -2
0 -4 3 65983.6 92.7661 1
0 -4 4 19159.7 60.1686 -2
0 4 -4 19159.7 60.1686 1
0 4 -5 2098.47 23.5518 -2
0 -4 5 2098.47 23.5518 1
0 -4 6 13389.8 56.9426 -2
0 4 -6 13389.8 56.9426 1
0 4 -7 10661.9 38.4066 -2
0 -4 7 10661.9 38.4066 1
0 4 8 83.4077 7.10857 -2
0 -4 -8 83.4077 7.10857 1
0 -4 9 4313.65 30.7647 -2
0 4 -9 4313.65 30.7647 1
0 4 10 2707.14 35.5773 -2
0 -4 -10 2707.14 35.5773 1
0 4 -11 14.5653 9.58966 -2
0 -4 11 14.5653 9.58966 1
0 4 12 380.461 11.106 -2
0 -4 -12 380.461 11.106 1
0 5 -1 84709.4 93.6929 -2
0 -5 1 84709.4 93.6929 1
0 5 2 836.173 12.4882 -2
0 -5 -2 836.173 12.4882 1
0 -5 -3 13092.2 42.7113 -2
0 5 3 13092.2 42.7113 1
0 -5 -4 3563.25 27.3382 -2
0 5 4 3563.25 27.3382 1
0 -5 5 55240.3 116.056 -2
0 5 -5 55240.3 116.056 1
0 5 -6 546.687 8.72095 -2
0 -5 6 546.687 8.72095 1
0 5 -7 13279.3 41.2303 -2
0 -5 7 13279.3 41.2303 1
0 -5 -8 1465.51 15.5102 -2
0 5 8 1465.51 15.5102 1
0 5 -9 1717.1 18.6654 -2
0 -5 9 1717.1 18.6654 1
0 5 -10 29.4289 11.9827 -2
0 -5 10 29.4289 11.9827 1
0 5 -11 4184.16 38.5479 -2
0 -5 11 4184.16 38.5479 1
0 -6 0 117030 145.386 -2
0 6 0 117030 145.386 1
0 -6 1 7602.17 30.024 -2
0 6 -1 7602.17 30.024 1
0 6 2 27795.7 60.7256 -2
0 -6 -2 27795.7 60.7256 1
0 6 -3 19978.4 55.0841 -2
0 -6 3 19978.4 55.0841 1
0 6 4 53407.3 101.49 -2
0 -6 -4 53407.3 101.49 1
0 -6 -5 3090.76 29.4546 -2
0 6 5 3090.76 29.4546 1
0 6 -6 27176.9 56.2256 -2
0 -6 6 27176.9 56.2256 1
0 -6 7 1867.35 16.1028 -2
0 6 -7 1867.35 16.1028 1
0 -6 -8 959.804 13.4891 -2
0 6 8 959.804 13.4891 1
0 -6 -9 349.716 12.8208 -2
0 6 9 349.716 12.8208 1
0 6 10 3651.56 42.5765 -2
0 -6 -10 3651.56 42.5765 1
0 6 11 45.3945 7.44379 -2
0 -6 -11 45.3945 7.44379 1
0 7 1 18443.3 52.5549 -2
0 -7 -1 18443.3 52.5549 1
0 7 -2 31579.9 68.893 -2
0 -7 2 31579.9 68.893 1
0 7 -3 37.0965 7.04434 -2
0 -7 3 37.0965 7.04434 1
0 -7 4 29111.2 77.727 -2
0 7 -4 29111.2 77.727 1
0 -7 -5 16987 65.566 -2
0 7 5 16987 65.566 1
0 7 -6 3915.31 21.8413 -2
0 -7 6 3915.31 21.8413 1
0 -7 7 6564.28 29.1769 -2
0 7 -7 6564.28 29.1769 1
0 -7 8 9909 46.0517 -2
0 7 -8 9909 46.0517 1
0 7 9 108.768 11.0331 -2
0 -7 -9 108.768 11.0331 1
0 7 10 648.435 20.6276 -2
0 -7 -10 648.435 20.6276 1
0 7 -11 978.874 14.4393 -2
0 -7 11 978.874 14.4393 1
0 -8 0 76.3153 10.413 -2
0 8 0 76.3153 10.413 1
0 -8 1 66588.6 100.294 -2
0 8 -1 66588.6 100.294 1
0 8 -2 10331.7 42.3623 -2
0 -8 2 10331.7 42.3623 1
0 -8 -3 48349.3 87.235 -2
0 8 3 48349.3 87.235 1
0 -8 -4 61.3819 8.42177 -2
0 8 4 61.3819 8.42177 1
0 8 -5 2008.67 24.2597 -2
0 -8 5 2008.67 24.2597 1
0 8 -6 922.254 11.6666 -2
0 -8 6 922.254 11.6666 1
0 -8 7 11361.7 43.6632 -2
0 8 -7 11361.7 43.6632 1
0 -8 -8 1358.56 17.6254 -2
0 8 8 1358.56 17.6254 1
0 8 9 15073.6 63.9322 -2
0 -8 -9 15073.6 63.9322 1
0 8 10 402.351 13.5522 -2
0 -8 -10 402.351 13.5522 1
0 8 11 62.8446 5.69294 -2
0 -8 -11 62.8446 5.69294 1
0 -9 -1 11187.2 44.7227 -2
0 9 1 11187.2 44.7227 1
0 -9 2 101987 160.061 -2
0 9 -2 101987 160.061 1
0 9 -3 16.7836 6.8317 -2
0 -9 3 16.7836 6.8317 1
0 9 4 40381.3 93.2086 -2
0 -9 -4 40381.3 93.2086 1
0 9 -5 7927.67 47.4774 -2
0 -9 5 7927.67 47.4774 1
0 9 -6 4932.23 27.4549 -2
0 -9 6 4932.23 27.4549 1
0 9 -7 2342.79 21.2967 -2
0 -9 7 2342.79 21.2967 1
0 -9 8 11018.4 47.2445 -2
0 9 -8 11018.4 47.2445 1
0 -9 -9 798.12 17.4775 -2
0 9 9 798.12 17.4775 1
0 9 -10 918.303 17.6698 -2
0 -9 10 918.303 17.6698 1
0 9 11 706.799 10.1427 -2
0 -9 -11 706.799 10.1427 1
0 -10 0 97710.1 197.208 -2
0 10 0 97710.1 197.208 1
0 10 1 1610.65 18.1703 -2
0 -10 -1 1610.65 18.1703 1
0 10 -2 21457.9 72.9413 -2
0 -10 2 21457.9 72.9413 1
0 10 -3 4794.57 34.1464 -2
0 -10 3 4794.57 34.1464 1
0 -10 4 15416.6 48.4657 -2
0 10 -4 15416.6 48.4657 1
0 -10 -5 1732.65 19.726 -2
0 10 5 1732.65 19.726 1
0 -10 -6 21364.2 59.6931 -2
0 10 6 21364.2 59.6931 1
0 -10 7 1883.44 19.3019 -2
0 10 -7 1883.44 19.3019 1
0 10 -8 1366.91 19.2281 -2
0 -10 8 1366.91 19.2281 1
0 10 9 733.804 14.1201 -2
0 -10 -9 733.804 14.1201 1
0 10 10 2658.4 21.3125 -2
0 -10 -10 2658.4 21.3125 1
0 10 11 84.5434 7.22998 -2
0 -10 -11 84.5434 7.22998 1
0 11 1 60992.9 105.218 -2
0 -11 -1 60992.9 105.218 1
0 11 2 1754.64 25.2555 -2
0 -11 -2 1754.64 25.2555 1
0 11 3 9231.71 51.5036 -2
0 -11 -3 9231.71 51.5036 1
0 11 4 234.189 9.13966 -2
0 -11 -4 234.189 9.13966 1
0 -11 -5 27142 77.699 -2
0 11 5 27142 77.699 1
0 -11 -6 1066.16 19.1272 -2
0 11 6 1066.16 19.1272 1
0 11 -7 18378.3 58.4094 -2
0 -11 7 18378.3 58.4094 1
0 11 -8 656.744 13.0567 -2
0 -11 8 656.744 13.0567 1
0 -11 -9 109.421 8.36993 -2
0 11 9 109.421 8.36993 1
0 11 10 103.771 9.68966 -2
0 -11 -10 103.771 9.68966 1
0 11 11 3090.18 23.3174 -2
0 -11 -11 3090.18 23.3174 1
0 12 0 61872.3 178.044 -2
0 -12 0 61872.3 178.044 1
0 -12 -1 2639.63 26.3623 -2
0 12 1 2639.63 26.3623 1
0 -12 -2 8581.23 51.2314 -2
0 12 2 8581.23 51.2314 1
0 12 -3 12553.9 62.0855 -2
0 -12 3 12553.9 62.0855 1
0 12 -4 8044.7 36.9912 -2
0 -12 4 8044.7 36.9912 1
0 12 5 1274.97 22.9381 -2
0 -12 -5 1274.97 22.9381 1
0 -12 -6 12303 72.5148 -2
0 12 6 12303 72.5148 1
0 -12 -7 2630.34 21.3603 -2
0 12 7 2630.34 21.3603 1
0 -12 -8 231.693 10.3533 -2
0 12 8 231.693 10.3533 1
0 12 9 2621.67 22.3004 -2
0 -12 -9 2621.67 22.3004 1
0 12 10 1914.33 24.4622 -2
0 -12 -10 1914.33 24.4622 1
0 12 11 50.1585 7.16928 -2
0 -12 -11 50.1585 7.16928 1
0 13 -1 3764.75 32.6377 -2
0 -13 1 3764.75 32.6377 1
0 -13 -2 60629.6 151.457 -2
0 13 2 60629.6 151.457 1
0 13 -3 313.23 13.4359 -2
0 -13 3 313.23 13.4359 1
0 13 -4 33127.3 61.7907 -2
0 -13 4 33127.3 61.7907 1
0 13 5 2572.02 26.6804 -2
0 -13 -5 2572.02 26.6804 1
0 -13 -6 1686.89 24.0716 -2
0 13 6 1686.89 24.0716 1
0 -13 -7 195.299 9.49808 -2
0 13 7 195.299 9.49808 1
0 -13 -8 6659.56 40.3147 -2
0 13 8 6659.56 40.3147 1
0 -13 -9 563.741 14.9892 -2
0 13 9 563.741 14.9892 1
0 13 10 407.568 11.2267 -2
0 -13 -10 407.568 11.2267 1
0 13 11 65.102 5.90353 -2
0 -13 -11 65.102 5.90353 1
0 14 0 2847.63 44.4839 -2
0 -14 0 2847.63 44.4839 1
0 -14 1 22462.6 81.7372 -2
0 14 -1 22462.6 81.7372 1
0 -14 -2 2572.94 31.2137 -2
0 14 2 2572.94 31.2137 1
0 14 3 45775.6 93.9365 -2
0 -14 -3 45775.6 93.9365 1
0 14 4 3036.62 20.4819 -2
0 -14 -4 3036.62 20.4819 1
0 -14 -5 1297.21 20.8935 -2
0 14 5 1297.21 20.8935 1
0 -14 6 943.69 19.3291 -2
0 14 -6 943.69 19.3291 1
0 -14 -7 5660.99 38.2632 -2
0 14 7 5660.99 38.2632 1
0 -14 -8 101.965 9.21543 -2
0 14 8 101.965 9.21543 1
0 -14 9 5881.5 39.4535 -2
0 14 -9 5881.5 39.4535 1
0 14 -10 405.667 10.3413 -2
0 -14 10 405.667 10.3413 1
0 -15 1 22443.3 90.9255 -2
0 15 -1 22443.3 90.9255 1
0 15 -2 16287 66.7394 -2
0 -15 2 16287 66.7394 1
0 -15 -3 47.5251 7.38301 -2
0 15 3 47.5251 7.38301 1
0 15 -4 8646.53 36.7762 -2
0 -15 4 8646.53 36.7762 1
0 -15 -5 14687.8 68.4359 -2
0 15 5 14687.8 68.4359 1
0 -15 -6 750.546 15.9912 -2
0 15 6 750.546 15.9912 1
0 -15 -7 2949.26 29.0905 -2
0 15 7 2949.26 29.0905 1
0 -15 -8 3126.8 30.1704 -2
0 15 8 3126.8 30.1704 1
0 -15 -9 814.763 14.7541 -2
0 15 9 814.763 14.7541 1
0 15 10 546.223 13.2924 -2
0 -15 -10 546.223 13.2924 1
0 -16 0 55345.9 206.584 -2
0 16 0 55345.9 206.584 1
0 -16 -1 526.377 15.1686 -2
0 16 1 526.377 15.1686 1
0 16 -2 8315.99 44.1679 -2
0 -16 2 8315.99 44.1679 1
0 16 3 227.757 8.51132 -2
0 -16 -3 227.757 8.51132 1
0 16 -4 13942.9 42.7678 -2
0 -16 4 13942.9 42.7678 1
0 16 -5 21.1712 8.88657 -2
0 -16 5 21.1712 8.88657 1
0 -16 -6 10154.3 51.5709 -2
0 16 6 10154.3 51.5709 1
0 -16 -7 303.595 16.5255 -2
0 16 7 303.595 16.5255 1
0 -16 -8 233.555 11.7868 -2
0 16 8 233.555 11.7868 1
0 16 -9 138.514 8.21075 -2
0 -16 9 138.514 8.21075 1
0 16 10 2599.81 22.0405 -2
0 -16 -10 2599.81 22.0405 1
0 -17 -1 26740.4 77.59 -2
0 17 1 26740.4 77.59 1
0 17 -2 7195.67 39.7835 -2
0 -17 2 7195.67 39.7835 1
0 17 -3 424.678 10.3797 -2
0 -17 3 424.678 10.3797 1
0 17 -4 3656.38 23.3681 -2
0 -17 4 3656.38 23.3681 1
0 17 -5 15625.6 65.8516 -2
0 -17 5 15625.6 65.8516 1
0 17 -6 36.7503 10.7133 -2
0 -17 6 36.7503 10.7133 1
0 -17 -7 4443.51 46.1774 -2
0 17 7 4443.51 46.1774 1
0 17 -8 1464.8 25.7216 -2
0 -17 8 1464.8 25.7216 1
0 -17 -9 324.738 11.8822 -2
0 17 9 324.738 11.8822 1
0 17 -10 159.449 6.61972 -2
0 -17 10 159.449 6.61972 1
0 -18 0 12967.3 124.952 -2
0 18 0 12967.3 124.952 1
0 18 -1 3550.57 30.3571 -2
0 -18 1 3550.57 30.3571 1
0 -18 2 3713.5 25.1043 -2
0 18 -2 3713.5 25.1043 1
0 -18 -3 17887.4 54.7816 -2
0 18 3 17887.4 54.7816 1
0 -18 -4 4301.53 24.6688 -2
0 18 4 4301.53 24.6688 1
0 -18 -5 1069.91 19.9726 -2
0 18 5 1069.91 19.9726 1
0 18 -6 2653.29 33.4031 -2
0 -18 6 2653.29 33.4031 1
0 -18 -7 6945.52 48.5512 -2
0 18 7 6945.52 48.5512 1
0 18 -8 18.5109 9.78039 -2
0 -18 8 18.5109 9.78039 1
0 -18 9 1733.49 20.1962 -2
0 18 -9 1733.49 20.1962 1
0 19 -1 4954.52 35.797 -2
0 -19 1 4954.52 35.797 1
0 -19 2 40336.3 80.4027 -2
0 19 -2 40336.3 80.4027 1
0 -19 3 445.908 11.8735 -2
0 19 -3 445.908 11.8735 1
0 -19 -4 7853.11 35.3501 -2
0 19 4 7853.11 35.3501 1
0 19 -5 12.4131 8.81248 -2
0 -19 5 12.4131 8.81248 1
0 -19 6 1145.66 20.7364 -2
0 19 -6 1145.66 20.7364 1
0 -19 -7 74.6856 10.9507 -2
0 19 7 74.6856 10.9507 1
0 -19 -8 6638.03 64.4328 -2
0 19 8 6638.03 64.4328 1
0 -19 9 39.492 6.61085 -2
0 19 -9 39.492 6.61085 1
0 -20 0 13973.6 98.3287 -2
0 20 0 13973.6 98.3287 1
0 -20 -1 4930.54 36.3034 -2
0 20 1 4930.54 36.3034 1
0 -20 -2 370.734 11.5407 -2
0 20 2 370.734 11.5407 1
0 -20 -3 15513.8 52.8605 -2
0 20 3 15513.8 52.8605 1
0 20 -4 3446.77 24.3654 -2
0 -20 4 3446.77 24.3654 1
0 20 -5 2210.74 27.7862 -2
0 -20 5 2210.74 27.7862 1
0 20 6 3973.9 29.1587 -2
0 -20 -6 3973.9 29.1587 1
0 20 7 2358.37 26.1257 -2
0 -20 -7 2358.37 26.1257 1
0 -20 -8 -3.17564 9.89918 -2
0 20 8 -3.17564 9.89918 1
0 -20 -9 1887.16 19.0518 -2
0 20 9 1887.16 19.0518 1
0 21 1 4906.3 36.6515 -2
0 -21 -1 4906.3 36.6515 1
0 -21 2 1375.66 19.5736 -2
0 21 -2 1375.66 19.5736 1
0 -21 3 279.055 11.0024 -2
0 21 -3 279.055 11.0024 1
0 21 -4 1018.48 17.9402 -2
0 -21 4 1018.48 17.9402 1
0 -21 -5 15019.4 77.8395 -2
0 21 5 15019.4 77.8395 1
0 21 6 121.705 9.30322 -2
0 -21 -6 121.705 9.30322 1
0 21 7 3231.47 28.245 -2
0 -21 -7 3231.47 28.245 1
0 21 8 442.802 10.0929 -2
0 -21 -8 442.802 10.0929 1
0 -22 0 41052.5 147.739 -2
0 22 0 41052.5 147.739 1
0 -22 -1 53.5522 11.388 -2
0 22 1 53.5522 11.388 1
0 -22 -2 2466.25 25.0203 -2
0 22 2 2466.25 25.0203 1
0 22 3 1617.43 24.8831 -2
0 -22 -3 1617.43 24.8831 1
0 22 4 6528 37.8504 -2
0 -22 -4 6528 37.8504 1
0 -22 5 69.6313 12.2117 -2
0 22 -5 69.6313 12.2117 1
0 22 6 6480.92 37.1478 -2
0 -22 -6 6480.92 37.1478 1
0 22 7 88.0156 7.5988 -2
0 -22 -7 88.0156 7.5988 1
0 -22 8 91.2585 5.45026 -2
0 22 -8 91.2585 5.45026 1
0 -23 -1 6526.39 54.0075 -2
0 23 1 6526.39 54.0075 1
0 23 2 9587.05 61.8381 -2
0 -23 -2 9587.05 61.8381 1
0 23 3 174.084 11.2049 -2
0 -23 -3 174.084 11.2049 1
0 -23 -4 3235.98 34.0006 -2
0 23 4 3235.98 34.0006 1
0 -23 5 5211.87 51.8081 -2
0 23 -5 5211.87 51.8081 1
0 -23 6 691.027 14.5282 -2
0 23 -6 691.027 14.5282 1
0 -23 -7 970.877 13.8161 -2
0 23 7 970.877 13.8161 1
0 24 0 683.379 25.8678 -2
0 -24 0 683.379 25.8678 1
0 24 1 3477.97 47.3043 -2
0 -24 -1 3477.97 47.3043 1
0 24 2 523.911 19.2321 -2
0 -24 -2 523.911 19.2321 1
0 24 3 14892.6 68.0122 -2
0 -24 -3 14892.6 68.0122 1
0 24 -4 181.136 11.808 -2
0 -24 4 181.136 11.808 1
0 -24 5 590.182 14.3406 -2
0 24 -5 590.182 14.3406 1
0 -24 6 174.646 8.56181 -2
0 24 -6 174.646 8.56181 1
0 24 7 2212.66 18.4169 -2
0 -24 -7 2212.66 18.4169 1
0 25 1 1594.2 23.7082 -2
0 -25 -1 1594.2 23.7082 1
0 25 -2 10913 61.2116 -2
0 -25 2 10913 61.2116 1
0 -25 -3 133.591 11.1842 -2
0 25 3 133.591 11.1842 1
0 -25 -4 3768.77 54.673 -2
0 25 4 3768.77 54.673 1
0 25 5 1271.22 19.3934 -2
0 -25 -5 1271.22 19.3934 1
0 -25 -6 345.531 9.80615 -2
0 25 6 345.531 9.80615 1
0 26 0 7874.73 63.5066 -2
0 -26 0 7874.73 63.5066 1
0 26 1 906.319 17.8106 -2
0 -26 -1 906.319 17.8106 1
0 26 2 2915.4 26.3175 -2
0 -26 -2 2915.4 26.3175 1
0 -26 -3 4026.89 31.285 -2
0 26 3 4026.89 31.285 1
0 -26 -4 2160.57 38.3884 -2
0 26 4 2160.57 38.3884 1
0 -26 -5 187.062 8.3988 -2
0 26 5 187.062 8.3988 1
0 -26 -6 2764.75 29.3599 -2
0 26 6 2764.75 29.3599 1
0 27 1 8614.97 42.1409 -2
0 -27 -1 8614.97 42.1409 1
0 27 -2 21.457 7.82026 -2
0 -27 2 21.457 7.82026 1
0 -27 -3 101.125 14.1026 -2
0 27 3 101.125 14.1026 1
0 27 -4 58.6176 6.69722 -2
0 -27 4 58.6176 6.69722 1
0 -27 -5 2517.07 21.7563 -2
0 27 5 2517.07 21.7563 1
0 28 0 8535.77 54.6418 -2
0 -28 0 8535.77 54.6418 1
0 28 1 1782.35 16.5659 -2
0 -28 -1 1782.35 16.5659 1
0 -28 -2 1676.4 33.0461 -2
0 28 2 1676.4 33.0461 1
0 -28 -3 2128.87 33.2766 -2
0 28 3 2128.87 33.2766 1
0 -28 -4 2272.26 21.4032 -2
0 28 4 2272.26 21.4032 1
0 -29 -1 175.277 10.6449 -2
0 29 1 175.277 10.6449 1
0 -29 -2 3619.14 39.4776 -2
0 29 2 3619.14 39.4776 1
0 -29 -3 82.1702 8.61173 -2
0 29 3 82.1702 8.61173 1
0 -30 0 275.628 12.3662 -2
0 30 0 275.628 12.3662 1
0 -30 -1 1957.8 18.0022 -2
0 30 1 1957.8 18.0022 1
-1 0 12 826.096 10.7204 1
1 0 -10 26.0312 12.5964 1
1 0 -8 4869.62 32.5676 1
1 0 -6 3748.93 54.8359 1
1 0 -4 15301.2 72.9679 1
1 0 -2 346346 180.756 1
1 0 0 31332.5 78.0846 1
-1 0 -2 12810.2 38.8825 1
-1 0 -4 17640.8 57.7067 1
1 0 6 56.4802 5.26789 1
1 0 8 8640.91 31.8917 1
1 0 10 2325.99 18.0019 1
-1 1 12 6.59104 4.96008 1
1 1 -11 129.707 12.5421 1
1 -1 -10 873.727 13.7043 1
1 -1 -9 1865.58 14.2504 1
1 1 -8 436.411 7.9533 1
-1 1 7 10313.8 24.7667 1
1 -1 -6 1926.26 25.9466 1
-1 -1 5 195.883 12.3537 1
1 1 -4 8866.11 34.9215 1
-1 1 3 15030.1 37.2178 1
-1 1 2 1234.26 9.54218 1
-1 -1 1 11765.2 27.8846 1
1 1 0 17816.1 34.7003 1
1 -1 1 83.1871 3.74972 1
-1 -1 -2 6025.49 21.4551 1
-1 1 -3 38833.6 52.925 1
1 -1 4 6307.37 26.7823 1
-1 -1 -5 7798.43 42.5628 1
-1 -1 -6 6182.08 17.1428 1
-1 -1 -7 1578.48 11.2902 1
1 -1 8 106.471 4.74692 1
-1 -1 -9 2828.81 15.8163 1
1 -1 10 444.691 7.2857 1
1 1 11 195.534 9.25384 1
1 2 -12 80.8563 5.48619 1
1 2 -11 1416.55 26.1004 1
1 2 -10 12.1135 6.75097 1
1 2 -9 2049.4 18.1736 1
-1 -2 8 2445.36 14.8071 1
1 2 -7 3028.78 14.1673 1
1 2 -6 772.603 12.559 1
1 -2 -5 32166.1 99.3561 1
1 2 -4 205.951 8.6439 1
-1 -2 3 5253.65 22.1923 1
1 -2 -2 1675.91 10.4366 1
-1 -2 1 9696.5 45.8672 1
1 -2 0 2102.9 17.0984 1
-1 -2 -1 60892.4 50.2217 1
1 -2 2 1379.77 12.5906 1
1 -2 3 8450.44 32.6395 1
-1 2 -4 9378.45 43.5498 1
-1 2 -5 9875.17 46.9123 1
-1 2 -6 106.983 4.12468 1
1 2 7 8183.73 21.0219 1
1 2 8 408.642 6.8754 1
-1 -2 -9 52.5538 4.45009 1
-1 -2 -10 142.787 5.49159 1
1 2 11 907.218 11.8312 1
1 -3 -12 254.181 5.40089 1
-1 -3 11 5.19996 5.22103 1
1 -3 -10 2516.56 18.1373 1
-1 -3 9 83.0537 6.63366 1
1 -3 -8 227.604 5.77881 1
1 -3 -7 192.782 5.08226 1
1 -3 -6 8452.67 25.9797 1
1 -3 -5 412.471 14.6431 1
1 3 -4 43435.7 80.3737 1
-1 -3 3 776.411 8.04605 1
-1 3 2 1946.29 14.6336 1
-1 3 1 694.279 10.5212 1
1 3 0 121538 98.6645 1
1 3 1 1526.35 9.47486 1
1 -3 2 21003.3 40.75 1
1 -3 3 313.25 7.32766 1
-1 3 -4 1048.98 16.2597 1
-1 -3 -5 255.866 10.3073 1
1 -3 6 14748.6 24.9092 1
1 -3 7 162.348 4.46577 1
-1 3 -8 2229.48 12.9473 1
-1 3 -9 39.3703 4.23036 1
1 -3 10 1692.34 11.2998 1
1 3 11 5.15642 5.12036 1
1 -4 -12 273.148 5.15467 1
-1 -4 11 600.44 9.21907 1
1 -4 -10 33.1863 5.94638 1
1 -4 -9 1586.38 14.7691 1
1 4 -8 3419.73 16.6125 1
-1 4 7 698.767 8.57158 1
1 -4 -6 3222.74 16.6279 1
-1 -4 5 13767.9 51.9076 1
1 4 -4 7478.02 30.8288 1
1 -4 -3 4552.47 17.4475 1
-1 -4 2 26323 58.6333 1
1 4 -1 4117.11 16.4669 1
1 -4 0 24426.6 27.1536 1
1 4 1 42754.9 54.1594 1
1 4 2 17741.1 38.4138 1
1 4 3 1135.64 12.9596 1
1 4 4 9170.51 33.0596 1
-1 4 -5 11390.5 46.7794 1
-1 -4 -6 13.6758 3.22583 1
1 -4 7 4328.2 16.5677 1
-1 4 -8 2525.3 13.1055 1
-1 -4 -9 7.07601 4.86617 1
-1 -4 -10 597.326 8.20947 1
-1 -4 -11 585.113 8.08542 1
1 -5 -11 177.75 6.24468 1
1 5 -10 253.103 7.3316 1
-1 5 9 2462.83 21.7565 1
1 -5 -8 141.977 6.22628 1
-1 -5 7 11582.1 33.2008 1
1 -5 -6 532.185 7.90822 1
-1 -5 5 1810.72 19.8344 1
-1 5 4 497.69 9.58288 1
1 5 -3 30932.5 67.8503 1
-1 5 2 89.2584 7.30234 1
-1 5 1 31582.3 37.0095 1
1 5 0 453.317 4.3626 1
-1 5 -1 7671.06 22.5945 1
-1 -5 -2 3526.66 15.9691 1
-1 -5 -3 46619.9 83.3451 1
1 -5 4 318.798 7.86565 1
-1 -5 -5 11416.3 44.2449 1
-1 5 -6 1213.28 7.99122 1
-1 5 -7 2341.21 11.7196 1
1 -5 8 5.58428 4.29298 1
1 -5 9 5972.2 23.1824 1
1 5 10 13.2814 4.7121 1
1 -5 11 116.205 5.63345 1
-1 6 12 311.044 11.857 1
1 6 -11 58.8821 4.96225 1
-1 -6 10 172.887 6.21591 1
1 -6 -9 262.151 7.0551 1
-1 6 8 6154.53 23.3724 1
1 -6 -7 508.099 9.32134 1
-1 -6 6 10652.9 33.6863 1
-1 -6 5 4917.65 38.189 1
-1 -6 4 10675.6 50.9729 1
-1 -6 3 2600.88 20.1591 1
-1 6 2 46860.6 70.1595 1
1 -6 -1 2610.77 12.5335 1
1 -6 0 6932.36 16.71 1
1 6 1 12282.7 32.4565 1
1 6 2 41338.2 60.9669 1
-1 6 -3 3040.21 21.7617 1
1 6 4 22097 51.9759 1
-1 -6 -5 2187.57 18.7302 1
1 -6 6 743.636 6.91875 1
1 -6 7 387.828 6.301 1
1 -6 8 5105.15 19.0534 1
-1 6 -9 59.0035 5.15987 1
-1 -6 -10 1344.67 12.1734 1
-1 -6 -11 27.0828 7.46955 1
1 -7 -11 28.1293 4.64291 1
1 -7 -10 1896.15 13.2584 1
1 7 -9 1584.55 13.1227 1
-1 -7 8 739.517 9.63431 1
-1 -7 7 3711.96 23.4113 1
-1 -7 6 6898.15 28.952 1
-1 -7 5 20.7135 8.63936 1
-1 -7 4 9439.73 42.8625 1
-1 -7 3 6193.11 30.2005 1
-1 -7 2 272.112 6.72977 1
-1 7 1 8326 22.6966 1
-1 -7 0 21001.1 31.3425 1
1 7 1 124.565 6.04569 1
1 7 2 19759.3 49.1385 1
-1 -7 -3 13846.3 47.074 1
-1 7 -4 3983.16 28.0912 1
-1 7 -5 4379.01 21.7323 1
1 7 6 8018.46 19.9905 1
1 -7 7 89.352 4.73206 1
-1 -7 -8 422.925 6.97631 1
-1 -7 -9 994.604 12.5314 1
1 -7 10 352.462 8.78332 1
-1 -7 -11 24.2748 6.845 1
1 -8 -11 2243.09 14.1548 1
1 8 -10 219.219 6.7043 1
1 8 -9 1952.5 14.7649 1
-1 8 8 299.124 7.53023 1
-1 8 7 1142.27 13.9826 1
1 -8 -6 11.2516 5.21753 1
-1 8 5 17279.2 68.0122 1
1 -8 -4 991.802 12.3368 1
1 -8 -3 15313.7 38.8603 1
1 8 -2 36.5108 4.77085 1
-1 -8 1 31064.7 44.338 1
-1 -8 0 5337.83 19.7735 1
-1 -8 -1 24458.4 43.6455 1
1 8 2 86.8464 6.80615 1
1 -8 3 494.339 8.54204 1
1 -8 4 523.892 12.5034 1
-1 8 -5 11377 27.1617 1
1 -8 6 962.26 7.87071 1
-1 -8 -7 14956.4 31.2685 1
-1 -8 -8 589.588 8.83839 1
1 8 9 58.2967 5.54806 1
-1 -8 -10 -1.32891 5.37961 1
-1 -8 -11 1061.68 16.4182 1
1 9 -11 112.688 5.25326 1
1 -9 -10 1489.04 17.364 1
1 -9 -9 466.335 8.09325 1
1 9 -8 851.2 9.27707 1
-1 -9 7 1657.22 15.032 1
-1 -9 6 9529.07 31.3068 1
-1 -9 5 13.6264 7.38545 1
1 -9 -4 24717.2 54.3777 1
-1 9 3 3476.84 19.5099 1
-1 -9 2 93.0828 4.83585 1
-1 9 1 6313.59 20.8779 1
1 9 0 43880.4 53.7687 1
1 9 1 160.82 5.72846 1
1 9 2 27210.3 50.1421 1
-1 -9 -3 6415.5 28.3929 1
1 9 4 4329.86 31.5761 1
1 -9 5 1980.86 12.7929 1
1 -9 6 12244.7 27.229 1
1 -9 7 762.087 8.9548 1
1 9 8 974.337 11.1762 1
1 -9 9 741.634 8.94708 1
-1 -9 -10 252.959 8.30804 1
-1 -9 -11 9.17429 5.83266 1
1 -10 -11 143.856 7.80722 1
1 -10 -10 184.761 6.75282 1
1 -10 -9 332.539 7.84527 1
-1 10 8 3751.27 17.663 1
1 10 -7 491.937 7.59846 1
1 -10 -6 3752.58 17.4986 1
-1 -10 5 1405.24 12.018 1
1 -10 -4 5916.44 27.8616 1
1 10 -3 502.544 9.66837 1
-1 -10 2 35285.8 52.6096 1
-1 10 1 978.772 10.7061 1
1 10 0 8669.42 26.8322 1
1 10 1 2984.35 17.4795 1
1 -10 2 11315 37.6942 1
1 -10 3 689.818 11.6884 1
-1 -10 -4 19444.7 73.9984 1
-1 10 -5 2062.3 13.4588 1
1 10 6 1437.93 10.5465 1
-1 10 -7 584.555 8.36132 1
1 10 8 3514.62 19.0483 1
1 10 9 60.6689 5.1028 1
-1 -10 -10 791.174 11.804 1
-1 -10 -11 218.675 7.94233 1
1 -11 -11 12.8596 5.37222 1
-1 11 10 64.4034 6.44222 1
-1 11 9 4508.68 23.1389 1
1 -11 -8 168.542 5.77077 1
-1 -11 7 7428.3 26.8011 1
-1 11 6 75.2196 5.56048 1
1 11 -5 1023.63 10.3867 1
1 11 -4 663.697 10.6787 1
-1 -11 3 20790.7 47.6071 1
-1 -11 2 23.9354 5.35055 1
-1 11 1 24873.5 61.6834 1
1 11 0 412.531 9.12271 1
-1 11 -1 7107.72 28.7553 1
-1 11 -2 162.832 8.3729 1
-1 -11 -3 18759.9 55.9763 1
1 -11 4 944.994 12.5977 1
-1 -11 -5 14093.6 30.852 1
1 -11 6 959.747 8.9684 1
1 11 7 191.324 6.04276 1
-1 -11 -8 131.164 6.5376 1
-1 -11 -9 4494.84 29.2475 1
-1 -11 -10 2.20153 4.85498 1
1 -12 -11 378.722 7.56004 1
-1 -12 10 19.448 5.65351 1
-1 -12 9 661.4 10.5297 1
-1 12 8 2684.06 20.9575 1
1 -12 -7 569.317 10.3683 1
-1 12 6 1857.7 14.3266 1
-1 12 5 3438.81 18.1609 1
-1 12 4 3499.52 19.1272 1
-1 12 3 783.683 11.8065 1
-1 -12 2 21628.3 54.855 1
-1 12 1 1831.22 18.886 1
-1 12 0 2447.22 18.7993 1
1 12 1 7775.24 33.0666 1
-1 12 -2 6431.46 34.1023 1
-1 -12 -3 291.456 10.1333 1
1 -12 4 10924.1 31.3229 1
-1 -12 -5 2675.58 16.2838 1
1 -12 6 437.283 6.687 1
1 12 7 2094.74 18.3211 1
-1 -12 -8 2764.46 16.1542 1
1 12 9 34.6171 6.09012 1
-1 -12 -10 1094.63 12.1496 1
-1 -13 11 25.7575 8.23797 1
-1 -13 10 1207.33 12.9156 1
1 -13 -9 30.4074 5.45124 1
1 13 -8 322.604 9.18679 1
-1 -13 7 480.536 10.0909 1
-1 13 6 8124.51 28.5704 1
-1 -13 5 9.76549 5.83193 1
-1 13 4 17887.7 38.3342 1
1 13 -3 1039.46 12.4453 1
-1 13 2 95.3845 7.68309 1
1 -13 -1 1840.02 19.9229 1
1 -13 0 26788.5 67.0383 1
-1 13 -1 285.585 10.4061 1
-1 13 -2 22628.6 69.3459 1
1 -13 3 2056.11 18.4935 1
1 -13 4 1891.24 12.6179 1
1 -13 5 250.505 7.36944 1
1 13 6 6797.09 24.6887 1
1 13 7 733.553 12.0529 1
1 -13 8 404.528 8.1124 1
-1 -13 -9 65.8751 6.18205 1
-1 -13 -10 385.959 6.82987 1
-1 -14 10 13.7162 4.37833 1
-1 14 9 1003.21 11.4119 1
-1 14 8 185.258 7.63454 1
-1 -14 7 568.882 11.4674 1
-1 -14 6 778.898 9.49575 1
-1 -14 5 14302.1 38.351 1
-1 -14 4 810.692 10.6118 1
-1 -14 3 6346.08 24.394 1
1 -14 -2 1421.5 11.9921 1
-1 -14 1 10853.2 45.3196 1
1 -14 0 967.917 15.3612 1
1 14 1 24957.1 87.1657 1
1 -14 2 1884.08 18.8184 1
1 -14 3 608.913 8.87886 1
1 14 4 889.685 9.87194 1
1 -14 5 6417.6 27.4688 1
1 -14 6 111.498 6.04832 1
-1 -14 -7 7130.19 35.4575 1
1 -14 8 751.733 9.81553 1
1 14 9 56.4216 5.7225 1
-1 -14 -10 37.0554 4.20022 1
-1 -15 10 695.918 13.0085 1
1 -15 -9 823.686 9.52081 1
1 -15 -8 117.847 6.88728 1
1 -15 -7 3119.33 24.7683 1
1 -15 -6 2264.62 15.9881 1
-1 15 5 9.61518 6.5128 1
1 -15 -4 4247.76 21.7505 1
-1 15 3 7900.99 25.8229 1
1 -15 -2 55.0285 4.9092 1
1 15 -1 11033.3 31.8834 1
-1 15 0 9759.61 42.2792 1
1 -15 1 30.6611 8.34055 1
1 15 2 5461.1 21.9232 1
1 15 3 11860.8 37.2025 1
1 15 4 1087.68 11.7893 1
1 -15 5 2150.79 17.9074 1
1 -15 6 2561.5 16.1055 1
1 -15 7 886.802 13.9385 1
1 15 8 531.617 8.98126 1
-1 -15 -9 1141.94 13.1233 1
-1 15 -10 76.0126 8.54299 1
-1 -16 10 45.2735 6.43402 1
-1 16 9 45.2837 4.03748 1
-1 16 8 2596.55 17.5642 1
1 16 -7 7.15003 6.39754 1
-1 16 6 2891.17 17.3409 1
1 -16 -5 93.6651 7.50353 1
-1 -16 4 3558.63 19.0164 1
-1 16 3 99.042 6.17104 1
-1 -16 2 22670 38.9383 1
-1 -16 1 234.866 6.7522 1
1 -16 0 3077.72 28.3213 1
-1 16 -1 97.1392 11.6934 1
-1 16 -2 11435.7 30.9283 1
1 16 3 16.5555 5.61606 1
-1 -16 -4 8247.83 33.0858 1
-1 -16 -5 277.379 9.13947 1
1 -16 6 131.778 9.95816 1
1 -16 7 115.837 7.7032 1
1 16 8 3123.56 18.0149 1
-1 -16 -9 15.4057 5.6448 1
-1 -17 10 178.165 11.0014 1
-1 17 9 938.376 10.0004 1
-1 17 8 7.99779 4.78224 1
-1 -17 7 3616.39 22.9258 1
1 17 -6 1201.87 11.9771 1
-1 17 5 30.3056 6.40684 1
-1 17 4 2332.63 15.7464 1
1 -17 -3 11689.1 32.9877 1
1 -17 -2 34.4334 5.10134 1
-1 17 1 9398.63 36.6442 1
1 -17 0 4267.29 35.6848 1
1 17 1 518.872 15.393 1
1 -17 2 1844.31 14.9615 1
1 -17 3 11932 41.1627 1
-1 -17 -4 85.5185 7.46531 1
1 -17 5 4134.86 31.3608 1
1 17 6 1433.59 22.3198 1
-1 -17 -7 525.89 10.8312 1
1 17 8 103.674 4.59768 1
-1 -17 -9 1363 16.3568 1
-1 18 9 1153.26 11.2385 1
-1 -18 8 516.708 8.8756 1
-1 -18 7 350.019 8.86658 1
1 -18 -6 808.021 10.8092 1
-1 18 5 5305.3 22.4339 1
-1 18 4 946.829 11.4522 1
1 -18 -3 1395.93 12.9233 1
-1 -18 2 5226.08 21.5143 1
1 -18 -1 1774.43 23.1836 1
-1 -18 0 2231.64 26.691 1
1 -18 1 9785.32 40.5806 1
1 -18 2 3228.83 21.9518 1
1 18 3 524.323 9.96812 1
1 -18 4 2325.55 20.3733 1
1 18 5 6965.69 31.8159 1
-1 -18 -6 7.82004 6.34815 1
1 -18 7 1924.94 17.5304 1
-1 -18 -8 699.255 7.1641 1
-1 -18 -9 -0.13048 3.7808 1
-1 19 9 23.5048 4.84783 1
-1 -19 8 219.977 8.35735 1
-1 -19 7 9.00139 5.28439 1
-1 -19 6 2086.35 15.3222 1
-1 19 5 165.496 6.73873 1
1 19 -4 11497.6 35.9339 1
1 19 -3 1704.81 13.6438 1
1 -19 -2 18.1356 6.5436 1
-1 19 1 2204.24 23.8504 1
-1 -19 0 23363.5 69.6567 1
1 19 1 230.904 9.29427 1
1 -19 2 4761.83 31.0981 1
-1 -19 -3 7.81875 6.46964 1
1 -19 4 1088.66 14.3654 1
1 -19 5 28.7769 6.84377 1
-1 -19 -6 6076.76 31.7613 1
1 -19 7 38.5497 5.81243 1
1 19 8 617.043 7.55702 1
-1 19 -9 27.7263 7.51824 1
-1 -20 9 277.515 12.1874 1
-1 -20 8 1025.66 14.0832 1
-1 20 7 827.374 15.4911 1
-1 -20 6 685.157 9.01659 1
1 -20 -5 4691.63 21.866 1
-1 -20 4 133.299 7.26229 1
1 -20 -3 999.863 11.2625 1
-1 -20 2 5647.14 37.1911 1
1 -20 -1 3442.01 29.2462 1
-1 20 0 191.293 11.1352 1
1 -20 1 7930.47 33.5379 1
-1 -20 -2 2479.38 22.5224 1
1 -20 3 1232.41 13.8069 1
-1 -20 -4 3314.6 21.8552 1
1 -20 5 2398.62 27.7135 1
1 -20 6 12.9323 5.88068 1
1 20 7 1891.29 15.9921 1
-1 20 -8 519.547 9.7228 1
1 -21 -8 28.214 4.50129 1
-1 -21 7 4259.56 28.9822 1
-1 -21 6 242.269 8.87249 1
1 -21 -5 32.7835 5.1905 1
-1 21 4 352.244 7.96416 1
1 -21 -3 2314.09 16.3563 1
-1 21 2 13.3399 8.89264 1
1 -21 -1 1934.77 23.1061 1
1 21 0 874.225 17.1736 1
1 21 1 374.149 11.1126 1
1 -21 2 587.201 13.4661 1
1 21 3 9841.22 38.0683 1
1 21 4 127.239 10.9712 1
1 21 5 2344.93 26.6392 1
-1 21 -6 411.247 9.46376 1
-1 21 -7 282.618 7.07484 1
-1 -21 -8 7.45225 3.78545 1
1 -22 -8 1119.37 16.9032 1
-1 -22 7 23.9938 6.32915 1
-1 22 6 1597.46 19.9545 1
-1 -22 5 483.895 11.513 1
1 -22 -4 992.49 13.047 1
1 -22 -3 25.3921 8.01768 1
1 -22 -2 16562.9 69.6965 1
-1 22 1 181.952 10.4667 1
1 22 0 905.963 12.0856 1
1 22 1 709.315 14.2286 1
1 -22 2 4535.53 37.866 1
-1 -22 -3 41.4741 7.83542 1
1 22 4 5073.04 38.0165 1
1 22 5 67.1774 8.67487 1
1 22 6 42.5083 5.28118 1
-1 22 -7 128.136 4.3957 1
-1 23 7 1229.77 16.1534 1
-1 23 6 703.051 12.5097 1
1 -23 -5 5.03622 6.92452 1
-1 23 4 2623.92 21.5263 1
-1 -23 3 2268.38 18.0588 1
1 -23 -2 4.66121 9.8104 1
1 -23 -1 2548.63 29.2626 1
-1 -23 0 5064.37 28.965 1
1 -23 1 196.95 11.1251 1
1 -23 2 2106.74 16.4483 1
1 -23 3 3998.61 25.9715 1
1 23 4 822.678 16.2159 1
-1 23 -5 816.605 14.9201 1
-1 -23 -6 1587.8 13.2306 1
1 23 7 122.948 4.65546 1
1 -24 -7 151.822 9.63988 1
1 -24 -6 22.9266 4.77109 1
1 -24 -5 3507.55 27.1197 1
1 -24 -4 204.023 8.60091 1
1 -24 -3 1153.33 15.1171 1
1 -24 -2 246.414 8.69446 1
-1 -24 1 1520.67 18.5783 1
1 -24 0 114.471 7.75944 1
1 -24 1 7749.98 29.6613 1
1 24 2 103.633 6.66604 1
1 24 3 337.032 9.9496 1
1 24 4 123.314 8.86688 1
1 24 5 2076.75 15.5998 1
-1 -24 -6 17.9418 4.81926 1
-1 25 6 1198.16 14.8313 1
-1 25 5 29.5164 7.31074 1
1 -25 -4 2806.93 23.5936 1
-1 -25 3 679.54 12.2144 1
1 -25 -2 107.859 6.89773 1
1 -25 -1 473.099 10.2638 1
1 -25 0 5092.25 26.3777 1
1 -25 1 113.931 6.70672 1
1 -25 2 1857.02 12.7771 1
1 25 3 976.169 15.8216 1
1 25 4 413.511 13.3883 1
-1 -25 -5 294.005 10.5018 1
-1 -25 -6 1490.85 15.4605 1
1 -26 -6 320.348 10.1385 1
1 -26 -5 928.771 10.6063 1
-1 26 4 862.958 12.4348 1
1 -26 -3 311.419 8.88239 1
1 -26 -2 3099.43 16.4613 1
-1 -26 1 311.769 7.09102 1
-1 -26 0 1041.84 12.5396 1
-1 -26 -1 1921.85 12.6212 1
-1 -26 -2 1615.81 13.8493 1
1 26 3 39.2228 6.59275 1
1 -26 4 1910.29 26.5585 1
-1 -26 -5 239.936 6.76731 1
-1 -27 5 9.55674 7.02415 1
-1 -27 4 1.91241 4.81505 1
1 -27 -3 2716.73 17.3341 1
-1 -27 2 4.17681 4.80368 1
-1 -27 1 3596.03 18.6834 1
-1 -27 0 7.36722 6.20487 1
1 -27 1 105.714 5.34565 1
1 -27 2 91.8887 6.07777 1
1 27 3 1764.64 15.988 1
-1 -27 -4 7.00876 4.32728 1
-1 -28 4 455.936 12.4679 1
-1 28 3 456.83 8.44895 1
1 -28 -2 2883.7 16.8451 1
-1 -28 1 634.855 8.8124 1
1 28 0 528.321 7.38401 1
1 -28 1 874.799 12.3548 1
1 -28 2 1079.81 16.7625 1
1 -28 3 67.1887 6.91648 1
-1 -29 2 2.90059 6.32305 1
1 -29 -1 38.7151 3.95149 1
-1 29 0 1507.52 16.6688 1
1 29 1 59.005 4.087 1
1 -29 2 1103.74 16.2703 1
2 0 -10 1253.37 19.9892 1
2 0 -8 981.597 12.1324 1
2 0 -6 4723.33 25.157 1
-2 0 4 88769.3 243.596 1
2 0 -2 10212.2 49.8119 1
2 0 0 11726 49.5521 1
2 0 2 22458 142.703 1
2 0 4 30.9547 5.94914 1
2 0 6 14260.4 41.9047 1
2 0 8 4134.79 25.181 1
2 0 10 257.157 11.7067 1
2 -1 10 1417.57 29.5807 -2
2 1 -11 1417.57 29.5807 1
2 1 9 367.845 12.0568 -2
2 -1 -10 367.845 12.0568 1
2 -1 8 3762.03 27.5472 -2
2 1 -9 3762.03 27.5472 1
-2 1 -7 5038.57 23.2007 -2
-2 -1 8 5038.57 23.2007 1
-2 -1 -6 260.672 7.6615 -2
-2 1 7 260.672 7.6615 1
2 -1 5 5078.44 23.1572 -2
2 1 -6 5078.44 23.1572 1
-2 1 -4 13990.1 46.7456 -2
-2 -1 5 13990.1 46.7456 1
2 1 3 7625.35 67.3488 -2
2 -1 -4 7625.35 67.3488 1
-2 -1 -2 13324.5 72.3337 -2
-2 1 3 13324.5 72.3337 1
2 -1 1 33983.4 83.8608 -2
2 1 -2 33983.4 83.8608 1
2 -1 0 4484.68 73.1679 -2
2 1 -1 4484.68 73.1679 1
2 -1 -1 5019.09 41.267 -2
2 1 0 5019.09 41.267 1
2 -1 -2 34967.4 92.6632 -2
2 1 1 34967.4 92.6632 1
2 -1 -3 12132.2 66.4163 -2
2 1 2 12132.2 66.4163 1
2 1 -4 8719.91 46.392 -2
2 -1 3 8719.91 46.392 1
2 1 -5 13452.9 36.1859 -2
2 -1 4 13452.9 36.1859 1
2 1 -6 5097.21 20.2046 -2
2 -1 5 5097.21 20.2046 1
2 1 -7 276.539 9.20275 -2
2 -1 6 276.539 9.20275 1
2 -1 -8 5471.05 28.6633 -2
2 1 7 5471.05 28.6633 1
-2 1 9 2996.01 23.4414 -2
-2 -1 -8 2996.01 23.4414 1
2 1 -10 392.868 11.2734 -2
2 -1 9 392.868 11.2734 1
2 1 -11 733.784 18.1413 -2
2 -1 10 733.784 18.1413 1
2 -2 10 566.343 20.6315 -2
2 2 -11 566.343 20.6315 1
2 2 9 2997.87 31.7176 -2
2 -2 -10 2997.87 31.7176 1
-2 -2 -8 1232.16 17.1385 -2
-2 2 9 1232.16 17.1385 1
-2 -2 -7 394.257 8.52837 -2
-2 2 8 394.257 8.52837 1
-2 2 -6 11069.7 35.1114 -2
-2 -2 7 11069.7 35.1114 1
2 -2 5 9000.46 30.3025 -2
2 2 -6 9000.46 30.3025 1
2 2 4 2256.5 17.4649 -2
2 -2 -5 2256.5 17.4649 1
2 -2 3 13467.1 89.4675 -2
2 2 -4 13467.1 89.4675 1
2 2 2 12961.9 57.8246 -2
2 -2 -3 12961.9 57.8246 1
-2 -2 -1 3916.48 28.2424 -2
-2 2 2 3916.48 28.2424 1
2 -2 0 25460.2 67.5972 -2
2 2 -1 25460.2 67.5972 1
2 -2 -1 25455.8 101.408 -2
2 2 0 25455.8 101.408 1
-2 -2 2 4189.57 31.3466 -2
-2 2 -1 4189.57 31.3466 1
2 -2 -3 12633 44.3947 -2
2 2 2 12633 44.3947 1
2 2 -4 14102.1 63.0004 -2
2 -2 3 14102.1 63.0004 1
2 -2 -5 1810.61 15.6655 -2
2 2 4 1810.61 15.6655 1
2 -2 -6 10803.6 29.7273 -2
2 2 5 10803.6 29.7273 1
2 2 -7 8563.3 30.7403 -2
2 -2 6 8563.3 30.7403 1
2 2 -8 289.225 9.20079 -2
2 -2 7 289.225 9.20079 1
2 -2 -9 944.387 14.9744 -2
2 2 8 944.387 14.9744 1
2 2 -10 2804.02 22.5447 -2
2 -2 9 2804.02 22.5447 1
2 2 -11 228.646 13.5237 -2
2 -2 10 228.646 13.5237 1
2 3 10 3387.12 28.4115 -2
2 -3 -11 3387.12 28.4115 1
2 -3 9 53.784 9.09197 -2
2 3 -10 53.784 9.09197 1
2 3 8 4086.75 28.149 -2
2 -3 -9 4086.75 28.149 1
2 -3 7 3140.68 20.9417 -2
2 3 -8 3140.68 20.9417 1
2 3 6 2435.09 17.403 -2
2 -3 -7 2435.09 17.403 1
2 3 5 11362.6 31.5604 -2
2 -3 -6 11362.6 31.5604 1
2 3 4 17094.7 41.7002 -2
2 -3 -5 17094.7 41.7002 1
-2 -3 -3 1711.61 24.3161 -2
-2 3 4 1711.61 24.3161 1
-2 -3 -2 1795.69 21.9376 -2
-2 3 3 1795.69 21.9376 1
-2 -3 -1 53977.6 99.6468 -2
-2 3 2 53977.6 99.6468 1
-2 3 0 11701.2 44.7629 -2
-2 -3 1 11701.2 44.7629 1
2 -3 -1 14102.8 62.9305 -2
2 3 0 14102.8 62.9305 1
2 -3 -2 45938 87.4502 -2
2 3 1 45938 87.4502 1
2 -3 -3 1879.83 19.8656 -2
2 3 2 1879.83 19.8656 1
2 3 -4 1416.64 16.9438 -2
2 -3 3 1416.64 16.9438 1
2 3 -5 19912.8 48.7012 -2
2 -3 4 19912.8 48.7012 1
2 3 -6 8925.14 28.8505 -2
2 -3 5 8925.14 28.8505 1
2 3 -7 2714.68 17.8808 -2
2 -3 6 2714.68 17.8808 1
2 3 -8 2331.37 18.352 -2
2 -3 7 2331.37 18.352 1
2 -3 -9 4269.32 33.9892 -2
2 3 8 4269.32 33.9892 1
2 -3 -10 31.7749 8.45238 -2
2 3 9 31.7749 8.45238 1
2 3 -11 2025.99 25.3309 -2
2 -3 10 2025.99 25.3309 1
2 -4 10 301.354 8.86297 -2
2 4 -11 301.354 8.86297 1
2 4 9 2962.31 22.8485 -2
2 -4 -10 2962.31 22.8485 1
-2 -4 -8 1423.06 17.6761 -2
-2 4 9 1423.06 17.6761 1
2 4 7 885.55 13.383 -2
2 -4 -8 885.55 13.383 1
2 -4 6 6919.72 27.233 -2
2 4 -7 6919.72 27.233 1
2 4 5 7320.17 27.022 -2
2 -4 -6 7320.17 27.022 1
2 -4 4 1806.39 13.8451 -2
2 4 -5 1806.39 13.8451 1
-2 4 -3 23353.4 85.9026 -2
-2 -4 4 23353.4 85.9026 1
2 -4 2 8638.55 47.0858 -2
2 4 -3 8638.55 47.0858 1
2 -4 1 9736.97 45.2935 -2
2 4 -2 9736.97 45.2935 1
2 -4 0 32620.4 78.735 -2
2 4 -1 32620.4 78.735 1
-2 4 1 32068.3 66.0402 -2
-2 -4 0 32068.3 66.0402 1
-2 4 2 8154.18 39.1632 -2
-2 -4 -1 8154.18 39.1632 1
-2 4 3 8911.47 43.6057 -2
-2 -4 -2 8911.47 43.6057 1
2 -4 -4 21916.8 64.6281 -2
2 4 3 21916.8 64.6281 1
2 4 -5 1407.57 13.7988 -2
2 -4 4 1407.57 13.7988 1
2 -4 -6 7465.41 30.0588 -2
2 4 5 7465.41 30.0588 1
2 -4 -7 6188.26 25.9651 -2
2 4 6 6188.26 25.9651 1
2 4 -8 629.848 12.4109 -2
2 -4 7 629.848 12.4109 1
2 4 -9 1393.58 21.1616 -2
2 -4 8 1393.58 21.1616 1
-2 4 10 2444.11 18.2464 -2
-2 -4 -9 2444.11 18.2464 1
2 4 -11 179.448 12.2045 -2
2 -4 10 179.448 12.2045 1
2 5 10 610.212 11.9386 -2
2 -5 -11 610.212 11.9386 1
2 5 9 342.689 11.884 -2
2 -5 -10 342.689 11.884 1
2 5 8 3123.33 29.4007 -2
2 -5 -9 3123.33 29.4007 1
2 5 7 10540.9 47.4446 -2
2 -5 -8 10540.9 47.4446 1
2 5 6 230.7 7.87826 -2
2 -5 -7 230.7 7.87826 1
2 5 5 4270.18 20.0508 -2
2 -5 -6 4270.18 20.0508 1
-2 5 -4 12282.9 32.6057 -2
-2 -5 5 12282.9 32.6057 1
-2 5 -3 10836.9 45.0266 -2
-2 -5 4 10836.9 45.0266 1
-2 -5 -2 12738.5 57.7898 -2
-2 5 3 12738.5 57.7898 1
-2 -5 -1 33306 81.5928 -2
-2 5 2 33306 81.5928 1
-2 5 0 4705.76 34.5649 -2
-2 -5 1 4705.76 34.5649 1
2 -5 -1 4795.95 29.1718 -2
2 5 0 4795.95 29.1718 1
-2 5 2 35997.8 81.0212 -2
-2 -5 -1 35997.8 81.0212 1
-2 5 3 10681.6 50.1349 -2
-2 -5 -2 10681.6 50.1349 1
2 5 -4 11735.2 46.8237 -2
2 -5 3 11735.2 46.8237 1
2 -5 -5 10122.5 41.9422 -2
2 5 4 10122.5 41.9422 1
-2 5 6 4400.13 22.3712 -2
-2 -5 -5 4400.13 22.3712 1
2 5 -7 191.031 8.36426 -2
2 -5 6 191.031 8.36426 1
2 -5 -8 11021.2 40.298 -2
2 5 7 11021.2 40.298 1
2 -5 -9 2184.2 31.1177 -2
2 5 8 2184.2 31.1177 1
2 -5 -10 291.18 10.0518 -2
2 5 9 291.18 10.0518 1
2 -5 -11 324.631 12.8875 -2
2 5 10 324.631 12.8875 1
2 -6 10 95.0238 7.35812 -2
2 6 -11 95.0238 7.35812 1
2 6 9 2074.82 21.7845 -2
2 -6 -10 2074.82 21.7845 1
2 6 8 2450.47 25.6019 -2
2 -6 -9 2450.47 25.6019 1
2 6 7 2752.9 22.4348 -2
2 -6 -8 2752.9 22.4348 1
2 6 6 9279.89 33.1294 -2
2 -6 -7 9279.89 33.1294 1
2 6 5 4461.3 22.4682 -2
2 -6 -6 4461.3 22.4682 1
2 6 4 1386.98 12.2852 -2
2 -6 -5 1386.98 12.2852 1
-2 -6 -3 20360.5 46.4271 -2
-2 6 4 20360.5 46.4271 1
-2 -6 -2 20858.2 74.2247 -2
-2 6 3 20858.2 74.2247 1
-2 -6 -1 3545.84 37.6507 -2
-2 6 2 3545.84 37.6507 1
-2 6 0 30691.5 112.568 -2
-2 -6 1 30691.5 112.568 1
-2 -6 1 31862.6 120.875 -2
-2 6 0 31862.6 120.875 1
2 6 -2 3557.74 30.8872 -2
2 -6 1 3557.74 30.8872 1
2 6 -3 21542.6 74.3994 -2
2 -6 2 21542.6 74.3994 1
2 -6 -4 15800 37.9898 -2
2 6 3 15800 37.9898 1
2 6 -5 1221.35 15.583 -2
2 -6 4 1221.35 15.583 1
-2 6 6 3564.9 30.5389 -2
-2 -6 -5 3564.9 30.5389 1
-2 6 7 9472.17 35.7073 -2
-2 -6 -6 9472.17 35.7073 1
-2 -6 8 1878.15 19.1737 -2
-2 6 -7 1878.15 19.1737 1
2 6 -9 2304.19 22.9691 -2
2 -6 8 2304.19 22.9691 1
-2 6 10 1437.6 16.5963 -2
-2 -6 -9 1437.6 16.5963 1
2 6 -11 80.8503 9.77356 -2
2 -6 10 80.8503 9.77356 1
2 7 10 1575.67 20.8874 -2
2 -7 -11 1575.67 20.8874 1
2 7 9 270.789 10.2955 -2
2 -7 -10 270.789 10.2955 1
2 -7 8 1993.12 27.7494 -2
2 7 -9 1993.12 27.7494 1
2 7 7 3296.85 28.2453 -2
2 -7 -8 3296.85 28.2453 1
2 7 6 316.752 7.96685 -2
2 -7 -7 316.752 7.96685 1
2 -7 5 3302.27 19.6119 -2
2 7 -6 3302.27 19.6119 1
2 7 4 10428.4 31.9289 -2
2 -7 -5 10428.4 31.9289 1
2 -7 3 3101.44 19.6339 -2
2 7 -4 3101.44 19.6339 1
2 -7 2 8794.4 46.2269 -2
2 7 -3 8794.4 46.2269 1
-2 7 -1 27899.5 95.7697 -2
-2 -7 2 27899.5 95.7697 1
2 -7 0 11598.3 78.2934 -2
2 7 -1 11598.3 78.2934 1
-2 7 1 13259.9 93.5595 -2
-2 -7 0 13259.9 93.5595 1
2 -7 -2 26570.9 96.5102 -2
2 7 1 26570.9 96.5102 1
2 7 -3 8098.13 48.1249 -2
2 -7 2 8098.13 48.1249 1
2 -7 -4 3267.71 17.4313 -2
2 7 3 3267.71 17.4313 1
2 -7 -5 10384.7 42.9867 -2
2 7 4 10384.7 42.9867 1
2 7 -6 2507.02 25.6813 -2
2 -7 5 2507.02 25.6813 1
2 7 -7 369.5 10.4543 -2
2 -7 6 369.5 10.4543 1
2 -7 -8 2799.94 26.2744 -2
2 7 7 2799.94 26.2744 1
2 -7 -9 1446.58 21.3717 -2
2 7 8 1446.58 21.3717 1
-2 7 10 210.678 9.773 -2
-2 -7 -9 210.678 9.773 1
2 -7 -11 1315.95 17.6561 -2
2 7 10 1315.95 17.6561 1
-2 8 -10 344.269 13.7553 -2
-2 -8 11 344.269 13.7553 1
2 8 9 3385.65 29.5002 -2
2 -8 -10 3385.65 29.5002 1
2 -8 8 642.113 16.8941 -2
2 8 -9 642.113 16.8941 1
2 8 7 35.5094 6.79473 -2
2 -8 -8 35.5094 6.79473 1
2 8 6 6701.3 29.6876 -2
2 -8 -7 6701.3 29.6876 1
-2 8 -5 17881.2 43.2807 -2
-2 -8 6 17881.2 43.2807 1
2 8 4 4463.26 21.3287 -2
2 -8 -5 4463.26 21.3287 1
-2 -8 -3 12862.8 35.4847 -2
-2 8 4 12862.8 35.4847 1
2 -8 2 13299.6 55.5047 -2
2 8 -3 13299.6 55.5047 1
-2 8 -1 1559.16 29.4164 -2
-2 -8 2 1559.16 29.4164 1
2 8 0 17997.8 89.0068 -2
2 -8 -1 17997.8 89.0068 1
-2 -8 1 14036.1 101.184 -2
-2 8 0 14036.1 101.184 1
-2 8 2 1414.65 29.2696 -2
-2 -8 -1 1414.65 29.2696 1
2 -8 -3 11028.4 39.0096 -2
2 8 2 11028.4 39.0096 1
2 -8 -4 14084.3 37.1574 -2
2 8 3 14084.3 37.1574 1
-2 8 5 3836.85 26.2872 -2
-2 -8 -4 3836.85 26.2872 1
2 8 -6 19465.9 52.731 -2
2 -8 5 19465.9 52.731 1
-2 -8 7 5055.94 24.4177 -2
-2 8 -6 5055.94 24.4177 1
2 -8 -8 52.5271 9.9511 -2
2 8 7 52.5271 9.9511 1
2 -8 -9 360.434 13.3601 -2
2 8 8 360.434 13.3601 1
2 8 -10 3033.91 23.7646 -2
2 -8 9 3033.91 23.7646 1
2 -8 -11 237.736 13.695 -2
2 8 10 237.736 13.695 1
2 -9 10 874.665 17.568 -2
2 9 -11 874.665 17.568 1
2 9 9 188.365 10.3441 -2
2 -9 -10 188.365 10.3441 1
2 -9 8 1573.59 29.1512 -2
2 9 -9 1573.59 29.1512 1
2 -9 7 3840.43 25.2922 -2
2 9 -8 3840.43 25.2922 1
2 9 6 1066.28 12.6792 -2
2 -9 -7 1066.28 12.6792 1
-2 9 -5 8909.57 36.8103 -2
-2 -9 6 8909.57 36.8103 1
2 9 4 16831.6 41.3659 -2
2 -9 -5 16831.6 41.3659 1
2 9 3 1854.09 13.8919 -2
2 -9 -4 1854.09 13.8919 1
2 9 2 7026.16 36.821 -2
2 -9 -3 7026.16 36.821 1
2 -9 1 26651.3 114.084 -2
2 9 -2 26651.3 114.084 1
2 -9 0 14607.6 90.5861 -2
2 9 -1 14607.6 90.5861 1
2 -9 -1 17093.2 101.113 -2
2 9 0 17093.2 101.113 1
2 9 -2 24500.4 117.117 -2
2 -9 1 24500.4 117.117 1
-2 -9 3 6835.3 31.3587 -2
-2 9 -2 6835.3 31.3587 1
2 -9 -4 2005.76 13.5072 -2
2 9 3 2005.76 13.5072 1
-2 -9 5 18148.8 56.416 -2
-2 9 -4 18148.8 56.416 1
2 9 -6 7135.79 32.7277 -2
2 -9 5 7135.79 32.7277 1
2 9 -7 1135.49 14.2822 -2
2 -9 6 1135.49 14.2822 1
2 -9 -8 3074.72 23.8027 -2
2 9 7 3074.72 23.8027 1
2 9 -9 1259.54 19.3053 -2
2 -9 8 1259.54 19.3053 1
2 9 -10 131.797 9.96922 -2
2 -9 9 131.797 9.96922 1
2 -9 -11 869.053 18.2382 -2
2 9 10 869.053 18.2382 1
-2 10 -10 106.69 9.38213 -2
-2 -10 11 106.69 9.38213 1
2 10 9 1511.87 20.973 -2
2 -10 -10 1511.87 20.973 1
-2 -10 -8 1855.65 29.4076 -2
-2 10 9 1855.65 29.4076 1
2 -10 7 1253.39 17.144 -2
2 10 -8 1253.39 17.144 1
-2 -10 -6 5727.67 26.6647 -2
-2 10 7 5727.67 26.6647 1
2 10 5 2698.99 21.3613 -2
2 -10 -6 2698.99 21.3613 1
-2 -10 -4 1622.31 15.113 -2
-2 10 5 1622.31 15.113 1
2 -10 3 17115.1 49.2584 -2
2 10 -4 17115.1 49.2584 1
2 10 2 18952 61.3456 -2
2 -10 -3 18952 61.3456 1
-2 10 -1 3941.71 30.6401 -2
-2 -10 2 3941.71 30.6401 1
-2 10 0 10434 91.9319 -2
-2 -10 1 10434 91.9319 1
2 10 -1 11187.4 63.2615 -2
2 -10 0 11187.4 63.2615 1
2 -10 -2 3337.52 19.5327 -2
2 10 1 3337.52 19.5327 1
2 10 -3 21384.8 53.4528 -2
2 -10 2 21384.8 53.4528 1
2 -10 -4 14073.7 36.3597 -2
2 10 3 14073.7 36.3597 1
2 10 -5 1707.71 19.3333 -2
2 -10 4 1707.71 19.3333 1
2 -10 -6 2279.7 21.2398 -2
2 10 5 2279.7 21.2398 1
2 10 -7 5807.61 28.6885 -2
2 -10 6 5807.61 28.6885 1
2 -10 -8 872.592 14.2179 -2
2 10 7 872.592 14.2179 1
2 10 -9 1656.81 21.18 -2
2 -10 8 1656.81 21.18 1
2 -10 -10 1285.42 17.8718 -2
2 10 9 1285.42 17.8718 1
2 -10 -11 115.834 9.17777 -2
2 10 10 115.834 9.17777 1
2 11 9 117.137 9.86903 -2
2 -11 -10 117.137 9.86903 1
-2 -11 -8 2903.67 63.6763 -2
-2 11 9 2903.67 63.6763 1
2 -11 7 6821.22 40.2966 -2
2 11 -8 6821.22 40.2966 1
-2 11 -6 263.873 7.92713 -2
-2 -11 7 263.873 7.92713 1
2 11 5 917.723 17.3887 -2
2 -11 -6 917.723 17.3887 1
-2 11 -4 9665.64 43.2429 -2
-2 -11 5 9665.64 43.2429 1
2 11 3 10803.2 55.313 -2
2 -11 -4 10803.2 55.313 1
2 11 2 11484.1 47.1829 -2
2 -11 -3 11484.1 47.1829 1
2 11 1 14948.7 47.885 -2
2 -11 -2 14948.7 47.885 1
2 -11 0 4986.84 28.6946 -2
2 11 -1 4986.84 28.6946 1
2 -11 -1 4632.64 26.227 -2
2 11 0 4632.64 26.227 1
2 11 -2 17534.8 52.1159 -2
2 -11 1 17534.8 52.1159 1
2 11 -3 9362.92 32.0934 -2
2 -11 2 9362.92 32.0934 1
2 -11 -4 11903.9 34.6841 -2
2 11 3 11903.9 34.6841 1
2 11 -5 8290.5 39.8934 -2
2 -11 4 8290.5 39.8934 1
2 11 -6 850.911 12.7439 -2
2 -11 5 850.911 12.7439 1
-2 11 7 245.965 8.73068 -2
-2 -11 -6 245.965 8.73068 1
2 -11 -8 7519.74 39.2506 -2
2 11 7 7519.74 39.2506 1
2 11 -9 1541.64 20.0271 -2
2 -11 8 1541.64 20.0271 1
2 -11 -10 215.089 11.0003 -2
2 11 9 215.089 11.0003 1
-2 12 -9 1635.13 14.2309 -2
-2 -12 10 1635.13 14.2309 1
-2 12 -8 1834.16 31.3458 -2
-2 -12 9 1834.16 31.3458 1
2 12 7 518.338 17.1981 -2
2 -12 -8 518.338 17.1981 1
2 12 6 5068.02 40.0213 -2
2 -12 -7 5068.02 40.0213 1
-2 12 -5 3424.31 35.1443 -2
-2 -12 6 3424.31 35.1443 1
2 -12 4 1146.86 18.8567 -2
2 12 -5 1146.86 18.8567 1
2 12 3 11985.4 49.5786 -2
2 -12 -4 11985.4 49.5786 1
2 12 2 9143.26 44.1974 -2
2 -12 -3 9143.26 44.1974 1
2 -12 1 1129.54 14.0633 -2
2 12 -2 1129.54 14.0633 1
2 -12 0 11685.5 47.5785 -2
2 12 -1 11685.5 47.5785 1
2 -12 -1 11792.3 43.0167 -2
2 12 0 11792.3 43.0167 1
2 -12 -2 937.823 14.4692 -2
2 12 1 937.823 14.4692 1
2 12 -3 10720.2 36.7577 -2
2 -12 2 10720.2 36.7577 1
2 -12 -4 10038.9 34.2679 -2
2 12 3 10038.9 34.2679 1
2 12 -5 1089.47 17.2425 -2
2 -12 4 1089.47 17.2425 1
2 -12 -6 3055.6 21.9724 -2
2 12 5 3055.6 21.9724 1
-2 12 7 4811.44 30.8379 -2
-2 -12 -6 4811.44 30.8379 1
2 -12 -8 458.206 10.4187 -2
2 12 7 458.206 10.4187 1
2 12 -9 2519.33 23.3694 -2
2 -12 8 2519.33 23.3694 1
2 -12 -10 1634.95 20.165 -2
2 12 9 1634.95 20.165 1
2 13 9 70.8292 5.98353 -2
2 -13 -10 70.8292 5.98353 1
-2 13 -8 992.448 30.4942 -2
-2 -13 9 992.448 30.4942 1
2 13 7 2796.73 27.3346 -2
2 -13 -8 2796.73 27.3346 1
2 13 6 272.206 11.7449 -2
2 -13 -7 272.206 11.7449 1
2 13 5 7274.09 41.7672 -2
2 -13 -6 7274.09 41.7672 1
-2 13 -4 7774.51 35.8434 -2
-2 -13 5 7774.51 35.8434 1
2 13 3 465.413 14.1743 -2
2 -13 -4 465.413 14.1743 1
-2 -13 -2 2783.62 24.6578 -2
-2 13 3 2783.62 24.6578 1
2 -13 1 17812.1 68.7802 -2
2 13 -2 17812.1 68.7802 1
-2 -13 0 12397.7 42.4718 -2
-2 13 1 12397.7 42.4718 1
-2 -13 1 15084.5 68.8773 -2
-2 13 0 15084.5 68.8773 1
2 13 -2 15199 50.8928 -2
2 -13 1 15199 50.8928 1
2 -13 -3 2896.5 21.9948 -2
2 13 2 2896.5 21.9948 1
2 -13 -4 496.196 11.0658 -2
2 13 3 496.196 11.0658 1
2 13 -5 9088.23 39.9217 -2
2 -13 4 9088.23 39.9217 1
2 -13 -6 5416.79 30.9079 -2
2 13 5 5416.79 30.9079 1
-2 13 7 374.778 11.237 -2
-2 -13 -6 374.778 11.237 1
2 13 -8 2185.29 18.0102 -2
2 -13 7 2185.29 18.0102 1
2 -13 -9 1291.7 19.1673 -2
2 13 8 1291.7 19.1673 1
2 -13 -10 65.8141 6.77006 -2
2 13 9 65.8141 6.77006 1
2 14 9 2015.39 20.6608 -2
2 -14 -10 2015.39 20.6608 1
2 -14 8 426.398 9.71345 -2
2 14 -9 426.398 9.71345 1
2 14 7 380.593 12.4767 -2
2 -14 -8 380.593 12.4767 1
2 14 6 6634.81 47.383 -2
2 -14 -7 6634.81 47.383 1
2 -14 5 8860.59 45.6838 -2
2 14 -6 8860.59 45.6838 1
-2 -14 -4 2006.48 19.6132 -2
-2 14 5 2006.48 19.6132 1
2 -14 3 7901.06 39.7611 -2
2 14 -4 7901.06 39.7611 1
2 -14 2 6282.95 32.3449 -2
2 14 -3 6282.95 32.3449 1
2 -14 1 608.289 15.8773 -2
2 14 -2 608.289 15.8773 1
2 -14 0 14793.5 55.2593 -2
2 14 -1 14793.5 55.2593 1
-2 -14 1 13074 57.2864 -2
-2 14 0 13074 57.2864 1
2 14 -2 656.377 15.0129 -2
2 -14 1 656.377 15.0129 1
2 -14 -3 5376.24 33.6076 -2
2 14 2 5376.24 33.6076 1
2 -14 -4 8515.24 36.4693 -2
2 14 3 8515.24 36.4693 1
-2 14 5 1472.12 20.4813 -2
-2 -14 -4 1472.12 20.4813 1
2 -14 -6 10019.5 47.1742 -2
2 14 5 10019.5 47.1742 1
-2 14 7 5222.4 36.085 -2
-2 -14 -6 5222.4 36.085 1
-2 14 8 331.797 9.0551 -2
-2 -14 -7 331.797 9.0551 1
2 -14 -9 317.455 11.0649 -2
2 14 8 317.455 11.0649 1
-2 14 10 1803.34 22.853 -2
-2 -14 -9 1803.34 22.853 1
2 15 9 45.7815 8.145 -2
2 -15 -10 45.7815 8.145 1
-2 15 -8 1414.48 15.4767 -2
-2 -15 9 1414.48 15.4767 1
2 -15 7 2622.78 18.7894 -2
2 15 -8 2622.78 18.7894 1
2 15 6 407.725 13.8107 -2
2 -15 -7 407.725 13.8107 1
-2 15 -5 2570.87 27.8471 -2
-2 -15 6 2570.87 27.8471 1
2 -15 4 5336.81 25.8027 -2
2 15 -5 5336.81 25.8027 1
2 15 3 1509.55 19.1828 -2
2 -15 -4 1509.55 19.1828 1
2 -15 2 7292 41.3326 -2
2 15 -3 7292 41.3326 1
2 -15 1 14761.3 55.5573 -2
2 15 -2 14761.3 55.5573 1
2 -15 0 3199.48 25.1521 -2
2 15 -1 3199.48 25.1521 1
-2 15 1 3582.9 34.1213 -2
-2 -15 0 3582.9 34.1213 1
2 -15 -2 15808.6 51.4044 -2
2 15 1 15808.6 51.4044 1
2 15 -3 5982.85 36.4296 -2
2 -15 2 5982.85 36.4296 1
2 -15 -4 1685.52 16.8731 -2
2 15 3 1685.52 16.8731 1
2 15 -5 4403.61 36.4662 -2
2 -15 4 4403.61 36.4662 1
2 -15 -6 2160.38 30.5426 -2
2 15 5 2160.38 30.5426 1
-2 15 7 468.459 14.2698 -2
-2 -15 -6 468.459 14.2698 1
-2 15 8 2611.09 22.443 -2
-2 -15 -7 2611.09 22.443 1
2 -15 -9 1041.98 15.2513 -2
2 15 8 1041.98 15.2513 1
-2 -15 10 74.7656 10.4774 -2
-2 15 -9 74.7656 10.4774 1
-2 16 -8 938.731 13.0526 -2
-2 -16 9 938.731 13.0526 1
2 -16 7 967.599 15.0857 -2
2 16 -8 967.599 15.0857 1
-2 16 -6 4142.72 26.3927 -2
-2 -16 7 4142.72 26.3927 1
2 16 5 1927.91 20.5836 -2
2 -16 -6 1927.91 20.5836 1
2 16 4 30.6686 6.56063 -2
2 -16 -5 30.6686 6.56063 1
2 16 3 10088.3 39.8354 -2
2 -16 -4 10088.3 39.8354 1
2 16 2 6112.58 38.2653 -2
2 -16 -3 6112.58 38.2653 1
2 16 1 1166.9 17.7201 -2
2 -16 -2 1166.9 17.7201 1
2 -16 0 8611.29 43.4381 -2
2 16 -1 8611.29 43.4381 1
-2 16 1 9832.19 53.4184 -2
-2 -16 0 9832.19 53.4184 1
2 -16 -2 980.792 16.9134 -2
2 16 1 980.792 16.9134 1
2 -16 -3 7042.78 39.3531 -2
2 16 2 7042.78 39.3531 1
2 -16 -4 7102.4 30.4327 -2
2 16 3 7102.4 30.4327 1
2 16 -5 43.1467 12.7549 -2
2 -16 4 43.1467 12.7549 1
2 -16 -6 1263.02 23.6652 -2
2 16 5 1263.02 23.6652 1
-2 16 7 4132.9 33.53 -2
-2 -16 -6 4132.9 33.53 1
2 -16 -8 717.723 12.4217 -2
2 16 7 717.723 12.4217 1
2 -16 -9 1189.51 14.5346 -2
2 16 8 1189.51 14.5346 1
2 -17 8 1222.6 13.128 -2
2 17 -9 1222.6 13.128 1
2 -17 7 3185.91 22.3013 -2
2 17 -8 3185.91 22.3013 1
-2 17 -6 68.8548 7.624 -2
-2 -17 7 68.8548 7.624 1
-2 17 -5 2069.03 18.0611 -2
-2 -17 6 2069.03 18.0611 1
2 17 4 6741.29 38.4197 -2
2 -17 -5 6741.29 38.4197 1
2 -17 3 3628.09 27.0714 -2
2 17 -4 3628.09 27.0714 1
2 17 2 3841.87 30.9352 -2
2 -17 -3 3841.87 30.9352 1
2 17 1 11794 58.8849 -2
2 -17 -2 11794 58.8849 1
-2 -17 0 1378.75 22.0164 -2
-2 17 1 1378.75 22.0164 1
2 -17 -1 1515.55 23.5579 -2
2 17 0 1515.55 23.5579 1
2 -17 -2 11769 52.2612 -2
2 17 1 11769 52.2612 1
2 -17 -3 2854.74 22.9326 -2
2 17 2 2854.74 22.9326 1
2 -17 -4 4005.31 39.6874 -2
2 17 3 4005.31 39.6874 1
2 -17 -5 4986.03 65.3917 -2
2 17 4 4986.03 65.3917 1
2 -17 -6 1790.87 36.7891 -2
2 17 5 1790.87 36.7891 1
-2 17 7 54.1591 8.03871 -2
-2 -17 -6 54.1591 8.03871 1
-2 17 8 2994.61 20.6875 -2
-2 -17 -7 2994.61 20.6875 1
2 -17 -9 903.251 14.5194 -2
2 17 8 903.251 14.5194 1
2 -18 7 204.648 7.31168 -2
2 18 -8 204.648 7.31168 1
-2 18 -6 3142.12 21.0588 -2
-2 -18 7 3142.12 21.0588 1
2 18 5 2387.52 17.5923 -2
2 -18 -6 2387.52 17.5923 1
2 -18 4 727.134 17.1691 -2
2 18 -5 727.134 17.1691 1
2 18 3 9216.23 50.475 -2
2 -18 -4 9216.23 50.475 1
2 18 2 2849.47 31.194 -2
2 -18 -3 2849.47 31.194 1
2 18 1 1319.41 24.6634 -2
2 -18 -2 1319.41 24.6634 1
-2 18 0 8612.69 49.5672 -2
-2 -18 1 8612.69 49.5672 1
-2 18 1 8013.82 49.0319 -2
-2 -18 0 8013.82 49.0319 1
2 -18 -2 1123.67 18.4928 -2
2 18 1 1123.67 18.4928 1
2 -18 -3 2834.57 25.496 -2
2 18 2 2834.57 25.496 1
2 -18 -4 8939.17 65.105 -2
2 18 3 8939.17 65.105 1
2 -18 -5 440.137 17.4168 -2
2 18 4 440.137 17.4168 1
2 -18 -6 2852.61 43.4719 -2
2 18 5 2852.61 43.4719 1
-2 18 7 2619.78 24.0127 -2
-2 -18 -6 2619.78 24.0127 1
-2 18 8 152.981 6.14539 -2
-2 -18 -7 152.981 6.14539 1
-2 -18 9 316.69 14.1637 -2
-2 18 -8 316.69 14.1637 1
2 19 7 901.069 17.4483 -2
2 -19 -8 901.069 17.4483 1
-2 19 -6 777.748 10.8187 -2
-2 -19 7 777.748 10.8187 1
2 19 5 3957.21 25.4858 -2
2 -19 -6 3957.21 25.4858 1
2 19 4 6513.72 57.253 -2
2 -19 -5 6513.72 57.253 1
2 19 3 35.6442 10.7342 -2
2 -19 -4 35.6442 10.7342 1
2 19 2 2328.3 39.5299 -2
2 -19 -3 2328.3 39.5299 1
-2 -19 -1 13626.5 63.5261 -2
-2 19 2 13626.5 63.5261 1
-2 19 0 3173.24 33.6296 -2
-2 -19 1 3173.24 33.6296 1
2 -19 -1 4025.69 29.497 -2
2 19 0 4025.69 29.497 1
-2 19 2 10664.7 58.0245 -2
-2 -19 -1 10664.7 58.0245 1
2 -19 -3 2041.66 30.2977 -2
2 19 2 2041.66 30.2977 1
2 -19 -4 27.855 13.3169 -2
2 19 3 27.855 13.3169 1
2 -19 -5 7343.65 69.512 -2
2 19 4 7343.65 69.512 1
-2 19 6 3362.62 30.5047 -2
-2 -19 -5 3362.62 30.5047 1
-2 19 7 889.388 13.8786 -2
-2 -19 -6 889.388 13.8786 1
2 -19 -8 695.693 11.2753 -2
2 19 7 695.693 11.2753 1
2 20 7 236.04 14.4005 -2
2 -20 -8 236.04 14.4005 1
2 20 6 2541.29 21.8102 -2
2 -20 -7 2541.29 21.8102 1
2 20 5 2121.44 25.5576 -2
2 -20 -6 2121.44 25.5576 1
-2 20 -4 248.659 16.7044 -2
-2 -20 5 248.659 16.7044 1
2 20 3 5061.3 37.6262 -2
2 -20 -4 5061.3 37.6262 1
2 20 2 5373.09 41.5234 -2
2 -20 -3 5373.09 41.5234 1
2 20 1 841.346 22.5895 -2
2 -20 -2 841.346 22.5895 1
2 20 0 7900.61 66.3258 -2
2 -20 -1 7900.61 66.3258 1
2 -20 -1 6983.91 47.2219 -2
2 20 0 6983.91 47.2219 1
2 -20 -2 966.059 22.9914 -2
2 20 1 966.059 22.9914 1
2 -20 -3 4697.14 41.5383 -2
2 20 2 4697.14 41.5383 1
2 -20 -4 4322.35 42.7468 -2
2 20 3 4322.35 42.7468 1
-2 20 6 2259.49 23.8866 -2
-2 -20 -5 2259.49 23.8866 1
-2 20 7 2364.94 15.5492 -2
-2 -20 -6 2364.94 15.5492 1
2 -20 -8 175.038 6.89811 -2
2 20 7 175.038 6.89811 1
2 21 6 16.1183 6.53465 -2
2 -21 -7 16.1183 6.53465 1
2 21 5 690.391 19.4241 -2
2 -21 -6 690.391 19.4241 1
2 21 4 1825.22 31.2451 -2
2 -21 -5 1825.22 31.2451 1
2 21 3 1862.61 23.2273 -2
2 -21 -4 1862.61 23.2273 1
2 21 2 1110.84 20.8944 -2
2 -21 -3 1110.84 20.8944 1
2 21 1 8173.78 55.3582 -2
2 -21 -2 8173.78 55.3582 1
2 -21 0 945.095 18.8975 -2
2 21 -1 945.095 18.8975 1
2 -21 -1 874.049 19.0514 -2
2 21 0 874.049 19.0514 1
2 -21 -2 8949.51 49.9682 -2
2 21 1 8949.51 49.9682 1
2 -21 -3 732.919 25.2522 -2
2 21 2 732.919 25.2522 1
2 -21 -4 1993.77 28.4875 -2
2 21 3 1993.77 28.4875 1
2 -21 -5 1760.88 33.0982 -2
2 21 4 1760.88 33.0982 1
-2 21 6 634.52 11.0593 -2
-2 -21 -5 634.52 11.0593 1
-2 21 7 11.5184 4.61211 -2
-2 -21 -6 11.5184 4.61211 1
2 22 6 2556.44 35.3591 -2
2 -22 -7 2556.44 35.3591 1
2 22 5 667.14 16.5692 -2
2 -22 -6 667.14 16.5692 1
2 22 4 20.3354 10.3304 -2
2 -22 -5 20.3354 10.3304 1
2 22 3 7284.33 46.3312 -2
2 -22 -4 7284.33 46.3312 1
2 22 2 4834.66 35.8857 -2
2 -22 -3 4834.66 35.8857 1
2 22 1 501.317 17.3633 -2
2 -22 -2 501.317 17.3633 1
2 22 0 3731.16 33.6588 -2
2 -22 -1 3731.16 33.6588 1
2 22 -1 4004.26 38.3947 -2
2 -22 0 4004.26 38.3947 1
2 -22 -2 402.536 14.0199 -2
2 22 1 402.536 14.0199 1
2 -22 -3 5000.94 33.1224 -2
2 22 2 5000.94 33.1224 1
2 -22 -4 5582.72 34.2132 -2
2 22 3 5582.72 34.2132 1
2 -22 -5 64.576 11.614 -2
2 22 4 64.576 11.614 1
-2 22 6 539.953 10.1343 -2
-2 -22 -5 539.953 10.1343 1
2 -22 -7 2918.63 21.1026 -2
2 22 6 2918.63 21.1026 1
2 23 5 926.499 19.5711 -2
2 -23 -6 926.499 19.5711 1
2 23 4 2721.88 25.7585 -2
2 -23 -5 2721.88 25.7585 1
2 23 3 800.312 16.7362 -2
2 -23 -4 800.312 16.7362 1
2 23 2 2304.32 23.8383 -2
2 -23 -3 2304.32 23.8383 1
2 23 1 6337.19 32.8128 -2
2 -23 -2 6337.19 32.8128 1
2 23 0 1559.51 21.7237 -2
2 -23 -1 1559.51 21.7237 1
2 -23 -1 1753.97 24.8236 -2
2 23 0 1753.97 24.8236 1
2 -23 -2 5783.53 31.8619 -2
2 23 1 5783.53 31.8619 1
2 -23 -3 1998.02 20.5828 -2
2 23 2 1998.02 20.5828 1
2 -23 -4 803.581 17.493 -2
2 23 3 803.581 17.493 1
2 -23 -5 2878.96 32.5296 -2
2 23 4 2878.96 32.5296 1
-2 23 6 850.085 12.1841 -2
-2 -23 -5 850.085 12.1841 1
2 -24 5 2405.98 24.3811 -2
2 24 -6 2405.98 24.3811 1
2 24 4 467.167 13.8518 -2
2 -24 -5 467.167 13.8518 1
2 24 3 2549.21 26.7225 -2
2 -24 -4 2549.21 26.7225 1
2 24 2 1037.19 12.9162 -2
2 -24 -3 1037.19 12.9162 1
2 24 1 198.298 8.53617 -2
2 -24 -2 198.298 8.53617 1
2 -24 0 4915.48 32.3412 -2
2 24 -1 4915.48 32.3412 1
2 24 -1 4167.93 23.3457 -2
2 -24 0 4167.93 23.3457 1
2 -24 -2 195.388 10.9421 -2
2 24 1 195.388 10.9421 1
2 -24 -3 863.836 13.2179 -2
2 24 2 863.836 13.2179 1
2 -24 -4 2724.44 21.4343 -2
2 24 3 2724.44 21.4343 1
-2 24 5 354.326 8.18818 -2
-2 -24 -4 354.326 8.18818 1
2 24 -6 1951.45 26.151 -2
2 -24 5 1951.45 26.151 1
2 -25 4 2639.89 15.5372 -2
2 25 -5 2639.89 15.5372 1
2 -25 3 452.246 7.91245 -2
2 25 -4 452.246 7.91245 1
2 25 2 622.165 9.97375 -2
2 -25 -3 622.165 9.97375 1
2 25 1 3868.72 20.0844 -2
2 -25 -2 3868.72 20.0844 1
2 -25 0 1096.19 14.1027 -2
2 25 -1 1096.19 14.1027 1
2 -25 -1 1199.75 12.8682 -2
2 25 0 1199.75 12.8682 1
2 -25 -2 3508.23 19.4891 -2
2 25 1 3508.23 19.4891 1
2 -25 -3 700.342 16.9278 -2
2 25 2 700.342 16.9278 1
2 25 -4 477.941 8.25523 -2
2 -25 3 477.941 8.25523 1
2 -25 -5 2485.63 30.9073 -2
2 25 4 2485.63 30.9073 1
2 -26 3 1769.03 16.6044 -2
2 26 -4 1769.03 16.6044 1
2 -26 2 1639.86 16.0472 -2
2 26 -3 1639.86 16.0472 1
2 26 1 433.444 7.8715 -2
2 -26 -2 433.444 7.8715 1
2 -26 0 2325.76 15.7334 -2
2 26 -1 2325.76 15.7334 1
2 26 -1 2402.28 15.6333 -2
2 -26 0 2402.28 15.6333 1
2 26 -2 337.898 9.30752 -2
2 -26 1 337.898 9.30752 1
2 -26 -3 1793.02 20.3785 -2
2 26 2 1793.02 20.3785 1
2 26 -4 1478.06 12.2779 -2
2 -26 3 1478.06 12.2779 1
2 27 2 1212.2 22.5382 -2
2 -27 -3 1212.2 22.5382 1
2 27 1 1502.52 13.2199 -2
2 -27 -2 1502.52 13.2199 1
2 27 0 169.904 10.646 -2
2 -27 -1 169.904 10.646 1
2 27 -1 157.717 7.35736 -2
2 -27 0 157.717 7.35736 1
2 27 -2 1774.54 13.8313 -2
2 -27 1 1774.54 13.8313 1
2 27 -3 1052.51 19.419 -2
2 -27 2 1052.51 19.419 1
3 0 -10 145.362 11.9723 1
3 0 -8 1245.26 14.7847 1
3 0 -6 15541.3 55.046 1
3 0 -4 2651.28 15.4709 1
3 0 -2 6459.54 19.4335 1
3 0 0 12548.1 32.8707 1
3 0 2 34.1714 3.75135 1
-3 0 -4 12409.8 40.7049 1
3 0 6 4803.86 34.1833 1
3 0 8 395.213 11.096 1
3 1 -10 169.564 12.2825 1
3 1 -9 19.5667 6.42221 1
3 -1 -8 711.156 8.71233 1
3 -1 -7 2320.34 14.5997 1
3 -1 -6 207.86 7.16621 1
-3 -1 5 2213.29 13.2016 1
3 -1 -4 2677.8 10.5479 1
3 1 -3 679.095 5.80562 1
3 1 -2 1646.37 8.46097 1
3 1 -1 11770.7 25.2589 1
3 1 0 2947.33 11.1111 1
3 -1 1 3784.12 9.95257 1
3 -1 2 4644.1 9.45977 1
3 1 3 2665.66 8.57837 1
3 -1 4 288.261 6.2382 1
-3 1 -5 4751.78 19.4256 1
3 -1 6 950.865 15.1814 1
3 1 7 336.157 10.963 1
3 1 8 663.262 10.4251 1
3 1 9 646.816 16.4283 1
3 2 -10 141.468 11.0562 1
3 -2 -9 2364.66 19.0655 1
3 2 -8 17.0751 5.2951 1
3 -2 -7 521.051 9.30225 1
3 -2 -6 721.944 9.04674 1
3 2 -5 2771.43 12.9116 1
3 2 -4 64.2175 4.10318 1
3 2 -3 8887.66 18.2724 1
3 -2 -2 1273.52 8.42837 1
3 2 -1 885.298 6.85835 1
3 2 0 2479.64 10.2166 1
3 -2 1 8220.67 14.4891 1
3 2 2 168.59 3.39297 1
-3 -2 -3 7642.72 15.1869 1
3 2 4 507.196 6.5845 1
3 -2 5 85.2939 5.54035 1
3 -2 6 271.834 10.8293 1
3 -2 7 2781.09 15.8789 1
3 2 8 3.54632 5.83536 1
3 2 9 367.183 13.6962 1
3 -3 -10 824.69 12.8834 1
3 -3 -9 4.56615 4.97052 1
3 3 -8 2284.11 14.6915 1
3 -3 -7 277.461 7.28028 1
3 3 -6 601.601 8.02803 1
3 3 -5 12.7174 3.66731 1
3 3 -4 15681.4 28.003 1
3 3 -3 20.5948 3.64022 1
3 3 -2 5914.88 13.3089 1
3 3 -1 193.152 4.12243 1
3 3 0 1795.36 7.476 1
3 3 1 50.3527 3.3955 1
3 -3 2 12519.8 15.9454 1
3 3 3 190.47 4.31893 1
3 3 4 1402.7 8.63924 1
3 3 5 92.8455 5.93992 1
3 -3 6 4985.64 29.1282 1
3 -3 7 4.42945 5.50858 1
3 3 8 2571.15 24.9729 1
3 -3 9 8.14381 5.79298 1
3 4 -10 184.801 6.23591 1
-3 4 9 795.401 8.59033 1
3 -4 -8 418.09 8.23567 1
3 -4 -7 375.458 9.93662 1
3 -4 -6 3163.64 16.7561 1
3 -4 -5 753.056 7.36474 1
3 4 -4 2080.98 12.0372 1
3 4 -3 7309.14 17.1606 1
3 4 -2 5193.13 11.953 1
3 -4 -1 146.95 3.78473 1
3 4 0 3580.91 9.50518 1
3 4 1 7634.95 15.1021 1
3 4 2 134.018 4.04479 1
3 4 3 4965.24 14.8093 1
3 -4 4 2791.78 12.8725 1
3 4 5 22.4841 5.2519 1
3 -4 6 1237.38 15.1474 1
3 -4 7 2084.94 17.38 1
3 4 8 35.482 7.78343 1
3 -4 9 63.1505 9.40612 1
-3 -5 10 10.9077 4.13655 1
3 5 -9 15.4048 4.18737 1
3 -5 -8 136.952 7.05209 1
3 -5 -7 3011.92 19.7329 1
3 5 -6 46.0209 6.22908 1
3 -5 -5 3160.35 13.435 1
3 5 -4 385.071 6.90925 1
3 5 -3 965.515 6.83563 1
3 5 -2 513.903 5.34593 1
3 5 -1 15589.7 21.7873 1
3 5 0 38.2012 3.21807 1
3 5 1 6164.05 12.7939 1
3 -5 2 585.729 5.74418 1
3 5 3 3751.33 13.2427 1
3 5 4 10.5268 4.84086 1
3 5 5 11072.9 30.3802 1
3 -5 6 0.70587 6.99168 1
3 -5 7 261.318 8.34174 1
3 -5 8 15.5512 8.43693 1
3 6 -10 476.196 8.55925 1
3 -6 -9 246.268 5.51823 1
3 -6 -8 1023.6 16.9566 1
3 6 -7 237.936 8.69228 1
3 -6 -6 5045.86 21.3146 1
3 -6 -5 357.25 6.37586 1
3 6 -4 213.731 5.51222 1
3 6 -3 1565.66 8.44526 1
3 -6 -2 10364 18.9376 1
3 -6 -1 830.169 6.21883 1
3 6 0 11858.9 17.0913 1
3 -6 1 1010.71 5.78882 1
3 6 2 109.241 4.16123 1
3 -6 3 780.345 7.97238 1
3 6 4 8418.4 29.5641 1
3 -6 5 101.829 6.5039 1
3 -6 6 1850.37 17.0145 1
3 6 7 163.47 6.2376 1
3 -6 8 140.652 6.25651 1
3 7 -10 309.813 7.93503 1
-3 -7 9 5.67234 3.74754 1
3 7 -8 1084.94 19.0561 1
3 -7 -7 678.636 9.89237 1
3 -7 -6 203.874 6.62064 1
3 -7 -5 1347.2 9.88373 1
3 7 -4 6285.4 19.8412 1
3 7 -3 262.381 4.59384 1
3 -7 -2 4527.41 12.5026 1
3 7 -1 6089.77 15.0757 1
3 -7 0 2485.74 8.79462 1
3 7 1 1151.63 7.02475 1
3 7 2 5453.72 17.6363 1
3 -7 3 101.629 5.3631 1
3 -7 4 201.069 7.72707 1
3 -7 5 1141.97 12.3257 1
3 -7 6 1052.69 12.5376 1
3 -7 7 58.9397 5.46365 1
3 7 8 1665.81 13.3083 1
3 8 -10 7.02243 4.24482 1
3 8 -9 1418.68 11.043 1
3 -8 -8 7.01673 9.21719 1
3 -8 -7 732.271 11.5582 1
3 -8 -6 26.0208 4.79187 1
3 8 -5 3289.98 13.5568 1
3 8 -4 241.358 5.15669 1
3 -8 -3 6748.22 15.8997 1
3 -8 -2 34.5562 3.83587 1
3 -8 -1 18.5377 3.74637 1
3 8 0 50.3161 3.63115 1
3 8 1 9682.6 17.6219 1
3 -8 2 144.107 5.78355 1
3 -8 3 13118.5 30.7974 1
3 -8 4 554.556 10.8529 1
3 -8 5 17.8872 6.58659 1
3 -8 6 -1.85109 6.29415 1
3 -8 7 3887.91 17.2933 1
3 8 8 8.12463 4.79931 1
3 -9 -10 302.137 9.9315 1
3 9 -9 10.6007 5.60251 1
3 9 -8 2047.57 16.4158 1
3 -9 -7 488.141 7.63961 1
3 -9 -6 54.8725 5.17318 1
3 9 -5 1028.36 9.0351 1
3 9 -4 5956.46 17.5576 1
3 -9 -3 297.764 5.12443 1
3 -9 -2 5097.43 16.2361 1
3 -9 -1 2641.28 10.196 1
3 -9 0 1968.64 8.42389 1
3 9 1 1047.36 7.67245 1
3 -9 2 11964.8 25.4364 1
3 -9 3 616.283 9.53509 1
3 -9 4 865.096 12.1258 1
3 -9 5 1018.88 10.7856 1
3 -9 6 1614.95 14.184 1
3 9 7 27.1688 5.50424 1
3 9 8 1406.69 16.0748 1
3 10 -9 164.751 5.37468 1
3 10 -8 586.496 8.4994 1
3 -10 -7 77.7782 5.78336 1
3 -10 -6 4330.3 17.2262 1
3 10 -5 383.988 6.99112 1
3 -10 -4 852.558 9.68441 1
3 -10 -3 1192.24 8.96298 1
3 -10 -2 3824.39 14.6811 1
3 -10 -1 27.6837 3.98983 1
3 -10 0 9550.31 17.3145 1
3 10 1 1228.38 9.94862 1
3 10 2 651.588 7.78262 1
3 -10 3 463.014 8.07704 1
3 -10 4 5138.56 24.9252 1
3 -10 5 50.5784 5.74386 1
3 -10 6 1532.82 15.0678 1
3 10 7 851.404 16.3985 1
3 10 8 189.753 7.2197 1
3 11 -9 1.37335 3.42329 1
3 -11 -8 62.7634 5.87904 1
3 11 -7 2544.51 14.3629 1
3 -11 -6 15.8393 5.89589 1
3 11 -5 2725.99 17.4125 1
3 11 -4 44.7232 5.32354 1
3 -11 -3 1824.81 12.395 1
3 -11 -2 29.7712 4.68531 1
3 -11 -1 8093.12 18.7944 1
3 11 0 275.123 5.75832 1
3 11 1 5029.72 21.0603 1
3 11 2 979.06 9.56286 1
3 -11 3 1209.3 11.1573 1
3 -11 4 193.048 8.64276 1
3 -11 5 6812.09 23.8945 1
3 11 6 16.9746 6.57389 1
3 11 7 182.703 9.41175 1
3 11 8 2.25916 3.89757 1
3 12 -9 298.388 5.66626 1
3 12 -8 494.006 8.39878 1
3 -12 -7 89.7273 5.14856 1
3 -12 -6 2574.08 18.6092 1
3 12 -5 681.744 11.8105 1
3 -12 -4 308.375 6.99524 1
3 -12 -3 3021.34 15.9795 1
3 -12 -2 2659.14 14.7624 1
3 12 -1 8.23052 4.61382 1
3 -12 0 4151.21 15.0872 1
3 -12 1 1774.62 13.6796 1
3 12 2 716.404 8.7797 1
3 -12 3 1116.45 12.1694 1
3 -12 4 4303.04 35.5589 1
3 12 5 28.7844 6.01565 1
3 12 6 2483.84 17.9239 1
3 12 7 1317.07 17.6381 1
3 13 -9 5.78783 3.67187 1
3 13 -8 1663.52 12.1438 1
3 13 -7 110.987 4.8555 1
3 -13 -6 92.31 6.29429 1
3 13 -5 324.442 9.43717 1
3 13 -4 5198.28 20.1271 1
3 -13 -3 31.5869 5.54466 1
3 -13 -2 4646.68 17.9175 1
3 -13 -1 355.729 6.79494 1
3 -13 0 1158.11 11.5762 1
3 13 1 246.926 7.01326 1
3 13 2 5646.16 19.6401 1
3 13 3 606.103 9.80492 1
3 13 4 332.884 12.0277 1
3 13 5 310.925 7.71275 1
3 13 6 1685.81 14.2803 1
3 13 7 18.5558 6.04566 1
3 14 -8 56.7913 5.12315 1
3 -14 -7 414.486 6.27149 1
3 -14 -6 282.038 7.67241 1
3 14 -5 1566.46 13.5927 1
3 -14 -4 44.258 5.70592 1
3 -14 -3 3960.72 18.0222 1
3 -14 -2 295.37 6.83721 1
3 -14 -1 104.869 5.9529 1
3 -14 0 360.451 7.93119 1
3 14 1 5145.57 20.3115 1
3 14 2 93.6253 6.4293 1
3 14 3 7621.03 29.708 1
3 14 4 1599.26 19.9845 1
3 14 5 245.719 6.93636 1
3 14 6 127.71 8.10934 1
3 14 7 2853.61 21.0703 1
3 15 -8 283.824 6.03061 1
3 -15 -7 819.677 8.23202 1
3 15 -6 47.0667 5.44315 1
3 15 -5 1703.93 14.8221 1
3 -15 -4 2085.02 13.7331 1
3 -15 -3 18.4359 6.02838 1
3 -15 -2 1276.22 11.2371 1
3 -15 -1 3690.66 20.9327 1
3 -15 0 925.967 10.4354 1
3 15 1 662.351 8.57894 1
3 15 2 1492.89 12.3258 1
3 15 3 962.483 11.7882 1
3 15 4 274.231 9.5391 1
3 15 5 2238.25 15.7509 1
3 15 6 540.473 9.77764 1
3 15 7 126.24 5.51466 1
-3 16 8 312.394 9.10212 1
3 -16 -7 8.98261 3.62007 1
3 -16 -6 3043.11 15.8878 1
3 16 -5 9.8352 5.49899 1
3 16 -4 261.961 8.96143 1
3 -16 -3 11.8675 5.71136 1
3 -16 -2 3955.46 20.5069 1
3 -16 -1 6.91056 7.3931 1
3 -16 0 3504.98 17.2851 1
3 16 1 87.8325 5.82708 1
3 16 2 24.837 5.47693 1
3 16 3 115.928 7.1897 1
3 16 4 4431.44 31.6068 1
3 16 5 26.5185 4.9167 1
3 16 6 969.729 18.7229 1
3 -17 -7 989.456 16.9733 1
3 17 -6 16.3169 5.04941 1
3 17 -5 1009.84 13.8416 1
3 17 -4 946.2 12.1014 1
3 -17 -3 272.361 6.76479 1
3 -17 -2 307.539 9.22237 1
3 -17 -1 4433.45 21.4741 1
3 17 0 112.413 6.49434 1
3 17 1 2255.86 13.7976 1
3 17 2 903.142 9.47485 1
3 17 3 1117.39 10.865 1
3 17 4 11.702 7.53303 1
3 17 5 3005.18 15.2341 1
3 17 6 102.787 8.72939 1
3 18 -7 155.973 7.55387 1
3 -18 -6 506.686 7.52972 1
3 18 -5 423.716 9.40317 1
3 18 -4 313.289 11.0004 1
3 -18 -3 1955.23 14.6977 1
3 -18 -2 1131.16 11.4634 1
3 18 -1 32.1524 5.73027 1
3 18 0 1104.75 10.5127 1
3 18 1 4511.09 17.7966 1
3 -18 2 4.96019 4.80854 1
3 18 3 2111.54 14.7186 1
3 18 4 833.495 10.324 1
3 18 5 5.45384 4.21937 1
3 18 6 223.957 7.3128 1
-3 19 7 122.039 9.16675 1
3 19 -6 17.5957 3.72415 1
3 -19 -5 220.332 6.2922 1
3 19 -4 4256.53 34.1872 1
3 -19 -3 77.5056 6.42066 1
3 -19 -2 1533.74 11.3998 1
3 19 -1 6.042 5.1568 1
3 19 0 912.661 9.66852 1
3 19 1 7.33866 4.65507 1
3 -19 2 4928.13 19.6353 1
3 19 3 49.6919 6.33742 1
3 19 4 591.808 7.38998 1
3 19 5 81.1394 4.17429 1
3 20 -6 629.457 9.1234 1
3 -20 -5 826.741 11.1267 1
3 -20 -4 49.3788 10.1421 1
3 -20 -3 1975.57 12.9982 1
3 -20 -2 1140.88 9.28106 1
3 20 -1 240.195 7.11872 1
3 20 0 1452.58 9.93893 1
3 20 1 1811.68 13.1215 1
3 20 2 39.411 4.36504 1
3 20 3 1736.94 15.5718 1
3 20 4 754.405 6.5749 1
3 20 5 -1.70857 5.15874 1
3 -21 -5 230.057 6.85987 1
3 21 -4 256.941 9.08343 1
3 -21 -3 355.644 7.11074 1
3 -21 -2 134.526 5.31432 1
3 21 -1 3427.82 21.9224 1
3 21 0 90.3475 4.87778 1
3 -21 1 944.756 9.20003 1
3 21 2 357.638 6.76941 1
3 21 3 595.939 12.3161 1
3 21 4 6.03917 3.72543 1
3 -22 -5 119.3 5.89288 1
3 22 -4 108.149 7.30262 1
3 -22 -3 157.2 6.2029 1
3 -22 -2 1619.63 10.3297 1
3 22 -1 11.4699 5.06835 1
3 22 0 2498.62 15.7809 1
3 -22 1 74.0272 5.0762 1
3 22 2 1.13419 4.12121 1
3 22 3 102.49 6.23558 1
3 23 -4 728.798 9.83448 1
3 23 -3 76.5981 4.90314 1
3 -23 -2 551.577 6.52151 1
3 23 -1 1544.44 11.5005 1
3 23 0 602.055 9.20723 1
3 -23 1 307.766 6.88705 1
3 23 2 1330.99 14.652 1
3 24 -3 949.369 17.0207 1
3 24 -2 11.0732 5.25716 1
3 24 -1 57.2247 5.71576 1
3 24 0 32.0529 3.68158 1
3 -24 1 984.879 14.9957 1
4 0 6 3275.77 30.274 -2
4 0 -8 3275.77 30.274 1
4 0 4 3721.03 31.1138 -2
4 0 -6 3721.03 31.1138 1
4 0 2 9417.48 40.8924 -2
4 0 -4 9417.48 40.8924 1
4 0 0 5139.37 28.5155 -2
4 0 -2 5139.37 28.5155 1
4 0 -2 4574.37 23.9219 -2
4 0 0 4574.37 23.9219 1
4 0 -4 9482.12 52.6727 -2
4 0 2 9482.12 52.6727 1
4 0 -6 3085.26 38.4394 -2
4 0 4 3085.26 38.4394 1
4 0 -8 2190.44 31.9589 -2
4 0 6 2190.44 31.9589 1
4 -1 6 1295.82 15.1793 -2
4 1 -8 1295.82 15.1793 1
4 -1 5 813.469 12.793 -2
4 1 -7 813.469 12.793 1
4 -1 4 1291.67 15.8623 -2
4 1 -6 1291.67 15.8623 1
4 -1 3 3690.59 26.4079 -2
4 1 -5 3690.59 26.4079 1
4 1 2 657.467 10.083 -2
4 -1 -4 657.467 10.083 1
4 1 1 5606.44 22.1708 -2
4 -1 -3 5606.44 22.1708 1
4 1 0 2854.1 15.6352 -2
4 -1 -2 2854.1 15.6352 1
4 -1 -1 2541.63 17.7349 -2
4 1 -1 2541.63 17.7349 1
4 -1 -2 3076.33 15.7012 -2
4 1 0 3076.33 15.7012 1
4 1 -3 5279.6 17.7707 -2
4 -1 1 5279.6 17.7707 1
4 1 -4 601.894 12.5692 -2
4 -1 2 601.894 12.5692 1
4 1 -5 3632.9 22.544 -2
4 -1 3 3632.9 22.544 1
4 1 -6 1008.89 20.3119 -2
4 -1 4 1008.89 20.3119 1
4 1 -7 553.091 17.3459 -2
4 -1 5 553.091 17.3459 1
4 1 -8 910.93 15.8407 -2
4 -1 6 910.93 15.8407 1
4 -2 6 212.586 7.25013 -2
4 2 -8 212.586 7.25013 1
4 2 5 3788.07 23.6751 -2
4 -2 -7 3788.07 23.6751 1
4 -2 4 211.314 8.84323 -2
4 2 -6 211.314 8.84323 1
4 2 3 2635.22 19.0177 -2
4 -2 -5 2635.22 19.0177 1
4 2 2 848.141 10.2429 -2
4 -2 -4 848.141 10.2429 1
4 2 1 3516.62 17.9227 -2
4 -2 -3 3516.62 17.9227 1
4 2 0 802.969 9.41517 -2
4 -2 -2 802.969 9.41517 1
4 -2 -1 7535.12 28.5414 -2
4 2 -1 7535.12 28.5414 1
4 2 -2 703.056 9.18345 -2
4 -2 0 703.056 9.18345 1
4 2 -3 3919.17 17.3082 -2
4 -2 1 3919.17 17.3082 1
4 2 -4 819.039 10.7739 -2
4 -2 2 819.039 10.7739 1
4 -2 -5 1938.49 19.8078 -2
4 2 3 1938.49 19.8078 1
4 2 -6 197.847 13.8882 -2
4 -2 4 197.847 13.8882 1
4 2 -7 3213.98 47.2674 -2
4 -2 5 3213.98 47.2674 1
4 2 -8 123.387 9.39281 -2
4 -2 6 123.387 9.39281 1
4 3 6 2492.94 31.1097 -2
4 -3 -8 2492.94 31.1097 1
4 -3 5 13.5964 7.25544 -2
4 3 -7 13.5964 7.25544 1
4 -3 4 7315.44 33.0853 -2
4 3 -6 7315.44 33.0853 1
4 3 3 128.732 8.42161 -2
4 -3 -5 128.732 8.42161 1
4 3 2 2349.44 15.1516 -2
4 -3 -4 2349.44 15.1516 1
4 3 1 191.777 6.24051 -2
4 -3 -3 191.777 6.24051 1
4 3 0 6600.76 21.5664 -2
4 -3 -2 6600.76 21.5664 1
4 3 -1 52.3933 6.44056 -2
4 -3 -1 52.3933 6.44056 1
4 3 -2 7513.06 24.0115 -2
4 -3 0 7513.06 24.0115 1
4 3 -3 181.046 6.90019 -2
4 -3 1 181.046 6.90019 1
4 3 -4 1928.22 14.7561 -2
4 -3 2 1928.22 14.7561 1
4 3 -5 140.255 11.0042 -2
4 -3 3 140.255 11.0042 1
4 3 -6 6409.59 42.0596 -2
4 -3 4 6409.59 42.0596 1
4 3 -7 49.1621 15.6086 -2
4 -3 5 49.1621 15.6086 1
4 3 -8 2390.56 22.1195 -2
4 -3 6 2390.56 22.1195 1
4 4 6 782.702 13.2465 -2
4 -4 -8 782.702 13.2465 1
4 -4 5 2235.32 16.5721 -2
4 4 -7 2235.32 16.5721 1
4 4 4 1324.55 15.9097 -2
4 -4 -6 1324.55 15.9097 1
4 -4 3 1815.83 18.8127 -2
4 4 -5 1815.83 18.8127 1
4 4 2 3109.05 18.8802 -2
4 -4 -4 3109.05 18.8802 1
4 4 1 2371.02 14.258 -2
4 -4 -3 2371.02 14.258 1
4 4 0 1521.5 11.4517 -2
4 -4 -2 1521.5 11.4517 1
4 4 -1 5974.78 21.2707 -2
4 -4 -1 5974.78 21.2707 1
4 -4 -2 1354.78 12.9894 -2
4 4 0 1354.78 12.9894 1
4 4 -3 2675.57 16.4121 -2
4 -4 1 2675.57 16.4121 1
4 4 -4 2908.73 20.0419 -2
4 -4 2 2908.73 20.0419 1
4 -4 -5 1296.87 20.6366 -2
4 4 3 1296.87 20.6366 1
4 4 -6 1166.18 20.9247 -2
4 -4 4 1166.18 20.9247 1
4 4 -7 1993.51 37.8338 -2
4 -4 5 1993.51 37.8338 1
4 4 -8 412.994 11.667 -2
4 -4 6 412.994 11.667 1
4 -5 6 17.6348 6.09052 -2
4 5 -8 17.6348 6.09052 1
4 -5 5 876.079 12.241 -2
4 5 -7 876.079 12.241 1
4 -5 4 182.643 9.603 -2
4 5 -6 182.643 9.603 1
4 5 3 6839.05 42.8713 -2
4 -5 -5 6839.05 42.8713 1
4 5 2 112.553 7.09289 -2
4 -5 -4 112.553 7.09289 1
4 5 1 7185.73 23.0327 -2
4 -5 -3 7185.73 23.0327 1
4 5 0 216.229 7.28402 -2
4 -5 -2 216.229 7.28402 1
4 -5 -1 4013.73 18.0833 -2
4 5 -1 4013.73 18.0833 1
4 5 -2 236.258 7.90387 -2
4 -5 0 236.258 7.90387 1
4 5 -3 6756.74 27.5207 -2
4 -5 1 6756.74 27.5207 1
4 5 -4 73.6385 8.79249 -2
4 -5 2 73.6385 8.79249 1
4 -5 -5 7128.29 41.0453 -2
4 5 3 7128.29 41.0453 1
4 5 -6 120.729 14.3278 -2
4 -5 4 120.729 14.3278 1
4 5 -7 632.45 17.6341 -2
4 -5 5 632.45 17.6341 1
4 5 -8 27.2914 7.22651 -2
4 -5 6 27.2914 7.22651 1
4 -6 6 1368.69 12.6126 -2
4 6 -8 1368.69 12.6126 1
4 -6 5 303.659 8.54007 -2
4 6 -7 303.659 8.54007 1
4 6 4 1049.11 15.5582 -2
4 -6 -6 1049.11 15.5582 1
4 6 3 402.157 14.0772 -2
4 -6 -5 402.157 14.0772 1
4 6 2 7826.38 29.2201 -2
4 -6 -4 7826.38 29.2201 1
4 6 1 697.774 9.73516 -2
4 -6 -3 697.774 9.73516 1
4 6 0 4476.01 19.2603 -2
4 -6 -2 4476.01 19.2603 1
4 -6 -1 595.107 9.90174 -2
4 6 -1 595.107 9.90174 1
4 -6 -2 4191.8 17.8836 -2
4 6 0 4191.8 17.8836 1
4 6 -3 707.678 12.8915 -2
4 -6 1 707.678 12.8915 1
4 6 -4 7669.04 35.0699 -2
4 -6 2 7669.04 35.0699 1
4 -6 -5 266.504 12.4242 -2
4 6 3 266.504 12.4242 1
4 6 -6 968.497 22.6855 -2
4 -6 4 968.497 22.6855 1
4 6 -7 255.454 13.3318 -2
4 -6 5 255.454 13.3318 1
4 -6 -8 808.695 17.5518 -2
4 6 6 808.695 17.5518 1
4 -7 6 1677.99 24.6807 -2
4 7 -8 1677.99 24.6807 1
4 -7 5 305.192 7.05767 -2
4 7 -7 305.192 7.05767 1
4 7 4 3113.16 22.7195 -2
4 -7 -6 3113.16 22.7195 1
4 -7 3 745.507 17.2963 -2
4 7 -5 745.507 17.2963 1
4 7 2 1329.74 14.0497 -2
4 -7 -4 1329.74 14.0497 1
4 7 1 2113.55 13.956 -2
4 -7 -3 2113.55 13.956 1
4 7 0 3154.78 16.3471 -2
4 -7 -2 3154.78 16.3471 1
4 -7 -1 667.274 10.5705 -2
4 7 -1 667.274 10.5705 1
4 -7 -2 3393.07 18.9654 -2
4 7 0 3393.07 18.9654 1
4 7 -3 1910.91 18.6384 -2
4 -7 1 1910.91 18.6384 1
4 7 -4 969.523 17.5639 -2
4 -7 2 969.523 17.5639 1
4 -7 -5 777.92 15.9127 -2
4 7 3 777.92 15.9127 1
4 7 -6 2008.1 29.2971 -2
4 -7 4 2008.1 29.2971 1
4 7 -7 228.329 12.7574 -2
4 -7 5 228.329 12.7574 1
4 -7 -8 1198.61 18.2405 -2
4 7 6 1198.61 18.2405 1
4 -8 5 3853.39 20.9799 -2
4 8 -7 3853.39 20.9799 1
4 8 4 48.661 9.1743 -2
4 -8 -6 48.661 9.1743 1
4 -8 3 1897.56 20.3805 -2
4 8 -5 1897.56 20.3805 1
4 8 2 238.05 8.34245 -2
4 -8 -4 238.05 8.34245 1
4 8 1 4844.65 24.6585 -2
4 -8 -3 4844.65 24.6585 1
4 -8 0 29.2917 6.88788 -2
4 8 -2 29.2917 6.88788 1
4 -8 -1 8944.62 30.2634 -2
4 8 -1 8944.62 30.2634 1
4 8 -2 15.4705 8.1184 -2
4 -8 0 15.4705 8.1184 1
4 8 -3 5696.58 28.6615 -2
4 -8 1 5696.58 28.6615 1
4 8 -4 243.682 11.4489 -2
4 -8 2 243.682 11.4489 1
4 -8 -5 1234.19 21.1452 -2
4 8 3 1234.19 21.1452 1
4 8 -6 20.5363 9.29291 -2
4 -8 4 20.5363 9.29291 1
4 -8 -7 3931.02 44.7695 -2
4 8 5 3931.02 44.7695 1
4 -9 5 225.942 8.66954 -2
4 9 -7 225.942 8.66954 1
4 9 4 2769.09 17.5135 -2
4 -9 -6 2769.09 17.5135 1
4 -9 3 663.74 13.2382 -2
4 9 -5 663.74 13.2382 1
4 9 2 1528.19 14.8467 -2
4 -9 -4 1528.19 14.8467 1
4 9 1 1153.38 13.4658 -2
4 -9 -3 1153.38 13.4658 1
4 9 0 5877.68 25.0928 -2
4 -9 -2 5877.68 25.0928 1
4 -9 -1 814.509 11.9265 -2
4 9 -1 814.509 11.9265 1
4 -9 -2 6223.89 33.7049 -2
4 9 0 6223.89 33.7049 1
4 -9 -3 1057.76 13.7538 -2
4 9 1 1057.76 13.7538 1
4 9 -4 1326.75 20.6892 -2
4 -9 2 1326.75 20.6892 1
4 9 -5 620.595 13.9342 -2
4 -9 3 620.595 13.9342 1
4 9 -6 2180.38 22.9048 -2
4 -9 4 2180.38 22.9048 1
4 -9 -7 154.33 14.9458 -2
4 9 5 154.33 14.9458 1
4 10 5 914.576 11.7367 -2
4 -10 -7 914.576 11.7367 1
4 10 4 1180.85 13.0411 -2
4 -10 -6 1180.85 13.0411 1
4 -10 3 421.47 11.5272 -2
4 10 -5 421.47 11.5272 1
4 10 2 4251.63 21.4253 -2
4 -10 -4 4251.63 21.4253 1
4 10 1 240.039 9.40359 -2
4 -10 -3 240.039 9.40359 1
4 10 0 3404.94 21.9895 -2
4 -10 -2 3404.94 21.9895 1
4 -10 -1 969.941 16.8619 -2
4 10 -1 969.941 16.8619 1
4 -10 -2 3089.78 24.1838 -2
4 10 0 3089.78 24.1838 1
4 -10 -3 262.139 13.6666 -2
4 10 1 262.139 13.6666 1
4 -10 -4 3564.54 45.6342 -2
4 10 2 3564.54 45.6342 1
4 -10 -5 258.751 11.8665 -2
4 10 3 258.751 11.8665 1
4 -10 -6 916.816 18.6627 -2
4 10 4 916.816 18.6627 1
4 -10 -7 754.286 19.7026 -2
4 10 5 754.286 19.7026 1
4 -11 5 779.393 9.716 -2
4 11 -7 779.393 9.716 1
4 11 4 41.0895 6.14967 -2
4 -11 -6 41.0895 6.14967 1
4 -11 3 4682.64 23.1629 -2
4 11 -5 4682.64 23.1629 1
4 11 2 128.12 8.88768 -2
4 -11 -4 128.12 8.88768 1
4 11 1 4187.97 24.7102 -2
4 -11 -3 4187.97 24.7102 1
4 -11 0 469.35 12.3766 -2
4 11 -2 469.35 12.3766 1
4 -11 -1 2759.77 22.5148 -2
4 11 -1 2759.77 22.5148 1
4 -11 -2 477.016 13.3442 -2
4 11 0 477.016 13.3442 1
4 -11 -3 3144.98 55.566 -2
4 11 1 3144.98 55.566 1
4 -11 -4 89.2611 14.5642 -2
4 11 2 89.2611 14.5642 1
4 -11 -5 3634.8 22.528 -2
4 11 3 3634.8 22.528 1
4 -11 -6 37.1075 9.53989 -2
4 11 4 37.1075 9.53989 1
4 -11 -7 428.564 14.6102 -2
4 11 5 428.564 14.6102 1
4 -12 4 1151.17 17.1453 -2
4 12 -6 1151.17 17.1453 1
4 12 3 1010.47 13.7505 -2
4 -12 -5 1010.47 13.7505 1
4 -12 2 3652.44 28.3328 -2
4 12 -4 3652.44 28.3328 1
4 12 1 443.364 11.6373 -2
4 -12 -3 443.364 11.6373 1
4 -12 0 1981.89 22.2794 -2
4 12 -2 1981.89 22.2794 1
4 -12 -1 1473.96 18.0534 -2
4 12 -1 1473.96 18.0534 1
4 -12 -2 1579.13 17.9583 -2
4 12 0 1579.13 17.9583 1
4 -12 -3 479.51 16.01 -2
4 12 1 479.51 16.01 1
4 -12 -4 3082.17 29.4926 -2
4 12 2 3082.17 29.4926 1
4 -12 -5 572.996 12.7751 -2
4 12 3 572.996 12.7751 1
4 -12 -6 1104.04 17.3961 -2
4 12 4 1104.04 17.3961 1
4 13 4 3277.62 17.45 -2
4 -13 -6 3277.62 17.45 1
4 13 3 286.091 8.39706 -2
4 -13 -5 286.091 8.39706 1
4 -13 2 1477.71 17.688 -2
4 13 -4 1477.71 17.688 1
4 13 1 285.137 9.40381 -2
4 -13 -3 285.137 9.40381 1
4 -13 0 3328.37 34.549 -2
4 13 -2 3328.37 34.549 1
4 -13 -1 228.83 9.94191 -2
4 13 -1 228.83 9.94191 1
4 -13 -2 3128.38 28.2682 -2
4 13 0 3128.38 28.2682 1
4 -13 -3 241.341 14.9105 -2
4 13 1 241.341 14.9105 1
4 -13 -4 1047.69 17.5318 -2
4 13 2 1047.69 17.5318 1
4 -13 -5 218.684 12.7351 -2
4 13 3 218.684 12.7351 1
4 -13 -6 2466.34 30.5457 -2
4 13 4 2466.34 30.5457 1
4 14 4 81.0282 9.79896 -2
4 -14 -6 81.0282 9.79896 1
4 14 3 1460.79 13.0688 -2
4 -14 -5 1460.79 13.0688 1
4 -14 2 1020.61 13.0416 -2
4 14 -4 1020.61 13.0416 1
4 14 1 3448.33 24.9313 -2
4 -14 -3 3448.33 24.9313 1
4 -14 0 156.687 10.0002 -2
4 14 -2 156.687 10.0002 1
4 -14 -1 4374.21 31.2801 -2
4 14 -1 4374.21 31.2801 1
4 -14 -2 113.163 11.3735 -2
4 14 0 113.163 11.3735 1
4 -14 -3 3782.63 35.9749 -2
4 14 1 3782.63 35.9749 1
4 -14 -4 804.779 18.0506 -2
4 14 2 804.779 18.0506 1
4 -14 -5 748.318 15.99 -2
4 14 3 748.318 15.99 1
4 -14 -6 101.188 9.98861 -2
4 14 4 101.188 9.98861 1
4 15 3 1440.95 15.0405 -2
4 -15 -5 1440.95 15.0405 1
4 -15 2 452.456 11.9598 -2
4 15 -4 452.456 11.9598 1
4 -15 1 1719.94 14.6558 -2
4 15 -3 1719.94 14.6558 1
4 -15 0 1203.63 22.8086 -2
4 15 -2 1203.63 22.8086 1
4 -15 -1 352.578 13.5698 -2
4 15 -1 352.578 13.5698 1
4 -15 -2 1082.8 18.1078 -2
4 15 0 1082.8 18.1078 1
4 -15 -3 1673.33 32.5757 -2
4 15 1 1673.33 32.5757 1
4 -15 -4 279.02 11.5974 -2
4 15 2 279.02 11.5974 1
4 -15 -5 1165.06 16.5401 -2
4 15 3 1165.06 16.5401 1
4 16 3 24.4854 8.06292 -2
4 -16 -5 24.4854 8.06292 1
4 -16 2 4242.4 38.6471 -2
4 16 -4 4242.4 38.6471 1
4 16 1 57.1445 6.923 -2
4 -16 -3 57.1445 6.923 1
4 16 0 1565.97 22.4125 -2
4 -16 -2 1565.97 22.4125 1
4 -16 -1 35.1305 8.8794 -2
4 16 -1 35.1305 8.8794 1
4 -16 -2 1209.38 17.2859 -2
4 16 0 1209.38 17.2859 1
4 -16 -3 49.239 10.3178 -2
4 16 1 49.239 10.3178 1
4 -16 -4 1835.41 26.4606 -2
4 16 2 1835.41 26.4606 1
4 -16 -5 22.7312 8.04953 -2
4 16 3 22.7312 8.04953 1
4 17 2 90.0756 10.5332 -2
4 -17 -4 90.0756 10.5332 1
4 17 1 2235.54 18.2278 -2
4 -17 -3 2235.54 18.2278 1
4 17 0 387.54 12.251 -2
4 -17 -2 387.54 12.251 1
4 -17 -1 1430.34 16.9736 -2
4 17 -1 1430.34 16.9736 1
4 -17 -2 422.335 10.6749 -2
4 17 0 422.335 10.6749 1
4 -17 -3 1732.32 19.7459 -2
4 17 1 1732.32 19.7459 1
4 -17 -4 57.9355 7.52027 -2
4 17 2 57.9355 7.52027 1
4 -18 1 872.23 21.1642 -2
4 18 -3 872.23 21.1642 1
4 18 0 316.646 9.48414 -2
4 -18 -2 316.646 9.48414 1
4 -18 -1 3076.01 19.1901 -2
4 18 -1 3076.01 19.1901 1
4 -18 -2 340.108 9.18481 -2
4 18 0 340.108 9.18481 1
4 -18 -3 723.888 19.0166 -2
4 18 1 723.888 19.0166 1
4 -19 -1 14.3181 6.68387 -2
4 19 -1 14.3181 6.68387 1
5 0 -4 479.153 24.0155 1
5 1 -4 103.217 11.8435 1
5 1 -3 148.476 14.2763 1
5 2 -3 698.633 19.6306 1
5 3 -3 3.65021 12.1255 1
5 3 -2 1413.58 24.5313 1
5 3 -1 20.9698 12.1937 1
5 4 -3 394.416 9.28326 1
5 4 -2 32.1216 12.2712 1
5 4 -1 509.105 16.7263 1
5 5 -3 221.828 7.67604 1
5 5 -2 31.6993 13.3351 1
5 5 -1 403.423 14.528 1
5 5 0 3.21798 9.28252 1
5 6 -2 3.7891 7.24954 1
5 6 -1 86.6606 10.4275 1
5 6 0 812.323 12.6875 1
5 7 -1 9.6676 8.04406 1
-1 0 10 31.7102 6.01783 2
1 0 -8 3945.24 25.6201 2
1 0 -6 2185.68 38.9448 2
1 0 -4 12209.9 43.5246 2
1 0 -2 292966 148.85 2
1 0 0 26740.6 42.7583 2
-1 0 -2 11322.3 47.5929 2
-1 0 -4 14615.3 72.7327 2
1 0 6 38.2408 4.92374 2
1 0 8 7818.76 43.4207 2
1 0 10 3026.52 28.021 2
1 -1 -12 -9.45542 9.60851 2
-1 -1 11 74.3071 5.12184 2
-1 -1 10 799.182 10.0424 2
-1 -1 9 1587 10.9043 2
1 -1 -8 338.041 6.4208 2
1 1 -7 7702.4 22.9583 2
1 1 -6 1272.15 17.846 2
1 -1 -5 157.936 7.76268 2
1 1 -4 7011.87 24.4043 2
-1 1 3 12242 30.8257 2
1 1 -2 907.701 7.83812 2
1 -1 -1 9135.32 13.6321 2
1 -1 0 15581.6 52.4732 2
-1 1 -1 81.9673 5.80177 2
-1 1 -2 5053.14 20.4052 2
-1 1 -3 31164.7 57.5347 2
-1 1 -4 5337.77 28.2649 2
-1 1 -5 5843.83 42.247 2
1 -1 6 5372.08 17.7142 2
1 -1 7 1552.61 10.9448 2
1 -1 8 80.9375 6.28433 2
1 -1 9 2746.48 20.8124 2
1 1 10 550.071 13.9423 2
1 -1 11 213.353 10.403 2
1 -2 -12 27.9563 9.96016 2
-1 -2 11 1086.17 14.4336 2
-1 -2 10 10.2086 4.23371 2
1 2 -9 1672.65 11.7323 2
-1 -2 8 2033.3 12.3947 2
1 2 -7 2304.73 12.5282 2
1 2 -6 534.786 13.0977 2
1 2 -5 21012.2 67.0406 2
1 2 -4 158.16 7.61144 2
-1 2 3 4255.97 25.3019 2
1 2 -2 1333.43 11.1554 2
1 -2 -1 8078.86 25.4862 2
1 -2 0 1771.48 33.4645 2
-1 -2 -1 52088.5 65.4374 2
-1 2 -2 1212.63 8.91527 2
-1 2 -3 6839.44 27.3771 2
-1 2 -4 7482.86 35.2486 2
-1 2 -5 7833.24 48.4963 2
1 -2 6 106.02 4.02148 2
1 2 7 7235.54 21.5028 2
-1 2 -8 396.157 7.47784 2
1 2 9 35.4075 7.28121 2
1 2 10 177.671 9.72528 2
1 -2 11 1028.17 22.7135 2
1 -3 -12 99.6099 10.2063 2
-1 3 11 4.88153 4.24565 2
1 3 -10 2212.02 17.2181 2
1 -3 -9 60.4837 4.45491 2
-1 -3 8 199.027 5.32867 2
-1 -3 7 144.141 4.03382 2
1 3 -6 5632.63 37.1778 2
1 -3 -5 285.534 9.63772 2
1 3 -4 30192.1 60.3867 2
1 3 -3 547.591 8.52589 2
1 3 -2 1634.97 8.68044 2
1 3 -1 545.779 6.89763 2
1 3 0 105049 67.2145 2
-1 -3 -1 1292.9 12.3056 2
1 3 2 16630.2 33.8794 2
-1 3 -3 223.239 7.37067 2
-1 3 -4 913.104 13.5339 2
-1 3 -5 190.01 9.75503 2
1 -3 6 12432.7 27.7946 2
1 -3 7 150.536 4.84335 2
1 -3 8 1859.64 14.5036 2
1 -3 9 40.0026 6.61892 2
1 3 10 2096.66 18.9091 2
1 -3 11 6.63776 4.71559 2
-1 -4 12 232.36 8.33092 2
-1 4 11 427.421 8.52837 2
-1 4 10 40.8498 5.48347 2
-1 -4 9 1323.63 10.1219 2
-1 -4 8 2615.8 13.1522 2
-1 -4 7 547.9 6.47724 2
-1 -4 6 2551.51 17.3762 2
1 4 -5 9143.11 38.5768 2
1 4 -4 5128.09 24.5553 2
1 4 -3 3567.21 19.5707 2
1 4 -2 20999.1 33.9599 2
1 4 -1 3448.28 14.9001 2
1 4 0 20872 24.2678 2
-1 -4 -1 38723.6 78.7565 2
-1 -4 -2 14507.2 42.5247 2
-1 4 -3 889.476 10.9182 2
-1 4 -4 7009.29 29.8404 2
-1 4 -5 9159.32 43.1818 2
1 -4 6 15.8865 3.81513 2
1 -4 7 3800.26 16.4744 2
1 -4 8 2005.46 13.9351 2
1 4 9 6.59946 5.76158 2
1 4 10 642.239 10.4719 2
1 -4 11 676.376 14.4963 2
-1 5 11 126.36 4.81497 2
-1 -5 10 221.578 6.97801 2
-1 -5 9 1967.48 14.5664 2
-1 -5 8 111.034 4.58636 2
1 -5 -7 8860.57 21.1162 2
1 5 -6 420.213 5.65211 2
1 5 -5 1315.66 15.0924 2
1 5 -4 340.099 8.58427 2
1 5 -3 22078.2 50.5391 2
1 5 -2 74.6693 4.62308 2
-1 -5 1 25513.6 47.0691 2
1 5 0 410.41 4.79951 2
-1 -5 -1 6877.49 28.6318 2
-1 -5 -2 2961.56 21.4647 2
-1 -5 -3 41400.4 66.7513 2
-1 5 -4 282.711 8.43245 2
-1 5 -5 9090.69 45.3291 2
1 -5 6 1063.45 9.36403 2
1 5 7 2018.72 14.3801 2
1 5 8 12.6742 4.3854 2
1 5 9 5820.26 26.2743 2
1 5 10 18.0971 3.96602 2
1 -5 11 225.292 6.75772 2
-1 6 11 48.759 4.4298 2
-1 6 10 181.266 8.32267 2
-1 -6 9 200.196 6.16885 2
-1 -6 8 5021.35 19.0677 2
1 -6 -7 356.478 5.73578 2
1 6 -6 7779.48 19.9506 2
1 6 -5 2694.4 18.7512 2
1 6 -4 6931.64 28.735 2
1 6 -3 1931.53 16.0054 2
1 6 -2 39424.7 60.3637 2
1 6 -1 2017.74 11.9411 2
1 6 0 6284.54 14.8807 2
-1 6 -1 10484.2 25.2887 2
-1 6 -2 35606.4 64.4438 2
-1 -6 -3 2726.96 24.0843 2
-1 6 -4 17434.7 65.1511 2
1 -6 5 1692.53 16.7744 2
-1 6 -6 602.426 9.89448 2
-1 6 -7 305.252 8.14291 2
1 6 8 3907.36 20.183 2
1 6 9 67.3321 5.60077 2
1 6 10 1368.15 11.9428 2
1 -6 11 58.4068 4.62493 2
-1 7 11 25.4926 4.3372 2
1 7 -10 1330.75 17.4252 2
-1 -7 9 1274.12 11.1249 2
-1 -7 8 600.88 7.84666 2
-1 -7 7 2677.14 12.5303 2
1 7 -6 4905.33 16.585 2
1 7 -5 7.99979 5.83435 2
1 7 -4 5779.08 31.9302 2
1 7 -3 4841.96 25.7284 2
1 7 -2 257.717 7.52764 2
1 7 -1 6844.46 23.8023 2
1 7 0 18306.7 26.1769 2
-1 7 -1 119.679 4.6559 2
-1 -7 -2 16588.8 46.7395 2
-1 -7 -3 12953.5 43.6049 2
-1 7 -4 3538.52 29.1675 2
-1 7 -5 3455.18 23.5931 2
-1 7 -6 6148.43 28.2028 2
-1 7 -7 71.0691 5.52199 2
1 7 8 345.955 6.80693 2
1 7 9 950.255 10.2667 2
1 -7 10 385.012 7.09914 2
1 -7 11 28.2402 3.79659 2
-1 8 11 1729.97 19.5813 2
-1 8 10 189.085 8.50132 2
1 -8 -9 1460.86 12.9171 2
-1 -8 8 234.603 5.90717 2
-1 -8 7 806.114 7.7884 2
1 8 -6 6.92309 4.05148 2
1 8 -5 10478.1 42.6598 2
1 8 -4 832.88 14.107 2
1 8 -3 13401.2 34.8469 2
1 8 -2 25.8496 5.62264 2
1 8 -1 24815.4 49.3447 2
-1 8 0 4577.19 18.3468 2
-1 8 -1 21237 40.4388 2
-1 8 -2 72.0414 5.53098 2
-1 8 -3 438.754 8.21489 2
-1 8 -4 419.263 12.3301 2
1 8 5 9115.65 28.6173 2
-1 8 -6 715.896 10.7295 2
-1 8 -7 11903.8 36.7186 2
1 8 8 527.182 7.13937 2
1 8 9 61.6155 5.245 2
1 8 10 12.1236 4.73338 2
1 8 11 1315.92 15.5118 2
-1 9 11 101.368 4.7759 2
-1 9 10 1371.77 18.6384 2
1 -9 -9 339.997 7.42477 2
1 9 -8 638.943 8.65779 2
1 9 -7 1136.35 9.53224 2
1 9 -6 6439.77 22.206 2
1 9 -5 5.73929 5.59139 2
1 9 -4 21662.5 54.2716 2
1 9 -3 2944.78 18.68 2
1 9 -2 69.501 4.47029 2
-1 -9 1 4765.31 19.5092 2
-1 9 0 36846 57.8101 2
-1 9 -1 163.021 5.13882 2
-1 9 -2 22163.9 45.2523 2
-1 9 -3 5869.54 25.4751 2
-1 9 -4 3431.25 29.7132 2
1 9 5 1574.42 12.2696 2
-1 9 -6 9483.63 34.6971 2
-1 9 -7 643.958 7.93572 2
1 9 8 884.955 9.35789 2
1 9 9 698.022 8.5262 2
1 -9 10 283.805 7.50358 2
1 9 11 10.6073 4.1803 2
-1 10 11 121.395 4.52079 2
-1 10 10 182.698 10.1145 2
1 -10 -9 257.551 6.79855 2
1 10 -8 2735.45 16.114 2
1 10 -7 386.963 7.25836 2
1 10 -6 2540.2 14.5116 2
1 10 -5 1034.86 11.452 2
1 10 -4 5095.15 28.4746 2
1 10 -3 462.006 9.58136 2
-1 -10 2 30765.4 66.6713 2
-1 -10 1 849.837 9.82089 2
-1 10 0 7038.29 32.6539 2
-1 10 -1 2764.67 13.8187 2
-1 10 -2 9119.07 25.965 2
-1 10 -3 609.519 9.78903 2
-1 10 -4 16794.8 47.065 2
1 10 5 1669.36 11.4711 2
-1 10 -6 1229.41 10.1353 2
-1 10 -7 526.007 7.37941 2
1 10 8 3064.8 15.5337 2
1 -10 9 73.311 5.72135 2
1 10 10 736.169 14.3983 2
-1 11 11 14.4638 3.0511 2
-1 11 10 62.4932 7.66856 2
1 -11 -9 3121.49 18.317 2
1 11 -8 137.095 6.97567 2
1 11 -7 5439 20.9704 2
1 11 -6 45.6766 5.24653 2
1 11 -5 705.706 8.92065 2
1 11 -4 527.612 12.276 2
1 11 -3 17252.3 47.6577 2
1 -11 -2 30.6801 7.1394 2
-1 -11 1 17897.3 45.676 2
-1 11 0 353.577 9.92447 2
-1 11 -1 6422.31 24.1804 2
-1 11 -2 111.813 5.81548 2
-1 11 -3 16287.6 44.3491 2
1 11 4 789.461 9.28906 2
1 11 5 11053.1 31.3435 2
-1 11 -6 795.663 9.16105 2
-1 11 -7 178.746 5.83809 2
1 11 8 110.441 5.22021 2
-1 11 -9 3168.68 19.3016 2
1 11 10 2.67562 4.71589 2
-1 12 11 281.222 9.56703 2
-1 12 10 15.6895 6.31104 2
1 -12 -9 480.183 8.82507 2
1 12 -8 2004.04 18.221 2
1 12 -7 404.56 7.31632 2
1 12 -6 1323.59 11.1452 2
1 12 -5 2333.26 15.1609 2
1 12 -4 2707.24 17.3182 2
1 -12 -3 643.239 12.1939 2
-1 -12 2 18750.1 58.2551 2
-1 -12 1 1215.38 15.3195 2
-1 12 0 2135.51 21.0641 2
-1 12 -1 6936.74 29.2764 2
-1 12 -2 5096.13 23.3638 2
-1 12 -3 214.82 7.12934 2
-1 12 -4 8824.13 28.4585 2
1 12 5 2045.61 14.4456 2
1 12 6 365.694 7.55992 2
-1 12 -7 1588.68 15.1784 2
1 12 8 2073.6 17.4451 2
1 12 9 30.0377 5.00487 2
1 12 10 1025.07 18.4562 2
-1 13 11 34.0349 5.48941 2
-1 13 10 1181.84 17.3908 2
-1 13 9 25.1589 4.77087 2
1 13 -8 271.151 9.50693 2
1 13 -7 352.239 7.01426 2
1 13 -6 5625.15 22.0001 2
1 13 -5 15.186 5.03999 2
1 13 -4 12861.3 28.3687 2
1 -13 -3 907.32 14.6069 2
-1 -13 2 98.9552 9.1671 2
-1 -13 1 1357.02 17.8674 2
1 13 0 24052.1 65.8194 2
-1 13 -1 235.647 8.09631 2
-1 13 -2 17325.7 49.0826 2
-1 13 -3 1787.76 13.9353 2
-1 13 -4 1561.49 13.2331 2
1 13 5 220.927 6.61891 2
1 13 6 5309.91 22.9368 2
-1 13 -7 580.625 10.5531 2
1 13 8 269.55 7.30377 2
1 13 9 69.9289 5.09377 2
-1 13 -10 406.179 8.0083 2
-1 14 10 7.80708 5.34705 2
1 -14 -9 671.524 9.30496 2
1 14 -8 117.975 7.46217 2
1 14 -7 423.434 9.87841 2
1 14 -6 527.004 8.62955 2
1 14 -5 9449.86 29.8293 2
1 14 -4 570.577 7.6798 2
1 -14 -3 4883.81 20.9142 2
1 14 -2 1147.67 15.5902 2
1 14 -1 8086 39.7169 2
1 14 0 750.172 13.3112 2
-1 14 -1 18991.7 52.6221 2
-1 14 -2 1548.22 11.5577 2
1 14 3 523.567 8.18046 2
1 14 4 671.346 10.1545 2
1 14 5 5048.54 21.2156 2
1 14 6 98.1534 5.63116 2
1 14 7 5946.85 32.4457 2
1 -14 8 592.13 9.09037 2
1 14 9 52.9739 4.64391 2
-1 14 -10 56.5537 10.4364 2
-1 15 10 631.512 10.0145 2
1 -15 -9 547.065 7.92231 2
1 15 -8 97.3613 7.02416 2
1 15 -7 2339.73 22.2706 2
1 15 -6 1636.27 13.7915 2
1 15 -5 6.87043 5.94362 2
1 15 -4 3187.85 18.534 2
1 -15 -3 6399.74 25.1898 2
1 15 -2 46.91 6.78486 2
1 15 -1 8719.02 48.2117 2
1 15 0 8032.71 29.5671 2
-1 15 -1 36.8389 5.32804 2
-1 15 -2 4582.6 18.1438 2
-1 15 -3 10338.4 27.3022 2
1 15 4 854.144 11.1738 2
1 15 5 1642.48 13.3676 2
1 15 6 2057.73 14.8734 2
1 15 7 780.826 12.9265 2
1 15 8 411.492 8.44487 2
-1 15 -9 880.594 8.61126 2
-1 15 -10 89.5122 9.14582 2
-1 16 10 38.3577 4.0371 2
-1 16 9 46.2948 5.34401 2
1 16 -8 1998.21 18.2163 2
1 16 -7 5.80453 6.46811 2
1 16 -6 2030 15.0108 2
1 16 -5 66.4098 6.6267 2
1 16 -4 2645.1 19.4604 2
1 16 -3 65.1466 6.36058 2
1 16 -2 18008.8 50.9688 2
1 16 -1 172.8 11.4813 2
-1 -16 0 2327.66 20.2421 2
-1 16 -1 97.7984 5.77997 2
-1 16 -2 9454.96 28.0339 2
-1 16 -3 1.52385 5.00942 2
1 16 4 6367.7 23.8452 2
1 16 5 229.404 7.11864 2
1 16 6 92.5213 5.69822 2
1 16 7 130.517 7.19242 2
-1 16 -8 2404.45 15.3127 2
-1 16 -9 15.1868 4.80159 2
-1 17 10 155.819 6.06373 2
1 -17 -9 709.01 9.60097 2
1 17 -8 2.22203 5.23921 2
1 17 -7 2778.14 22.62 2
1 17 -6 790.671 12.1524 2
1 -17 -5 21.9626 7.20751 2
1 17 -4 1749.79 15.9881 2
1 -17 -3 9363.83 32.1855 2
1 -17 -2 20.1512 7.02742 2
1 17 -1 7987.9 43.8406 2
-1 -17 0 3175.6 26.1152 2
-1 17 -1 441.425 7.59025 2
-1 17 -2 1517.36 12.6756 2
-1 17 -3 10165.9 28.1704 2
1 17 4 65.6992 5.75827 2
1 17 5 3104.04 17.9757 2
1 17 6 1001.45 10.83 2
-1 17 -7 447.374 8.49263 2
-1 17 -8 87.5062 5.19252 2
-1 17 -9 1022.01 14.2896 2
-1 18 9 1033.44 13.0957 2
1 -18 -8 450.358 10.1312 2
1 18 -7 257.945 8.88072 2
1 18 -6 562.72 16.0237 2
1 18 -5 3971.67 24.0894 2
1 18 -4 702.118 11.0932 2
1 18 -3 1033.05 14.9412 2
1 -18 -2 4313.24 24.6372 2
1 18 -1 1403.34 19.5546 2
-1 -18 0 1795.08 20.7304 2
-1 18 -1 8147.88 28.2276 2
-1 18 -2 2924.84 17.6157 2
-1 18 -3 418.317 7.37534 2
1 18 4 1944.44 14.9 2
1 18 5 5363.55 23.4716 2
-1 18 -6 3.07463 4.98777 2
-1 18 -7 1520.69 14.1185 2
-1 18 -8 575.653 10.3707 2
-1 18 -9 5.95881 5.69627 2
-1 19 9 26.8198 4.51895 2
1 -19 -8 159.591 5.05844 2
1 19 -7 10.0964 5.66358 2
1 19 -6 1366.04 21.7832 2
1 19 -5 110.749 10.6085 2
1 19 -4 8190.99 35.7254 2
1 19 -3 1289.58 17.9173 2
1 -19 -2 24.9658 5.96862 2
-1 -19 1 1771.32 24.2974 2
-1 -19 0 19494.5 68.3489 2
-1 -19 -1 207.846 9.66428 2
-1 19 -2 3992.95 21.5746 2
-1 19 -3 19.1408 5.82673 2
1 19 4 954.08 11.0789 2
1 19 5 17.9854 5.03817 2
-1 19 -6 4836.06 21.169 2
-1 19 -7 24.9313 6.64128 2
-1 19 -8 443.882 8.37574 2
-1 20 9 278.657 5.97815 2
1 -20 -8 638.444 7.5746 2
1 20 -7 526.264 9.33096 2
1 20 -6 476.542 14.0145 2
1 20 -5 3284.32 33.0935 2
1 20 -4 88.757 8.45537 2
1 20 -3 835.896 13.0406 2
1 20 -2 4609.26 30.9023 2
1 -20 -1 3026.45 24.8281 2
-1 -20 0 161.561 11.4479 2
-1 -20 -1 7069.67 35.5434 2
-1 20 -2 2241.13 19.0182 2
-1 20 -3 1037.5 11.0716 2
1 20 4 2685.61 15.7814 2
1 20 5 1820.45 13.6778 2
-1 20 -6 16.1761 4.33555 2
-1 20 -7 1527.24 16.1407 2
-1 20 -8 427.735 7.30825 2
-1 21 8 20.4599 4.20325 2
1 -21 -7 3110.11 19.7435 2
1 -21 -6 185.028 10.2995 2
1 -21 -5 26.8143 8.61849 2
-1 21 4 304.791 8.8871 2
1 21 -3 1795.57 15.7221 2
1 21 -2 6.88438 8.19976 2
1 -21 -1 1622.38 17.0694 2
-1 -21 0 779.832 14.0591 2
-1 -21 -1 336.65 11.1101 2
-1 -21 -2 574.223 14.0707 2
-1 21 -3 8789.4 33.1358 2
1 21 4 100.779 5.39506 2
1 21 5 1851.34 15.3657 2
-1 21 -6 320.765 7.7196 2
-1 21 -7 242.4 8.52982 2
-1 22 8 1063.34 10.9373 2
-1 22 7 8.70178 4.22626 2
1 -22 -6 1147.64 13.8431 2
1 -22 -5 336.018 12.1498 2
1 -22 -4 837.018 11.958 2
1 -22 -3 19.1953 8.68307 2
1 22 -2 14310 65.4086 2
-1 -22 1 138.926 8.89767 2
-1 -22 0 771.021 13.4865 2
-1 -22 -1 541.301 12.5895 2
1 22 2 3818.58 27.3551 2
-1 -22 -3 23.2206 7.1199 2
1 22 4 4017.93 27.9309 2
1 22 5 45.3475 6.85319 2
-1 22 -6 41.3747 6.87947 2
-1 -22 -7 91.9545 6.83249 2
-1 23 7 901.945 11.9999 2
1 -23 -6 569.756 9.53663 2
1 -23 -5 6.91699 7.06472 2
1 -23 -4 2013.91 23.7144 2
-1 23 3 1938.03 16.8158 2
1 23 -2 11.0574 8.99648 2
1 23 -1 2255.61 18.3471 2
1 23 0 4128.21 30.6237 2
1 23 1 158.208 10.5241 2
1 23 2 1747.14 14.6297 2
-1 23 -3 3604.6 24.6337 2
1 23 4 686.483 14.746 2
-1 -23 -5 670.224 17.0552 2
-1 -23 -6 1311.78 18.9759 2
1 23 7 102.731 4.76269 2
-1 24 7 93.0287 5.96362 2
-1 24 6 26.0594 4.05706 2
1 -24 -5 3127.61 24.4567 2
1 24 -4 158.509 9.51122 2
-1 24 3 895.369 12.0129 2
-1 24 2 251.71 9.37465 2
1 24 -1 1313.67 15.7029 2
-1 24 0 101.303 8.3277 2
1 -24 1 6669.94 26.2194 2
-1 -24 -2 81.8232 6.88195 2
1 24 3 253.603 9.45702 2
1 24 4 112.66 8.42633 2
-1 -24 -5 1710.17 22.9341 2
-1 -24 -6 7.51005 5.05328 2
-1 25 6 829.187 13.7266 2
1 -25 -5 27.4207 6.64656 2
1 -25 -4 2402.45 29.2894 2
-1 25 3 500.081 10.7232 2
1 -25 -2 92.8522 5.67183 2
1 25 -1 395.913 10.0694 2
-1 25 0 4384.39 20.3778 2
1 25 1 92.4039 7.29223 2
1 25 2 1663.3 14.4217 2
1 25 3 874.579 12.8146 2
1 25 4 322.947 9.22825 2
-1 -25 -5 199.801 6.53289 2
1 26 -6 234.704 5.71992 2
1 26 -5 754.393 11.3418 2
1 -26 -4 646.716 9.29946 2
-1 26 3 229.824 6.9825 2
-1 26 2 2421.56 13.7393 2
1 26 -1 281.065 8.5101 2
-1 26 0 900.89 10.5662 2
1 26 1 1761.5 12.4293 2
1 26 2 1429.61 15.5684 2
1 26 3 32.8289 6.51654 2
1 26 4 1394.01 14.7895 2
1 26 5 181.04 6.50615 2
-1 27 5 8.01362 3.35131 2
1 27 -4 -1.14966 8.91949 2
1 27 -3 2067.56 17.8013 2
1 27 -2 1.92225 4.84764 2
1 27 -1 2637.29 15.9964 2
1 27 0 7.09124 5.1607 2
1 27 1 102.692 5.90846 2
1 27 2 73.9069 5.13443 2
1 27 3 1516.05 12.5804 2
-1 27 -4 2.60313 3.29084 2
1 -28 -3 359.997 7.92071 2
1 28 -2 1863.73 21.7213 2
1 28 -1 463.449 7.4736 2
1 28 0 491.494 7.70385 2
1 28 1 857.714 10.6105 2
1 28 2 1095.42 10.5411 2
-1 -28 -3 72.1804 4.43781 2
1 29 -2 2.68367 4.97169 2
-1 -29 1 28.375 4.42227 2
1 29 0 1176.89 10.5771 2
1 29 1 61.1834 3.58012 2
2 0 -10 717.821 19.9103 2
2 0 -8 662.29 16.8967 2
2 0 -6 3012.47 21.9798 2
2 0 -4 49108.6 117.928 2
2 0 -2 9418.86 45.7234 2
2 0 0 9733.03 110.362 2
-2 0 -2 15526.2 81.8321 2
2 0 4 31.5279 6.62 2
-2 0 -6 9794.74 43.7139 2
2 0 8 4827.51 24.7638 2
2 0 10 351.226 14.1318 2
3 0 -10 20.0891 13.3995 2
3 0 -8 947.935 25.0118 2
-3 0 6 13079.2 45.7972 2
3 0 -4 2121.74 9.56115 2
3 0 -2 5711.18 19.3464 2
3 0 0 10836.2 38.7728 2
3 0 2 60.236 5.05084 2
3 0 4 9827.09 39.3942 2
3 0 6 4436.32 27.489 2
3 0 8 713.611 19.8134 2
3 -1 -10 57.3978 13.4225 2
3 1 -9 30.4582 6.52134 2
3 1 -8 460.427 14.1378 2
3 1 -7 2051.79 15.426 2
3 1 -6 169.574 7.45226 2
3 -1 -5 1903.14 10.2819 2
3 -1 -4 2118.77 7.19169 2
3 -1 -3 540.818 4.10941 2
3 -1 -2 1437.98 7.61503 2
3 -1 -1 10781.8 21.4978 2
3 -1 0 2738.67 14.4695 2
3 -1 1 3187.37 10.8014 2
3 -1 2 4452.5 12.8477 2
3 -1 3 2539.15 13.2337 2
3 1 4 242.952 7.53018 2
3 1 5 4147.42 22.1018 2
3 1 6 947.331 10.7871 2
3 -1 7 354.157 7.21482 2
3 -1 8 1247.98 24.3767 2
3 -1 9 1373.08 17.3329 2
3 -2 -10 48.0294 8.03766 2
3 2 -9 1350.4 16.3295 2
3 2 -8 20.3059 9.01266 2
3 2 -7 447.825 9.15477 2
3 2 -6 589.467 8.35492 2
3 -2 -5 2348.27 10.1085 2
3 -2 -4 43.9263 3.21158 2
3 -2 -3 7396.73 12.3616 2
3 -2 -2 1135.47 6.8319 2
3 -2 -1 745.157 6.16937 2
3 -2 0 2172.22 9.13592 2
3 -2 1 7224.53 16.9952 2
3 -2 2 175.578 4.6193 2
3 -2 3 6991.6 17.7284 2
3 2 4 466.946 7.10377 2
3 2 5 110.969 5.81415 2
3 2 6 286.619 6.89761 2
3 -2 7 3007.79 17.2667 2
3 -2 8 1.51634 7.4214 2
3 2 9 1002.14 10.537 2
3 -3 -10 244.765 9.70396 2
3 3 -9 2.23827 5.74003 2
3 3 -8 1552.97 16.0651 2
3 -3 -7 232.725 9.66676 2
3 -3 -6 538.314 7.2673 2
3 -3 -5 11.2183 3.87956 2
3 -3 -4 13322.2 17.8504 2
3 -3 -3 17.4244 3.22914 2
3 -3 -2 5220.25 12.9353 2
3 -3 -1 153.561 3.81891 2
3 -3 0 1661.85 7.68994 2
3 -3 1 40.8562 3.38099 2
3 -3 2 11312.9 20.3614 2
3 -3 3 193.333 4.74142 2
3 3 4 1277.93 8.81975 2
3 3 5 84.716 5.0392 2
3 -3 6 4756.03 22.8281 2
3 -3 7 1.48884 4.81455 2
3 -3 8 3555.29 22.8472 2
3 3 9 24.863 3.646 2
3 -4 -10 77.8233 7.66232 2
3 4 -9 478.561 8.76875 2
3 4 -8 268.426 9.85711 2
3 -4 -7 303.85 9.42335 2
3 -4 -6 2547.33 13.4894 2
3 -4 -5 653.377 6.90027 2
3 4 -4 1689.02 7.9272 2
3 4 -3 6277.56 14.0058 2
3 -4 -2 4690.8 11.8547 2
3 -4 -1 115.405 3.81178 2
3 -4 0 3082.94 10.5701 2
3 -4 1 6741.08 15.4888 2
3 -4 2 129.365 4.31341 2
3 -4 3 4473.08 16.0844 2
3 4 4 2765.83 14.1981 2
3 4 5 15.2323 5.63767 2
3 4 6 1296.52 13.5894 2
3 -4 7 2188 14.8276 2
3 -4 8 35.6133 5.92109 2
3 -4 9 127.522 6.93202 2
3 -5 -10 13.5433 6.7442 2
3 5 -9 6.79073 4.91966 2
3 5 -8 86.5802 8.93755 2
3 5 -7 2459.56 18.6262 2
-3 -5 6 30.1796 6.48964 2
3 -5 -5 2616.07 13.3579 2
3 -5 -4 324.336 5.37546 2
3 5 -3 850.386 6.53982 2
3 -5 -2 469.702 5.02633 2
3 -5 -1 13701.1 19.9278 2
3 -5 0 29.0342 3.60455 2
3 5 1 5183.13 12.7469 2
3 5 2 516.767 5.83194 2
3 5 3 3456.36 13.6527 2
3 5 4 17.678 4.63388 2
3 5 5 11243.2 39.5165 2
3 5 6 14.1265 5.74985 2
3 -5 7 249.157 6.4462 2
3 -5 8 17.041 4.04835 2
3 -6 -10 170.38 8.15737 2
3 -6 -9 164.636 7.76499 2
3 6 -8 624.739 12.7966 2
3 6 -7 185.801 8.25296 2
3 6 -6 4429.08 21.8774 2
3 -6 -5 276.395 7.91298 2
3 -6 -4 171.082 5.10304 2
3 -6 -3 1305.36 6.84595 2
3 -6 -2 9463.96 16.5232 2
3 -6 -1 712.667 5.07856 2
3 6 0 10316.2 19.1453 2
3 6 1 870.03 6.72887 2
3 6 2 85.0975 4.15294 2
3 6 3 698.692 7.98839 2
3 6 4 8093.76 23.2299 2
3 6 5 127.575 6.96353 2
3 6 6 1904.54 18.0915 2
3 -6 7 175.532 6.03948 2
3 -6 8 142.845 4.90893 2
3 -7 -10 117.87 8.51 2
3 -7 -9 2.62954 5.96668 2
3 7 -8 522.282 9.79541 2
3 7 -7 597.766 9.25364 2
3 7 -6 156.35 9.97536 2
3 7 -5 1247.85 13.9165 2
3 7 -4 5332.97 17.7525 2
3 -7 -3 245.669 4.49135 2
3 -7 -2 3953.15 11.4445 2
3 7 -1 5393.2 11.8474 2
3 7 0 2219.21 10.1215 2
3 7 1 981.478 6.8023 2
3 7 2 4716.78 14.7078 2
3 7 3 102.926 4.64648 2
3 7 4 153.122 5.42337 2
3 7 5 1121.15 11.3568 2
3 7 6 1080.62 13.8024 2
3 7 7 53.4046 4.88417 2
3 -7 8 1481.31 15.0004 2
3 8 -9 878.142 12.6805 2
3 8 -8 5.30384 6.12254 2
3 8 -7 582.952 9.25945 2
3 8 -6 17.8533 8.78695 2
3 8 -5 3016.15 19.3926 2
3 -8 -4 203.291 6.6915 2
3 8 -3 5792.72 16.314 2
3 -8 -2 29.5507 3.76134 2
3 8 -1 19.7279 3.5075 2
3 8 0 46.2075 4.5508 2
3 8 1 8893.55 17.8167 2
3 8 2 126.983 4.22965 2
3 8 3 11290.6 23.2657 2
3 8 4 557.884 7.52227 2
3 8 5 22.6569 4.91792 2
3 8 6 5.30819 5.43209 2
3 -8 7 3190.27 21.1595 2
3 -8 8 3.21617 3.57471 2
3 -9 -9 11.2621 7.04196 2
3 9 -8 1030.99 11.3022 2
3 9 -7 338.461 7.72538 2
3 9 -6 41.7017 9.08689 2
3 9 -5 871.648 10.6577 2
3 9 -4 5232.01 21.2363 2
3 9 -3 235.134 6.33453 2
3 -9 -2 4537.8 12.4836 2
3 9 -1 2353.95 8.59288 2
3 9 0 1782.69 9.27724 2
3 9 1 930.054 7.06609 2
3 9 2 10289.5 22.1715 2
3 9 3 597.978 7.12286 2
3 9 4 792.158 9.60033 2
3 9 5 981.174 10.4618 2
3 9 6 1535.54 13.3724 2
3 -9 7 21.9293 3.75971 2
3 -9 8 775.875 15.2854 2
3 -10 -9 119 7.80804 2
3 -10 -8 345.476 10.5214 2
3 10 -7 55.0649 5.82606 2
3 10 -6 3213.4 24.4781 2
3 10 -5 347.555 10.7227 2
3 -10 -4 638.254 8.38516 2
3 -10 -3 936.938 9.74328 2
3 -10 -2 3451.53 11.8456 2
3 10 -1 21.6022 3.5094 2
3 10 0 8715.37 19.6975 2
3 10 1 1213.51 8.8662 2
3 10 2 625.588 7.48214 2
3 -10 3 407.543 7.41477 2
3 10 4 5069.93 19.7134 2
3 10 5 54.3857 5.35821 2
3 -10 6 1674.04 13.9043 2
3 -10 7 711.495 9.5862 2
3 -10 8 216.835 5.66571 2
3 -11 -9 1.77786 5.72028 2
3 -11 -8 23.7486 7.69681 2
3 11 -7 1750.16 12.8294 2
3 11 -6 1.299 6.71161 2
3 11 -5 2166.46 18.587 2
3 -11 -4 18.228 4.66431 2
3 -11 -3 1393.32 11.0122 2
3 -11 -2 22.5992 4.20699 2
3 11 -1 7099.93 15.7937 2
3 11 0 259.269 5.83394 2
3 11 1 4681.68 17.2305 2
3 11 2 801.648 8.20833 2
3 -11 3 1131.7 10.4931 2
3 11 4 177.812 7.92229 2
3 11 5 6154.35 22.7518 2
3 11 6 15.5681 5.17715 2
3 11 7 102.218 4.42071 2
3 -11 8 -0.37123 2.93157 2
3 -12 -9 228.813 7.8045 2
3 -12 -8 258.08 9.43045 2
3 -12 -7 70.5746 5.88574 2
3 12 -6 2079.77 19.0764 2
3 12 -5 537.066 11.2458 2
3 -12 -4 212.212 5.95276 2
3 -12 -3 2138.46 12.6206 2
3 12 -2 1975.85 11.7584 2
3 12 -1 14.1158 4.3856 2
3 12 0 3600.14 15.0697 2
3 12 1 1688.46 12.3244 2
3 12 2 671.947 7.86733 2
3 -12 3 966.853 10.1523 2
3 12 4 3974.78 22.8285 2
3 12 5 51.4805 5.25696 2
3 12 6 2110.78 16.4117 2
3 -12 7 980.572 11.3497 2
3 -13 -9 0.11346 4.28719 2
3 -13 -8 759.587 11.5876 2
3 -13 -7 82.0135 5.58967 2
3 -13 -6 48.217 7.68716 2
3 13 -5 249.812 9.10519 2
3 -13 -4 3639.26 16.3886 2
3 -13 -3 16.3756 5.24995 2
3 13 -2 3082.44 16.6653 2
3 13 -1 283.564 5.98329 2
3 13 0 1048.19 9.12574 2
3 13 1 222.887 6.67017 2
3 13 2 5017.7 18.9398 2
3 -13 3 539.723 9.09095 2
3 13 4 202.703 7.19746 2
3 13 5 264.444 6.15295 2
3 13 6 1531.55 13.1064 2
3 -13 7 13.8109 3.00602 2
3 -14 -8 38.4839 9.80334 2
3 -14 -7 292.924 6.68361 2
3 -14 -6 184.542 8.59768 2
3 -14 -5 985.88 20.0182 2
3 -14 -4 30.879 5.4846 2
3 -14 -3 2843.84 16.1527 2
3 14 -2 199.762 6.41371 2
3 14 -1 68.8227 6.07115 2
3 14 0 288.903 6.93199 2
3 14 1 4774.41 18.7903 2
3 14 2 85.9466 5.15508 2
3 -14 3 6805.4 24.7952 2
3 14 4 1481.89 13.0167 2
3 14 5 280.479 6.78913 2
3 14 6 115.502 5.00924 2
3 -14 7 2826.51 20.382 2
3 -15 -8 147.062 9.89674 2
3 -15 -7 558.222 7.45163 2
3 -15 -6 30.6949 6.52986 2
3 -15 -5 1176.86 15.5855 2
3 -15 -4 1367.32 11.1528 2
3 -15 -3 12.0871 4.9238 2
3 -15 -2 854.894 9.05946 2
3 15 -1 2350.41 17.4401 2
3 15 0 798.032 10.478 2
3 15 1 563.464 7.74879 2
3 15 2 1608.85 12.0917 2
3 -15 3 931.005 10.3054 2
3 15 4 229.729 6.65775 2
3 15 5 2114.98 13.5636 2
3 15 6 522.696 12.1527 2
3 -15 7 87.9792 6.54078 2
3 -16 -8 184.647 9.11823 2
3 -16 -7 7.94532 3.76845 2
3 -16 -6 2073.37 15.3108 2
3 -16 -5 5.12903 6.57589 2
3 -16 -4 176.696 6.15709 2
3 -16 -3 5.87643 4.69989 2
3 -16 -2 2999.63 17.3414 2
3 16 -1 2.85792 5.06568 2
3 16 0 2526.87 18.4868 2
3 16 1 91.4361 6.26319 2
3 16 2 28.87 5.10035 2
3 -16 3 115.059 7.80134 2
3 16 4 4023.45 18.1214 2
3 16 5 17.7022 4.12659 2
3 -16 6 1208.14 15.7208 2
3 -17 -7 1155.53 11.5991 2
3 -17 -6 14.8218 4.69957 2
3 -17 -5 686.694 11.3487 2
3 -17 -4 642.555 8.92694 2
3 -17 -3 198.73 5.72566 2
3 -17 -2 228.301 6.90956 2
3 17 -1 3200.75 16.7569 2
3 17 0 87.7644 7.49293 2
3 17 1 1805.65 13.1692 2
3 17 2 817.189 9.25703 2
3 -17 3 1194.72 14.7377 2
3 17 4 14.8516 4.91334 2
3 17 5 2512.31 15.1172 2
3 -17 6 139.735 8.03193 2
3 -18 -7 159.469 6.68653 2
3 -18 -6 427.187 6.67919 2
3 -18 -5 273.106 7.964 2
3 -18 -4 219.962 6.33147 2
3 -18 -3 1372.92 11.0454 2
3 -18 -2 890.812 8.91824 2
3 18 -1 21.2806 5.08212 2
3 18 0 902.048 10.4382 2
3 18 1 3838.35 19.6736 2
3 18 2 9.74469 4.70184 2
3 -18 3 1907.06 16.2188 2
3 18 4 713.592 8.51609 2
3 18 5 18.6981 3.78101 2
3 -19 -6 10.7433 3.10709 2
3 -19 -5 159.308 7.75632 2
3 -19 -4 3133.63 14.3839 2
3 -19 -3 55.8176 4.96033 2
3 -19 -2 1204.41 9.3885 2
3 19 -1 5.46794 4.86263 2
3 19 0 749.647 9.83446 2
3 19 1 11.9356 4.34947 2
3 19 2 4478.28 18.5851 2
3 -19 3 46.0921 7.1726 2
3 19 4 431.018 6.70143 2
3 -19 5 70.0206 4.95442 2
3 -20 -6 458.509 6.00405 2
3 -20 -5 830.381 12.9723 2
3 -20 -4 40.4338 5.66037 2
3 -20 -3 1403.83 10.8249 2
3 -20 -2 897.531 7.7726 2
3 -20 -1 193.55 5.58769 2
3 20 0 1155.22 9.87082 2
3 20 1 1548.79 10.073 2
3 -20 2 39.0775 4.8708 2
3 20 3 1404.86 20.1725 2
3 -20 4 610.349 9.67338 2
3 -21 -5 328.462 8.86161 2
3 -21 -4 279.946 7.5608 2
3 21 -3 249.046 5.63635 2
3 -21 -2 100.151 5.21131 2
3 -21 -1 2979.07 15.4232 2
3 21 0 73.3178 6.41375 2
3 21 1 792.738 8.28926 2
3 -21 2 336.527 8.71065 2
3 21 3 459.227 10.3247 2
3 21 4 6.76631 5.55993 2
3 -22 -5 122.04 5.38605 2
3 -22 -4 143.527 7.28587 2
3 22 -3 107.255 5.4313 2
3 -22 -2 1296.26 9.35201 2
3 -22 -1 8.42053 4.13147 2
3 -22 0 1990.86 13.4811 2
3 22 1 58.0119 4.71859 2
3 -22 2 11.526 4.91207 2
3 -22 3 57.046 4.59012 2
3 -23 -4 852 10.5653 2
3 23 -3 70.5538 4.12728 2
3 -23 -2 431.904 6.77148 2
3 -23 -1 1371.75 12.5188 2
3 23 0 531.793 7.03738 2
3 23 1 342.015 7.39112 2
3 -23 2 956.438 9.21437 2
3 -24 -3 1392.56 12.302 2
3 -24 -2 6.62819 4.26336 2
3 -24 -1 44.4367 5.46515 2
3 -24 0 31.6783 5.42011 2
3 -24 1 1103.67 8.80459 2
5 -1 0 63.455 14.32 2
5 -1 1 778.402 14.0098 2
5 -2 0 124.546 14.2974 2
5 -2 1 95.1828 12.4505 2
5 -3 0 42.1385 9.09501 2
5 -3 1 41.3312 10.7946 2
5 -4 -2 23.8192 11.2276 2
5 -4 0 394.024 11.1854 2
5 -4 1 -0.9327 9.62587 2
5 -5 -2 20.9796 9.78731 2
5 -5 0 -8.18854 8.12146 2
5 -6 -2 3.42284 8.40356 2
0 0 2 69908.2 148.504 -2
0 0 -2 69908.2 148.504 1
0 0 4 16721.3 80.3474 -2
0 0 -4 16721.3 80.3474 1
0 0 -6 20918.6 98.1053 -2
0 0 6 20918.6 98.1053 1
0 0 -8 127.323 10.1884 -2
0 0 8 127.323 10.1884 1
0 0 10 7774.07 58.4215 -2
0 0 -10 7774.07 58.4215 1
0 0 -12 1879.59 19.7378 -2
0 0 12 1879.59 19.7378 1
0 -1 1 33851.2 51.0148 -2
0 1 -1 33851.2 51.0148 1
0 1 -2 38067.3 71.8748 -2
0 -1 2 38067.3 71.8748 1
0 1 3 611.937 12.1856 -2
0 -1 -3 611.937 12.1856 1
0 1 4 8362.31 43.5768 -2
0 -1 -4 8362.31 43.5768 1
0 -1 -5 52563.8 117.191 -2
0 1 5 52563.8 117.191 1
0 -1 -6 4618.31 34.5624 -2
0 1 6 4618.31 34.5624 1
0 1 7 9639.76 34.8365 -2
0 -1 -7 9639.76 34.8365 1
0 -1 8 6360.32 31.1556 -2
0 1 -8 6360.32 31.1556 1
0 -1 -9 1155.38 15.0122 -2
0 1 9 1155.38 15.0122 1
0 1 10 76.4058 8.60498 -2
0 -1 -10 76.4058 8.60498 1
0 1 11 2480.07 22.7273 -2
0 -1 -11 2480.07 22.7273 1
0 -1 -12 346.706 9.27145 -2
0 1 12 346.706 9.27145 1
0 2 0 2226.96 10.1548 -2
0 -2 0 2226.96 10.1548 1
0 2 1 16909.5 30.7223 -2
0 -2 -1 16909.5 30.7223 1
0 -2 -2 3796.78 21.0474 -2
0 2 2 3796.78 21.0474 1
0 2 -3 135180 159.595 -2
0 -2 3 135180 159.595 1
0 -2 4 2273.3 24.0814 -2
0 2 -4 2273.3 24.0814 1
0 -2 5 14436.9 56.9007 -2
0 2 -5 14436.9 56.9007 1
0 2 6 12358.6 56.26 -2
0 -2 -6 12358.6 56.26 1
0 2 -7 11278.3 35.3119 -2
0 -2 7 11278.3 35.3119 1
0 -2 -8 21.4622 6.25896 -2
0 2 8 21.4622 6.25896 1
0 -2 -9 8504.64 35.3538 -2
0 2 9 8504.64 35.3538 1
0 -2 10 477.876 12.5453 -2
0 2 -10 477.876 12.5453 1
0 2 -11 131.409 9.86461 -2
0 -2 11 131.409 9.86461 1
0 2 -12 115.47 7.08826 -2
0 -2 12 115.47 7.08826 1
0 3 -1 110.002 5.11989 -2
0 -3 1 110.002 5.11989 1
0 -3 -2 220168 145.466 -2
0 3 2 220168 145.466 1
0 -3 3 3576.99 22.4817 -2
0 3 -3 3576.99 22.4817 1
0 3 4 33258.5 76.4747 -2
0 -3 -4 33258.5 76.4747 1
0 3 5 466.432 12.028 -2
0 -3 -5 466.432 12.028 1
0 3 6 1070.18 19.2383 -2
0 -3 -6 1070.18 19.2383 1
0 -3 7 361.635 8.6124 -2
0 3 -7 361.635 8.6124 1
0 -3 -8 15623.2 48.4219 -2
0 3 8 15623.2 48.4219 1
0 -3 -9 123.032 7.94423 -2
0 3 9 123.032 7.94423 1
0 3 10 2323.75 23.6298 -2
0 -3 -10 2323.75 23.6298 1
0 3 11 56.4844 8.30128 -2
0 -3 -11 56.4844 8.30128 1
0 3 12 1016.49 10.8198 -2
0 -3 -12 1016.49 10.8198 1
0 4 0 72733.2 105.176 -2
0 -4 0 72733.2 105.176 1
0 -4 -1 12722.6 33.4897 -2
0 4 1 12722.6 33.4897 1
0 -4 -2 43986.4 65.778 -2
0 4 2 43986.4 65.778 1
0 4 -3 65983.6 92.7661 -2
0 -4 3 65983.6 92.7661 1
0 -4 4 19159.7 60.1686 -2
0 4 -4 19159.7 60.1686 1
0 4 -5 2098.47 23.5518 -2
0 -4 5 2098.47 23.5518 1
0 -4 6 13389.8 56.9426 -2
0 4 -6 13389.8 56.9426 1
0 4 -7 10661.9 38.4066 -2
0 -4 7 10661.9 38.4066 1
0 4 8 83.4077 7.10857 -2
0 -4 -8 83.4077 7.10857 1
0 -4 9 4313.65 30.7647 -2
0 4 -9 4313.65 30.7647 1
0 4 10 2707.14 35.5773 -2
0 -4 -10 2707.14 35.5773 1
0 4 -11 14.5653 9.58966 -2
0 -4 11 14.5653 9.58966 1
0 4 12 380.461 11.106 -2
0 -4 -12 380.461 11.106 1
0 5 -1 84709.4 93.6929 -2
0 -5 1 84709.4 93.6929 1
0 5 2 836.173 12.4882 -2
0 -5 -2 836.173 12.4882 1
0 -5 -3 13092.2 42.7113 -2
0 5 3 13092.2 42.7113 1
0 -5 -4 3563.25 27.3382 -2
0 5 4 3563.25 27.3382 1
0 -5 5 55240.3 116.056 -2
0 5 -5 55240.3 116.056 1
0 5 -6 546.687 8.72095 -2
0 -5 6 546.687 8.72095 1
0 5 -7 13279.3 41.2303 -2
0 -5 7 13279.3 41.2303 1
0 -5 -8 1465.51 15.5102 -2
0 5 8 1465.51 15.5102 1
0 5 -9 1717.1 18.6654 -2
0 -5 9 1717.1 18.6654 1
0 5 -10 29.4289 11.9827 -2
0 -5 10 29.4289 11.9827 1
0 5 -11 4184.16 38.5479 -2
0 -5 11 4184.16 38.5479 1
0 -6 0 117030 145.386 -2
0 6 0 117030 145.386 1
0 -6 1 7602.17 30.024 -2
0 6 -1 7602.17 30.024 1
0 6 2 27795.7 60.7256 -2
0 -6 -2 27795.7 60.7256 1
0 6 -3 19978.4 55.0841 -2
0 -6 3 19978.4 55.0841 1
0 6 4 53407.3 101.49 -2
0 -6 -4 53407.3 101.49 1
0 -6 -5 3090.76 29.4546 -2
0 6 5 3090.76 29.4546 1
0 6 -6 27176.9 56.2256 -2
0 -6 6 27176.9 56.2256 1
0 -6 7 1867.35 16.1028 -2
0 6 -7 1867.35 16.1028 1
0 -6 -8 959.804 13.4891 -2
0 6 8 959.804 13.4891 1
0 -6 -9 349.716 12.8208 -2
0 6 9 349.716 12.8208 1
0 6 10 3651.56 42.5765 -2
0 -6 -10 3651.56 42.5765 1
0 6 11 45.3945 7.44379 -2
0 -6 -11 45.3945 7.44379 1
0 7 1 18443.3 52.5549 -2
0 -7 -1 18443.3 52.5549 1
0 7 -2 31579.9 68.893 -2
0 -7 2 31579.9 68.893 1
0 7 -3 37.0965 7.04434 -2
0 -7 3 37.0965 7.04434 1
0 -7 4 29111.2 77.727 -2
0 7 -4 29111.2 77.727 1
0 -7 -5 16987 65.566 -2
0 7 5 16987 65.566 1
0 7 -6 3915.31 21.8413 -2
0 -7 6 3915.31 21.8413 1
0 -7 7 6564.28 29.1769 -2
0 7 -7 6564.28 29.1769 1
0 -7 8 9909 46.0517 -2
0 7 -8 9909 46.0517 1
0 7 9 108.768 11.0331 -2
0 -7 -9 108.768 11.0331 1
0 7 10 648.435 20.6276 -2
0 -7 -10 648.435 20.6276 1
0 7 -11 978.874 14.4393 -2
0 -7 11 978.874 14.4393 1
0 -8 0 76.3153 10.413 -2
0 8 0 76.3153 10.413 1
0 -8 1 66588.6 100.294 -2
0 8 -1 66588.6 100.294 1
0 8 -2 10331.7 42.3623 -2
0 -8 2 10331.7 42.3623 1
0 -8 -3 48349.3 87.235 -2
0 8 3 48349.3 87.235 1
0 -8 -4 61.3819 8.42177 -2
0 8 4 61.3819 8.42177 1
0 8 -5 2008.67 24.2597 -2
0 -8 5 2008.67 24.2597 1
0 8 -6 922.254 11.6666 -2
0 -8 6 922.254 11.6666 1
0 -8 7 11361.7 43.6632 -2
0 8 -7 11361.7 43.6632 1
0 -8 -8 1358.56 17.6254 -2
0 8 8 1358.56 17.6254 1
0 8 9 15073.6 63.9322 -2
0 -8 -9 15073.6 63.9322 1
0 8 10 402.351 13.5522 -2
0 -8 -10 402.351 13.5522 1
0 8 11 62.8446 5.69294 -2
0 -8 -11 62.8446 5.69294 1
0 -9 -1 11187.2 44.7227 -2
0 9 1 11187.2 44.7227 1
0 -9 2 101987 160.061 -2
0 9 -2 101987 160.061 1
0 9 -3 16.7836 6.8317 -2
0 -9 3 16.7836 6.8317 1
0 9 4 40381.3 93.2086 -2
0 -9 -4 40381.3 93.2086 1
0 9 -5 7927.67 47.4774 -2
0 -9 5 7927.67 47.4774 1
0 9 -6 4932.23 27.4549 -2
0 -9 6 4932.23 27.4549 1
0 9 -7 2342.79 21.2967 -2
0 -9 7 2342.79 21.2967 1
0 -9 8 11018.4 47.2445 -2
0 9 -8 11018.4 47.2445 1
0 -9 -9 798.12 17.4775 -2
0 9 9 798.12 17.4775 1
0 9 -10 918.303 17.6698 -2
0 -9 10 918.303 17.6698 1
0 9 11 706.799 10.1427 -2
0 -9 -11 706.799 10.1427 1
0 -10 0 97710.1 197.208 -2
0 10 0 97710.1 197.208 1
0 10 1 1610.65 18.1703 -2
0 -10 -1 1610.65 18.1703 1
0 10 -2 21457.9 72.9413 -2
0 -10 2 21457.9 72.9413 1
0 10 -3 4794.57 34.1464 -2
0 -10 3 4794.57 34.1464 1
0 -10 4 15416.6 48.4657 -2
0 10 -4 15416.6 48.4657 1
0 -10 -5 1732.65 19.726 -2
0 10 5 1732.65 19.726 1
0 -10 -6 21364.2 59.6931 -2
0 10 6 21364.2 59.6931 1
0 -10 7 1883.44 19.3019 -2
0 10 -7 1883.44 19.3019 1
0 10 -8 1366.91 19.2281 -2
0 -10 8 1366.91 19.2281 1
0 10 9 733.804 14.1201 -2
0 -10 -9 733.804 14.1201 1
0 10 10 2658.4 21.3125 -2
0 -10 -10 2658.4 21.3125 1
0 10 11 84.5434 7.22998 -2
0 -10 -11 84.5434 7.22998 1
0 11 1 60992.9 105.218 -2
0 -11 -1 60992.9 105.218 1
0 11 2 1754.64 25.2555 -2
0 -11 -2 1754.64 25.2555 1
0 11 3 9231.71 51.5036 -2
0 -11 -3 9231.71 51.5036 1
0 11 4 234.189 9.13966 -2
0 -11 -4 234.189 9.13966 1
0 -11 -5 27142 77.699 -2
0 11 5 27142 77.699 1
0 -11 -6 1066.16 19.1272 -2
0 11 6 1066.16 19.1272 1
0 11 -7 18378.3 58.4094 -2
0 -11 7 18378.3 58.4094 1
0 11 -8 656.744 13.0567 -2
0 -11 8 656.744 13.0567 1
0 -11 -9 109.421 8.36993 -2
0 11 9 109.421 8.36993 1
0 11 10 103.771 9.68966 -2
0 -11 -10 103.771 9.68966 1
0 11 11 3090.18 23.3174 -2
0 -11 -11 3090.18 23.3174 1
0 12 0 61872.3 178.044 -2
0 -12 0 61872.3 178.044 1
0 -12 -1 2639.63 26.3623 -2
0 12 1 2639.63 26.3623 1
0 -12 -2 8581.23 51.2314 -2
0 12 2 8581.23 51.2314 1
0 12 -3 12553.9 62.0855 -2
0 -12 3 12553.9 62.0855 1
0 12 -4 8044.7 36.9912 -2
0 -12 4 8044.7 36.9912 1
0 12 5 1274.97 22.9381 -2
0 -12 -5 1274.97 22.9381 1
0 -12 -6 12303 72.5148 -2
0 12 6 12303 72.5148 1
0 -12 -7 2630.34 21.3603 -2
0 12 7 2630.34 21.3603 1
0 -12 -8 231.693 10.3533 -2
0 12 8 231.693 10.3533 1
0 12 9 2621.67 22.3004 -2
0 -12 -9 2621.67 22.3004 1
0 12 10 1914.33 24.4622 -2
0 -12 -10 1914.33 24.4622 1
0 12 11 50.1585 7.16928 -2
0 -12 -11 50.1585 7.16928 1
0 13 -1 3764.75 32.6377 -2
0 -13 1 3764.75 32.6377 1
0 -13 -2 60629.6 151.457 -2
0 13 2 60629.6 151.457 1
0 13 -3 313.23 13.4359 -2
0 -13 3 313.23 13.4359 1
0 13 -4 33127.3 61.7907 -2
0 -13 4 33127.3 61.7907 1
0 13 5 2572.02 26.6804 -2
0 -13 -5 2572.02 26.6804 1
0 -13 -6 1686.89 24.0716 -2
0 13 6 1686.89 24.0716 1
0 -13 -7 195.299 9.49808 -2
0 13 7 195.299 9.49808 1
0 -13 -8 6659.56 40.3147 -2
0 13 8 6659.56 40.3147 1
0 -13 -9 563.741 14.9892 -2
0 13 9 563.741 14.9892 1
0 13 10 407.568 11.2267 -2
0 -13 -10 407.568 11.2267 1
0 13 11 65.102 5.90353 -2
0 -13 -11 65.102 5.90353 1
0 14 0 2847.63 44.4839 -2
0 -14 0 2847.63 44.4839 1
0 -14 1 22462.6 81.7372 -2
0 14 -1 22462.6 81.7372 1
0 -14 -2 2572.94 31.2137 -2
0 14 2 2572.94 31.2137 1
0 14 3 45775.6 93.9365 -2
0 -14 -3 45775.6 93.9365 1
0 14 4 3036.62 20.4819 -2
0 -14 -4 3036.62 20.4819 1
0 -14 -5 1297.21 20.8935 -2
0 14 5 1297.21 20.8935 1
0 -14 6 943.69 19.3291 -2
0 14 -6 943.69 19.3291 1
0 -14 -7 5660.99 38.2632 -2
0 14 7 5660.99 38.2632 1
0 -14 -8 101.965 9.21543 -2
0 14 8 101.965 9.21543 1
0 -14 9 5881.5 39.4535 -2
0 14 -9 5881.5 39.4535 1
0 14 -10 405.667 10.3413 -2
0 -14 10 405.667 10.3413 1
0 -15 1 22443.3 90.9255 -2
0 15 -1 22443.3 90.9255 1
0 15 -2 16287 66.7394 -2
0 -15 2 16287 66.7394 1
0 -15 -3 47.5251 7.38301 -2
0 15 3 47.5251 7.38301 1
0 15 -4 8646.53 36.7762 -2
0 -15 4 8646.53 36.7762 1
0 -15 -5 14687.8 68.4359 -2
0 15 5 14687.8 68.4359 1
0 -15 -6 750.546 15.9912 -2
0 15 6 750.546 15.9912 1
0 -15 -7 2949.26 29.0905 -2
0 15 7 2949.26 29.0905 1
0 -15 -8 3126.8 30.1704 -2
0 15 8 3126.8 30.1704 1
0 -15 -9 814.763 14.7541 -2
0 15 9 814.763 14.7541 1
0 15 10 546.223 13.2924 -2
0 -15 -10 546.223 13.2924 1
0 -16 0 55345.9 206.584 -2
0 16 0 55345.9 206.584 1
0 -16 -1 526.377 15.1686 -2
0 16 1 526.377 15.1686 1
0 16 -2 8315.99 44.1679 -2
0 -16 2 8315.99 44.1679 1
0 16 3 227.757 8.51132 -2
0 -16 -3 227.757 8.51132 1
0 16 -4 13942.9 42.7678 -2
0 -16 4 13942.9 42.7678 1
0 16 -5 21.1712 8.88657 -2
0 -16 5 21.1712 8.88657 1
0 -16 -6 10154.3 51.5709 -2
0 16 6 10154.3 51.5709 1
0 -16 -7 303.595 16.5255 -2
0 16 7 303.595 16.5255 1
0 -16 -8 233.555 11.7868 -2
0 16 8 233.555 11.7868 1
0 16 -9 138.514 8.21075 -2
0 -16 9 138.514 8.21075 1
0 16 10 2599.81 22.0405 -2
0 -16 -10 2599.81 22.0405 1
0 -17 -1 26740.4 77.59 -2
0 17 1 26740.4 77.59 1
0 17 -2 7195.67 39.7835 -2
0 -17 2 7195.67 39.7835 1
0 17 -3 424.678 10.3797 -2
0 -17 3 424.678 10.3797 1
0 17 -4 3656.38 23.3681 -2
0 -17 4 3656.38 23.3681 1
0 17 -5 15625.6 65.8516 -2
0 -17 5 15625.6 65.8516 1
0 17 -6 36.7503 10.7133 -2
0 -17 6 36.7503 10.7133 1
0 -17 -7 4443.51 46.1774 -2
0 17 7 4443.51 46.1774 1
0 17 -8 1464.8 25.7216 -2
0 -17 8 1464.8 25.7216 1
0 -17 -9 324.738 11.8822 -2
0 17 9 324.738 11.8822 1
0 17 -10 159.449 6.61972 -2
0 -17 10 159.449 6.61972 1
0 -18 0 12967.3 124.952 -2
0 18 0 12967.3 124.952 1
0 18 -1 3550.57 30.3571 -2
0 -18 1 3550.57 30.3571 1
0 -18 2 3713.5 25.1043 -2
0 18 -2 3713.5 25.1043 1
0 -18 -3 17887.4 54.7816 -2
0 18 3 17887.4 54.7816 1
0 -18 -4 4301.53 24.6688 -2
0 18 4 4301.53 24.6688 1
0 -18 -5 1069.91 19.9726 -2
0 18 5 1069.91 19.9726 1
0 18 -6 2653.29 33.4031 -2
0 -18 6 2653.29 33.4031 1
0 -18 -7 6945.52 48.5512 -2
0 18 7 6945.52 48.5512 1
0 18 -8 18.5109 9.78039 -2
0 -18 8 18.5109 9.78039 1
0 -18 9 1733.49 20.1962 -2
0 18 -9 1733.49 20.1962 1
0 19 -1 4954.52 35.797 -2
0 -19 1 4954.52 35.797 1
0 -19 2 40336.3 80.4027 -2
0 19 -2 40336.3 80.4027 1
0 -19 3 445.908 11.8735 -2
0 19 -3 445.908 11.8735 1
0 -19 -4 7853.11 35.3501 -2
0 19 4 7853.11 35.3501 1
0 19 -5 12.4131 8.81248 -2
0 -19 5 12.4131 8.81248 1
0 -19 6 1145.66 20.7364 -2
0 19 -6 1145.66 20.7364 1
0 -19 -7 74.6856 10.9507 -2
0 19 7 74.6856 10.9507 1
0 -19 -8 6638.03 64.4328 -2
0 19 8 6638.03 64.4328 1
0 -19 9 39.492 6.61085 -2
0 19 -9 39.492 6.61085 1
0 -20 0 13973.6 98.3287 -2
0 20 0 13973.6 98.3287 1
0 -20 -1 4930.54 36.3034 -2
0 20 1 4930.54 36.3034 1
0 -20 -2 370.734 11.5407 -2
0 20 2 370.734 11.5407 1
0 -20 -3 15513.8 52.8605 -2
0 20 3 15513.8 52.8605 1
0 20 -4 3446.77 24.3654 -2
0 -20 4 3446.77 24.3654 1
0 20 -5 2210.74 27.7862 -2
0 -20 5 2210.74 27.7862 1
0 20 6 3973.9 29.1587 -2
0 -20 -6 3973.9 29.1587 1
0 20 7 2358.37 26.1257 -2
0 -20 -7 2358.37 26.1257 1
0 -20 -8 -3.17564 9.89918 -2
0 20 8 -3.17564 9.89918 1
0 -20 -9 1887.16 19.0518 -2
0 20 9 1887.16 19.0518 1
0 21 1 4906.3 36.6515 -2
0 -21 -1 4906.3 36.6515 1
0 -21 2 1375.66 19.5736 -2
0 21 -2 1375.66 19.5736 1
0 -21 3 279.055 11.0024 -2
0 21 -3 279.055 11.0024 1
0 21 -4 1018.48 17.9402 -2
0 -21 4 1018.48 17.9402 1
0 -21 -5 15019.4 77.8395 -2
0 21 5 15019.4 77.8395 1
0 21 6 121.705 9.30322 -2
0 -21 -6 121.705 9.30322 1
0 21 7 3231.47 28.245 -2
0 -21 -7 3231.47 28.245 1
0 21 8 442.802 10.0929 -2
0 -21 -8 442.802 10.0929 1
0 -22 0 41052.5 147.739 -2
0 22 0 41052.5 147.739 1
0 -22 -1 53.5522 11.388 -2
0 22 1 53.5522 11.388 1
0 -22 -2 2466.25 25.0203 -2
0 22 2 2466.25 25.0203 1
0 22 3 1617.43 24.8831 -2
0 -22 -3 1617.43 24.8831 1
0 22 4 6528 37.8504 -2
0 -22 -4 6528 37.8504 1
0 -22 5 69.6313 12.2117 -2
0 22 -5 69.6313 12.2117 1
0 22 6 6480.92 37.1478 -2
0 -22 -6 6480.92 37.1478 1
0 22 7 88.0156 7.5988 -2
0 -22 -7 88.0156 7.5988 1
0 -22 8 91.2585 5.45026 -2
0 22 -8 91.2585 5.45026 1
0 -23 -1 6526.39 54.0075 -2
0 23 1 6526.39 54.0075 1
0 23 2 9587.05 61.8381 -2
0 -23 -2 9587.05 61.8381 1
0 23 3 174.084 11.2049 -2
0 -23 -3 174.084 11.2049 1
0 -23 -4 3235.98 34.0006 -2
0 23 4 3235.98 34.0006 1
0 -23 5 5211.87 51.8081 -2
0 23 -5 5211.87 51.8081 1
0 -23 6 691.027 14.5282 -2
0 23 -6 691.027 14.5282 1
0 -23 -7 970.877 13.8161 -2
0 23 7 970.877 13.8161 1
0 24 0 683.379 25.8678 -2
0 -24 0 683.379 25.8678 1
0 24 1 3477.97 47.3043 -2
0 -24 -1 3477.97 47.3043 1
0 24 2 523.911 19.2321 -2
0 -24 -2 523.911 19.2321 1
0 24 3 14892.6 68.0122 -2
0 -24 -3 14892.6 68.0122 1
0 24 -4 181.136 11.808 -2
0 -24 4 181.136 11.808 1
0 -24 5 590.182 14.3406 -2
0 24 -5 590.182 14.3406 1
0 -24 6 174.646 8.56181 -2
0 24 -6 174.646 8.56181 1
0 24 7 2212.66 18.4169 -2
0 -24 -7 2212.66 18.4169 1
0 25 1 1594.2 23.7082 -2
0 -25 -1 1594.2 23.7082 1
0 25 -2 10913 61.2116 -2
0 -25 2 10913 61.2116 1
0 -25 -3 133.591 11.1842 -2
0 25 3 133.591 11.1842 1
0 -25 -4 3768.77 54.673 -2
0 25 4 3768.77 54.673 1
0 25 5 1271.22 19.3934 -2
0 -25 -5 1271.22 19.3934 1
0 -25 -6 345.531 9.80615 -2
0 25 6 345.531 9.80615 1
0 26 0 7874.73 63.5066 -2
0 -26 0 7874.73 63.5066 1
0 26 1 906.319 17.8106 -2
0 -26 -1 906.319 17.8106 1
0 26 2 2915.4 26.3175 -2
0 -26 -2 2915.4 26.3175 1
0 -26 -3 4026.89 31.285 -2
0 26 3 4026.89 31.285 1
0 -26 -4 2160.57 38.3884 -2
0 26 4 2160.57 38.3884 1
0 -26 -5 187.062 8.3988 -2
0 26 5 187.062 8.3988 1
0 -26 -6 2764.75 29.3599 -2
0 26 6 2764.75 29.3599 1
0 27 1 8614.97 42.1409 -2
0 -27 -1 8614.97 42.1409 1
0 27 -2 21.457 7.82026 -2
0 -27 2 21.457 7.82026 1
0 -27 -3 101.125 14.1026 -2
0 27 3 101.125 14.1026 1
0 27 -4 58.6176 6.69722 -2
0 -27 4 58.6176 6.69722 1
0 -27 -5 2517.07 21.7563 -2
0 27 5 2517.07 21.7563 1
0 28 0 8535.77 54.6418 -2
0 -28 0 8535.77 54.6418 1
0 28 1 1782.35 16.5659 -2
0 -28 -1 1782.35 16.5659 1
0 -28 -2 1676.4 33.0461 -2
0 28 2 1676.4 33.0461 1
0 -28 -3 2128.87 33.2766 -2
0 28 3 2128.87 33.2766 1
0 -28 -4 2272.26 21.4032 -2
0 28 4 2272.26 21.4032 1
0 -29 -1 175.277 10.6449 -2
0 29 1 175.277 10.6449 1
0 -29 -2 3619.14 39.4776 -2
0 29 2 3619.14 39.4776 1
0 -29 -3 82.1702 8.61173 -2
0 29 3 82.1702 8.61173 1
0 -30 0 275.628 12.3662 -2
0 30 0 275.628 12.3662 1
0 -30 -1 1957.8 18.0022 -2
0 30 1 1957.8 18.0022 1
-1 0 12 826.096 10.7204 1
1 0 -10 26.0312 12.5964 1
1 0 -8 4869.62 32.5676 1
1 0 -6 3748.93 54.8359 1
1 0 -4 15301.2 72.9679 1
1 0 -2 346346 180.756 1
1 0 0 31332.5 78.0846 1
-1 0 -2 12810.2 38.8825 1
-1 0 -4 17640.8 57.7067 1
1 0 6 56.4802 5.26789 1
1 0 8 8640.91 31.8917 1
1 0 10 2325.99 18.0019 1
-1 1 12 6.59104 4.96008 1
1 1 -11 129.707 12.5421 1
1 -1 -10 873.727 13.7043 1
1 -1 -9 1865.58 14.2504 1
1 1 -8 436.411 7.9533 1
-1 1 7 10313.8 24.7667 1
1 -1 -6 1926.26 25.9466 1
-1 -1 5 195.883 12.3537 1
1 1 -4 8866.11 34.9215 1
-1 1 3 15030.1 37.2178 1
-1 1 2 1234.26 9.54218 1
-1 -1 1 11765.2 27.8846 1
1 1 0 17816.1 34.7003 1
1 -1 1 83.1871 3.74972 1
-1 -1 -2 6025.49 21.4551 1
-1 1 -3 38833.6 52.925 1
1 -1 4 6307.37 26.7823 1
-1 -1 -5 7798.43 42.5628 1
-1 -1 -6 6182.08 17.1428 1
-1 -1 -7 1578.48 11.2902 1
1 -1 8 106.471 4.74692 1
-1 -1 -9 2828.81 15.8163 1
1 -1 10 444.691 7.2857 1
1 1 11 195.534 9.25384 1
1 2 -12 80.8563 5.48619 1
1 2 -11 1416.55 26.1004 1
1 2 -10 12.1135 6.75097 1
1 2 -9 2049.4 18.1736 1
-1 -2 8 2445.36 14.8071 1
1 2 -7 3028.78 14.1673 1
1 2 -6 772.603 12.559 1
1 -2 -5 32166.1 99.3561 1
1 2 -4 205.951 8.6439 1
-1 -2 3 5253.65 22.1923 1
1 -2 -2 1675.91 10.4366 1
-1 -2 1 9696.5 45.8672 1
1 -2 0 2102.9 17.0984 1
-1 -2 -1 60892.4 50.2217 1
1 -2 2 1379.77 12.5906 1
1 -2 3 8450.44 32.6395 1
-1 2 -4 9378.45 43.5498 1
-1 2 -5 9875.17 46.9123 1
-1 2 -6 106.983 4.12468 1
1 2 7 8183.73 21.0219 1
1 2 8 408.642 6.8754 1
-1 -2 -9 52.5538 4.45009 1
-1 -2 -10 142.787 5.49159 1
1 2 11 907.218 11.8312 1
1 -3 -12 254.181 5.40089 1
-1 -3 11 5.19996 5.22103 1
1 -3 -10 2516.56 18.1373 1
-1 -3 9 83.0537 6.63366 1
1 -3 -8 227.604 5.77881 1
1 -3 -7 192.782 5.08226 1
1 -3 -6 8452.67 25.9797 1
1 -3 -5 412.471 14.6431 1
1 3 -4 43435.7 80.3737 1
-1 -3 3 776.411 8.04605 1
-1 3 2 1946.29 14.6336 1
-1 3 1 694.279 10.5212 1
1 3 0 121538 98.6645 1
1 3 1 1526.35 9.47486 1
1 -3 2 21003.3 40.75 1
1 -3 3 313.25 7.32766 1
-1 3 -4 1048.98 16.2597 1
-1 -3 -5 255.866 10.3073 1
1 -3 6 14748.6 24.9092 1
1 -3 7 162.348 4.46577 1
-1 3 -8 2229.48 12.9473 1
-1 3 -9 39.3703 4.23036 1
1 -3 10 1692.34 11.2998 1
1 3 11 5.15642 5.12036 1
1 -4 -12 273.148 5.15467 1
-1 -4 11 600.44 9.21907 1
1 -4 -10 33.1863 5.94638 1
1 -4 -9 1586.38 14.7691 1
1 4 -8 3419.73 16.6125 1
-1 4 7 698.767 8.57158 1
1 -4 -6 3222.74 16.6279 1
-1 -4 5 13767.9 51.9076 1
1 4 -4 7478.02 30.8288 1
1 -4 -3 4552.47 17.4475 1
-1 -4 2 26323 58.6333 1
1 4 -1 4117.11 16.4669 1
1 -4 0 24426.6 27.1536 1
1 4 1 42754.9 54.1594 1
1 4 2 17741.1 38.4138 1
1 4 3 1135.64 12.9596 1
1 4 4 9170.51 33.0596 1
-1 4 -5 11390.5 46.7794 1
-1 -4 -6 13.6758 3.22583 1
1 -4 7 4328.2 16.5677 1
-1 4 -8 2525.3 13.1055 1
-1 -4 -9 7.07601 4.86617 1
-1 -4 -10 597.326 8.20947 1
-1 -4 -11 585.113 8.08542 1
1 -5 -11 177.75 6.24468 1
1 5 -10 253.103 7.3316 1
-1 5 9 2462.83 21.7565 1
1 -5 -8 141.977 6.22628 1
-1 -5 7 11582.1 33.2008 1
1 -5 -6 532.185 7.90822 1
-1 -5 5 1810.72 19.8344 1
-1 5 4 497.69 9.58288 1
1 5 -3 30932.5 67.8503 1
-1 5 2 89.2584 7.30234 1
-1 5 1 31582.3 37.0095 1
1 5 0 453.317 4.3626 1
-1 5 -1 7671.06 22.5945 1
-1 -5 -2 3526.66 15.9691 1
-1 -5 -3 46619.9 83.3451 1
1 -5 4 318.798 7.86565 1
-1 -5 -5 11416.3 44.2449 1
-1 5 -6 1213.28 7.99122 1
-1 5 -7 2341.21 11.7196 1
1 -5 8 5.58428 4.29298 1
1 -5 9 5972.2 23.1824 1
1 5 10 13.2814 4.7121 1
1 -5 11 116.205 5.63345 1
-1 6 12 311.044 11.857 1
1 6 -11 58.8821 4.96225 1
-1 -6 10 172.887 6.21591 1
1 -6 -9 262.151 7.0551 1
-1 6 8 6154.53 23.3724 1
1 -6 -7 508.099 9.32134 1
-1 -6 6 10652.9 33.6863 1
-1 -6 5 4917.65 38.189 1
-1 -6 4 10675.6 50.9729 1
-1 -6 3 2600.88 20.1591 1
-1 6 2 46860.6 70.1595 1
1 -6 -1 2610.77 12.5335 1
1 -6 0 6932.36 16.71 1
1 6 1 12282.7 32.4565 1
1 6 2 41338.2 60.9669 1
-1 6 -3 3040.21 21.7617 1
1 6 4 22097 51.9759 1
-1 -6 -5 2187.57 18.7302 1
1 -6 6 743.636 6.91875 1
1 -6 7 387.828 6.301 1
1 -6 8 5105.15 19.0534 1
-1 6 -9 59.0035 5.15987 1
-1 -6 -10 1344.67 12.1734 1
-1 -6 -11 27.0828 7.46955 1
1 -7 -11 28.1293 4.64291 1
1 -7 -10 1896.15 13.2584 1
1 7 -9 1584.55 13.1227 1
-1 -7 8 739.517 9.63431 1
-1 -7 7 3711.96 23.4113 1
-1 -7 6 6898.15 28.952 1
-1 -7 5 20.7135 8.63936 1
-1 -7 4 9439.73 42.8625 1
-1 -7 3 6193.11 30.2005 1
-1 -7 2 272.112 6.72977 1
-1 7 1 8326 22.6966 1
-1 -7 0 21001.1 31.3425 1
1 7 1 124.565 6.04569 1
1 7 2 19759.3 49.1385 1
-1 -7 -3 13846.3 47.074 1
-1 7 -4 3983.16 28.0912 1
-1 7 -5 4379.01 21.7323 1
1 7 6 8018.46 19.9905 1
1 -7 7 89.352 4.73206 1
-1 -7 -8 422.925 6.97631 1
-1 -7 -9 994.604 12.5314 1
1 -7 10 352.462 8.78332 1
-1 -7 -11 24.2748 6.845 1
1 -8 -11 2243.09 14.1548 1
1 8 -10 219.219 6.7043 1
1 8 -9 1952.5 14.7649 1
-1 8 8 299.124 7.53023 1
-1 8 7 1142.27 13.9826 1
1 -8 -6 11.2516 5.21753 1
-1 8 5 17279.2 68.0122 1
1 -8 -4 991.802 12.3368 1
1 -8 -3 15313.7 38.8603 1
1 8 -2 36.5108 4.77085 1
-1 -8 1 31064.7 44.338 1
-1 -8 0 5337.83 19.7735 1
-1 -8 -1 24458.4 43.6455 1
1 8 2 86.8464 6.80615 1
1 -8 3 494.339 8.54204 1
1 -8 4 523.892 12.5034 1
-1 8 -5 11377 27.1617 1
1 -8 6 962.26 7.87071 1
-1 -8 -7 14956.4 31.2685 1
-1 -8 -8 589.588 8.83839 1
1 8 9 58.2967 5.54806 1
-1 -8 -10 -1.32891 5.37961 1
-1 -8 -11 1061.68 16.4182 1
1 9 -11 112.688 5.25326 1
1 -9 -10 1489.04 17.364 1
1 -9 -9 466.335 8.09325 1
1 9 -8 851.2 9.27707 1
-1 -9 7 1657.22 15.032 1
-1 -9 6 9529.07 31.3068 1
-1 -9 5 13.6264 7.38545 1
1 -9 -4 24717.2 54.3777 1
-1 9 3 3476.84 19.5099 1
-1 -9 2 93.0828 4.83585 1
-1 9 1 6313.59 20.8779 1
1 9 0 43880.4 53.7687 1
1 9 1 160.82 5.72846 1
1 9 2 27210.3 50.1421 1
-1 -9 -3 6415.5 28.3929 1
1 9 4 4329.86 31.5761 1
1 -9 5 1980.86 12.7929 1
1 -9 6 12244.7 27.229 1
1 -9 7 762.087 8.9548 1
1 9 8 974.337 11.1762 1
1 -9 9 741.634 8.94708 1
-1 -9 -10 252.959 8.30804 1
-1 -9 -11 9.17429 5.83266 1
1 -10 -11 143.856 7.80722 1
1 -10 -10 184.761 6.75282 1
1 -10 -9 332.539 7.84527 1
-1 10 8 3751.27 17.663 1
1 10 -7 491.937 7.59846 1
1 -10 -6 3752.58 17.4986 1
-1 -10 5 1405.24 12.018 1
1 -10 -4 5916.44 27.8616 1
1 10 -3 502.544 9.66837 1
-1 -10 2 35285.8 52.6096 1
-1 10 1 978.772 10.7061 1
1 10 0 8669.42 26.8322 1
1 10 1 2984.35 17.4795 1
1 -10 2 11315 37.6942 1
1 -10 3 689.818 11.6884 1
-1 -10 -4 19444.7 73.9984 1
-1 10 -5 2062.3 13.4588 1
1 10 6 1437.93 10.5465 1
-1 10 -7 584.555 8.36132 1
1 10 8 3514.62 19.0483 1
1 10 9 60.6689 5.1028 1
-1 -10 -10 791.174 11.804 1
-1 -10 -11 218.675 7.94233 1
1 -11 -11 12.8596 5.37222 1
-1 11 10 64.4034 6.44222 1
-1 11 9 4508.68 23.1389 1
1 -11 -8 168.542 5.77077 1
-1 -11 7 7428.3 26.8011 1
-1 11 6 75.2196 5.56048 1
1 11 -5 1023.63 10.3867 1
1 11 -4 663.697 10.6787 1
-1 -11 3 20790.7 47.6071 1
-1 -11 2 23.9354 5.35055 1
-1 11 1 24873.5 61.6834 1
1 11 0 412.531 9.12271 1
-1 11 -1 7107.72 28.7553 1
-1 11 -2 162.832 8.3729 1
-1 -11 -3 18759.9 55.9763 1
1 -11 4 944.994 12.5977 1
-1 -11 -5 14093.6 30.852 1
1 -11 6 959.747 8.9684 1
1 11 7 191.324 6.04276 1
-1 -11 -8 131.164 6.5376 1
-1 -11 -9 4494.84 29.2475 1
-1 -11 -10 2.20153 4.85498 1
1 -12 -11 378.722 7.56004 1
-1 -12 10 19.448 5.65351 1
-1 -12 9 661.4 10.5297 1
-1 12 8 2684.06 20.9575 1
1 -12 -7 569.317 10.3683 1
-1 12 6 1857.7 14.3266 1
-1 12 5 3438.81 18.1609 1
-1 12 4 3499.52 19.1272 1
-1 12 3 783.683 11.8065 1
-1 -12 2 21628.3 54.855 1
-1 12 1 1831.22 18.886 1
-1 12 0 2447.22 18.7993 1
1 12 1 7775.24 33.0666 1
-1 12 -2 6431.46 34.1023 1
-1 -12 -3 291.456 10.1333 1
1 -12 4 10924.1 31.3229 1
-1 -12 -5 2675.58 16.2838 1
1 -12 6 437.283 6.687 1
1 12 7 2094.74 18.3211 1
-1 -12 -8 2764.46 16.1542 1
1 12 9 34.6171 6.09012 1
-1 -12 -10 1094.63 12.1496 1
-1 -13 11 25.7575 8.23797 1
-1 -13 10 1207.33 12.9156 1
1 -13 -9 30.4074 5.45124 1
1 13 -8 322.604 9.18679 1
-1 -13 7 480.536 10.0909 1
-1 13 6 8124.51 28.5704 1
-1 -13 5 9.76549 5.83193 1
-1 13 4 17887.7 38.3342 1
1 13 -3 1039.46 12.4453 1
-1 13 2 95.3845 7.68309 1
1 -13 -1 1840.02 19.9229 1
1 -13 0 26788.5 67.0383 1
-1 13 -1 285.585 10.4061 1
-1 13 -2 22628.6 69.3459 1
1 -13 3 2056.11 18.4935 1
1 -13 4 1891.24 12.6179 1
1 -13 5 250.505 7.36944 1
1 13 6 6797.09 24.6887 1
1 13 7 733.553 12.0529 1
1 -13 8 404.528 8.1124 1
-1 -13 -9 65.8751 6.18205 1
-1 -13 -10 385.959 6.82987 1
-1 -14 10 13.7162 4.37833 1
-1 14 9 1003.21 11.4119 1
-1 14 8 185.258 7.63454 1
-1 -14 7 568.882 11.4674 1
-1 -14 6 778.898 9.49575 1
-1 -14 5 14302.1 38.351 1
-1 -14 4 810.692 10.6118 1
-1 -14 3 6346.08 24.394 1
1 -14 -2 1421.5 11.9921 1
-1 -14 1 10853.2 45.3196 1
1 -14 0 967.917 15.3612 1
1 14 1 24957.1 87.1657 1
1 -14 2 1884.08 18.8184 1
1 -14 3 608.913 8.87886 1
1 14 4 889.685 9.87194 1
1 -14 5 6417.6 27.4688 1
1 -14 6 111.498 6.04832 1
-1 -14 -7 7130.19 35.4575 1
1 -14 8 751.733 9.81553 1
1 14 9 56.4216 5.7225 1
-1 -14 -10 37.0554 4.20022 1
-1 -15 10 695.918 13.0085 1
1 -15 -9 823.686 9.52081 1
1 -15 -8 117.847 6.88728 1
1 -15 -7 3119.33 24.7683 1
1 -15 -6 2264.62 15.9881 1
-1 15 5 9.61518 6.5128 1
1 -15 -4 4247.76 21.7505 1
-1 15 3 7900.99 25.8229 1
1 -15 -2 55.0285 4.9092 1
1 15 -1 11033.3 31.8834 1
-1 15 0 9759.61 42.2792 1
1 -15 1 30.6611 8.34055 1
1 15 2 5461.1 21.9232 1
1 15 3 11860.8 37.2025 1
1 15 4 1087.68 11.7893 1
1 -15 5 2150.79 17.9074 1
1 -15 6 2561.5 16.1055 1
1 -15 7 886.802 13.9385 1
1 15 8 531.617 8.98126 1
-1 -15 -9 1141.94 13.1233 1
-1 15 -10 76.0126 8.54299 1
-1 -16 10 45.2735 6.43402 1
-1 16 9 45.2837 4.03748 1
-1 16 8 2596.55 17.5642 1
1 16 -7 7.15003 6.39754 1
-1 16 6 2891.17 17.3409 1
1 -16 -5 93.6651 7.50353 1
-1 -16 4 3558.63 19.0164 1
-1 16 3 99.042 6.17104 1
-1 -16 2 22670 38.9383 1
-1 -16 1 234.866 6.7522 1
1 -16 0 3077.72 28.3213 1
-1 16 -1 97.1392 11.6934 1
-1 16 -2 11435.7 30.9283 1
1 16 3 16.5555 5.61606 1
-1 -16 -4 8247.83 33.0858 1
-1 -16 -5 277.379 9.13947 1
1 -16 6 131.778 9.95816 1
1 -16 7 115.837 7.7032 1
1 16 8 3123.56 18.0149 1
-1 -16 -9 15.4057 5.6448 1
-1 -17 10 178.165 11.0014 1
-1 17 9 938.376 10.0004 1
-1 17 8 7.99779 4.78224 1
-1 -17 7 3616.39 22.9258 1
1 17 -6 1201.87 11.9771 1
-1 17 5 30.3056 6.40684 1
-1 17 4 2332.63 15.7464 1
1 -17 -3 11689.1 32.9877 1
1 -17 -2 34.4334 5.10134 1
-1 17 1 9398.63 36.6442 1
1 -17 0 4267.29 35.6848 1
1 17 1 518.872 15.393 1
1 -17 2 1844.31 14.9615 1
1 -17 3 11932 41.1627 1
-1 -17 -4 85.5185 7.46531 1
1 -17 5 4134.86 31.3608 1
1 17 6 1433.59 22.3198 1
-1 -17 -7 525.89 10.8312 1
1 17 8 103.674 4.59768 1
-1 -17 -9 1363 16.3568 1
-1 18 9 1153.26 11.2385 1
-1 -18 8 516.708 8.8756 1
-1 -18 7 350.019 8.86658 1
1 -18 -6 808.021 10.8092 1
-1 18 5 5305.3 22.4339 1
-1 18 4 946.829 11.4522 1
1 -18 -3 1395.93 12.9233 1
-1 -18 2 5226.08 21.5143 1
1 -18 -1 1774.43 23.1836 1
-1 -18 0 2231.64 26.691 1
1 -18 1 9785.32 40.5806 1
1 -18 2 3228.83 21.9518 1
1 18 3 524.323 9.96812 1
1 -18 4 2325.55 20.3733 1
1 18 5 6965.69 31.8159 1
-1 -18 -6 7.82004 6.34815 1
1 -18 7 1924.94 17.5304 1
-1 -18 -8 699.255 7.1641 1
-1 -18 -9 -0.13048 3.7808 1
-1 19 9 23.5048 4.84783 1
-1 -19 8 219.977 8.35735 1
-1 -19 7 9.00139 5.28439 1
-1 -19 6 2086.35 15.3222 1
-1 19 5 165.496 6.73873 1
1 19 -4 11497.6 35.9339 1
1 19 -3 1704.81 13.6438 1
1 -19 -2 18.1356 6.5436 1
-1 19 1 2204.24 23.8504 1
-1 -19 0 23363.5 69.6567 1
1 19 1 230.904 9.29427 1
1 -19 2 4761.83 31.0981 1
-1 -19 -3 7.81875 6.46964 1
1 -19 4 1088.66 14.3654 1
1 -19 5 28.7769 6.84377 1
-1 -19 -6 6076.76 31.7613 1
1 -19 7 38.5497 5.81243 1
1 19 8 617.043 7.55702 1
-1 19 -9 27.7263 7.51824 1
-1 -20 9 277.515 12.1874 1
-1 -20 8 1025.66 14.0832 1
-1 20 7 827.374 15.4911 1
-1 -20 6 685.157 9.01659 1
1 -20 -5 4691.63 21.866 1
-1 -20 4 133.299 7.26229 1
1 -20 -3 999.863 11.2625 1
-1 -20 2 5647.14 37.1911 1
1 -20 -1 3442.01 29.2462 1
-1 20 0 191.293 11.1352 1
1 -20 1 7930.47 33.5379 1
-1 -20 -2 2479.38 22.5224 1
1 -20 3 1232.41 13.8069 1
-1 -20 -4 3314.6 21.8552 1
1 -20 5 2398.62 27.7135 1
1 -20 6 12.9323 5.88068 1
1 20 7 1891.29 15.9921 1
-1 20 -8 519.547 9.7228 1
1 -21 -8 28.214 4.50129 1
-1 -21 7 4259.56 28.9822 1
-1 -21 6 242.269 8.87249 1
1 -21 -5 32.7835 5.1905 1
-1 21 4 352.244 7.96416 1
1 -21 -3 2314.09 16.3563 1
-1 21 2 13.3399 8.89264 1
1 -21 -1 1934.77 23.1061 1
1 21 0 874.225 17.1736 1
1 21 1 374.149 11.1126 1
1 -21 2 587.201 13.4661 1
1 21 3 9841.22 38.0683 1
1 21 4 127.239 10.9712 1
1 21 5 2344.93 26.6392 1
-1 21 -6 411.247 9.46376 1
-1 21 -7 282.618 7.07484 1
-1 -21 -8 7.45225 3.78545 1
1 -22 -8 1119.37 16.9032 1
-1 -22 7 23.9938 6.32915 1
-1 22 6 1597.46 19.9545 1
-1 -22 5 483.895 11.513 1
1 -22 -4 992.49 13.047 1
1 -22 -3 25.3921 8.01768 1
1 -22 -2 16562.9 69.6965 1
-1 22 1 181.952 10.4667 1
1 22 0 905.963 12.0856 1
1 22 1 709.315 14.2286 1
1 -22 2 4535.53 37.866 1
-1 -22 -3 41.4741 7.83542 1
1 22 4 5073.04 38.0165 1
1 22 5 67.1774 8.67487 1
1 22 6 42.5083 5.28118 1
-1 22 -7 128.136 4.3957 1
-1 23 7 1229.77 16.1534 1
-1 23 6 703.051 12.5097 1
1 -23 -5 5.03622 6.92452 1
-1 23 4 2623.92 21.5263 1
-1 -23 3 2268.38 18.0588 1
1 -23 -2 4.66121 9.8104 1
1 -23 -1 2548.63 29.2626 1
-1 -23 0 5064.37 28.965 1
1 -23 1 196.95 11.1251 1
1 -23 2 2106.74 16.4483 1
1 -23 3 3998.61 25.9715 1
1 23 4 822.678 16.2159 1
-1 23 -5 816.605 14.9201 1
-1 -23 -6 1587.8 13.2306 1
1 23 7 122.948 4.65546 1
1 -24 -7 151.822 9.63988 1
1 -24 -6 22.9266 4.77109 1
1 -24 -5 3507.55 27.1197 1
1 -24 -4 204.023 8.60091 1
1 -24 -3 1153.33 15.1171 1
1 -24 -2 246.414 8.69446 1
-1 -24 1 1520.67 18.5783 1
1 -24 0 114.471 7.75944 1
1 -24 1 7749.98 29.6613 1
1 24 2 103.633 6.66604 1
1 24 3 337.032 9.9496 1
1 24 4 123.314 8.86688 1
1 24 5 2076.75 15.5998 1
-1 -24 -6 17.9418 4.81926 1
-1 25 6 1198.16 14.8313 1
-1 25 5 29.5164 7.31074 1
1 -25 -4 2806.93 23.5936 1
-1 -25 3 679.54 12.2144 1
1 -25 -2 107.859 6.89773 1
1 -25 -1 473.099 10.2638 1
1 -25 0 5092.25 26.3777 1
1 -25 1 113.931 6.70672 1
1 -25 2 1857.02 12.7771 1
1 25 3 976.169 15.8216 1
1 25 4 413.511 13.3883 1
-1 -25 -5 294.005 10.5018 1
-1 -25 -6 1490.85 15.4605 1
1 -26 -6 320.348 10.1385 1
1 -26 -5 928.771 10.6063 1
-1 26 4 862.958 12.4348 1
1 -26 -3 311.419 8.88239 1
1 -26 -2 3099.43 16.4613 1
-1 -26 1 311.769 7.09102 1
-1 -26 0 1041.84 12.5396 1
-1 -26 -1 1921.85 12.6212 1
-1 -26 -2 1615.81 13.8493 1
1 26 3 39.2228 6.59275 1
1 -26 4 1910.29 26.5585 1
-1 -26 -5 239.936 6.76731 1
-1 -27 5 9.55674 7.02415 1
-1 -27 4 1.91241 4.81505 1
1 -27 -3 2716.73 17.3341 1
-1 -27 2 4.17681 4.80368 1
-1 -27 1 3596.03 18.6834 1
-1 -27 0 7.36722 6.20487 1
1 -27 1 105.714 5.34565 1
1 -27 2 91.8887 6.07777 1
1 27 3 1764.64 15.988 1
-1 -27 -4 7.00876 4.32728 1
-1 -28 4 455.936 12.4679 1
-1 28 3 456.83 8.44895 1
1 -28 -2 2883.7 16.8451 1
-1 -28 1 634.855 8.8124 1
1 28 0 528.321 7.38401 1
1 -28 1 874.799 12.3548 1
1 -28 2 1079.81 16.7625 1
1 -28 3 67.1887 6.91648 1
-1 -29 2 2.90059 6.32305 1
1 -29 -1 38.7151 3.95149 1
-1 29 0 1507.52 16.6688 1
1 29 1 59.005 4.087 1
1 -29 2 1103.74 16.2703 1
2 0 -10 1253.37 19.9892 1
2 0 -8 981.597 12.1324 1
2 0 -6 4723.33 25.157 1
-2 0 4 88769.3 243.596 1
2 0 -2 10212.2 49.8119 1
2 0 0 11726 49.5521 1
2 0 2 22458 142.703 1
2 0 4 30.9547 5.94914 1
2 0 6 14260.4 41.9047 1
2 0 8 4134.79 25.181 1
2 0 10 257.157 11.7067 1
2 -1 10 1417.57 29.5807 -2
2 1 -11 1417.57 29.5807 1
2 1 9 367.845 12.0568 -2
2 -1 -10 367.845 12.0568 1
2 -1 8 3762.03 27.5472 -2
2 1 -9 3762.03 27.5472 1
-2 1 -7 5038.57 23.2007 -2
-2 -1 8 5038.57 23.2007 1
-2 -1 -6 260.672 7.6615 -2
-2 1 7 260.672 7.6615 1
2 -1 5 5078.44 23.1572 -2
2 1 -6 5078.44 23.1572 1
-2 1 -4 13990.1 46.7456 -2
-2 -1 5 13990.1 46.7456 1
2 1 3 7625.35 67.3488 -2
2 -1 -4 7625.35 67.3488 1
-2 -1 -2 13324.5 72.3337 -2
-2 1 3 13324.5 72.3337 1
2 -1 1 33983.4 83.8608 -2
2 1 -2 33983.4 83.8608 1
2 -1 0 4484.68 73.1679 -2
2 1 -1 4484.68 73.1679 1
2 -1 -1 5019.09 41.267 -2
2 1 0 5019.09 41.267 1
2 -1 -2 34967.4 92.6632 -2
2 1 1 34967.4 92.6632 1
2 -1 -3 12132.2 66.4163 -2
2 1 2 12132.2 66.4163 1
2 1 -4 8719.91 46.392 -2
2 -1 3 8719.91 46.392 1
2 1 -5 13452.9 36.1859 -2
2 -1 4 13452.9 36.1859 1
2 1 -6 5097.21 20.2046 -2
2 -1 5 5097.21 20.2046 1
2 1 -7 276.539 9.20275 -2
2 -1 6 276.539 9.20275 1
2 -1 -8 5471.05 28.6633 -2
2 1 7 5471.05 28.6633 1
-2 1 9 2996.01 23.4414 -2
-2 -1 -8 2996.01 23.4414 1
2 1 -10 392.868 11.2734 -2
2 -1 9 392.868 11.2734 1
2 1 -11 733.784 18.1413 -2
2 -1 10 733.784 18.1413 1
2 -2 10 566.343 20.6315 -2
2 2 -11 566.343 20.6315 1
2 2 9 2997.87 31.7176 -2
2 -2 -10 2997.87 31.7176 1
-2 -2 -8 1232.16 17.1385 -2
-2 2 9 1232.16 17.1385 1
-2 -2 -7 394.257 8.52837 -2
-2 2 8 394.257 8.52837 1
-2 2 -6 11069.7 35.1114 -2
-2 -2 7 11069.7 35.1114 1
2 -2 5 9000.46 30.3025 -2
2 2 -6 9000.46 30.3025 1
2 2 4 2256.5 17.4649 -2
2 -2 -5 2256.5 17.4649 1
2 -2 3 13467.1 89.4675 -2
2 2 -4 13467.1 89.4675 1
2 2 2 12961.9 57.8246 -2
2 -2 -3 12961.9 57.8246 1
-2 -2 -1 3916.48 28.2424 -2
-2 2 2 3916.48 28.2424 1
2 -2 0 25460.2 67.5972 -2
2 2 -1 25460.2 67.5972 1
2 -2 -1 25455.8 101.408 -2
2 2 0 25455.8 101.408 1
-2 -2 2 4189.57 31.3466 -2
-2 2 -1 4189.57 31.3466 1
2 -2 -3 12633 44.3947 -2
2 2 2 12633 44.3947 1
2 2 -4 14102.1 63.0004 -2
2 -2 3 14102.1 63.0004 1
2 -2 -5 1810.61 15.6655 -2
2 2 4 1810.61 15.6655 1
2 -2 -6 10803.6 29.7273 -2
2 2 5 10803.6 29.7273 1
2 2 -7 8563.3 30.7403 -2
2 -2 6 8563.3 30.7403 1
2 2 -8 289.225 9.20079 -2
2 -2 7 289.225 9.20079 1
2 -2 -9 944.387 14.9744 -2
2 2 8 944.387 14.9744 1
2 2 -10 2804.02 22.5447 -2
2 -2 9 2804.02 22.5447 1
2 2 -11 228.646 13.5237 -2
2 -2 10 228.646 13.5237 1
2 3 10 3387.12 28.4115 -2
2 -3 -11 3387.12 28.4115 1
2 -3 9 53.784 9.09197 -2
2 3 -10 53.784 9.09197 1
2 3 8 4086.75 28.149 -2
2 -3 -9 4086.75 28.149 1
2 -3 7 3140.68 20.9417 -2
2 3 -8 3140.68 20.9417 1
2 3 6 2435.09 17.403 -2
2 -3 -7 2435.09 17.403 1
2 3 5 11362.6 31.5604 -2
2 -3 -6 11362.6 31.5604 1
2 3 4 17094.7 41.7002 -2
2 -3 -5 17094.7 41.7002 1
-2 -3 -3 1711.61 24.3161 -2
-2 3 4 1711.61 24.3161 1
-2 -3 -2 1795.69 21.9376 -2
-2 3 3 1795.69 21.9376 1
-2 -3 -1 53977.6 99.6468 -2
-2 3 2 53977.6 99.6468 1
-2 3 0 11701.2 44.7629 -2
-2 -3 1 11701.2 44.7629 1
2 -3 -1 14102.8 62.9305 -2
2 3 0 14102.8 62.9305 1
2 -3 -2 45938 87.4502 -2
2 3 1 45938 87.4502 1
2 -3 -3 1879.83 19.8656 -2
2 3 2 1879.83 19.8656 1
2 3 -4 1416.64 16.9438 -2
2 -3 3 1416.64 16.9438 1
2 3 -5 19912.8 48.7012 -2
2 -3 4 19912.8 48.7012 1
2 3 -6 8925.14 28.8505 -2
2 -3 5 8925.14 28.8505 1
2 3 -7 2714.68 17.8808 -2
2 -3 6 2714.68 17.8808 1
2 3 -8 2331.37 18.352 -2
2 -3 7 2331.37 18.352 1
2 -3 -9 4269.32 33.9892 -2
2 3 8 4269.32 33.9892 1
2 -3 -10 31.7749 8.45238 -2
2 3 9 31.7749 8.45238 1
2 3 -11 2025.99 25.3309 -2
2 -3 10 2025.99 25.3309 1
2 -4 10 301.354 8.86297 -2
2 4 -11 301.354 8.86297 1
2 4 9 2962.31 22.8485 -2
2 -4 -10 2962.31 22.8485 1
-2 -4 -8 1423.06 17.6761 -2
-2 4 9 1423.06 17.6761 1
2 4 7 885.55 13.383 -2
2 -4 -8 885.55 13.383 1
2 -4 6 6919.72 27.233 -2
2 4 -7 6919.72 27.233 1
2 4 5 7320.17 27.022 -2
2 -4 -6 7320.17 27.022 1
2 -4 4 1806.39 13.8451 -2
2 4 -5 1806.39 13.8451 1
-2 4 -3 23353.4 85.9026 -2
-2 -4 4 23353.4 85.9026 1
2 -4 2 8638.55 47.0858 -2
2 4 -3 8638.55 47.0858 1
2 -4 1 9736.97 45.2935 -2
2 4 -2 9736.97 45.2935 1
2 -4 0 32620.4 78.735 -2
2 4 -1 32620.4 78.735 1
-2 4 1 32068.3 66.0402 -2
-2 -4 0 32068.3 66.0402 1
-2 4 2 8154.18 39.1632 -2
-2 -4 -1 8154.18 39.1632 1
-2 4 3 8911.47 43.6057 -2
-2 -4 -2 8911.47 43.6057 1
2 -4 -4 21916.8 64.6281 -2
2 4 3 21916.8 64.6281 1
2 4 -5 1407.57 13.7988 -2
2 -4 4 1407.57 13.7988 1
2 -4 -6 7465.41 30.0588 -2
2 4 5 7465.41 30.0588 1
2 -4 -7 6188.26 25.9651 -2
2 4 6 6188.26 25.9651 1
2 4 -8 629.848 12.4109 -2
2 -4 7 629.848 12.4109 1
2 4 -9 1393.58 21.1616 -2
2 -4 8 1393.58 21.1616 1
-2 4 10 2444.11 18.2464 -2
-2 -4 -9 2444.11 18.2464 1
2 4 -11 179.448 12.2045 -2
2 -4 10 179.448 12.2045 1
2 5 10 610.212 11.9386 -2
2 -5 -11 610.212 11.9386 1
2 5 9 342.689 11.884 -2
2 -5 -10 342.689 11.884 1
2 5 8 3123.33 29.4007 -2
2 -5 -9 3123.33 29.4007 1
2 5 7 10540.9 47.4446 -2
2 -5 -8 10540.9 47.4446 1
2 5 6 230.7 7.87826 -2
2 -5 -7 230.7 7.87826 1
2 5 5 4270.18 20.0508 -2
2 -5 -6 4270.18 20.0508 1
-2 5 -4 12282.9 32.6057 -2
-2 -5 5 12282.9 32.6057 1
-2 5 -3 10836.9 45.0266 -2
-2 -5 4 10836.9 45.0266 1
-2 -5 -2 12738.5 57.7898 -2
-2 5 3 12738.5 57.7898 1
-2 -5 -1 33306 81.5928 -2
-2 5 2 33306 81.5928 1
-2 5 0 4705.76 34.5649 -2
-2 -5 1 4705.76 34.5649 1
2 -5 -1 4795.95 29.1718 -2
2 5 0 4795.95 29.1718 1
-2 5 2 35997.8 81.0212 -2
-2 -5 -1 35997.8 81.0212 1
-2 5 3 10681.6 50.1349 -2
-2 -5 -2 10681.6 50.1349 1
2 5 -4 11735.2 46.8237 -2
2 -5 3 11735.2 46.8237 1
2 -5 -5 10122.5 41.9422 -2
2 5 4 10122.5 41.9422 1
-2 5 6 4400.13 22.3712 -2
-2 -5 -5 4400.13 22.3712 1
2 5 -7 191.031 8.36426 -2
2 -5 6 191.031 8.36426 1
2 -5 -8 11021.2 40.298 -2
2 5 7 11021.2 40.298 1
2 -5 -9 2184.2 31.1177 -2
2 5 8 2184.2 31.1177 1
2 -5 -10 291.18 10.0518 -2
2 5 9 291.18 10.0518 1
2 -5 -11 324.631 12.8875 -2
2 5 10 324.631 12.8875 1
2 -6 10 95.0238 7.35812 -2
2 6 -11 95.0238 7.35812 1
2 6 9 2074.82 21.7845 -2
2 -6 -10 2074.82 21.7845 1
2 6 8 2450.47 25.6019 -2
2 -6 -9 2450.47 25.6019 1
2 6 7 2752.9 22.4348 -2
2 -6 -8 2752.9 22.4348 1
2 6 6 9279.89 33.1294 -2
2 -6 -7 9279.89 33.1294 1
2 6 5 4461.3 22.4682 -2
2 -6 -6 4461.3 22.4682 1
2 6 4 1386.98 12.2852 -2
2 -6 -5 1386.98 12.2852 1
-2 -6 -3 20360.5 46.4271 -2
-2 6 4 20360.5 46.4271 1
-2 -6 -2 20858.2 74.2247 -2
-2 6 3 20858.2 74.2247 1
-2 -6 -1 3545.84 37.6507 -2
-2 6 2 3545.84 37.6507 1
-2 6 0 30691.5 112.568 -2
-2 -6 1 30691.5 112.568 1
-2 -6 1 31862.6 120.875 -2
-2 6 0 31862.6 120.875 1
2 6 -2 3557.74 30.8872 -2
2 -6 1 3557.74 30.8872 1
2 6 -3 21542.6 74.3994 -2
2 -6 2 21542.6 74.3994 1
2 -6 -4 15800 37.9898 -2
2 6 3 15800 37.9898 1
2 6 -5 1221.35 15.583 -2
2 -6 4 1221.35 15.583 1
-2 6 6 3564.9 30.5389 -2
-2 -6 -5 3564.9 30.5389 1
-2 6 7 9472.17 35.7073 -2
-2 -6 -6 9472.17 35.7073 1
-2 -6 8 1878.15 19.1737 -2
-2 6 -7 1878.15 19.1737 1
2 6 -9 2304.19 22.9691 -2
2 -6 8 2304.19 22.9691 1
-2 6 10 1437.6 16.5963 -2
-2 -6 -9 1437.6 16.5963 1
2 6 -11 80.8503 9.77356 -2
2 -6 10 80.8503 9.77356 1
2 7 10 1575.67 20.8874 -2
2 -7 -11 1575.67 20.8874 1
2 7 9 270.789 10.2955 -2
2 -7 -10 270.789 10.2955 1
2 -7 8 1993.12 27.7494 -2
2 7 -9 1993.12 27.7494 1
2 7 7 3296.85 28.2453 -2
2 -7 -8 3296.85 28.2453 1
2 7 6 316.752 7.96685 -2
2 -7 -7 316.752 7.96685 1
2 -7 5 3302.27 19.6119 -2
2 7 -6 3302.27 19.6119 1
2 7 4 10428.4 31.9289 -2
2 -7 -5 10428.4 31.9289 1
2 -7 3 3101.44 19.6339 -2
2 7 -4 3101.44 19.6339 1
2 -7 2 8794.4 46.2269 -2
2 7 -3 8794.4 46.2269 1
-2 7 -1 27899.5 95.7697 -2
-2 -7 2 27899.5 95.7697 1
2 -7 0 11598.3 78.2934 -2
2 7 -1 11598.3 78.2934 1
-2 7 1 13259.9 93.5595 -2
-2 -7 0 13259.9 93.5595 1
2 -7 -2 26570.9 96.5102 -2
2 7 1 26570.9 96.5102 1
2 7 -3 8098.13 48.1249 -2
2 -7 2 8098.13 48.1249 1
2 -7 -4 3267.71 17.4313 -2
2 7 3 3267.71 17.4313 1
2 -7 -5 10384.7 42.9867 -2
2 7 4 10384.7 42.9867 1
2 7 -6 2507.02 25.6813 -2
2 -7 5 2507.02 25.6813 1
2 7 -7 369.5 10.4543 -2
2 -7 6 369.5 10.4543 1
2 -7 -8 2799.94 26.2744 -2
2 7 7 2799.94 26.2744 1
2 -7 -9 1446.58 21.3717 -2
2 7 8 1446.58 21.3717 1
-2 7 10 210.678 9.773 -2
-2 -7 -9 210.678 9.773 1
2 -7 -11 1315.95 17.6561 -2
2 7 10 1315.95 17.6561 1
-2 8 -10 344.269 13.7553 -2
-2 -8 11 344.269 13.7553 1
2 8 9 3385.65 29.5002 -2
2 -8 -10 3385.65 29.5002 1
2 -8 8 642.113 16.8941 -2
2 8 -9 642.113 16.8941 1
2 8 7 35.5094 6.79473 -2
2 -8 -8 35.5094 6.79473 1
2 8 6 6701.3 29.6876 -2
2 -8 -7 6701.3 29.6876 1
-2 8 -5 17881.2 43.2807 -2
-2 -8 6 17881.2 43.2807 1
2 8 4 4463.26 21.3287 -2
2 -8 -5 4463.26 21.3287 1
-2 -8 -3 12862.8 35.4847 -2
-2 8 4 12862.8 35.4847 1
2 -8 2 13299.6 55.5047 -2
2 8 -3 13299.6 55.5047 1
-2 8 -1 1559.16 29.4164 -2
-2 -8 2 1559.16 29.4164 1
2 8 0 17997.8 89.0068 -2
2 -8 -1 17997.8 89.0068 1
-2 -8 1 14036.1 101.184 -2
-2 8 0 14036.1 101.184 1
-2 8 2 1414.65 29.2696 -2
-2 -8 -1 1414.65 29.2696 1
2 -8 -3 11028.4 39.0096 -2
2 8 2 11028.4 39.0096 1
2 -8 -4 14084.3 37.1574 -2
2 8 3 14084.3 37.1574 1
-2 8 5 3836.85 26.2872 -2
-2 -8 -4 3836.85 26.2872 1
2 8 -6 19465.9 52.731 -2
2 -8 5 19465.9 52.731 1
-2 -8 7 5055.94 24.4177 -2
-2 8 -6 5055.94 24.4177 1
2 -8 -8 52.5271 9.9511 -2
2 8 7 52.5271 9.9511 1
2 -8 -9 360.434 13.3601 -2
2 8 8 360.434 13.3601 1
2 8 -10 3033.91 23.7646 -2
2 -8 9 3033.91 23.7646 1
2 -8 -11 237.736 13.695 -2
2 8 10 237.736 13.695 1
2 -9 10 874.665 17.568 -2
2 9 -11 874.665 17.568 1
2 9 9 188.365 10.3441 -2
2 -9 -10 188.365 10.3441 1
2 -9 8 1573.59 29.1512 -2
2 9 -9 1573.59 29.1512 1
2 -9 7 3840.43 25.2922 -2
2 9 -8 3840.43 25.2922 1
2 9 6 1066.28 12.6792 -2
2 -9 -7 1066.28 12.6792 1
-2 9 -5 8909.57 36.8103 -2
-2 -9 6 8909.57 36.8103 1
2 9 4 16831.6 41.3659 -2
2 -9 -5 16831.6 41.3659 1
2 9 3 1854.09 13.8919 -2
2 -9 -4 1854.09 13.8919 1
2 9 2 7026.16 36.821 -2
2 -9 -3 7026.16 36.821 1
2 -9 1 26651.3 114.084 -2
2 9 -2 26651.3 114.084 1
2 -9 0 14607.6 90.5861 -2
2 9 -1 14607.6 90.5861 1
2 -9 -1 17093.2 101.113 -2
2 9 0 17093.2 101.113 1
2 9 -2 24500.4 117.117 -2
2 -9 1 24500.4 117.117 1
-2 -9 3 6835.3 31.3587 -2
-2 9 -2 6835.3 31.3587 1
2 -9 -4 2005.76 13.5072 -2
2 9 3 2005.76 13.5072 1
-2 -9 5 18148.8 56.416 -2
-2 9 -4 18148.8 56.416 1
2 9 -6 7135.79 32.7277 -2
2 -9 5 7135.79 32.7277 1
2 9 -7 1135.49 14.2822 -2
2 -9 6 1135.49 14.2822 1
2 -9 -8 3074.72 23.8027 -2
2 9 7 3074.72 23.8027 1
2 9 -9 1259.54 19.3053 -2
2 -9 8 1259.54 19.3053 1
2 9 -10 131.797 9.96922 -2
2 -9 9 131.797 9.96922 1
2 -9 -11 869.053 18.2382 -2
2 9 10 869.053 18.2382 1
-2 10 -10 106.69 9.38213 -2
-2 -10 11 106.69 9.38213 1
2 10 9 1511.87 20.973 -2
2 -10 -10 1511.87 20.973 1
-2 -10 -8 1855.65 29.4076 -2
-2 10 9 1855.65 29.4076 1
2 -10 7 1253.39 17.144 -2
2 10 -8 1253.39 17.144 1
-2 -10 -6 5727.67 26.6647 -2
-2 10 7 5727.67 26.6647 1
2 10 5 2698.99 21.3613 -2
2 -10 -6 2698.99 21.3613 1
-2 -10 -4 1622.31 15.113 -2
-2 10 5 1622.31 15.113 1
2 -10 3 17115.1 49.2584 -2
2 10 -4 17115.1 49.2584 1
2 10 2 18952 61.3456 -2
2 -10 -3 18952 61.3456 1
-2 10 -1 3941.71 30.6401 -2
-2 -10 2 3941.71 30.6401 1
-2 10 0 10434 91.9319 -2
-2 -10 1 10434 91.9319 1
2 10 -1 11187.4 63.2615 -2
2 -10 0 11187.4 63.2615 1
2 -10 -2 3337.52 19.5327 -2
2 10 1 3337.52 19.5327 1
2 10 -3 21384.8 53.4528 -2
2 -10 2 21384.8 53.4528 1
2 -10 -4 14073.7 36.3597 -2
2 10 3 14073.7 36.3597 1
2 10 -5 1707.71 19.3333 -2
2 -10 4 1707.71 19.3333 1
2 -10 -6 2279.7 21.2398 -2
2 10 5 2279.7 21.2398 1
2 10 -7 5807.61 28.6885 -2
2 -10 6 5807.61 28.6885 1
2 -10 -8 872.592 14.2179 -2
2 10 7 872.592 14.2179 1
2 10 -9 1656.81 21.18 -2
2 -10 8 1656.81 21.18 1
2 -10 -10 1285.42 17.8718 -2
2 10 9 1285.42 17.8718 1
2 -10 -11 115.834 9.17777 -2
2 10 10 115.834 9.17777 1
2 11 9 117.137 9.86903 -2
2 -11 -10 117.137 9.86903 1
-2 -11 -8 2903.67 63.6763 -2
-2 11 9 2903.67 63.6763 1
2 -11 7 6821.22 40.2966 -2
2 11 -8 6821.22 40.2966 1
-2 11 -6 263.873 7.92713 -2
-2 -11 7 263.873 7.92713 1
2 11 5 917.723 17.3887 -2
2 -11 -6 917.723 17.3887 1
-2 11 -4 9665.64 43.2429 -2
-2 -11 5 9665.64 43.2429 1
2 11 3 10803.2 55.313 -2
2 -11 -4 10803.2 55.313 1
2 11 2 11484.1 47.1829 -2
2 -11 -3 11484.1 47.1829 1
2 11 1 14948.7 47.885 -2
2 -11 -2 14948.7 47.885 1
2 -11 0 4986.84 28.6946 -2
2 11 -1 4986.84 28.6946 1
2 -11 -1 4632.64 26.227 -2
2 11 0 4632.64 26.227 1
2 11 -2 17534.8 52.1159 -2
2 -11 1 17534.8 52.1159 1
2 11 -3 9362.92 32.0934 -2
2 -11 2 9362.92 32.0934 1
2 -11 -4 11903.9 34.6841 -2
2 11 3 11903.9 34.6841 1
2 11 -5 8290.5 39.8934 -2
2 -11 4 8290.5 39.8934 1
2 11 -6 850.911 12.7439 -2
2 -11 5 850.911 12.7439 1
-2 11 7 245.965 8.73068 -2
-2 -11 -6 245.965 8.73068 1
2 -11 -8 7519.74 39.2506 -2
2 11 7 7519.74 39.2506 1
2 11 -9 1541.64 20.0271 -2
2 -11 8 1541.64 20.0271 1
2 -11 -10 215.089 11.0003 -2
2 11 9 215.089 11.0003 1
-2 12 -9 1635.13 14.2309 -2
-2 -12 10 1635.13 14.2309 1
-2 12 -8 1834.16 31.3458 -2
-2 -12 9 1834.16 31.3458 1
2 12 7 518.338 17.1981 -2
2 -12 -8 518.338 17.1981 1
2 12 6 5068.02 40.0213 -2
2 -12 -7 5068.02 40.0213 1
-2 12 -5 3424.31 35.1443 -2
-2 -12 6 3424.31 35.1443 1
2 -12 4 1146.86 18.8567 -2
2 12 -5 1146.86 18.8567 1
2 12 3 11985.4 49.5786 -2
2 -12 -4 11985.4 49.5786 1
2 12 2 9143.26 44.1974 -2
2 -12 -3 9143.26 44.1974 1
2 -12 1 1129.54 14.0633 -2
2 12 -2 1129.54 14.0633 1
2 -12 0 11685.5 47.5785 -2
2 12 -1 11685.5 47.5785 1
2 -12 -1 11792.3 43.0167 -2
2 12 0 11792.3 43.0167 1
2 -12 -2 937.823 14.4692 -2
2 12 1 937.823 14.4692 1
2 12 -3 10720.2 36.7577 -2
2 -12 2 10720.2 36.7577 1
2 -12 -4 10038.9 34.2679 -2
2 12 3 10038.9 34.2679 1
2 12 -5 1089.47 17.2425 -2
2 -12 4 1089.47 17.2425 1
2 -12 -6 3055.6 21.9724 -2
2 12 5 3055.6 21.9724 1
-2 12 7 4811.44 30.8379 -2
-2 -12 -6 4811.44 30.8379 1
2 -12 -8 458.206 10.4187 -2
2 12 7 458.206 10.4187 1
2 12 -9 2519.33 23.3694 -2
2 -12 8 2519.33 23.3694 1
2 -12 -10 1634.95 20.165 -2
2 12 9 1634.95 20.165 1
2 13 9 70.8292 5.98353 -2
2 -13 -10 70.8292 5.98353 1
-2 13 -8 992.448 30.4942 -2
-2 -13 9 992.448 30.4942 1
2 13 7 2796.73 27.3346 -2
2 -13 -8 2796.73 27.3346 1
2 13 6 272.206 11.7449 -2
2 -13 -7 272.206 11.7449 1
2 13 5 7274.09 41.7672 -2
2 -13 -6 7274.09 41.7672 1
-2 13 -4 7774.51 35.8434 -2
-2 -13 5 7774.51 35.8434 1
2 13 3 465.413 14.1743 -2
2 -13 -4 465.413 14.1743 1
-2 -13 -2 2783.62 24.6578 -2
-2 13 3 2783.62 24.6578 1
2 -13 1 17812.1 68.7802 -2
2 13 -2 17812.1 68.7802 1
-2 -13 0 12397.7 42.4718 -2
-2 13 1 12397.7 42.4718 1
-2 -13 1 15084.5 68.8773 -2
-2 13 0 15084.5 68.8773 1
2 13 -2 15199 50.8928 -2
2 -13 1 15199 50.8928 1
2 -13 -3 2896.5 21.9948 -2
2 13 2 2896.5 21.9948 1
2 -13 -4 496.196 11.0658 -2
2 13 3 496.196 11.0658 1
2 13 -5 9088.23 39.9217 -2
2 -13 4 9088.23 39.9217 1
2 -13 -6 5416.79 30.9079 -2
2 13 5 5416.79 30.9079 1
-2 13 7 374.778 11.237 -2
-2 -13 -6 374.778 11.237 1
2 13 -8 2185.29 18.0102 -2
2 -13 7 2185.29 18.0102 1
2 -13 -9 1291.7 19.1673 -2
2 13 8 1291.7 19.1673 1
2 -13 -10 65.8141 6.77006 -2
2 13 9 65.8141 6.77006 1
2 14 9 2015.39 20.6608 -2
2 -14 -10 2015.39 20.6608 1
2 -14 8 426.398 9.71345 -2
2 14 -9 426.398 9.71345 1
2 14 7 380.593 12.4767 -2
2 -14 -8 380.593 12.4767 1
2 14 6 6634.81 47.383 -2
2 -14 -7 6634.81 47.383 1
2 -14 5 8860.59 45.6838 -2
2 14 -6 8860.59 45.6838 1
-2 -14 -4 2006.48 19.6132 -2
-2 14 5 2006.48 19.6132 1
2 -14 3 7901.06 39.7611 -2
2 14 -4 7901.06 39.7611 1
2 -14 2 6282.95 32.3449 -2
2 14 -3 6282.95 32.3449 1
2 -14 1 608.289 15.8773 -2
2 14 -2 608.289 15.8773 1
2 -14 0 14793.5 55.2593 -2
2 14 -1 14793.5 55.2593 1
-2 -14 1 13074 57.2864 -2
-2 14 0 13074 57.2864 1
2 14 -2 656.377 15.0129 -2
2 -14 1 656.377 15.0129 1
2 -14 -3 5376.24 33.6076 -2
2 14 2 5376.24 33.6076 1
2 -14 -4 8515.24 36.4693 -2
2 14 3 8515.24 36.4693 1
-2 14 5 1472.12 20.4813 -2
-2 -14 -4 1472.12 20.4813 1
2 -14 -6 10019.5 47.1742 -2
2 14 5 10019.5 47.1742 1
-2 14 7 5222.4 36.085 -2
-2 -14 -6 5222.4 36.085 1
-2 14 8 331.797 9.0551 -2
-2 -14 -7 331.797 9.0551 1
2 -14 -9 317.455 11.0649 -2
2 14 8 317.455 11.0649 1
-2 14 10 1803.34 22.853 -2
-2 -14 -9 1803.34 22.853 1
2 15 9 45.7815 8.145 -2
2 -15 -10 45.7815 8.145 1
-2 15 -8 1414.48 15.4767 -2
-2 -15 9 1414.48 15.4767 1
2 -15 7 2622.78 18.7894 -2
2 15 -8 2622.78 18.7894 1
2 15 6 407.725 13.8107 -2
2 -15 -7 407.725 13.8107 1
-2 15 -5 2570.87 27.8471 -2
-2 -15 6 2570.87 27.8471 1
2 -15 4 5336.81 25.8027 -2
2 15 -5 5336.81 25.8027 1
2 15 3 1509.55 19.1828 -2
2 -15 -4 1509.55 19.1828 1
2 -15 2 7292 41.3326 -2
2 15 -3 7292 41.3326 1
2 -15 1 14761.3 55.5573 -2
2 15 -2 14761.3 55.5573 1
2 -15 0 3199.48 25.1521 -2
2 15 -1 3199.48 25.1521 1
-2 15 1 3582.9 34.1213 -2
-2 -15 0 3582.9 34.1213 1
2 -15 -2 15808.6 51.4044 -2
2 15 1 15808.6 51.4044 1
2 15 -3 5982.85 36.4296 -2
2 -15 2 5982.85 36.4296 1
2 -15 -4 1685.52 16.8731 -2
2 15 3 1685.52 16.8731 1
2 15 -5 4403.61 36.4662 -2
2 -15 4 4403.61 36.4662 1
2 -15 -6 2160.38 30.5426 -2
2 15 5 2160.38 30.5426 1
-2 15 7 468.459 14.2698 -2
-2 -15 -6 468.459 14.2698 1
-2 15 8 2611.09 22.443 -2
-2 -15 -7 2611.09 22.443 1
2 -15 -9 1041.98 15.2513 -2
2 15 8 1041.98 15.2513 1
-2 -15 10 74.7656 10.4774 -2
-2 15 -9 74.7656 10.4774 1
-2 16 -8 938.731 13.0526 -2
-2 -16 9 938.731 13.0526 1
2 -16 7 967.599 15.0857 -2
2 16 -8 967.599 15.0857 1
-2 16 -6 4142.72 26.3927 -2
-2 -16 7 4142.72 26.3927 1
2 16 5 1927.91 20.5836 -2
2 -16 -6 1927.91 20.5836 1
2 16 4 30.6686 6.56063 -2
2 -16 -5 30.6686 6.56063 1
2 16 3 10088.3 39.8354 -2
2 -16 -4 10088.3 39.8354 1
2 16 2 6112.58 38.2653 -2
2 -16 -3 6112.58 38.2653 1
2 16 1 1166.9 17.7201 -2
2 -16 -2 1166.9 17.7201 1
2 -16 0 8611.29 43.4381 -2
2 16 -1 8611.29 43.4381 1
-2 16 1 9832.19 53.4184 -2
-2 -16 0 9832.19 53.4184 1
2 -16 -2 980.792 16.9134 -2
2 16 1 980.792 16.9134 1
2 -16 -3 7042.78 39.3531 -2
2 16 2 7042.78 39.3531 1
2 -16 -4 7102.4 30.4327 -2
2 16 3 7102.4 30.4327 1
2 16 -5 43.1467 12.7549 -2
2 -16 4 43.1467 12.7549 1
2 -16 -6 1263.02 23.6652 -2
2 16 5 1263.02 23.6652 1
-2 16 7 4132.9 33.53 -2
-2 -16 -6 4132.9 33.53 1
2 -16 -8 717.723 12.4217 -2
2 16 7 717.723 12.4217 1
2 -16 -9 1189.51 14.5346 -2
2 16 8 1189.51 14.5346 1
2 -17 8 1222.6 13.128 -2
2 17 -9 1222.6 13.128 1
2 -17 7 3185.91 22.3013 -2
2 17 -8 3185.91 22.3013 1
-2 17 -6 68.8548 7.624 -2
-2 -17 7 68.8548 7.624 1
-2 17 -5 2069.03 18.0611 -2
-2 -17 6 2069.03 18.0611 1
2 17 4 6741.29 38.4197 -2
2 -17 -5 6741.29 38.4197 1
2 -17 3 3628.09 27.0714 -2
2 17 -4 3628.09 27.0714 1
2 17 2 3841.87 30.9352 -2
2 -17 -3 3841.87 30.9352 1
2 17 1 11794 58.8849 -2
2 -17 -2 11794 58.8849 1
-2 -17 0 1378.75 22.0164 -2
-2 17 1 1378.75 22.0164 1
2 -17 -1 1515.55 23.5579 -2
2 17 0 1515.55 23.5579 1
2 -17 -2 11769 52.2612 -2
2 17 1 11769 52.2612 1
2 -17 -3 2854.74 22.9326 -2
2 17 2 2854.74 22.9326 1
2 -17 -4 4005.31 39.6874 -2
2 17 3 4005.31 39.6874 1
2 -17 -5 4986.03 65.3917 -2
2 17 4 4986.03 65.3917 1
2 -17 -6 1790.87 36.7891 -2
2 17 5 1790.87 36.7891 1
-2 17 7 54.1591 8.03871 -2
-2 -17 -6 54.1591 8.03871 1
-2 17 8 2994.61 20.6875 -2
-2 -17 -7 2994.61 20.6875 1
2 -17 -9 903.251 14.5194 -2
2 17 8 903.251 14.5194 1
2 -18 7 204.648 7.31168 -2
2 18 -8 204.648 7.31168 1
-2 18 -6 3142.12 21.0588 -2
-2 -18 7 3142.12 21.0588 1
2 18 5 2387.52 17.5923 -2
2 -18 -6 2387.52 17.5923 1
2 -18 4 727.134 17.1691 -2
2 18 -5 727.134 17.1691 1
2 18 3 9216.23 50.475 -2
2 -18 -4 9216.23 50.475 1
2 18 2 2849.47 31.194 -2
2 -18 -3 2849.47 31.194 1
2 18 1 1319.41 24.6634 -2
2 -18 -2 1319.41 24.6634 1
-2 18 0 8612.69 49.5672 -2
-2 -18 1 8612.69 49.5672 1
-2 18 1 8013.82 49.0319 -2
-2 -18 0 8013.82 49.0319 1
2 -18 -2 1123.67 18.4928 -2
2 18 1 1123.67 18.4928 1
2 -18 -3 2834.57 25.496 -2
2 18 2 2834.57 25.496 1
2 -18 -4 8939.17 65.105 -2
2 18 3 8939.17 65.105 1
2 -18 -5 440.137 17.4168 -2
2 18 4 440.137 17.4168 1
2 -18 -6 2852.61 43.4719 -2
2 18 5 2852.61 43.4719 1
-2 18 7 2619.78 24.0127 -2
-2 -18 -6 2619.78 24.0127 1
-2 18 8 152.981 6.14539 -2
-2 -18 -7 152.981 6.14539 1
-2 -18 9 316.69 14.1637 -2
-2 18 -8 316.69 14.1637 1
2 19 7 901.069 17.4483 -2
2 -19 -8 901.069 17.4483 1
-2 19 -6 777.748 10.8187 -2
-2 -19 7 777.748 10.8187 1
2 19 5 3957.21 25.4858 -2
2 -19 -6 3957.21 25.4858 1
2 19 4 6513.72 57.253 -2
2 -19 -5 6513.72 57.253 1
2 19 3 35.6442 10.7342 -2
2 -19 -4 35.6442 10.7342 1
2 19 2 2328.3 39.5299 -2
2 -19 -3 2328.3 39.5299 1
-2 -19 -1 13626.5 63.5261 -2
-2 19 2 13626.5 63.5261 1
-2 19 0 3173.24 33.6296 -2
-2 -19 1 3173.24 33.6296 1
2 -19 -1 4025.69 29.497 -2
2 19 0 4025.69 29.497 1
-2 19 2 10664.7 58.0245 -2
-2 -19 -1 10664.7 58.0245 1
2 -19 -3 2041.66 30.2977 -2
2 19 2 2041.66 30.2977 1
2 -19 -4 27.855 13.3169 -2
2 19 3 27.855 13.3169 1
2 -19 -5 7343.65 69.512 -2
2 19 4 7343.65 69.512 1
-2 19 6 3362.62 30.5047 -2
-2 -19 -5 3362.62 30.5047 1
-2 19 7 889.388 13.8786 -2
-2 -19 -6 889.388 13.8786 1
2 -19 -8 695.693 11.2753 -2
2 19 7 695.693 11.2753 1
2 20 7 236.04 14.4005 -2
2 -20 -8 236.04 14.4005 1
2 20 6 2541.29 21.8102 -2
2 -20 -7 2541.29 21.8102 1
2 20 5 2121.44 25.5576 -2
2 -20 -6 2121.44 25.5576 1
-2 20 -4 248.659 16.7044 -2
-2 -20 5 248.659 16.7044 1
2 20 3 5061.3 37.6262 -2
2 -20 -4 5061.3 37.6262 1
2 20 2 5373.09 41.5234 -2
2 -20 -3 5373.09 41.5234 1
2 20 1 841.346 22.5895 -2
2 -20 -2 841.346 22.5895 1
2 20 0 7900.61 66.3258 -2
2 -20 -1 7900.61 66.3258 1
2 -20 -1 6983.91 47.2219 -2
2 20 0 6983.91 47.2219 1
2 -20 -2 966.059 22.9914 -2
2 20 1 966.059 22.9914 1
2 -20 -3 4697.14 41.5383 -2
2 20 2 4697.14 41.5383 1
2 -20 -4 4322.35 42.7468 -2
2 20 3 4322.35 42.7468 1
-2 20 6 2259.49 23.8866 -2
-2 -20 -5 2259.49 23.8866 1
-2 20 7 2364.94 15.5492 -2
-2 -20 -6 2364.94 15.5492 1
2 -20 -8 175.038 6.89811 -2
2 20 7 175.038 6.89811 1
2 21 6 16.1183 6.53465 -2
2 -21 -7 16.1183 6.53465 1
2 21 5 690.391 19.4241 -2
2 -21 -6 690.391 19.4241 1
2 21 4 1825.22 31.2451 -2
2 -21 -5 1825.22 31.2451 1
2 21 3 1862.61 23.2273 -2
2 -21 -4 1862.61 23.2273 1
2 21 2 1110.84 20.8944 -2
2 -21 -3 1110.84 20.8944 1
2 21 1 8173.78 55.3582 -2
2 -21 -2 8173.78 55.3582 1
2 -21 0 945.095 18.8975 -2
2 21 -1 945.095 18.8975 1
2 -21 -1 874.049 19.0514 -2
2 21 0 874.049 19.0514 1
2 -21 -2 8949.51 49.9682 -2
2 21 1 8949.51 49.9682 1
2 -21 -3 732.919 25.2522 -2
2 21 2 732.919 25.2522 1
2 -21 -4 1993.77 28.4875 -2
2 21 3 1993.77 28.4875 1
2 -21 -5 1760.88 33.0982 -2
2 21 4 1760.88 33.0982 1
-2 21 6 634.52 11.0593 -2
-2 -21 -5 634.52 11.0593 1
-2 21 7 11.5184 4.61211 -2
-2 -21 -6 11.5184 4.61211 1
2 22 6 2556.44 35.3591 -2
2 -22 -7 2556.44 35.3591 1
2 22 5 667.14 16.5692 -2
2 -22 -6 667.14 16.5692 1
2 22 4 20.3354 10.3304 -2
2 -22 -5 20.3354 10.3304 1
2 22 3 7284.33 46.3312 -2
2 -22 -4 7284.33 46.3312 1
2 22 2 4834.66 35.8857 -2
2 -22 -3 4834.66 35.8857 1
2 22 1 501.317 17.3633 -2
2 -22 -2 501.317 17.3633 1
2 22 0 3731.16 33.6588 -2
2 -22 -1 3731.16 33.6588 1
2 22 -1 4004.26 38.3947 -2
2 -22 0 4004.26 38.3947 1
2 -22 -2 402.536 14.0199 -2
2 22 1 402.536 14.0199 1
2 -22 -3 5000.94 33.1224 -2
2 22 2 5000.94 33.1224 1
2 -22 -4 5582.72 34.2132 -2
2 22 3 5582.72 34.2132 1
2 -22 -5 64.576 11.614 -2
2 22 4 64.576 11.614 1
-2 22 6 539.953 10.1343 -2
-2 -22 -5 539.953 10.1343 1
2 -22 -7 2918.63 21.1026 -2
2 22 6 2918.63 21.1026 1
2 23 5 926.499 19.5711 -2
2 -23 -6 926.499 19.5711 1
2 23 4 2721.88 25.7585 -2
2 -23 -5 2721.88 25.7585 1
2 23 3 800.312 16.7362 -2
2 -23 -4 800.312 16.7362 1
2 23 2 2304.32 23.8383 -2
2 -23 -3 2304.32 23.8383 1
2 23 1 6337.19 32.8128 -2
2 -23 -2 6337.19 32.8128 1
2 23 0 1559.51 21.7237 -2
2 -23 -1 1559.51 21.7237 1
2 -23 -1 1753.97 24.8236 -2
2 23 0 1753.97 24.8236 1
2 -23 -2 5783.53 31.8619 -2
2 23 1 5783.53 31.8619 1
2 -23 -3 1998.02 20.5828 -2
2 23 2 1998.02 20.5828 1
2 -23 -4 803.581 17.493 -2
2 23 3 803.581 17.493 1
2 -23 -5 2878.96 32.5296 -2
2 23 4 2878.96 32.5296 1
-2 23 6 850.085 12.1841 -2
-2 -23 -5 850.085 12.1841 1
2 -24 5 2405.98 24.3811 -2
2 24 -6 2405.98 24.3811 1
2 24 4 467.167 13.8518 -2
2 -24 -5 467.167 13.8518 1
2 24 3 2549.21 26.7225 -2
2 -24 -4 2549.21 26.7225 1
2 24 2 1037.19 12.9162 -2
2 -24 -3 1037.19 12.9162 1
2 24 1 198.298 8.53617 -2
2 -24 -2 198.298 8.53617 1
2 -24 0 4915.48 32.3412 -2
2 24 -1 4915.48 32.3412 1
2 24 -1 4167.93 23.3457 -2
2 -24 0 4167.93 23.3457 1
2 -24 -2 195.388 10.9421 -2
2 24 1 195.388 10.9421 1
2 -24 -3 863.836 13.2179 -2
2 24 2 863.836 13.2179 1
2 -24 -4 2724.44 21.4343 -2
2 24 3 2724.44 21.4343 1
-2 24 5 354.326 8.18818 -2
-2 -24 -4 354.326 8.18818 1
2 24 -6 1951.45 26.151 -2
2 -24 5 1951.45 26.151 1
2 -25 4 2639.89 15.5372 -2
2 25 -5 2639.89 15.5372 1
2 -25 3 452.246 7.91245 -2
2 25 -4 452.246 7.91245 1
2 25 2 622.165 9.97375 -2
2 -25 -3 622.165 9.97375 1
2 25 1 3868.72 20.0844 -2
2 -25 -2 3868.72 20.0844 1
2 -25 0 1096.19 14.1027 -2
2 25 -1 1096.19 14.1027 1
2 -25 -1 1199.75 12.8682 -2
2 25 0 1199.75 12.8682 1
2 -25 -2 3508.23 19.4891 -2
2 25 1 3508.23 19.4891 1
2 -25 -3 700.342 16.9278 -2
2 25 2 700.342 16.9278 1
2 25 -4 477.941 8.25523 -2
2 -25 3 477.941 8.25523 1
2 -25 -5 2485.63 30.9073 -2
2 25 4 2485.63 30.9073 1
2 -26 3 1769.03 16.6044 -2
2 26 -4 1769.03 16.6044 1
2 -26 2 1639.86 16.0472 -2
2 26 -3 1639.86 16.0472 1
2 26 1 433.444 7.8715 -2
2 -26 -2 433.444 7.8715 1
2 -26 0 2325.76 15.7334 -2
2 26 -1 2325.76 15.7334 1
2 26 -1 2402.28 15.6333 -2
2 -26 0 2402.28 15.6333 1
2 26 -2 337.898 9.30752 -2
2 -26 1 337.898 9.30752 1
2 -26 -3 1793.02 20.3785 -2
2 26 2 1793.02 20.3785 1
2 26 -4 1478.06 12.2779 -2
2 -26 3 1478.06 12.2779 1
2 27 2 1212.2 22.5382 -2
2 -27 -3 1212.2 22.5382 1
2 27 1 1502.52 13.2199 -2
2 -27 -2 1502.52 13.2199 1
2 27 0 169.904 10.646 -2
2 -27 -1 169.904 10.646 1
2 27 -1 157.717 7.35736 -2
2 -27 0 157.717 7.35736 1
2 27 -2 1774.54 13.8313 -2
2 -27 1 1774.54 13.8313 1
2 27 -3 1052.51 19.419 -2
2 -27 2 1052.51 19.419 1
3 0 -10 145.362 11.9723 1
3 0 -8 1245.26 14.7847 1
3 0 -6 15541.3 55.046 1
3 0 -4 2651.28 15.4709 1
3 0 -2 6459.54 19.4335 1
3 0 0 12548.1 32.8707 1
3 0 2 34.1714 3.75135 1
-3 0 -4 12409.8 40.7049 1
3 0 6 4803.86 34.1833 1
3 0 8 395.213 11.096 1
3 1 -10 169.564 12.2825 1
3 1 -9 19.5667 6.42221 1
3 -1 -8 711.156 8.71233 1
3 -1 -7 2320.34 14.5997 1
3 -1 -6 207.86 7.16621 1
-3 -1 5 2213.29 13.2016 1
3 -1 -4 2677.8 10.5479 1
3 1 -3 679.095 5.80562 1
3 1 -2 1646.37 8.46097 1
3 1 -1 11770.7 25.2589 1
3 1 0 2947.33 11.1111 1
3 -1 1 3784.12 9.95257 1
3 -1 2 4644.1 9.45977 1
3 1 3 2665.66 8.57837 1
3 -1 4 288.261 6.2382 1
-3 1 -5 4751.78 19.4256 1
3 -1 6 950.865 15.1814 1
3 1 7 336.157 10.963 1
3 1 8 663.262 10.4251 1
3 1 9 646.816 16.4283 1
3 2 -10 141.468 11.0562 1
3 -2 -9 2364.66 19.0655 1
3 2 -8 17.0751 5.2951 1
3 -2 -7 521.051 9.30225 1
3 -2 -6 721.944 9.04674 1
3 2 -5 2771.43 12.9116 1
3 2 -4 64.2175 4.10318 1
3 2 -3 8887.66 18.2724 1
3 -2 -2 1273.52 8.42837 1
3 2 -1 885.298 6.85835 1
3 2 0 2479.64 10.2166 1
3 -2 1 8220.67 14.4891 1
3 2 2 168.59 3.39297 1
-3 -2 -3 7642.72 15.1869 1
3 2 4 507.196 6.5845 1
3 -2 5 85.2939 5.54035 1
3 -2 6 271.834 10.8293 1
3 -2 7 2781.09 15.8789 1
3 2 8 3.54632 5.83536 1
3 2 9 367.183 13.6962 1
3 -3 -10 824.69 12.8834 1
3 -3 -9 4.56615 4.97052 1
3 3 -8 2284.11 14.6915 1
3 -3 -7 277.461 7.28028 1
3 3 -6 601.601 8.02803 1
3 3 -5 12.7174 3.66731 1
3 3 -4 15681.4 28.003 1
3 3 -3 20.5948 3.64022 1
3 3 -2 5914.88 13.3089 1
3 3 -1 193.152 4.12243 1
3 3 0 1795.36 7.476 1
3 3 1 50.3527 3.3955 1
3 -3 2 12519.8 15.9454 1
3 3 3 190.47 4.31893 1
3 3 4 1402.7 8.63924 1
3 3 5 92.8455 5.93992 1
3 -3 6 4985.64 29.1282 1
3 -3 7 4.42945 5.50858 1
3 3 8 2571.15 24.9729 1
3 -3 9 8.14381 5.79298 1
3 4 -10 184.801 6.23591 1
-3 4 9 795.401 8.59033 1
3 -4 -8 418.09 8.23567 1
3 -4 -7 375.458 9.93662 1
3 -4 -6 3163.64 16.7561 1
3 -4 -5 753.056 7.36474 1
3 4 -4 2080.98 12.0372 1
3 4 -3 7309.14 17.1606 1
3 4 -2 5193.13 11.953 1
3 -4 -1 146.95 3.78473 1
3 4 0 3580.91 9.50518 1
3 4 1 7634.95 15.1021 1
3 4 2 134.018 4.04479 1
3 4 3 4965.24 14.8093 1
3 -4 4 2791.78 12.8725 1
3 4 5 22.4841 5.2519 1
3 -4 6 1237.38 15.1474 1
3 -4 7 2084.94 17.38 1
3 4 8 35.482 7.78343 1
3 -4 9 63.1505 9.40612 1
-3 -5 10 10.9077 4.13655 1
3 5 -9 15.4048 4.18737 1
3 -5 -8 136.952 7.05209 1
3 -5 -7 3011.92 19.7329 1
3 5 -6 46.0209 6.22908 1
3 -5 -5 3160.35 13.435 1
3 5 -4 385.071 6.90925 1
3 5 -3 965.515 6.83563 1
3 5 -2 513.903 5.34593 1
3 5 -1 15589.7 21.7873 1
3 5 0 38.2012 3.21807 1
3 5 1 6164.05 12.7939 1
3 -5 2 585.729 5.74418 1
3 5 3 3751.33 13.2427 1
3 5 4 10.5268 4.84086 1
3 5 5 11072.9 30.3802 1
3 -5 6 0.70587 6.99168 1
3 -5 7 261.318 8.34174 1
3 -5 8 15.5512 8.43693 1
3 6 -10 476.196 8.55925 1
3 -6 -9 246.268 5.51823 1
3 -6 -8 1023.6 16.9566 1
3 6 -7 237.936 8.69228 1
3 -6 -6 5045.86 21.3146 1
3 -6 -5 357.25 6.37586 1
3 6 -4 213.731 5.51222 1
3 6 -3 1565.66 8.44526 1
3 -6 -2 10364 18.9376 1
3 -6 -1 830.169 6.21883 1
3 6 0 11858.9 17.0913 1
3 -6 1 1010.71 5.78882 1
3 6 2 109.241 4.16123 1
3 -6 3 780.345 7.97238 1
3 6 4 8418.4 29.5641 1
3 -6 5 101.829 6.5039 1
3 -6 6 1850.37 17.0145 1
3 6 7 163.47 6.2376 1
3 -6 8 140.652 6.25651 1
3 7 -10 309.813 7.93503 1
-3 -7 9 5.67234 3.74754 1
3 7 -8 1084.94 19.0561 1
3 -7 -7 678.636 9.89237 1
3 -7 -6 203.874 6.62064 1
3 -7 -5 1347.2 9.88373 1
3 7 -4 6285.4 19.8412 1
3 7 -3 262.381 4.59384 1
3 -7 -2 4527.41 12.5026 1
3 7 -1 6089.77 15.0757 1
3 -7 0 2485.74 8.79462 1
3 7 1 1151.63 7.02475 1
3 7 2 5453.72 17.6363 1
3 -7 3 101.629 5.3631 1
3 -7 4 201.069 7.72707 1
3 -7 5 1141.97 12.3257 1
3 -7 6 1052.69 12.5376 1
3 -7 7 58.9397 5.46365 1
3 7 8 1665.81 13.3083 1
3 8 -10 7.02243 4.24482 1
3 8 -9 1418.68 11.043 1
3 -8 -8 7.01673 9.21719 1
3 -8 -7 732.271 11.5582 1
3 -8 -6 26.0208 4.79187 1
3 8 -5 3289.98 13.5568 1
3 8 -4 241.358 5.15669 1
3 -8 -3 6748.22 15.8997 1
3 -8 -2 34.5562 3.83587 1
3 -8 -1 18.5377 3.74637 1
3 8 0 50.3161 3.63115 1
3 8 1 9682.6 17.6219 1
3 -8 2 144.107 5.78355 1
3 -8 3 13118.5 30.7974 1
3 -8 4 554.556 10.8529 1
3 -8 5 17.8872 6.58659 1
3 -8 6 -1.85109 6.29415 1
3 -8 7 3887.91 17.2933 1
3 8 8 8.12463 4.79931 1
3 -9 -10 302.137 9.9315 1
3 9 -9 10.6007 5.60251 1
3 9 -8 2047.57 16.4158 1
3 -9 -7 488.141 7.63961 1
3 -9 -6 54.8725 5.17318 1
3 9 -5 1028.36 9.0351 1
3 9 -4 5956.46 17.5576 1
3 -9 -3 297.764 5.12443 1
3 -9 -2 5097.43 16.2361 1
3 -9 -1 2641.28 10.196 1
3 -9 0 1968.64 8.42389 1
3 9 1 1047.36 7.67245 1
3 -9 2 11964.8 25.4364 1
3 -9 3 616.283 9.53509 1
3 -9 4 865.096 12.1258 1
3 -9 5 1018.88 10.7856 1
3 -9 6 1614.95 14.184 1
3 9 7 27.1688 5.50424 1
3 9 8 1406.69 16.0748 1
3 10 -9 164.751 5.37468 1
3 10 -8 586.496 8.4994 1
3 -10 -7 77.7782 5.78336 1
3 -10 -6 4330.3 17.2262 1
3 10 -5 383.988 6.99112 1
3 -10 -4 852.558 9.68441 1
3 -10 -3 1192.24 8.96298 1
3 -10 -2 3824.39 14.6811 1
3 -10 -1 27.6837 3.98983 1
3 -10 0 9550.31 17.3145 1
3 10 1 1228.38 9.94862 1
3 10 2 651.588 7.78262 1
3 -10 3 463.014 8.07704 1
3 -10 4 5138.56 24.9252 1
3 -10 5 50.5784 5.74386 1
3 -10 6 1532.82 15.0678 1
3 10 7 851.404 16.3985 1
3 10 8 189.753 7.2197 1
3 11 -9 1.37335 3.42329 1
3 -11 -8 62.7634 5.87904 1
3 11 -7 2544.51 14.3629 1
3 -11 -6 15.8393 5.89589 1
3 11 -5 2725.99 17.4125 1
3 11 -4 44.7232 5.32354 1
3 -11 -3 1824.81 12.395 1
3 -11 -2 29.7712 4.68531 1
3 -11 -1 8093.12 18.7944 1
3 11 0 275.123 5.75832 1
3 11 1 5029.72 21.0603 1
3 11 2 979.06 9.56286 1
3 -11 3 1209.3 11.1573 1
3 -11 4 193.048 8.64276 1
3 -11 5 6812.09 23.8945 1
3 11 6 16.9746 6.57389 1
3 11 7 182.703 9.41175 1
3 11 8 2.25916 3.89757 1
3 12 -9 298.388 5.66626 1
3 12 -8 494.006 8.39878 1
3 -12 -7 89.7273 5.14856 1
3 -12 -6 2574.08 18.6092 1
3 12 -5 681.744 11.8105 1
3 -12 -4 308.375 6.99524 1
3 -12 -3 3021.34 15.9795 1
3 -12 -2 2659.14 14.7624 1
3 12 -1 8.23052 4.61382 1
3 -12 0 4151.21 15.0872 1
3 -12 1 1774.62 13.6796 1
3 12 2 716.404 8.7797 1
3 -12 3 1116.45 12.1694 1
3 -12 4 4303.04 35.5589 1
3 12 5 28.7844 6.01565 1
3 12 6 2483.84 17.9239 1
3 12 7 1317.07 17.6381 1
3 13 -9 5.78783 3.67187 1
3 13 -8 1663.52 12.1438 1
3 13 -7 110.987 4.8555 1
3 -13 -6 92.31 6.29429 1
3 13 -5 324.442 9.43717 1
3 13 -4 5198.28 20.1271 1
3 -13 -3 31.5869 5.54466 1
3 -13 -2 4646.68 17.9175 1
3 -13 -1 355.729 6.79494 1
3 -13 0 1158.11 11.5762 1
3 13 1 246.926 7.01326 1
3 13 2 5646.16 19.6401 1
3 13 3 606.103 9.80492 1
3 13 4 332.884 12.0277 1
3 13 5 310.925 7.71275 1
3 13 6 1685.81 14.2803 1
3 13 7 18.5558 6.04566 1
3 14 -8 56.7913 5.12315 1
3 -14 -7 414.486 6.27149 1
3 -14 -6 282.038 7.67241 1
3 14 -5 1566.46 13.5927 1
3 -14 -4 44.258 5.70592 1
3 -14 -3 3960.72 18.0222 1
3 -14 -2 295.37 6.83721 1
3 -14 -1 104.869 5.9529 1
3 -14 0 360.451 7.93119 1
3 14 1 5145.57 20.3115 1
3 14 2 93.6253 6.4293 1
3 14 3 7621.03 29.708 1
3 14 4 1599.26 19.9845 1
3 14 5 245.719 6.93636 1
3 14 6 127.71 8.10934 1
3 14 7 2853.61 21.0703 1
3 15 -8 283.824 6.03061 1
3 -15 -7 819.677 8.23202 1
3 15 -6 47.0667 5.44315 1
3 15 -5 1703.93 14.8221 1
3 -15 -4 2085.02 13.7331 1
3 -15 -3 18.4359 6.02838 1
3 -15 -2 1276.22 11.2371 1
3 -15 -1 3690.66 20.9327 1
3 -15 0 925.967 10.4354 1
3 15 1 662.351 8.57894 1
3 15 2 1492.89 12.3258 1
3 15 3 962.483 11.7882 1
3 15 4 274.231 9.5391 1
3 15 5 2238.25 15.7509 1
3 15 6 540.473 9.77764 1
3 15 7 126.24 5.51466 1
-3 16 8 312.394 9.10212 1
3 -16 -7 8.98261 3.62007 1
3 -16 -6 3043.11 15.8878 1
3 16 -5 9.8352 5.49899 1
3 16 -4 261.961 8.96143 1
3 -16 -3 11.8675 5.71136 1
3 -16 -2 3955.46 20.5069 1
3 -16 -1 6.91056 7.3931 1
3 -16 0 3504.98 17.2851 1
3 16 1 87.8325 5.82708 1
3 16 2 24.837 5.47693 1
3 16 3 115.928 7.1897 1
3 16 4 4431.44 31.6068 1
3 16 5 26.5185 4.9167 1
3 16 6 969.729 18.7229 1
3 -17 -7 989.456 16.9733 1
3 17 -6 16.3169 5.04941 1
3 17 -5 1009.84 13.8416 1
3 17 -4 946.2 12.1014 1
3 -17 -3 272.361 6.76479 1
3 -17 -2 307.539 9.22237 1
3 -17 -1 4433.45 21.4741 1
3 17 0 112.413 6.49434 1
3 17 1 2255.86 13.7976 1
3 17 2 903.142 9.47485 1
3 17 3 1117.39 10.865 1
3 17 4 11.702 7.53303 1
3 17 5 3005.18 15.2341 1
3 17 6 102.787 8.72939 1
3 18 -7 155.973 7.55387 1
3 -18 -6 506.686 7.52972 1
3 18 -5 423.716 9.40317 1
3 18 -4 313.289 11.0004 1
3 -18 -3 1955.23 14.6977 1
3 -18 -2 1131.16 11.4634 1
3 18 -1 32.1524 5.73027 1
3 18 0 1104.75 10.5127 1
3 18 1 4511.09 17.7966 1
3 -18 2 4.96019 4.80854 1
3 18 3 2111.54 14.7186 1
3 18 4 833.495 10.324 1
3 18 5 5.45384 4.21937 1
3 18 6 223.957 7.3128 1
-3 19 7 122.039 9.16675 1
3 19 -6 17.5957 3.72415 1
3 -19 -5 220.332 6.2922 1
3 19 -4 4256.53 34.1872 1
3 -19 -3 77.5056 6.42066 1
3 -19 -2 1533.74 11.3998 1
3 19 -1 6.042 5.1568 1
3 19 0 912.661 9.66852 1
3 19 1 7.33866 4.65507 1
3 -19 2 4928.13 19.6353 1
3 19 3 49.6919 6.33742 1
3 19 4 591.808 7.38998 1
3 19 5 81.1394 4.17429 1
3 20 -6 629.457 9.1234 1
3 -20 -5 826.741 11.1267 1
3 -20 -4 49.3788 10.1421 1
3 -20 -3 1975.57 12.9982 1
3 -20 -2 1140.88 9.28106 1
3 20 -1 240.195 7.11872 1
3 20 0 1452.58 9.93893 1
3 20 1 1811.68 13.1215 1
3 20 2 39.411 4.36504 1
3 20 3 1736.94 15.5718 1
3 20 4 754.405 6.5749 1
3 20 5 -1.70857 5.15874 1
3 -21 -5 230.057 6.85987 1
3 21 -4 256.941 9.08343 1
3 -21 -3 355.644 7.11074 1
3 -21 -2 134.526 5.31432 1
3 21 -1 3427.82 21.9224 1
3 21 0 90.3475 4.87778 1
3 -21 1 944.756 9.20003 1
3 21 2 357.638 6.76941 1
3 21 3 595.939 12.3161 1
3 21 4 6.03917 3.72543 1
3 -22 -5 119.3 5.89288 1
3 22 -4 108.149 7.30262 1
3 -22 -3 157.2 6.2029 1
3 -22 -2 1619.63 10.3297 1
3 22 -1 11.4699 5.06835 1
3 22 0 2498.62 15.7809 1
3 -22 1 74.0272 5.0762 1
3 22 2 1.13419 4.12121 1
3 22 3 102.49 6.23558 1
3 23 -4 728.798 9.83448 1
3 23 -3 76.5981 4.90314 1
3 -23 -2 551.577 6.52151 1
3 23 -1 1544.44 11.5005 1
3 23 0 602.055 9.20723 1
3 -23 1 307.766 6.88705 1
3 23 2 1330.99 14.652 1
3 24 -3 949.369 17.0207 1
3 24 -2 11.0732 5.25716 1
3 24 -1 57.2247 5.71576 1
3 24 0 32.0529 3.68158 1
3 -24 1 984.879 14.9957 1
4 0 6 3275.77 30.274 -2
4 0 -8 3275.77 30.274 1
4 0 4 3721.03 31.1138 -2
4 0 -6 3721.03 31.1138 1
4 0 2 9417.48 40.8924 -2
4 0 -4 9417.48 40.8924 1
4 0 0 5139.37 28.5155 -2
4 0 -2 5139.37 28.5155 1
4 0 -2 4574.37 23.9219 -2
4 0 0 4574.37 23.9219 1
4 0 -4 9482.12 52.6727 -2
4 0 2 9482.12 52.6727 1
4 0 -6 3085.26 38.4394 -2
4 0 4 3085.26 38.4394 1
4 0 -8 2190.44 31.9589 -2
4 0 6 2190.44 31.9589 1
4 -1 6 1295.82 15.1793 -2
4 1 -8 1295.82 15.1793 1
4 -1 5 813.469 12.793 -2
4 1 -7 813.469 12.793 1
4 -1 4 1291.67 15.8623 -2
4 1 -6 1291.67 15.8623 1
4 -1 3 3690.59 26.4079 -2
4 1 -5 3690.59 26.4079 1
4 1 2 657.467 10.083 -2
4 -1 -4 657.467 10.083 1
4 1 1 5606.44 22.1708 -2
4 -1 -3 5606.44 22.1708 1
4 1 0 2854.1 15.6352 -2
4 -1 -2 2854.1 15.6352 1
4 -1 -1 2541.63 17.7349 -2
4 1 -1 2541.63 17.7349 1
4 -1 -2 3076.33 15.7012 -2
4 1 0 3076.33 15.7012 1
4 1 -3 5279.6 17.7707 -2
4 -1 1 5279.6 17.7707 1
4 1 -4 601.894 12.5692 -2
4 -1 2 601.894 12.5692 1
4 1 -5 3632.9 22.544 -2
4 -1 3 3632.9 22.544 1
4 1 -6 1008.89 20.3119 -2
4 -1 4 1008.89 20.3119 1
4 1 -7 553.091 17.3459 -2
4 -1 5 553.091 17.3459 1
4 1 -8 910.93 15.8407 -2
4 -1 6 910.93 15.8407 1
4 -2 6 212.586 7.25013 -2
4 2 -8 212.586 7.25013 1
4 2 5 3788.07 23.6751 -2
4 -2 -7 3788.07 23.6751 1
4 -2 4 211.314 8.84323 -2
4 2 -6 211.314 8.84323 1
4 2 3 2635.22 19.0177 -2
4 -2 -5 2635.22 19.0177 1
4 2 2 848.141 10.2429 -2
4 -2 -4 848.141 10.2429 1
4 2 1 3516.62 17.9227 -2
4 -2 -3 3516.62 17.9227 1
4 2 0 802.969 9.41517 -2
4 -2 -2 802.969 9.41517 1
4 -2 -1 7535.12 28.5414 -2
4 2 -1 7535.12 28.5414 1
4 2 -2 703.056 9.18345 -2
4 -2 0 703.056 9.18345 1
4 2 -3 3919.17 17.3082 -2
4 -2 1 3919.17 17.3082 1
4 2 -4 819.039 10.7739 -2
4 -2 2 819.039 10.7739 1
4 -2 -5 1938.49 19.8078 -2
4 2 3 1938.49 19.8078 1
4 2 -6 197.847 13.8882 -2
4 -2 4 197.847 13.8882 1
4 2 -7 3213.98 47.2674 -2
4 -2 5 3213.98 47.2674 1
4 2 -8 123.387 9.39281 -2
4 -2 6 123.387 9.39281 1
4 3 6 2492.94 31.1097 -2
4 -3 -8 2492.94 31.1097 1
4 -3 5 13.5964 7.25544 -2
4 3 -7 13.5964 7.25544 1
4 -3 4 7315.44 33.0853 -2
4 3 -6 7315.44 33.0853 1
4 3 3 128.732 8.42161 -2
4 -3 -5 128.732 8.42161 1
4 3 2 2349.44 15.1516 -2
4 -3 -4 2349.44 15.1516 1
4 3 1 191.777 6.24051 -2
4 -3 -3 191.777 6.24051 1
4 3 0 6600.76 21.5664 -2
4 -3 -2 6600.76 21.5664 1
4 3 -1 52.3933 6.44056 -2
4 -3 -1 52.3933 6.44056 1
4 3 -2 7513.06 24.0115 -2
4 -3 0 7513.06 24.0115 1
4 3 -3 181.046 6.90019 -2
4 -3 1 181.046 6.90019 1
4 3 -4 1928.22 14.7561 -2
4 -3 2 1928.22 14.7561 1
4 3 -5 140.255 11.0042 -2
4 -3 3 140.255 11.0042 1
4 3 -6 6409.59 42.0596 -2
4 -3 4 6409.59 42.0596 1
4 3 -7 49.1621 15.6086 -2
4 -3 5 49.1621 15.6086 1
4 3 -8 2390.56 22.1195 -2
4 -3 6 2390.56 22.1195 1
4 4 6 782.702 13.2465 -2
4 -4 -8 782.702 13.2465 1
4 -4 5 2235.32 16.5721 -2
4 4 -7 2235.32 16.5721 1
4 4 4 1324.55 15.9097 -2
4 -4 -6 1324.55 15.9097 1
4 -4 3 1815.83 18.8127 -2
4 4 -5 1815.83 18.8127 1
4 4 2 3109.05 18.8802 -2
4 -4 -4 3109.05 18.8802 1
4 4 1 2371.02 14.258 -2
4 -4 -3 2371.02 14.258 1
4 4 0 1521.5 11.4517 -2
4 -4 -2 1521.5 11.4517 1
4 4 -1 5974.78 21.2707 -2
4 -4 -1 5974.78 21.2707 1
4 -4 -2 1354.78 12.9894 -2
4 4 0 1354.78 12.9894 1
4 4 -3 2675.57 16.4121 -2
4 -4 1 2675.57 16.4121 1
4 4 -4 2908.73 20.0419 -2
4 -4 2 2908.73 20.0419 1
4 -4 -5 1296.87 20.6366 -2
4 4 3 1296.87 20.6366 1
4 4 -6 1166.18 20.9247 -2
4 -4 4 1166.18 20.9247 1
4 4 -7 1993.51 37.8338 -2
4 -4 5 1993.51 37.8338 1
4 4 -8 412.994 11.667 -2
4 -4 6 412.994 11.667 1
4 -5 6 17.6348 6.09052 -2
4 5 -8 17.6348 6.09052 1
4 -5 5 876.079 12.241 -2
4 5 -7 876.079 12.241 1
4 -5 4 182.643 9.603 -2
4 5 -6 182.643 9.603 1
4 5 3 6839.05 42.8713 -2
4 -5 -5 6839.05 42.8713 1
4 5 2 112.553 7.09289 -2
4 -5 -4 112.553 7.09289 1
4 5 1 7185.73 23.0327 -2
4 -5 -3 7185.73 23.0327 1
4 5 0 216.229 7.28402 -2
4 -5 -2 216.229 7.28402 1
4 -5 -1 4013.73 18.0833 -2
4 5 -1 4013.73 18.0833 1
4 5 -2 236.258 7.90387 -2
4 -5 0 236.258 7.90387 1
4 5 -3 6756.74 27.5207 -2
4 -5 1 6756.74 27.5207 1
4 5 -4 73.6385 8.79249 -2
4 -5 2 73.6385 8.79249 1
4 -5 -5 7128.29 41.0453 -2
4 5 3 7128.29 41.0453 1
4 5 -6 120.729 14.3278 -2
4 -5 4 120.729 14.3278 1
4 5 -7 632.45 17.6341 -2
4 -5 5 632.45 17.6341 1
4 5 -8 27.2914 7.22651 -2
4 -5 6 27.2914 7.22651 1
4 -6 6 1368.69 12.6126 -2
4 6 -8 1368.69 12.6126 1
4 -6 5 303.659 8.54007 -2
4 6 -7 303.659 8.54007 1
4 6 4 1049.11 15.5582 -2
4 -6 -6 1049.11 15.5582 1
4 6 3 402.157 14.0772 -2
4 -6 -5 402.157 14.0772 1
4 6 2 7826.38 29.2201 -2
4 -6 -4 7826.38 29.2201 1
4 6 1 697.774 9.73516 -2
4 -6 -3 697.774 9.73516 1
4 6 0 4476.01 19.2603 -2
4 -6 -2 4476.01 19.2603 1
4 -6 -1 595.107 9.90174 -2
4 6 -1 595.107 9.90174 1
4 -6 -2 4191.8 17.8836 -2
4 6 0 4191.8 17.8836 1
4 6 -3 707.678 12.8915 -2
4 -6 1 707.678 12.8915 1
4 6 -4 7669.04 35.0699 -2
4 -6 2 7669.04 35.0699 1
4 -6 -5 266.504 12.4242 -2
4 6 3 266.504 12.4242 1
4 6 -6 968.497 22.6855 -2
4 -6 4 968.497 22.6855 1
4 6 -7 255.454 13.3318 -2
4 -6 5 255.454 13.3318 1
4 -6 -8 808.695 17.5518 -2
4 6 6 808.695 17.5518 1
4 -7 6 1677.99 24.6807 -2
4 7 -8 1677.99 24.6807 1
4 -7 5 305.192 7.05767 -2
4 7 -7 305.192 7.05767 1
4 7 4 3113.16 22.7195 -2
4 -7 -6 3113.16 22.7195 1
4 -7 3 745.507 17.2963 -2
4 7 -5 745.507 17.2963 1
4 7 2 1329.74 14.0497 -2
4 -7 -4 1329.74 14.0497 1
4 7 1 2113.55 13.956 -2
4 -7 -3 2113.55 13.956 1
4 7 0 3154.78 16.3471 -2
4 -7 -2 3154.78 16.3471 1
4 -7 -1 667.274 10.5705 -2
4 7 -1 667.274 10.5705 1
4 -7 -2 3393.07 18.9654 -2
4 7 0 3393.07 18.9654 1
4 7 -3 1910.91 18.6384 -2
4 -7 1 1910.91 18.6384 1
4 7 -4 969.523 17.5639 -2
4 -7 2 969.523 17.5639 1
4 -7 -5 777.92 15.9127 -2
4 7 3 777.92 15.9127 1
4 7 -6 2008.1 29.2971 -2
4 -7 4 2008.1 29.2971 1
4 7 -7 228.329 12.7574 -2
4 -7 5 228.329 12.7574 1
4 -7 -8 1198.61 18.2405 -2
4 7 6 1198.61 18.2405 1
4 -8 5 3853.39 20.9799 -2
4 8 -7 3853.39 20.9799 1
4 8 4 48.661 9.1743 -2
4 -8 -6 48.661 9.1743 1
4 -8 3 1897.56 20.3805 -2
4 8 -5 1897.56 20.3805 1
4 8 2 238.05 8.34245 -2
4 -8 -4 238.05 8.34245 1
4 8 1 4844.65 24.6585 -2
4 -8 -3 4844.65 24.6585 1
4 -8 0 29.2917 6.88788 -2
4 8 -2 29.2917 6.88788 1
4 -8 -1 8944.62 30.2634 -2
4 8 -1 8944.62 30.2634 1
4 8 -2 15.4705 8.1184 -2
4 -8 0 15.4705 8.1184 1
4 8 -3 5696.58 28.6615 -2
4 -8 1 5696.58 28.6615 1
4 8 -4 243.682 11.4489 -2
4 -8 2 243.682 11.4489 1
4 -8 -5 1234.19 21.1452 -2
4 8 3 1234.19 21.1452 1
4 8 -6 20.5363 9.29291 -2
4 -8 4 20.5363 9.29291 1
4 -8 -7 3931.02 44.7695 -2
4 8 5 3931.02 44.7695 1
4 -9 5 225.942 8.66954 -2
4 9 -7 225.942 8.66954 1
4 9 4 2769.09 17.5135 -2
4 -9 -6 2769.09 17.5135 1
4 -9 3 663.74 13.2382 -2
4 9 -5 663.74 13.2382 1
4 9 2 1528.19 14.8467 -2
4 -9 -4 1528.19 14.8467 1
4 9 1 1153.38 13.4658 -2
4 -9 -3 1153.38 13.4658 1
4 9 0 5877.68 25.0928 -2
4 -9 -2 5877.68 25.0928 1
4 -9 -1 814.509 11.9265 -2
4 9 -1 814.509 11.9265 1
4 -9 -2 6223.89 33.7049 -2
4 9 0 6223.89 33.7049 1
4 -9 -3 1057.76 13.7538 -2
4 9 1 1057.76 13.7538 1
4 9 -4 1326.75 20.6892 -2
4 -9 2 1326.75 20.6892 1
4 9 -5 620.595 13.9342 -2
4 -9 3 620.595 13.9342 1
4 9 -6 2180.38 22.9048 -2
4 -9 4 2180.38 22.9048 1
4 -9 -7 154.33 14.9458 -2
4 9 5 154.33 14.9458 1
4 10 5 914.576 11.7367 -2
4 -10 -7 914.576 11.7367 1
4 10 4 1180.85 13.0411 -2
4 -10 -6 1180.85 13.0411 1
4 -10 3 421.47 11.5272 -2
4 10 -5 421.47 11.5272 1
4 10 2 4251.63 21.4253 -2
4 -10 -4 4251.63 21.4253 1
4 10 1 240.039 9.40359 -2
4 -10 -3 240.039 9.40359 1
4 10 0 3404.94 21.9895 -2
4 -10 -2 3404.94 21.9895 1
4 -10 -1 969.941 16.8619 -2
4 10 -1 969.941 16.8619 1
4 -10 -2 3089.78 24.1838 -2
4 10 0 3089.78 24.1838 1
4 -10 -3 262.139 13.6666 -2
4 10 1 262.139 13.6666 1
4 -10 -4 3564.54 45.6342 -2
4 10 2 3564.54 45.6342 1
4 -10 -5 258.751 11.8665 -2
4 10 3 258.751 11.8665 1
4 -10 -6 916.816 18.6627 -2
4 10 4 916.816 18.6627 1
4 -10 -7 754.286 19.7026 -2
4 10 5 754.286 19.7026 1
4 -11 5 779.393 9.716 -2
4 11 -7 779.393 9.716 1
4 11 4 41.0895 6.14967 -2
4 -11 -6 41.0895 6.14967 1
4 -11 3 4682.64 23.1629 -2
4 11 -5 4682.64 23.1629 1
4 11 2 128.12 8.88768 -2
4 -11 -4 128.12 8.88768 1
4 11 1 4187.97 24.7102 -2
4 -11 -3 4187.97 24.7102 1
4 -11 0 469.35 12.3766 -2
4 11 -2 469.35 12.3766 1
4 -11 -1 2759.77 22.5148 -2
4 11 -1 2759.77 22.5148 1
4 -11 -2 477.016 13.3442 -2
4 11 0 477.016 13.3442 1
4 -11 -3 3144.98 55.566 -2
4 11 1 3144.98 55.566 1
4 -11 -4 89.2611 14.5642 -2
4 11 2 89.2611 14.5642 1
4 -11 -5 3634.8 22.528 -2
4 11 3 3634.8 22.528 1
4 -11 -6 37.1075 9.53989 -2
4 11 4 37.1075 9.53989 1
4 -11 -7 428.564 14.6102 -2
4 11 5 428.564 14.6102 1
4 -12 4 1151.17 17.1453 -2
4 12 -6 1151.17 17.1453 1
4 12 3 1010.47 13.7505 -2
4 -12 -5 1010.47 13.7505 1
4 -12 2 3652.44 28.3328 -2
4 12 -4 3652.44 28.3328 1
4 12 1 443.364 11.6373 -2
4 -12 -3 443.364 11.6373 1
4 -12 0 1981.89 22.2794 -2
4 12 -2 1981.89 22.2794 1
4 -12 -1 1473.96 18.0534 -2
4 12 -1 1473.96 18.0534 1
4 -12 -2 1579.13 17.9583 -2
4 12 0 1579.13 17.9583 1
4 -12 -3 479.51 16.01 -2
4 12 1 479.51 16.01 1
4 -12 -4 3082.17 29.4926 -2
4 12 2 3082.17 29.4926 1
4 -12 -5 572.996 12.7751 -2
4 12 3 572.996 12.7751 1
4 -12 -6 1104.04 17.3961 -2
4 12 4 1104.04 17.3961 1
4 13 4 3277.62 17.45 -2
4 -13 -6 3277.62 17.45 1
4 13 3 286.091 8.39706 -2
4 -13 -5 286.091 8.39706 1
4 -13 2 1477.71 17.688 -2
4 13 -4 1477.71 17.688 1
4 13 1 285.137 9.40381 -2
4 -13 -3 285.137 9.40381 1
4 -13 0 3328.37 34.549 -2
4 13 -2 3328.37 34.549 1
4 -13 -1 228.83 9.94191 -2
4 13 -1 228.83 9.94191 1
4 -13 -2 3128.38 28.2682 -2
4 13 0 3128.38 28.2682 1
4 -13 -3 241.341 14.9105 -2
4 13 1 241.341 14.9105 1
4 -13 -4 1047.69 17.5318 -2
4 13 2 1047.69 17.5318 1
4 -13 -5 218.684 12.7351 -2
4 13 3 218.684 12.7351 1
4 -13 -6 2466.34 30.5457 -2
4 13 4 2466.34 30.5457 1
4 14 4 81.0282 9.79896 -2
4 -14 -6 81.0282 9.79896 1
4 14 3 1460.79 13.0688 -2
4 -14 -5 1460.79 13.0688 1
4 -14 2 1020.61 13.0416 -2
4 14 -4 1020.61 13.0416 1
4 14 1 3448.33 24.9313 -2
4 -14 -3 3448.33 24.9313 1
4 -14 0 156.687 10.0002 -2
4 14 -2 156.687 10.0002 1
4 -14 -1 4374.21 31.2801 -2
4 14 -1 4374.21 31.2801 1
4 -14 -2 113.163 11.3735 -2
4 14 0 113.163 11.3735 1
4 -14 -3 3782.63 35.9749 -2
4 14 1 3782.63 35.9749 1
4 -14 -4 804.779 18.0506 -2
4 14 2 804.779 18.0506 1
4 -14 -5 748.318 15.99 -2
4 14 3 748.318 15.99 1
4 -14 -6 101.188 9.98861 -2
4 14 4 101.188 9.98861 1
4 15 3 1440.95 15.0405 -2
4 -15 -5 1440.95 15.0405 1
4 -15 2 452.456 11.9598 -2
4 15 -4 452.456 11.9598 1
4 -15 1 1719.94 14.6558 -2
4 15 -3 1719.94 14.6558 1
4 -15 0 1203.63 22.8086 -2
4 15 -2 1203.63 22.8086 1
4 -15 -1 352.578 13.5698 -2
4 15 -1 352.578 13.5698 1
4 -15 -2 1082.8 18.1078 -2
4 15 0 1082.8 18.1078 1
4 -15 -3 1673.33 32.5757 -2
4 15 1 1673.33 32.5757 1
4 -15 -4 279.02 11.5974 -2
4 15 2 279.02 11.5974 1
4 -15 -5 1165.06 16.5401 -2
4 15 3 1165.06 16.5401 1
4 16 3 24.4854 8.06292 -2
4 -16 -5 24.4854 8.06292 1
4 -16 2 4242.4 38.6471 -2
4 16 -4 4242.4 38.6471 1
4 16 1 57.1445 6.923 -2
4 -16 -3 57.1445 6.923 1
4 16 0 1565.97 22.4125 -2
4 -16 -2 1565.97 22.4125 1
4 -16 -1 35.1305 8.8794 -2
4 16 -1 35.1305 8.8794 1
4 -16 -2 1209.38 17.2859 -2
4 16 0 1209.38 17.2859 1
4 -16 -3 49.239 10.3178 -2
4 16 1 49.239 10.3178 1
4 -16 -4 1835.41 26.4606 -2
4 16 2 1835.41 26.4606 1
4 -16 -5 22.7312 8.04953 -2
4 16 3 22.7312 8.04953 1
4 17 2 90.0756 10.5332 -2
4 -17 -4 90.0756 10.5332 1
4 17 1 2235.54 18.2278 -2
4 -17 -3 2235.54 18.2278 1
4 17 0 387.54 12.251 -2
4 -17 -2 387.54 12.251 1
4 -17 -1 1430.34 16.9736 -2
4 17 -1 1430.34 16.9736 1
4 -17 -2 422.335 10.6749 -2
4 17 0 422.335 10.6749 1
4 -17 -3 1732.32 19.7459 -2
4 17 1 1732.32 19.7459 1
4 -17 -4 57.9355 7.52027 -2
4 17 2 57.9355 7.52027 1
4 -18 1 872.23 21.1642 -2
4 18 -3 872.23 21.1642 1
4 18 0 316.646 9.48414 -2
4 -18 -2 316.646 9.48414 1
4 -18 -1 3076.01 19.1901 -2
4 18 -1 3076.01 19.1901 1
4 -18 -2 340.108 9.18481 -2
4 18 0 340.108 9.18481 1
4 -18 -3 723.888 19.0166 -2
4 18 1 723.888 19.0166 1
4 -19 -1 14.3181 6.68387 -2
4 19 -1 14.3181 6.68387 1
5 0 -4 479.153 24.0155 1
5 1 -4 103.217 11.8435 1
5 1 -3 148.476 14.2763 1
5 2 -3 698.633 19.6306 1
5 3 -3 3.65021 12.1255 1
5 3 -2 1413.58 24.5313 1
5 3 -1 20.9698 12.1937 1
5 4 -3 394.416 9.28326 1
5 4 -2 32.1216 12.2712 1
5 4 -1 509.105 16.7263 1
5 5 -3 221.828 7.67604 1
5 5 -2 31.6993 13.3351 1
5 5 -1 403.423 14.528 1
5 5 0 3.21798 9.28252 1
5 6 -2 3.7891 7.24954 1
5 6 -1 86.6606 10.4275 1
5 6 0 812.323 12.6875 1
5 7 -1 9.6676 8.04406 1
-1 0 10 31.7102 6.01783 2
1 0 -8 3945.24 25.6201 2
1 0 -6 2185.68 38.9448 2
1 0 -4 12209.9 43.5246 2
1 0 -2 292966 148.85 2
1 0 0 26740.6 42.7583 2
-1 0 -2 11322.3 47.5929 2
-1 0 -4 14615.3 72.7327 2
1 0 6 38.2408 4.92374 2
1 0 8 7818.76 43.4207 2
1 0 10 3026.52 28.021 2
1 -1 -12 -9.45542 9.60851 2
-1 -1 11 74.3071 5.12184 2
-1 -1 10 799.182 10.0424 2
-1 -1 9 1587 10.9043 2
1 -1 -8 338.041 6.4208 2
1 1 -7 7702.4 22.9583 2
1 1 -6 1272.15 17.846 2
1 -1 -5 157.936 7.76268 2
1 1 -4 7011.87 24.4043 2
-1 1 3 12242 30.8257 2
1 1 -2 907.701 7.83812 2
1 -1 -1 9135.32 13.6321 2
1 -1 0 15581.6 52.4732 2
-1 1 -1 81.9673 5.80177 2
-1 1 -2 5053.14 20.4052 2
-1 1 -3 31164.7 57.5347 2
-1 1 -4 5337.77 28.2649 2
-1 1 -5 5843.83 42.247 2
1 -1 6 5372.08 17.7142 2
1 -1 7 1552.61 10.9448 2
1 -1 8 80.9375 6.28433 2
1 -1 9 2746.48 20.8124 2
1 1 10 550.071 13.9423 2
1 -1 11 213.353 10.403 2
1 -2 -12 27.9563 9.96016 2
-1 -2 11 1086.17 14.4336 2
-1 -2 10 10.2086 4.23371 2
1 2 -9 1672.65 11.7323 2
-1 -2 8 2033.3 12.3947 2
1 2 -7 2304.73 12.5282 2
1 2 -6 534.786 13.0977 2
1 2 -5 21012.2 67.0406 2
1 2 -4 158.16 7.61144 2
-1 2 3 4255.97 25.3019 2
1 2 -2 1333.43 11.1554 2
1 -2 -1 8078.86 25.4862 2
1 -2 0 1771.48 33.4645 2
-1 -2 -1 52088.5 65.4374 2
-1 2 -2 1212.63 8.91527 2
-1 2 -3 6839.44 27.3771 2
-1 2 -4 7482.86 35.2486 2
-1 2 -5 7833.24 48.4963 2
1 -2 6 106.02 4.02148 2
1 2 7 7235.54 21.5028 2
-1 2 -8 396.157 7.47784 2
1 2 9 35.4075 7.28121 2
1 2 10 177.671 9.72528 2
1 -2 11 1028.17 22.7135 2
1 -3 -12 99.6099 10.2063 2
-1 3 11 4.88153 4.24565 2
1 3 -10 2212.02 17.2181 2
1 -3 -9 60.4837 4.45491 2
-1 -3 8 199.027 5.32867 2
-1 -3 7 144.141 4.03382 2
1 3 -6 5632.63 37.1778 2
1 -3 -5 285.534 9.63772 2
1 3 -4 30192.1 60.3867 2
1 3 -3 547.591 8.52589 2
1 3 -2 1634.97 8.68044 2
1 3 -1 545.779 6.89763 2
1 3 0 105049 67.2145 2
-1 -3 -1 1292.9 12.3056 2
1 3 2 16630.2 33.8794 2
-1 3 -3 223.239 7.37067 2
-1 3 -4 913.104 13.5339 2
-1 3 -5 190.01 9.75503 2
1 -3 6 12432.7 27.7946 2
1 -3 7 150.536 4.84335 2
1 -3 8 1859.64 14.5036 2
1 -3 9 40.0026 6.61892 2
1 3 10 2096.66 18.9091 2
1 -3 11 6.63776 4.71559 2
-1 -4 12 232.36 8.33092 2
-1 4 11 427.421 8.52837 2
-1 4 10 40.8498 5.48347 2
-1 -4 9 1323.63 10.1219 2
-1 -4 8 2615.8 13.1522 2
-1 -4 7 547.9 6.47724 2
-1 -4 6 2551.51 17.3762 2
1 4 -5 9143.11 38.5768 2
1 4 -4 5128.09 24.5553 2
1 4 -3 3567.21 19.5707 2
1 4 -2 20999.1 33.9599 2
1 4 -1 3448.28 14.9001 2
1 4 0 20872 24.2678 2
-1 -4 -1 38723.6 78.7565 2
-1 -4 -2 14507.2 42.5247 2
-1 4 -3 889.476 10.9182 2
-1 4 -4 7009.29 29.8404 2
-1 4 -5 9159.32 43.1818 2
1 -4 6 15.8865 3.81513 2
1 -4 7 3800.26 16.4744 2
1 -4 8 2005.46 13.9351 2
1 4 9 6.59946 5.76158 2
1 4 10 642.239 10.4719 2
1 -4 11 676.376 14.4963 2
-1 5 11 126.36 4.81497 2
-1 -5 10 221.578 6.97801 2
-1 -5 9 1967.48 14.5664 2
-1 -5 8 111.034 4.58636 2
1 -5 -7 8860.57 21.1162 2
1 5 -6 420.213 5.65211 2
1 5 -5 1315.66 15.0924 2
1 5 -4 340.099 8.58427 2
1 5 -3 22078.2 50.5391 2
1 5 -2 74.6693 4.62308 2
-1 -5 1 25513.6 47.0691 2
1 5 0 410.41 4.79951 2
-1 -5 -1 6877.49 28.6318 2
-1 -5 -2 2961.56 21.4647 2
-1 -5 -3 41400.4 66.7513 2
-1 5 -4 282.711 8.43245 2
-1 5 -5 9090.69 45.3291 2
1 -5 6 1063.45 9.36403 2
1 5 7 2018.72 14.3801 2
1 5 8 12.6742 4.3854 2
1 5 9 5820.26 26.2743 2
1 5 10 18.0971 3.96602 2
1 -5 11 225.292 6.75772 2
-1 6 11 48.759 4.4298 2
-1 6 10 181.266 8.32267 2
-1 -6 9 200.196 6.16885 2
-1 -6 8 5021.35 19.0677 2
1 -6 -7 356.478 5.73578 2
1 6 -6 7779.48 19.9506 2
1 6 -5 2694.4 18.7512 2
1 6 -4 6931.64 28.735 2
1 6 -3 1931.53 16.0054 2
1 6 -2 39424.7 60.3637 2
1 6 -1 2017.74 11.9411 2
1 6 0 6284.54 14.8807 2
-1 6 -1 10484.2 25.2887 2
-1 6 -2 35606.4 64.4438 2
-1 -6 -3 2726.96 24.0843 2
-1 6 -4 17434.7 65.1511 2
1 -6 5 1692.53 16.7744 2
-1 6 -6 602.426 9.89448 2
-1 6 -7 305.252 8.14291 2
1 6 8 3907.36 20.183 2
1 6 9 67.3321 5.60077 2
1 6 10 1368.15 11.9428 2
1 -6 11 58.4068 4.62493 2
-1 7 11 25.4926 4.3372 2
1 7 -10 1330.75 17.4252 2
-1 -7 9 1274.12 11.1249 2
-1 -7 8 600.88 7.84666 2
-1 -7 7 2677.14 12.5303 2
1 7 -6 4905.33 16.585 2
1 7 -5 7.99979 5.83435 2
1 7 -4 5779.08 31.9302 2
1 7 -3 4841.96 25.7284 2
1 7 -2 257.717 7.52764 2
1 7 -1 6844.46 23.8023 2
1 7 0 18306.7 26.1769 2
-1 7 -1 119.679 4.6559 2
-1 -7 -2 16588.8 46.7395 2
-1 -7 -3 12953.5 43.6049 2
-1 7 -4 3538.52 29.1675 2
-1 7 -5 3455.18 23.5931 2
-1 7 -6 6148.43 28.2028 2
-1 7 -7 71.0691 5.52199 2
1 7 8 345.955 6.80693 2
1 7 9 950.255 10.2667 2
1 -7 10 385.012 7.09914 2
1 -7 11 28.2402 3.79659 2
-1 8 11 1729.97 19.5813 2
-1 8 10 189.085 8.50132 2
1 -8 -9 1460.86 12.9171 2
-1 -8 8 234.603 5.90717 2
-1 -8 7 806.114 7.7884 2
1 8 -6 6.92309 4.05148 2
1 8 -5 10478.1 42.6598 2
1 8 -4 832.88 14.107 2
1 8 -3 13401.2 34.8469 2
1 8 -2 25.8496 5.62264 2
1 8 -1 24815.4 49.3447 2
-1 8 0 4577.19 18.3468 2
-1 8 -1 21237 40.4388 2
-1 8 -2 72.0414 5.53098 2
-1 8 -3 438.754 8.21489 2
-1 8 -4 419.263 12.3301 2
1 8 5 9115.65 28.6173 2
-1 8 -6 715.896 10.7295 2
-1 8 -7 11903.8 36.7186 2
1 8 8 527.182 7.13937 2
1 8 9 61.6155 5.245 2
1 8 10 12.1236 4.73338 2
1 8 11 1315.92 15.5118 2
-1 9 11 101.368 4.7759 2
-1 9 10 1371.77 18.6384 2
1 -9 -9 339.997 7.42477 2
1 9 -8 638.943 8.65779 2
1 9 -7 1136.35 9.53224 2
1 9 -6 6439.77 22.206 2
1 9 -5 5.73929 5.59139 2
1 9 -4 21662.5 54.2716 2
1 9 -3 2944.78 18.68 2
1 9 -2 69.501 4.47029 2
-1 -9 1 4765.31 19.5092 2
-1 9 0 36846 57.8101 2
-1 9 -1 163.021 5.13882 2
-1 9 -2 22163.9 45.2523 2
-1 9 -3 5869.54 25.4751 2
-1 9 -4 3431.25 29.7132 2
1 9 5 1574.42 12.2696 2
-1 9 -6 9483.63 34.6971 2
-1 9 -7 643.958 7.93572 2
1 9 8 884.955 9.35789 2
1 9 9 698.022 8.5262 2
1 -9 10 283.805 7.50358 2
1 9 11 10.6073 4.1803 2
-1 10 11 121.395 4.52079 2
-1 10 10 182.698 10.1145 2
1 -10 -9 257.551 6.79855 2
1 10 -8 2735.45 16.114 2
1 10 -7 386.963 7.25836 2
1 10 -6 2540.2 14.5116 2
1 10 -5 1034.86 11.452 2
1 10 -4 5095.15 28.4746 2
1 10 -3 462.006 9.58136 2
-1 -10 2 30765.4 66.6713 2
-1 -10 1 849.837 9.82089 2
-1 10 0 7038.29 32.6539 2
-1 10 -1 2764.67 13.8187 2
-1 10 -2 9119.07 25.965 2
-1 10 -3 609.519 9.78903 2
-1 10 -4 16794.8 47.065 2
1 10 5 1669.36 11.4711 2
-1 10 -6 1229.41 10.1353 2
-1 10 -7 526.007 7.37941 2
1 10 8 3064.8 15.5337 2
1 -10 9 73.311 5.72135 2
1 10 10 736.169 14.3983 2
-1 11 11 14.4638 3.0511 2
-1 11 10 62.4932 7.66856 2
1 -11 -9 3121.49 18.317 2
1 11 -8 137.095 6.97567 2
1 11 -7 5439 20.9704 2
1 11 -6 45.6766 5.24653 2
1 11 -5 705.706 8.92065 2
1 11 -4 527.612 12.276 2
1 11 -3 17252.3 47.6577 2
1 -11 -2 30.6801 7.1394 2
-1 -11 1 17897.3 45.676 2
-1 11 0 353.577 9.92447 2
-1 11 -1 6422.31 24.1804 2
-1 11 -2 111.813 5.81548 2
-1 11 -3 16287.6 44.3491 2
1 11 4 789.461 9.28906 2
1 11 5 11053.1 31.3435 2
-1 11 -6 795.663 9.16105 2
-1 11 -7 178.746 5.83809 2
1 11 8 110.441 5.22021 2
-1 11 -9 3168.68 19.3016 2
1 11 10 2.67562 4.71589 2
-1 12 11 281.222 9.56703 2
-1 12 10 15.6895 6.31104 2
1 -12 -9 480.183 8.82507 2
1 12 -8 2004.04 18.221 2
1 12 -7 404.56 7.31632 2
1 12 -6 1323.59 11.1452 2
1 12 -5 2333.26 15.1609 2
1 12 -4 2707.24 17.3182 2
1 -12 -3 643.239 12.1939 2
-1 -12 2 18750.1 58.2551 2
-1 -12 1 1215.38 15.3195 2
-1 12 0 2135.51 21.0641 2
-1 12 -1 6936.74 29.2764 2
-1 12 -2 5096.13 23.3638 2
-1 12 -3 214.82 7.12934 2
-1 12 -4 8824.13 28.4585 2
1 12 5 2045.61 14.4456 2
1 12 6 365.694 7.55992 2
-1 12 -7 1588.68 15.1784 2
1 12 8 2073.6 17.4451 2
1 12 9 30.0377 5.00487 2
1 12 10 1025.07 18.4562 2
-1 13 11 34.0349 5.48941 2
-1 13 10 1181.84 17.3908 2
-1 13 9 25.1589 4.77087 2
1 13 -8 271.151 9.50693 2
1 13 -7 352.239 7.01426 2
1 13 -6 5625.15 22.0001 2
1 13 -5 15.186 5.03999 2
1 13 -4 12861.3 28.3687 2
1 -13 -3 907.32 14.6069 2
-1 -13 2 98.9552 9.1671 2
-1 -13 1 1357.02 17.8674 2
1 13 0 24052.1 65.8194 2
-1 13 -1 235.647 8.09631 2
-1 13 -2 17325.7 49.0826 2
-1 13 -3 1787.76 13.9353 2
-1 13 -4 1561.49 13.2331 2
1 13 5 220.927 6.61891 2
1 13 6 5309.91 22.9368 2
-1 13 -7 580.625 10.5531 2
1 13 8 269.55 7.30377 2
1 13 9 69.9289 5.09377 2
-1 13 -10 406.179 8.0083 2
-1 14 10 7.80708 5.34705 2
1 -14 -9 671.524 9.30496 2
1 14 -8 117.975 7.46217 2
1 14 -7 423.434 9.87841 2
1 14 -6 527.004 8.62955 2
1 14 -5 9449.86 29.8293 2
1 14 -4 570.577 7.6798 2
1 -14 -3 4883.81 20.9142 2
1 14 -2 1147.67 15.5902 2
1 14 -1 8086 39.7169 2
1 14 0 750.172 13.3112 2
-1 14 -1 18991.7 52.6221 2
-1 14 -2 1548.22 11.5577 2
1 14 3 523.567 8.18046 2
1 14 4 671.346 10.1545 2
1 14 5 5048.54 21.2156 2
1 14 6 98.1534 5.63116 2
1 14 7 5946.85 32.4457 2
1 -14 8 592.13 9.09037 2
1 14 9 52.9739 4.64391 2
-1 14 -10 56.5537 10.4364 2
-1 15 10 631.512 10.0145 2
1 -15 -9 547.065 7.92231 2
1 15 -8 97.3613 7.02416 2
1 15 -7 2339.73 22.2706 2
1 15 -6 1636.27 13.7915 2
1 15 -5 6.87043 5.94362 2
1 15 -4 3187.85 18.534 2
1 -15 -3 6399.74 25.1898 2
1 15 -2 46.91 6.78486 2
1 15 -1 8719.02 48.2117 2
1 15 0 8032.71 29.5671 2
-1 15 -1 36.8389 5.32804 2
-1 15 -2 4582.6 18.1438 2
-1 15 -3 10338.4 27.3022 2
1 15 4 854.144 11.1738 2
1 15 5 1642.48 13.3676 2
1 15 6 2057.73 14.8734 2
1 15 7 780.826 12.9265 2
1 15 8 411.492 8.44487 2
-1 15 -9 880.594 8.61126 2
-1 15 -10 89.5122 9.14582 2
-1 16 10 38.3577 4.0371 2
-1 16 9 46.2948 5.34401 2
1 16 -8 1998.21 18.2163 2
1 16 -7 5.80453 6.46811 2
1 16 -6 2030 15.0108 2
1 16 -5 66.4098 6.6267 2
1 16 -4 2645.1 19.4604 2
1 16 -3 65.1466 6.36058 2
1 16 -2 18008.8 50.9688 2
1 16 -1 172.8 11.4813 2
-1 -16 0 2327.66 20.2421 2
-1 16 -1 97.7984 5.77997 2
-1 16 -2 9454.96 28.0339 2
-1 16 -3 1.52385 5.00942 2
1 16 4 6367.7 23.8452 2
1 16 5 229.404 7.11864 2
1 16 6 92.5213 5.69822 2
1 16 7 130.517 7.19242 2
-1 16 -8 2404.45 15.3127 2
-1 16 -9 15.1868 4.80159 2
-1 17 10 155.819 6.06373 2
1 -17 -9 709.01 9.60097 2
1 17 -8 2.22203 5.23921 2
1 17 -7 2778.14 22.62 2
1 17 -6 790.671 12.1524 2
1 -17 -5 21.9626 7.20751 2
1 17 -4 1749.79 15.9881 2
1 -17 -3 9363.83 32.1855 2
1 -17 -2 20.1512 7.02742 2
1 17 -1 7987.9 43.8406 2
-1 -17 0 3175.6 26.1152 2
-1 17 -1 441.425 7.59025 2
-1 17 -2 1517.36 12.6756 2
-1 17 -3 10165.9 28.1704 2
1 17 4 65.6992 5.75827 2
1 17 5 3104.04 17.9757 2
1 17 6 1001.45 10.83 2
-1 17 -7 447.374 8.49263 2
-1 17 -8 87.5062 5.19252 2
-1 17 -9 1022.01 14.2896 2
-1 18 9 1033.44 13.0957 2
1 -18 -8 450.358 10.1312 2
1 18 -7 257.945 8.88072 2
1 18 -6 562.72 16.0237 2
1 18 -5 3971.67 24.0894 2
1 18 -4 702.118 11.0932 2
1 18 -3 1033.05 14.9412 2
1 -18 -2 4313.24 24.6372 2
1 18 -1 1403.34 19.5546 2
-1 -18 0 1795.08 20.7304 2
-1 18 -1 8147.88 28.2276 2
-1 18 -2 2924.84 17.6157 2
-1 18 -3 418.317 7.37534 2
1 18 4 1944.44 14.9 2
1 18 5 5363.55 23.4716 2
-1 18 -6 3.07463 4.98777 2
-1 18 -7 1520.69 14.1185 2
-1 18 -8 575.653 10.3707 2
-1 18 -9 5.95881 5.69627 2
-1 19 9 26.8198 4.51895 2
1 -19 -8 159.591 5.05844 2
1 19 -7 10.0964 5.66358 2
1 19 -6 1366.04 21.7832 2
1 19 -5 110.749 10.6085 2
1 19 -4 8190.99 35.7254 2
1 19 -3 1289.58 17.9173 2
1 -19 -2 24.9658 5.96862 2
-1 -19 1 1771.32 24.2974 2
-1 -19 0 19494.5 68.3489 2
-1 -19 -1 207.846 9.66428 2
-1 19 -2 3992.95 21.5746 2
-1 19 -3 19.1408 5.82673 2
1 19 4 954.08 11.0789 2
1 19 5 17.9854 5.03817 2
-1 19 -6 4836.06 21.169 2
-1 19 -7 24.9313 6.64128 2
-1 19 -8 443.882 8.37574 2
-1 20 9 278.657 5.97815 2
1 -20 -8 638.444 7.5746 2
1 20 -7 526.264 9.33096 2
1 20 -6 476.542 14.0145 2
1 20 -5 3284.32 33.0935 2
1 20 -4 88.757 8.45537 2
1 20 -3 835.896 13.0406 2
1 20 -2 4609.26 30.9023 2
1 -20 -1 3026.45 24.8281 2
-1 -20 0 161.561 11.4479 2
-1 -20 -1 7069.67 35.5434 2
-1 20 -2 2241.13 19.0182 2
-1 20 -3 1037.5 11.0716 2
1 20 4 2685.61 15.7814 2
1 20 5 1820.45 13.6778 2
-1 20 -6 16.1761 4.33555 2
-1 20 -7 1527.24 16.1407 2
-1 20 -8 427.735 7.30825 2
-1 21 8 20.4599 4.20325 2
1 -21 -7 3110.11 19.7435 2
1 -21 -6 185.028 10.2995 2
1 -21 -5 26.8143 8.61849 2
-1 21 4 304.791 8.8871 2
1 21 -3 1795.57 15.7221 2
1 21 -2 6.88438 8.19976 2
1 -21 -1 1622.38 17.0694 2
-1 -21 0 779.832 14.0591 2
-1 -21 -1 336.65 11.1101 2
-1 -21 -2 574.223 14.0707 2
-1 21 -3 8789.4 33.1358 2
1 21 4 100.779 5.39506 2
1 21 5 1851.34 15.3657 2
-1 21 -6 320.765 7.7196 2
-1 21 -7 242.4 8.52982 2
-1 22 8 1063.34 10.9373 2
-1 22 7 8.70178 4.22626 2
1 -22 -6 1147.64 13.8431 2
1 -22 -5 336.018 12.1498 2
1 -22 -4 837.018 11.958 2
1 -22 -3 19.1953 8.68307 2
1 22 -2 14310 65.4086 2
-1 -22 1 138.926 8.89767 2
-1 -22 0 771.021 13.4865 2
-1 -22 -1 541.301 12.5895 2
1 22 2 3818.58 27.3551 2
-1 -22 -3 23.2206 7.1199 2
1 22 4 4017.93 27.9309 2
1 22 5 45.3475 6.85319 2
-1 22 -6 41.3747 6.87947 2
-1 -22 -7 91.9545 6.83249 2
-1 23 7 901.945 11.9999 2
1 -23 -6 569.756 9.53663 2
1 -23 -5 6.91699 7.06472 2
1 -23 -4 2013.91 23.7144 2
-1 23 3 1938.03 16.8158 2
1 23 -2 11.0574 8.99648 2
1 23 -1 2255.61 18.3471 2
1 23 0 4128.21 30.6237 2
1 23 1 158.208 10.5241 2
1 23 2 1747.14 14.6297 2
-1 23 -3 3604.6 24.6337 2
1 23 4 686.483 14.746 2
-1 -23 -5 670.224 17.0552 2
-1 -23 -6 1311.78 18.9759 2
1 23 7 102.731 4.76269 2
-1 24 7 93.0287 5.96362 2
-1 24 6 26.0594 4.05706 2
1 -24 -5 3127.61 24.4567 2
1 24 -4 158.509 9.51122 2
-1 24 3 895.369 12.0129 2
-1 24 2 251.71 9.37465 2
1 24 -1 1313.67 15.7029 2
-1 24 0 101.303 8.3277 2
1 -24 1 6669.94 26.2194 2
-1 -24 -2 81.8232 6.88195 2
1 24 3 253.603 9.45702 2
1 24 4 112.66 8.42633 2
-1 -24 -5 1710.17 22.9341 2
-1 -24 -6 7.51005 5.05328 2
-1 25 6 829.187 13.7266 2
1 -25 -5 27.4207 6.64656 2
1 -25 -4 2402.45 29.2894 2
-1 25 3 500.081 10.7232 2
1 -25 -2 92.8522 5.67183 2
1 25 -1 395.913 10.0694 2
-1 25 0 4384.39 20.3778 2
1 25 1 92.4039 7.29223 2
1 25 2 1663.3 14.4217 2
1 25 3 874.579 12.8146 2
1 25 4 322.947 9.22825 2
-1 -25 -5 199.801 6.53289 2
1 26 -6 234.704 5.71992 2
1 26 -5 754.393 11.3418 2
1 -26 -4 646.716 9.29946 2
-1 26 3 229.824 6.9825 2
-1 26 2 2421.56 13.7393 2
1 26 -1 281.065 8.5101 2
-1 26 0 900.89 10.5662 2
1 26 1 1761.5 12.4293 2
1 26 2 1429.61 15.5684 2
1 26 3 32.8289 6.51654 2
1 26 4 1394.01 14.7895 2
1 26 5 181.04 6.50615 2
-1 27 5 8.01362 3.35131 2
1 27 -4 -1.14966 8.91949 2
1 27 -3 2067.56 17.8013 2
1 27 -2 1.92225 4.84764 2
1 27 -1 2637.29 15.9964 2
1 27 0 7.09124 5.1607 2
1 27 1 102.692 5.90846 2
1 27 2 73.9069 5.13443 2
1 27 3 1516.05 12.5804 2
-1 27 -4 2.60313 3.29084 2
1 -28 -3 359.997 7.92071 2
1 28 -2 1863.73 21.7213 2
1 28 -1 463.449 7.4736 2
1 28 0 491.494 7.70385 2
1 28 1 857.714 10.6105 2
1 28 2 1095.42 10.5411 2
-1 -28 -3 72.1804 4.43781 2
1 29 -2 2.68367 4.97169 2
-1 -29 1 28.375 4.42227 2
1 29 0 1176.89 10.5771 2
1 29 1 61.1834 3.58012 2
2 0 -10 717.821 19.9103 2
2 0 -8 662.29 16.8967 2
2 0 -6 3012.47 21.9798 2
2 0 -4 49108.6 117.928 2
2 0 -2 9418.86 45.7234 2
2 0 0 9733.03 110.362 2
-2 0 -2 15526.2 81.8321 2
2 0 4 31.5279 6.62 2
-2 0 -6 9794.74 43.7139 2
2 0 8 4827.51 24.7638 2
2 0 10 351.226 14.1318 2
3 0 -10 20.0891 13.3995 2
3 0 -8 947.935 25.0118 2
-3 0 6 13079.2 45.7972 2
3 0 -4 2121.74 9.56115 2
3 0 -2 5711.18 19.3464 2
3 0 0 10836.2 38.7728 2
3 0 2 60.236 5.05084 2
3 0 4 9827.09 39.3942 2
3 0 6 4436.32 27.489 2
3 0 8 713.611 19.8134 2
3 -1 -10 57.3978 13.4225 2
3 1 -9 30.4582 6.52134 2
3 1 -8 460.427 14.1378 2
3 1 -7 2051.79 15.426 2
3 1 -6 169.574 7.45226 2
3 -1 -5 1903.14 10.2819 2
3 -1 -4 2118.77 7.19169 2
3 -1 -3 540.818 4.10941 2
3 -1 -2 1437.98 7.61503 2
3 -1 -1 10781.8 21.4978 2
3 -1 0 2738.67 14.4695 2
3 -1 1 3187.37 10.8014 2
3 -1 2 4452.5 12.8477 2
3 -1 3 2539.15 13.2337 2
3 1 4 242.952 7.53018 2
3 1 5 4147.42 22.1018 2
3 1 6 947.331 10.7871 2
3 -1 7 354.157 7.21482 2
3 -1 8 1247.98 24.3767 2
3 -1 9 1373.08 17.3329 2
3 -2 -10 48.0294 8.03766 2
3 2 -9 1350.4 16.3295 2
3 2 -8 20.3059 9.01266 2
3 2 -7 447.825 9.15477 2
3 2 -6 589.467 8.35492 2
3 -2 -5 2348.27 10.1085 2
3 -2 -4 43.9263 3.21158 2
3 -2 -3 7396.73 12.3616 2
3 -2 -2 1135.47 6.8319 2
3 -2 -1 745.157 6.16937 2
3 -2 0 2172.22 9.13592 2
3 -2 1 7224.53 16.9952 2
3 -2 2 175.578 4.6193 2
3 -2 3 6991.6 17.7284 2
3 2 4 466.946 7.10377 2
3 2 5 110.969 5.81415 2
3 2 6 286.619 6.89761 2
3 -2 7 3007.79 17.2667 2
3 -2 8 1.51634 7.4214 2
3 2 9 1002.14 10.537 2
3 -3 -10 244.765 9.70396 2
3 3 -9 2.23827 5.74003 2
3 3 -8 1552.97 16.0651 2
3 -3 -7 232.725 9.66676 2
3 -3 -6 538.314 7.2673 2
3 -3 -5 11.2183 3.87956 2
3 -3 -4 13322.2 17.8504 2
3 -3 -3 17.4244 3.22914 2
3 -3 -2 5220.25 12.9353 2
3 -3 -1 153.561 3.81891 2
3 -3 0 1661.85 7.68994 2
3 -3 1 40.8562 3.38099 2
3 -3 2 11312.9 20.3614 2
3 -3 3 193.333 4.74142 2
3 3 4 1277.93 8.81975 2
3 3 5 84.716 5.0392 2
3 -3 6 4756.03 22.8281 2
3 -3 7 1.48884 4.81455 2
3 -3 8 3555.29 22.8472 2
3 3 9 24.863 3.646 2
3 -4 -10 77.8233 7.66232 2
3 4 -9 478.561 8.76875 2
3 4 -8 268.426 9.85711 2
3 -4 -7 303.85 9.42335 2
3 -4 -6 2547.33 13.4894 2
3 -4 -5 653.377 6.90027 2
3 4 -4 1689.02 7.9272 2
3 4 -3 6277.56 14.0058 2
3 -4 -2 4690.8 11.8547 2
3 -4 -1 115.405 3.81178 2
3 -4 0 3082.94 10.5701 2
3 -4 1 6741.08 15.4888 2
3 -4 2 129.365 4.31341 2
3 -4 3 4473.08 16.0844 2
3 4 4 2765.83 14.1981 2
3 4 5 15.2323 5.63767 2
3 4 6 1296.52 13.5894 2
3 -4 7 2188 14.8276 2
3 -4 8 35.6133 5.92109 2
3 -4 9 127.522 6.93202 2
3 -5 -10 13.5433 6.7442 2
3 5 -9 6.79073 4.91966 2
3 5 -8 86.5802 8.93755 2
3 5 -7 2459.56 18.6262 2
-3 -5 6 30.1796 6.48964 2
3 -5 -5 2616.07 13.3579 2
3 -5 -4 324.336 5.37546 2
3 5 -3 850.386 6.53982 2
3 -5 -2 469.702 5.02633 2
3 -5 -1 13701.1 19.9278 2
3 -5 0 29.0342 3.60455 2
3 5 1 5183.13 12.7469 2
3 5 2 516.767 5.83194 2
3 5 3 3456.36 13.6527 2
3 5 4 17.678 4.63388 2
3 5 5 11243.2 39.5165 2
3 5 6 14.1265 5.74985 2
3 -5 7 249.157 6.4462 2
3 -5 8 17.041 4.04835 2
3 -6 -10 170.38 8.15737 2
3 -6 -9 164.636 7.76499 2
3 6 -8 624.739 12.7966 2
3 6 -7 185.801 8.25296 2
3 6 -6 4429.08 21.8774 2
3 -6 -5 276.395 7.91298 2
3 -6 -4 171.082 5.10304 2
3 -6 -3 1305.36 6.84595 2
3 -6 -2 9463.96 16.5232 2
3 -6 -1 712.667 5.07856 2
3 6 0 10316.2 19.1453 2
3 6 1 870.03 6.72887 2
3 6 2 85.0975 4.15294 2
3 6 3 698.692 7.98839 2
3 6 4 8093.76 23.2299 2
3 6 5 127.575 6.96353 2
3 6 6 1904.54 18.0915 2
3 -6 7 175.532 6.03948 2
3 -6 8 142.845 4.90893 2
3 -7 -10 117.87 8.51 2
3 -7 -9 2.62954 5.96668 2
3 7 -8 522.282 9.79541 2
3 7 -7 597.766 9.25364 2
3 7 -6 156.35 9.97536 2
3 7 -5 1247.85 13.9165 2
3 7 -4 5332.97 17.7525 2
3 -7 -3 245.669 4.49135 2
3 -7 -2 3953.15 11.4445 2
3 7 -1 5393.2 11.8474 2
3 7 0 2219.21 10.1215 2
3 7 1 981.478 6.8023 2
3 7 2 4716.78 14.7078 2
3 7 3 102.926 4.64648 2
3 7 4 153.122 5.42337 2
3 7 5 1121.15 11.3568 2
3 7 6 1080.62 13.8024 2
3 7 7 53.4046 4.88417 2
3 -7 8 1481.31 15.0004 2
3 8 -9 878.142 12.6805 2
3 8 -8 5.30384 6.12254 2
3 8 -7 582.952 9.25945 2
3 8 -6 17.8533 8.78695 2
3 8 -5 3016.15 19.3926 2
3 -8 -4 203.291 6.6915 2
3 8 -3 5792.72 16.314 2
3 -8 -2 29.5507 3.76134 2
3 8 -1 19.7279 3.5075 2
3 8 0 46.2075 4.5508 2
3 8 1 8893.55 17.8167 2
3 8 2 126.983 4.22965 2
3 8 3 11290.6 23.2657 2
3 8 4 557.884 7.52227 2
3 8 5 22.6569 4.91792 2
3 8 6 5.30819 5.43209 2
3 -8 7 3190.27 21.1595 2
3 -8 8 3.21617 3.57471 2
3 -9 -9 11.2621 7.04196 2
3 9 -8 1030.99 11.3022 2
3 9 -7 338.461 7.72538 2
3 9 -6 41.7017 9.08689 2
3 9 -5 871.648 10.6577 2
3 9 -4 5232.01 21.2363 2
3 9 -3 235.134 6.33453 2
3 -9 -2 4537.8 12.4836 2
3 9 -1 2353.95 8.59288 2
3 9 0 1782.69 9.27724 2
3 9 1 930.054 7.06609 2
3 9 2 10289.5 22.1715 2
3 9 3 597.978 7.12286 2
3 9 4 792.158 9.60033 2
3 9 5 981.174 10.4618 2
3 9 6 1535.54 13.3724 2
3 -9 7 21.9293 3.75971 2
3 -9 8 775.875 15.2854 2
3 -10 -9 119 7.80804 2
3 -10 -8 345.476 10.5214 2
3 10 -7 55.0649 5.82606 2
3 10 -6 3213.4 24.4781 2
3 10 -5 347.555 10.7227 2
3 -10 -4 638.254 8.38516 2
3 -10 -3 936.938 9.74328 2
3 -10 -2 3451.53 11.8456 2
3 10 -1 21.6022 3.5094 2
3 10 0 8715.37 19.6975 2
3 10 1 1213.51 8.8662 2
3 10 2 625.588 7.48214 2
3 -10 3 407.543 7.41477 2
3 10 4 5069.93 19.7134 2
3 10 5 54.3857 5.35821 2
3 -10 6 1674.04 13.9043 2
3 -10 7 711.495 9.5862 2
3 -10 8 216.835 5.66571 2
3 -11 -9 1.77786 5.72028 2
3 -11 -8 23.7486 7.69681 2
3 11 -7 1750.16 12.8294 2
3 11 -6 1.299 6.71161 2
3 11 -5 2166.46 18.587 2
3 -11 -4 18.228 4.66431 2
3 -11 -3 1393.32 11.0122 2
3 -11 -2 22.5992 4.20699 2
3 11 -1 7099.93 15.7937 2
3 11 0 259.269 5.83394 2
3 11 1 4681.68 17.2305 2
3 11 2 801.648 8.20833 2
3 -11 3 1131.7 10.4931 2
3 11 4 177.812 7.92229 2
3 11 5 6154.35 22.7518 2
3 11 6 15.5681 5.17715 2
3 11 7 102.218 4.42071 2
3 -11 8 -0.37123 2.93157 2
3 -12 -9 228.813 7.8045 2
3 -12 -8 258.08 9.43045 2
3 -12 -7 70.5746 5.88574 2
3 12 -6 2079.77 19.0764 2
3 12 -5 537.066 11.2458 2
3 -12 -4 212.212 5.95276 2
3 -12 -3 2138.46 12.6206 2
3 12 -2 1975.85 11.7584 2
3 12 -1 14.1158 4.3856 2
3 12 0 3600.14 15.0697 2
3 12 1 1688.46 12.3244 2
3 12 2 671.947 7.86733 2
3 -12 3 966.853 10.1523 2
3 12 4 3974.78 22.8285 2
3 12 5 51.4805 5.25696 2
3 12 6 2110.78 16.4117 2
3 -12 7 980.572 11.3497 2
3 -13 -9 0.11346 4.28719 2
3 -13 -8 759.587 11.5876 2
3 -13 -7 82.0135 5.58967 2
3 -13 -6 48.217 7.68716 2
3 13 -5 249.812 9.10519 2
3 -13 -4 3639.26 16.3886 2
3 -13 -3 16.3756 5.24995 2
3 13 -2 3082.44 16.6653 2
3 13 -1 283.564 5.98329 2
3 13 0 1048.19 9.12574 2
3 13 1 222.887 6.67017 2
3 13 2 5017.7 18.9398 2
3 -13 3 539.723 9.09095 2
3 13 4 202.703 7.19746 2
3 13 5 264.444 6.15295 2
3 13 6 1531.55 13.1064 2
3 -13 7 13.8109 3.00602 2
3 -14 -8 38.4839 9.80334 2
3 -14 -7 292.924 6.68361 2
3 -14 -6 184.542 8.59768 2
3 -14 -5 985.88 20.0182 2
3 -14 -4 30.879 5.4846 2
3 -14 -3 2843.84 16.1527 2
3 14 -2 199.762 6.41371 2
3 14 -1 68.8227 6.07115 2
3 14 0 288.903 6.93199 2
3 14 1 4774.41 18.7903 2
3 14 2 85.9466 5.15508 2
3 -14 3 6805.4 24.7952 2
3 14 4 1481.89 13.0167 2
3 14 5 280.479 6.78913 2
3 14 6 115.502 5.00924 2
3 -14 7 2826.51 20.382 2
3 -15 -8 147.062 9.89674 2
3 -15 -7 558.222 7.45163 2
3 -15 -6 30.6949 6.52986 2
3 -15 -5 1176.86 15.5855 2
3 -15 -4 1367.32 11.1528 2
3 -15 -3 12.0871 4.9238 2
3 -15 -2 854.894 9.05946 2
3 15 -1 2350.41 17.4401 2
3 15 0 798.032 10.478 2
3 15 1 563.464 7.74879 2
3 15 2 1608.85 12.0917 2
3 -15 3 931.005 10.3054 2
3 15 4 229.729 6.65775 2
3 15 5 2114.98 13.5636 2
3 15 6 522.696 12.1527 2
3 -15 7 87.9792 6.54078 2
3 -16 -8 184.647 9.11823 2
3 -16 -7 7.94532 3.76845 2
3 -16 -6 2073.37 15.3108 2
3 -16 -5 5.12903 6.57589 2
3 -16 -4 176.696 6.15709 2
3 -16 -3 5.87643 4.69989 2
3 -16 -2 2999.63 17.3414 2
3 16 -1 2.85792 5.06568 2
3 16 0 2526.87 18.4868 2
3 16 1 91.4361 6.26319 2
3 16 2 28.87 5.10035 2
3 -16 3 115.059 7.80134 2
3 16 4 4023.45 18.1214 2
3 16 5 17.7022 4.12659 2
3 -16 6 1208.14 15.7208 2
3 -17 -7 1155.53 11.5991 2
3 -17 -6 14.8218 4.69957 2
3 -17 -5 686.694 11.3487 2
3 -17 -4 642.555 8.92694 2
3 -17 -3 198.73 5.72566 2
3 -17 -2 228.301 6.90956 2
3 17 -1 3200.75 16.7569 2
3 17 0 87.7644 7.49293 2
3 17 1 1805.65 13.1692 2
3 17 2 817.189 9.25703 2
3 -17 3 1194.72 14.7377 2
3 17 4 14.8516 4.91334 2
3 17 5 2512.31 15.1172 2
3 -17 6 139.735 8.03193 2
3 -18 -7 159.469 6.68653 2
3 -18 -6 427.187 6.67919 2
3 -18 -5 273.106 7.964 2
3 -18 -4 219.962 6.33147 2
3 -18 -3 1372.92 11.0454 2
3 -18 -2 890.812 8.91824 2
3 18 -1 21.2806 5.08212 2
3 18 0 902.048 10.4382 2
3 18 1 3838.35 19.6736 2
3 18 2 9.74469 4.70184 2
3 -18 3 1907.06 16.2188 2
3 18 4 713.592 8.51609 2
3 18 5 18.6981 3.78101 2
3 -19 -6 10.7433 3.10709 2
3 -19 -5 159.308 7.75632 2
3 -19 -4 3133.63 14.3839 2
3 -19 -3 55.8176 4.96033 2
3 -19 -2 1204.41 9.3885 2
3 19 -1 5.46794 4.86263 2
3 19 0 749.647 9.83446 2
3 19 1 11.9356 4.34947 2
3 19 2 4478.28 18.5851 2
3 -19 3 46.0921 7.1726 2
3 19 4 431.018 6.70143 2
3 -19 5 70.0206 4.95442 2
3 -20 -6 458.509 6.00405 2
3 -20 -5 830.381 12.9723 2
3 -20 -4 40.4338 5.66037 2
3 -20 -3 1403.83 10.8249 2
3 -20 -2 897.531 7.7726 2
3 -20 -1 193.55 5.58769 2
3 20 0 1155.22 9.87082 2
3 20 1 1548.79 10.073 2
3 -20 2 39.0775 4.8708 2
3 20 3 1404.86 20.1725 2
3 -20 4 610.349 9.67338 2
3 -21 -5 328.462 8.86161 2
3 -21 -4 279.946 7.5608 2
3 21 -3 249.046 5.63635 2
3 -21 -2 100.151 5.21131 2
3 -21 -1 2979.07 15.4232 2
3 21 0 73.3178 6.41375 2
3 21 1 792.738 8.28926 2
3 -21 2 336.527 8.71065 2
3 21 3 459.227 10.3247 2
3 21 4 6.76631 5.55993 2
3 -22 -5 122.04 5.38605 2
3 -22 -4 143.527 7.28587 2
3 22 -3 107.255 5.4313 2
3 -22 -2 1296.26 9.35201 2
3 -22 -1 8.42053 4.13147 2
3 -22 0 1990.86 13.4811 2
3 22 1 58.0119 4.71859 2
3 -22 2 11.526 4.91207 2
3 -22 3 57.046 4.59012 2
3 -23 -4 852 10.5653 2
3 23 -3 70.5538 4.12728 2
3 -23 -2 431.904 6.77148 2
3 -23 -1 1371.75 12.5188 2
3 23 0 531.793 7.03738 2
3 23 1 342.015 7.39112 2
3 -23 2 956.438 9.21437 2
3 -24 -3 1392.56 12.302 2
3 -24 -2 6.62819 4.26336 2
3 -24 -1 44.4367 5.46515 2
3 -24 0 31.6783 5.42011 2
3 -24 1 1103.67 8.80459 2
5 -1 0 63.455 14.32 2
5 -1 1 778.402 14.0098 2
5 -2 0 124.546 14.2974 2
5 -2 1 95.1828 12.4505 2
5 -3 0 42.1385 9.09501 2
5 -3 1 41.3312 10.7946 2
5 -4 -2 23.8192 11.2276 2
5 -4 0 394.024 11.1854 2
5 -4 1 -0.9327 9.62587 2
5 -5 -2 20.9796 9.78731 2
5 -5 0 -8.18854 8.12146 2
5 -6 -2 3.42284 8.40356 2
loop_
_geom_angle_atom_site_label_1
_geom_angle_atom_site_label_2
_geom_angle_atom_site_label_3
_geom_angle
_geom_angle_site_symmetry_1
_geom_angle_site_symmetry_3
_geom_angle_publ_flag
C9 C10 I1 177.7(5) . . ?
C5 C6 H6 120.7 . . ?
C5 C6 C1 118.7(5) . . ?
C1 C6 H6 120.7 . . ?
C2 C3 H3 119.6 . . ?
C2 C3 C4 120.8(5) . . ?
C4 C3 H3 119.6 . . ?
C6 C5 H5 120.0 . . ?
C6 C5 C4 119.9(5) . . ?
C4 C5 H5 120.0 . . ?
C3 C2 H2 120.0 . . ?
C3 C2 C1 120.1(5) . . ?
C1 C2 H2 120.0 . . ?
C3 C4 C5 119.7(5) . . ?
C3 C4 C7 121.5(6) . . ?
C5 C4 C7 118.8(5) . . ?
C10 C9 C8 178.2(6) . . ?
N1 C7 C4 178.5(8) . . ?
C6 C1 C8 117.4(5) . . ?
C2 C1 C6 120.8(5) . . ?
C2 C1 C8 121.8(5) . . ?
O1 C8 C9 121.5(6) . . ?
O1 C8 C1 121.9(6) . . ?
C9 C8 C1 116.6(5) . . ?
loop_
_geom_bond_atom_site_label_1
_geom_bond_atom_site_label_2
_geom_bond_distance
_geom_bond_site_symmetry_2
_geom_bond_publ_flag
I1 C10 2.011(6) . ?
C10 C9 1.182(8) . ?
O1 C8 1.216(7) . ?
C6 H6 0.9300 . ?
C6 C5 1.394(8) . ?
C6 C1 1.402(8) . ?
C3 H3 0.9300 . ?
C3 C2 1.371(8) . ?
C3 C4 1.380(8) . ?
C5 H5 0.9300 . ?
C5 C4 1.413(9) . ?
C2 H2 0.9300 . ?
C2 C1 1.387(7) . ?
C4 C7 1.430(9) . ?
C9 C8 1.455(8) . ?
C7 N1 1.142(9) . ?
C1 C8 1.500(8) . ?
loop_
_geom_torsion_atom_site_label_1
_geom_torsion_atom_site_label_2
_geom_torsion_atom_site_label_3
_geom_torsion_atom_site_label_4
_geom_torsion
_geom_torsion_site_symmetry_1
_geom_torsion_site_symmetry_2
_geom_torsion_site_symmetry_3
_geom_torsion_site_symmetry_4
_geom_torsion_publ_flag
C6 C5 C4 C3 2.0(11) . . . . ?
C6 C5 C4 C7 -180.0(6) . . . . ?
C6 C1 C8 O1 -7.2(8) . . . . ?
C6 C1 C8 C9 171.7(5) . . . . ?
C3 C2 C1 C6 -0.6(9) . . . . ?
C3 C2 C1 C8 -179.6(5) . . . . ?
C5 C6 C1 C2 2.2(9) . . . . ?
C5 C6 C1 C8 -178.7(5) . . . . ?
C2 C3 C4 C5 -0.3(10) . . . . ?
C2 C3 C4 C7 -178.3(6) . . . . ?
C2 C1 C8 O1 171.8(6) . . . . ?
C2 C1 C8 C9 -9.3(8) . . . . ?
C4 C3 C2 C1 -0.4(9) . . . . ?
C1 C6 C5 C4 -2.9(10) . . . . ?
loop_
_twin_individual_id
_twin_individual_mass_fraction_refined
_oxdiff_twin_reflns_isolated
_oxdiff_twin_reflns_overlapped
_twin_individual_twin_lattice_type
_twin_individual_twin_matrix_11
_twin_individual_twin_matrix_12
_twin_individual_twin_matrix_13
_twin_individual_twin_matrix_21
_twin_individual_twin_matrix_22
_twin_individual_twin_matrix_23
_twin_individual_twin_matrix_31
_twin_individual_twin_matrix_32
_twin_individual_twin_matrix_33
1 0.5492(18) 2306 1990 ref 1.0000 0.0000 0.0000 0.0000 1.0000 0.0000 0.0000
0.0000 1.0000
2 0.4508(18) 2324 1990 nmt 1.0000 -0.0003 0.0001 -0.0045 -1.0001 -0.0061 -0.4948
0.0009 -0.9999
