#------------------------------------------------------------------------------
#$Date: 2021-12-21 01:35:35 +0200 (Tue, 21 Dec 2021) $
#$Revision: 271547 $
#$URL: file:///home/coder/svn-repositories/cod/cif/7/24/40/7244086.cif $
#------------------------------------------------------------------------------
#
# This file is available in the Crystallography Open Database (COD),
# http://www.crystallography.net/
#
# All data on this site have been placed in the public domain by the
# contributors.
#
data_7244086
loop_
_publ_author_name
'Panikkattu, Vinu V.'
'Sinha, Abhijeet Shekhar'
'Aaker\"oy, Christer'
_publ_section_title
;
 A family of powerful halogen-bond donors: A structural and theoretical
 analysis of triply activated 3-iodo-1-phenylprop-2-yn-1-ones
;
_journal_name_full               CrystEngComm
_journal_paper_doi               10.1039/D1CE01583D
_journal_year                    2022
_chemical_formula_moiety         'C9 H4 I N O3'
_chemical_formula_sum            'C9 H4 I N O3'
_chemical_formula_weight         301.041
_chemical_name_systematic        3-iodo-1-(4-nitrophenyl)prop-2-yn-1-one
_space_group_crystal_system      monoclinic
_space_group_IT_number           14
_space_group_name_Hall           '-P 2ybc'
_space_group_name_H-M_alt        'P 1 21/c 1'
_symmetry_Int_Tables_number      14
_atom_sites_solution_primary     dual
_audit_creation_date             2021-01-16
_audit_creation_method
;
Olex2 1.3-ac4
(compiled 2020.03.28 svn.rd84adfe8 for Rigaku Oxford Diffraction, GUI svn.r6032)
;
_audit_update_record
;
2021-09-15 deposited with the CCDC.	2021-12-20 downloaded from the CCDC.
;
_cell_angle_alpha                90
_cell_angle_beta                 93.341(3)
_cell_angle_gamma                90
_cell_formula_units_Z            4
_cell_length_a                   4.0639(1)
_cell_length_b                   23.333(1)
_cell_length_c                   10.0221(4)
_cell_measurement_reflns_used    6251
_cell_measurement_temperature    170.01(10)
_cell_measurement_theta_max      33.0180
_cell_measurement_theta_min      2.2070
_cell_volume                     948.71(6)
_computing_cell_refinement       'CrysAlisPro 1.171.40.84a (Rigaku OD, 2020)'
_computing_data_collection       'CrysAlisPro 1.171.40.84a (Rigaku OD, 2020)'
_computing_data_reduction        'CrysAlisPro 1.171.40.84a (Rigaku OD, 2020)'
_computing_molecular_graphics    'Olex2 1.3-ac4 (Dolomanov et al., 2009)'
_computing_publication_material  'Olex2 1.3-ac4 (Dolomanov et al., 2009)'
_computing_structure_refinement  'olex2.refine 1.3-ac4 (Bourhis et al., 2015)'
_computing_structure_solution    'SHELXT 2018/2 (Sheldrick, 2018)'
_diffrn_ambient_environment      N~2~
_diffrn_ambient_temperature      170.01(10)
_diffrn_detector                 'Hybrid Pixel Array Detector'
_diffrn_detector_area_resol_mean 10.0000
_diffrn_detector_type            HyPix
_diffrn_measured_fraction_theta_full 0.9994
_diffrn_measured_fraction_theta_max 0.8529
_diffrn_measurement_details
;
List of Runs (angles in degrees, time in seconds):

  # Type    Start    End  Width  t~exp~   \w     \q     \k     \f   Frames
#--------------------------------------------------------------------------
  1  \w    -10.00  85.00   0.50   16.33    --   12.33  77.00   0.00  190
  2  \w     20.00  46.00   0.50   16.33    --   12.33  38.00 -60.00   52
  3  \w    -62.00   2.00   0.50   16.33    --   12.33 -19.00  60.00  128
  4  \w    -62.00   3.00   0.50   16.33    --  -12.49 -57.00   0.00  130
  5  \w     28.00  68.00   0.50   16.33    --   12.33-140.00 -35.00   80
  6  \w     16.00  41.00   0.50   16.33    --   12.33-130.00 138.00   50
  7  \w     42.00  80.00   0.50   16.33    --   12.33-178.00  60.00   76
;
_diffrn_measurement_device       'four-circle diffractometer'
_diffrn_measurement_device_type  'XtaLAB Synergy, Dualflex, HyPix'
_diffrn_measurement_method       '\w scans'
_diffrn_orient_matrix_type
'CrysAlisPro convention (1999,Acta A55,543-557)'
_diffrn_orient_matrix_UB_11      0.0159223000
_diffrn_orient_matrix_UB_12      0.0302165000
_diffrn_orient_matrix_UB_13      -0.0035206000
_diffrn_orient_matrix_UB_21      0.1037820000
_diffrn_orient_matrix_UB_22      -0.0030073000
_diffrn_orient_matrix_UB_23      -0.0540973000
_diffrn_orient_matrix_UB_31      -0.1397690000
_diffrn_orient_matrix_UB_32      0.0012298000
_diffrn_orient_matrix_UB_33      -0.0457269000
_diffrn_radiation_monochromator  mirror
_diffrn_radiation_probe          x-ray
_diffrn_radiation_type           'Mo K\a'
_diffrn_radiation_wavelength     0.71073
_diffrn_reflns_av_R_equivalents  0.0262
_diffrn_reflns_av_unetI/netI     0.0223
_diffrn_reflns_Laue_measured_fraction_full 0.9994
_diffrn_reflns_Laue_measured_fraction_max 0.8529
_diffrn_reflns_limit_h_max       6
_diffrn_reflns_limit_h_min       -5
_diffrn_reflns_limit_k_max       34
_diffrn_reflns_limit_k_min       -35
_diffrn_reflns_limit_l_max       14
_diffrn_reflns_limit_l_min       -15
_diffrn_reflns_number            11750
_diffrn_reflns_point_group_measured_fraction_full 0.9994
_diffrn_reflns_point_group_measured_fraction_max 0.8529
_diffrn_reflns_theta_full        25.2417
_diffrn_reflns_theta_max         33.58
_diffrn_reflns_theta_min         2.21
_diffrn_source                   'micro-focus sealed X-ray tube'
_diffrn_source_type              'PhotonJet (Mo) X-ray Source'
_exptl_absorpt_coefficient_mu    3.353
_exptl_absorpt_correction_T_max  1.00000
_exptl_absorpt_correction_T_min  0.41985
_exptl_absorpt_correction_type   multi-scan
_exptl_absorpt_process_details
;
CrysAlisPro 1.171.40.84a (Rigaku Oxford Diffraction, 2020)
Empirical absorption correction using spherical harmonics,
implemented in SCALE3 ABSPACK scaling algorithm.
;
_exptl_crystal_colour            'clear light colourless'
_exptl_crystal_colour_lustre     clear
_exptl_crystal_colour_modifier   light
_exptl_crystal_colour_primary    colourless
_exptl_crystal_density_diffrn    2.108
_exptl_crystal_description       plate
_exptl_crystal_F_000             566.714
_exptl_crystal_recrystallization_method 'crystallized from dioxane'
_exptl_crystal_size_max          0.151
_exptl_crystal_size_mid          0.129
_exptl_crystal_size_min          0.069
_refine_diff_density_max         1.8023
_refine_diff_density_min         -1.3657
_refine_diff_density_rms         0.1425
_refine_ls_d_res_high            0.6424
_refine_ls_d_res_low             9.1954
_refine_ls_extinction_expression Fc^*^=kFc[1+0.001xFc^2^\l^3^/sin(2\q)]^-1/4^
_refine_ls_goodness_of_fit_ref   1.0409
_refine_ls_hydrogen_treatment    constr
_refine_ls_matrix_type           full
_refine_ls_number_constraints    8
_refine_ls_number_parameters     128
_refine_ls_number_reflns         3206
_refine_ls_number_restraints     0
_refine_ls_restrained_S_all      1.0409
_refine_ls_R_factor_all          0.0438
_refine_ls_R_factor_gt           0.0345
_refine_ls_shift/su_max          0.0008
_refine_ls_shift/su_mean         0.0000
_refine_ls_structure_factor_coef Fsqd
_refine_ls_weighting_details
'w=1/[\s^2^(Fo^2^)+(0.0347P)^2^+1.4396P] where P=(Fo^2^+2Fc^2^)/3'
_refine_ls_weighting_scheme      calc
_refine_ls_wR_factor_gt          0.0800
_refine_ls_wR_factor_ref         0.0835
_reflns_Friedel_coverage         0.0
_reflns_limit_h_max              6
_reflns_limit_h_min              -5
_reflns_limit_k_max              35
_reflns_limit_k_min              0
_reflns_limit_l_max              15
_reflns_limit_l_min              0
_reflns_number_gt                2656
_reflns_number_total             3206
_reflns_threshold_expression     I>=2u(I)
_iucr_refine_instructions_details
;
TITL exp_70_a.res in P2(1)/c
REM Old TITL exp_70 in P2(1)/c
REM SHELXT solution in P2(1)/c: R1 0.119, Rweak 0.008, Alpha 0.043
REM <I/s> 0.909 for 64 systematic absences, Orientation as input
REM Formula found by SHELXT: C7 C9 O14 I
CELL 0.71073 4.0639 23.333 10.0221 90 93.341 90
ZERR 4 0.0001 0.001 0.0004 0 0.003 0
LATT 1
SYMM -X,0.5+Y,0.5-Z
SFAC C H I N O
UNIT 36 16 4 4 12

L.S. 34
PLAN  5
CONF
MORE -1
BOND $H
fmap 2
acta 
EXTI 0
WGHT 0.034711 1.439642
FVAR 0.237818
REM <olex2.extras>
REM <HklSrc "%.\\exp_70.hkl">
REM </olex2.extras>

I10   3     0.71950  0.07655  0.61036  11.00000  0.03346  0.03650  0.05423 =
 0.00905  0.00189  0.00607 
O11   5     0.19166  0.25934  0.35324  11.00000  0.05385  0.04194  0.04539 =
 -0.00618 -0.02270 -0.00019 
O14   5     1.13491  0.44950  0.79690  11.00000  0.06105  0.04500  0.04930 =
 -0.00788 -0.01530 -0.01091 
N12   4     0.93979  0.45453  0.70071  11.00000  0.04096  0.03155  0.04367 =
 -0.00621  0.00131 -0.00558 
O13   5     0.85720  0.50091  0.65412  11.00000  0.09126  0.02501  0.07636 =
 -0.00194 -0.02713 -0.00263 
C5    1     0.86047  0.35036  0.69804  11.00000  0.03089  0.03547  0.02705 =
 0.00082 -0.00462 -0.00212 
AFIX 43
H5    2     0.98739  0.34783  0.77809  11.00000 -1.20000 
AFIX 0
C4    1     0.79874  0.40226  0.63801  11.00000  0.03274  0.02852  0.03197 =
 -0.00203  0.00035 -0.00158 
C1    1     0.53541  0.30637  0.51730  11.00000  0.02550  0.02927  0.02717 =
 0.00069 -0.00236  0.00104 
C6    1     0.72848  0.30160  0.63621  11.00000  0.03036  0.02784  0.03130 =
 0.00469 -0.00519  0.00009 
AFIX 43
H6    2     0.76901  0.26574  0.67422  11.00000 -1.20000 
AFIX 0
C8    1     0.48393  0.19902  0.50240  11.00000  0.03435  0.03057  0.03777 =
 -0.00507 -0.00170 -0.00196 
C3    1     0.60977  0.40827  0.51805  11.00000  0.04236  0.02667  0.03715 =
 0.00454 -0.00386  0.00148 
AFIX 43
H3    2     0.57430  0.44416  0.47950  11.00000 -1.20000 
AFIX 0
C9    1     0.56857  0.15287  0.54217  11.00000  0.02988  0.03403  0.03941 =
 -0.00044 -0.00059 -0.00190 
C2    1     0.47759  0.35989  0.45840  11.00000  0.03659  0.03476  0.03002 =
 0.00183 -0.00837  0.00222 
AFIX 43
H2    2     0.34946  0.36277  0.37872  11.00000 -1.20000 
AFIX 0
C7    1     0.38779  0.25489  0.45009  11.00000  0.03340  0.03228  0.03471 =
 -0.00132 -0.00426  0.00088 
HKLF 4

END
Q1 1 0.8 0.083333 0.675 11 0.05 1.8
Q2 1 0.8 0.072917 0.55 11 0.05 1.03
Q3 1 0.6 0.302083 0.575 11 0.05 0.8
Q4 1 0.533333 0.041667 0.575 11 0.05 0.64
Q5 1 0.533333 0.104167 0.575 11 0.05 0.57

  REM The information below was added by Olex2.
  REM
  REM R1 = 0.0345 for 2656 Fo > 4sig(Fo) and 0.0438 for all 3206 data
  REM 128 parameters refined using 0 restraints
  REM Highest difference peak 1.8023, deepest hole -1.3657
  REM Mean Shift 0.0000, Max Shift 0.0008.

  REM +++ Tabular Listing of Refinement Information +++
  REM R1_all = 0.0438
  REM R1_gt = 0.0345
  REM wR_ref = 0.0835
  REM GOOF = 1.0409
  REM Shift_max = 0.0008
  REM Shift_mean = 0.0000
  REM Reflections_all = 3206
  REM Reflections_gt = 2656
  REM Parameters = 128
  REM Hole = -1.3657
  REM Peak = 1.8023
  REM Flack = n/a

  
;
_cod_data_source_file            d1ce01583d2.cif
_cod_data_source_block           exp_70
_cod_database_code               7244086
_chemical_oxdiff_formula         'C9 H4 I1 N1 O3'
_reflns_odcompleteness_completeness 99.89
_reflns_odcompleteness_iscentric 1
_reflns_odcompleteness_theta     29.97
_olex2_refinement_description
;
1. Fixed Uiso
 At 1.2 times of:
  All C(H) groups
2.a Aromatic/amide H refined with riding coordinates:
 C5(H5), C6(H6), C3(H3), C2(H2)
;
_iucr_refine_fcf_details
;
data_exp_70_CCDC1
_computing_structure_refinement   'SHELXL-2018/3 (Sheldrick, 2018)'
_shelx_refln_list_code            4
loop_
  _space_group_symop_id
  _space_group_symop_operation_xyz
  1  x,y,z
  2  -x,y+1/2,-z+1/2
  3  -x,-y,-z
  4  x,-y-1/2,z-1/2

_space_group_crystal_system       monoclinic
_space_group_IT_number            14
_space_group_name_H-M_alt         'P 1 21/c 1'
_space_group_name_Hall            '-P 2ybc'
_symmetry_space_group_name_H-M    'P 1 21/c 1'
_symmetry_space_group_name_Hall   '-P 2ybc'
_symmetry_Int_Tables_number       14
_cell_length_a                    4.0639(1)
_cell_length_b                    23.333(1)
_cell_length_c                    10.0221(4)
_cell_angle_alpha                 90
_cell_angle_beta                  93.341(3)
_cell_angle_gamma                 90
_cell_volume                      948.71(6)
loop_
  _refln_index_h
  _refln_index_k
  _refln_index_l
  _refln_F_squared_calc
  _refln_F_squared_meas
  _refln_F_squared_sigma
  _refln_F_squared_weight
  _refln_observed_status
-5 0 2 651.738 667.056 30.603 6.974 o
-5 0 4 120.240 137.163 14.271 41.467 o
-5 0 6 388.777 365.471 27.936 11.140 o
-5 0 8 50.338 58.879 18.212 40.697 o
-5 1 1 915.141 873.426 25.927 5.682 o
-5 1 2 99.002 108.266 8.167 74.050 o
-5 1 3 10.523 15.992 6.534 276.227 o
-5 1 4 129.767 137.877 10.162 53.164 o
-5 1 5 530.174 519.478 17.100 12.099 o
-5 1 6 22.360 27.141 11.064 106.303 o
-5 1 7 34.982 37.557 11.814 86.924 o
-5 1 8 80.948 80.489 25.019 22.333 o
-5 2 1 0.576 -1.973 7.837 270.311 o
-5 2 2 114.088 132.126 9.153 61.129 o
-5 2 3 760.871 786.265 19.270 7.642 o
-5 2 4 152.460 135.555 10.846 47.191 o
-5 2 5 23.641 42.271 9.075 132.540 o
-5 2 6 194.133 174.365 16.974 27.898 o
-5 2 7 152.065 165.367 15.747 33.319 o
-5 2 8 10.216 10.188 11.560 112.842 o
-5 3 1 17.203 20.169 7.604 198.474 o
-5 3 2 405.348 448.288 17.916 14.730 o
-5 3 3 6.667 23.802 7.914 207.758 o
-5 3 4 475.876 497.646 15.993 13.592 o
-5 3 5 17.859 18.899 7.625 197.670 o
-5 3 6 80.062 83.546 12.626 58.928 o
-5 3 7 10.070 12.583 11.493 113.245 o
-5 3 8 361.023 372.691 23.604 13.478 o
-5 4 1 7.549 12.513 7.134 260.744 o
-5 4 2 91.727 110.716 8.656 73.579 o
-5 4 3 893.270 953.678 20.435 6.119 o
-5 4 4 0.471 14.952 7.023 293.977 o
-5 4 5 34.775 53.559 7.777 137.776 o
-5 4 6 73.634 76.077 12.581 61.558 o
-5 4 7 412.587 381.461 21.745 13.437 o
-5 4 8 0.304 23.606 12.745 96.202 o
-5 5 1 823.317 838.326 20.348 6.885 o
-5 5 2 545.220 499.504 16.229 12.275 o
-5 5 3 3.355 5.552 6.787 322.348 o
-5 5 4 345.941 374.745 14.454 19.188 o
-5 5 5 371.359 384.886 13.428 18.788 o
-5 5 6 22.600 36.217 9.927 120.952 o
-5 5 7 12.592 12.646 18.831 44.921 o
-5 5 8 45.665 91.397 13.937 58.497 o
-5 6 1 41.234 56.616 8.958 112.001 o
-5 6 2 348.932 379.010 14.461 19.012 o
-5 6 3 49.424 47.237 7.567 128.649 o
-5 6 4 366.979 364.312 13.157 19.443 o
-5 6 5 35.791 48.301 8.061 134.624 o
-5 6 6 573.221 592.776 21.303 9.893 o
-5 6 7 17.572 15.954 15.736 61.477 o
-5 6 8 0.597 3.833 10.914 137.859 o
-5 7 1 995.555 1021.770 22.799 5.267 o
-5 7 2 5.846 11.999 7.460 249.684 o
-5 7 3 28.195 37.045 7.505 163.699 o
-5 7 4 79.077 91.463 8.881 80.931 o
-5 7 5 437.718 480.882 15.127 14.878 o
-5 7 6 2.756 27.741 10.343 136.117 o
-5 7 7 100.603 91.098 16.355 39.963 o
-5 7 8 15.079 22.455 18.212 46.889 o
-5 8 1 38.858 48.910 7.601 138.808 o
-5 8 2 433.553 434.090 13.965 16.014 o
-5 8 3 382.903 378.685 14.812 17.747 o
-5 8 4 162.242 190.186 10.908 41.731 o
-5 8 5 38.867 59.359 8.274 122.487 o
-5 8 6 151.151 192.223 14.384 35.123 o
-5 8 7 90.560 95.418 15.062 45.300 o
-5 8 8 21.671 29.528 18.742 43.294 o
-5 8 9 22.917 25.991 16.267 55.885 o
-5 9 1 44.791 53.229 7.406 132.846 o
-5 9 2 318.685 323.563 15.507 20.300 o
-5 9 3 0.382 28.497 7.733 226.515 o
-5 9 4 501.519 531.462 16.539 12.642 o
-5 9 5 86.923 85.965 8.039 84.464 o
-5 9 6 69.993 74.655 8.719 90.462 o
-5 9 7 11.959 16.577 10.196 135.532 o
-5 9 8 201.532 244.066 19.461 22.477 o
-5 10 1 17.441 26.381 6.964 213.681 o
-5 10 2 89.174 93.088 8.664 77.851 o
-5 10 3 791.514 865.997 19.636 7.087 o
-5 10 4 0.113 16.020 7.298 274.201 o
-5 10 5 36.954 41.896 7.267 152.057 o
-5 10 6 8.686 16.935 10.198 138.883 o
-5 10 7 217.713 252.659 16.350 25.347 o
-5 10 8 0.527 11.953 12.098 109.758 o
-5 11 1 375.583 361.360 16.572 17.196 o
-5 11 2 270.835 266.225 11.560 27.521 o
-5 11 3 10.036 19.611 7.958 202.852 o
-5 11 4 220.234 238.397 10.277 33.975 o
-5 11 5 99.205 111.917 8.321 72.507 o
-5 11 6 32.956 38.126 6.970 167.596 o
-5 11 7 13.567 7.685 8.049 205.140 o
-5 11 8 124.571 134.609 16.219 35.878 o
-5 12 1 8.361 40.814 9.264 147.112 o
-5 12 2 136.090 137.962 10.463 50.950 o
-5 12 3 112.292 105.343 7.903 71.177 o
-5 12 4 119.930 136.963 8.598 61.191 o
-5 12 5 0.308 19.610 6.522 320.295 o
-5 12 6 330.148 333.827 12.870 21.616 o
-5 12 7 69.819 68.713 12.398 64.559 o
-5 12 8 1.523 1.238 15.029 73.498 o
-5 13 1 985.136 1002.410 23.762 5.278 o
-5 13 2 27.171 57.684 8.815 125.830 o
-5 13 3 3.899 8.441 5.956 386.873 o
-5 13 4 3.528 12.917 6.278 341.551 o
-5 13 5 382.469 413.447 14.911 17.204 o
-5 13 6 13.462 31.244 7.449 199.780 o
-5 13 7 12.133 16.905 10.487 128.910 o
-5 13 8 0.420 10.432 14.322 79.569 o
-5 14 1 41.216 60.417 10.948 87.641 o
-5 14 2 271.752 267.983 11.875 27.081 o
-5 14 3 79.468 93.954 7.794 87.866 o
-5 14 4 79.626 87.253 7.703 90.178 o
-5 14 5 2.193 20.087 7.201 263.057 o
-5 14 6 186.945 191.427 11.672 37.202 o
-5 14 7 55.886 51.038 12.097 73.474 o
-5 15 1 90.478 107.233 10.099 66.633 o
-5 15 2 58.982 69.721 9.501 90.533 o
-5 15 3 2.469 16.617 6.936 286.320 o
-5 15 4 174.952 196.684 10.489 40.631 o
-5 15 5 119.659 123.789 9.106 60.958 o
-5 15 6 24.940 34.493 26.168 23.068 o
-5 15 7 40.990 49.162 11.900 80.989 o
-5 16 1 2.811 -2.487 8.143 242.735 o
-5 16 2 6.768 14.385 7.647 232.715 o
-5 16 3 473.885 473.229 17.124 13.451 o
-5 16 4 20.517 30.856 7.238 191.284 o
-5 16 5 35.296 44.048 7.620 145.872 o
-5 16 6 0.031 -12.023 16.974 58.139 o
-5 16 7 64.458 67.896 18.565 37.705 o
-5 17 1 52.903 30.594 11.665 82.110 o
-5 17 2 270.634 269.190 15.376 23.486 o
-5 17 3 6.980 14.288 9.617 157.820 o
-5 17 4 249.824 245.493 12.806 28.112 o
-5 17 5 10.928 9.926 8.781 181.119 o
-5 17 6 51.258 45.618 18.565 40.011 o
-5 18 1 28.727 18.953 11.127 103.893 o
-5 18 2 203.792 194.244 15.865 28.443 o
-5 18 3 165.748 152.020 14.784 34.765 o
-5 18 4 20.529 21.829 11.581 101.634 o
-5 18 5 14.628 20.864 15.736 61.586 o
-5 19 1 374.419 375.398 26.433 11.903 o
-5 19 2 42.951 35.134 11.289 89.349 o
-5 19 3 1.938 2.665 9.809 168.600 o
-5 19 4 7.687 9.548 14.322 77.145 o
-5 20 1 9.111 1.238 15.736 65.180 o
-5 20 2 136.284 122.354 20.687 26.244 o
-5 20 3 11.654 18.919 14.675 71.024 o
-5 20 4 129.528 152.589 21.041 25.270 o
-5 21 1 168.850 148.699 20.687 24.172 o
-5 21 2 40.621 28.820 15.029 59.764 o
-5 21 3 0.099 -7.957 14.145 83.689 o
-4 0 2 312.228 289.331 10.274 25.543 o
-4 0 4 1717.650 1618.150 38.656 2.283 o
-4 0 6 204.073 177.921 16.709 27.626 o
-4 0 8 1635.020 1535.040 41.462 2.354 o
-4 0 10 21.331 8.078 9.217 152.778 o
-4 1 1 40.498 48.314 4.955 188.565 o
-4 1 2 474.104 457.526 9.727 16.206 o
-4 1 3 2190.530 2053.740 31.128 1.745 o
-4 1 4 99.008 102.131 9.081 70.223 o
-4 1 5 191.158 175.949 4.252 51.120 o
-4 1 6 431.461 392.260 11.408 17.758 o
-4 1 7 575.215 579.688 20.939 10.035 o
-4 1 8 5.978 19.497 6.393 298.619 o
-4 1 9 163.137 156.999 8.958 48.781 o
-4 1 10 83.038 72.928 9.517 78.681 o
-4 2 1 2500.180 2430.330 30.539 1.409 o
-4 2 2 525.444 476.409 15.338 13.083 o
-4 2 3 91.575 90.746 8.364 79.230 o
-4 2 4 766.567 715.278 19.530 7.839 o
-4 2 5 735.412 692.652 11.071 9.373 o
-4 2 6 37.393 39.608 6.277 174.409 o
-4 2 7 71.072 89.643 11.752 65.302 o
-4 2 8 95.952 95.936 9.977 67.341 o
-4 2 9 153.150 155.475 8.332 52.423 o
-4 2 10 0.429 5.760 6.329 387.501 o
-4 3 1 24.375 37.127 6.207 207.532 o
-4 3 2 1679.110 1660.070 23.343 2.649 o
-4 3 3 65.695 52.355 5.904 131.338 o
-4 3 4 360.922 291.407 5.638 25.558 o
-4 3 5 43.644 31.195 5.614 185.624 o
-4 3 6 1829.280 1708.850 30.287 2.279 o
-4 3 7 64.100 55.585 11.139 77.272 o
-4 3 8 33.251 13.376 6.569 203.468 o
-4 3 9 0.623 -2.742 6.754 362.514 o
-4 3 10 322.832 340.863 16.344 19.237 o
-4 3 11 2.006 2.122 12.023 113.571 o
-4 4 1 3287.780 3070.540 57.590 0.821 o
-4 4 2 17.208 25.845 5.444 283.726 o
-4 4 3 189.738 203.085 11.609 36.437 o
-4 4 4 259.798 267.478 7.658 32.261 o
-4 4 5 1698.320 1541.380 24.072 2.696 o
-4 4 6 7.354 23.381 6.753 261.468 o
-4 4 7 246.761 239.020 25.549 15.567 o
-4 4 8 73.964 71.062 10.344 76.671 o
-4 4 9 179.616 198.906 11.334 38.247 o
-4 4 10 2.157 10.163 8.361 217.907 o
-4 5 1 21.236 32.857 5.639 243.842 o
-4 5 2 1150.860 1139.340 17.517 4.728 o
-4 5 3 1416.370 1371.040 29.734 3.181 o
-4 5 4 141.758 139.192 6.146 63.327 o
-4 5 5 122.487 133.724 11.487 50.324 o
-4 5 6 233.410 250.753 8.176 34.892 o
-4 5 7 447.225 461.734 14.598 15.091 o
-4 5 8 5.689 12.213 5.526 399.534 o
-4 5 9 115.114 112.942 10.993 55.604 o
-4 5 10 133.343 148.823 11.057 48.592 o
-4 6 1 204.420 192.689 8.263 41.325 o
-4 6 2 1189.200 1080.660 26.796 4.209 o
-4 6 3 95.782 103.660 4.641 95.797 o
-4 6 4 2465.110 2380.220 55.061 1.223 o
-4 6 5 85.033 63.350 5.589 111.278 o
-4 6 6 0.348 0.941 4.215 902.824 o
-4 6 7 41.606 45.072 7.349 142.237 o
-4 6 8 550.671 587.287 12.949 12.320 o
-4 6 9 0.722 0.715 5.726 495.255 o
-4 6 10 13.557 10.432 10.627 127.742 o
-4 7 1 73.694 91.963 7.835 91.090 o
-4 7 2 251.780 263.284 8.211 32.584 o
-4 7 3 1500.480 1485.170 19.686 3.200 o
-4 7 4 2.110 23.634 5.878 348.880 o
-4 7 5 407.624 401.240 10.401 18.822 o
-4 7 6 71.075 70.553 5.455 121.493 o
-4 7 7 502.238 533.982 19.855 11.559 o
-4 7 8 2.412 22.185 5.712 366.724 o
-4 7 9 118.900 115.451 7.874 67.488 o
-4 7 10 0.630 8.310 10.877 136.290 o
-4 8 1 1213.590 1186.590 34.859 3.566 o
-4 8 2 578.914 569.007 14.879 11.559 o
-4 8 3 189.589 199.137 6.457 46.024 o
-4 8 4 721.847 730.288 16.057 8.663 o
-4 8 5 323.278 355.661 10.893 22.822 o
-4 8 6 80.996 94.667 9.060 78.259 o
-4 8 7 134.341 145.187 9.462 53.853 o
-4 8 8 406.323 383.503 11.899 18.467 o
-4 8 9 84.436 86.266 7.484 89.508 o
-4 8 10 7.201 1.798 8.913 192.011 o
-4 9 1 4.027 22.098 5.464 376.931 o
-4 9 2 1733.360 1756.150 19.898 2.556 o
-4 9 3 334.136 329.453 7.949 24.810 o
-4 9 4 316.931 294.937 17.751 19.118 o
-4 9 5 61.725 77.416 6.974 111.363 o
-4 9 6 1075.630 1072.850 16.297 5.228 o
-4 9 7 112.892 104.249 9.800 62.278 o
-4 9 8 1.167 12.856 4.908 533.308 o
-4 9 9 47.931 42.080 5.653 166.362 o
-4 9 10 252.043 269.798 39.871 8.207 o
-4 10 1 2611.070 2622.840 47.050 1.178 o
-4 10 2 0.786 16.540 4.648 552.208 o
-4 10 3 154.344 161.978 6.274 56.812 o
-4 10 4 47.826 55.747 7.968 120.344 o
-4 10 5 935.475 975.222 17.430 6.083 o
-4 10 6 3.684 20.147 6.472 303.523 o
-4 10 7 259.978 252.484 10.292 30.104 o
-4 10 8 3.616 3.676 4.699 613.022 o
-4 10 9 144.266 150.494 9.068 52.564 o
-4 10 10 2.404 10.962 18.565 47.556 o
-4 11 1 36.071 53.479 5.865 173.074 o
-4 11 2 725.800 765.919 13.226 8.829 o
-4 11 3 337.717 355.561 13.919 20.164 o
-4 11 4 144.511 150.496 7.890 56.022 o
-4 11 5 55.301 73.163 6.737 121.318 o
-4 11 6 557.565 583.404 14.941 11.760 o
-4 11 7 96.410 92.678 6.335 89.087 o
-4 11 8 0.320 5.297 5.056 589.565 o
-4 11 9 33.776 40.957 6.744 168.990 o
-4 12 1 352.436 366.384 10.233 21.689 o
-4 12 2 410.883 412.298 10.925 18.300 o
-4 12 3 0.616 31.231 5.665 350.427 o
-4 12 4 1311.100 1311.380 29.500 3.469 o
-4 12 5 360.073 335.105 10.570 21.836 o
-4 12 6 9.378 20.524 6.139 295.258 o
-4 12 7 81.759 69.241 6.126 107.063 o
-4 12 8 327.669 354.278 14.964 19.828 o
-4 12 9 34.461 49.580 7.222 151.053 o
-4 12 10 6.382 9.017 15.383 67.785 o
-4 13 1 14.566 18.559 5.163 336.080 o
-4 13 2 4.755 6.962 5.011 506.925 o
-4 13 3 1570.050 1483.890 47.395 2.286 o
-4 13 4 28.789 44.600 6.035 192.875 o
-4 13 5 81.813 101.535 11.900 60.202 o
-4 13 6 0.861 2.144 6.356 396.401 o
-4 13 7 394.306 414.011 12.031 18.299 o
-4 13 8 0.017 17.447 6.662 317.182 o
-4 13 9 225.946 211.161 10.473 34.419 o
-4 14 1 240.982 233.133 10.016 32.724 o
-4 14 2 275.547 266.015 12.793 25.967 o
-4 14 3 1.815 21.425 5.530 392.390 o
-4 14 4 697.358 704.130 24.376 7.646 o
-4 14 5 205.048 207.286 19.891 22.548 o
-4 14 6 80.770 97.237 9.854 72.760 o
-4 14 7 32.358 51.011 8.089 136.471 o
-4 14 8 263.972 288.026 13.245 25.532 o
-4 14 9 48.527 56.011 11.252 82.442 o
-4 15 1 5.594 19.295 5.615 361.970 o
-4 15 2 566.910 576.100 12.012 12.352 o
-4 15 3 453.357 419.811 18.718 13.703 o
-4 15 4 92.152 102.029 10.412 65.235 o
-4 15 5 151.052 131.498 10.904 47.572 o
-4 15 6 731.101 752.425 19.276 8.012 o
-4 15 7 64.270 64.313 8.144 102.239 o
-4 15 8 1.962 1.730 6.727 349.260 o
-4 15 9 91.128 88.100 15.294 44.860 o
-4 16 1 1323.780 1386.070 21.973 3.645 o
-4 16 2 43.629 52.806 7.282 136.351 o
-4 16 3 108.373 120.090 8.746 66.132 o
-4 16 4 0.877 8.652 6.071 400.165 o
-4 16 5 307.130 337.255 11.252 23.781 o
-4 16 6 25.575 50.380 9.488 119.547 o
-4 16 7 135.906 130.412 9.917 53.520 o
-4 16 8 10.042 5.492 6.814 284.953 o
-4 16 9 100.856 98.131 17.858 35.281 o
-4 17 1 30.021 55.438 7.628 145.178 o
-4 17 2 886.809 896.830 19.992 6.356 o
-4 17 3 43.347 48.554 7.056 143.009 o
-4 17 4 171.108 169.666 9.706 44.683 o
-4 17 5 0.151 11.902 6.075 391.567 o
-4 17 6 411.554 417.616 17.053 15.337 o
-4 17 7 19.543 27.319 7.439 190.810 o
-4 17 8 9.874 20.968 8.559 180.097 o
-4 17 9 28.223 27.583 14.145 69.412 o
-4 18 1 443.114 448.381 14.493 15.384 o
-4 18 2 61.796 72.619 7.874 103.848 o
-4 18 3 50.181 61.838 7.509 121.621 o
-4 18 4 287.133 308.904 11.946 24.968 o
-4 18 5 278.447 270.533 11.643 26.835 o
-4 18 6 83.987 84.169 10.087 72.442 o
-4 18 7 181.490 180.494 11.135 39.479 o
-4 18 8 220.741 211.998 22.455 19.146 o
-4 18 9 37.880 52.867 16.090 51.893 o
-4 19 1 5.027 8.963 7.273 269.870 o
-4 19 2 25.901 32.346 7.452 172.954 o
-4 19 3 735.565 756.129 24.449 7.188 o
-4 19 4 19.255 38.087 7.168 188.397 o
-4 19 5 218.178 208.707 10.994 34.462 o
-4 19 6 5.029 7.443 5.619 418.668 o
-4 19 7 103.116 117.618 11.120 57.155 o
-4 19 8 0.270 7.072 13.968 84.280 o
-4 20 1 30.169 29.927 7.929 156.165 o
-4 20 2 449.225 453.169 14.499 15.182 o
-4 20 3 47.547 59.034 8.294 114.792 o
-4 20 4 545.778 530.832 20.595 10.773 o
-4 20 5 4.147 9.795 6.419 335.512 o
-4 20 6 1.481 6.911 5.945 417.807 o
-4 20 7 0.041 17.980 10.412 143.033 o
-4 21 1 0.749 0.604 8.013 256.842 o
-4 21 2 191.592 188.964 13.653 33.186 o
-4 21 3 296.672 275.145 11.811 25.489 o
-4 21 4 27.335 32.968 7.038 180.870 o
-4 21 5 62.160 80.312 10.033 81.935 o
-4 21 6 120.746 129.421 11.121 52.335 o
-4 22 1 503.921 496.783 22.132 11.058 o
-4 22 2 68.722 74.236 10.290 78.480 o
-4 22 3 92.117 118.171 11.143 59.505 o
-4 22 4 49.124 42.411 9.107 109.430 o
-4 22 5 295.792 297.794 14.634 22.431 o
-4 22 6 41.448 52.254 12.112 78.285 o
-4 22 7 90.425 78.151 15.206 45.962 o
-4 23 1 46.726 39.040 10.825 91.487 o
-4 23 2 417.907 398.515 16.982 15.445 o
-4 23 3 4.813 1.463 8.532 214.411 o
-4 23 4 44.042 43.236 10.408 96.468 o
-4 23 5 9.786 16.638 9.482 155.894 o
-4 23 6 147.266 149.230 21.218 24.297 o
-4 24 1 248.674 245.946 29.174 13.070 o
-4 24 2 66.072 75.852 20.864 30.971 o
-4 24 3 10.017 11.670 16.797 56.312 o
-4 24 4 82.878 92.650 20.687 29.867 o
-4 24 5 150.477 161.076 23.162 21.292 o
-4 25 1 57.822 54.812 20.333 33.563 o
-4 25 2 22.117 12.730 18.035 47.454 o
-4 25 3 145.075 161.960 24.223 20.157 o
-4 25 4 27.177 15.383 18.212 45.799 o
-4 25 5 37.684 31.119 17.151 48.310 o
-4 26 4 117.372 119.702 21.925 25.093 o
-4 26 5 1.369 -10.609 15.736 67.294 o
-3 0 2 5512.960 5217.960 83.962 0.334 o
-3 0 4 591.249 535.172 18.742 10.667 o
-3 0 6 8378.790 7423.460 166.734 0.142 o
-3 0 8 105.972 85.585 10.412 63.688 o
-3 0 10 408.071 398.358 30.588 9.763 o
-3 0 12 10.904 1.945 9.941 151.889 o
-3 1 1 6772.860 6583.830 61.454 0.248 o
-3 1 2 328.686 301.206 7.047 26.479 o
-3 1 3 746.086 710.855 10.727 9.195 o
-3 1 4 1616.390 1524.160 19.959 2.934 o
-3 1 5 2200.700 2008.530 32.304 1.741 o
-3 1 6 7.957 67.424 6.982 186.835 o
-3 1 7 675.249 624.475 25.615 7.880 o
-3 1 8 378.563 361.781 9.388 21.134 o
-3 1 9 87.181 109.878 12.411 55.610 o
-3 1 10 0.738 15.394 7.705 248.204 o
-3 1 11 274.097 294.268 18.683 19.747 o
-3 1 12 22.995 33.926 9.093 137.450 o
-3 1 13 0.195 -4.660 9.492 185.548 o
-3 2 1 235.303 254.812 6.495 36.359 o
-3 2 2 2196.090 2134.600 25.954 1.762 o
-3 2 3 2813.450 2651.500 30.896 1.188 o
-3 2 4 148.224 151.812 5.753 60.893 o
-3 2 5 272.973 251.104 13.398 25.890 o
-3 2 6 502.355 470.025 13.638 14.139 o
-3 2 7 629.321 617.958 12.080 11.037 o
-3 2 8 2.922 23.358 4.676 465.470 o
-3 2 9 839.316 789.584 23.589 6.553 o
-3 2 10 279.072 286.121 19.221 19.255 o
-3 2 11 1.010 6.619 7.722 262.653 o
-3 2 12 36.543 42.310 9.875 108.310 o
-3 2 13 54.108 55.873 15.383 52.520 o
-3 3 1 203.724 181.101 4.257 48.288 o
-3 3 2 1186.520 1092.220 13.268 4.861 o
-3 3 3 130.886 112.426 7.055 67.527 o
-3 3 4 7051.420 6643.520 63.606 0.234 o
-3 3 5 297.266 248.680 7.646 30.007 o
-3 3 6 134.212 105.536 6.622 69.215 o
-3 3 7 0.117 4.283 4.083 889.091 o
-3 3 8 1675.410 1595.390 38.069 2.360 o
-3 3 9 14.207 15.137 4.702 387.213 o
-3 3 10 47.182 32.012 5.255 185.318 o
-3 3 11 1.859 -5.167 7.852 264.055 o
-3 3 12 177.418 205.400 13.873 33.283 o
-3 3 13 0.115 -11.139 13.614 90.326 o
-3 4 1 697.631 693.850 10.601 9.859 o
-3 4 2 607.323 659.818 10.472 11.323 o
-3 4 3 5408.340 5094.540 68.293 0.363 o
-3 4 4 92.434 103.634 5.881 90.958 o
-3 4 5 932.843 903.793 15.552 6.449 o
-3 4 6 317.386 311.436 10.930 24.160 o
-3 4 7 774.489 752.062 13.821 8.359 o
-3 4 8 1.257 17.227 5.276 448.333 o
-3 4 9 457.334 455.807 15.034 14.758 o
-3 4 10 76.346 63.011 6.967 105.839 o
-3 4 11 31.929 35.852 9.178 125.563 o
-3 4 12 18.936 11.996 9.418 148.307 o
-3 4 13 78.570 93.357 16.444 41.986 o
-3 5 1 3884.750 3947.060 65.380 0.592 o
-3 5 2 680.592 610.807 10.368 10.640 o
-3 5 3 792.160 798.257 11.630 8.218 o
-3 5 4 862.177 786.738 14.538 7.411 o
-3 5 5 1547.220 1490.730 34.504 2.700 o
-3 5 6 16.411 21.894 5.160 314.403 o
-3 5 7 563.423 542.769 11.614 12.795 o
-3 5 8 625.387 617.445 12.900 10.948 o
-3 5 9 177.408 184.884 7.669 46.952 o
-3 5 10 12.109 13.410 5.248 365.851 o
-3 5 11 109.466 95.261 10.352 61.783 o
-3 5 12 121.849 125.423 14.261 42.013 o
-3 5 13 2.250 1.768 13.438 91.251 o
-3 6 1 224.047 239.228 6.162 38.865 o
-3 6 2 7913.800 7903.190 72.554 0.182 o
-3 6 3 301.440 250.052 10.121 27.502 o
-3 6 4 18.370 19.050 3.025 460.968 o
-3 6 5 113.224 109.957 7.299 72.882 o
-3 6 6 2568.820 2576.590 36.144 1.291 o
-3 6 7 0.610 2.181 3.994 952.729 o
-3 6 8 56.825 54.611 5.377 147.668 o
-3 6 9 33.103 34.705 5.109 220.743 o
-3 6 10 578.932 559.924 18.159 10.814 o
-3 6 11 0.772 9.457 8.203 230.819 o
-3 6 12 33.131 28.066 10.874 101.707 o
-3 6 13 27.793 24.400 13.791 73.014 o
-3 7 1 3767.220 3659.440 32.443 0.722 o
-3 7 2 0.419 21.035 4.080 615.761 o
-3 7 3 1415.240 1397.980 24.146 3.347 o
-3 7 4 233.214 246.649 6.839 36.654 o
-3 7 5 2046.880 1960.710 27.923 1.950 o
-3 7 6 2.796 22.770 5.783 355.189 o
-3 7 7 662.083 627.098 14.051 10.193 o
-3 7 8 1.463 -1.137 4.375 815.481 o
-3 7 9 194.595 215.778 8.143 41.302 o
-3 7 10 1.054 9.331 9.417 177.860 o
-3 7 11 271.139 282.487 24.466 15.434 o
-3 7 12 64.029 72.795 12.167 67.055 o
-3 7 13 3.483 -3.536 13.438 91.085 o
-3 8 1 664.698 694.693 9.429 10.414 o
-3 8 2 2260.380 2227.830 41.039 1.520 o
-3 8 3 838.843 887.606 12.587 7.379 o
-3 8 4 249.431 267.512 11.122 29.386 o
-3 8 5 630.084 601.630 18.451 9.866 o
-3 8 6 1674.740 1560.360 21.908 2.763 o
-3 8 7 432.374 426.861 10.654 17.512 o
-3 8 8 21.614 32.165 5.299 257.646 o
-3 8 9 101.801 107.541 6.142 83.765 o
-3 8 10 144.289 157.437 9.594 50.353 o
-3 8 11 10.440 16.139 6.020 309.176 o
-3 8 12 1.167 -3.359 13.438 92.202 o
-3 8 13 25.655 25.815 14.145 70.422 o
-3 9 1 825.846 799.435 12.492 7.841 o
-3 9 2 1040.250 1001.800 16.544 5.539 o
-3 9 3 292.874 312.109 7.394 28.229 o
-3 9 4 4391.720 4242.040 47.819 0.536 o
-3 9 5 518.461 490.517 17.748 12.315 o
-3 9 6 2.902 11.042 5.595 424.882 o
-3 9 7 238.078 220.538 8.121 36.007 o
-3 9 8 1291.520 1325.020 18.746 3.922 o
-3 9 9 10.171 17.317 4.584 426.590 o
-3 9 10 67.936 53.730 5.782 129.629 o
-3 9 11 74.276 66.398 8.223 94.672 o
-3 9 12 131.907 149.583 18.212 30.298 o
-3 9 13 0.945 -1.768 13.438 92.310 o
-3 10 1 459.777 487.644 14.396 14.598 o
-3 10 2 160.255 194.343 6.670 51.224 o
-3 10 3 2978.830 2994.800 30.412 1.050 o
-3 10 4 21.074 43.011 4.177 282.588 o
-3 10 5 1017.970 933.087 23.751 5.286 o
-3 10 6 4.723 6.059 3.695 792.969 o
-3 10 7 635.533 632.532 12.091 10.844 o
-3 10 8 19.785 34.258 5.151 267.222 o
-3 10 9 475.818 484.923 11.281 15.328 o
-3 10 10 8.467 4.426 4.849 495.221 o
-3 10 11 29.357 38.698 7.522 160.164 o
-3 10 12 29.932 37.484 14.852 62.376 o
-3 10 13 80.179 99.015 17.151 39.176 o
-3 11 1 1015.480 986.679 22.884 5.250 o
-3 11 2 487.027 459.425 9.718 15.843 o
-3 11 3 168.937 198.345 6.859 48.861 o
-3 11 4 1852.820 1801.660 27.653 2.243 o
-3 11 5 380.163 380.743 10.359 20.203 o
-3 11 6 0.321 9.141 4.450 683.438 o
-3 11 7 173.826 187.407 7.033 48.621 o
-3 11 8 470.157 489.704 10.896 15.530 o
-3 11 9 128.622 138.162 6.813 65.162 o
-3 11 10 35.162 31.038 5.067 221.334 o
-3 11 11 58.473 55.102 8.147 109.561 o
-3 11 12 48.667 78.505 15.559 50.670 o
-3 11 13 3.060 7.780 13.791 85.082 o
-3 12 1 0.831 13.331 3.719 795.753 o
-3 12 2 3928.850 3985.550 49.571 0.622 o
-3 12 3 1383.900 1341.600 18.602 3.659 o
-3 12 4 40.862 44.196 4.497 202.394 o
-3 12 5 307.741 291.695 9.517 26.337 o
-3 12 6 1405.610 1421.140 21.914 3.412 o
-3 12 7 153.859 159.625 6.894 55.650 o
-3 12 8 47.226 38.662 5.008 183.435 o
-3 12 9 309.621 286.238 8.872 26.890 o
-3 12 10 275.917 273.728 12.781 25.742 o
-3 12 11 4.718 9.006 7.073 284.293 o
-3 12 12 39.204 46.678 14.145 63.892 o
-3 13 1 4664.800 4545.290 69.916 0.449 o
-3 13 2 42.431 50.157 4.145 198.448 o
-3 13 3 314.276 351.392 10.356 23.727 o
-3 13 4 0.958 5.801 3.723 953.365 o
-3 13 5 1405.900 1335.200 47.569 2.556 o
-3 13 6 0.529 25.401 5.135 427.837 o
-3 13 7 884.309 857.123 21.073 6.377 o
-3 13 8 4.782 6.249 4.408 619.333 o
-3 13 9 165.553 170.306 8.717 47.830 o
-3 13 10 3.561 15.451 6.098 348.367 o
-3 13 11 166.219 169.303 13.483 36.716 o
-3 13 12 10.213 8.133 12.377 100.314 o
-3 14 1 65.379 82.829 4.397 130.942 o
-3 14 2 1970.920 1947.510 25.403 2.064 o
-3 14 3 557.661 589.259 13.414 12.079 o
-3 14 4 238.599 243.324 8.273 34.633 o
-3 14 5 184.353 185.565 11.893 37.349 o
-3 14 6 1133.080 1133.500 27.412 4.263 o
-3 14 7 237.809 246.635 9.371 33.223 o
-3 14 8 3.726 7.016 4.873 545.435 o
-3 14 9 80.514 86.382 6.443 99.460 o
-3 14 10 183.895 196.715 11.604 37.377 o
-3 14 11 6.815 15.214 7.178 255.861 o
-3 14 12 51.331 56.580 14.145 59.853 o
-3 15 1 1240.020 1156.290 17.923 4.367 o
-3 15 2 226.310 226.866 6.201 39.294 o
-3 15 3 392.201 387.795 8.977 20.256 o
-3 15 4 2549.610 2572.450 40.755 1.267 o
-3 15 5 315.639 288.083 18.600 18.608 o
-3 15 6 3.583 10.474 6.533 327.271 o
-3 15 7 355.336 341.650 10.831 21.741 o
-3 15 8 377.078 403.586 10.804 19.669 o
-3 15 9 20.068 21.203 5.350 286.040 o
-3 15 10 18.851 25.951 7.322 197.781 o
-3 15 11 61.638 59.181 8.138 105.865 o
-3 15 12 41.223 50.568 14.675 59.497 o
-3 16 1 232.766 240.089 6.736 37.175 o
-3 16 2 13.412 16.689 3.598 491.551 o
-3 16 3 1093.270 1078.690 15.264 5.191 o
-3 16 4 49.493 70.264 9.867 91.834 o
-3 16 5 538.541 546.457 15.116 12.314 o
-3 16 6 40.016 24.794 6.187 186.020 o
-3 16 7 451.188 480.035 12.771 15.478 o
-3 16 8 22.140 21.047 6.088 242.827 o
-3 16 9 385.024 426.120 17.753 15.501 o
-3 16 10 0.023 2.021 8.656 220.676 o
-3 16 11 14.577 15.092 7.268 225.433 o
-3 16 12 0.780 5.658 13.084 95.912 o
-3 17 1 127.256 137.244 6.128 68.072 o
-3 17 2 411.225 405.926 9.582 18.966 o
-3 17 3 10.440 21.605 5.336 341.153 o
-3 17 4 1374.760 1398.640 64.625 1.978 o
-3 17 5 50.013 54.276 9.439 100.722 o
-3 17 6 26.543 27.857 6.597 201.262 o
-3 17 7 96.502 103.543 7.572 79.242 o
-3 17 8 310.321 315.450 11.221 24.193 o
-3 17 9 4.191 1.905 7.689 261.471 o
-3 17 10 24.209 24.435 9.176 139.754 o
-3 17 11 11.217 8.842 7.176 251.384 o
-3 18 1 135.002 141.364 7.506 60.610 o
-3 18 2 801.540 836.333 14.336 7.710 o
-3 18 3 842.525 814.229 14.484 7.461 o
-3 18 4 300.657 278.615 15.440 21.918 o
-3 18 5 710.572 704.301 53.663 3.719 o
-3 18 6 906.183 912.248 24.321 5.791 o
-3 18 7 200.339 199.298 12.166 34.603 o
-3 18 8 25.723 27.696 7.043 189.463 o
-3 18 9 90.880 95.695 9.988 68.880 o
-3 18 10 56.850 74.616 11.670 72.428 o
-3 18 11 19.134 28.494 10.962 109.632 o
-3 19 1 1814.460 1874.220 24.110 2.302 o
-3 19 2 68.516 69.976 6.155 117.180 o
-3 19 3 662.866 648.595 14.918 9.902 o
-3 19 4 11.296 7.541 4.941 429.554 o
-3 19 5 350.533 338.042 17.003 17.969 o
-3 19 6 0.010 1.295 6.589 380.383 o
-3 19 7 268.248 247.590 13.656 25.971 o
-3 19 8 13.359 10.300 8.074 201.492 o
-3 19 9 152.332 160.938 13.382 38.822 o
-3 19 10 36.235 47.495 10.548 98.109 o
-3 19 11 93.712 114.493 15.736 41.393 o
-3 20 1 126.944 134.662 7.251 64.619 o
-3 20 2 1525.590 1614.180 33.659 2.665 o
-3 20 3 14.654 15.764 5.262 337.826 o
-3 20 4 14.272 21.708 5.340 316.269 o
-3 20 5 0.105 0.028 8.365 238.994 o
-3 20 6 143.999 166.430 13.001 40.393 o
-3 20 7 36.645 33.542 8.933 126.339 o
-3 20 8 2.552 -0.534 12.288 109.166 o
-3 20 9 12.732 16.700 9.173 160.123 o
-3 20 10 170.569 185.869 14.926 32.665 o
-3 20 11 1.324 -2.475 12.730 102.564 o
-3 21 1 678.462 720.118 21.452 8.234 o
-3 21 2 57.644 63.162 7.265 117.415 o
-3 21 3 201.535 203.491 8.984 39.789 o
-3 21 4 395.531 414.882 12.275 18.129 o
-3 21 5 492.387 424.431 17.291 13.498 o
-3 21 6 14.969 18.505 9.117 157.046 o
-3 21 7 376.196 390.750 22.278 13.733 o
-3 21 8 69.264 72.369 10.896 74.162 o
-3 21 9 44.073 38.346 10.597 95.649 o
-3 21 10 0.693 0.865 9.284 191.972 o
-3 22 1 247.391 259.231 10.070 31.060 o
-3 22 2 158.311 166.213 9.379 47.744 o
-3 22 3 806.418 815.883 19.723 7.147 o
-3 22 4 112.060 95.736 7.322 75.872 o
-3 22 5 329.697 324.192 11.331 22.951 o
-3 22 6 113.633 99.161 11.916 53.540 o
-3 22 7 192.527 167.088 18.742 25.497 o
-3 22 8 17.442 21.149 9.742 137.065 o
-3 22 9 54.716 71.800 14.410 56.024 o
-3 22 10 3.598 -9.017 13.968 84.366 o
-3 23 1 17.340 15.005 5.349 317.368 o
-3 23 2 108.768 126.687 10.975 55.565 o
-3 23 3 43.665 45.482 8.970 114.313 o
-3 23 4 509.176 539.398 16.702 12.397 o
-3 23 5 33.237 41.977 7.754 147.291 o
-3 23 6 26.643 26.499 9.742 124.970 o
-3 23 8 247.102 244.880 16.183 24.291 o
-3 23 9 7.216 18.183 13.614 83.284 o
-3 24 1 20.456 21.261 6.486 231.320 o
-3 24 2 228.243 228.463 13.438 29.284 o
-3 24 3 483.876 500.790 28.378 9.313 o
-3 24 4 3.374 -2.279 6.487 369.639 o
-3 24 5 298.944 272.602 12.692 24.627 o
-3 24 6 95.300 92.025 9.083 73.210 o
-3 24 8 0.460 -5.481 13.438 92.548 o
-3 24 9 114.861 107.148 17.328 35.114 o
-3 25 1 383.114 359.166 55.607 4.406 o
-3 25 2 56.615 38.075 7.239 130.805 o
-3 25 3 66.236 73.401 14.410 53.673 o
-3 25 4 204.454 191.904 16.062 28.172 o
-3 25 5 203.810 184.363 15.502 29.324 o
-3 25 6 14.163 27.167 11.493 105.277 o
-3 26 1 56.333 57.519 25.903 22.144 o
-3 26 2 353.070 313.515 20.055 16.254 o
-3 26 3 5.891 -1.415 15.206 70.718 o
-3 26 4 49.394 36.688 11.502 83.857 o
-3 26 5 1.298 27.461 11.177 120.122 o
-3 27 1 733.499 735.981 31.473 6.211 o
-3 27 2 26.411 25.535 11.609 96.725 o
-3 27 3 71.671 60.823 18.389 37.928 o
-3 27 4 61.952 81.334 18.742 36.787 o
-3 27 5 182.875 193.963 23.162 19.778 o
-3 28 1 62.293 89.113 21.925 28.425 o
-3 28 2 123.710 128.542 22.809 23.281 o
-3 28 3 251.114 225.436 27.052 14.543 o
-3 28 4 0.059 24.400 17.151 54.747 o
-3 28 5 55.776 48.623 18.212 40.665 o
-3 29 1 38.440 67.542 20.687 33.502 o
-3 29 2 14.222 4.774 16.974 55.070 o
-3 29 3 0.614 3.006 18.035 51.185 o
-3 29 4 181.383 159.838 23.339 20.134 o
-3 30 2 18.849 22.632 17.504 49.882 o
-3 30 3 314.803 274.413 29.528 11.838 o
-3 30 4 0.797 14.322 16.974 56.637 o
-2 0 2 1332.290 1429.410 18.640 3.677 o
-2 0 4 37926.000 38391.500 511.620 0.008 o
-2 0 6 395.470 357.430 19.096 15.337 o
-2 0 8 1860.930 1875.670 102.728 0.961 o
-2 0 10 41.375 23.297 14.322 65.056 o
-2 0 12 208.798 243.647 26.168 15.795 o
-2 0 14 49.735 61.708 17.681 42.578 o
-2 1 1 1688.070 1685.860 16.156 2.737 o
-2 1 2 4406.990 4776.540 41.315 0.508 o
-2 1 3 5665.470 5539.060 52.666 0.342 o
-2 1 4 7.025 62.821 9.239 136.146 o
-2 1 5 1881.340 1663.370 21.513 2.390 o
-2 1 6 1301.990 1207.760 22.610 3.909 o
-2 1 7 383.102 369.741 13.836 18.423 o
-2 1 8 5.388 13.445 2.670 889.726 o
-2 1 9 1319.700 1453.330 58.613 2.192 o
-2 1 10 136.184 171.373 12.736 41.724 o
-2 1 11 0.097 7.686 3.852 899.226 o
-2 1 12 13.512 29.468 11.022 112.419 o
-2 1 13 116.098 152.923 12.691 45.805 o
-2 1 14 35.015 8.664 14.852 64.636 o
-2 2 1 8314.520 8566.250 76.945 0.163 o
-2 2 2 860.909 1072.970 11.244 6.666 o
-2 2 3 551.356 500.549 12.481 13.198 o
-2 2 4 1899.220 1730.220 26.669 2.247 o
-2 2 5 1744.000 1666.910 29.178 2.434 o
-2 2 6 28.845 57.598 4.402 219.049 o
-2 2 7 3431.690 3196.860 68.399 0.727 o
-2 2 8 983.018 914.890 25.384 5.339 o
-2 2 9 7.956 19.497 13.526 83.714 o
-2 2 10 168.132 132.924 25.019 19.024 o
-2 2 11 316.813 260.877 33.238 10.208 o
-2 2 12 36.641 39.061 8.879 124.608 o
-2 2 13 0.015 1.680 8.409 234.198 o
-2 2 14 43.561 41.728 16.267 50.972 o
-2 3 1 266.211 279.556 4.570 33.586 o
-2 3 2 20850.000 21285.600 180.274 0.028 o
-2 3 3 1065.010 1075.270 21.033 4.992 o
-2 3 4 424.535 413.385 10.201 18.145 o
-2 3 5 1.591 4.078 2.475 1741.680 o
-2 3 6 6799.280 6622.050 88.338 0.232 o
-2 3 7 52.908 70.585 6.455 128.390 o
-2 3 8 226.556 189.884 10.384 35.512 o
-2 3 9 10.641 5.623 7.938 220.352 o
-2 3 10 835.498 895.092 25.987 6.008 o
-2 3 11 0.641 15.575 7.814 242.129 o
-2 3 12 121.441 114.434 11.142 53.573 o
-2 3 13 6.601 2.963 8.348 216.227 o
-2 4 1 13022.100 12685.900 43.777 0.076 o
-2 4 2 669.291 647.397 9.397 10.675 o
-2 4 3 2292.830 2298.060 26.152 1.622 o
-2 4 4 784.435 826.451 16.869 7.607 o
-2 4 5 2279.930 2310.830 25.392 1.633 o
-2 4 6 5.963 21.213 3.946 529.790 o
-2 4 7 2326.340 2235.330 30.247 1.585 o
-2 4 8 209.835 207.088 8.984 38.594 o
-2 4 9 188.421 212.264 10.704 37.753 o
-2 4 10 58.354 66.192 7.218 116.053 o
-2 4 11 490.170 520.110 17.525 12.609 o
-2 4 12 20.431 25.254 10.195 122.947 o
-2 4 13 0.437 2.747 8.746 214.161 o
-2 5 1 3655.620 3734.590 45.331 0.707 o
-2 5 2 1998.960 1794.030 19.292 2.192 o
-2 5 3 4112.830 4201.380 50.547 0.574 o
-2 5 4 43.677 51.034 3.428 207.532 o
-2 5 5 2172.250 2173.800 25.577 1.769 o
-2 5 6 2067.740 2011.930 23.533 1.956 o
-2 5 7 933.097 965.575 14.865 6.314 o
-2 5 8 101.474 85.901 5.874 90.907 o
-2 5 9 701.933 692.709 30.224 6.679 o
-2 5 10 490.704 516.405 13.805 13.848 o
-2 5 11 8.928 34.928 8.450 172.503 o
-2 5 12 81.769 68.018 11.983 63.968 o
-2 5 13 49.008 60.920 15.314 53.325 o
-2 6 1 769.607 657.360 9.670 9.341 o
-2 6 2 148.122 137.377 4.403 66.308 o
-2 6 3 138.287 138.666 5.934 65.043 o
-2 6 4 8700.640 8554.930 118.082 0.144 o
-2 6 5 2.919 13.036 3.362 820.766 o
-2 6 6 169.341 156.675 5.889 54.882 o
-2 6 7 176.792 145.256 6.239 53.760 o
-2 6 8 2304.110 2350.330 41.696 1.449 o
-2 6 9 13.270 34.917 6.226 243.645 o
-2 6 10 170.664 166.379 8.614 47.546 o
-2 6 11 113.519 118.985 15.648 39.239 o
-2 6 12 245.671 292.151 23.339 16.704 o
-2 6 13 3.629 1.655 8.878 201.575 o
-2 7 1 4103.110 4108.320 42.809 0.597 o
-2 7 2 445.706 483.529 8.304 17.062 o
-2 7 3 5985.200 5788.200 59.599 0.309 o
-2 7 4 0.425 10.722 3.858 819.097 o
-2 7 5 2686.320 2601.360 30.724 1.261 o
-2 7 6 3.473 5.389 2.986 1127.570 o
-2 7 7 829.151 844.484 15.292 7.369 o
-2 7 8 1.627 11.954 4.714 566.930 o
-2 7 9 1195.490 1307.030 45.733 2.941 o
-2 7 10 196.693 179.357 7.260 45.097 o
-2 7 11 10.468 5.100 8.811 185.690 o
-2 7 12 33.801 34.883 16.267 53.150 o
-2 7 13 161.659 189.211 14.000 35.111 o
-2 8 1 1294.190 1263.840 15.304 4.117 o
-2 8 2 619.291 642.284 9.069 11.487 o
-2 8 3 2275.840 2255.940 53.969 1.353 o
-2 8 4 4930.440 4718.380 65.327 0.422 o
-2 8 5 1661.830 1707.830 24.966 2.607 o
-2 8 6 48.490 59.162 4.328 172.838 o
-2 8 7 384.578 392.249 10.322 19.838 o
-2 8 8 574.338 607.671 10.703 12.225 o
-2 8 9 76.983 81.096 5.308 112.906 o
-2 8 10 29.196 30.602 3.889 284.451 o
-2 8 11 162.526 181.684 14.182 34.998 o
-2 8 12 149.721 169.774 28.290 15.880 o
-2 8 13 18.084 11.998 9.365 150.759 o
-2 9 1 1190.790 1207.720 13.149 4.628 o
-2 9 2 13262.700 13644.600 132.537 0.066 o
-2 9 3 1866.910 1769.830 23.690 2.308 o
-2 9 4 3.813 7.192 3.630 824.710 o
-2 9 5 1013.450 969.817 15.890 5.791 o
-2 9 6 5117.910 5075.600 43.833 0.412 o
-2 9 7 68.019 67.109 4.801 132.896 o
-2 9 8 334.766 308.717 9.350 24.457 o
-2 9 9 284.524 283.223 7.672 29.646 o
-2 9 10 621.284 696.418 20.793 8.977 o
-2 9 11 5.913 14.697 8.137 211.948 o
-2 9 12 6.990 6.970 10.232 145.933 o
-2 9 13 13.827 16.822 10.800 121.181 o
-2 10 1 6531.060 6380.860 50.215 0.268 o
-2 10 2 110.123 133.071 4.748 80.231 o
-2 10 3 2812.240 2720.640 40.740 1.118 o
-2 10 4 0.285 7.014 3.665 980.823 o
-2 10 5 2040.430 2009.030 22.895 1.992 o
-2 10 6 131.880 141.480 5.880 66.736 o
-2 10 7 1805.700 1658.520 35.464 2.232 o
-2 10 8 51.331 45.649 6.874 138.026 o
-2 10 9 130.130 149.877 5.841 66.098 o
-2 10 10 101.029 100.243 9.903 65.600 o
-2 10 11 439.523 494.926 21.678 12.122 o
-2 10 12 199.804 186.823 28.644 14.594 o
-2 10 13 3.691 3.638 10.446 146.396 o
-2 11 1 330.463 353.016 6.266 25.250 o
-2 11 2 4213.490 4100.940 54.767 0.558 o
-2 11 3 1028.130 1063.270 15.055 5.535 o
-2 11 4 0.112 3.882 4.408 782.755 o
-2 11 5 573.026 564.120 10.534 12.661 o
-2 11 6 1630.300 1545.880 26.950 2.735 o
-2 11 7 439.701 444.931 11.357 16.764 o
-2 11 8 157.838 149.760 9.723 48.292 o
-2 11 9 266.692 285.191 7.406 31.175 o
-2 11 10 226.824 266.554 11.500 30.609 o
-2 11 11 10.232 21.548 8.752 172.718 o
-2 11 12 186.563 197.422 16.158 28.961 o
-2 11 13 10.485 8.701 10.393 136.896 o
-2 12 1 3938.330 3989.930 40.013 0.641 o
-2 12 2 124.923 117.646 5.004 76.332 o
-2 12 3 818.308 791.994 14.519 7.735 o
-2 12 4 4577.080 4639.650 59.422 0.470 o
-2 12 5 501.403 479.442 18.022 12.594 o
-2 12 6 227.549 214.956 9.065 36.119 o
-2 12 7 1258.780 1187.200 20.059 4.170 o
-2 12 8 1264.170 1297.460 21.201 3.947 o
-2 12 9 13.512 18.096 3.732 467.228 o
-2 12 10 141.745 117.815 8.718 57.739 o
-2 12 11 55.760 55.004 9.547 95.859 o
-2 12 12 108.209 126.230 13.977 44.614 o
-2 12 13 13.483 -10.962 13.968 80.484 o
-2 13 1 652.173 703.780 16.394 9.452 o
-2 13 2 1.329 2.935 3.271 1251.170 o
-2 13 3 3544.580 3567.830 42.493 0.757 o
-2 13 4 6.322 15.673 4.945 439.179 o
-2 13 5 2502.680 2472.070 44.869 1.280 o
-2 13 6 18.339 13.852 5.062 333.597 o
-2 13 7 562.236 590.773 21.702 9.925 o
-2 13 8 9.779 23.704 5.158 351.800 o
-2 13 9 812.828 822.950 17.024 7.388 o
-2 13 10 14.644 17.191 7.097 229.595 o
-2 13 11 28.782 33.234 10.296 111.176 o
-2 13 12 0.898 1.784 10.061 162.742 o
-2 13 13 68.953 76.383 17.151 41.556 o
-2 14 1 1078.770 1139.450 13.917 5.185 o
-2 14 2 477.208 450.860 9.600 16.250 o
-2 14 3 790.168 842.679 14.075 7.803 o
-2 14 4 3589.870 3564.280 54.159 0.712 o
-2 14 5 850.683 889.442 21.420 6.442 o
-2 14 6 51.522 39.728 16.355 49.456 o
-2 14 7 282.694 292.043 10.167 27.317 o
-2 14 8 800.224 807.687 19.631 7.229 o
-2 14 9 36.555 32.950 3.940 246.636 o
-2 14 10 207.392 201.159 13.824 31.170 o
-2 14 11 8.538 -4.172 9.300 176.839 o
-2 14 12 38.501 61.598 11.637 81.920 o
-2 15 1 655.861 632.798 12.516 10.497 o
-2 15 2 6261.560 6323.360 64.111 0.276 o
-2 15 3 1040.780 966.110 13.655 5.792 o
-2 15 4 6.148 3.516 4.475 606.024 o
-2 15 5 987.011 932.926 22.613 5.515 o
-2 15 6 1513.860 1485.460 34.478 2.755 o
-2 15 7 77.037 76.433 7.777 94.001 o
-2 15 8 70.081 65.694 6.370 115.502 o
-2 15 9 215.400 208.275 14.447 29.386 o
-2 15 10 188.162 192.627 11.373 37.586 o
-2 15 11 1.956 3.380 7.349 291.272 o
-2 15 12 41.354 39.527 9.070 117.208 o
-2 16 1 2633.140 2613.730 33.127 1.270 o
-2 16 2 49.784 55.078 3.861 181.456 o
-2 16 3 1638.690 1652.110 23.805 2.708 o
-2 16 4 157.242 132.862 6.631 58.691 o
-2 16 5 1474.850 1437.480 30.286 2.992 o
-2 16 6 47.981 54.975 7.688 124.469 o
-2 16 7 1212.590 1288.880 27.793 3.806 o
-2 16 8 9.073 8.483 5.667 372.376 o
-2 16 9 41.898 44.408 9.717 105.932 o
-2 16 10 10.545 8.812 7.466 238.578 o
-2 16 11 219.582 232.995 12.810 30.619 o
-2 16 12 0.014 5.172 8.119 244.856 o
-2 17 1 103.788 115.925 4.791 87.158 o
-2 17 2 3168.230 3156.780 35.020 0.939 o
-2 17 3 114.334 137.849 7.041 68.815 o
-2 17 4 43.621 43.823 5.995 165.647 o
-2 17 5 262.699 254.907 16.886 22.605 o
-2 17 6 1093.230 1071.830 22.128 4.822 o
-2 17 7 33.040 40.687 7.502 153.644 o
-2 17 8 98.342 93.407 7.225 82.658 o
-2 17 9 64.075 53.707 7.759 110.283 o
-2 17 10 244.212 271.853 13.054 27.345 o
-2 17 11 12.962 15.948 7.706 210.172 o
-2 17 12 50.924 65.193 10.157 89.559 o
-2 18 1 1742.950 1740.160 19.706 2.557 o
-2 18 2 820.472 799.016 14.781 7.662 o
-2 18 3 1978.910 2041.550 33.371 1.901 o
-2 18 4 2559.400 2649.130 68.128 1.019 o
-2 18 5 795.322 774.670 26.257 6.510 o
-2 18 6 144.610 152.059 10.252 48.850 o
-2 18 7 363.381 401.981 20.333 14.882 o
-2 18 8 247.406 260.924 12.782 27.805 o
-2 18 9 69.993 62.059 8.280 97.980 o
-2 18 10 1.221 -4.935 7.086 325.987 o
-2 18 11 108.633 123.191 9.078 64.110 o
-2 18 12 74.398 74.359 12.166 63.995 o
-2 19 1 1482.090 1545.550 19.917 3.171 o
-2 19 2 27.895 20.630 3.737 325.807 o
-2 19 3 891.520 831.763 14.621 7.027 o
-2 19 4 0.843 4.380 6.623 358.133 o
-2 19 5 858.432 828.930 27.141 5.928 o
-2 19 6 43.041 23.585 4.121 235.212 o
-2 19 7 517.950 519.129 17.313 12.231 o
-2 19 8 133.753 121.929 9.840 55.104 o
-2 19 9 409.932 429.486 20.333 13.710 o
-2 19 10 5.808 4.518 7.418 266.754 o
-2 19 11 12.063 12.289 6.367 287.863 o
-2 19 12 26.588 27.229 14.322 68.499 o
-2 20 1 46.660 58.900 4.878 167.620 o
-2 20 2 69.914 67.746 4.906 129.415 o
-2 20 3 4.416 10.993 4.356 586.885 o
-2 20 4 275.288 272.821 20.333 18.628 o
-2 20 5 91.282 99.904 10.250 66.666 o
-2 20 6 12.346 9.371 7.373 236.393 o
-2 20 7 45.869 32.695 7.903 134.836 o
-2 20 8 637.440 644.954 19.175 9.399 o
-2 20 9 7.390 8.092 8.491 201.504 o
-2 20 10 176.284 180.654 10.168 42.163 o
-2 20 11 4.525 5.963 7.173 285.426 o
-2 20 12 32.493 50.745 15.383 56.990 o
-2 21 1 495.457 525.160 31.638 8.227 o
-2 21 2 920.301 1027.950 30.664 4.901 o
-2 21 3 1476.350 1425.390 23.857 3.199 o
-2 21 4 18.942 30.235 11.670 98.840 o
-2 21 5 1310.670 1379.920 32.335 3.279 o
-2 21 6 266.184 276.667 14.121 24.808 o
-2 21 7 159.602 170.193 14.322 35.490 o
-2 21 8 4.741 18.742 11.846 108.791 o
-2 21 9 156.612 177.089 15.825 32.347 o
-2 21 10 105.172 117.011 8.967 66.517 o
-2 21 11 3.466 6.365 12.200 107.909 o
-2 22 1 1477.800 1426.370 29.850 3.011 o
-2 22 2 230.893 235.729 22.764 18.248 o
-2 22 3 851.657 874.144 17.208 6.916 o
-2 22 4 192.924 192.324 8.036 43.312 o
-2 22 5 588.784 593.807 20.644 9.876 o
-2 22 6 51.983 47.059 9.354 102.756 o
-2 22 7 213.628 226.813 13.436 30.366 o
-2 22 8 31.133 25.284 12.023 89.300 o
-2 22 9 92.538 81.183 15.801 43.295 o
-2 22 10 29.190 41.613 8.119 145.369 o
-2 22 11 113.857 115.989 17.151 35.276 o
-2 23 1 106.826 79.566 17.328 37.025 o
-2 23 2 1292.250 1344.380 29.332 3.481 o
-2 23 3 39.326 35.068 4.922 208.019 o
-2 23 4 40.997 32.927 6.219 175.246 o
-2 23 5 11.300 10.962 12.023 104.172 o
-2 23 6 782.157 845.465 31.207 5.761 o
-2 23 7 37.769 36.044 8.933 124.076 o
-2 23 8 66.277 55.873 14.852 53.054 o
-2 23 9 0.020 -5.330 6.889 352.868 o
-2 23 10 105.394 115.564 9.858 62.497 o
-2 24 1 1033.670 1027.770 34.567 4.228 o
-2 24 2 12.982 12.200 12.554 95.128 o
-2 24 3 721.299 731.463 26.610 7.027 o
-2 24 4 304.538 315.767 12.760 23.231 o
-2 24 5 232.071 225.612 21.925 19.137 o
-2 24 6 1.012 0.679 9.064 200.752 o
-2 24 7 339.556 341.292 21.041 15.631 o
-2 24 8 116.581 86.909 11.493 55.954 o
-2 24 9 6.428 2.798 9.284 178.733 o
-2 24 10 0.020 -7.780 12.200 112.538 o
-2 25 1 67.737 54.094 5.216 136.214 o
-2 25 2 462.645 420.283 30.235 9.295 o
-2 25 3 510.683 503.676 35.186 7.344 o
-2 25 4 21.161 20.475 5.963 252.975 o
-2 25 5 273.681 276.966 22.986 16.507 o
-2 25 6 199.720 237.636 22.102 19.743 o
-2 25 7 41.551 40.490 15.029 58.325 o
-2 25 8 66.940 63.652 15.559 48.968 o
-2 25 9 144.232 121.899 16.709 33.596 o
-2 26 1 12.759 14.145 14.499 73.010 o
-2 26 2 47.174 55.696 17.328 44.642 o
-2 26 3 4.143 6.542 14.322 78.925 o
-2 26 4 1012.350 1001.640 44.910 3.568 o
-2 26 5 1.321 9.017 13.614 87.723 o
-2 26 6 8.940 1.061 12.907 95.328 o
-2 26 7 1.469 -1.768 14.322 81.116 o
-2 26 8 161.942 177.696 20.157 24.612 o
-2 26 9 2.580 7.957 12.730 99.491 o
-2 27 1 104.144 121.647 21.041 27.213 o
-2 27 2 171.021 165.496 23.162 20.567 o
-2 27 3 487.985 467.491 33.064 8.113 o
-2 27 4 6.316 -1.238 14.145 81.258 o
-2 27 5 383.166 463.778 31.296 9.452 o
-2 27 6 161.081 160.722 20.157 25.032 o
-2 27 8 1.836 -2.829 14.499 79.031 o
-2 27 9 149.340 130.487 19.096 28.143 o
-2 28 1 506.069 515.408 36.777 6.986 o
-2 28 2 0.122 3.006 15.383 70.333 o
-2 28 3 119.632 118.111 21.218 26.226 o
-2 28 4 111.759 111.392 20.687 27.750 o
-2 28 5 68.810 77.267 18.389 37.441 o
-2 29 1 8.965 15.913 10.867 124.577 o
-2 29 2 381.106 405.607 33.594 8.951 o
-2 29 3 0.311 -2.829 15.736 67.570 o
-2 29 4 0.482 -5.304 15.559 69.065 o
-2 29 5 0.969 -10.962 14.675 77.451 o
-2 30 1 641.184 604.215 61.354 3.255 o
-2 30 2 2.975 12.377 17.151 55.291 o
-2 30 3 220.065 258.853 27.229 14.666 o
-2 30 4 16.407 23.162 16.974 53.115 o
-2 30 5 117.521 91.942 19.803 29.735 o
-2 31 1 109.205 110.331 23.693 22.837 o
-2 31 2 182.127 169.209 25.461 17.777 o
-2 31 3 127.273 132.432 23.162 22.570 o
-2 31 4 0.003 -1.415 16.797 59.375 o
-2 32 1 8.470 11.846 18.919 45.052 o
-2 32 2 8.267 25.815 19.626 41.288 o
-2 32 3 1.971 1.591 18.035 51.088 o
-2 32 4 202.812 175.221 24.577 18.054 o
-2 33 2 2.270 6.542 18.035 50.675 o
-2 33 3 139.285 152.059 24.577 20.051 o
-1 0 2 156496.000 172453.000 2089.630 0.000 o
-1 0 4 1238.330 1332.370 20.491 3.998 o
-1 0 6 6213.910 6417.120 93.763 0.256 o
-1 0 8 70.572 47.898 5.396 134.434 o
-1 0 10 849.791 837.841 33.506 5.231 o
-1 0 12 229.556 220.862 17.066 24.656 o
-1 0 14 119.683 126.951 23.339 22.685 o
-1 1 1 7758.970 8351.720 80.221 0.178 o
-1 1 2 3.261 12.879 1.627 1394.930 o
-1 1 3 3267.810 3150.660 58.558 0.812 o
-1 1 4 3509.500 3630.850 49.997 0.735 o
-1 1 5 1013.170 985.936 20.941 5.406 o
-1 1 6 42.530 41.305 3.977 213.157 o
-1 1 7 4584.420 4756.050 52.241 0.474 o
-1 1 8 522.244 548.214 15.389 12.495 o
-1 1 9 3.185 1.987 3.417 1067.400 o
-1 1 10 87.133 82.947 9.283 76.682 o
-1 1 11 585.037 507.857 36.444 6.674 o
-1 1 12 123.990 122.829 11.280 51.770 o
-1 1 13 15.521 11.370 7.878 202.681 o
-1 1 14 58.329 50.597 10.626 85.078 o
-1 2 1 568.926 537.704 7.908 13.483 o
-1 2 2 4808.220 4639.600 144.190 0.305 o
-1 2 3 2630.940 2651.920 34.451 1.253 o
-1 2 4 398.251 490.794 13.770 16.277 o
-1 2 5 10605.700 10555.800 107.088 0.104 o
-1 2 6 2743.650 2877.840 33.737 1.154 o
-1 2 7 42.663 53.206 4.900 180.023 o
-1 2 8 565.050 535.868 18.820 10.984 o
-1 2 9 1394.570 1349.540 20.835 3.554 o
-1 2 10 126.732 114.172 8.014 64.745 o
-1 2 11 0.529 2.869 2.626 1907.180 o
-1 2 12 207.084 198.392 13.917 31.145 o
-1 2 13 44.239 49.241 8.492 119.024 o
-1 2 14 4.894 8.595 9.119 182.061 o
-1 3 1 2174.150 2359.960 27.786 1.673 o
-1 3 2 655.199 696.640 18.003 9.172 o
-1 3 3 50.387 43.051 3.267 203.148 o
-1 3 4 20929.600 21377.900 215.789 0.027 o
-1 3 5 130.936 146.510 8.428 57.901 o
-1 3 6 864.645 825.119 14.751 7.230 o
-1 3 7 38.697 24.694 4.886 225.598 o
-1 3 8 2987.750 2926.860 45.733 0.987 o
-1 3 9 3.446 16.495 2.829 868.003 o
-1 3 10 409.245 306.959 31.654 9.788 o
-1 3 11 22.371 12.604 4.058 377.100 o
-1 3 12 172.422 197.473 11.191 39.430 o
-1 3 13 2.288 0.168 7.503 286.029 o
-1 3 14 66.418 65.539 11.808 69.834 o
-1 4 1 3979.260 4075.150 41.497 0.623 o
-1 4 2 1189.750 1367.300 23.077 3.979 o
-1 4 3 4398.170 4233.900 90.616 0.450 o
-1 4 4 218.385 226.590 6.253 40.237 o
-1 4 5 8044.620 7912.740 101.255 0.169 o
-1 4 6 324.307 335.339 6.719 25.895 o
-1 4 7 729.525 792.676 15.461 8.383 o
-1 4 8 196.295 199.063 6.740 44.529 o
-1 4 9 2219.550 2183.680 40.323 1.569 o
-1 4 10 79.565 90.745 6.343 99.418 o
-1 4 11 0.292 -2.818 5.518 545.234 o
-1 4 12 34.612 30.375 7.377 161.786 o
-1 4 13 162.484 183.446 11.786 40.127 o
-1 4 14 21.333 20.496 9.657 134.991 o
-1 5 1 8323.180 8841.240 85.459 0.157 o
-1 5 2 55.983 65.018 3.082 169.864 o
-1 5 3 6016.560 6014.790 86.944 0.280 o
-1 5 4 4294.930 4109.700 54.129 0.547 o
-1 5 5 3795.660 4073.690 116.254 0.449 o
-1 5 6 532.541 515.525 10.266 13.979 o
-1 5 7 2823.040 2750.970 46.869 1.069 o
-1 5 8 1551.060 1551.030 21.504 2.995 o
-1 5 9 41.410 60.022 5.635 162.602 o
-1 5 10 351.827 338.041 11.710 21.415 o
-1 5 11 254.141 278.657 11.175 28.616 o
-1 5 12 24.329 23.694 6.528 214.683 o
-1 5 13 0.064 -7.566 6.729 369.520 o
-1 5 14 50.386 57.900 10.732 86.048 o
-1 6 1 9.106 8.922 1.838 1015.500 o
-1 6 2 20363.400 20911.600 198.605 0.029 o
-1 6 3 76.365 91.869 4.234 116.894 o
-1 6 4 408.183 393.178 20.157 14.166 o
-1 6 5 661.206 537.959 15.966 10.399 o
-1 6 6 6980.350 7062.880 78.910 0.222 o
-1 6 7 83.543 90.670 4.287 110.970 o
-1 6 8 699.195 674.985 13.071 9.621 o
-1 6 9 366.977 374.149 11.616 20.158 o
-1 6 10 894.559 944.457 19.889 6.187 o
-1 6 11 12.441 26.485 5.624 295.813 o
-1 6 12 165.770 168.896 9.647 45.678 o
-1 6 13 1.758 -3.330 6.677 362.037 o
-1 6 14 16.427 31.710 12.872 84.935 o
-1 7 1 12046.200 12434.300 148.818 0.077 o
-1 7 2 0.001 2.397 1.987 3283.620 o
-1 7 3 7611.510 7512.600 67.816 0.198 o
-1 7 4 5.410 9.184 2.144 1175.730 o
-1 7 5 2866.530 2938.240 31.143 1.102 o
-1 7 6 1.688 7.345 2.380 1547.300 o
-1 7 7 3727.690 3621.420 38.038 0.722 o
-1 7 8 422.780 426.321 11.596 17.425 o
-1 7 9 11.696 7.186 5.149 405.483 o
-1 7 10 93.924 78.229 7.688 85.354 o
-1 7 11 656.139 715.753 16.895 9.259 o
-1 7 12 13.568 25.854 6.774 233.666 o
-1 7 13 30.473 29.846 7.389 168.745 o
-1 7 14 0.526 -12.870 11.972 116.476 o
-1 8 1 5697.900 6132.660 50.760 0.321 o
-1 8 2 9898.610 9804.100 86.547 0.121 o
-1 8 3 4599.210 4783.950 45.545 0.479 o
-1 8 4 123.992 135.537 6.034 69.760 o
-1 8 5 823.998 803.171 11.307 7.945 o
-1 8 6 1426.250 1480.000 16.031 3.455 o
-1 8 7 369.257 376.965 10.178 20.799 o
-1 8 8 261.134 243.955 11.012 29.517 o
-1 8 9 727.209 728.840 18.941 8.194 o
-1 8 10 532.445 573.941 15.646 12.045 o
-1 8 11 95.976 100.094 7.133 82.752 o
-1 8 12 399.234 454.464 19.649 13.989 o
-1 8 13 103.247 108.302 8.996 68.306 o
-1 8 14 0.051 18.742 16.267 61.208 o
-1 9 1 4946.570 5100.550 40.182 0.431 o
-1 9 2 1.922 3.243 2.087 2157.710 o
-1 9 3 3441.820 3461.690 38.266 0.807 o
-1 9 4 15158.800 15561.100 183.672 0.050 o
-1 9 5 478.572 440.071 8.789 16.602 o
-1 9 6 1173.050 1177.970 13.809 4.726 o
-1 9 7 788.083 788.392 12.131 8.251 o
-1 9 8 2154.360 2226.020 28.067 1.738 o
-1 9 9 27.016 46.601 7.148 166.280 o
-1 9 10 36.952 48.756 7.269 147.320 o
-1 9 11 54.808 63.417 6.905 124.342 o
-1 9 12 315.199 328.295 12.255 22.846 o
-1 9 13 1.681 5.359 7.000 314.918 o
-1 9 14 30.259 43.849 17.328 47.621 o
-1 10 1 5253.570 5400.800 48.179 0.382 o
-1 10 2 20.039 4.849 2.135 634.894 o
-1 10 3 4456.970 4481.920 67.911 0.478 o
-1 10 4 554.593 640.372 13.399 11.724 o
-1 10 5 4804.010 4591.700 46.460 0.466 o
-1 10 6 246.307 275.732 6.476 34.210 o
-1 10 7 403.734 429.323 8.839 19.115 o
-1 10 8 229.946 219.240 7.962 37.142 o
-1 10 9 1769.220 1876.540 28.495 2.284 o
-1 10 10 675.074 649.737 19.960 8.847 o
-1 10 11 25.405 16.840 5.969 243.814 o
-1 10 12 1.013 -2.780 6.433 395.532 o
-1 10 13 149.364 163.969 10.990 45.096 o
-1 10 14 19.357 40.844 18.742 42.923 o
-1 11 1 1708.380 1762.620 25.844 2.484 o
-1 11 2 0.001 2.527 1.656 4232.120 o
-1 11 3 1173.890 1170.390 20.723 4.438 o
-1 11 4 3768.560 3631.590 41.072 0.705 o
-1 11 5 886.965 912.393 14.810 6.770 o
-1 11 6 529.011 491.604 9.634 14.468 o
-1 11 7 882.667 850.269 15.325 6.963 o
-1 11 8 798.511 851.966 15.543 7.547 o
-1 11 9 15.685 30.021 6.133 247.905 o
-1 11 10 658.711 659.527 15.137 9.848 o
-1 11 11 63.621 65.184 7.402 110.148 o
-1 11 12 16.591 21.584 7.119 216.558 o
-1 11 13 0.003 -3.418 7.436 302.961 o
-1 12 1 1475.680 1449.060 17.843 3.336 o
-1 12 2 10569.900 11042.700 110.848 0.101 o
-1 12 3 1140.230 1104.940 15.928 4.909 o
-1 12 4 628.002 634.643 11.942 10.961 o
-1 12 5 3802.940 3769.870 41.636 0.683 o
-1 12 6 4384.630 4393.420 45.139 0.531 o
-1 12 7 24.587 25.758 4.950 273.687 o
-1 12 8 383.926 372.770 11.106 19.828 o
-1 12 9 202.901 228.411 9.570 37.246 o
-1 12 10 424.927 467.260 13.612 15.961 o
-1 12 11 70.050 66.972 7.745 101.468 o
-1 12 12 32.927 35.489 7.481 158.083 o
-1 12 13 11.185 12.976 7.575 224.849 o
-1 13 1 5891.190 5925.240 52.873 0.314 o
-1 13 2 10.320 13.113 3.234 624.850 o
-1 13 3 4836.690 4944.240 45.080 0.445 o
-1 13 4 34.601 31.897 3.804 260.327 o
-1 13 5 1113.480 1027.920 35.647 3.941 o
-1 13 6 19.486 26.865 4.421 323.916 o
-1 13 7 2859.690 2706.800 38.602 1.114 o
-1 13 8 4.404 1.495 4.401 688.764 o
-1 13 9 52.589 51.357 6.073 145.324 o
-1 13 10 14.957 19.265 5.882 286.279 o
-1 13 11 377.979 424.040 13.832 17.747 o
-1 13 12 12.816 10.621 7.006 251.341 o
-1 13 13 1.448 4.806 7.558 275.393 o
-1 14 1 2165.940 2260.940 24.057 1.752 o
-1 14 2 7941.230 7811.750 100.767 0.173 o
-1 14 3 2122.000 2234.440 24.308 1.798 o
-1 14 4 240.014 235.080 7.070 36.292 o
-1 14 5 692.434 676.534 21.869 8.227 o
-1 14 6 2485.820 2393.360 30.102 1.432 o
-1 14 7 146.882 135.191 16.395 33.554 o
-1 14 8 581.765 563.242 19.482 10.422 o
-1 14 9 78.569 64.517 5.190 119.760 o
-1 14 10 176.972 202.271 8.215 44.576 o
-1 14 11 23.004 29.110 6.988 195.638 o
-1 14 12 137.371 152.583 10.194 50.244 o
-1 14 13 25.706 19.027 8.813 149.393 o
-1 15 1 2070.210 1952.810 19.773 2.022 o
-1 15 2 4.948 5.898 2.997 1009.590 o
-1 15 3 1884.980 1841.740 19.692 2.296 o
-1 15 4 4449.080 4523.150 46.696 0.512 o
-1 15 5 213.760 189.657 5.772 44.029 o
-1 15 6 189.304 176.169 14.171 32.961 o
-1 15 7 618.960 587.770 27.536 8.052 o
-1 15 8 614.467 585.960 16.305 10.618 o
-1 15 9 2.203 1.961 4.246 794.336 o
-1 15 10 129.385 127.520 7.112 65.457 o
-1 15 11 198.261 218.975 10.745 36.297 o
-1 15 12 102.592 111.995 9.418 65.859 o
-1 15 13 34.270 33.976 9.694 115.880 o
-1 16 1 3460.770 3517.480 30.600 0.816 o
-1 16 2 494.822 450.743 8.953 15.968 o
-1 16 3 3287.010 3275.400 30.672 0.898 o
-1 16 4 64.775 70.678 5.124 131.173 o
-1 16 5 2709.970 2701.270 34.940 1.201 o
-1 16 6 83.419 70.969 7.222 96.360 o
-1 16 7 100.399 95.335 6.827 83.572 o
-1 16 8 37.715 46.224 5.054 195.014 o
-1 16 9 762.380 772.549 18.472 7.791 o
-1 16 10 0.305 1.878 4.520 774.739 o
-1 16 11 11.433 8.466 6.408 297.920 o
-1 16 12 3.034 2.905 6.929 320.180 o
-1 16 13 102.555 113.783 12.048 53.728 o
-1 17 1 280.372 315.350 5.563 30.233 o
-1 17 2 28.470 22.970 2.927 350.684 o
-1 17 3 512.476 536.304 9.678 14.328 o
-1 17 4 2677.550 2617.160 31.279 1.258 o
-1 17 5 155.023 169.030 7.764 52.205 o
-1 17 6 286.525 273.363 14.722 23.305 o
-1 17 7 225.125 214.400 9.113 36.328 o
-1 17 8 891.593 918.987 18.029 6.445 o
-1 17 9 58.904 54.094 5.277 146.577 o
-1 17 10 261.895 274.418 9.264 30.230 o
-1 17 11 6.789 -0.670 6.296 362.783 o
-1 17 12 58.406 69.020 8.361 102.336 o
-1 17 13 2.941 2.299 15.206 71.241 o
-1 18 1 3629.110 3569.110 39.729 0.746 o
-1 18 2 4764.400 4861.670 47.494 0.454 o
-1 18 3 2218.310 2181.190 27.530 1.710 o
-1 18 4 545.056 562.259 13.367 12.529 o
-1 18 5 1040.710 1100.810 23.014 4.909 o
-1 18 6 718.611 750.865 17.794 8.345 o
-1 18 7 180.285 170.209 9.006 44.849 o
-1 18 8 13.447 18.601 5.416 325.636 o
-1 18 9 330.064 357.252 11.979 21.749 o
-1 18 10 290.994 276.039 13.174 24.497 o
-1 18 11 10.521 14.590 6.789 264.419 o
-1 18 12 14.167 11.066 8.288 190.797 o
-1 19 1 1701.340 1695.980 23.519 2.585 o
-1 19 2 1.140 2.352 2.117 2497.680 o
-1 19 3 1815.400 1841.430 26.395 2.285 o
-1 19 4 81.937 88.541 8.006 86.459 o
-1 19 5 1279.230 1273.070 20.546 3.964 o
-1 19 6 303.558 300.835 10.345 25.651 o
-1 19 7 1306.300 1289.310 17.904 3.959 o
-1 19 8 21.474 20.969 5.423 276.324 o
-1 19 9 40.996 32.099 5.443 194.525 o
-1 19 10 90.704 95.605 6.560 89.952 o
-1 19 11 286.378 303.194 12.519 24.643 o
-1 19 12 17.223 13.382 8.265 182.954 o
-1 20 1 36.461 57.164 5.959 167.187 o
-1 20 2 293.086 282.830 7.288 29.327 o
-1 20 3 136.089 146.941 4.713 67.864 o
-1 20 4 48.638 61.729 3.978 175.398 o
-1 20 5 99.676 90.354 4.919 96.028 o
-1 20 6 1679.820 1642.840 22.535 2.677 o
-1 20 7 37.371 36.405 3.859 239.733 o
-1 20 8 615.178 641.340 14.841 10.553 o
-1 20 9 16.158 12.173 4.964 362.147 o
-1 20 10 128.261 134.205 7.278 64.208 o
-1 20 11 11.840 8.239 6.671 279.411 o
-1 20 12 73.109 91.766 16.797 41.474 o
-1 21 1 3111.340 3113.560 49.874 0.899 o
-1 21 2 9.402 11.114 6.178 318.249 o
-1 21 3 3017.940 2850.540 75.238 0.817 o
-1 21 4 735.758 746.445 14.511 8.664 o
-1 21 5 430.361 404.035 8.978 18.579 o
-1 21 6 17.838 21.605 3.672 404.531 o
-1 21 7 468.393 530.204 11.206 14.989 o
-1 21 8 290.476 288.695 10.409 26.722 o
-1 21 9 20.462 15.552 5.146 310.195 o
-1 21 10 37.426 30.180 5.444 205.507 o
-1 21 11 93.425 110.086 10.489 63.379 o
-1 21 12 17.900 11.670 13.261 84.211 o
-1 22 1 1495.760 1602.410 62.680 1.870 o
-1 22 2 202.463 212.186 11.725 34.570 o
-1 22 3 1238.840 1048.430 81.270 1.682 o
-1 22 4 130.832 133.112 4.881 71.551 o
-1 22 5 617.728 639.690 17.344 10.023 o
-1 22 6 122.400 123.675 5.390 74.770 o
-1 22 7 245.894 208.889 7.553 36.496 o
-1 22 8 119.285 134.725 7.974 64.094 o
-1 22 9 384.588 357.068 14.259 18.337 o
-1 22 10 8.272 -1.314 6.645 321.387 o
-1 22 11 0.687 5.663 9.706 171.678 o
-1 23 1 13.352 24.598 9.434 146.993 o
-1 23 2 23.026 32.024 10.360 115.048 o
-1 23 3 13.950 12.829 7.795 208.017 o
-1 23 4 1710.580 1541.670 84.251 1.311 o
-1 23 5 100.063 90.373 4.896 95.910 o
-1 23 6 164.189 167.814 9.288 46.880 o
-1 23 7 1.987 -1.261 5.063 608.181 o
-1 23 8 341.732 320.179 13.321 21.100 o
-1 23 9 23.009 28.901 6.993 195.705 o
-1 23 10 121.369 129.562 9.730 57.394 o
-1 24 1 1127.960 1220.000 36.622 3.621 o
-1 24 2 678.596 714.646 27.339 7.232 o
-1 24 3 623.407 638.469 33.948 6.614 o
-1 24 4 0.037 4.067 3.074 1464.790 o
-1 24 5 769.147 835.533 25.597 6.573 o
-1 24 6 327.077 279.361 13.031 22.809 o
-1 24 7 15.668 11.824 5.175 350.915 o
-1 24 8 1.962 -1.976 6.719 356.233 o
-1 24 9 210.860 231.665 12.688 31.508 o
-1 24 10 64.300 57.287 18.035 39.974 o
-1 25 1 805.721 811.647 29.968 5.885 o
-1 25 2 11.428 15.838 10.548 128.837 o
-1 25 3 554.364 644.371 30.500 7.674 o
-1 25 4 469.504 495.781 29.881 9.021 o
-1 25 5 52.038 44.716 8.827 110.005 o
-1 25 6 123.923 129.133 10.716 53.223 o
-1 25 7 345.782 358.065 15.915 18.522 o
-1 25 8 2.484 -3.345 11.078 133.893 o
-1 25 9 12.672 7.913 11.023 121.738 o
-1 26 1 7.898 13.059 10.750 129.343 o
-1 26 2 1886.450 1995.180 63.210 1.493 o
-1 26 3 5.087 12.405 10.849 130.254 o
-1 26 4 16.768 33.241 14.675 67.548 o
-1 26 5 3.928 3.334 10.554 143.451 o
-1 26 6 512.939 497.574 28.458 9.047 o
-1 26 7 22.435 24.174 11.250 104.484 o
-1 26 8 39.375 34.880 12.075 82.908 o
-1 27 1 856.070 969.083 37.573 4.576 o
-1 27 2 2.856 -7.835 10.823 139.730 o
-1 27 3 738.475 875.431 37.219 5.147 o
-1 27 4 315.022 277.242 24.930 14.354 o
-1 27 5 74.059 73.554 15.913 45.749 o
-1 27 6 10.364 12.080 8.284 198.226 o
-1 27 7 428.075 491.934 23.842 11.485 o
-1 27 8 3.293 -7.249 13.968 84.491 o
-1 28 1 174.895 153.453 25.461 18.137 o
-1 28 2 217.744 259.911 35.186 10.237 o
-1 28 3 126.845 104.974 14.741 41.199 o
-1 28 4 8.414 18.035 14.322 75.460 o
-1 28 5 332.480 339.833 26.345 12.774 o
-1 28 6 250.880 256.689 18.537 21.352 o
-1 28 7 88.594 77.215 13.918 51.634 o
-1 29 1 0.143 9.520 11.244 127.740 o
-1 29 2 0.354 -9.451 12.033 115.429 o
-1 29 3 0.140 11.093 12.288 107.057 o
-1 29 4 439.607 413.452 23.482 12.005 o
-1 29 5 16.824 14.499 14.675 70.158 o
-1 29 6 9.464 6.012 19.626 42.172 o
-1 30 1 363.225 391.709 24.026 13.075 o
-1 30 2 20.963 28.640 12.347 89.594 o
-1 30 3 259.527 272.908 20.844 18.645 o
-1 30 4 17.128 42.969 13.567 75.489 o
-1 30 5 422.056 521.773 32.887 8.432 o
-1 31 1 212.510 190.571 19.176 23.467 o
-1 31 2 0.023 13.030 14.587 76.468 o
-1 31 3 167.553 168.935 18.302 27.424 o
-1 31 4 213.615 225.013 19.777 22.011 o
-1 32 1 3.179 8.310 18.035 50.410 o
-1 32 2 335.906 359.766 27.406 12.065 o
-1 32 3 1.533 6.919 15.736 66.363 o
-1 32 4 1.580 3.890 15.206 71.406 o
-1 33 1 256.073 264.865 30.588 12.058 o
-1 33 2 0.027 1.591 17.681 53.451 o
-1 33 3 235.824 231.094 27.229 14.634 o
-1 33 4 1.304 -12.023 16.090 64.398 o
-1 34 1 26.099 20.510 20.157 37.911 o
-1 34 2 162.490 186.714 26.875 16.704 o
-1 34 3 21.800 41.904 18.565 43.324 o
-1 35 3 21.979 40.844 19.449 39.893 o
0 0 2 3569.620 3914.380 61.177 0.659 o
0 0 4 13780.100 13944.500 144.523 0.062 o
0 0 6 7.213 18.502 2.216 803.260 o
0 0 8 2349.130 2128.680 23.854 1.661 o
0 0 10 753.390 733.280 31.473 6.120 o
0 0 12 424.102 400.460 72.316 2.775 o
0 0 14 42.987 35.699 12.745 75.187 o
0 1 1 5333.870 5499.800 74.515 0.347 o
0 1 2 8319.890 8948.670 117.529 0.147 o
0 1 3 1738.470 1838.190 14.908 2.556 o
0 1 4 200.856 190.826 3.056 49.172 o
0 1 5 11683.300 11645.500 74.921 0.090 o
0 1 6 1320.940 1308.650 10.891 4.082 o
0 1 7 43.082 37.004 2.004 257.129 o
0 1 8 354.003 338.124 6.001 24.473 o
0 1 9 2075.180 1915.830 30.514 1.911 o
0 1 10 337.150 329.061 9.571 23.666 o
0 1 11 77.998 73.831 6.142 108.017 o
0 1 12 216.515 190.822 11.174 35.169 o
0 1 13 123.903 145.163 13.756 42.042 o
0 1 14 0.227 -10.519 8.559 227.997 o
0 1 15 29.888 37.953 13.937 69.110 o
0 2 1 1478.700 1566.450 19.272 3.172 o
0 2 2 2708.930 3152.670 45.947 1.043 o
0 2 3 21574.900 21883.500 255.844 0.025 o
0 2 4 5721.320 5618.850 76.064 0.316 o
0 2 5 99.189 89.253 2.416 108.123 o
0 2 6 1255.020 1176.220 20.521 4.178 o
0 2 7 4296.540 4128.680 46.204 0.560 o
0 2 8 255.923 254.003 5.851 34.881 o
0 2 9 7.132 9.787 2.985 816.012 o
0 2 10 694.737 644.699 20.256 8.633 o
0 2 11 212.713 213.834 10.030 36.255 o
0 2 12 23.474 19.952 8.216 167.187 o
0 2 13 34.866 43.243 9.586 113.331 o
0 2 14 46.245 57.915 11.059 84.815 o
0 2 15 87.150 106.237 16.954 38.726 o
0 3 1 1039.520 993.777 12.890 5.767 o
0 3 2 46037.100 44833.700 2106.540 0.002 o
0 3 3 269.655 308.726 10.042 27.733 o
0 3 4 2448.950 2378.880 23.924 1.502 o
0 3 5 144.494 125.915 3.680 71.077 o
0 3 6 7259.180 7091.110 58.692 0.219 o
0 3 7 11.833 16.677 2.760 616.026 o
0 3 8 997.913 919.918 12.146 6.240 o
0 3 9 76.281 69.416 4.485 125.734 o
0 3 10 585.384 583.550 12.667 11.845 o
0 3 11 1.678 5.109 4.954 585.511 o
0 3 12 228.444 257.312 14.427 27.057 o
0 3 13 19.575 21.801 9.103 148.770 o
0 3 14 19.250 16.466 9.716 138.240 o
0 3 15 0.577 5.187 12.634 102.983 o
0 4 0 1588.770 1914.070 28.552 2.490 o
0 4 1 5583.290 5594.360 63.091 0.338 o
0 4 2 1585.540 1668.610 27.767 2.689 o
0 4 3 18225.400 17847.300 194.359 0.037 o
0 4 4 272.480 272.094 4.633 33.310 o
0 4 5 1881.010 1936.240 19.537 2.245 o
0 4 6 672.536 643.723 8.874 10.721 o
0 4 7 6960.900 6778.090 54.478 0.238 o
0 4 8 255.737 254.498 6.602 34.209 o
0 4 9 0.234 0.714 2.720 2103.740 o
0 4 10 142.151 133.340 5.916 64.738 o
0 4 11 548.550 553.617 14.873 12.156 o
0 4 12 74.510 67.256 9.640 82.530 o
0 4 13 64.864 60.850 10.456 81.466 o
0 4 14 34.550 30.937 10.489 105.119 o
0 4 15 21.119 4.774 17.328 51.849 o
0 5 1 10169.300 10801.900 102.966 0.108 o
0 5 2 5149.100 4978.630 49.609 0.408 o
0 5 3 10219.800 10984.500 123.558 0.103 o
0 5 4 1883.300 1821.590 24.764 2.241 o
0 5 5 7000.200 6832.960 52.430 0.236 o
0 5 6 3662.270 3596.360 28.953 0.760 o
0 5 7 161.149 174.825 4.942 56.584 o
0 5 8 1179.650 1121.820 15.126 4.757 o
0 5 9 874.682 850.952 13.529 7.171 o
0 5 10 164.715 180.941 6.194 52.655 o
0 5 11 1.238 8.289 4.488 661.634 o
0 5 12 205.075 219.197 11.627 34.173 o
0 5 13 114.618 116.781 10.444 57.538 o
0 5 14 1.251 4.420 14.852 74.815 o
0 5 15 8.520 25.107 18.389 46.716 o
0 6 0 29192.100 29833.700 395.639 0.014 o
0 6 1 117.614 150.435 2.804 78.707 o
0 6 2 747.213 682.859 9.555 9.461 o
0 6 3 1350.190 1218.880 14.088 4.051 o
0 6 4 15911.700 16128.100 156.797 0.047 o
0 6 5 305.990 306.084 5.630 28.632 o
0 6 6 2121.020 1994.770 19.996 1.948 o
0 6 7 911.431 884.907 11.586 6.936 o
0 6 8 2289.340 2227.720 21.143 1.690 o
0 6 9 24.074 22.954 3.539 354.022 o
0 6 10 534.106 526.607 10.267 13.831 o
0 6 11 0.370 -2.928 4.448 831.845 o
0 6 12 76.505 76.874 8.601 87.540 o
0 6 13 16.974 23.757 9.036 152.596 o
0 6 14 52.308 90.174 19.626 34.631 o
0 6 15 0.854 -1.591 16.267 63.115 o
0 7 1 13672.300 13915.300 108.190 0.065 o
0 7 2 47.263 88.204 6.332 126.674 o
0 7 3 7035.000 7387.600 51.535 0.225 o
0 7 4 3.833 11.602 2.309 1145.080 o
0 7 5 7335.810 6797.310 62.596 0.221 o
0 7 6 683.512 681.803 10.842 10.075 o
0 7 7 0.828 3.088 2.265 2261.470 o
0 7 8 198.882 173.582 6.491 46.533 o
0 7 9 1933.100 1921.950 20.959 2.175 o
0 7 10 41.239 42.029 4.167 211.559 o
0 7 11 144.627 132.945 7.138 60.386 o
0 7 12 10.504 3.645 6.263 327.633 o
0 7 13 206.410 226.769 14.283 29.614 o
0 7 14 0.357 -5.658 15.736 67.558 o
0 7 15 12.483 36.246 17.858 48.031 o
0 8 0 12980.900 13393.300 280.424 0.055 o
0 8 1 7601.560 7994.300 69.011 0.191 o
0 8 2 477.018 560.648 6.983 15.472 o
0 8 3 957.042 857.604 8.871 6.874 o
0 8 4 2440.510 2271.150 42.357 1.387 o
0 8 5 1128.660 1152.340 35.180 3.781 o
0 8 6 1155.410 1048.750 12.564 5.106 o
0 8 7 2136.520 2038.890 23.034 1.884 o
0 8 8 1370.190 1384.170 21.887 3.537 o
0 8 9 332.130 339.811 12.912 21.381 o
0 8 10 1455.030 1509.500 36.677 2.755 o
0 8 11 299.132 293.130 12.162 24.562 o
0 8 12 5.440 4.923 6.619 325.738 o
0 8 13 0.491 -4.816 8.581 226.064 o
0 8 14 20.689 22.278 15.913 58.922 o
0 8 15 23.985 9.017 16.974 53.031 o
0 9 1 6626.860 6753.170 59.925 0.251 o
0 9 2 29319.200 30944.800 237.253 0.014 o
0 9 3 1955.000 1895.360 16.750 2.211 o
0 9 4 2828.860 2945.190 23.010 1.150 o
0 9 5 1435.380 1402.910 16.137 3.522 o
0 9 6 5215.520 5105.550 56.523 0.390 o
0 9 7 93.581 93.637 4.116 103.255 o
0 9 8 130.409 112.195 5.609 73.127 o
0 9 9 114.170 123.376 6.954 71.685 o
0 9 10 1060.750 1031.620 18.254 5.272 o
0 9 11 1.578 10.041 5.943 402.016 o
0 9 12 133.015 124.605 9.339 56.769 o
0 9 13 5.682 2.196 8.395 217.523 o
0 9 14 0.558 2.829 14.675 77.107 o
0 9 15 8.267 4.420 15.559 66.422 o
0 10 0 55.972 28.602 4.243 190.159 o
0 10 1 6265.540 6284.740 64.572 0.276 o
0 10 2 964.486 1104.120 11.877 5.923 o
0 10 3 8446.810 8082.530 101.530 0.158 o
0 10 4 713.613 812.773 8.693 9.193 o
0 10 5 846.120 877.591 11.900 7.416 o
0 10 6 356.854 347.826 8.602 22.816 o
0 10 7 4931.290 4713.720 57.422 0.432 o
0 10 8 1558.830 1514.340 21.718 3.009 o
0 10 9 101.920 93.137 6.418 85.687 o
0 10 10 0.013 3.963 5.629 498.528 o
0 10 11 528.730 580.392 15.912 11.981 o
0 10 12 45.087 44.242 7.583 134.642 o
0 10 13 26.206 25.132 9.215 136.271 o
0 10 14 17.093 9.548 14.322 74.009 o
0 11 1 1689.870 1712.000 19.584 2.660 o
0 11 2 5836.380 5364.370 55.657 0.334 o
0 11 3 892.882 937.842 11.611 6.880 o
0 11 4 1187.200 1103.750 11.046 4.912 o
0 11 5 2046.560 1930.400 20.869 2.047 o
0 11 6 1916.090 1856.780 27.626 2.141 o
0 11 7 8.427 14.059 3.099 681.960 o
0 11 8 1720.360 1654.870 23.272 2.592 o
0 11 9 318.382 291.488 9.579 25.672 o
0 11 10 62.978 68.069 7.115 112.609 o
0 11 11 0.319 -5.460 6.069 451.069 o
0 11 12 296.796 332.467 13.193 22.847 o
0 11 13 109.216 107.540 11.150 56.795 o
0 11 14 3.024 -6.719 14.499 78.607 o
0 12 0 14681.600 15241.200 172.651 0.053 o
0 12 1 1685.440 1703.890 23.829 2.597 o
0 12 2 754.096 713.246 8.940 9.273 o
0 12 3 7469.280 7655.490 74.038 0.198 o
0 12 4 9991.850 10330.300 98.606 0.114 o
0 12 5 20.381 19.995 2.250 482.562 o
0 12 6 728.392 727.985 13.140 9.006 o
0 12 7 535.673 546.294 14.632 12.495 o
0 12 8 1109.660 1052.180 15.753 5.153 o
0 12 9 232.170 208.944 9.412 35.465 o
0 12 10 60.433 57.383 6.781 123.385 o
0 12 11 65.308 84.432 8.117 95.578 o
0 12 12 65.634 57.537 8.099 104.068 o
0 12 13 19.862 22.365 9.063 148.967 o
0 12 14 70.375 75.852 19.096 35.278 o
0 13 1 6433.280 6632.460 61.963 0.261 o
0 13 2 24.766 9.936 3.165 429.239 o
0 13 3 1198.400 1182.780 12.751 4.659 o
0 13 4 28.882 27.933 2.698 339.189 o
0 13 5 6986.930 6769.320 65.233 0.233 o
0 13 6 4.235 3.499 2.854 1204.430 o
0 13 7 51.438 46.322 4.118 183.022 o
0 13 8 72.562 70.990 4.761 126.314 o
0 13 9 1457.010 1450.180 39.480 2.701 o
0 13 10 51.002 42.697 6.620 144.341 o
0 13 11 5.228 -1.173 6.193 386.148 o
0 13 12 0.120 4.069 6.817 345.076 o
0 13 13 133.454 164.386 12.751 42.470 o
0 13 14 0.352 -1.415 14.852 75.828 o
0 14 0 10747.400 10958.600 127.933 0.097 o
0 14 1 3085.080 3277.510 34.210 0.949 o
0 14 2 526.018 525.443 8.549 14.402 o
0 14 3 1191.150 1192.660 13.938 4.627 o
0 14 4 4953.240 4761.610 59.029 0.426 o
0 14 5 377.420 376.136 8.117 21.481 o
0 14 6 1068.080 1048.610 14.548 5.408 o
0 14 7 288.508 268.035 11.755 26.204 o
0 14 8 569.050 563.002 15.444 11.616 o
0 14 9 41.293 44.669 6.223 164.311 o
0 14 10 451.967 459.252 13.836 15.308 o
0 14 11 104.306 82.428 8.182 76.865 o
0 14 12 32.407 18.262 7.199 180.875 o
0 14 13 8.872 12.566 8.412 196.087 o
0 14 14 96.198 131.018 21.571 26.402 o
0 15 1 2455.760 2398.740 27.083 1.470 o
0 15 2 8689.410 8665.720 99.003 0.148 o
0 15 3 422.298 396.565 7.713 19.450 o
0 15 4 339.439 335.402 5.871 25.424 o
0 15 5 1410.250 1444.140 18.542 3.472 o
0 15 6 1379.490 1343.050 25.144 3.452 o
0 15 7 0.022 -1.173 4.761 738.243 o
0 15 8 286.667 250.417 13.781 24.779 o
0 15 9 491.106 526.351 17.153 12.664 o
0 15 10 262.877 260.335 11.125 28.700 o
0 15 11 98.619 96.382 8.751 73.146 o
0 15 12 81.711 74.867 10.205 74.097 o
0 15 13 6.762 10.522 8.478 200.664 o
0 15 14 34.757 38.545 16.974 49.051 o
0 16 0 785.287 743.476 16.469 7.983 o
0 16 1 4473.010 4537.530 45.600 0.509 o
0 16 2 47.289 32.950 2.639 238.162 o
0 16 3 4112.910 4060.120 42.804 0.600 o
0 16 4 245.787 237.785 5.086 37.470 o
0 16 5 195.608 191.312 4.596 48.404 o
0 16 6 47.136 59.011 7.758 122.376 o
0 16 7 1887.890 1829.020 53.277 1.721 o
0 16 8 3.571 6.171 4.092 723.405 o
0 16 9 33.756 35.886 4.527 234.161 o
0 16 10 13.488 26.893 6.442 247.321 o
0 16 11 404.660 414.199 19.064 14.555 o
0 16 12 22.759 25.972 7.671 178.528 o
0 16 13 7.812 9.017 13.968 80.924 o
0 17 1 535.190 561.086 10.145 13.486 o
0 17 2 4387.960 4474.020 49.239 0.519 o
0 17 3 358.291 374.739 6.455 23.113 o
0 17 4 572.384 613.827 10.849 12.178 o
0 17 5 433.298 392.213 7.475 19.210 o
0 17 6 2171.030 2083.190 35.552 1.697 o
0 17 7 188.465 185.737 7.323 45.769 o
0 17 8 865.451 885.749 20.191 6.493 o
0 17 9 25.103 15.290 4.207 337.072 o
0 17 10 152.925 129.655 8.874 53.501 o
0 17 11 12.417 17.093 6.927 245.156 o
0 17 12 201.861 216.691 21.732 20.392 o
0 17 13 0.447 3.890 14.145 82.778 o
0 18 0 5844.140 6058.170 77.511 0.296 o
0 18 1 3825.840 3802.930 37.319 0.685 o
0 18 2 1247.260 1260.240 21.685 4.028 o
0 18 3 1965.360 1982.060 33.560 1.938 o
0 18 4 1384.140 1459.490 26.828 3.258 o
0 18 5 325.231 293.297 8.828 25.771 o
0 18 6 83.657 83.798 4.526 112.112 o
0 18 7 719.597 787.711 19.702 7.899 o
0 18 8 829.282 786.849 19.281 7.141 o
0 18 9 26.206 30.924 4.807 261.634 o
0 18 10 51.865 42.633 7.809 124.935 o
0 18 11 197.813 214.998 19.544 23.109 o
0 18 12 68.569 60.739 13.224 60.900 o
0 18 13 2.749 10.609 14.499 76.856 o
0 19 1 2265.720 2307.980 25.809 1.641 o
0 19 2 88.319 82.092 5.473 102.726 o
0 19 3 2162.860 1855.010 98.739 0.940 o
0 19 4 426.371 407.391 8.362 18.882 o
0 19 5 2753.640 2663.140 34.758 1.191 o
0 19 6 59.106 61.033 8.676 101.166 o
0 19 7 91.466 60.784 6.458 100.546 o
0 19 8 221.021 248.092 14.285 27.967 o
0 19 9 780.190 784.224 25.445 6.678 o
0 19 10 38.172 30.069 8.298 137.949 o
0 19 11 16.860 23.651 11.108 110.679 o
0 19 12 1.095 5.565 11.162 130.558 o
0 19 13 55.285 61.000 17.681 41.997 o
0 20 0 248.573 277.453 18.554 21.038 o
0 20 1 105.807 138.501 7.973 67.551 o
0 20 2 126.175 146.842 10.976 50.254 o
0 20 3 131.909 139.157 10.341 52.017 o
0 20 4 3040.240 2909.120 40.947 0.997 o
0 20 5 120.937 114.331 5.572 76.505 o
0 20 6 1524.160 1435.730 34.010 2.792 o
0 20 7 41.241 26.679 7.147 159.449 o
0 20 8 383.205 345.845 31.826 9.784 o
0 20 9 35.315 27.624 9.106 127.532 o
0 20 10 241.648 260.667 18.728 21.427 o
0 20 11 0.146 -3.463 8.380 238.063 o
0 20 12 0.650 -6.006 11.216 132.523 o
0 20 13 16.541 23.516 16.090 58.478 o
0 21 1 4083.580 4141.560 60.766 0.561 o
0 21 2 1309.280 1354.690 27.839 3.494 o
0 21 3 784.240 740.799 22.201 7.237 o
0 21 4 40.984 38.797 3.398 234.450 o
0 21 5 942.543 1006.940 20.901 5.690 o
0 21 6 577.730 539.141 34.478 7.020 o
0 21 7 65.257 46.151 12.112 71.091 o
0 21 8 89.328 69.841 20.157 31.383 o
0 21 9 231.917 204.495 22.102 19.278 o
0 21 10 58.571 26.929 11.605 81.091 o
0 21 11 1.648 14.582 11.470 119.498 o
0 21 12 22.323 19.096 15.383 62.566 o
0 22 0 181.213 162.844 19.626 24.848 o
0 22 1 1705.660 1766.500 33.728 2.323 o
0 22 2 260.403 275.871 12.514 26.852 o
0 22 3 1260.930 1354.820 37.131 3.190 o
0 22 4 272.948 223.637 12.301 27.927 o
0 22 5 442.933 377.149 9.512 18.407 o
0 22 6 321.685 311.907 16.172 19.893 o
0 22 7 909.777 890.051 26.183 5.643 o
0 22 8 31.305 30.235 19.449 39.512 o
0 22 9 0.096 -1.898 7.016 339.690 o
0 22 10 48.512 64.751 9.975 92.742 o
0 22 11 257.033 282.012 20.564 18.828 o
0 22 12 4.854 12.377 14.499 75.847 o
0 23 1 1.168 14.211 8.749 198.199 o
0 23 2 2454.990 2534.430 43.141 1.303 o
0 23 3 152.054 159.009 13.526 38.608 o
0 23 4 257.089 280.934 14.421 24.850 o
0 23 5 14.856 12.031 4.301 432.201 o
0 23 6 794.315 748.946 56.138 3.347 o
0 23 7 52.148 53.588 9.432 99.675 o
0 23 8 339.523 335.766 32.887 9.817 o
0 23 9 2.025 -4.924 10.237 156.956 o
0 23 10 57.025 55.660 10.031 90.106 o
0 23 11 39.434 44.733 17.151 47.123 o
0 24 0 909.674 939.934 44.026 3.913 o
0 24 1 1078.480 1115.030 34.107 4.021 o
0 24 2 5.508 10.891 8.991 183.244 o
0 24 3 1266.300 1357.290 33.583 3.337 o
0 24 4 606.813 612.928 31.649 7.206 o
0 24 5 27.909 10.795 3.903 350.496 o
0 24 6 11.134 12.577 8.224 198.228 o
0 24 7 428.523 470.061 19.384 13.420 o
0 24 8 148.848 142.460 14.682 37.003 o
0 24 9 11.272 11.146 11.316 116.038 o
0 24 10 12.462 5.803 11.764 109.302 o
0 24 11 81.954 96.186 19.626 32.275 o
0 25 1 805.492 813.496 29.294 5.965 o
0 25 2 731.199 749.775 40.932 4.939 o
0 25 3 44.147 29.893 9.934 106.518 o
0 25 4 151.206 205.633 21.218 22.995 o
0 25 5 632.779 562.160 27.936 7.959 o
0 25 6 21.420 6.416 8.347 178.919 o
0 25 7 30.145 6.938 10.400 118.783 o
0 25 8 87.373 113.675 14.456 46.726 o
0 25 9 293.357 271.869 19.152 19.091 o
0 25 10 2.151 -1.415 14.145 82.873 o
0 25 11 0.209 -2.829 15.913 66.104 o
0 26 0 2353.550 2518.690 81.510 0.980 o
0 26 1 8.766 33.355 11.359 108.933 o
0 26 2 21.994 36.424 11.147 102.325 o
0 26 3 8.652 13.818 9.798 150.839 o
0 26 4 988.628 941.210 122.266 0.958 o
0 26 5 75.251 77.206 11.259 68.946 o
0 26 6 90.207 103.159 9.936 68.217 o
0 26 7 0.436 -0.369 10.408 154.045 o
0 26 8 188.909 176.940 16.496 28.907 o
0 26 10 137.598 163.551 22.986 21.909 o
0 27 1 971.883 1111.140 35.873 4.186 o
0 27 2 396.154 443.197 23.081 12.596 o
0 27 3 91.410 83.554 13.615 51.913 o
0 27 4 30.122 32.671 9.389 125.122 o
0 27 5 906.301 926.850 36.954 4.546 o
0 27 6 14.704 3.752 7.609 226.511 o
0 27 7 13.927 6.590 11.284 116.324 o
0 27 8 11.119 13.721 11.667 109.104 o
0 27 10 82.745 87.168 19.803 32.096 o
0 28 0 278.373 305.885 29.174 12.275 o
0 28 1 175.900 154.796 16.173 31.079 o
0 28 2 4.341 8.266 10.219 148.782 o
0 28 3 581.028 608.101 27.134 8.355 o
0 28 4 412.864 448.089 19.995 13.639 o
0 28 5 140.974 128.189 16.267 34.617 o
0 28 6 238.063 269.364 39.164 8.521 o
0 28 7 321.870 334.862 32.622 10.080 o
0 29 1 0.457 -4.682 10.771 143.860 o
0 29 2 608.357 621.013 70.018 2.686 o
0 29 3 34.253 33.639 19.980 37.260 o
0 29 4 14.212 23.012 8.495 172.338 o
0 29 5 10.926 23.693 12.554 93.210 o
0 29 6 211.513 182.117 28.467 14.570 o
0 30 0 21.101 20.687 16.267 56.727 o
0 30 1 384.076 430.712 24.158 12.397 o
0 30 2 16.506 43.303 12.904 82.155 o
0 30 3 751.707 907.527 34.185 5.397 o
0 30 4 5.373 8.409 8.566 202.763 o
0 30 5 20.944 0.884 11.493 109.597 o
0 31 1 239.316 196.849 18.558 22.960 o
0 31 2 291.849 315.564 22.327 16.135 o
0 31 3 139.112 106.452 25.815 19.238 o
0 31 4 27.414 42.181 11.581 92.078 o
0 32 0 392.923 437.433 36.423 7.924 o
0 32 1 2.986 8.379 12.527 102.245 o
0 32 2 0.095 -8.617 12.870 101.079 o
0 32 3 6.398 6.923 12.557 100.197 o
0 32 4 261.612 210.583 20.510 19.828 o
0 33 1 313.557 316.807 23.047 15.183 o
0 33 2 2.173 -6.873 13.030 97.465 o
0 33 3 88.417 96.716 21.748 27.273 o
0 34 0 181.531 243.294 30.412 13.242 o
0 34 1 26.780 28.467 19.096 41.373 o
0 34 2 15.103 19.096 18.389 46.262 o
0 34 3 47.143 34.070 11.274 87.754 o
0 35 1 36.236 22.278 19.980 37.573 o
0 35 2 166.279 126.067 24.400 19.858 o
1 0 0 3242.470 3569.960 51.503 0.797 o
1 0 2 17590.600 17466.900 326.572 0.033 o
1 0 4 95.740 240.579 6.252 61.721 o
1 0 6 4058.040 4112.030 61.148 0.565 o
1 0 8 1701.080 1664.110 38.580 2.277 o
1 0 10 953.038 843.334 19.456 6.182 o
1 0 12 207.476 229.856 23.339 18.413 o
1 1 0 9020.610 10176.700 72.597 0.134 o
1 1 1 2162.560 2354.730 34.223 1.619 o
1 1 2 604.305 659.156 16.974 10.144 o
1 1 3 18786.100 18612.200 246.654 0.033 o
1 1 4 2168.470 2101.860 27.944 1.778 o
1 1 5 65.038 74.857 2.913 148.974 o
1 1 6 861.236 838.565 10.726 7.539 o
1 1 7 4738.820 4580.430 50.679 0.468 o
1 1 8 696.970 623.483 9.515 10.447 o
1 1 9 239.060 224.928 8.853 34.761 o
1 1 10 552.250 522.375 11.399 13.243 o
1 1 11 411.841 421.950 21.570 13.183 o
1 1 12 6.415 -2.221 8.127 231.948 o
1 1 13 59.649 76.258 18.477 38.043 o
1 2 0 3333.620 4109.800 30.487 0.774 o
1 2 1 19074.800 20293.000 155.800 0.033 o
1 2 2 7002.760 7155.700 70.001 0.223 o
1 2 3 195.072 185.611 4.844 48.680 o
1 2 4 1833.100 1903.170 25.474 2.241 o
1 2 5 8481.770 8516.250 104.610 0.152 o
1 2 6 273.417 253.238 5.639 33.409 o
1 2 7 23.092 30.130 2.888 366.237 o
1 2 8 1573.890 1582.590 22.855 2.894 o
1 2 9 683.420 683.694 12.506 9.835 o
1 2 10 68.736 62.369 3.751 145.279 o
1 2 11 113.248 114.902 8.108 68.328 o
1 2 12 149.264 178.105 28.820 15.373 o
1 2 13 205.413 267.115 88.936 2.019 o
1 2 14 2.541 -6.896 14.322 80.713 o
1 3 0 45231.700 49287.800 374.135 0.006 o
1 3 1 362.584 420.271 5.518 22.166 o
1 3 2 3944.700 4054.580 42.054 0.630 o
1 3 3 421.972 388.863 5.667 20.253 o
1 3 4 10355.700 10411.200 83.104 0.111 o
1 3 5 3.856 0.881 1.753 2324.300 o
1 3 6 1737.470 1644.640 21.085 2.613 o
1 3 7 193.137 198.453 5.263 47.313 o
1 3 8 1359.250 1323.750 17.815 3.769 o
1 3 9 0.169 -0.817 2.942 1899.500 o
1 3 10 516.216 530.006 31.566 8.081 o
1 3 11 83.306 70.328 6.669 101.101 o
1 3 12 36.615 20.553 10.025 114.204 o
1 3 13 0.489 6.501 11.088 132.386 o
1 3 14 71.263 75.676 19.273 34.719 o
1 4 0 2156.430 2297.260 21.466 1.767 o
1 4 1 21642.800 22470.000 149.437 0.026 o
1 4 2 391.193 400.065 5.472 21.353 o
1 4 3 2730.230 2865.180 25.910 1.201 o
1 4 4 1259.800 1184.930 12.119 4.453 o
1 4 5 13780.100 13200.400 131.561 0.065 o
1 4 6 632.793 637.631 9.944 11.190 o
1 4 7 0.195 1.680 2.297 2671.570 o
1 4 8 383.009 374.596 7.967 21.341 o
1 4 9 1381.640 1357.610 32.882 3.142 o
1 4 10 198.978 176.842 7.441 44.621 o
1 4 11 190.514 190.872 10.030 39.997 o
1 4 12 149.965 144.387 25.373 18.963 o
1 4 13 98.670 105.239 33.064 13.395 o
1 4 14 0.014 -10.609 15.736 67.647 o
1 5 0 3508.300 3314.120 44.755 0.788 o
1 5 1 10294.700 11441.400 89.621 0.104 o
1 5 2 3264.840 3449.420 31.678 0.876 o
1 5 3 9819.090 10031.700 69.593 0.122 o
1 5 4 5643.490 5751.450 36.715 0.346 o
1 5 5 318.072 319.976 5.731 27.282 o
1 5 6 2775.840 2719.490 28.414 1.202 o
1 5 7 1957.890 1856.070 27.650 2.096 o
1 5 8 607.657 622.264 10.250 11.642 o
1 5 9 14.303 11.341 3.932 480.756 o
1 5 10 558.873 612.432 21.195 9.970 o
1 5 11 306.168 298.850 13.336 23.066 o
1 5 12 6.549 3.003 9.006 188.490 o
1 5 13 21.227 13.084 10.867 115.419 o
1 5 14 66.930 72.670 18.389 37.820 o
1 6 0 526.807 488.573 9.061 14.688 o
1 6 1 1358.040 1297.020 11.853 3.968 o
1 6 2 23410.900 25043.100 193.289 0.022 o
1 6 3 580.711 598.215 10.229 12.286 o
1 6 4 4212.690 4138.980 21.689 0.606 o
1 6 5 1491.580 1468.730 19.892 3.231 o
1 6 6 3953.110 3812.320 39.563 0.655 o
1 6 7 35.406 31.356 2.671 291.046 o
1 6 8 1102.220 1025.260 24.421 4.729 o
1 6 9 18.173 8.562 4.032 439.994 o
1 6 10 258.213 231.671 10.986 30.206 o
1 6 11 43.426 43.706 6.096 164.078 o
1 6 12 165.065 205.931 45.706 7.025 o
1 6 13 3.745 9.236 9.966 155.990 o
1 7 0 330.124 408.006 6.872 23.508 o
1 7 1 8061.440 8725.180 72.147 0.168 o
1 7 2 4.264 13.527 1.654 1251.820 o
1 7 3 8510.530 8107.320 53.961 0.168 o
1 7 4 893.338 712.664 111.864 1.151 o
1 7 5 19.922 29.408 2.997 390.897 o
1 7 6 268.938 245.927 8.134 31.937 o
1 7 7 3830.020 3811.570 29.945 0.697 o
1 7 8 69.121 54.649 4.398 143.321 o
1 7 9 498.759 510.442 12.456 14.158 o
1 7 10 51.872 45.551 5.673 156.841 o
1 7 11 557.643 599.433 24.296 9.272 o
1 7 12 2.426 0.875 7.538 281.196 o
1 7 13 47.416 72.118 23.870 25.631 o
1 8 0 910.120 1003.960 11.360 6.564 o
1 8 1 1103.210 1023.330 9.177 5.528 o
1 8 2 3771.540 3635.670 28.121 0.732 o
1 8 3 1933.280 2134.200 16.931 2.097 o
1 8 4 2587.340 2496.160 15.793 1.419 o
1 8 5 3912.130 3838.150 37.850 0.664 o
1 8 6 2605.140 2583.770 25.660 1.337 o
1 8 7 715.625 697.804 8.083 9.890 o
1 8 8 3495.180 3483.320 34.389 0.802 o
1 8 9 644.097 611.645 12.172 10.857 o
1 8 10 53.380 53.853 5.782 147.005 o
1 8 11 0.379 0.454 5.097 630.783 o
1 8 12 87.645 115.311 10.224 65.623 o
1 8 13 82.327 70.779 12.109 62.737 o
1 9 0 27431.400 29316.600 337.588 0.015 o
1 9 1 2668.000 2778.130 34.608 1.205 o
1 9 2 3767.440 4140.570 29.179 0.678 o
1 9 3 1654.580 1689.210 17.992 2.761 o
1 9 4 8042.190 8140.750 50.835 0.181 o
1 9 5 169.764 160.666 6.625 52.778 o
1 9 6 319.966 300.612 5.895 27.712 o
1 9 7 110.642 125.374 5.495 78.783 o
1 9 8 2279.410 2176.730 24.332 1.693 o
1 9 9 0.549 1.393 4.197 890.522 o
1 9 10 404.212 403.935 14.751 16.817 o
1 9 11 23.367 30.480 7.566 176.159 o
1 9 12 3.645 -0.299 11.015 134.197 o
1 9 13 30.491 32.443 10.918 101.404 o
1 10 0 494.619 561.980 7.976 14.823 o
1 10 1 9376.260 9351.420 90.071 0.132 o
1 10 2 859.964 1007.900 12.493 6.806 o
1 10 3 1144.450 1241.510 13.860 4.713 o
1 10 4 276.355 280.325 4.723 32.531 o
1 10 5 8868.320 8607.150 73.055 0.151 o
1 10 6 2256.450 2200.910 41.703 1.524 o
1 10 7 234.502 225.999 7.504 36.859 o
1 10 8 5.208 10.330 4.311 585.733 o
1 10 9 1335.780 1329.820 40.928 2.919 o
1 10 10 61.823 63.958 7.984 105.700 o
1 10 11 71.384 68.644 10.053 80.347 o
1 10 12 26.061 29.137 8.180 156.883 o
1 10 13 125.879 139.643 14.197 40.870 o
1 11 0 6159.510 5975.030 53.614 0.297 o
1 11 1 533.040 568.246 12.472 12.912 o
1 11 2 1559.970 1453.700 13.183 3.241 o
1 11 3 2915.150 2791.060 22.706 1.147 o
1 11 4 2924.120 2951.420 30.769 1.078 o
1 11 5 1.905 3.493 2.406 1800.790 o
1 11 6 3048.090 2975.310 32.757 1.019 o
1 11 7 1052.640 984.364 22.114 5.155 o
1 11 8 174.371 175.396 8.129 47.272 o
1 11 9 1.463 4.773 5.838 443.325 o
1 11 10 775.368 893.208 34.227 5.329 o
1 11 11 225.983 205.133 11.899 32.547 o
1 11 12 5.215 -1.203 7.933 246.538 o
1 11 13 4.003 2.122 12.554 103.112 o
1 12 0 360.715 350.289 5.715 23.908 o
1 12 1 7525.610 8051.370 81.954 0.188 o
1 12 2 12607.000 13349.500 91.598 0.074 o
1 12 3 3.066 5.294 1.793 1921.940 o
1 12 4 1027.380 1017.000 20.808 5.284 o
1 12 5 955.281 1036.740 12.057 6.153 o
1 12 6 1732.990 1650.970 17.854 2.668 o
1 12 7 454.123 386.750 15.954 15.223 o
1 12 8 72.631 64.141 6.799 109.788 o
1 12 9 223.420 265.695 11.729 30.600 o
1 12 10 136.137 134.548 11.043 49.371 o
1 12 11 65.298 82.191 9.261 86.380 o
1 12 12 217.270 224.175 20.707 20.863 o
1 13 0 6.070 5.184 1.777 1455.530 o
1 13 1 911.971 944.583 12.745 6.655 o
1 13 2 38.344 30.841 1.970 293.753 o
1 13 3 10729.000 10629.700 70.671 0.106 o
1 13 4 22.935 25.087 3.235 370.694 o
1 13 5 34.925 37.189 3.010 270.370 o
1 13 6 178.603 192.975 5.085 50.704 o
1 13 7 3654.590 3483.680 56.922 0.698 o
1 13 8 107.394 81.847 8.589 73.508 o
1 13 9 9.411 23.992 6.488 266.419 o
1 13 10 6.632 1.493 6.590 331.515 o
1 13 11 407.594 404.556 29.133 10.257 o
1 13 12 0.928 6.825 8.195 234.863 o
1 14 0 632.748 611.136 8.470 11.603 o
1 14 1 1400.430 1461.080 17.035 3.514 o
1 14 2 5752.140 5634.540 63.136 0.325 o
1 14 3 506.151 473.982 7.655 15.692 o
1 14 4 1287.670 1309.960 17.588 3.994 o
1 14 5 551.010 533.051 8.331 13.823 o
1 14 6 1160.080 1157.900 13.384 4.831 o
1 14 7 61.064 52.931 3.671 164.911 o
1 14 8 1071.350 1130.870 24.082 4.672 o
1 14 9 295.638 252.457 16.052 22.105 o
1 14 10 53.205 53.220 8.004 116.276 o
1 14 11 24.434 9.202 7.623 193.816 o
1 14 12 325.614 369.701 19.549 16.560 o
1 15 0 9811.940 10129.200 93.426 0.118 o
1 15 1 648.480 652.695 8.996 10.982 o
1 15 2 412.622 384.913 7.078 20.260 o
1 15 3 2283.700 2319.010 25.392 1.627 o
1 15 4 2076.240 2133.000 17.683 1.944 o
1 15 5 3.462 4.493 2.660 1332.650 o
1 15 6 424.981 426.642 8.433 18.574 o
1 15 7 824.469 854.926 23.221 6.493 o
1 15 8 438.973 382.685 18.572 14.409 o
1 15 9 165.125 190.952 10.656 41.877 o
1 15 10 236.250 225.799 12.034 30.728 o
1 15 11 20.723 28.211 7.842 175.296 o
1 15 12 101.436 72.657 9.864 69.896 o
1 16 0 35.831 31.944 2.687 286.986 o
1 16 1 4093.370 4093.990 39.670 0.606 o
1 16 2 246.314 269.865 9.034 31.888 o
1 16 3 299.797 287.550 5.997 29.544 o
1 16 4 29.578 34.450 3.787 277.218 o
1 16 5 3168.230 3163.280 31.346 0.951 o
1 16 6 8.808 12.126 3.420 642.174 o
1 16 7 65.419 73.599 4.382 136.304 o
1 16 8 46.238 60.741 7.355 128.104 o
1 16 9 1056.600 1056.150 24.139 4.858 o
1 16 10 70.932 61.205 8.821 92.668 o
1 16 11 28.976 35.514 8.361 144.506 o
1 16 12 0.640 2.366 9.475 183.050 o
1 17 0 4690.200 4706.660 38.834 0.481 o
1 17 1 325.374 343.737 12.388 21.953 o
1 17 2 768.799 800.380 21.055 7.293 o
1 17 3 437.745 413.568 7.335 18.721 o
1 17 4 3451.710 3383.880 28.816 0.840 o
1 17 5 318.938 343.386 7.674 25.433 o
1 17 6 1754.500 1834.310 21.143 2.452 o
1 17 7 59.969 40.856 4.351 168.278 o
1 17 8 289.602 272.663 12.068 25.710 o
1 17 9 31.260 34.560 7.654 157.402 o
1 17 10 528.701 584.069 18.616 11.206 o
1 17 11 0.816 7.697 7.319 288.566 o
1 17 12 1.656 -12.730 18.742 47.477 o
1 18 0 1424.630 1344.090 21.488 3.470 o
1 18 1 2339.330 2334.410 28.976 1.553 o
1 18 2 1792.190 1988.970 27.669 2.205 o
1 18 3 379.443 322.573 9.097 22.093 o
1 18 4 226.518 236.626 13.941 28.443 o
1 18 5 1089.340 1238.440 16.115 4.838 o
1 18 6 1609.860 1480.840 19.715 2.990 o
1 18 7 52.904 59.678 5.310 150.544 o
1 18 8 140.389 128.036 12.723 44.036 o
1 18 9 418.837 504.996 18.134 13.794 o
1 18 10 193.623 184.546 11.750 36.720 o
1 18 11 12.722 6.884 9.421 160.443 o
1 18 12 61.921 77.974 22.278 27.985 o
1 19 0 58.449 57.343 5.344 144.118 o
1 19 1 2274.930 2256.280 28.681 1.628 o
1 19 2 360.952 345.871 13.770 19.602 o
1 19 3 3645.100 3563.750 57.405 0.690 o
1 19 4 101.872 111.032 4.800 89.415 o
1 19 5 105.914 79.803 4.636 96.932 o
1 19 6 360.124 388.216 10.266 20.893 o
1 19 7 1470.260 1463.980 21.092 3.249 o
1 19 8 57.370 27.279 17.784 43.276 o
1 19 9 36.710 47.275 8.122 133.131 o
1 19 10 6.836 12.689 7.566 239.353 o
1 19 11 139.339 140.403 11.521 46.879 o
1 19 12 7.324 6.896 18.565 47.181 o
1 20 0 149.600 145.246 7.137 57.634 o
1 20 1 101.902 100.555 7.209 79.611 o
1 20 2 3709.530 3573.550 88.229 0.573 o
1 20 3 218.961 218.205 10.071 35.349 o
1 20 4 2390.010 2332.760 27.656 1.530 o
1 20 5 70.002 47.316 4.803 142.389 o
1 20 6 808.897 829.357 14.553 7.657 o
1 20 7 70.625 55.281 6.371 119.596 o
1 20 8 555.444 630.781 27.848 8.304 o
1 20 9 1.036 2.351 7.027 325.310 o
1 20 10 0.320 -5.250 7.642 285.328 o
1 20 11 27.108 32.538 17.681 47.155 o
1 21 0 1405.260 1461.230 106.706 1.055 o
1 21 1 823.026 776.817 20.977 7.014 o
1 21 2 65.620 71.300 10.255 80.597 o
1 21 3 1226.060 1298.410 55.035 2.496 o
1 21 4 794.010 710.134 22.810 7.189 o
1 21 5 91.224 60.074 5.477 108.604 o
1 21 6 147.176 131.876 7.674 58.218 o
1 21 7 412.579 462.992 18.451 14.188 o
1 21 8 123.011 93.107 12.195 51.255 o
1 21 9 3.075 0.629 7.337 293.470 o
1 21 10 44.344 39.133 8.897 117.413 o
1 21 11 75.128 70.194 23.162 25.821 o
1 22 0 322.310 315.054 18.254 18.268 o
1 22 1 1718.250 1726.220 44.645 2.084 o
1 22 2 381.320 379.564 18.055 15.974 o
1 22 3 542.087 466.418 43.761 5.620 o
1 22 4 506.377 495.065 13.785 13.755 o
1 22 5 1456.250 1443.730 39.938 2.691 o
1 22 6 82.222 86.262 6.728 96.284 o
1 22 7 0.173 3.335 6.680 361.155 o
1 22 8 125.235 164.649 14.669 38.294 o
1 22 9 577.942 578.878 19.360 10.404 o
1 22 10 12.870 7.524 8.137 203.502 o
1 23 0 2226.800 2312.960 53.384 1.370 o
1 23 1 154.746 161.426 14.749 35.403 o
1 23 2 267.552 313.311 27.406 13.353 o
1 23 3 37.126 38.197 8.616 128.976 o
1 23 4 1262.490 1209.870 39.437 3.212 o
1 23 5 95.734 78.671 8.955 76.287 o
1 23 6 633.566 705.881 20.331 8.905 o
1 23 7 7.611 3.147 7.151 279.251 o
1 23 8 133.736 122.657 14.031 41.418 o
1 23 9 66.275 60.557 9.898 85.637 o
1 23 10 234.643 245.329 18.581 22.144 o
1 24 0 18.495 19.005 9.674 138.584 o
1 24 1 1420.820 1514.460 42.008 2.619 o
1 24 2 675.999 728.997 41.197 5.114 o
1 24 3 35.892 19.096 11.493 94.753 o
1 24 4 34.320 27.338 8.683 136.544 o
1 24 5 613.724 693.254 24.499 8.311 o
1 24 6 211.860 172.503 11.745 35.518 o
1 24 7 23.013 36.809 10.384 112.805 o
1 24 8 22.707 10.086 10.331 125.224 o
1 24 9 160.683 169.609 16.404 31.199 o
1 25 0 724.165 788.341 29.689 6.383 o
1 25 1 47.611 51.568 11.846 78.411 o
1 25 2 131.474 121.116 20.687 26.507 o
1 25 3 827.986 746.297 48.623 3.905 o
1 25 4 57.755 47.386 13.614 62.725 o
1 25 5 59.050 25.638 8.877 111.282 o
1 25 6 150.364 167.471 11.915 42.304 o
1 25 7 588.665 566.476 23.622 9.297 o
1 25 8 0.987 3.612 10.720 142.448 o
1 25 9 0.897 5.658 19.626 43.091 o
1 26 0 30.765 32.119 11.435 94.712 o
1 26 1 13.919 19.803 14.852 68.727 o
1 26 2 1114.350 1079.790 52.160 2.902 o
1 26 3 122.606 117.169 18.742 30.866 o
1 26 4 139.048 129.427 17.681 31.583 o
1 26 5 1.850 1.205 7.844 262.258 o
1 26 6 349.847 345.295 15.776 18.686 o
1 26 7 41.999 30.310 8.788 125.182 o
1 26 8 297.027 350.979 32.622 10.232 o
1 27 0 320.791 327.456 20.816 16.359 o
1 27 1 103.490 93.357 20.510 29.040 o
1 27 2 48.317 86.284 21.218 30.884 o
1 27 3 1319.520 1361.170 94.771 1.284 o
1 27 4 35.148 33.594 13.791 69.368 o
1 27 5 8.569 -1.819 10.499 141.375 o
1 27 6 6.172 6.221 9.010 185.876 o
1 27 7 305.843 318.005 15.799 20.645 o
1 28 0 0.578 5.726 11.052 133.545 o
1 28 1 672.405 710.078 43.142 4.909 o
1 28 2 407.115 390.653 31.915 9.353 o
1 28 3 153.459 138.277 15.124 35.727 o
1 28 4 247.225 216.241 22.278 18.511 o
1 28 5 472.142 444.152 29.528 9.326 o
1 28 6 0.271 -6.859 8.753 217.938 o
1 29 0 576.140 577.567 27.693 8.386 o
1 29 1 30.059 67.896 20.864 33.577 o
1 29 2 17.617 9.564 13.084 86.818 o
1 29 3 42.164 63.397 12.490 72.897 o
1 29 4 329.860 266.586 19.353 17.938 o
1 29 5 60.138 53.574 15.559 50.831 o
1 29 6 322.883 343.483 23.516 14.458 o
1 30 0 8.295 -4.951 17.504 53.284 o
1 30 1 864.413 983.606 52.513 3.321 o
1 30 2 13.911 7.328 10.591 129.670 o
1 30 3 26.707 13.520 11.088 107.623 o
1 30 4 23.081 24.844 27.317 21.450 o
1 30 5 229.070 193.786 22.278 19.343 o
1 31 0 276.539 301.111 31.296 11.266 o
1 31 1 160.384 131.902 25.461 18.761 o
1 31 2 34.781 61.099 16.709 48.675 o
1 31 3 184.991 160.590 16.184 30.227 o
1 31 4 223.776 251.718 19.648 21.284 o
1 31 5 123.674 100.253 18.389 32.147 o
1 32 0 4.280 -12.023 18.742 47.139 o
1 32 1 9.280 16.267 19.449 42.395 o
1 32 2 291.323 227.922 18.539 20.414 o
1 32 3 6.899 -3.536 13.791 85.103 o
1 32 4 92.816 86.638 18.035 35.962 o
1 32 5 33.626 70.725 18.389 41.171 o
1 33 0 2.494 -10.609 18.565 48.269 o
1 33 1 133.059 138.974 27.229 17.491 o
1 33 2 2.440 18.742 13.968 81.118 o
1 33 3 223.339 208.992 22.986 18.603 o
1 33 4 34.532 9.725 14.852 64.624 o
2 0 0 12254.100 12503.000 121.791 0.078 o
2 0 2 17.209 12.491 3.625 466.086 o
2 0 4 4382.480 4269.460 96.540 0.437 o
2 0 6 2622.970 2643.400 41.397 1.211 o
2 0 8 1313.480 1227.430 39.429 3.106 o
2 0 10 609.930 610.709 27.229 8.099 o
2 0 12 0.064 -10.962 17.151 56.940 o
2 1 0 688.576 680.490 10.649 10.046 o
2 1 1 14712.800 14882.600 104.204 0.057 o
2 1 2 2068.260 2049.430 24.784 1.924 o
2 1 3 0.837 2.851 1.869 2955.260 o
2 1 4 1156.780 1041.530 12.624 5.113 o
2 1 5 6313.470 5975.440 74.053 0.276 o
2 1 6 1001.640 884.361 15.396 6.116 o
2 1 7 415.490 423.992 11.306 17.805 o
2 1 8 917.910 919.651 20.799 6.045 o
2 1 9 906.594 932.381 39.145 4.341 o
2 1 10 32.594 31.968 6.758 179.047 o
2 1 11 94.174 143.461 22.809 24.132 o
2 1 12 2.814 20.062 12.292 102.461 o
2 1 13 132.488 165.154 19.667 27.108 o
2 2 0 4602.630 4784.730 40.400 0.485 o
2 2 1 317.953 332.115 5.211 27.145 o
2 2 2 1830.880 1917.430 26.330 2.222 o
2 2 3 9411.040 9500.520 94.832 0.129 o
2 2 4 245.622 209.324 4.700 39.512 o
2 2 5 21.191 24.623 2.274 441.698 o
2 2 6 2185.000 2188.350 26.811 1.741 o
2 2 7 1423.850 1426.990 25.313 3.260 o
2 2 8 122.345 131.590 6.585 68.974 o
2 2 9 243.202 280.048 9.928 30.738 o
2 2 10 345.120 370.726 27.327 11.910 o
2 2 11 330.428 354.543 59.763 3.992 o
2 2 12 6.353 10.609 16.267 60.727 o
2 2 13 238.161 393.829 24.556 14.932 o
2 3 0 2784.320 2815.330 25.355 1.190 o
2 3 1 445.965 441.435 8.652 17.584 o
2 3 2 8389.220 8705.050 123.928 0.146 o
2 3 3 14.910 28.242 2.792 463.923 o
2 3 4 2238.700 2034.320 20.352 1.818 o
2 3 5 245.678 250.978 5.989 35.959 o
2 3 6 1975.650 1934.980 19.729 2.133 o
2 3 7 9.595 6.424 3.541 672.217 o
2 3 8 790.829 887.184 18.349 7.167 o
2 3 9 174.963 175.581 7.726 48.023 o
2 3 10 60.050 43.505 6.674 132.289 o
2 3 11 0.349 6.565 10.255 154.174 o
2 3 12 211.990 248.068 25.284 16.388 o
2 3 13 11.129 24.223 19.980 39.718 o
2 4 0 733.233 822.500 10.642 8.757 o
2 4 1 1789.760 1865.130 22.089 2.370 o
2 4 2 801.084 798.756 12.985 8.006 o
2 4 3 14708.800 14376.000 163.010 0.055 o
2 4 4 928.261 880.153 10.287 6.918 o
2 4 5 1.102 5.753 2.413 1736.340 o
2 4 6 544.130 521.326 7.740 14.207 o
2 4 7 2481.750 2356.880 27.195 1.466 o
2 4 8 341.613 318.533 9.367 23.836 o
2 4 9 387.490 449.247 11.461 18.220 o
2 4 10 339.863 312.264 18.625 17.548 o
2 4 11 263.138 278.773 59.409 4.185 o
2 4 12 0.025 3.713 15.206 71.891 o
2 4 13 10.939 18.035 17.858 49.523 o
2 5 0 2127.100 2047.030 16.569 1.945 o
2 5 1 7543.720 7779.320 63.992 0.197 o
2 5 2 5002.990 5204.950 49.941 0.411 o
2 5 3 244.662 267.141 7.471 33.813 o
2 5 4 3887.130 3822.670 31.610 0.682 o
2 5 5 3014.030 2851.790 24.590 1.086 o
2 5 6 1228.360 1203.960 13.644 4.483 o
2 5 7 63.165 52.132 4.442 152.798 o
2 5 8 966.669 1038.950 17.725 5.731 o
2 5 9 601.812 577.904 16.588 10.773 o
2 5 10 16.168 12.717 5.565 316.905 o
2 5 11 50.232 56.457 10.823 85.583 o
2 5 12 144.345 155.772 21.571 23.761 o
2 5 13 55.888 53.574 19.273 36.864 o
2 6 0 17690.400 18848.500 197.985 0.037 o
2 6 1 464.827 506.452 6.403 16.648 o
2 6 2 4496.880 4556.390 37.285 0.516 o
2 6 3 1314.730 1312.750 18.787 3.873 o
2 6 4 4215.660 4125.010 32.823 0.594 o
2 6 5 61.701 55.279 3.424 164.657 o
2 6 6 1372.110 1332.050 14.627 3.812 o
2 6 7 61.507 46.365 4.418 160.101 o
2 6 8 535.701 502.266 10.013 14.114 o
2 6 9 58.578 63.736 5.702 135.423 o
2 6 10 358.615 397.590 30.412 10.301 o
2 6 11 12.052 6.964 9.389 162.338 o
2 6 12 0.053 -1.238 14.852 75.927 o
2 7 0 0.606 6.726 1.908 2246.200 o
2 7 1 6579.490 6371.540 53.989 0.264 o
2 7 2 863.575 898.678 16.174 6.852 o
2 7 3 84.396 111.131 5.543 95.434 o
2 7 4 189.131 191.320 5.063 48.927 o
2 7 5 5065.950 5118.960 40.018 0.418 o
2 7 6 62.336 59.669 3.359 160.632 o
2 7 7 1082.120 1101.710 15.551 5.175 o
2 7 8 109.466 99.171 5.536 85.103 o
2 7 9 1019.030 1044.380 31.177 4.499 o
2 7 10 12.805 1.623 6.168 327.151 o
2 7 11 122.659 155.507 18.212 30.709 o
2 7 12 11.146 -5.835 14.499 75.812 o
2 8 0 4010.730 3938.980 72.002 0.557 o
2 8 1 1539.640 1656.440 15.084 3.045 o
2 8 2 2718.420 2653.310 31.490 1.229 o
2 8 3 4206.610 4171.720 40.886 0.579 o
2 8 4 3286.870 3232.900 28.842 0.910 o
2 8 5 817.259 813.694 10.576 8.019 o
2 8 6 4862.090 4772.550 35.581 0.461 o
2 8 7 967.429 909.873 16.638 6.147 o
2 8 8 166.347 158.456 5.997 55.115 o
2 8 9 1.613 0.434 3.839 1015.440 o
2 8 10 239.224 274.562 11.440 29.487 o
2 8 11 191.639 157.757 11.576 38.705 o
2 8 12 21.997 10.255 14.499 70.794 o
2 9 0 2465.850 2569.080 22.621 1.439 o
2 9 1 1350.390 1341.950 14.440 3.863 o
2 9 2 7414.020 7522.660 54.166 0.208 o
2 9 3 109.631 107.863 3.250 92.112 o
2 9 4 629.202 613.078 8.433 11.649 o
2 9 5 75.812 94.737 3.214 122.567 o
2 9 6 2933.560 2765.360 22.791 1.144 o
2 9 7 15.957 13.543 3.440 493.824 o
2 9 8 808.296 803.880 13.001 7.921 o
2 9 9 65.597 72.950 4.884 131.501 o
2 9 10 13.209 -0.192 6.035 340.564 o
2 9 11 80.143 72.144 8.826 85.182 o
2 9 12 82.073 81.864 17.858 37.640 o
2 10 0 437.091 507.687 7.902 17.073 o
2 10 1 916.553 967.338 8.404 6.798 o
2 10 2 54.918 61.142 2.649 180.178 o
2 10 3 9516.880 9232.240 105.323 0.127 o
2 10 4 1840.950 1783.670 18.645 2.404 o
2 10 5 283.476 277.874 5.237 31.705 o
2 10 6 6.702 14.764 2.542 834.090 o
2 10 7 2258.040 2209.710 28.005 1.664 o
2 10 8 38.257 39.854 6.247 173.282 o
2 10 9 136.500 152.039 11.714 45.851 o
2 10 10 23.378 27.643 6.430 215.347 o
2 10 11 289.727 283.808 36.777 8.975 o
2 10 12 23.796 21.218 15.736 59.557 o
2 11 0 1125.560 1043.270 11.923 5.275 o
2 11 1 2239.880 2212.540 20.649 1.739 o
2 11 2 2804.500 2799.330 23.107 1.194 o
2 11 3 43.988 49.534 2.622 222.195 o
2 11 4 3320.300 3276.020 25.320 0.902 o
2 11 5 1910.940 1776.650 21.792 2.277 o
2 11 6 323.521 312.782 5.877 27.087 o
2 11 7 2.266 1.597 3.486 1109.330 o
2 11 8 1351.120 1387.400 18.719 3.680 o
2 11 9 307.697 268.417 10.541 26.184 o
2 11 10 7.586 5.880 5.777 384.793 o
2 11 11 6.758 7.878 10.069 149.953 o
2 11 12 212.027 217.566 17.593 24.910 o
2 12 0 8682.030 8718.480 88.352 0.150 o
2 12 1 0.339 5.094 2.412 1949.460 o
2 12 2 1159.670 1139.410 13.465 4.866 o
2 12 3 1085.770 1126.110 11.028 5.302 o
2 12 4 1597.360 1538.960 15.089 3.046 o
2 12 5 452.419 434.834 8.625 17.495 o
2 12 6 97.750 85.578 3.754 104.996 o
2 12 7 461.031 498.021 10.061 15.914 o
2 12 8 218.291 182.903 6.916 42.253 o
2 12 9 132.487 149.969 8.559 56.706 o
2 12 10 469.881 483.912 14.674 14.320 o
2 12 11 0.233 2.475 9.810 171.551 o
2 12 12 1.157 4.008 10.723 141.934 o
2 13 0 46.431 47.325 4.606 183.856 o
2 13 1 9225.020 9211.850 70.745 0.139 o
2 13 2 7.282 9.812 3.110 781.002 o
2 13 3 34.232 36.721 2.558 286.353 o
2 13 4 248.770 266.992 5.387 35.331 o
2 13 5 5426.610 5308.420 39.739 0.378 o
2 13 6 122.374 110.357 4.160 81.881 o
2 13 7 6.752 17.602 4.259 504.597 o
2 13 8 18.256 11.064 3.954 432.099 o
2 13 9 822.834 803.424 28.091 6.054 o
2 13 10 3.266 2.231 6.409 369.886 o
2 13 11 90.947 111.538 13.441 50.309 o
2 13 12 5.566 22.102 17.504 51.946 o
2 14 0 4063.050 3942.320 34.155 0.633 o
2 14 1 296.549 295.803 7.854 28.201 o
2 14 2 1116.010 1124.100 14.486 5.033 o
2 14 3 638.728 614.313 8.205 11.520 o
2 14 4 1495.870 1438.930 16.876 3.325 o
2 14 5 84.058 73.491 3.327 124.255 o
2 14 6 1762.770 1802.880 23.915 2.417 o
2 14 7 557.199 478.579 17.507 11.876 o
2 14 8 57.374 54.918 6.224 135.086 o
2 14 9 26.407 29.618 6.134 214.516 o
2 14 10 718.907 801.157 27.697 6.667 o
2 14 11 50.086 28.574 10.661 94.298 o
2 14 12 0.866 10.786 18.742 46.887 o
2 15 0 364.622 348.500 6.465 23.447 o
2 15 1 2207.860 2243.620 23.550 1.729 o
2 15 2 2061.090 2160.880 21.901 1.908 o
2 15 3 6.380 6.199 3.026 915.365 o
2 15 4 424.191 447.936 7.022 18.690 o
2 15 5 871.924 941.672 12.533 6.947 o
2 15 6 467.668 430.168 10.267 16.582 o
2 15 7 159.932 188.323 10.748 42.523 o
2 15 8 436.720 407.302 12.816 16.779 o
2 15 9 43.541 63.133 7.343 129.839 o
2 15 10 210.540 170.266 39.429 8.886 o
2 15 11 23.989 37.424 11.640 94.405 o
2 15 12 94.051 93.357 23.693 23.694 o
2 16 0 87.422 92.502 3.990 108.934 o
2 16 1 328.437 336.107 6.808 25.582 o
2 16 2 34.592 38.254 3.781 248.564 o
2 16 3 3532.080 3513.640 38.199 0.779 o
2 16 4 12.122 13.967 3.199 582.424 o
2 16 5 68.563 70.139 3.530 142.360 o
2 16 6 114.408 134.964 6.097 73.008 o
2 16 7 1726.200 1656.140 56.163 1.841 o
2 16 8 147.901 131.264 9.152 53.502 o
2 16 9 70.858 83.701 7.983 93.741 o
2 16 10 0.771 5.111 9.798 168.883 o
2 16 11 151.730 137.642 23.162 21.638 o
2 16 12 7.256 6.542 18.035 49.945 o
2 17 0 687.593 709.066 9.803 9.985 o
2 17 1 273.678 277.841 7.739 30.623 o
2 17 2 3460.340 3405.130 43.530 0.793 o
2 17 3 249.096 271.236 7.185 33.497 o
2 17 4 2119.400 2135.060 20.433 1.879 o
2 17 5 111.348 82.817 4.066 95.382 o
2 17 6 391.492 382.577 9.168 20.300 o
2 17 7 46.488 40.628 8.664 118.338 o
2 17 8 972.522 1083.350 35.929 4.218 o
2 17 9 2.573 9.074 5.963 395.028 o
2 17 10 0.792 -9.050 9.927 168.703 o
2 17 11 0.552 26.699 19.096 44.308 o
2 17 12 72.959 70.902 22.102 27.976 o
2 18 0 1506.070 1585.790 20.188 3.077 o
2 18 1 274.883 250.401 8.229 31.172 o
2 18 2 257.349 275.359 7.773 32.024 o
2 18 3 1146.350 1297.670 21.467 4.285 o
2 18 4 1932.040 1763.880 30.153 2.134 o
2 18 5 82.618 94.628 4.722 107.358 o
2 18 6 253.512 214.455 8.115 34.774 o
2 18 7 572.143 616.127 28.646 8.053 o
2 18 8 343.321 283.992 22.512 15.247 o
2 18 9 33.486 26.069 10.172 112.216 o
2 18 10 130.291 116.790 14.093 42.010 o
2 18 11 6.882 15.383 20.333 39.183 o
2 19 0 189.210 185.784 5.935 48.058 o
2 19 1 3121.250 3098.210 34.471 0.966 o
2 19 2 103.334 113.786 5.776 83.393 o
2 19 3 55.235 50.093 4.160 171.281 o
2 19 4 374.836 414.615 10.483 19.707 o
2 19 5 1901.550 1913.190 29.311 2.100 o
2 19 6 57.668 43.933 6.550 136.494 o
2 19 7 53.250 62.090 10.434 86.542 o
2 19 8 25.245 43.840 8.421 142.737 o
2 19 9 264.094 263.937 26.433 14.406 o
2 19 10 25.215 8.982 10.850 114.199 o
2 19 11 16.436 35.186 21.218 34.651 o
2 20 0 2949.480 2940.560 43.698 1.008 o
2 20 1 217.885 222.045 6.061 40.826 o
2 20 2 2163.640 2049.390 32.529 1.752 o
2 20 3 77.383 55.842 5.100 125.947 o
2 20 4 1071.960 1062.500 21.122 4.984 o
2 20 5 89.891 80.897 6.884 92.261 o
2 20 6 827.387 905.806 35.448 4.981 o
2 20 7 4.305 -0.837 9.129 191.485 o
2 20 8 5.155 -3.227 6.428 361.956 o
2 20 9 27.748 28.396 11.414 97.689 o
2 20 10 316.131 366.532 36.070 8.753 o
2 21 0 75.939 67.715 8.338 92.371 o
2 21 1 1085.600 1115.740 16.155 5.100 o
2 21 2 730.053 707.259 14.840 8.868 o
2 21 3 47.267 14.499 12.200 82.624 o
2 21 4 172.805 151.788 9.129 47.169 o
2 21 5 552.160 633.022 33.790 7.040 o
2 21 6 168.374 125.963 10.689 45.903 o
2 21 7 8.055 12.865 17.239 53.831 o
2 21 8 60.519 47.425 8.451 107.348 o
2 21 9 129.528 139.283 14.928 38.491 o
2 21 10 42.022 23.693 20.510 35.348 o
2 22 0 321.643 304.158 7.813 26.345 o
2 22 1 447.754 428.508 14.190 15.636 o
2 22 2 427.920 413.356 10.991 17.718 o
2 22 3 1538.330 1512.450 55.165 2.077 o
2 22 4 119.462 120.771 10.207 56.957 o
2 22 5 0.144 4.840 7.136 313.781 o
2 22 6 195.737 245.225 13.225 31.331 o
2 22 7 869.660 903.080 24.162 6.012 o
2 22 8 18.764 13.963 10.790 118.399 o
2 22 9 24.739 36.181 12.102 88.852 o
2 23 0 198.774 202.797 9.084 39.996 o
2 23 1 37.442 26.669 4.971 223.897 o
2 23 2 1323.150 1186.450 27.645 3.666 o
2 23 3 127.991 105.203 17.504 33.694 o
2 23 4 776.130 816.165 39.075 4.906 o
2 23 5 11.255 -0.027 7.711 238.173 o
2 23 6 207.612 197.323 12.715 33.118 o
2 23 7 76.649 81.309 10.290 74.180 o
2 23 8 465.237 524.710 25.019 10.420 o
2 24 0 469.275 458.006 25.782 10.496 o
2 24 1 32.212 26.473 9.681 121.005 o
2 24 2 74.106 47.165 16.267 46.090 o
2 24 3 627.724 619.904 35.186 6.422 o
2 24 4 198.373 164.259 20.333 23.113 o
2 24 5 30.366 37.821 8.897 131.142 o
2 24 6 35.067 12.402 8.380 151.270 o
2 24 7 205.651 203.868 13.962 30.977 o
2 24 8 100.626 61.126 13.410 53.189 o
2 25 0 93.423 119.905 14.322 45.908 o
2 25 1 703.492 630.649 25.711 7.633 o
2 25 2 74.278 67.484 11.925 66.444 o
2 25 3 92.418 52.793 11.979 63.194 o
2 25 4 158.549 138.090 20.333 25.397 o
2 25 5 756.042 669.735 28.318 6.738 o
2 25 6 0.176 -0.097 8.889 211.575 o
2 25 7 1.425 -4.861 8.990 203.843 o
2 26 0 765.862 704.956 27.062 6.767 o
2 26 1 107.184 111.364 22.013 25.573 o
2 26 2 155.766 128.520 18.212 29.454 o
2 26 3 5.976 6.284 11.493 118.914 o
2 26 4 431.762 374.311 29.528 10.025 o
2 26 5 49.758 27.153 12.258 78.584 o
2 26 6 466.401 554.162 20.970 11.559 o
2 26 7 55.740 91.172 13.065 61.267 o
2 27 0 44.733 54.266 12.041 77.297 o
2 27 1 1230.980 1235.350 37.808 3.328 o
2 27 2 47.774 35.820 17.504 45.063 o
2 27 3 2.125 6.818 11.419 123.431 o
2 27 4 0.357 -8.133 14.675 77.662 o
2 27 5 393.694 357.521 35.097 8.562 o
2 27 6 272.212 217.476 19.457 20.383 o
2 27 7 7.767 5.128 14.852 72.660 o
2 28 0 257.673 265.147 18.978 20.524 o
2 28 1 115.428 100.421 16.267 38.224 o
2 28 2 188.025 193.053 17.617 26.727 o
2 28 3 472.866 441.993 38.899 6.875 o
2 28 4 1.358 -4.243 15.913 65.817 o
2 28 5 75.026 67.542 20.157 32.400 o
2 28 6 79.551 62.945 18.565 36.591 o
2 28 7 133.298 62.945 18.035 33.644 o
2 29 0 17.774 20.230 11.343 107.494 o
2 29 1 58.701 50.291 13.014 66.060 o
2 29 2 336.671 291.747 26.875 12.787 o
2 29 3 67.942 67.719 14.308 54.394 o
2 29 4 345.834 331.250 74.173 2.732 o
2 29 5 81.154 91.589 20.510 30.396 o
2 29 6 30.906 21.394 16.974 50.924 o
2 30 0 22.733 22.337 11.577 100.200 o
2 30 1 23.366 9.995 10.961 113.356 o
2 30 2 16.593 12.682 11.419 109.720 o
2 30 3 248.652 232.488 20.178 20.216 o
2 30 4 0.485 21.571 16.267 60.809 o
2 30 5 17.925 8.664 17.858 49.194 o
2 30 6 3.202 -5.835 16.620 59.977 o
2 31 0 34.212 28.243 11.895 88.574 o
2 31 1 176.282 184.005 18.049 26.941 o
2 31 2 217.353 211.291 24.930 16.966 o
2 31 3 91.444 47.562 18.035 37.820 o
2 32 0 229.262 234.276 29.881 12.990 o
3 0 0 325.857 256.719 7.759 27.616 o
3 0 2 3279.980 3181.240 32.208 0.910 o
3 0 4 2684.560 2703.490 44.252 1.151 o
3 0 6 1142.590 1015.640 24.553 4.595 o
3 0 8 1085.640 1073.710 49.684 3.082 o
3 0 10 0.030 5.020 8.509 223.834 o
3 0 12 17.753 23.339 17.858 48.193 o
3 1 0 1211.850 1183.000 13.037 4.600 o
3 1 1 55.850 75.228 3.507 157.029 o
3 1 2 836.920 779.345 10.995 7.963 o
3 1 3 4899.580 4768.910 45.047 0.448 o
3 1 4 891.714 817.781 13.033 7.209 o
3 1 5 417.266 418.038 15.088 16.128 o
3 1 6 967.357 890.586 20.427 5.895 o
3 1 7 1225.280 1168.390 22.683 4.183 o
3 1 8 68.524 44.105 4.582 149.151 o
3 1 9 134.446 176.415 8.835 52.633 o
3 1 10 36.004 29.068 6.324 186.416 o
3 1 11 213.955 277.782 42.258 7.646 o
3 1 12 26.381 33.273 12.793 81.350 o
3 2 0 1221.820 1147.040 16.475 4.503 o
3 2 1 5971.280 5939.460 54.811 0.308 o
3 2 2 288.417 279.645 6.218 30.577 o
3 2 3 4.566 8.128 2.835 1023.840 o
3 2 4 1731.590 1738.770 23.326 2.514 o
3 2 5 1859.480 1798.550 22.405 2.319 o
3 2 6 145.645 126.258 6.927 61.660 o
3 2 7 322.924 356.455 10.583 23.028 o
3 2 8 510.710 573.534 13.611 12.974 o
3 2 9 372.702 384.377 11.883 19.611 o
3 2 10 8.373 17.965 6.174 304.915 o
3 2 11 319.706 450.697 21.284 14.757 o
3 2 12 31.979 37.207 12.742 78.923 o
3 3 0 4447.560 4450.470 44.721 0.519 o
3 3 1 42.998 59.917 4.338 182.709 o
3 3 2 1995.070 1893.880 21.237 2.118 o
3 3 3 145.061 145.056 4.636 65.521 o
3 3 4 1702.480 1668.160 27.112 2.533 o
3 3 5 35.872 32.869 4.578 230.676 o
3 3 6 868.381 852.431 34.419 5.039 o
3 3 7 179.116 165.311 7.012 49.695 o
3 3 8 84.344 58.501 7.325 98.785 o
3 3 9 0.073 2.264 5.553 523.617 o
3 3 10 421.941 478.314 20.638 12.942 o
3 3 11 9.535 9.807 11.177 120.604 o
3 3 12 48.315 84.087 14.266 56.863 o
3 4 0 181.796 168.163 6.711 49.552 o
3 4 1 8647.800 8711.640 105.634 0.147 o
3 4 2 685.102 670.454 10.107 10.222 o
3 4 3 9.627 10.449 3.532 624.027 o
3 4 4 404.433 380.811 10.386 19.295 o
3 4 5 3009.040 2674.010 93.799 0.726 o
3 4 6 315.393 276.262 9.400 26.433 o
3 4 7 524.883 579.249 12.707 12.902 o
3 4 8 427.586 399.255 13.318 16.922 o
3 4 9 434.181 425.105 14.210 16.007 o
3 4 10 0.053 0.608 8.564 227.378 o
3 4 11 27.072 36.855 11.764 91.463 o
3 4 12 6.308 -2.182 12.257 107.180 o
3 5 0 2830.580 2862.460 31.191 1.133 o
3 5 1 88.816 109.894 6.766 85.988 o
3 5 2 3064.030 3023.790 36.922 0.987 o
3 5 3 3092.580 2979.490 33.697 0.999 o
3 5 4 1284.010 1261.870 33.948 3.382 o
3 5 5 106.926 111.508 6.817 77.281 o
3 5 6 1042.810 1070.050 20.327 5.138 o
3 5 7 867.780 841.341 16.070 7.028 o
3 5 8 19.521 16.788 6.201 255.116 o
3 5 9 91.725 88.593 8.310 79.961 o
3 5 10 199.648 223.133 14.671 29.609 o
3 5 11 123.087 87.699 16.797 36.635 o
3 5 12 0.757 -5.431 11.882 118.055 o
3 6 0 2780.190 2701.670 27.147 1.210 o
3 6 1 639.627 603.652 15.703 10.311 o
3 6 2 2710.220 2741.820 31.274 1.213 o
3 6 3 93.377 99.125 5.612 93.267 o
3 6 4 1112.330 1085.640 25.150 4.542 o
3 6 5 64.352 55.055 5.968 130.546 o
3 6 6 627.597 598.723 14.690 10.700 o
3 6 7 42.600 52.963 6.934 143.257 o
3 6 8 523.761 574.416 16.251 12.012 o
3 6 9 26.653 28.537 7.643 169.921 o
3 6 10 0.082 -4.897 9.374 190.460 o
3 6 11 53.400 56.658 18.565 39.262 o
3 6 12 130.047 148.876 21.218 25.047 o
3 7 0 566.326 608.411 23.713 9.288 o
3 7 1 109.593 137.512 9.111 61.770 o
3 7 2 74.553 77.183 4.987 119.392 o
3 7 3 4482.240 4447.190 111.244 0.391 o
3 7 4 35.651 42.770 8.133 136.605 o
3 7 5 1282.730 1315.220 23.922 3.764 o
3 7 6 105.591 90.625 7.191 80.258 o
3 7 7 1229.270 1220.200 30.169 3.733 o
3 7 8 30.770 8.503 7.364 189.304 o
3 7 9 202.423 246.788 14.118 29.449 o
3 7 10 22.181 14.412 9.238 146.931 o
3 7 11 129.525 125.239 13.600 43.049 o
3 7 12 3.030 -7.603 15.736 66.865 o
3 8 0 1529.660 1438.240 36.462 2.704 o
3 8 1 2762.400 2772.950 29.794 1.189 o
3 8 2 2507.110 2499.690 27.142 1.408 o
3 8 3 471.895 453.183 11.512 15.742 o
3 8 4 3844.390 3833.170 93.180 0.524 o
3 8 5 971.948 949.161 19.817 5.774 o
3 8 6 220.398 204.841 9.520 36.716 o
3 8 7 8.198 8.307 7.094 269.048 o
3 8 8 406.797 456.149 14.558 16.153 o
3 8 9 301.915 269.031 11.807 25.372 o
3 8 10 33.947 31.496 9.892 114.066 o
3 8 11 16.965 22.462 13.968 75.259 o
3 9 0 4320.960 4224.040 40.816 0.558 o
3 9 1 27.727 31.992 3.860 289.418 o
3 9 2 832.704 765.834 10.512 8.099 o
3 9 3 80.909 99.920 6.400 95.328 o
3 9 4 2255.220 2165.830 41.969 1.532 o
3 9 5 42.008 45.736 6.495 156.998 o
3 9 6 1039.460 1032.170 21.608 5.146 o
3 9 7 117.232 128.069 10.647 54.941 o
3 9 8 29.134 21.634 6.521 204.997 o
3 9 9 134.500 164.870 13.297 40.838 o
3 9 10 168.073 168.467 31.738 13.052 o
3 9 11 0.467 -0.075 9.681 177.903 o
3 10 0 0.386 4.080 2.780 1665.060 o
3 10 1 6152.460 6030.230 83.593 0.276 o
3 10 2 918.242 893.066 11.726 6.852 o
3 10 3 179.569 186.822 8.600 44.570 o
3 10 4 0.028 6.256 6.378 383.213 o
3 10 5 2445.810 2398.170 37.910 1.390 o
3 10 6 3.195 12.609 6.145 357.008 o
3 10 7 181.072 216.870 13.254 33.611 o
3 10 8 13.955 28.959 6.868 223.703 o
3 10 9 444.273 451.093 19.325 13.332 o
3 10 10 36.622 26.346 13.703 70.718 o
3 10 11 106.665 156.626 14.673 40.744 o
3 11 0 1737.680 1719.780 33.347 2.321 o
3 11 1 67.967 72.843 3.582 140.949 o
3 11 2 2186.960 2172.330 29.323 1.720 o
3 11 3 1815.090 1753.010 30.607 2.264 o
3 11 4 371.330 354.180 19.273 15.822 o
3 11 5 4.321 14.609 5.972 357.274 o
3 11 6 1537.160 1654.390 38.165 2.493 o
3 11 7 285.478 252.905 14.499 24.055 o
3 11 8 8.749 2.257 8.173 219.473 o
3 11 9 8.093 7.700 11.935 108.797 o
3 11 10 333.714 426.771 81.953 2.263 o
3 11 11 60.819 66.655 12.398 67.332 o
3 12 0 888.837 859.990 15.284 6.892 o
3 12 1 767.590 772.364 12.159 8.512 o
3 12 2 971.461 958.388 17.501 5.929 o
3 12 3 217.913 214.391 8.536 37.945 o
3 12 4 156.091 144.884 10.979 45.543 o
3 12 5 580.051 612.888 41.020 5.670 o
3 12 6 280.183 241.313 9.794 29.563 o
3 12 7 169.792 219.200 13.850 33.388 o
3 12 8 682.756 688.162 43.319 4.889 o
3 12 9 0.494 4.310 8.961 202.202 o
3 12 10 1.940 8.685 9.601 170.553 o
3 12 11 65.769 60.719 12.289 67.492 o
3 13 0 0.581 4.511 4.218 816.594 o
3 13 1 31.107 34.708 3.261 286.845 o
3 13 2 197.742 197.607 6.257 45.173 o
3 13 3 4677.500 4650.170 54.662 0.466 o
3 13 4 80.633 69.681 6.745 102.485 o
3 13 5 3.258 12.500 6.373 336.460 o
3 13 6 12.135 7.274 5.570 361.840 o
3 13 7 1062.200 1031.860 29.056 4.537 o
3 13 8 6.897 5.476 8.616 200.564 o
3 13 9 147.738 199.401 24.930 18.785 o
3 13 10 9.822 15.314 9.927 145.069 o
3 13 11 78.784 77.371 14.322 51.507 o
3 14 0 680.944 656.494 10.782 10.276 o
3 14 1 485.503 479.147 8.763 15.891 o
3 14 2 1269.140 1216.800 26.093 3.833 o
3 14 3 96.986 76.930 7.111 87.986 o
3 14 4 1889.400 1936.450 34.392 2.019 o
3 14 5 685.964 607.619 20.922 8.761 o
3 14 6 52.189 39.290 9.048 109.081 o
3 14 7 8.537 7.164 8.797 188.016 o
3 14 8 1017.450 1100.740 43.584 3.549 o
3 14 9 77.535 43.841 11.002 75.529 o
3 14 10 0.693 10.271 9.777 165.542 o
3 14 11 0.027 9.371 17.328 54.966 o
3 15 0 1322.690 1327.100 17.259 3.881 o
3 15 1 6.673 8.429 2.788 916.253 o
3 15 2 301.304 309.589 11.334 24.723 o
3 15 3 574.341 636.596 14.329 11.253 o
3 15 4 336.145 307.606 12.757 21.999 o
3 15 5 102.038 132.916 11.640 53.623 o
3 15 6 513.292 472.605 20.245 11.713 o
3 15 7 54.952 65.664 13.438 62.288 o
3 15 8 288.059 257.860 16.087 22.274 o
3 15 9 49.344 47.566 14.233 60.777 o
3 15 10 194.445 170.923 15.160 30.999 o
3 15 11 3.728 8.133 17.681 52.329 o
3 16 0 53.043 57.590 3.927 171.729 o
3 16 1 2621.430 2596.820 27.414 1.315 o
3 16 2 16.300 18.905 4.172 394.407 o
3 16 3 36.548 31.227 3.839 252.841 o
3 16 4 172.037 191.771 10.901 40.424 o
3 16 5 1734.390 1715.150 54.016 1.861 o
3 16 6 169.460 155.227 13.155 37.827 o
3 16 7 106.814 135.234 13.037 47.366 o
3 16 8 2.284 11.822 9.464 171.863 o
3 16 9 198.711 143.540 14.350 33.192 o
3 16 10 8.653 8.651 10.565 134.932 o
3 17 0 2171.020 2136.470 24.236 1.798 o
3 17 1 103.296 106.869 5.006 88.809 o
3 17 2 1569.950 1591.160 28.521 2.755 o
3 17 3 147.251 114.002 9.990 52.654 o
3 17 4 375.055 366.389 17.989 16.323 o
3 17 5 47.454 38.167 8.097 127.116 o
3 17 6 1191.880 1348.410 35.258 3.420 o
3 17 7 0.685 14.661 9.601 167.692 o
3 17 8 8.226 2.580 9.856 157.565 o
3 17 9 0.205 0.975 10.562 149.284 o
3 17 10 146.855 126.951 24.754 19.984 o
3 18 0 151.002 159.093 6.296 57.891 o
3 18 1 848.183 870.754 12.523 7.377 o
3 18 2 1381.030 1290.240 54.293 2.363 o
3 18 3 89.086 90.428 6.023 95.823 o
3 18 4 305.712 256.197 9.776 27.342 o
3 18 5 503.906 571.955 18.371 11.717 o
3 18 6 360.363 309.470 40.844 7.269 o
3 18 7 55.458 56.542 11.329 78.853 o
3 18 8 173.131 158.489 15.471 32.486 o
3 18 9 20.849 26.597 11.216 105.238 o
3 19 0 63.649 79.290 5.296 126.050 o
3 19 1 16.410 15.258 5.423 317.346 o
3 19 2 253.527 232.297 16.410 24.026 o
3 19 3 1657.420 1528.500 26.122 2.725 o
3 19 4 38.728 44.207 8.476 126.712 o
3 19 5 48.819 54.571 8.830 108.701 o
3 19 6 49.698 58.583 11.162 82.226 o
3 19 7 366.530 356.378 45.618 6.064 o
3 19 8 47.645 41.550 11.709 81.611 o
3 19 9 38.213 38.722 14.675 61.499 o
3 20 0 1186.290 1198.680 21.879 4.296 o
3 20 1 57.521 43.469 7.198 127.651 o
3 20 2 837.328 730.848 26.082 6.420 o
3 20 3 69.758 69.944 7.307 104.846 o
3 20 4 797.092 858.870 39.429 4.736 o
3 20 5 9.093 -0.319 7.563 253.951 o
3 20 6 18.052 -7.656 10.619 128.610 o
3 20 7 19.276 13.060 10.850 117.285 o
3 20 8 364.911 359.507 20.536 15.184 o
3 21 0 448.653 454.742 16.618 14.322 o
3 21 1 8.802 23.027 6.859 250.944 o
3 21 2 148.059 132.590 9.475 52.334 o
3 21 3 547.226 616.544 36.070 6.664 o
3 21 4 157.792 150.587 15.100 34.842 o
3 21 5 17.092 23.582 8.460 167.949 o
3 21 6 57.463 42.886 11.768 77.006 o
3 21 7 160.991 182.968 16.330 30.846 o
3 21 8 62.784 32.887 14.852 55.843 o
3 22 0 207.728 214.675 16.662 26.458 o
3 22 1 1071.140 1075.310 34.349 4.076 o
3 22 2 86.292 78.115 12.687 57.834 o
3 22 3 0.139 -8.310 14.852 75.898 o
3 22 4 194.432 215.086 18.117 25.121 o
3 22 5 859.938 859.288 115.547 1.082 o
3 22 6 17.194 20.172 10.989 113.693 o
3 22 7 42.868 47.163 21.836 30.854 o
3 22 8 45.833 61.708 16.267 49.076 o
3 23 0 907.548 880.834 49.596 3.544 o
3 23 1 102.611 87.321 13.115 51.729 o
3 23 2 634.904 645.894 27.451 7.741 o
3 23 3 6.275 8.664 15.383 67.860 o
3 23 4 219.238 215.939 35.451 10.289 o
3 23 5 56.192 41.020 12.989 68.240 o
3 23 6 595.900 583.533 25.574 8.689 o
3 23 7 24.123 6.012 14.499 70.793 o
3 24 0 94.092 88.414 13.621 50.996 o
3 24 1 463.888 465.365 31.384 8.756 o
3 24 2 139.798 101.973 14.555 40.420 o
3 24 3 25.590 47.916 17.151 48.838 o
3 24 4 41.364 47.562 17.858 43.660 o
3 24 5 173.157 191.189 18.308 26.515 o
3 24 6 128.250 114.751 21.218 25.901 o
3 25 0 52.391 48.379 12.251 73.892 o
3 25 1 94.162 87.131 14.421 47.823 o
3 25 2 106.512 113.271 15.502 40.745 o
3 25 3 604.147 534.732 26.531 8.604 o
3 25 4 0.092 -3.183 15.383 70.771 o
3 25 5 1.979 7.780 16.620 59.430 o
3 25 6 233.562 303.056 29.881 12.484 o
3 26 0 120.241 112.912 14.940 40.908 o
3 26 1 10.470 18.282 12.001 102.751 o
3 26 2 368.990 280.537 26.080 12.810 o
3 26 3 38.249 13.297 12.235 86.416 o
3 26 4 504.422 524.071 37.838 6.750 o
3 26 5 52.119 114.574 22.809 26.522 o
3 27 0 39.352 20.864 11.979 86.976 o
3 27 1 0.001 2.408 19.273 44.962 o
3 27 2 1.632 -3.429 12.097 113.273 o
3 27 3 324.137 291.160 25.284 13.865 o
3 27 4 259.242 218.717 27.759 13.994 o
3 28 0 107.457 96.198 15.089 42.961 o
3 28 1 324.061 310.449 22.304 15.505 o
3 29 0 224.779 207.401 28.820 13.918 o
4 0 0 1748.170 1685.160 59.252 1.747 o
4 0 2 1777.370 1775.690 31.474 2.279 o
4 0 4 661.455 642.273 48.712 4.371 o
4 0 6 1151.420 1216.570 51.195 2.807 o
4 0 8 0.912 -0.598 8.454 231.554 o
4 1 0 356.076 344.809 8.768 22.834 o
4 1 1 2492.380 2452.080 31.360 1.401 o
4 1 2 495.520 469.063 14.404 14.036 o
4 1 3 258.817 266.644 10.527 29.415 o
4 1 4 676.793 657.208 19.422 8.895 o
4 1 5 1056.990 1075.220 33.633 4.164 o
4 1 6 68.950 61.209 6.132 120.992 o
4 1 7 167.899 209.712 8.858 44.076 o
4 1 8 84.082 75.963 9.309 79.099 o
4 1 9 226.737 234.048 22.013 19.085 o
4 2 0 239.439 264.123 8.292 33.558 o
4 2 1 0.036 5.166 3.958 921.519 o
4 2 2 821.934 819.191 15.836 7.462 o
4 2 3 1496.550 1486.060 44.311 2.464 o
4 2 4 117.042 119.862 6.420 73.528 o
4 2 5 264.707 278.299 13.832 25.143 o
4 2 6 450.383 507.318 11.347 15.658 o
4 2 7 310.507 291.325 9.890 25.890 o
4 2 8 7.609 19.784 7.272 239.878 o
4 2 9 296.506 331.799 18.801 18.373 o
4 3 0 1115.740 1014.620 22.612 4.814 o
4 3 1 54.895 49.784 5.005 159.495 o
4 3 2 907.380 893.336 19.242 6.318 o
4 3 3 56.240 49.410 5.711 147.193 o
4 3 4 684.261 733.844 21.841 8.063 o
4 3 5 98.117 91.543 8.888 73.419 o
4 3 6 90.747 73.545 5.836 101.437 o
4 3 7 0.646 -1.901 5.443 553.840 o
4 3 8 546.066 555.276 16.949 11.624 o
4 3 9 2.945 5.023 10.064 157.247 o
4 4 0 295.948 308.176 18.551 18.939 o
4 4 1 13.588 12.521 5.801 316.627 o
4 4 2 195.356 192.424 9.010 41.208 o
4 4 3 2368.160 2258.040 46.950 1.383 o
4 4 4 154.419 133.124 12.718 41.884 o
4 4 5 483.760 514.598 13.092 14.237 o
4 4 6 327.484 317.698 10.575 23.754 o
4 4 7 464.579 471.362 13.526 14.989 o
4 4 8 0.060 11.821 7.462 272.711 o
4 4 9 41.767 77.444 18.389 39.996 o
4 4 10 4.331 4.951 14.852 73.752 o
4 5 0 1529.960 1407.500 28.685 2.971 o
4 5 1 1985.440 1912.090 50.709 1.671 o
4 5 2 742.278 740.352 27.792 6.694 o
4 5 3 81.898 76.111 11.233 67.272 o
4 5 4 722.327 779.472 33.193 5.917 o
4 5 5 857.498 815.822 27.925 5.874 o
4 5 6 11.772 15.867 5.703 324.374 o
4 5 7 111.546 130.806 9.777 59.368 o
4 5 8 180.814 189.866 11.325 38.633 o
4 5 9 164.101 147.461 21.748 22.901 o
4 5 10 2.083 2.475 14.675 76.649 o
4 6 0 1139.350 1157.590 26.881 4.239 o
4 6 1 82.355 62.320 13.526 56.065 o
4 6 2 659.500 654.818 32.268 6.674 o
4 6 3 32.348 43.729 8.687 129.796 o
4 6 4 436.574 414.653 11.759 17.124 o
4 6 5 18.375 18.511 6.405 246.533 o
4 6 6 519.949 563.753 14.443 12.668 o
4 6 7 38.720 45.035 7.673 140.009 o
4 6 8 0.259 3.774 6.906 336.698 o
4 6 9 76.423 88.760 18.742 35.267 o
4 6 10 201.874 215.534 24.754 17.427 o
4 7 0 21.820 10.585 9.104 153.281 o
4 7 1 2591.560 2650.830 57.196 1.099 o
4 7 2 15.067 31.987 8.558 161.744 o
4 7 3 846.017 835.958 26.841 6.006 o
4 7 4 49.361 44.174 5.073 172.639 o
4 7 5 963.924 974.394 19.500 5.776 o
4 7 6 35.532 13.312 7.556 170.017 o
4 7 7 206.694 275.940 14.580 27.600 o
4 7 8 27.009 31.304 8.005 158.041 o
4 7 9 175.695 193.079 24.047 19.054 o
4 7 10 2.170 -1.415 15.029 73.490 o
4 8 0 1237.510 1249.170 34.756 3.453 o
4 8 1 163.628 160.980 12.230 40.292 o
4 8 2 1976.680 1991.330 38.732 1.844 o
4 8 3 654.317 621.954 15.343 10.087 o
4 8 4 151.242 150.795 7.121 56.646 o
4 8 5 17.369 15.499 5.840 286.093 o
4 8 6 444.061 510.173 18.596 13.102 o
4 8 7 320.906 290.677 15.045 21.199 o
4 8 8 22.295 11.332 7.405 204.077 o
4 8 9 23.940 28.997 16.444 54.378 o
4 8 10 92.466 92.119 21.571 27.529 o
4 9 0 648.490 611.651 22.783 8.713 o
4 9 1 78.162 78.345 9.509 79.622 o
4 9 2 1118.920 1110.290 27.340 4.346 o
4 9 3 35.225 51.160 8.704 123.099 o
4 9 4 857.297 828.161 22.994 6.408 o
4 9 5 122.046 140.794 11.031 51.355 o
4 9 6 39.992 35.424 9.060 120.314 o
4 9 7 136.621 150.497 12.691 43.129 o
4 9 8 230.432 253.534 12.828 29.099 o
4 9 9 0.026 4.243 16.974 57.731 o
4 9 10 0.002 18.742 16.974 56.375 o
4 10 0 330.442 321.267 10.285 23.721 o
4 10 1 68.080 86.660 11.375 68.949 o
4 10 2 3.667 6.265 7.350 276.575 o
4 10 3 1711.350 1675.220 34.506 2.354 o
4 10 4 4.919 15.425 11.581 114.482 o
4 10 5 167.682 174.257 12.208 39.108 o
4 10 6 7.670 15.833 17.681 51.119 o
4 10 7 451.331 429.246 18.512 13.739 o
4 10 8 42.638 39.303 22.544 29.387 o
4 10 9 144.486 226.850 26.345 17.143 o
4 10 10 18.703 11.846 16.090 59.228 o
4 11 0 925.199 934.981 18.061 6.201 o
4 11 1 1011.960 1007.060 44.203 3.612 o
4 11 2 261.946 257.345 13.321 26.421 o
4 11 3 8.386 22.138 9.814 145.445 o
4 11 4 1152.430 1242.730 60.823 2.364 o
4 11 5 200.536 174.103 12.446 35.253 o
4 11 6 7.047 5.516 9.548 166.487 o
4 11 7 8.345 7.761 9.078 177.792 o
4 11 8 354.585 424.976 19.593 15.225 o
4 11 9 69.626 61.177 19.980 33.455 o
4 12 0 420.393 440.631 11.430 17.353 o
4 12 1 56.686 65.853 7.637 112.717 o
4 12 2 163.366 173.271 11.483 41.337 o
4 12 3 456.137 500.555 33.064 8.218 o
4 12 4 258.758 233.392 24.930 15.844 o
4 12 5 145.895 171.448 15.559 33.972 o
4 12 6 646.120 680.513 56.492 3.596 o
4 12 7 0.280 7.984 10.697 141.325 o
4 12 8 0.505 7.998 9.576 174.440 o
4 12 9 77.822 105.911 22.455 26.221 o
4 13 0 92.649 95.992 8.683 75.811 o
4 13 1 2559.560 2556.810 49.319 1.196 o
4 13 2 33.496 51.214 10.488 99.370 o
4 13 3 2.843 21.218 15.559 65.669 o
4 13 4 1.013 8.664 15.559 67.757 o
4 13 5 907.315 916.959 34.920 4.747 o
4 13 6 7.545 1.796 9.386 174.058 o
4 13 7 180.884 202.378 14.882 31.325 o
4 13 8 12.123 13.645 10.068 139.905 o
4 14 0 715.385 736.155 19.906 8.114 o
4 14 1 78.140 57.488 7.894 97.957 o
4 14 2 1280.070 1316.320 47.499 2.734 o
4 14 3 562.044 496.135 34.125 7.304 o
4 14 4 41.650 45.794 17.151 46.752 o
4 14 5 0.002 -1.182 8.783 217.184 o
4 14 6 920.127 962.166 60.205 2.782 o
4 14 7 80.913 59.738 11.579 67.836 o
4 14 8 0.154 -4.920 10.609 148.656 o
4 15 0 155.298 168.007 13.031 38.946 o
4 15 1 259.379 288.242 12.144 26.936 o
4 15 2 176.852 167.110 11.162 40.776 o
4 15 3 52.058 78.328 19.980 34.105 o
4 15 4 394.319 339.303 29.881 10.441 o
4 15 5 45.560 64.582 11.758 77.481 o
4 15 6 253.753 219.815 15.647 25.204 o
4 15 7 66.610 79.878 12.465 63.523 o
4 16 0 14.944 26.942 7.595 196.177 o
4 16 1 11.462 2.805 7.310 254.328 o
4 16 2 144.156 161.399 13.976 38.229 o
4 16 3 1109.680 1177.040 53.397 2.780 o
4 16 4 105.248 130.841 22.278 24.792 o
4 16 5 96.219 163.198 23.693 22.368 o
4 16 6 4.425 18.012 21.571 35.025 o
4 16 7 184.457 162.086 15.079 32.221 o
4 17 0 770.751 778.251 21.645 7.277 o
4 17 1 114.881 116.961 9.196 62.731 o
4 17 2 254.666 270.523 24.930 15.552 o
4 17 3 38.257 36.398 11.595 88.015 o
4 17 4 969.752 1012.070 50.038 3.294 o
4 17 5 8.025 9.548 16.797 56.881 o
4 17 6 11.975 -1.200 10.450 138.713 o
4 17 7 0.015 -15.029 14.675 77.780 o
4 18 0 630.660 634.588 26.003 8.104 o
4 18 1 62.392 69.350 8.172 101.534 o
4 18 2 253.636 231.094 24.754 16.107 o
4 18 3 294.636 299.651 19.821 18.106 o
4 18 4 228.011 188.835 25.107 16.828 o
4 18 5 59.213 56.403 19.980 34.387 o
4 18 6 160.113 131.466 14.852 36.053 o
4 18 7 36.564 37.307 14.675 62.047 o
4 19 0 119.741 133.197 10.833 53.217 o
4 19 1 956.945 1029.500 32.082 4.651 o
4 19 2 17.620 32.357 15.913 58.518 o
4 19 3 28.574 29.528 16.444 53.524 o
4 19 4 53.314 74.084 20.333 33.203 o
4 19 5 348.270 271.407 30.235 11.138 o
4 20 0 406.510 422.131 16.085 15.869 o
4 20 1 32.529 53.758 16.532 50.427 o
4 20 2 520.389 623.263 38.545 6.310 o
4 20 3 10.421 -1.591 14.322 77.856 o
4 20 4 25.679 10.078 16.444 55.771 o
4 21 0 91.637 74.090 9.501 75.247 o
4 21 1 371.797 391.191 23.180 13.357 o
4 21 2 105.889 118.809 15.937 39.208 o
4 21 3 22.208 10.962 15.736 61.003 o
4 22 0 33.340 32.251 9.123 126.906 o
4 22 1 0.772 6.265 15.825 65.909 o
4 22 2 133.696 179.082 18.119 29.430 o
4 22 3 571.793 571.280 38.545 6.199 o
4 23 0 360.252 357.516 22.743 14.076 o
4 23 1 1.607 -8.093 11.127 133.654 o
4 23 2 159.385 145.870 25.638 18.426 o
4 24 0 77.470 72.316 21.041 29.986 o
5 0 0 793.466 700.257 27.546 6.552 o
5 0 2 257.101 268.027 18.054 21.388 o
5 0 4 759.743 961.151 41.020 4.532 o
5 0 6 2.874 26.345 21.394 35.398 o
5 0 8 111.614 148.169 24.400 21.151 o
5 1 0 188.717 201.916 14.077 32.147 o
5 1 1 103.419 131.451 12.093 51.722 o
5 1 2 340.999 331.667 16.621 18.608 o
5 1 3 634.890 644.921 21.707 8.907 o
5 1 4 35.058 47.711 12.902 74.502 o
5 1 5 151.847 233.101 29.970 14.026 o
5 1 6 92.558 134.047 18.492 32.928 o
5 1 7 161.842 172.808 32.887 12.383 o
5 1 8 7.015 13.791 18.389 47.648 o
5 2 0 265.132 267.635 18.352 20.812 o
5 2 1 773.590 792.464 29.051 6.206 o
5 2 2 61.057 54.888 12.200 70.396 o
5 2 3 137.649 144.858 15.117 36.916 o
5 2 4 245.858 351.593 36.954 8.980 o
5 2 5 201.277 270.564 22.994 18.361 o
5 2 6 6.137 13.359 14.626 74.022 o
5 2 7 196.694 243.638 21.189 20.707 o
5 2 8 45.100 48.447 19.273 38.027 o
5 3 0 330.412 360.027 26.787 12.437 o
5 3 1 45.720 68.253 12.913 67.881 o
5 3 2 377.585 408.879 21.241 14.064 o
5 3 3 34.116 52.878 11.291 89.311 o
5 3 4 65.237 66.473 13.055 62.016 o
5 3 5 1.867 -3.713 19.980 41.778 o
5 3 6 462.308 551.156 29.067 9.082 o
5 3 7 0.017 11.055 13.468 89.714 o
5 3 8 66.520 116.873 22.809 25.831 o
5 4 0 72.235 82.011 11.391 68.293 o
5 4 1 1231.970 1278.520 42.877 3.041 o
5 4 2 45.364 74.345 11.432 78.447 o
5 4 3 313.586 326.905 16.350 19.778 o
5 4 4 168.769 180.179 20.422 23.885 o
5 4 5 334.656 391.816 36.423 8.433 o
5 4 6 0.079 17.550 16.620 58.827 o
5 4 7 42.248 79.383 24.930 23.804 o
5 5 0 271.247 277.160 16.022 22.639 o
5 5 1 37.294 43.084 10.140 103.961 o
5 5 2 338.653 371.480 17.283 17.648 o
5 5 3 561.121 554.161 20.398 10.492 o
5 5 4 3.631 -2.052 10.357 151.241 o
5 5 5 92.058 133.670 26.345 19.478 o
5 5 6 116.358 139.587 18.541 30.967 o
5 5 7 136.376 128.012 24.047 21.151 o
5 6 0 296.333 316.220 13.549 22.939 o
5 6 1 11.531 20.837 8.295 185.881 o
5 6 2 203.438 174.533 13.216 33.577 o
5 6 3 5.438 17.105 7.938 218.871 o
5 6 4 350.366 452.075 73.200 2.751 o
5 6 5 35.558 73.200 23.162 27.529 o
5 6 6 0.075 17.681 20.864 37.739 o
5 6 7 65.118 95.479 23.162 25.708 o
5 7 0 4.680 21.690 7.293 245.591 o
5 7 1 351.613 333.620 16.703 18.200 o
5 7 2 12.536 13.187 8.153 197.014 o
5 7 3 507.359 537.146 17.787 12.109 o
5 7 4 23.016 38.010 13.172 77.994 o
5 7 5 137.669 170.987 16.093 33.517 o
5 7 6 19.645 3.536 19.449 41.978 o
5 7 7 157.137 166.380 24.577 19.353 o
5 8 0 752.665 708.085 20.890 7.776 o
5 8 1 304.358 350.070 19.441 17.430 o
5 8 2 67.087 61.416 9.096 92.188 o
5 8 3 16.512 27.801 8.215 172.407 o
5 8 4 322.361 318.965 76.560 2.598 o
5 8 5 233.665 191.156 17.033 25.223 o
5 8 7 25.456 34.832 18.919 41.875 o
5 9 0 385.254 368.100 18.783 15.616 o
5 9 1 15.871 29.588 8.701 158.588 o
5 9 2 470.098 451.657 23.028 11.494 o
5 9 3 75.290 102.288 16.620 41.248 o
5 9 4 34.133 39.941 11.343 91.967 o
5 9 5 88.273 117.844 48.800 6.610 o
5 10 0 5.857 14.441 6.827 282.737 o
5 10 1 813.430 843.317 24.915 6.387 o
5 10 2 9.394 20.118 7.923 205.188 o
5 10 3 108.669 133.627 21.748 25.464 o
5 10 4 4.207 14.163 10.386 141.047 o
5 10 5 311.045 273.457 37.749 8.538 o
5 11 0 123.291 117.858 10.448 55.501 o
5 11 1 7.416 13.086 8.769 185.303 o
5 11 2 591.760 619.779 22.604 9.247 o
5 11 3 113.951 124.476 24.400 21.448 o
5 11 4 3.656 -3.713 19.449 43.878 o
5 12 0 99.325 100.092 10.068 65.269 o
5 12 1 236.764 230.981 18.188 22.782 o
5 12 2 154.197 154.795 13.428 38.842 o
5 12 3 88.931 107.325 23.339 24.193 o
5 13 0 9.150 37.727 9.630 139.559 o
5 13 1 2.961 13.475 10.743 134.256 o
5 13 2 0.909 -6.587 10.875 140.613 o
5 13 3 541.436 577.292 42.081 5.705 o
5 14 0 570.515 620.328 31.907 7.352 o
5 14 1 316.143 281.016 18.939 18.438 o
5 14 2 24.315 14.404 10.869 112.503 o
5 15 0 72.044 75.570 11.459 68.887 o
5 15 1 22.006 29.318 11.870 94.757 o
5 16 0 71.988 72.414 11.218 70.999 o
5 16 1 481.654 425.174 21.810 11.965 o
5 17 0 123.875 101.605 18.212 32.488 o
5 17 1 23.424 11.182 11.000 112.206 o
5 18 0 144.193 94.689 14.001 41.933 o
5 18 1 119.758 97.443 14.187 44.300 o
5 19 0 5.625 -6.630 20.068 41.045 o
5 20 0 239.712 213.589 23.516 17.637 o
5 21 0 51.886 37.661 15.736 52.651 o
6 3 0 150.251 181.233 23.870 20.135 o
6 3 1 8.277 34.655 16.974 53.515 o
6 4 1 145.022 149.760 22.278 22.846 o
6 5 2 0.476 18.742 16.090 62.419 o
;
_olex2_date_sample_data_collection 2021-01-15
_olex2_date_sample_submission    2021-01-15
_olex2_exptl_crystal_mounting_method 'mounted ona MiTeGen loop'
_olex2_submission_original_sample_id VP-K1-4N-3-1
_olex2_submission_special_instructions 'No special instructions were received'
_oxdiff_exptl_absorpt_empirical_details
;
Empirical correction (ABSPACK) includes:
- Absorption correction using spherical harmonics
- Frame scaling
;
_oxdiff_exptl_absorpt_empirical_full_max 1.704
_oxdiff_exptl_absorpt_empirical_full_min 0.635
loop_
_space_group_symop_id
_space_group_symop_operation_xyz
1 x,y,z
2 -x,y+1/2,-z+1/2
3 -x,-y,-z
4 x,-y-1/2,z-1/2
loop_
_atom_site_label
_atom_site_type_symbol
_atom_site_fract_x
_atom_site_fract_y
_atom_site_fract_z
_atom_site_U_iso_or_equiv
_atom_site_adp_type
_atom_site_occupancy
_atom_site_refinement_flags_posn
I10 I 0.71950(5) 0.076548(9) 0.61036(2) 0.04142(9) Uani 1.000000 .
O11 O 0.1917(6) 0.25934(11) 0.3532(2) 0.0481(6) Uani 1.000000 .
O14 O 1.1349(7) 0.44950(11) 0.7969(3) 0.0525(6) Uani 1.000000 .
N12 N 0.9398(7) 0.45453(11) 0.7007(3) 0.0388(6) Uani 1.000000 .
O13 O 0.8572(8) 0.50091(11) 0.6541(3) 0.0655(8) Uani 1.000000 .
C5 C 0.8605(7) 0.35036(13) 0.6980(3) 0.0314(5) Uani 1.000000 .
H5 H 0.9874(7) 0.34783(13) 0.7781(3) 0.0377(6) Uiso 1.000000 R
C4 C 0.7987(7) 0.40226(12) 0.6380(3) 0.0311(5) Uani 1.000000 .
C1 C 0.5354(6) 0.30637(11) 0.5173(3) 0.0275(5) Uani 1.000000 .
C6 C 0.7285(7) 0.30160(12) 0.6362(3) 0.0301(5) Uani 1.000000 .
H6 H 0.7690(7) 0.26574(12) 0.6742(3) 0.0361(6) Uiso 1.000000 R
C8 C 0.4839(7) 0.19902(13) 0.5024(3) 0.0344(6) Uani 1.000000 .
C3 C 0.6098(8) 0.40827(13) 0.5181(3) 0.0356(6) Uani 1.000000 .
H3 H 0.5743(8) 0.44416(13) 0.4795(3) 0.0428(7) Uiso 1.000000 R
C9 C 0.5686(7) 0.15287(13) 0.5422(3) 0.0345(6) Uani 1.000000 .
C2 C 0.4776(7) 0.35989(13) 0.4584(3) 0.0342(6) Uani 1.000000 .
H2 H 0.3495(7) 0.36277(13) 0.3787(3) 0.0410(7) Uiso 1.000000 R
C7 C 0.3878(7) 0.25489(13) 0.4501(3) 0.0337(6) Uani 1.000000 .
loop_
_atom_site_aniso_label
_atom_site_aniso_U_11
_atom_site_aniso_U_22
_atom_site_aniso_U_33
_atom_site_aniso_U_12
_atom_site_aniso_U_13
_atom_site_aniso_U_23
I10 0.03346(12) 0.03650(13) 0.05423(15) 0.00607(7) 0.00189(8) 0.00905(8)
O11 0.0539(14) 0.0419(13) 0.0454(13) -0.0002(11) -0.0227(11) -0.0062(10)
O14 0.0611(16) 0.0450(14) 0.0493(14) -0.0109(12) -0.0153(12) -0.0079(11)
N12 0.0410(14) 0.0315(13) 0.0437(14) -0.0056(10) 0.0013(11) -0.0062(10)
O13 0.091(2) 0.0250(11) 0.0764(19) -0.0026(13) -0.0271(16) -0.0019(12)
C5 0.0309(13) 0.0355(14) 0.0270(12) -0.0021(10) -0.0046(10) 0.0008(10)
C4 0.0327(13) 0.0285(13) 0.0320(13) -0.0016(10) 0.0003(10) -0.0020(10)
C1 0.0255(11) 0.0293(13) 0.0272(12) 0.0010(9) -0.0024(9) 0.0007(9)
C6 0.0304(12) 0.0278(13) 0.0313(13) 0.0001(10) -0.0052(10) 0.0047(10)
C8 0.0344(14) 0.0306(14) 0.0378(14) -0.0020(11) -0.0017(11) -0.0051(11)
C3 0.0424(16) 0.0267(13) 0.0372(15) 0.0015(11) -0.0039(12) 0.0045(11)
C9 0.0299(13) 0.0340(14) 0.0394(15) -0.0019(11) -0.0006(11) -0.0004(11)
C2 0.0366(14) 0.0348(14) 0.0300(13) 0.0022(11) -0.0084(11) 0.0018(10)
C7 0.0334(13) 0.0323(14) 0.0347(14) 0.0009(11) -0.0043(11) -0.0013(11)
loop_
_atom_type_symbol
_atom_type_scat_dispersion_real
_atom_type_scat_dispersion_imag
_atom_type_scat_Cromer_Mann_a1
_atom_type_scat_Cromer_Mann_a2
_atom_type_scat_Cromer_Mann_a3
_atom_type_scat_Cromer_Mann_a4
_atom_type_scat_Cromer_Mann_b1
_atom_type_scat_Cromer_Mann_b2
_atom_type_scat_Cromer_Mann_b3
_atom_type_scat_Cromer_Mann_b4
_atom_type_scat_Cromer_Mann_c
_atom_type_scat_source
_atom_type_scat_dispersion_source
I -0.41187 1.83264 20.14720 18.99490 7.51380 2.27350 4.34700 0.38140 27.76600
66.87760 4.07119989395
'International Tables Volume C Table 6.1.1.4 (pp. 500-502)'
'Henke, Gullikson and Davis, At. Data and Nucl. Data Tables, 1993, 54, 2'
H 0.00000 0.00000 0.49300 0.32291 0.14019 0.04081 10.51090 26.12570 3.14236
57.79970 0.0030380000826
'International Tables Volume C Table 6.1.1.4 (pp. 500-502)'
'Henke, Gullikson and Davis, At. Data and Nucl. Data Tables, 1993, 54, 2'
C 0.00347 0.00161 2.31000 1.02000 1.58860 0.86500 20.84390 10.20750 0.56870
51.65120 0.215599998832
'International Tables Volume C Table 6.1.1.4 (pp. 500-502)'
'Henke, Gullikson and Davis, At. Data and Nucl. Data Tables, 1993, 54, 2'
O 0.01158 0.00611 3.04850 2.28680 1.54630 0.86700 13.27710 5.70110 0.32390
32.90890 0.250800013542
'International Tables Volume C Table 6.1.1.4 (pp. 500-502)'
'Henke, Gullikson and Davis, At. Data and Nucl. Data Tables, 1993, 54, 2'
N 0.00653 0.00323 12.21260 3.13220 2.01250 1.16630 0.00570 9.89330 28.99750
0.58260 -11.5290002823
'International Tables Volume C Table 6.1.1.4 (pp. 500-502)'
'Henke, Gullikson and Davis, At. Data and Nucl. Data Tables, 1993, 54, 2'
loop_
_diffrn_refln_index_h
_diffrn_refln_index_k
_diffrn_refln_index_l
_diffrn_refln_intensity_net
_diffrn_refln_intensity_u
0 0 -1 0 0.05
0 0 2 224.88 4.4
0 0 2 217.96 4.29
0 0 3 0.32 0.13
0 0 -3 0.08 0.13
0 0 3 -0.09 0.19
0 0 4 815.47 15.17
0 0 -4 789.8 14.87
0 0 4 784.05 14.92
0 0 4 764.59 14.91
0 0 5 -0.06 0.22
0 0 5 0.23 0.32
0 0 -5 -0.03 0.25
0 0 -5 0.58 0.22
0 0 5 0.43 0.21
0 0 6 0.93 0.26
0 0 6 0.85 0.36
0 0 6 1.21 0.25
0 0 -6 1.2 0.25
0 0 -6 0.73 0.33
0 0 7 -0.25 0.38
0 0 7 0.08 0.24
0 0 -7 0.03 0.23
0 0 7 0.14 0.24
0 0 -7 -0.22 0.37
0 0 -7 -0.11 0.35
0 0 -8 120.62 3.42
0 0 8 121.31 2.86
0 0 8 117.7 2.84
0 0 -8 125.27 3.44
0 0 -8 118.6 2.74
0 0 9 0.2 0.36
0 0 -9 0.46 0.34
0 0 -9 0.41 0.51
0 0 -9 0.95 0.61
0 0 -10 43.23 2
0 0 -10 39.67 1.94
0 0 -11 0.46 0.66
0 0 -11 -0.33 0.68
0 0 -12 26.48 1.75
0 0 -12 18.3 1.55
0 0 -13 0.91 0.87
0 0 -13 0.08 0.88
0 0 -14 1.72 1
0 0 -14 2.33 1.04
0 0 -15 2.06 1.14
0 -1 -1 307.62 5.97
0 -1 1 314.39 5.95
0 1 2 520.01 9.46
0 -1 2 499.13 9.39
0 -1 2 498.79 9.41
0 -1 3 106.42 2.35
0 1 3 106.27 2.39
0 -1 -3 103.7 2.09
0 1 3 103.48 2.11
0 1 -3 101.58 2.25
0 -1 3 100.02 2.3
0 -1 3 106.18 2.18
0 1 -4 9.09 0.55
0 1 4 10.58 0.61
0 -1 4 11.38 0.6
0 -1 4 11.25 0.53
0 -1 -4 11.11 0.4
0 1 4 10.76 0.41
0 1 -4 10.96 0.5
0 -1 4 10.66 0.45
0 1 -5 647.4 12.91
0 -1 5 689.46 12.9
0 1 5 678.05 12.9
0 -1 -5 661.22 12.99
0 -1 5 656.89 12.69
0 1 -5 649.74 12.6
0 -1 -5 640.37 12.43
0 1 5 653.89 12.47
0 -1 5 650.35 12.56
0 1 -6 75.18 2.2
0 -1 -6 70.44 2.16
0 1 6 73.66 1.74
0 -1 6 72.63 1.82
0 1 6 73.67 1.9
0 1 6 76.81 2.15
0 -1 -6 74.66 2.21
0 1 -6 77 2.19
0 1 -6 76.76 1.87
0 -1 6 75.13 1.93
0 -1 -6 69.7 1.69
0 1 7 1.74 0.34
0 1 7 2.48 0.51
0 1 7 2.09 0.3
0 -1 7 2.16 0.34
0 -1 -7 1.72 0.27
0 -1 7 2.41 0.39
0 1 -7 2.27 0.37
0 1 -7 1.92 0.45
0 -1 -7 1.86 0.46
0 -1 -7 2.07 0.48
0 1 -7 2.59 0.5
0 -1 -8 18.31 1.15
0 1 -8 16.94 1.13
0 1 -8 20.29 1.17
0 1 8 21 1.11
0 -1 8 19.31 0.89
0 1 8 19.22 0.87
0 -1 8 17.98 0.79
0 -1 -8 20.27 1.2
0 1 -8 19.15 0.83
0 1 -9 105.22 3.27
0 -1 -9 105.6 3.28
0 1 -9 113.68 3.32
0 1 9 117.81 3.15
0 1 9 102.98 2.68
0 -1 9 106.71 2.68
0 -1 -9 113.44 3.39
0 1 -9 104.6 2.6
0 1 -10 20.7 1.37
0 -1 -10 19.09 1.37
0 1 10 18.04 0.91
0 1 -10 18.8 1.34
0 -1 -10 16.83 1.31
0 -1 -11 4.5 0.94
0 1 -11 4.31 0.91
0 -1 -11 4.16 0.84
0 1 -11 4.12 0.83
0 -1 11 4.02 0.57
0 1 -12 12.27 1.3
0 -1 -12 10.72 1.26
0 1 -12 10.7 1.28
0 -1 -12 9.24 1.22
0 1 -13 7.15 1.25
0 -1 -13 6.19 1.21
0 1 -13 9.28 1.24
0 -1 -13 9.45 1.3
0 -1 -14 0.09 0.96
0 1 -14 -1.55 1.03
0 1 -14 -0.71 0.95
0 -1 -14 -0.28 0.94
0 -1 -15 1.89 1.1
0 1 -15 2.41 1.13
0 -2 -1 89.55 1.94
0 2 -1 89.47 1.82
0 -2 1 86.64 1.91
0 2 2 180.2 3.67
0 -2 2 176.36 3.68
0 2 3 1259.33 23.38
0 -2 3 1246.22 23.37
0 2 -3 1206.49 23.28
0 2 4 334.57 6.44
0 2 -4 318.8 6.37
0 2 -4 323.63 6.27
0 -2 -4 298.38 5.9
0 -2 4 324 6.36
0 2 4 309.33 5.91
0 2 -5 5.04 0.46
0 2 5 4.33 0.49
0 2 5 5.01 0.26
0 -2 -5 5.3 0.5
0 -2 5 5.52 0.46
0 -2 -5 4.92 0.25
0 2 -5 5.35 0.44
0 2 -6 68.8 2.01
0 2 6 70.22 2.01
0 -2 -6 67.16 2.03
0 -2 -6 58.85 1.43
0 -2 -6 68.09 2.09
0 2 -6 67.94 1.78
0 -2 6 69.16 1.86
0 2 7 249.13 5.35
0 2 -7 234.73 5.37
0 2 7 224.87 4.98
0 -2 7 231.21 5.1
0 -2 -7 226.08 5.38
0 -2 -7 239.34 5.52
0 2 -7 229.74 4.97
0 2 8 15.11 0.97
0 2 -8 14.66 0.99
0 -2 -8 13.12 0.96
0 2 8 13.67 0.75
0 -2 8 15.48 0.83
0 -2 -8 14.92 1.05
0 2 -8 13.8 0.74
0 2 9 0.49 0.37
0 2 9 1.05 0.58
0 -2 -9 0.6 0.54
0 2 -9 0.15 0.48
0 -2 9 0.8 0.41
0 2 -9 0.82 0.38
0 -2 -9 -0.05 0.49
0 2 -10 31.77 1.21
0 -2 -10 35.87 1.87
0 -2 10 37.49 1.29
0 -2 -10 40.78 1.96
0 2 -10 40.71 1.88
0 2 10 35.97 1.33
0 2 -11 11.34 1.14
0 -2 -11 14.05 1.3
0 -2 -11 12.59 1.22
0 -2 11 11.37 0.77
0 -2 -12 1.65 0.88
0 2 -12 0.57 0.75
0 -2 -12 1.25 0.8
0 -2 -13 1.9 0.93
0 2 -13 1.88 0.87
0 -2 -13 3.57 1.04
0 -2 -14 3.1 1.13
0 -2 -14 3.5 1.11
0 2 -14 3.22 1.02
0 -2 -15 6.32 1.42
0 2 -15 5.72 1.3
0 3 0 0.76 0.11
0 -3 0 0.01 0.11
0 -3 1 55.41 1.38
0 3 1 55.61 1.19
0 3 -1 57.45 1.24
0 -3 2 2231.5 45.54
0 3 -2 2607.75 45.57
0 3 2 2802.53 45.9
0 -3 -2 2180.64 45.86
0 -3 2 2728.93 45.94
0 3 -3 15.43 0.52
0 -3 3 18.66 0.76
0 3 -3 18.92 0.73
0 3 3 18.37 0.74
0 -3 3 17.38 0.52
0 3 -4 133.8 3.05
0 -3 4 134.63 3.13
0 3 4 135.07 3.13
0 3 -4 135.49 3.07
0 -3 4 133.88 2.79
0 -3 5 7.7 0.56
0 3 -5 7.32 0.52
0 -3 5 7.02 0.4
0 -3 -5 5.93 0.55
0 3 5 7.48 0.57
0 3 -5 7.12 0.53
0 -3 6 391.7 8.21
0 3 -6 402.51 8.11
0 -3 6 386.64 7.84
0 -3 -6 396.82 8.35
0 -3 -6 407.38 8.53
0 3 6 410.9 8.35
0 3 -6 412.34 8.35
0 -3 -7 1.28 0.49
0 -3 7 0.99 0.41
0 3 -7 1.1 0.4
0 3 7 0.53 0.47
0 -3 7 0.81 0.31
0 -3 -7 0.98 0.48
0 3 -7 0.96 0.43
0 3 -8 50.53 1.62
0 -3 8 50.39 1.49
0 -3 -8 51.94 1.97
0 -3 8 53.13 1.74
0 3 8 49.02 1.61
0 -3 -8 52.89 2.07
0 3 8 56.11 1.92
0 3 -8 54.29 1.96
0 -3 -9 3.98 0.71
0 -3 9 3.59 0.55
0 3 9 4.14 0.72
0 3 9 3.99 0.49
0 3 -9 4.17 0.67
0 -3 -9 3.72 0.72
0 -3 10 35.68 1.41
0 3 10 32.92 1.3
0 -3 -10 33.06 1.83
0 3 -10 32.08 1.67
0 -3 -10 29.58 1.67
0 -3 11 -0.18 0.4
0 3 -11 0.43 0.63
0 -3 -11 0.94 0.72
0 -3 -11 0.32 0.7
0 3 -12 14.32 1.34
0 -3 -12 14.08 1.44
0 -3 -12 15.27 1.47
0 -3 -13 1.18 0.91
0 -3 -13 2.31 0.98
0 3 -13 0.39 0.81
0 -3 -14 1.28 1
0 -3 -14 1.06 0.99
0 3 -14 0.51 0.88
0 -3 -15 0.52 1.07
0 3 -15 0.09 0.96
0 4 0 109.45 2.24
0 4 0 106.93 2.33
0 4 1 311.56 6.1
0 -4 1 315.12 6.34
0 4 -1 322.26 6.11
0 4 -2 89.73 1.92
0 4 2 96.66 2.24
0 -4 2 93.89 2.27
0 4 -2 97.84 2.09
0 -4 3 987.01 18.73
0 4 3 1029.01 19.16
0 -4 3 1012.31 19.24
0 4 -4 15.62 0.53
0 -4 4 15.62 0.78
0 4 -4 16.3 0.77
0 4 -4 15.44 0.69
0 4 4 15.71 0.76
0 -4 4 14.41 0.51
0 4 -5 109.5 2.7
0 -4 5 108.47 2.81
0 -4 5 108.71 2.38
0 -4 -5 103.7 2.9
0 4 5 113.88 2.8
0 4 -5 112.06 2.75
0 -4 6 36.6 1.38
0 4 -6 37.39 1.31
0 -4 6 34.09 1.05
0 -4 -6 38.37 1.55
0 4 6 37.36 1.41
0 4 -6 35.54 1.37
0 -4 -6 37.14 1.41
0 -4 7 380.62 8.09
0 4 -7 373.97 7.91
0 -4 7 384.31 7.62
0 -4 -7 368.44 8.19
0 -4 -7 383.8 8.48
0 4 -7 386.98 8.21
0 4 7 404.12 8.22
0 -4 8 14.14 0.69
0 -4 -8 14.09 1
0 -4 8 14.94 0.93
0 -4 -8 13.32 1.07
0 4 -8 14.33 0.97
0 4 8 15.44 1.01
0 -4 9 -0.02 0.3
0 -4 -9 0.2 0.52
0 -4 9 0.25 0.44
0 4 9 0.08 0.51
0 4 9 0.26 0.37
0 -4 9 -0.32 0.56
0 -4 -9 -0.3 0.54
0 4 -9 0.05 0.47
0 4 -10 9.06 0.95
0 -4 -10 7.65 1
0 4 10 7.05 0.68
0 -4 10 6.83 0.76
0 -4 -10 8.12 1
0 4 -10 7.19 0.72
0 -4 -11 31.43 1.8
0 -4 -11 32.25 1.92
0 4 -11 33.94 1.78
0 4 -11 29.17 1.29
0 -4 -12 3.61 0.93
0 4 -12 3.96 0.91
0 -4 -12 3.82 1
0 -4 -13 3.81 1.08
0 -4 -13 2.55 1.02
0 4 -13 3.8 0.98
0 -4 -14 1.61 1.05
0 -4 -14 2 1.1
0 4 -14 1.66 0.95
0 4 -15 0.27 0.98
0 5 0 0.05 0.18
0 5 0 0.08 0.25
0 5 1 604.8 11.64
0 -5 1 602.06 11.89
0 5 -1 626.15 11.61
0 -5 -1 609.71 11.46
0 5 -2 277.61 5.44
0 -5 -2 286.91 5.45
0 -5 2 278.4 5.87
0 5 2 274.45 5.4
0 5 -2 290.03 5.59
0 5 -3 622.97 11.8
0 5 3 621.83 12.21
0 -5 3 618.77 12.32
0 -5 4 100 2.16
0 5 -4 100.19 2.2
0 5 -4 106.12 2.6
0 -5 4 106.12 2.71
0 5 4 104.98 2.61
0 -5 5 386.56 7.49
0 -5 -5 390.53 7.94
0 5 -5 380.78 7.52
0 5 5 394.5 8.03
0 5 -5 398.61 7.97
0 -5 5 385.97 8.1
0 5 -5 367.5 7.94
0 5 -6 202.6 4.61
0 -5 6 203.2 4.76
0 -5 -6 202.01 4.68
0 -5 6 200.86 4.16
0 -5 6 202.1 4.61
0 -5 -6 204.98 4.98
0 5 -6 203.38 4.67
0 5 6 208.84 4.71
0 -5 7 10.86 0.81
0 -5 -7 9.55 0.79
0 -5 7 9.59 0.53
0 -5 7 9.85 0.76
0 -5 -7 9.92 0.9
0 5 7 10.45 0.84
0 5 -7 9.34 0.76
0 -5 8 64.82 2.15
0 -5 8 63.92 1.65
0 5 -8 58.69 2.16
0 -5 -8 64.28 2.23
0 -5 8 60.23 2.14
0 -5 -8 65.37 2.45
0 5 8 67.62 2.21
0 5 -8 62.09 2.18
0 5 -9 51.31 1.73
0 5 -9 46.71 1.98
0 -5 -9 45.48 1.94
0 -5 9 46.04 1.37
0 -5 9 47.26 1.83
0 -5 -9 47.2 2.17
0 5 -9 50.81 1.99
0 5 9 50.51 1.92
0 5 -10 9.96 0.81
0 -5 -10 11.5 1.12
0 5 -10 10.43 1.04
0 -5 10 10.49 0.89
0 5 10 9.34 0.75
0 -5 -10 11.46 1.17
0 5 -10 9.47 0.94
0 5 -11 0.37 0.52
0 -5 11 -0.04 0.52
0 5 -11 1.03 0.64
0 -5 -11 0.23 0.71
0 5 -11 0.64 0.73
0 -5 -11 0.76 0.74
0 5 -12 12.93 1.35
0 -5 -12 10.73 1.25
0 -5 -12 14.06 1.47
0 5 -12 12 1.23
0 5 -13 5.61 1.06
0 -5 -13 5.64 1.25
0 -5 -13 8.23 1.26
0 5 -13 6.61 1.19
0 5 -14 0.25 0.84
0 5 -15 1.42 1.04
0 6 0 1684.98 31.57
0 6 0 1689.66 31.72
0 6 -1 8.25 0.4
0 -6 1 7.95 0.52
0 6 1 8.54 0.44
0 -6 -1 8.76 0.28
0 6 -1 8.51 0.29
0 6 -2 38.32 1.08
0 -6 -2 38.59 1.03
0 6 2 38.98 0.98
0 -6 2 38.46 1.31
0 6 -3 69.79 1.57
0 -6 -3 66.04 1.45
0 6 3 67.48 1.93
0 -6 3 70.37 2.03
0 6 3 68.49 1.44
0 6 -3 72.54 1.77
0 -6 4 909.76 17.91
0 6 -4 900.36 17.75
0 6 4 912.81 17.75
0 -6 -4 925.01 17.54
0 -6 5 16.92 0.6
0 -6 -5 18.21 0.85
0 6 -5 16.61 0.82
0 6 -5 16.7 0.63
0 6 -5 18.26 0.86
0 6 5 18.72 0.95
0 6 -5 16.11 0.89
0 -6 5 17.89 0.99
0 -6 6 112.38 3.1
0 6 -6 108.34 2.93
0 -6 -6 112.49 2.94
0 -6 6 109.66 2.45
0 -6 6 110.42 2.9
0 -6 -6 119.62 3.34
0 6 -6 117.72 3
0 6 6 114.25 3.01
0 -6 7 47.61 1.82
0 -6 -7 48.96 1.79
0 6 -7 50.4 1.79
0 -6 7 50.02 1.33
0 -6 7 46.95 1.74
0 -6 -7 53.4 2.11
0 6 -7 51.27 1.82
0 6 7 52.34 1.83
0 -6 8 124.89 3.46
0 6 -8 129.16 3.32
0 -6 8 122.7 2.79
0 6 -8 125.81 3.5
0 -6 -8 121.51 3.47
0 -6 -8 124.58 3.83
0 6 8 134.59 3.5
0 6 -8 125.12 3.49
0 -6 -9 2.06 0.65
0 6 -9 1.51 0.63
0 -6 9 1.19 0.57
0 6 -9 1.83 0.56
0 -6 9 0.91 0.34
0 6 -9 0.33 0.5
0 -6 -9 1.76 0.7
0 6 -10 29.33 1.36
0 6 -10 30.6 1.68
0 -6 -10 30.28 1.67
0 -6 10 29.56 1
0 -6 10 27.97 1.47
0 6 10 27.35 1.27
0 -6 -10 32.44 1.9
0 6 -10 33.18 1.67
0 6 -11 -0.13 0.66
0 -6 -11 0.25 0.68
0 -6 -11 -0.64 0.73
0 6 -11 -0.61 0.62
0 -6 11 -0.18 0.55
0 6 -11 0.22 0.53
0 6 -12 4.65 0.99
0 -6 -12 3.75 0.95
0 -6 -12 4.5 1.06
0 6 -12 4.43 0.91
0 6 -13 1.74 0.96
0 -6 -13 1.75 0.92
0 6 -13 0.66 0.8
0 6 -14 5.1 1.11
0 6 -15 -0.09 0.92
0 7 0 0.24 0.19
0 7 0 0.2 0.25
0 7 -1 793.42 14.72
0 -7 -1 780.64 14.72
0 -7 -1 752.7 15.13
0 -7 1 785.53 15.36
0 7 1 795.07 15.05
0 7 -1 811.59 14.98
0 7 -2 4.26 0.35
0 -7 -2 4.94 0.28
0 7 -2 4.58 0.28
0 7 2 4.17 0.31
0 -7 -2 7.2 0.4
0 -7 2 4.4 0.47
0 7 -3 414.26 8.07
0 -7 -3 413.19 8.18
0 7 -3 417.97 8.19
0 -7 -3 418.8 8.03
0 7 -3 423.02 8.31
0 7 3 430.16 8.62
0 -7 3 412.02 8.68
0 7 3 413.6 7.96
0 7 -4 1.08 0.28
0 -7 -4 0.29 0.25
0 7 -4 0.54 0.19
0 7 -4 0.29 0.35
0 -7 4 1.12 0.38
0 7 4 0.64 0.37
0 -7 -5 386.85 7.89
0 7 -5 390.42 7.9
0 7 -5 376.86 7.51
0 7 5 391.85 8.1
0 -7 5 376.12 8.24
0 7 -6 38.8 1.46
0 7 6 39.88 1.53
0 7 -6 40.75 1.46
0 -7 -6 39.25 1.44
0 7 -6 36.98 1.1
0 -7 6 35.66 1.38
0 -7 -6 41.45 1.77
0 -7 6 37.39 1.59
0 -7 -7 0.04 0.37
0 7 -7 0.25 0.4
0 7 -7 0.28 0.46
0 -7 7 0.04 0.41
0 7 -7 0.11 0.36
0 -7 7 0.19 0.23
0 -7 -7 0.49 0.49
0 7 7 0.07 0.41
0 7 -8 10.63 0.86
0 -7 8 8.26 0.85
0 -7 -8 10.29 0.89
0 7 -8 10.75 0.89
0 -7 8 8.96 0.53
0 -7 -8 8.92 1
0 7 8 9.56 0.87
0 7 -8 11.8 0.95
0 7 -9 113.64 3.1
0 -7 9 105.24 2.46
0 -7 -9 107.85 3.3
0 7 -9 107.03 3.29
0 -7 9 107.36 3.25
0 -7 -9 107.25 3.68
0 7 -9 113.78 3.34
0 7 -10 2.85 0.76
0 -7 -10 2.22 0.75
0 7 -10 2.1 0.67
0 -7 10 2.52 0.7
0 -7 10 2.01 0.38
0 -7 -10 3.09 0.89
0 7 -10 2.6 0.7
0 -7 11 7.13 0.92
0 -7 -11 7.81 1.06
0 7 -11 7.13 1.02
0 7 -11 8.33 0.99
0 -7 -11 7.56 1.17
0 7 -11 7.19 0.86
0 -7 -12 0.41 0.79
0 7 -12 0.34 0.77
0 7 -12 -0.07 0.68
0 -7 12 0.19 0.63
0 7 -13 13.62 1.38
0 -7 -13 11.88 1.38
0 7 -13 12.86 1.44
0 7 -14 -0.32 0.89
0 7 -15 2.05 1.01
0 8 0 772.8 14.51
0 8 0 741.08 14.71
0 -8 -1 433.18 8.44
0 8 -1 458.93 8.46
0 8 -1 465.94 8.77
0 -8 -1 460.2 8.99
0 8 -1 452.43 9.06
0 -8 1 436.71 9.16
0 8 1 455.72 8.86
0 8 -2 32.4 1.01
0 -8 -2 32.28 1.04
0 8 2 32.94 0.96
0 -8 2 31.88 1.27
0 8 -2 30.81 0.85
0 -8 -2 30.6 0.84
0 -8 -3 47.13 1.29
0 8 -3 48.31 1.31
0 -8 -3 50.25 1.28
0 8 -3 49.67 1.42
0 8 -3 47.34 1.24
0 -8 3 50.13 1.75
0 8 3 47.65 1.19
0 8 -4 133.32 1.49
0 -8 -4 137.88 1.85
0 8 -4 133.69 1.82
0 -8 4 128.32 2.48
0 8 4 120.39 0.99
0 8 4 132.86 2.32
0 8 -5 68.25 1.89
0 -8 -5 68.51 1.91
0 -8 5 57.34 1.81
0 8 5 68.3 2.09
0 -8 5 62.65 2.18
0 8 -6 55.61 1.52
0 8 -6 59.42 1.88
0 -8 -6 59.27 1.87
0 8 -6 60.08 1.98
0 -8 6 59.01 2.14
0 8 -6 62.35 1.96
0 8 6 61.38 2.02
0 8 -7 113.17 3.11
0 -8 -7 116.81 3.13
0 8 -7 116.99 3.2
0 -8 7 111.97 3.33
0 8 7 117.2 3.21
0 8 -7 115.35 3.18
0 -8 -8 77.19 2.5
0 8 -8 77.16 2.51
0 8 -8 80.16 2.57
0 8 8 81.17 2.55
0 -8 -8 76.65 2.92
0 8 -8 83.29 2.54
0 -8 8 70.68 2.57
0 -8 -9 17.1 1.2
0 8 -9 19.25 1.25
0 -8 9 18.02 1.25
0 8 -9 18.18 1.25
0 -8 -9 18.12 1.46
0 8 -9 23.53 1.3
0 -8 -10 81.45 2.9
0 8 -10 83.04 2.92
0 8 -10 90.07 2.74
0 8 -10 90.44 2.98
0 -8 10 80.65 2.84
0 8 -11 17.43 1.36
0 -8 -11 19.41 1.44
0 -8 11 15.79 1.24
0 8 -11 16.05 1.28
0 8 -11 14.7 1.14
0 8 -12 -0.13 0.79
0 -8 -12 -0.47 0.83
0 8 -12 0.6 0.7
0 -8 12 0.95 0.7
0 -8 -13 -0.3 0.88
0 8 -13 -0.15 0.86
0 8 -13 -0.36 0.79
0 8 -14 1.26 0.9
0 8 -15 0.51 0.96
0 9 0 0.05 0.22
0 9 0 0.16 0.28
0 9 -1 375.79 7.17
0 -9 -1 385.25 7.79
0 9 -1 386.22 7.83
0 9 1 382.18 7.64
0 9 -1 381.26 7.52
0 -9 -2 1718.07 32.96
0 9 2 1749.36 32.81
0 -9 2 1785.28 33.42
0 -9 -2 1736.38 32.59
0 9 -2 1734.7 32.59
0 9 -2 1776.67 32.86
0 -9 -3 107.15 2.42
0 9 -3 103.63 2.41
0 9 -3 109.52 2.59
0 9 -3 109.74 2.42
0 9 3 107.14 2.37
0 -9 -3 105.93 2.47
0 -9 3 107.36 3.02
0 9 -4 161 3.5
0 9 -4 167.07 3.67
0 -9 -4 169.61 3.68
0 -9 -4 165.93 3.4
0 9 -4 171.93 3.8
0 9 4 170.85 4.11
0 -9 4 163.49 4.22
0 9 4 163.81 3.34
0 -9 -5 81.09 2.17
0 9 -5 76.53 2.14
0 9 -5 79.64 1.91
0 9 5 78.92 2.4
0 -9 5 79.14 2.57
0 9 -5 80.71 2.42
0 9 -6 286.37 6.22
0 -9 -6 299.45 6.27
0 9 -6 270.71 5.78
0 9 -6 296.88 6.47
0 -9 6 289.77 6.71
0 9 6 291.38 6.47
0 9 -7 4.81 0.41
0 -9 7 5.04 0.75
0 9 -7 4.89 0.73
0 9 7 5.63 0.73
0 9 -7 5 0.63
0 9 -7 6.44 0.68
0 -9 -7 5.62 0.66
0 9 -8 6.35 0.81
0 -9 8 5.3 0.81
0 9 -8 5.78 0.72
0 -9 -8 6.81 0.75
0 9 -8 6.25 0.76
0 9 8 7.3 0.83
0 -9 9 7.39 0.93
0 9 -9 7.35 0.91
0 -9 -9 5.58 0.82
0 9 -9 7.59 0.89
0 9 -9 6.86 0.86
0 -9 -10 58.27 2.32
0 9 -10 58.98 2.34
0 -9 10 55.24 2.32
0 9 -10 59.25 2.35
0 9 -10 59.68 2.22
0 9 -11 -0.06 0.64
0 -9 -11 0.91 0.7
0 9 -11 0.49 0.64
0 -9 11 1.01 0.72
0 -9 -12 6.82 1.1
0 9 -12 6.56 1.05
0 9 -12 6.83 1.02
0 -9 12 7.85 1.06
0 -9 -13 0.07 0.86
0 9 -13 0.07 0.86
0 9 -13 0.22 0.76
0 9 -14 0.16 0.83
0 9 -15 0.25 0.88
0 10 0 1.51 0.3
0 10 0 1.78 0.4
0 -10 -1 351.48 7.4
0 10 1 354.78 7.26
0 10 -1 363.27 7.45
0 10 -1 352.39 7.12
0 10 -2 61.46 1.44
0 -10 -2 61.07 1.42
0 -10 -2 61.26 1.8
0 -10 2 62.73 2.09
0 10 2 63.18 1.68
0 10 -2 65.65 1.7
0 10 -3 482.32 9.13
0 10 -3 448.32 8.88
0 -10 -3 464 8.89
0 10 3 440.68 8.89
0 -10 -3 443.48 9.04
0 -10 3 463.2 9.74
0 10 -4 42.84 1.26
0 -10 -4 47.28 1.38
0 10 -4 46 1.37
0 -10 -4 47.44 1.25
0 10 -4 44.85 1.48
0 10 4 46.7 1.74
0 -10 4 46.81 1.85
0 10 4 46.16 1.17
0 10 -5 49.34 1.37
0 10 5 51.08 1.85
0 10 -5 48.25 1.55
0 -10 -5 49.99 1.56
0 -10 5 48.95 1.96
0 10 -5 50.66 1.84
0 10 -6 20.27 1
0 -10 -6 20.29 1
0 10 -6 18.8 1.12
0 -10 6 17.98 1.22
0 10 6 20.25 1.15
0 10 -7 265.56 5.97
0 -10 -7 272.59 6
0 -10 7 256.66 6.38
0 10 -7 271.96 6.21
0 10 7 276.54 6.23
0 10 -7 273.9 6.14
0 10 -7 250.49 5.43
0 -10 -8 85.79 2.67
0 10 -8 85.04 2.67
0 10 -8 90.02 2.79
0 -10 8 80.72 2.88
0 10 -8 85.9 2.74
0 10 -9 5.42 0.8
0 -10 -9 5.95 0.8
0 10 -9 4.98 0.77
0 -10 9 5.44 0.88
0 10 -9 4.25 0.82
0 10 -10 -0.28 0.61
0 -10 10 0.18 0.66
0 10 -10 0.59 0.64
0 -10 -10 0.43 0.64
0 -10 11 32.17 1.82
0 -10 -11 31.02 1.78
0 10 -11 33.48 1.8
0 10 -11 34.45 1.8
0 10 -12 2.99 0.87
0 -10 -12 2.71 0.91
0 10 -12 2.66 0.85
0 -10 12 1.64 0.81
0 10 -13 1.49 0.95
0 -10 -13 1.09 0.93
0 10 -13 1.66 0.84
0 10 -14 0.54 0.81
0 11 0 0.07 0.25
0 11 0 0.05 0.33
0 11 1 97.47 2.35
0 11 -1 95.45 2.61
0 -11 -1 96.47 2.63
0 11 1 99.61 2.5
0 11 -1 95.01 2.34
0 -11 -2 292.1 5.86
0 11 -2 303.62 5.88
0 -11 2 306.91 6.85
0 -11 -2 293.57 6.42
0 11 2 305.51 6.24
0 11 -2 318.65 6.25
0 11 -3 50.38 1.38
0 11 -3 55.37 1.61
0 -11 -3 52.45 1.39
0 -11 3 53.51 2
0 -11 -3 52.18 1.59
0 11 3 54.94 1.47
0 11 -4 60.71 1.62
0 11 -4 61.88 1.68
0 -11 -4 61.04 1.69
0 -11 -4 63.47 1.66
0 11 -4 64.73 1.87
0 11 4 64.8 2.18
0 -11 4 62.69 2.26
0 11 4 61.61 1.54
0 11 -5 107.34 2.54
0 11 5 112.55 3.16
0 -11 -5 110.95 2.74
0 11 -5 106.7 2.71
0 -11 5 106.61 3.31
0 11 -5 111.58 3.13
0 11 6 111.71 3.13
0 -11 6 100.14 3.28
0 11 -6 101.77 3.06
0 -11 -6 105.58 2.8
0 11 -6 104.77 2.77
0 11 -7 0.66 0.31
0 11 -7 0.04 0.45
0 11 7 0.54 0.52
0 11 -7 0.41 0.61
0 -11 7 0.88 0.58
0 11 -7 1.69 0.49
0 -11 -7 1.29 0.5
0 -11 8 92.96 3.16
0 11 -8 94.99 2.98
0 -11 -8 97.43 2.88
0 11 -8 90.7 2.81
0 11 -8 91.66 2.92
0 11 -9 16.71 1.16
0 -11 -9 16.76 1.16
0 11 -9 16.21 1.27
0 -11 9 16.05 1.31
0 11 -9 16.54 1.18
0 -11 10 3.04 0.82
0 11 -10 4.39 0.8
0 11 -10 3.42 0.79
0 -11 -10 4.21 0.81
0 11 -11 -0.23 0.64
0 -11 -11 0.24 0.67
0 -11 11 -0.95 0.75
0 11 -11 -0.37 0.7
0 -11 -12 18.57 1.47
0 11 -12 19.77 1.5
0 -11 12 16.55 1.49
0 11 -12 19.98 1.51
0 -11 -13 6.04 1.13
0 11 -13 5.8 1.06
0 11 -13 6.39 1.09
0 11 -14 -0.38 0.82
0 12 0 860.47 16.95
0 -12 0 844.64 17.15
0 12 0 879.16 16.65
0 12 1 100.67 2.41
0 12 -1 95.35 2.38
0 -12 -1 92.5 2.67
0 12 1 98.11 2.54
0 12 -1 93.82 2.66
0 12 -2 40.32 1.32
0 -12 2 43.1 1.74
0 12 2 41.91 1.34
0 -12 -2 40.07 1.46
0 12 -2 40.22 1.02
0 -12 -2 38.67 0.99
0 12 -3 457.54 8.77
0 -12 -3 423.57 8.42
0 12 -3 417.68 8.44
0 -12 3 434.98 9.44
0 12 3 434.47 8.58
0 -12 -3 429.56 8.8
0 12 -4 563.02 11.32
0 -12 -4 592.64 11.39
0 12 -4 568.33 11.37
0 -12 -4 585.27 11.45
0 12 -4 604.75 11.65
0 12 4 613.48 12.2
0 -12 4 574.77 12.32
0 12 4 571.98 11.25
0 -12 -5 1.09 0.36
0 12 -5 1.25 0.36
0 12 -5 1.43 0.31
0 12 -5 1.26 0.52
0 -12 5 0.8 0.56
0 12 5 0.95 0.22
0 12 -5 1.1 0.48
0 12 5 1.05 0.5
0 -12 6 41.53 1.95
0 12 -6 39.8 1.74
0 12 6 39.42 1.73
0 -12 -6 42.87 1.52
0 12 -6 41.48 1.49
0 -12 -7 33.29 1.4
0 12 -7 27.02 1.02
0 12 -7 30.95 1.36
0 -12 7 32.11 1.72
0 12 -7 34.14 1.63
0 12 7 31.22 1.53
0 -12 -8 59.68 2.13
0 12 -8 62.23 2.13
0 -12 8 61.66 2.49
0 12 -8 58.56 2.28
0 12 -8 61.86 2.26
0 12 -8 55.9 1.6
0 12 -9 12.59 1.02
0 -12 -9 12.3 1.03
0 12 -9 10.14 1.03
0 -12 9 11.95 1.21
0 -12 10 2.81 0.84
0 12 -10 2.66 0.74
0 12 -10 3.85 0.75
0 -12 -10 3.32 0.75
0 12 -11 4.6 0.9
0 -12 -11 5.27 0.9
0 12 -11 4.51 0.9
0 -12 11 4.62 0.98
0 -12 -12 3.94 0.94
0 12 -12 2.9 0.88
0 12 -12 3.35 0.9
0 -12 12 2.58 0.95
0 12 -13 1.11 0.88
0 -12 -13 1.64 0.97
0 12 -13 1.09 0.83
0 12 -14 4.29 1.08
0 13 0 -0.02 0.29
0 -13 0 0.35 0.36
0 13 0 0.37 0.37
0 13 -1 372.91 7.64
0 -13 -1 365.71 8.06
0 13 1 373.06 7.83
0 13 -1 376 8.02
0 13 1 386.4 7.66
0 13 -2 0.19 0.34
0 -13 -2 0.59 0.34
0 13 2 0.56 0.33
0 -13 2 1.03 0.46
0 13 -3 67.54 1.94
0 13 -3 65.48 1.65
0 -13 -3 67.05 1.63
0 13 -3 70.28 2.26
0 -13 3 65.55 2.41
0 13 3 67.79 1.84
0 -13 -3 65 2
0 13 -4 1.74 0.33
0 13 -4 1.59 0.31
0 -13 -4 1.87 0.31
0 13 4 0.98 0.51
0 13 -4 1.91 0.48
0 -13 4 2.26 0.62
0 13 4 1.28 0.31
0 -13 -4 0.72 0.34
0 -13 -5 388.37 7.8
0 13 -5 382.57 7.8
0 13 -5 365.57 7.63
0 13 -5 395.66 8.02
0 13 5 393.25 8.49
0 -13 5 379.07 8.76
0 13 5 366.66 7.43
0 13 -5 394.68 8.42
0 -13 -6 0.18 0.35
0 13 -6 0.47 0.39
0 13 -6 0.18 0.27
0 13 6 -0.05 0.54
0 13 -6 0.09 0.55
0 -13 6 0.24 0.56
0 13 -7 1.94 0.34
0 13 -7 2.57 0.76
0 -13 7 2.9 0.8
0 13 -7 2.85 0.55
0 -13 -7 3.38 0.56
0 13 -8 3.59 0.41
0 13 -8 4.09 0.72
0 -13 8 4.97 0.87
0 -13 -8 4.09 0.67
0 13 -8 4.17 0.65
0 13 -9 80.87 2.66
0 -13 -9 85.86 2.75
0 13 -9 85.01 2.86
0 -13 9 74.53 3.01
0 -13 10 1.59 0.83
0 13 -10 2.41 0.68
0 -13 -10 2.77 0.78
0 13 -10 2.69 0.73
0 -13 11 0.28 0.78
0 -13 -11 0.23 0.65
0 13 -11 -0.51 0.7
0 13 -11 -0.25 0.69
0 -13 12 0.29 0.82
0 -13 -12 0.13 0.81
0 13 -12 0.44 0.76
0 13 -12 0.07 0.71
0 -13 -13 9.21 1.29
0 13 -13 9 1.23
0 13 -13 9.65 1.23
0 13 -14 -0.08 0.84
0 -14 0 618.36 12.85
0 14 0 608.7 12.54
0 14 0 631.22 12.23
0 14 -1 184.96 4.14
0 14 1 183.38 4.13
0 14 1 188.31 4.34
0 -14 -1 185.54 4.59
0 14 -1 184.8 4.49
0 14 -2 30.8 1.39
0 -14 -2 29.43 1.32
0 14 2 27.89 1.15
0 14 2 29.93 0.77
0 14 -2 30.4 1.16
0 14 -3 68.89 2
0 14 -3 65.93 1.64
0 -14 -3 67.19 1.63
0 -14 -3 63.11 2.05
0 14 -3 72.34 2.34
0 -14 3 67.48 2.53
0 14 3 68.49 1.9
0 -14 -4 251.69 5.81
0 14 -4 267.73 5.67
0 14 -4 263.17 5.54
0 -14 -4 268.08 5.55
0 14 4 289.21 6.54
0 -14 4 260.66 6.6
0 14 4 269.2 5.59
0 14 -4 284.77 5.92
0 14 -5 21.67 0.94
0 14 -5 18.85 0.86
0 -14 -5 21.68 0.94
0 14 5 24.85 1.38
0 -14 5 21.29 1.43
0 14 5 20.29 0.77
0 14 -5 22.39 1.31
0 14 -5 22.07 1.11
0 14 -6 58.39 1.69
0 14 -6 58.25 1.85
0 -14 -6 58.33 1.87
0 -14 6 58.96 2.47
0 14 -6 64.3 2.31
0 14 6 58.98 2.25
0 -14 7 13.28 1.26
0 -14 -7 16.02 0.98
0 14 -7 15.24 0.95
0 14 -8 33.82 1.47
0 -14 -8 33.07 1.48
0 14 -8 28.66 1.08
0 -14 8 32.24 1.89
0 14 -8 33.79 1.62
0 14 -9 2.25 0.69
0 -14 9 3.31 0.88
0 14 -9 2.93 0.68
0 -14 -9 1.56 0.63
0 -14 10 26.92 1.82
0 -14 -10 25.94 1.47
0 14 -10 25.86 1.47
0 14 -10 25.4 1.57
0 -14 11 4.23 1.01
0 14 -11 4.83 0.93
0 -14 -11 4.31 0.86
0 14 -11 5.14 0.92
0 -14 -12 1.02 0.84
0 14 -12 1.11 0.79
0 14 -12 0.89 0.75
0 -14 12 1.13 0.9
0 -14 -13 0.9 0.88
0 14 -13 0.6 0.79
0 14 -13 0.65 0.81
0 14 -14 7.41 1.22
0 15 0 0.07 0.33
0 -15 0 -0.14 0.41
0 15 0 0.1 0.39
0 15 -1 137.11 3.26
0 15 1 140.27 3.27
0 15 1 134.86 3.43
0 15 -1 130.51 3.55
0 -15 -1 134.02 3.67
0 -15 -2 495.07 10.14
0 15 2 495.73 9.82
0 15 -2 509.06 10.24
0 -15 2 467.68 9.12
0 15 2 477.38 9.1
0 15 -2 500.54 9.77
0 15 -3 22.19 1.05
0 15 -3 20.81 0.75
0 -15 -3 23.61 1.15
0 -15 3 23.15 1.45
0 15 3 23 0.99
0 15 -3 23.95 1.28
0 15 -4 19.44 0.9
0 -15 -4 18.37 0.77
0 15 -4 18.53 0.77
0 15 -4 19.37 1.03
0 -15 -4 18.44 1
0 15 4 19.97 1.28
0 15 4 19.65 0.86
0 -15 4 18.3 1.34
0 15 -5 80.05 2.16
0 -15 -5 83.03 2.18
0 15 -5 80.07 2.15
0 15 5 82.52 2.8
0 15 -5 88.7 2.48
0 -15 5 81.75 3.03
0 15 5 75.48 1.99
0 15 -5 85.15 2.74
0 15 -6 83.51 2.74
0 -15 6 76.39 2.94
0 -15 -6 76.5 2.19
0 15 -6 73.62 2.15
0 15 -6 72.6 2.03
0 -15 7 -0.07 0.58
0 15 -7 -0.37 0.43
0 -15 -7 0.24 0.43
0 -15 8 13.1 1.32
0 15 -8 12.72 0.72
0 15 -8 15.01 1
0 -15 -8 16.21 1.04
0 15 -9 27.41 1.03
0 -15 9 28.36 1.86
0 15 -9 33.72 1.72
0 15 -9 31.33 1.5
0 -15 -9 30.19 1.49
0 -15 10 13.86 1.44
0 -15 -10 14.08 1.17
0 15 -10 14.88 1.17
0 15 -10 15.88 1.31
0 -15 11 5.2 1.14
0 -15 -11 6.15 1.01
0 15 -11 4.1 0.86
0 15 -11 6.16 1.01
0 15 -12 5.7 1.01
0 15 -12 3.86 0.93
0 -15 -12 3.72 0.99
0 -15 12 2.59 1.08
0 -15 -13 0.14 0.9
0 15 -13 1.12 0.85
0 15 -13 0.51 0.76
0 15 -14 2.18 0.96
0 16 0 41.72 1.64
0 -16 0 42.08 1.83
0 16 0 42.28 1.44
0 16 -1 255.86 5.56
0 16 1 261.11 5.55
0 16 -1 257.22 5.94
0 16 1 253.11 5.76
0 -16 -1 255.32 6.08
0 16 2 1.79 0.14
0 -16 2 1.61 0.16
0 16 -2 2.83 0.5
0 16 2 2.27 0.46
0 16 2 2.01 0.47
0 -16 -2 2.43 0.51
0 16 -2 2.01 0.63
0 16 -3 236.42 5.21
0 -16 -3 224.77 5.37
0 -16 3 233.69 6
0 16 3 227.94 5.08
0 16 -3 225.17 5.54
0 -16 -4 12.91 0.64
0 16 -4 13.4 0.66
0 16 -4 13.31 0.78
0 16 -4 14.76 0.91
0 -16 -4 13.24 0.9
0 16 4 14.77 1.17
0 16 4 12.75 0.74
0 -16 4 13.81 1.19
0 16 -5 11.52 0.67
0 16 -5 10.77 0.7
0 -16 -5 10.44 0.66
0 -16 -5 10.77 0.78
0 16 -5 10.08 0.86
0 16 5 10.12 1.03
0 -16 5 10.64 1.14
0 16 5 10.91 0.62
0 16 -5 11.64 1.04
0 -16 -6 3.65 0.51
0 16 -6 3.91 0.5
0 16 -6 2.92 0.44
0 -16 6 1.6 0.74
0 -16 7 96.31 3.57
0 -16 -7 108.34 2.89
0 16 -7 102.69 2.84
0 16 -8 0.31 0.33
0 -16 -8 0.28 0.5
0 16 -8 0.19 0.5
0 -16 8 0.82 0.82
0 16 -9 1.13 0.37
0 16 -9 1.93 0.69
0 16 -9 2.94 0.67
0 -16 -9 2.16 0.64
0 -16 9 2.4 0.92
0 16 -10 0.98 0.68
0 -16 10 1.82 0.95
0 16 -10 1.78 0.68
0 -16 -10 1.59 0.69
0 -16 11 18.96 1.75
0 -16 -11 23.4 1.53
0 16 -11 24.04 1.53
0 16 -11 25.79 1.68
0 -16 12 0.49 0.99
0 16 -12 2.25 0.85
0 -16 -12 1.8 0.85
0 16 -12 1.21 0.81
0 16 -13 0.51 0.79
0 17 0 0.35 0.37
0 -17 0 0.26 0.49
0 17 0 0.91 0.5
0 17 -1 31.36 1.25
0 -17 -1 31.2 1.54
0 17 1 32.97 1.4
0 -17 1 32.6 1.7
0 17 -1 30.62 1.46
0 17 1 31.73 1.24
0 17 -2 250.37 5.59
0 17 2 261.63 5.6
0 17 2 257.37 5.7
0 -17 -2 246.5 5.98
0 17 -2 247.32 5.98
0 17 -3 20.07 1.08
0 -17 -3 21.03 1.19
0 -17 3 21.22 0.72
0 17 3 20.95 0.7
0 -17 3 20.65 1.43
0 17 3 22.06 1.05
0 17 -3 22.68 1.32
0 17 -4 36.31 1.36
0 17 -4 33.9 1.44
0 17 4 35.72 1.82
0 -17 -4 33.91 1.49
0 -17 4 33.09 1.89
0 17 4 34.65 1.29
0 -17 -5 21.81 1.12
0 17 -5 22.17 1.02
0 -17 -5 22.25 0.93
0 17 -5 21.29 0.93
0 17 5 23.53 0.95
0 -17 5 21.26 1.55
0 17 -6 118.3 2.99
0 -17 -6 118.63 3
0 17 -6 112.43 2.9
0 -17 6 125.07 4.06
0 -17 -7 10.43 0.82
0 17 -7 11.24 0.81
0 17 -7 10.29 0.69
0 -17 7 9.51 1.18
0 -17 8 50.08 2.48
0 -17 -8 51.34 1.85
0 17 -8 48.88 1.79
0 -17 9 0.48 0.81
0 17 -9 0.87 0.63
0 17 -9 0.77 0.36
0 -17 -9 1.21 0.62
0 17 -9 0.96 0.55
0 17 -10 7.35 1
0 17 -10 6.61 0.9
0 -17 10 7.34 1.2
0 -17 -10 8.02 0.98
0 -17 11 1.01 0.95
0 17 -11 0.71 0.73
0 -17 -11 0.61 0.72
0 17 -11 1.6 0.79
0 17 -12 9.89 1.18
0 17 -12 13.28 1.37
0 -17 12 14.08 1.64
0 17 -13 0.22 0.8
0 18 0 340.01 7.59
0 -18 0 335.01 7.98
0 18 0 350.98 7.26
0 18 -1 217.62 4.88
0 18 -1 211.69 5.23
0 -18 1 213.28 5.65
0 18 1 211.76 5.09
0 -18 -1 215.54 5.45
0 18 1 219.28 4.86
0 18 -2 67.64 2.13
0 18 2 75.3 2.17
0 18 -2 72.77 2.46
0 18 2 71.57 2.23
0 -18 -2 68.46 2.44
0 18 -3 114.94 2.99
0 18 -3 110.06 3.27
0 18 3 116.17 2.91
0 18 3 106.33 2.28
0 -18 -3 116.36 3.26
0 18 4 81.92 2.31
0 -18 4 82.78 3.16
0 -18 -4 83.17 2.61
0 18 5 16.61 0.84
0 -18 5 17.76 1.5
0 18 -5 16.19 0.91
0 -18 -5 16.46 1.03
0 18 -6 4.59 0.55
0 -18 -6 5.47 0.58
0 18 -6 4.11 0.53
0 18 6 4.81 0.48
0 -18 6 4.34 0.96
0 -18 7 46.63 2.38
0 -18 -7 46.91 1.66
0 18 -7 43.69 1.49
0 18 -7 42.13 1.59
0 -18 8 43.24 2.38
0 -18 -8 44.77 1.74
0 18 -8 44.88 1.73
0 18 -9 1.66 0.42
0 18 -9 1.89 0.71
0 18 -9 2.25 0.66
0 -18 -9 2.11 0.67
0 -18 9 0.59 0.86
0 18 -10 3.04 0.85
0 -18 10 1.11 0.96
0 18 -10 1.94 0.71
0 -18 -10 3.07 0.77
0 -18 11 10.31 1.44
0 18 -11 11.37 1.15
0 18 -11 14.21 1.35
0 18 -12 3.93 1.02
0 -18 12 2.75 1.1
0 18 -13 0.6 0.82
0 19 0 0.29 0.44
0 -19 0 0.17 0.54
0 19 0 0.29 0.52
0 19 -1 126.49 3.61
0 -19 -1 131.28 3.85
0 -19 1 133.02 4.05
0 19 1 131.64 3.55
0 19 1 128.56 3.26
0 19 -1 132.59 3.32
0 19 -2 4.43 0.65
0 19 2 4.89 0.64
0 19 2 4.64 0.68
0 -19 -2 5.15 0.77
0 19 -2 3.91 0.75
0 -19 -3 118.81 3.27
0 19 3 100.21 2.11
0 -19 3 95.67 2.12
0 19 3 115.76 2.91
0 -19 -4 24.32 1.33
0 19 4 24.36 1.13
0 -19 4 22.15 1.62
0 19 4 23.09 0.83
0 -19 4 21.85 0.84
0 19 5 149.71 3.56
0 -19 5 153.31 4.78
0 -19 -5 154.05 3.97
0 19 -5 146.79 3.71
0 -19 6 2.79 0.95
0 19 6 2.8 0.46
0 19 -6 4.22 0.55
0 19 -7 3.58 0.59
0 -19 7 3.32 0.97
0 19 -7 3.35 0.53
0 19 -8 14.11 0.97
0 -19 8 13.85 1.46
0 -19 9 42.51 2.42
0 19 -9 45.3 1.79
0 -19 10 1.78 1.04
0 19 -10 1.88 0.72
0 19 -10 1.45 0.77
0 19 -11 0.99 0.78
0 -19 11 1.81 1.06
0 19 -12 0.07 0.79
0 -19 12 0.64 1.05
0 19 -13 3.45 1
0 20 0 17.31 0.96
0 20 0 14.83 1.08
0 -20 0 13.72 1.18
0 20 -1 8.62 0.92
0 -20 -1 7.87 0.91
0 20 1 7.41 0.82
0 -20 1 7.35 0.98
0 -20 -2 8.95 0.95
0 20 2 7.75 0.82
0 -20 -3 7.6 0.87
0 20 3 8.08 0.79
0 -20 -4 174.43 4.44
0 -20 4 165.51 5.05
0 20 4 167.34 4.02
0 -20 4 156.25 3.48
0 20 4 163.34 3.47
0 20 5 5.95 0.52
0 -20 -5 6.19 0.83
0 -20 5 5.69 1.1
0 20 -5 6.98 0.72
0 20 5 7.15 0.68
0 20 6 79.43 2.13
0 20 -6 80.46 2.36
0 -20 6 86.85 3.43
0 20 -7 1.41 0.45
0 -20 7 1.72 0.92
0 -20 8 19.56 1.8
0 -20 9 2.27 1.01
0 20 -9 1.24 0.46
0 20 -10 14.85 1.37
0 -20 10 14.58 1.67
0 -20 11 -0.06 0.74
0 -20 11 -0.09 0.97
0 20 -11 -0.43 0.8
0 -20 12 -0.1 1.02
0 20 -12 -0.53 0.81
0 20 -13 1.33 0.91
0 -21 0 0.63 0.67
0 21 0 -0.14 0.64
0 21 1 232.14 5.62
0 -21 -1 236.75 6.05
0 -21 1 234.09 6.24
0 21 2 77.48 2.47
0 -21 2 75.63 3.04
0 -21 -2 76.33 2.76
0 -21 -3 40.78 1.89
0 21 3 42.74 1.68
0 -21 4 2.33 0.88
0 -21 -4 2.98 0.72
0 21 4 2.43 0.58
0 21 4 2.22 0.32
0 -21 4 1.84 0.3
0 -21 5 54.62 1.6
0 21 5 55.99 1.59
0 21 -5 55.04 1.95
0 -21 5 62.09 2.83
0 21 5 56.66 1.83
0 -21 -5 62.18 2.26
0 -21 6 33.23 2.14
0 21 -6 29.33 1.31
0 21 -7 2.21 0.54
0 -21 7 3.58 1.07
0 -21 8 3.95 1.14
0 21 -9 10.99 0.78
0 -21 9 13.49 1.58
0 -21 10 1.14 1.12
0 21 -10 1.8 0.81
0 -21 11 0.58 1.04
0 21 -11 1.02 0.83
0 21 -12 1.08 0.87
0 -22 0 9.21 1.11
0 22 1 100.97 3.04
0 -22 -1 97.57 3.36
0 -22 1 101 3.58
0 -22 2 14.17 1.35
0 22 2 15.82 1.12
0 -22 -2 16.39 1.24
0 22 3 78.45 2.46
0 -22 -3 74.25 2.73
0 -22 4 13.87 1.41
0 22 4 15.34 1.01
0 22 4 11.94 0.47
0 -22 4 12.45 0.48
0 -22 5 19.88 0.84
0 22 -5 21.6 1.19
0 22 5 22.39 1.13
0 -22 5 23.92 1.84
0 -22 -5 21.32 1.37
0 -22 6 16.72 0.89
0 -22 6 20.59 1.76
0 22 -6 17.63 1.04
0 -22 7 51.28 2.74
0 22 -7 49.94 1.76
0 -22 8 1.71 1.1
0 -22 9 -0.58 1.03
0 22 -9 0.09 0.43
0 -22 10 4.53 0.93
0 22 -10 2.84 0.88
0 -22 10 3.05 1.2
0 -22 11 14.86 1.79
0 22 -11 16.66 1.53
0 22 -12 0.7 0.82
0 -23 0 -0.35 0.66
0 -23 -1 1.25 0.71
0 -23 1 0.37 0.69
0 -23 2 145.27 4.64
0 23 2 143.18 3.88
0 -23 -2 141.87 4.26
0 23 3 9.63 0.93
0 -23 -3 8.1 1.01
0 23 4 15.45 1.07
0 -23 -4 16.46 1.26
0 -23 5 0.27 0.91
0 -23 -5 0.75 0.69
0 23 -5 1.04 0.56
0 -23 5 0.59 0.31
0 -23 6 46.7 2.61
0 23 -6 40.35 1.65
0 23 -7 2.98 0.61
0 -23 7 3.18 1.1
0 -23 8 18.99 1.86
0 -23 9 -0.06 0.7
0 -23 9 -0.6 1.03
0 -23 10 3.19 0.88
0 23 -10 3.63 0.96
0 -23 10 2.34 1.17
0 23 -11 2.53 0.97
0 -24 0 53.16 2.49
0 -24 -1 63.13 2.67
0 -24 1 62.99 2.79
0 -24 -2 0.65 0.7
0 -24 2 0.58 0.74
0 24 3 75.95 2.52
0 -24 -3 77.81 2.89
0 24 4 33.12 1.54
0 -24 -4 36.7 1.86
0 -24 5 0.71 0.27
0 24 -5 0.79 0.56
0 -24 -5 0.11 0.67
0 -24 5 0.66 0.85
0 24 -6 0.57 0.53
0 -24 6 0.97 0.97
0 -24 7 26.12 2.08
0 24 -7 26.76 1.29
0 -24 8 8.13 1.02
0 -24 8 7.91 1.43
0 -24 9 1.18 0.76
0 -24 9 -0.1 1.01
0 24 -10 0.82 0.84
0 -24 10 -0.31 1.09
0 24 -11 5.44 1.11
0 -25 0 0.46 0.73
0 -25 1 46.15 2.4
0 -25 -1 45.88 2.29
0 -25 2 39.82 2.32
0 -25 -2 44.45 2.18
0 -25 3 1.8 0.88
0 -25 -3 1.6 0.73
0 -25 -4 11.63 1.2
0 25 -5 30.78 1.46
0 -25 5 33.94 2.23
0 25 -6 0.52 0.55
0 -25 6 0.1 0.92
0 -25 7 0.38 0.72
0 -25 7 0.41 1.02
0 -25 8 6.19 0.99
0 -25 8 6.89 1.45
0 -25 9 15.35 1.84
0 -25 9 15.39 1.34
0 25 -10 -0.08 0.8
0 25 -11 -0.16 0.9
0 -26 0 142.45 4.61
0 -26 -1 1.93 0.88
0 -26 1 1.84 0.94
0 -26 -2 2.25 0.85
0 -26 2 1.85 0.94
0 -26 -3 0.33 0.69
0 -26 3 1.39 0.93
0 -26 -4 60.81 2.48
0 26 -4 46.98 1.98
0 -26 5 5.14 1.25
0 26 -5 4.02 0.74
0 26 -6 5.52 0.8
0 -26 6 6.94 1.42
0 -26 6 5.66 0.95
0 -26 7 0.32 0.95
0 -26 7 -0.29 0.75
0 -26 8 9.55 1.57
0 -26 8 10.24 1.16
0 26 -10 9.25 1.3
0 -27 0 0.41 0.83
0 -27 1 64.55 2.98
0 -27 -1 61.29 2.77
0 -27 2 25.21 1.96
0 -27 -2 24.95 1.75
0 -27 -3 5.12 1.01
0 -27 3 4.03 1.19
0 27 -4 1.83 0.68
0 -27 -4 1.87 0.85
0 27 -5 52.42 2.09
0 -27 6 0.21 0.99
0 27 -6 -0.14 0.62
0 -27 6 0.64 0.75
0 -27 7 0.48 0.78
0 -27 7 0.22 1.11
0 -27 8 0.78 0.79
0 -27 8 0.77 1.2
0 27 -10 4.93 1.12
0 -28 0 17.3 1.65
0 -28 1 8.24 1.33
0 -28 -1 9.17 1.26
0 -28 -2 0.38 0.76
0 -28 2 0.57 0.89
0 -28 -3 34.08 2.02
0 -28 3 34.81 2.36
0 28 -4 25.01 1.47
0 -28 -4 25.81 1.77
0 28 -5 7.25 0.92
0 -28 6 13.63 1.27
0 -28 6 18.06 1.94
0 -28 7 17.57 1.48
0 -28 7 21.26 2.12
0 -29 0 1.13 0.9
0 -29 1 -0.37 0.91
0 -29 -1 -0.17 0.82
0 -29 -2 31.42 2.06
0 -29 2 39.34 2.46
0 -29 -3 2.97 0.96
0 -29 3 0.71 1.04
0 29 -4 1.15 0.67
0 -29 -4 1.7 0.89
0 -29 4 1.06 1.09
0 29 -5 1.34 0.71
0 -29 6 10.3 1.61
0 -30 0 1.17 0.92
0 -30 -1 23.5 1.84
0 -30 1 25.34 2.04
0 -30 2 2.88 1.14
0 -30 -2 2.09 0.95
0 -30 -3 51.48 2.58
0 -30 3 51.13 2.92
0 30 -4 1.06 0.71
0 -30 -4 0.07 0.86
0 -30 4 0.11 1.04
0 30 -5 0.05 0.65
0 -31 0 0.28 0.93
0 -31 1 10.88 1.51
0 -31 -1 11.36 1.46
0 -31 2 18.36 1.9
0 -31 -2 17.42 1.69
0 -31 -3 7.08 1.26
0 -31 3 4.16 1.28
0 31 -4 1.9 0.76
0 -31 4 3.21 1.29
0 -32 0 24.74 2.06
0 -32 -1 0.45 0.96
0 -32 1 0.5 1.05
0 -32 2 -0.1 1.05
0 -32 -2 -0.86 1.01
0 -32 -3 0.08 0.93
0 -32 3 0.76 1.1
0 32 -4 11.91 1.16
0 -33 0 0.39 0.99
0 -33 1 17.97 1.89
0 -33 -1 17.87 1.8
0 -33 -2 0.18 0.96
0 -33 2 -1.07 1.15
0 -33 -3 5.47 1.23
0 -34 0 13.76 1.72
0 -34 -1 1.61 1.08
0 -34 -2 1.08 1.04
0 -34 -3 1.95 1.08
0 34 -3 1.91 0.79
0 -35 -1 1.26 1.13
0 -35 -2 7.13 1.38
1 0 -14 7.18 1.32
1 0 -13 0.35 0.86
1 0 -13 -0.75 0.92
1 0 -12 12.58 1.36
1 0 -12 12.4 1.37
1 0 -11 0.67 0.39
1 0 -11 0.36 0.7
1 0 -10 49.96 2.24
1 0 -10 46.17 1.48
1 0 -9 -0.23 0.56
1 0 -9 0.08 0.37
-1 0 8 2.34 0.47
1 0 -8 3.08 0.65
1 0 -8 2.82 0.51
-1 0 7 0.82 0.42
1 0 -7 0.82 0.48
1 0 -6 359.1 7.45
-1 0 6 366.79 7.55
1 0 -5 0.14 0.26
1 0 -5 -0.2 0.3
-1 0 5 -0.23 0.3
1 0 -4 77.02 2.13
-1 0 4 76.04 2
1 0 -4 73.3 1.91
-1 0 3 0.16 0.21
1 0 -3 0.07 0.2
-1 0 2 9999 181.9
1 0 -2 9611.08 182.19
1 0 -2 9639.99 182.18
1 0 -1 0.08 0.15
1 0 -1 -0.06 0.15
1 0 -1 0.01 0.13
-1 0 0 201.8 4.16
1 0 0 202.01 4.08
-1 0 -1 0.18 0.18
1 0 2 987.88 18.47
1 0 3 0.02 0.22
1 0 3 0.07 0.13
1 0 4 13.18 0.56
-1 0 -4 14.15 0.64
1 0 4 13.58 0.65
1 0 5 0.04 0.22
1 0 5 0.35 0.24
-1 0 -5 0.02 0.24
1 0 6 237.2 5.02
-1 0 -6 220.67 5.35
-1 0 -6 239.01 5.19
1 0 6 231.58 5
1 0 7 -0.05 0.36
1 0 7 0.34 0.35
-1 0 -7 -0.17 0.4
-1 0 -7 1.01 0.49
-1 0 -8 92.96 2.83
-1 0 -8 99.08 2.72
1 0 8 90.98 2.32
1 0 9 0.13 0.24
1 0 9 0.17 0.39
-1 0 -9 0.43 0.51
-1 0 -9 0.33 0.6
-1 0 -10 47.98 2.19
-1 0 -10 48.76 2.1
1 0 10 46.9 1.6
-1 0 -11 0.19 0.66
1 0 11 0.02 0.41
-1 0 -12 13 1.32
1 0 13 -1.07 1.01
-1 -1 14 3.18 1
1 -1 -14 3.5 1.1
1 1 -14 1.88 1.03
1 -1 -13 0.18 0.82
1 1 -13 1.29 0.9
1 -1 -13 0.41 0.91
1 1 -13 0.74 0.95
1 1 -12 8.5 1.18
1 -1 -12 5.57 1.09
1 1 -12 7.34 1.15
1 -1 -12 5.85 1.11
1 -1 -11 28.32 0.9
-1 -1 11 26.05 0.86
1 -1 -11 33.09 1.88
1 1 -11 35.56 1.9
1 1 -10 4.81 0.83
1 -1 -10 5.48 0.9
1 -1 -10 5.47 0.5
1 1 -10 2.74 0.48
-1 1 9 0.07 0.42
1 -1 -9 0.23 0.53
1 1 -9 0.17 0.49
1 1 -9 0.12 0.42
1 -1 -9 0.02 0.36
1 -1 -8 30.25 1.16
1 1 -8 31.5 1.31
-1 1 8 33.18 1.33
1 1 -8 28.4 1.5
1 -1 -7 274.62 5.78
1 1 -7 272.45 5.93
-1 1 7 266.77 6.09
-1 1 7 261.51 5.85
1 -1 -6 2.72 0.42
1 1 -6 2.46 0.47
-1 1 6 2.08 0.49
-1 1 6 1.82 0.43
1 1 -5 55.59 1.63
-1 -1 5 55.87 1.63
-1 1 5 59.58 1.74
1 -1 -5 53.6 1.53
1 1 -5 50.02 1.78
1 -1 -5 59.65 1.87
-1 1 4 214.88 4.44
1 1 -4 199.42 4.32
1 -1 -4 201.99 4.55
1 1 -4 204.58 4.52
-1 1 3 189.44 3.89
1 1 -3 170.12 3.89
1 -1 -3 177.2 3.96
-1 -1 3 175.56 3.45
1 1 -2 0.99 0.26
1 -1 -2 0.63 0.26
1 -1 -2 0.93 0.23
1 1 -2 0.59 0.25
-1 1 2 0.53 0.21
-1 -1 2 0.64 0.18
1 -1 -1 469.44 9.17
1 -1 -1 477.79 9.02
1 1 -1 463.14 8.99
1 -1 -1 478.79 9.12
1 -1 0 568.8 10.93
-1 -1 0 571.56 11.01
-1 1 0 581.33 11.01
1 -1 0 594.24 10.96
-1 1 0 567.5 10.67
1 -1 0 563.75 10.68
1 -1 0 581.5 10.8
1 -1 1 130.8 2.63
-1 1 -1 136.52 2.95
-1 -1 -1 137 2.94
1 -1 1 129.31 2.71
1 1 2 37.28 0.96
1 -1 3 1070.45 20.24
1 1 3 1063.38 20.34
1 -1 3 1021.99 20.57
-1 1 -4 121.96 2.66
1 1 4 110.94 2.68
1 -1 4 121.23 2.82
1 -1 4 121.01 2.59
1 1 4 118.58 2.65
-1 1 -5 3.83 0.4
-1 -1 -5 4.77 0.46
1 1 5 3.97 0.39
1 -1 5 4.44 0.43
1 -1 5 4.34 0.37
1 1 5 4.09 0.39
1 1 6 47.94 1.42
1 -1 6 48.1 1.51
-1 -1 -6 46.51 1.73
-1 1 -6 42.87 1.66
-1 1 -6 49.55 1.55
-1 -1 -6 50.05 1.66
1 -1 6 46.02 1.42
1 1 6 47.4 1.48
1 -1 7 248.26 5.14
1 1 7 250.69 4.99
-1 -1 -7 256.24 5.61
-1 1 -7 256.49 5.61
-1 1 -7 260.55 5.33
-1 -1 -7 271.71 5.53
1 1 7 269.51 5.22
1 -1 8 34.96 1.31
1 1 8 34.8 1.19
-1 -1 -8 35.99 1.64
-1 1 -8 33.81 1.61
-1 -1 -8 35.9 1.56
-1 1 -8 34.92 1.47
1 1 8 36.44 1.37
1 1 9 13.44 0.77
1 -1 9 12.09 0.84
1 1 9 9.34 0.54
-1 -1 -9 13.07 1.11
-1 1 -9 12.1 1.07
1 -1 9 15.85 0.99
-1 1 -9 14.1 1.04
-1 -1 -9 13.76 1.07
1 1 9 14.22 0.93
-1 -1 -10 28.72 1.68
-1 1 -10 29.46 1.69
1 -1 10 32.52 1.43
-1 -1 -10 31.07 1.68
-1 1 -10 31.47 1.59
1 1 10 27.16 1.08
1 -1 10 28.21 1.27
-1 1 -11 24.99 1.56
-1 -1 -11 26.09 1.66
1 -1 11 22.04 1.11
-1 1 -12 -0.61 0.71
-1 -1 -12 -0.29 0.82
1 -1 12 0.66 0.89
-1 1 -13 3.27 0.99
1 -1 13 5.36 1.27
1 2 -14 0.66 0.9
1 -2 -14 0.4 0.95
-1 -2 14 0.4 0.84
1 -2 -13 2.72 1.05
1 -2 -13 2.96 0.95
1 2 -13 2.38 0.96
-1 -2 13 3.02 0.9
1 -2 -12 9.37 1.29
1 -2 -12 11.71 1.34
1 2 -12 12.22 1.3
-1 -2 11 0.17 0.25
1 2 -11 0.42 0.67
1 -2 -11 -0.22 0.69
1 -2 -11 0.19 0.2
-1 -2 10 5.91 0.39
1 -2 -10 6.07 0.44
1 2 -10 8.61 1.01
1 -2 -10 7.14 0.97
-1 2 10 7.22 0.74
1 -2 -9 74.34 1.9
1 -2 -9 75.35 2.79
1 2 -9 75.33 2.72
-1 2 9 80.51 2.36
1 -2 -8 30.04 1.04
1 2 -8 27.33 1.43
-1 2 8 33.93 1.47
-1 2 8 29.8 1.25
1 -2 -7 3.53 0.48
1 2 -7 2.71 0.56
-1 2 7 2.2 0.47
-1 2 7 3.3 0.6
1 -2 -6 161.17 3.59
1 2 -6 162.15 3.84
-1 2 6 163.2 4
-1 2 6 164.78 3.87
1 2 -5 585.57 11.77
1 -2 -5 578.02 11.52
1 2 -5 606.33 11.82
-1 2 5 614.98 11.84
1 -2 -5 599.85 12.09
-1 2 4 30.91 1.11
1 2 -4 27.28 1.03
1 2 -4 24.59 1.01
1 -2 -4 27.46 1.13
1 2 -4 28.45 1.11
1 2 -3 150.06 3.34
-1 2 3 156.82 3.35
1 2 -3 145.56 3.37
1 -2 -3 153.39 3.45
-1 -2 3 145.24 2.87
1 -2 -2 253.44 5.46
1 2 -2 269.75 5.1
-1 -2 1 31.04 0.68
1 2 -1 29.56 0.79
1 -2 -1 30.36 0.9
1 -2 0 232.8 4.65
-1 2 0 233.03 4.72
1 -2 0 239.69 4.68
-1 2 0 234.12 4.44
1 -2 0 228.01 4.45
-1 2 0 229.93 4.5
1 -2 0 229.78 4.52
1 -2 1 1143.94 21.44
-1 2 -1 1136.93 21.45
1 -2 1 1161.87 21.51
-1 2 -1 1137.63 21.68
1 2 1 1145.55 21.69
-1 2 -1 1160 21.74
1 -2 2 406.22 7.85
1 -2 2 405.54 7.71
1 2 2 406.37 8.05
1 -2 2 400.45 8.08
1 -2 3 11.58 0.6
1 2 3 10.57 0.59
1 -2 3 9.58 0.3
1 -2 3 10.61 0.51
-1 2 -3 11.08 0.39
1 2 3 9.86 0.48
1 -2 3 11.79 0.61
1 -2 4 109.65 2.66
1 2 4 103.94 2.48
-1 2 -4 112.54 2.41
1 2 4 105.01 2.48
1 -2 4 106.47 2.57
1 -2 5 494.55 3.88
1 2 5 463.4 3.16
-1 2 -5 488.84 3.33
1 2 5 484.31 3.47
1 2 6 13.68 0.66
1 -2 6 15.43 0.81
-1 -2 -6 14.88 0.92
-1 -2 -6 14.24 0.87
-1 2 -6 14.08 0.75
1 2 6 13.99 0.76
-1 -2 -7 2.31 0.52
1 2 7 0.68 0.43
1 -2 7 1.75 0.46
-1 -2 -7 1.26 0.46
-1 2 -7 1.95 0.42
1 -2 7 1.55 0.41
1 2 7 1.93 0.37
1 2 8 86.88 2.24
1 -2 8 83.42 2.51
1 -2 8 90.88 2.53
-1 -2 -8 86.91 2.86
-1 -2 -8 89.88 2.84
-1 2 -8 90.14 2.65
1 2 8 97.98 2.61
1 -2 9 36.55 1.5
1 2 9 37.62 1.23
1 -2 9 40.8 1.55
-1 -2 -9 36.56 1.78
-1 -2 -9 40.6 1.81
-1 2 -9 37.97 1.63
1 2 9 40.76 1.57
-1 -2 -10 4.97 0.9
1 -2 10 2.79 0.63
-1 2 -10 3.68 0.75
-1 -2 -10 3.76 0.82
1 -2 10 3.48 0.64
1 2 10 3.72 0.45
1 2 10 2.63 0.41
1 2 10 4.16 0.73
-1 -2 -11 7.39 1.07
-1 2 -11 6.44 0.94
1 -2 11 7.43 1.07
1 -2 11 5.37 0.73
-1 2 -12 8.43 1.13
1 -2 12 11.69 1.32
-1 2 -13 9.65 1.28
1 -2 13 19.71 1.68
-1 2 -14 -0.39 0.81
1 -3 -14 4.43 1.18
1 3 -14 2.2 0.97
-1 -3 14 4.31 1.05
1 3 -13 -0.08 0.81
1 -3 -13 0.83 0.88
-1 -3 13 0.12 0.84
1 -3 -13 -0.82 0.87
-1 -3 12 11.57 1.18
1 -3 -12 10.93 1.33
1 -3 -12 10.56 1.31
1 3 -12 11.43 1.26
1 3 -11 1.49 0.55
-1 -3 11 0.57 0.14
1 3 -11 1.05 0.72
1 -3 -11 0.38 0.67
1 3 -10 23.13 1.15
1 -3 -10 16.14 0.51
-1 3 10 21.89 1.13
-1 -3 10 14.14 0.48
1 -3 -10 20.46 1.47
1 3 -10 23.54 1.49
1 -3 -9 0.85 0.32
-1 3 9 1.25 0.57
1 -3 -9 0.73 0.6
1 3 -9 1.34 0.6
-1 -3 9 0.82 0.22
-1 3 8 168.42 3.63
1 -3 -8 161.67 3.06
-1 3 8 172.12 3.88
1 3 -8 160.95 4.03
1 3 -7 0.03 0.27
1 -3 -7 1.91 0.38
-1 3 7 1.77 0.45
-1 3 7 1 0.48
-1 -3 7 1.51 0.15
1 -3 -6 48.77 1.34
-1 3 6 43.33 1.56
1 3 -6 46.57 1.61
-1 3 6 46.91 1.69
1 3 -5 8.18 0.59
-1 3 5 9.78 0.69
1 3 -5 8.18 0.64
1 -3 -5 6.69 0.64
1 3 -4 1178.87 23.09
-1 3 4 1264.1 23.14
1 3 -4 1187.63 23.1
1 -3 -4 1213.29 23.34
1 3 -4 1197.92 23.22
-1 3 3 2.85 0.36
1 -3 -3 2.56 0.34
-1 -3 3 1.95 0.24
1 3 -3 2.69 0.39
-1 -3 2 38.63 0.97
1 -3 -2 37.48 1.21
1 3 -2 41.03 0.91
1 3 -1 130.11 2.63
-1 -3 1 136.17 2.62
1 -3 -1 134.08 2.89
-1 3 0 2777.75 51.98
-1 3 0 2828.73 51.98
-1 3 0 2805.6 51.74
1 3 0 2785.19 51.67
1 -3 0 2775.85 51.83
-1 3 0 2751.26 51.79
1 3 1 24 0.8
-1 3 -1 25.04 0.84
-1 3 -1 24.57 0.69
1 -3 1 23.24 0.66
-1 3 -1 23.39 0.67
-1 3 -1 24.06 0.82
1 -3 1 21.92 0.84
1 -3 2 228.01 4.6
-1 3 -2 231.82 4.78
1 -3 2 228.89 4.87
1 3 2 228.59 4.79
1 -3 3 22.3 0.9
1 3 3 22.21 0.88
1 -3 3 21.87 0.86
1 -3 3 21.94 0.78
1 3 3 21.65 0.81
-1 3 -3 22.03 0.61
1 -3 4 605.72 11.69
1 -3 4 589.8 11.53
1 -3 4 595.64 11.62
1 -3 4 578.61 11.5
1 3 4 569.42 11.46
-1 3 -4 593.05 11.29
1 -3 5 0.54 0.38
1 -3 5 0.45 0.31
1 3 5 -0.08 0.26
1 -3 5 0.07 0.28
-1 3 -5 -0.37 0.28
1 3 5 0.13 0.28
1 -3 5 -0.11 0.17
1 -3 6 90.74 2.53
1 3 6 95.4 2.23
-1 3 -6 92.61 2.38
1 3 6 92.58 2.43
1 -3 7 11.39 0.78
1 3 7 10.99 0.58
-1 3 -7 11.39 0.73
1 3 7 10.85 0.76
-1 -3 -7 11.5 0.9
1 -3 7 11.42 0.74
1 3 8 69.62 1.88
1 -3 8 72.51 2.3
-1 -3 -8 76.28 2.58
1 -3 8 79.55 2.25
-1 3 -8 75.66 2.32
-1 -3 -8 76.7 2.6
1 3 8 75.82 2.27
1 -3 9 -0.16 0.46
1 3 9 0.27 0.31
1 -3 9 -0.23 0.51
-1 -3 -9 0.22 0.54
-1 3 -9 -0.3 0.53
-1 -3 -9 -0.06 0.54
1 -3 9 -0.29 0.59
1 3 9 -0.04 0.51
1 -3 10 33.05 1.48
1 3 10 24.45 0.82
1 3 10 23.25 0.98
1 -3 10 35.01 1.75
-1 3 -10 35.7 1.63
1 3 10 36.05 1.54
1 -3 10 34.55 1.41
-1 -3 -10 31.03 1.72
1 -3 11 4 0.69
1 -3 11 3.79 0.66
1 -3 11 4.81 0.95
-1 3 -11 3.4 0.81
1 -3 12 1.6 0.92
-1 3 -12 0.82 0.72
1 -3 13 0.39 1.01
-1 3 -13 0.35 0.8
-1 3 -14 4.28 1.09
-1 -4 14 1.22 0.88
1 4 -14 0.36 0.9
1 -4 -14 2.06 1.1
-1 -4 13 11.06 1.23
1 -4 -13 8.59 1.35
1 -4 -13 11.33 1.45
1 4 -13 10.07 1.33
-1 -4 12 1.79 0.76
1 -4 -12 1.84 0.9
1 4 -12 1.76 0.82
1 -4 -12 1.47 0.88
1 4 -11 -0.21 0.65
1 -4 -11 -0.31 0.7
-1 -4 11 -0.26 0.68
1 4 -11 0.07 0.52
1 -4 -10 4.97 0.95
1 4 -10 5.04 0.85
-1 -4 10 5.08 0.8
1 4 -10 5.56 0.76
-1 4 10 4.91 0.71
1 4 -9 123.58 3.51
1 -4 -9 116.43 3.59
-1 4 9 130.06 3.08
1 4 -9 121.41 3.08
-1 4 8 12.08 0.87
1 -4 -8 10.83 0.53
1 4 -8 11.01 1
-1 4 8 11.78 1
-1 4 7 44.68 1.61
1 -4 -7 44.83 1.3
-1 4 7 45.01 1.74
1 -4 -6 19.21 0.64
1 4 -6 18.99 0.87
-1 4 6 19.39 0.92
-1 4 6 17.88 0.95
1 -4 -6 18.95 1.07
1 4 -5 462.13 9.13
-1 4 5 451.43 9.2
1 -4 -5 426.39 9.4
1 4 -5 447.55 9.2
-1 -4 4 13.03 0.63
1 4 -4 11.99 0.67
1 -4 -4 13.33 0.8
1 4 -4 13.01 0.77
1 -4 -3 244.86 5.22
-1 -4 3 234.61 4.84
-1 -4 2 77.46 1.71
1 -4 -2 77.15 2.02
1 4 -1 232.01 4.49
-1 -4 1 236.46 4.49
1 -4 -1 229.7 4.78
-1 4 1 222.51 4.71
-1 4 0 131.77 2.83
-1 4 0 130.93 2.66
-1 4 0 128.7 2.7
1 4 0 126.97 2.58
-1 4 0 131.7 2.83
-1 4 -1 1275.54 24.01
1 4 1 1260.42 23.96
-1 4 -1 1267.14 24.02
-1 4 -1 1272.09 23.82
1 -4 1 1273.53 23.79
-1 4 -1 1255.9 23.81
-1 4 -1 1272.4 23.72
1 -4 1 1289.5 24.12
1 4 2 24.25 0.85
-1 4 -2 21.77 0.6
-1 4 -2 22.52 0.75
1 -4 2 22.75 0.74
-1 4 -2 23.03 0.85
1 -4 2 22.05 0.88
1 -4 3 164.06 3.69
1 -4 3 160.05 3.56
1 -4 3 160.17 3.5
1 4 3 160.99 3.61
-1 4 -3 176.35 3.74
1 -4 3 159.07 3.46
1 4 3 161.98 3.6
-1 4 -3 155.32 3.21
1 -4 4 67.56 1.95
1 -4 4 64.69 1.77
1 -4 4 67.28 1.86
-1 4 -4 71.04 1.97
1 -4 4 66.1 1.8
1 4 4 67.99 1.84
-1 4 -4 65.42 1.59
1 -4 5 753.79 4.96
1 4 5 725.6 3.7
-1 4 -5 712.66 4.9
1 -4 5 769.39 4.83
1 -4 5 769.24 5.25
-1 4 -5 761.34 4.04
1 4 5 741.34 4.7
1 -4 6 34.71 1.34
-1 4 -6 35.38 1.22
1 4 6 36.84 1.33
1 -4 6 35.45 1.4
1 4 6 37.23 1.08
1 -4 7 0.19 0.38
-1 -4 -7 0.13 0.46
-1 4 -7 0.14 0.3
1 4 7 -0.18 0.4
1 -4 7 -0.35 0.41
1 4 7 0.22 0.24
1 -4 7 0.39 0.38
1 -4 8 22.81 1.23
1 -4 8 21.7 1.05
-1 -4 -8 20.75 1.26
-1 4 -8 20.26 1.08
1 4 8 23.27 1.16
1 -4 8 19.85 1.14
1 4 8 20.38 0.76
1 4 9 69.72 1.71
1 -4 9 72.3 2.45
1 -4 9 81.5 2.63
-1 -4 -9 74.55 2.69
1 -4 9 79.79 2.27
-1 4 -9 77.4 2.45
1 4 9 86.55 2.5
1 -4 10 9.52 0.93
1 -4 10 9.9 1.04
1 -4 10 9.25 0.81
-1 4 -10 10.94 0.99
1 4 10 10.59 0.99
1 -4 11 12.96 1.23
-1 4 -11 9.92 1.04
1 -4 11 10.23 0.98
1 -4 11 10.47 0.87
-1 4 -12 6.76 1.01
1 -4 12 9.63 1.23
-1 4 -13 3.91 0.98
1 -4 13 7.65 1.25
-1 4 -14 -0.6 0.89
1 -5 -14 2.32 1.13
1 5 -14 3.41 1.06
-1 -5 14 3.81 0.98
1 -5 -13 -0.72 0.88
1 5 -13 -0.08 0.92
1 -5 -13 -0.19 0.85
1 5 -13 -0.17 0.81
-1 -5 13 -0.95 0.81
1 -5 -12 2.46 0.91
1 5 -12 1.36 0.88
-1 -5 12 0.88 0.74
1 -5 -12 0.71 0.81
1 5 -12 1.46 0.82
1 5 -11 14.95 1.32
1 -5 -11 14.86 1.42
1 5 -11 16.62 1.13
-1 -5 11 15.99 1.24
1 5 -10 19.62 1.39
-1 -5 10 19.73 1.28
1 -5 -10 18.63 1.46
1 5 -10 18.47 1.21
-1 5 9 2.74 0.62
1 -5 -9 3.57 0.82
1 5 -9 3.48 0.76
-1 -5 9 2.77 0.66
1 5 -9 4.35 0.76
-1 -5 8 89.85 2.57
-1 5 8 85.47 2.47
-1 5 8 86.02 2.64
1 5 -8 85.39 2.81
1 5 -8 91.47 2.65
-1 -5 7 151.87 3.82
-1 5 7 152.67 3.85
1 5 -7 155.15 3.8
-1 5 7 162.68 4.05
1 5 -7 142.27 4.05
1 -5 -7 163.67 3.34
-1 -5 6 28.55 1.16
1 -5 -6 26.08 1.38
-1 5 6 28.38 1.3
1 5 -6 30.51 1.2
-1 5 6 31.02 1.28
1 -5 -6 29.27 0.9
1 5 -5 235.63 2.82
1 -5 -5 222.48 3.37
-1 -5 4 224.43 4.84
1 5 -4 234.96 4.97
1 -5 -4 240.9 5.32
1 5 -4 230.22 5.12
-1 -5 3 341.07 6.74
1 -5 -3 339.16 7.19
-1 -5 2 3.7 0.27
1 5 -2 3.72 0.29
1 -5 -2 3.56 0.37
1 5 -1 498.49 9.52
-1 -5 1 508.37 9.53
1 -5 -1 497.3 9.86
-1 5 1 495.38 9.77
-1 5 0 189.75 3.78
-1 5 0 186.57 3.89
-1 -5 0 174.43 3.86
-1 5 0 189 3.85
1 5 0 183.84 3.69
-1 5 0 200.05 3.96
1 5 1 646.17 12.39
-1 5 -1 643.33 12.46
-1 -5 -1 621.45 12.44
1 -5 1 666.07 12.41
-1 5 -1 634.06 12.29
1 -5 1 635.59 12.27
-1 5 -1 676.45 12.51
1 -5 1 651.18 12.61
1 5 2 191.79 4.13
1 -5 2 199.99 4.15
-1 5 -2 189 3.84
-1 5 -2 201.89 4.2
1 -5 2 189.18 4.29
1 -5 2 194.92 4.02
-1 5 -2 198.64 4.04
1 5 3 562.8 11.16
1 -5 3 559.65 11.15
1 -5 3 560.23 11.01
1 -5 3 568.84 11.06
1 5 3 571.18 11.1
-1 5 -3 565.14 11.14
1 -5 3 566.68 11.11
1 -5 3 584.33 11.34
1 -5 4 328.39 3.43
1 -5 4 334.73 2.83
1 -5 4 321.31 3.01
-1 5 -4 332.98 3.4
1 -5 4 326.33 2.87
1 5 4 323.65 3.13
-1 5 -4 316.58 2.24
1 -5 5 17.91 0.88
1 -5 5 18.68 0.84
1 5 5 18.51 0.84
1 -5 5 18.03 0.8
1 5 5 16.93 0.79
-1 5 -5 18.38 0.67
1 5 6 154.95 3.27
1 -5 6 149.22 3.82
1 -5 6 151.49 3.72
1 5 6 155.02 3.71
-1 5 -6 157.14 3.53
-1 5 -7 102.26 2.83
-1 5 -7 97 2.98
1 -5 7 113.32 2.74
1 -5 7 100.4 2.94
1 5 7 102.45 2.32
1 5 7 106.68 2.83
-1 5 -7 109.51 2.76
1 -5 7 105.7 2.92
-1 -5 -8 36.25 1.66
-1 5 -8 32.7 1.61
1 -5 8 35.7 1.35
1 -5 8 34.49 1.55
1 5 8 38.67 1.53
-1 5 -8 36.28 1.45
1 -5 8 32.99 1.54
1 5 8 34.45 0.96
1 -5 9 0.69 0.55
1 -5 9 0.8 0.49
-1 5 -9 0.7 0.67
-1 5 -9 0.32 0.47
1 -5 9 0.8 0.61
1 5 9 0.6 0.55
1 -5 10 38.49 1.82
1 -5 10 34.78 1.38
-1 5 -10 34.85 1.64
1 -5 10 30.54 1.58
1 -5 11 18.22 1.4
-1 5 -11 17.18 1.25
1 -5 11 18.42 1.25
1 -5 11 14.79 0.97
-1 5 -12 0.36 0.65
1 -5 12 -0.07 0.82
-1 5 -13 0.74 0.8
1 -5 13 0.74 0.96
-1 5 -14 4.11 1.04
1 -6 -14 2.15 1.17
1 6 -14 1.51 0.93
1 -6 -13 0.4 0.85
1 6 -13 -0.25 0.81
-1 -6 13 -0.5 0.78
1 6 -13 -0.16 0.95
1 -6 -13 -0.4 0.86
-1 -6 12 10 1.12
1 6 -12 9.49 1.25
1 -6 -12 10.36 1.26
1 6 -12 10.08 1.27
1 -6 -12 7.08 1.22
1 -6 -11 2.53 0.9
1 6 -11 1.08 0.75
1 -6 -11 1.49 0.84
1 6 -11 1.41 0.82
-1 -6 11 0.81 0.71
1 6 -11 1.85 0.71
1 6 -10 54.42 2.36
-1 -6 10 51.83 2.11
1 -6 -10 53.79 2.54
1 6 -10 53.86 2.08
-1 -6 9 20.36 1.22
1 6 -9 19.62 1.36
-1 6 9 23.09 1.2
1 6 -9 20.88 1.27
-1 -6 8 39.55 1.61
1 6 -8 37.48 1.77
-1 6 8 37.96 1.67
1 6 -8 38.77 1.69
-1 6 8 37.02 1.55
-1 6 7 6.45 0.7
1 6 -7 5.56 0.59
-1 6 7 5.57 0.71
1 6 -7 6 0.73
-1 -6 7 5.52 0.64
1 -6 -7 4.08 0.29
1 -6 -7 5.15 0.39
1 6 -7 5.73 0.77
-1 -6 6 395.19 8.17
-1 6 6 401.81 8.45
1 -6 -6 388.74 7.67
1 6 -6 413.04 8.23
1 -6 -5 30.78 1.42
1 6 -5 30.18 1.17
1 -6 -4 23.71 1.08
-1 -6 4 21.43 0.76
1 -6 -3 5.41 0.53
1 -6 -3 5.45 0.39
-1 -6 3 4.82 0.37
1 -6 -2 1176.07 22.77
1 -6 -2 1169.47 22.49
-1 -6 2 1196.28 22.3
1 6 -2 1188.13 22.31
1 6 -1 0.49 0.17
-1 -6 1 0.62 0.16
-1 6 1 0.31 0.23
-1 6 0 26.27 0.83
1 6 0 29.18 1.04
-1 6 0 28.37 0.92
1 6 0 25.98 0.76
-1 6 0 28.35 0.86
-1 -6 0 28.49 0.87
-1 6 -1 76.55 1.82
1 6 1 70.02 1.75
1 -6 1 73.6 1.77
-1 -6 -1 75.27 1.83
-1 6 -1 74.43 1.88
1 -6 1 74.25 1.98
1 -6 1 72.18 1.72
-1 6 -1 71 1.71
1 6 2 1400.47 26.75
1 -6 2 1408.46 26.75
-1 6 -2 1397.14 26.67
1 -6 2 1424.4 26.66
-1 6 -2 1446.89 26.82
1 -6 2 1419.93 27.02
1 -6 3 34.04 1.14
1 6 3 32.96 1.13
-1 6 -3 28.42 0.75
1 -6 3 35.63 1.09
-1 6 -3 35.55 1.11
1 -6 3 35.96 1.14
1 6 3 36.02 1.12
-1 6 -3 34.9 1.16
1 -6 3 33.76 1.07
1 -6 3 35.73 1.3
1 -6 4 234.31 3.01
1 -6 4 238.29 2.41
1 -6 4 236.08 2.56
1 6 4 234.97 2.68
1 -6 4 238.85 2.51
-1 6 -4 227.66 1.95
1 6 4 231.54 2.82
-1 6 -5 82.73 2.05
1 -6 5 81.56 2.23
1 6 5 83.55 2.32
1 -6 5 84.77 2.46
1 -6 6 212.3 4.88
-1 6 -6 223.4 4.99
-1 6 -6 220.61 4.7
1 6 6 217.92 4.91
1 -6 6 209.5 5.05
1 6 6 210.11 4.36
1 -6 7 1.87 0.44
1 -6 7 1.68 0.5
1 6 7 1.75 0.25
-1 6 -7 2.33 0.56
1 -6 7 1.72 0.49
-1 6 -7 1.42 0.37
1 6 7 1.81 0.5
-1 6 -8 60.07 2.16
1 -6 8 62.34 1.77
-1 6 -8 61.07 1.95
1 -6 8 62.71 2.07
-1 6 -8 60.34 1.88
1 6 8 60.22 1.95
1 -6 8 59.93 2.11
1 6 8 49.53 1.12
1 -6 9 0.26 0.43
1 6 9 0.67 0.55
-1 6 -9 0.24 0.47
1 -6 9 0.28 0.55
1 -6 9 1.14 0.61
1 -6 10 11.41 0.83
1 -6 10 15.15 1.2
-1 6 -10 13.28 1.04
1 -6 10 13.49 1.1
1 -6 11 2.09 0.56
-1 6 -11 2.61 0.72
1 -6 11 2.85 0.8
1 -6 11 2.51 0.76
1 -6 12 14.23 1.34
-1 6 -12 9.06 1.07
-1 6 -13 0.72 0.74
1 -6 13 0.29 0.87
1 7 -14 -0.62 0.85
1 -7 -14 -0.87 1.12
1 7 -13 1.58 0.85
1 -7 -13 1.42 0.98
1 -7 -13 1.95 1.01
1 7 -13 0.84 0.96
-1 -7 13 2.61 0.9
1 -7 -12 0.95 0.91
1 7 -12 0.77 0.78
-1 -7 12 2.09 0.86
1 -7 -12 2.18 0.96
1 7 -12 1.44 0.81
1 7 -11 37.99 1.97
1 -7 -11 43.06 2.11
-1 -7 11 42.22 1.93
1 -7 -11 39.68 2.29
1 7 -11 37.41 1.84
1 7 -11 42.62 2.15
-1 -7 10 3.88 0.78
1 7 -10 4.26 0.88
1 -7 -10 5.54 0.97
1 7 -10 4 0.88
1 7 -9 0.51 0.64
-1 -7 9 1.09 0.59
1 7 -9 -0.24 0.6
-1 7 9 0.28 0.52
-1 -7 8 24.67 1.26
1 7 -8 24.4 1.42
-1 7 8 23.07 1.24
1 7 -8 24.37 1.35
-1 -7 7 208.42 4.74
-1 7 7 214.04 5
1 7 -7 208.69 5.12
1 7 -7 201.42 4.95
1 -7 -7 192.27 3.88
1 -7 -7 206.08 3.95
1 7 -7 207.8 4.68
-1 7 6 0.38 0.43
1 -7 -6 0.41 0.44
-1 -7 6 0.95 0.39
-1 -7 6 0.59 0.43
1 -7 -6 -0.04 0.23
1 7 -6 1.05 0.55
1 7 -6 0.15 0.31
-1 7 5 169.42 4.06
1 -7 -5 169.86 4.36
1 -7 -5 163.51 3.46
-1 -7 5 162.03 4.15
1 7 -5 167 3.85
1 -7 -4 0.78 0.34
-1 -7 4 0.28 0.17
1 -7 -4 0.72 0.21
-1 -7 4 0.38 0.31
-1 -7 3 427.34 8.36
1 7 -3 425.07 8.38
1 -7 -3 424.8 8.93
1 -7 -3 420.04 8.39
-1 -7 3 427.36 8.88
1 -7 -2 0.2 0.26
1 -7 -2 0.22 0.25
-1 -7 2 0.15 0.19
1 7 -2 -0.01 0.22
-1 7 1 693.23 13.7
-1 -7 1 720.6 13.42
1 7 -1 694.91 13.37
-1 7 0 22.52 0.75
-1 -7 0 23.61 0.77
1 7 0 24.06 0.98
-1 7 0 22.29 0.78
-1 7 0 23.7 0.88
1 7 0 21.66 0.7
-1 7 0 24.84 0.95
-1 7 -1 514.74 9.63
1 -7 1 499.12 9.57
-1 -7 -1 509.03 9.64
1 7 1 473.58 9.56
1 -7 1 482.39 9.55
-1 7 -1 479.44 9.55
-1 7 -1 501.62 9.76
1 -7 1 489.57 9.92
1 7 1 489.13 9.8
-1 7 -2 0.57 0.22
1 -7 2 0.96 0.26
1 7 2 0.94 0.25
-1 7 -2 0.55 0.26
1 -7 2 0.79 0.22
1 7 2 0.78 0.27
1 -7 2 0.69 0.27
-1 7 -3 455.91 9.11
1 -7 3 459.59 9.08
1 7 3 456.38 9.15
1 -7 3 452.54 9.16
1 -7 3 454.22 9.05
1 7 3 469.21 9.11
1 -7 3 459.38 9.1
-1 7 -3 456.84 9.19
1 -7 3 462.47 9.47
-1 7 -4 53.48 1.29
1 -7 4 27.51 0.84
1 7 4 50.39 1.28
1 -7 4 -0.02 0.17
1 -7 4 49.27 1.2
1 7 4 0.04 0.15
1 -7 4 51.86 1.22
1 7 4 51.52 1.44
1 -7 4 52.98 1.51
-1 7 -5 1.49 0.29
-1 7 -5 1.93 0.46
1 -7 5 2.18 0.47
1 -7 5 1.44 0.36
1 7 5 1.43 0.41
1 -7 6 12.7 0.8
1 -7 6 15.87 1
-1 7 -6 14.93 0.92
1 7 6 12.89 0.54
-1 7 -6 14.23 0.75
1 7 6 14.55 0.89
1 -7 7 218.55 4.79
1 7 7 217.82 4.28
1 -7 7 212.83 5.04
1 7 7 215.89 5.06
-1 7 -7 218.11 4.87
1 7 7 215.86 4.27
1 -7 7 208.05 5.24
-1 7 -7 215.02 5.09
1 -7 8 3.26 0.69
-1 7 -8 2.26 0.65
1 -7 8 2.06 0.51
1 -7 8 3.31 0.66
1 7 8 3.92 0.65
-1 7 -8 3.29 0.56
-1 7 -9 29.27 1.42
1 -7 9 30.32 1.21
1 -7 9 27.32 1.46
-1 7 -9 29.54 1.38
1 7 9 30.15 1.46
1 -7 9 24.77 1.51
1 -7 10 2.22 0.72
1 -7 10 2.32 0.53
1 -7 10 2.7 0.72
-1 7 -10 3.01 0.66
1 -7 11 30.46 1.31
-1 7 -11 36.98 1.73
1 -7 11 36.46 1.83
1 -7 11 33.46 1.76
1 -7 12 0.07 0.78
1 -7 12 0.43 0.72
-1 7 -12 -0.35 0.72
-1 7 -13 2.61 0.85
1 -7 13 5.31 1.11
1 8 -14 1.06 0.92
1 8 -13 5.36 1.07
1 -8 -13 4.69 1.24
-1 -8 13 6.89 1.06
1 8 -13 6.4 1.16
1 -8 -13 6.55 1.19
-1 -8 12 28.56 1.65
1 -8 -12 24.01 1.96
1 8 -12 22.19 1.63
1 -8 -12 24.76 1.76
1 8 -12 27.81 1.83
1 -8 -11 6.35 1.05
1 8 -11 6 0.94
1 8 -11 5.72 1.01
1 -8 -11 5.44 1.13
-1 -8 11 5.32 0.9
1 8 -11 5.05 0.95
1 8 -10 31.51 1.81
1 -8 -10 30.83 1.95
-1 -8 10 34.75 1.66
1 8 -10 31.87 1.7
-1 -8 9 42.35 1.76
1 8 -9 42.22 2
1 8 -9 38.99 1.83
-1 -8 8 15.7 1.02
1 8 -8 13.4 0.88
1 8 -8 13.21 1.1
1 8 -8 12.37 1.07
1 8 -7 20.88 1.25
-1 8 7 20.28 1.22
-1 -8 7 20.62 1.09
1 8 -7 21.5 1.07
-1 -8 7 22.5 1.3
1 -8 -7 18.19 1.35
1 8 -7 24.52 1.33
-1 8 6 85.09 2.57
-1 -8 6 81.9 2.32
-1 -8 6 82.64 2.65
1 8 -6 84.04 2.36
1 -8 -6 78.88 2.82
1 -8 -6 86.37 1.87
1 8 -6 83.63 2.62
-1 8 5 45.03 1.67
-1 -8 5 43.35 1.74
1 -8 -5 46.47 1.89
1 8 -5 47.1 1.75
1 -8 -5 46.34 1.23
-1 -8 5 43.97 1.43
-1 -8 4 8.21 0.73
1 -8 -4 7.52 0.71
1 -8 -4 7.49 0.46
-1 -8 3 275.32 6.09
1 -8 -3 267.89 6.12
1 -8 -3 270.31 5.58
1 8 -3 267.25 5.56
-1 -8 3 272.23 5.54
-1 -8 2 560.77 11.3
-1 8 2 539.63 11.1
1 -8 -2 558.96 10.92
-1 -8 2 556.24 10.72
1 8 -2 556.17 10.72
1 8 -1 338.59 7.28
1 8 -1 344.11 6.82
-1 8 1 355.14 6.94
-1 8 1 345.6 7.18
-1 -8 1 344.65 6.87
1 -8 -1 352.09 7.14
-1 -8 0 56.2 1.42
-1 8 0 56.45 1.41
1 8 0 60.35 1.76
-1 8 0 53.88 1.48
1 8 0 57.04 1.41
-1 8 0 57.76 1.68
-1 8 -1 59.5 1.65
1 -8 1 59.25 1.48
1 8 1 56.28 1.45
-1 8 -1 58.78 1.5
-1 -8 -1 59.88 1.53
1 8 1 58.24 1.71
-1 8 -1 53.57 1.49
1 -8 1 57.5 1.52
1 -8 1 57.95 1.78
1 8 2 202.28 4.32
1 -8 2 209.19 4.35
1 8 2 199.37 4.46
1 -8 2 214.39 4.35
-1 8 -2 196.87 4.33
1 8 2 203.24 4.29
1 -8 2 206.74 4.3
-1 8 -2 211.7 4.49
1 -8 2 205.85 4.7
1 -8 3 122.36 2.87
1 8 3 121.32 2.86
1 8 3 114.51 2.81
1 -8 3 118.09 2.8
-1 8 -3 117.86 2.85
-1 8 -3 124.24 2.93
1 -8 3 122.47 2.81
1 8 3 122.45 2.8
1 -8 3 123.24 3.18
-1 8 -4 145.43 2.15
1 8 4 140.1 2.1
1 -8 4 142.24 1.98
1 -8 4 143.36 2.02
1 -8 4 140.7 2.55
1 8 4 137.63 2.44
1 8 4 138.46 1.75
1 8 5 213.61 4.48
-1 8 -5 210.32 4.59
1 -8 5 217.68 4.82
1 8 5 214.24 5.01
1 -8 5 216.39 5.16
-1 8 -5 231.45 5.09
1 8 6 147.06 3.1
1 -8 6 140.9 3.58
-1 8 -6 145.88 3.43
1 8 6 144.8 3.7
1 -8 6 144.57 3.91
-1 8 -6 153.22 3.8
1 -8 7 39.91 1.37
1 -8 7 40.44 1.57
1 -8 7 39.51 1.76
1 8 7 38.09 0.93
1 8 7 40 0.95
-1 8 -7 40.91 1.64
1 8 7 38.42 1.57
-1 8 -7 39.74 1.44
-1 8 -8 201.43 4.85
1 -8 8 195.14 4.44
1 -8 8 199.09 4.83
1 -8 8 189.29 5.08
1 8 8 199.09 4.82
-1 8 -8 197.18 4.64
-1 8 -9 33.97 1.6
1 -8 9 34.55 1.3
1 -8 9 35.42 1.64
-1 8 -9 36.21 1.54
1 -8 9 32.13 1.73
1 -8 10 3.87 0.81
1 -8 10 3.02 0.74
-1 8 -10 3.1 0.64
1 -8 10 2.46 0.53
1 -8 11 0.35 0.7
1 -8 11 -0.17 0.66
-1 8 -11 0.1 0.58
1 -8 11 -0.11 0.46
-1 8 -12 6.8 0.98
1 -8 12 5.24 0.95
1 -8 12 7.4 1.09
-1 8 -13 3.99 0.91
1 -8 13 4.02 1.04
1 9 -14 2.48 0.98
1 -9 -13 0.75 0.87
1 9 -13 1.37 0.92
-1 -9 13 -0.93 0.86
1 -9 -13 -0.43 0.95
1 9 -13 0.75 0.84
1 9 -12 19.45 1.54
1 -9 -12 18.08 1.51
1 -9 -12 16.85 1.76
1 9 -12 18.84 1.59
-1 -9 12 18.98 1.41
1 -9 -11 4.14 0.86
1 9 -11 3.06 0.84
-1 -9 11 3.6 0.81
1 9 -11 3.6 0.89
1 -9 -11 3.3 1
1 9 -10 3.33 0.84
-1 -9 10 2.69 0.74
1 9 -10 2.55 0.86
1 -9 -10 2.28 0.87
1 9 -9 3.14 0.85
-1 -9 9 2.72 0.65
1 9 -9 2.08 0.65
-1 -9 8 122.2 3.39
1 9 -8 124.22 3.75
1 9 -8 131.84 3.68
-1 -9 8 123.35 3.7
1 9 -8 127.54 3.3
1 9 -7 44.06 1.6
-1 -9 7 45.93 1.94
1 9 -7 46.82 1.93
-1 9 7 44.31 1.81
-1 -9 7 43.63 1.63
1 -9 -7 40.31 2.05
1 9 -7 46.53 1.89
1 9 -6 64.74 1.99
-1 -9 6 67.03 2.37
-1 9 6 69.01 2.25
-1 -9 6 65.32 1.98
1 -9 -6 67.6 2.57
1 -9 -6 67.42 1.56
1 9 -6 65.28 2.27
-1 -9 5 23.06 1
1 -9 -5 25.68 0.84
1 9 -5 25.14 1.28
-1 -9 5 26.22 1.34
1 -9 -5 24.12 1.37
1 -9 -4 903 16.95
1 9 -4 862.03 17.5
1 -9 -4 860.46 17.77
-1 -9 4 891.46 17.71
1 9 -3 196.69 4.21
-1 -9 3 193.19 4.17
1 -9 -3 197.43 4.24
-1 -9 3 195.86 4.77
-1 9 2 0.2 0.3
-1 -9 2 0.06 0.22
1 9 -2 -0.05 0.26
1 -9 -2 0.35 0.26
-1 -9 2 0.42 0.31
1 -9 -1 290.7 6.12
1 9 -1 279.91 6.23
1 9 -1 283.3 5.77
-1 -9 1 294.94 5.85
-1 9 1 291.2 6.21
-1 9 1 283.23 5.88
-1 9 1 295.37 6.08
1 9 0 1685.75 31.41
-1 9 0 1634.39 30.9
-1 -9 0 1667.77 30.92
-1 9 0 1569.49 31.04
1 9 0 1638.42 30.95
-1 9 0 1744.94 31.36
1 -9 1 150.53 3.29
-1 -9 -1 162.99 3.39
-1 9 -1 159.92 3.36
1 9 1 159.89 3.66
-1 9 -1 146.8 3.4
1 -9 1 158.53 3.44
-1 9 -1 160.93 3.57
1 9 2 231.46 4.83
1 -9 2 239.71 4.87
1 9 2 230.98 5.06
1 -9 2 234.99 4.91
-1 9 -2 222.59 4.91
1 -9 2 233.54 4.83
1 9 2 235.22 4.82
-1 9 -2 244.7 5.07
1 -9 2 233.54 5.32
1 -9 3 97.88 2.39
1 9 3 97.87 2.37
1 -9 3 95.3 2.32
1 9 3 89.4 2.37
-1 9 -3 90.93 2.38
1 -9 3 100.85 2.41
1 9 3 96.04 2.32
-1 9 -3 97.28 2.46
1 -9 3 92.85 2.7
-1 9 -4 467.94 3.92
1 9 4 459.62 3.77
1 -9 4 450.56 3.5
-1 9 -4 441.08 3.72
1 -9 4 459.52 3.69
-1 9 -4 483.16 4.53
1 -9 4 457.83 4.73
1 9 4 464.22 4.64
1 9 4 466.06 3.3
1 -9 5 8.93 0.64
-1 9 -5 10.38 0.81
1 -9 5 9.95 0.82
1 9 5 8.16 0.76
1 9 5 8.58 0.51
1 -9 6 14.9 1.08
1 9 6 17.53 0.65
-1 9 -6 17.78 1.08
1 -9 6 17.54 0.96
1 -9 6 16.53 0.83
1 9 6 17.08 1.02
-1 9 -6 16.7 0.84
1 -9 7 7.99 0.63
1 -9 7 8.86 0.76
1 9 7 6.83 0.29
1 -9 7 6.99 0.87
-1 9 -7 8.53 0.85
1 9 7 6.4 0.27
-1 9 -7 7.55 0.64
1 9 7 8.05 0.8
-1 9 -8 127.21 3.47
1 -9 8 121.58 3.04
1 -9 8 122.6 3.42
1 9 8 125.15 3.46
-1 9 -8 125.36 3.27
1 -9 8 115.46 3.67
1 -9 9 0.59 0.66
-1 9 -9 0.31 0.61
1 -9 9 -0.21 0.44
1 -9 9 -0.37 0.59
-1 9 -9 0.2 0.46
1 -9 10 23.89 1.08
1 -9 10 24.04 1.42
1 -9 10 19.91 1.46
-1 9 -10 22.24 1.28
-1 9 -11 1.36 0.64
1 -9 11 2.45 0.84
1 -9 11 1.49 0.79
-1 9 -12 -0.78 0.7
1 -9 12 1.37 0.82
1 -9 12 -0.51 0.82
-1 9 -13 1.36 0.79
1 -9 13 2.43 0.99
1 10 -14 2.31 1.06
1 10 -13 9.53 1.28
1 -10 -13 8.8 1.26
1 10 -13 9.04 1.26
-1 -10 13 9.63 1.18
1 -10 -12 -0.47 0.82
1 10 -12 0.13 0.8
-1 -10 12 -0.76 0.77
1 10 -12 0.08 0.77
1 -10 -12 0.31 0.94
1 10 -11 1.35 0.73
1 -10 -11 1.89 0.8
1 -10 -11 0.29 0.86
-1 -10 11 0.21 0.66
1 10 -11 1.09 0.77
-1 -10 10 36.16 1.74
1 -10 -10 37.58 2.24
1 10 -10 36.83 1.98
-1 -10 9 105.9 3.14
1 10 -9 106.66 3.51
1 10 -9 105.35 2.95
1 10 -9 106.92 3.38
-1 -10 8 13.35 0.98
1 10 -8 12.34 1.08
1 10 -8 13.13 1.14
1 10 -8 11.14 0.83
-1 -10 8 12.44 1.11
1 10 -7 24.15 1.14
-1 -10 7 24.49 1.44
1 10 -7 23.03 1.34
-1 10 7 25.56 1.35
-1 -10 7 24.01 1.17
1 -10 -7 22.63 1.56
1 10 -7 25.69 1.41
-1 -10 6 16.28 1.14
-1 10 6 16.1 1.03
-1 -10 6 13.38 0.84
1 -10 -6 16.53 1.25
1 10 -6 15.56 1.11
1 -10 -6 15.95 0.59
-1 -10 5 257.46 5.59
1 10 -5 257.96 6.06
1 -10 -5 263.89 5.33
1 -10 -5 250.46 6.35
-1 -10 5 266.86 6.25
1 10 -4 35.68 1.26
1 -10 -4 36.98 1.17
-1 -10 4 35.59 1.62
1 10 -3 245.76 5.28
1 -10 -3 256.91 5.36
-1 -10 3 258.63 5.96
-1 -10 2 0.62 0.35
1 10 -2 0.34 0.26
-1 -10 2 0.27 0.22
-1 10 2 0.03 0.2
-1 10 1 320.28 6.46
1 10 -1 300.66 6.14
-1 10 1 305.41 6.59
-1 -10 1 313.49 6.23
-1 10 1 295.33 6.23
1 -10 -1 297.9 6.47
1 10 -1 304.11 6.61
1 10 0 32.01 1
-1 10 0 28.91 1.05
-1 10 0 33.3 1.25
1 10 0 31.49 1.27
-1 -10 0 32.65 0.95
-1 10 0 32.06 0.93
1 10 1 527.66 10.46
1 -10 1 534.12 10.22
-1 10 -1 522.21 10.03
-1 -10 -1 531.53 10.06
1 -10 2 55.75 1.59
-1 10 -2 50.79 1.58
-1 10 -2 55.04 1.68
1 -10 2 57.14 1.49
1 10 2 60.48 1.51
1 -10 2 57.54 1.52
1 10 2 58.05 1.51
1 10 2 60.1 1.75
1 -10 2 56.74 1.92
-1 10 -3 60.48 1.87
1 -10 3 70.73 1.91
-1 10 -3 72.03 2
1 -10 3 70.18 2.27
1 10 3 69.44 1.92
1 10 3 70.74 1.83
1 -10 3 70.13 1.82
1 -10 3 73.36 1.91
1 10 3 73.54 1.89
1 -10 4 15.73 0.71
1 10 4 15.98 0.76
-1 10 -4 16.83 0.81
-1 10 -4 14.3 0.78
1 -10 4 15.77 0.75
1 10 4 16.32 0.99
1 10 4 15.15 0.67
-1 10 -4 16.7 0.95
1 -10 4 16.73 1
1 -10 5 484.36 9.89
1 10 5 475.1 9.89
1 -10 5 473.16 9.87
-1 10 -5 502.58 9.92
1 10 5 477.79 10.26
1 10 5 482.45 9.55
1 -10 5 483.47 10.41
-1 10 -5 514.02 10.25
-1 10 -6 116.67 3.03
1 10 6 124.05 3.43
1 -10 6 121.94 3.21
1 -10 6 118.09 3.58
-1 10 -6 133.62 3.48
1 10 6 129.82 2.75
1 -10 7 12.62 0.9
-1 10 -7 13.66 0.84
1 10 7 12.49 0.96
-1 10 -7 13.1 1.04
1 -10 7 11.36 1.06
-1 10 -8 0.39 0.44
1 10 8 1.25 0.61
1 -10 8 0.66 0.55
1 -10 8 0.35 0.61
-1 10 -8 0.35 0.58
1 -10 9 73.91 2.52
1 -10 9 70.83 2.8
-1 10 -9 79.35 2.45
-1 10 -10 3.58 0.7
1 -10 10 4.08 0.94
1 -10 10 3.29 0.76
-1 10 -11 3.1 0.72
1 -10 11 3.32 0.9
1 -10 11 4.95 0.87
-1 10 -12 2.27 0.76
1 -10 12 0.73 0.84
1 -10 12 1.87 0.81
-1 10 -13 7.24 1.06
1 -10 13 8.64 1.23
1 -11 -13 0.37 0.94
1 11 -13 -0.92 0.85
1 11 -13 0.08 0.83
-1 -11 13 -0.25 0.77
1 -11 -12 1.53 0.83
1 11 -12 1.08 0.76
-1 -11 12 0.46 0.79
1 11 -12 1.88 0.85
1 11 -11 3.3 0.9
-1 -11 11 3.34 0.79
1 -11 -11 3.53 0.83
1 11 -11 4.37 0.84
1 -11 -10 39.43 1.86
1 11 -10 37.16 1.78
-1 -11 10 38.59 1.77
1 11 -10 35.54 1.96
1 -11 -10 34.06 2.23
-1 -11 9 2.32 0.69
1 11 -9 0.98 0.65
1 11 -9 1.74 0.51
-1 -11 8 47.06 1.82
1 11 -8 46.46 2.08
1 11 -8 47.34 2.07
1 11 -8 49.35 1.77
-1 -11 8 50.6 2.19
-1 -11 7 46.6 1.72
1 11 -7 49.51 2.01
1 -11 -7 45.67 2.29
1 11 -7 49.82 1.74
-1 -11 7 47.96 2.11
-1 -11 6 27.54 1.2
-1 11 6 28.6 1.42
-1 -11 6 28.44 1.56
1 11 -6 27.69 1.45
1 -11 -6 27.46 0.88
-1 -11 5 52.2 1.58
-1 -11 5 52.55 2.08
1 -11 -5 50.67 1.38
1 11 -5 51.66 1.93
-1 -11 4 203.33 4.5
1 11 -4 205.99 4.54
-1 -11 4 208.9 5.22
1 -11 -4 204.22 4.44
1 11 -3 66.38 1.83
-1 11 3 64.54 2.13
1 -11 -3 69.27 1.9
-1 -11 3 62.99 2.27
-1 -11 2 -0.04 0.12
1 11 -2 0.28 0.28
1 -11 -2 0.43 0.27
-1 -11 2 0.25 0.38
-1 11 2 0.05 0.3
-1 11 1 104.01 2.61
1 11 -1 97.44 2.35
-1 11 1 98.05 2.44
-1 11 1 93.78 2.73
1 11 -1 102.44 2.8
1 -11 -1 102.43 2.68
1 11 0 334.8 6.68
1 11 0 330.46 7.11
-1 11 0 346.34 7.08
-1 -11 0 341.4 6.56
-1 11 0 336.24 6.54
1 -11 1 31.64 1.12
1 11 1 31.91 1.26
-1 11 -1 33.03 1.31
1 -11 2 80.5 1.98
1 11 2 79.23 1.96
1 -11 2 81.98 1.96
-1 11 -2 84.48 2.26
1 11 2 84.38 1.97
1 -11 2 83.28 2.52
1 11 2 81.34 2.26
1 -11 2 83.19 2.15
1 11 3 159.75 3.48
1 -11 3 157.13 3.47
1 -11 3 162.61 3.58
1 11 3 158.76 3.53
-1 11 -3 155.45 3.73
1 11 3 157.23 3.66
1 -11 3 154.74 4.08
1 -11 3 155.8 3.63
1 11 4 169.41 3.8
1 -11 4 163.58 3.82
-1 11 -4 168.81 3.89
1 -11 4 164.41 4.3
1 11 4 167.72 3.72
-1 11 -5 -0.27 0.34
1 11 5 0.37 0.38
1 -11 5 0.49 0.38
1 11 5 0.22 0.48
1 -11 5 -0.03 0.37
-1 11 -5 0.44 0.5
1 11 5 0.11 0.3
1 -11 5 0.44 0.46
1 11 6 169.32 4.35
1 -11 6 166.48 4.09
-1 11 -6 172.54 4.36
1 -11 6 164.45 4.56
1 11 6 168.28 3.58
1 -11 7 53.47 1.92
-1 11 -7 56 1.84
1 11 7 56.02 2.07
1 -11 7 51.2 2.25
-1 11 -7 60.83 2.16
1 -11 8 10.11 0.9
1 -11 8 10.19 1.07
-1 11 -8 9.37 0.99
-1 11 -8 9.95 0.79
-1 11 -9 0.2 0.49
1 -11 9 0.09 0.57
1 -11 9 0.6 0.72
1 -11 10 51.33 2.11
-1 11 -10 52.97 2.01
1 -11 10 45.57 2.33
1 -11 11 11.82 1.18
1 -11 11 10.64 1.31
-1 11 -11 11.98 1.05
-1 11 -12 -0.66 0.72
1 -11 12 0.63 0.86
1 -11 12 -0.06 0.77
-1 11 -13 0.12 0.71
1 -12 -13 1.32 0.94
1 12 -13 0.98 0.87
1 12 -13 0.08 0.86
-1 -12 13 0.62 0.78
1 -12 -12 1.83 0.87
1 12 -12 1.95 0.86
-1 -12 12 1.64 0.76
1 12 -12 2.7 0.92
1 12 -11 3.29 0.92
-1 -12 11 4.37 0.87
1 12 -11 3.57 0.84
1 -12 -11 3.72 0.88
-1 -12 10 26.69 1.49
1 -12 -10 27.46 1.54
1 12 -10 25.63 1.48
1 12 -10 25.8 1.67
-1 -12 9 12.77 1.02
1 12 -9 14.39 1.24
-1 -12 9 10.99 1.18
1 12 -9 13.12 0.9
-1 -12 8 22.06 1.19
1 12 -8 20.65 1.1
-1 -12 8 21.26 1.46
1 12 -8 20.19 1.37
1 12 -7 1.13 0.69
-1 -12 7 2.14 0.73
-1 -12 7 1.31 0.51
1 12 -7 1.38 0.45
-1 -12 6 244.32 5.5
-1 12 6 251.9 5.95
-1 -12 6 253.21 6.25
1 -12 -6 243.64 5.08
1 12 -6 251.95 6
-1 -12 5 210.72 4.47
-1 -12 5 218.52 5.3
1 -12 -5 211.75 4.27
1 12 -5 213.45 5.01
1 12 -4 37.57 1.32
-1 -12 4 34.05 1.24
-1 -12 4 35.49 1.72
1 -12 -4 36.31 1.26
1 12 -3 61.88 1.78
-1 -12 3 65.25 2.34
-1 12 3 62.74 2.11
1 -12 -3 62.79 1.86
1 12 -3 60.25 2.13
1 12 -2 630.91 12.25
-1 -12 2 614.8 13
1 -12 -2 612.01 12.5
-1 12 2 638.55 12.44
1 12 -1 82.56 2.07
-1 12 1 78.48 2.13
-1 12 1 83.95 2.3
1 -12 -1 83.12 2.38
1 12 -1 81.93 2.48
1 12 0 19.8 0.81
-1 -12 0 20.52 1.11
-1 12 0 18.59 0.98
1 -12 0 19.37 1.02
1 12 0 20.15 1.05
-1 12 0 19.72 0.67
-1 -12 0 20.24 0.69
1 -12 1 465.81 9.2
1 12 1 448.7 9.03
1 12 1 446.93 9.4
-1 12 -1 459.62 9.47
-1 12 -2 802.38 14.9
1 12 2 759.29 14.4
1 -12 2 756.71 14.4
1 12 2 731.92 14.4
1 -12 2 739.96 14.42
1 -12 2 747.57 14.69
1 -12 2 746.68 15.23
1 12 2 753.41 14.85
1 12 3 0.36 0.26
1 -12 3 0.38 0.26
1 12 3 0.42 0.34
1 -12 3 0.04 0.35
1 -12 3 0.27 0.26
1 12 3 0.39 0.27
1 -12 3 0.03 0.29
-1 12 -3 0.47 0.31
1 -12 4 57.07 1.78
-1 12 -4 55.78 1.8
1 -12 4 52.66 2.14
1 12 4 58.93 1.72
1 12 4 60.83 1.75
1 -12 5 58.93 1.84
1 12 5 58.43 1.84
-1 12 -5 60.5 1.9
1 -12 5 57.92 1.87
1 12 5 58.36 2.18
1 -12 5 54.09 2.21
1 12 5 58.66 1.65
-1 12 -5 61.09 2.16
1 -12 6 92.45 2.65
1 -12 6 92.79 2.62
1 12 6 90.17 2.59
1 12 6 97.23 2.94
1 -12 6 91.99 3.1
-1 12 -6 97.22 2.92
1 12 6 92.81 2.2
-1 12 -7 22.46 1.09
1 -12 7 23.38 1.19
1 12 7 22.78 1.3
1 -12 7 24.19 1.52
-1 12 -7 26.83 1.39
1 12 7 20.04 0.51
1 -12 8 3.09 0.78
1 -12 8 4.26 0.7
-1 12 -8 3.36 0.57
1 -12 9 13.95 1.08
-1 12 -9 16.17 1.06
1 -12 9 14.56 1.38
-1 12 -10 8.51 0.88
1 -12 10 6.09 1.08
1 -12 10 7.38 0.93
-1 12 -11 5.21 0.84
1 -12 11 4.6 0.91
1 -12 11 3.59 0.99
1 -12 12 14.8 1.34
-1 12 -12 12.17 1.16
1 -12 12 10.34 1.37
1 13 -13 0.62 0.88
1 -13 -13 -0.65 0.9
-1 -13 13 0.56 0.8
1 13 -13 0.5 0.85
1 13 -12 0.08 0.81
-1 -13 12 0.17 0.74
1 -13 -12 1.29 0.84
1 13 -12 0.92 0.79
-1 -13 11 25.51 1.51
1 13 -11 23.23 1.51
1 -13 -11 23.85 1.56
1 13 -11 22.96 1.7
-1 -13 10 1.03 0.67
1 -13 -10 0.89 0.61
1 13 -10 1.16 0.63
1 13 -10 1.33 0.79
-1 -13 9 3.21 0.84
1 13 -9 2.61 0.78
1 13 -9 2.88 0.56
-1 -13 9 2.92 0.67
-1 -13 8 0.26 0.59
-1 -13 8 -0.16 0.49
1 13 -8 -0.04 0.43
1 13 -8 0.34 0.52
-1 -13 7 150.98 3.41
-1 -13 7 156.88 4.2
1 13 -7 152.47 3.86
-1 -13 6 1.6 0.5
-1 -13 6 2.13 0.71
1 13 -6 1.41 0.66
1 -13 -6 1.25 0.36
-1 -13 5 62.49 2.42
-1 -13 5 60.96 1.83
1 13 -5 51.35 1.34
1 13 -5 62.22 2.23
1 -13 -5 60.25 1.68
-1 -13 4 2.1 0.41
1 13 -4 1.58 0.44
1 -13 -4 1.83 0.37
-1 -13 4 1.39 0.56
1 13 -3 279.1 5.94
-1 -13 3 287.13 5.94
-1 13 3 281.06 6.45
-1 -13 3 277.99 6.74
1 -13 -3 276.66 6.07
1 13 -3 274.45 6.46
1 13 -2 0.49 0.51
-1 13 2 0.83 0.39
1 -13 -2 0.51 0.35
1 13 -2 0.82 0.37
-1 13 2 1.1 0.5
1 13 -1 334.75 6.8
-1 -13 1 323.64 6.56
-1 13 1 328.28 6.53
1 13 -1 338.59 7.34
-1 13 1 345.94 7.14
1 -13 -1 342.26 7.27
1 13 0 0.27 0.31
-1 13 0 0.23 0.18
-1 -13 0 0.17 0.18
1 13 0 0.85 0.47
-1 -13 0 0.34 0.35
-1 13 0 0.32 0.38
1 -13 0 0.19 0.37
1 -13 1 53.98 1.34
1 -13 1 51.57 1.64
1 13 1 53.4 1.56
1 13 1 53.54 1.82
-1 13 -1 54.55 1.88
1 -13 2 1.83 0.29
1 13 2 1.54 0.27
-1 13 -2 1.78 0.51
1 13 2 1.35 0.42
1 -13 2 1.9 0.48
1 -13 2 1.43 0.26
1 13 2 1.92 0.28
1 -13 2 1.96 0.37
-1 13 -2 2 0.4
1 13 3 602.05 11.74
1 -13 3 596.99 11.67
1 13 3 593.1 11.66
1 -13 3 601.72 11.77
1 -13 3 607.12 12
-1 13 -3 626.22 12.13
-1 13 -3 596.55 12.41
1 -13 3 578.43 12.62
1 13 3 605.17 12.03
1 13 4 1.42 0.38
1 13 4 1.49 0.39
1 -13 4 1.34 0.51
1 -13 4 1.25 0.41
-1 13 -4 1.52 0.39
-1 13 -5 1.61 0.43
1 13 5 2.77 0.43
-1 13 -5 2.2 0.63
1 -13 5 1.44 0.59
1 13 5 2.49 0.45
1 -13 5 2.01 0.43
1 -13 5 1.39 0.44
1 13 5 1.81 0.6
1 13 6 11.58 0.82
1 -13 6 10.97 0.8
-1 13 -6 11.35 0.8
1 -13 6 11.36 0.84
1 13 6 10.01 0.97
1 -13 6 9.84 1.02
1 13 6 10.87 0.57
-1 13 -6 10.3 1.02
1 13 7 194.93 4.42
1 -13 7 207.12 4.54
-1 13 -7 194.6 4.33
1 -13 7 189.34 5.13
1 -13 8 5.41 0.75
-1 13 -8 3.69 0.61
1 -13 8 4.97 0.97
1 -13 9 1.64 0.63
-1 13 -9 1.4 0.55
1 -13 9 0.94 0.79
-1 13 -10 0.14 0.57
1 -13 10 0.21 0.63
1 -13 10 -0.15 0.79
1 -13 11 26.04 1.56
1 -13 11 20.63 1.74
-1 13 -11 21.3 1.35
-1 13 -12 -0.06 0.68
1 -13 12 0.8 0.83
1 -13 12 0.54 0.98
1 -14 -13 0.85 0.84
1 14 -13 0.6 0.83
1 14 -13 1.86 0.93
1 14 -12 7.58 1.2
1 14 -12 9.45 1.14
1 -14 -12 8.45 1.18
-1 -14 12 8.72 1.1
1 14 -11 1.81 0.88
-1 -14 11 0.81 0.75
1 -14 -11 2.2 0.79
1 14 -11 1.82 0.76
-1 -14 10 11.38 1.06
1 14 -10 11.58 0.9
1 14 -10 10.73 0.99
1 -14 -10 12.1 1.1
1 14 -10 11.41 1.23
1 -14 -9 4.83 0.74
1 14 -9 3.59 0.68
-1 -14 9 3.66 0.93
1 14 -9 3.4 0.82
1 14 -9 3.22 0.59
-1 -14 9 2.85 0.69
1 14 -8 29.91 1.37
-1 -14 8 33.48 1.93
-1 -14 8 32.96 1.49
-1 -14 7 9.01 1.11
1 -14 -7 6.72 0.44
-1 -14 7 9.29 0.83
-1 -14 6 133.99 3.24
-1 -14 6 135.11 4.01
1 14 -6 138.31 3.73
1 -14 -6 134.74 2.94
1 14 -5 40.87 1.49
-1 -14 5 38.12 1.42
1 14 -5 33.11 1.02
-1 -14 5 40.38 1.99
1 -14 -5 39.55 1.34
1 14 -5 43.55 1.83
-1 -14 4 13.12 0.79
1 14 -4 12.98 0.84
-1 -14 4 14.23 1.17
-1 14 4 12.85 1.03
1 -14 -4 13.54 0.8
1 14 -3 127.24 3.1
-1 -14 3 126.27 3.09
-1 -14 3 126.98 3.82
-1 14 3 127.28 3.59
1 -14 -3 125.62 3.24
1 14 -3 124.82 3.56
1 -14 -2 433.5 9.21
1 14 -2 434.58 9.47
1 14 -2 448.84 8.9
-1 14 2 407.64 8.88
-1 14 2 470.71 9.61
-1 -14 2 450.78 8.97
-1 14 2 444.92 9.08
1 14 -1 124.18 3
-1 14 1 124.23 2.7
-1 -14 1 127.52 2.72
-1 14 1 135.78 3.32
1 -14 -1 130.18 3.44
1 14 -1 127.52 3.48
1 14 0 33.43 1.17
-1 -14 0 36.08 1.63
1 -14 0 32.73 1.48
1 14 0 33.28 1.45
-1 14 0 33.88 1.41
-1 14 0 34.63 0.96
-1 -14 0 36.26 0.98
1 -14 1 81.03 1.86
1 14 1 81.93 1.87
1 14 1 84.25 2.17
-1 14 -1 86.44 2.54
1 14 1 80.73 2.44
-1 14 -2 333.14 6.91
1 14 2 303.62 6.28
1 -14 2 314.37 6.28
1 14 2 321.65 6.28
1 -14 2 304.8 6.3
1 -14 2 331.33 6.76
-1 14 -2 327.91 7.11
1 14 2 315.66 6.87
1 -14 3 25.97 1.12
1 14 3 26.31 0.95
1 -14 3 26.46 0.97
-1 14 -3 28.72 1.23
-1 14 -3 27.06 1.39
1 -14 3 25.23 1.44
1 14 3 27.87 1.19
1 -14 4 74.45 2.19
1 14 4 75.33 2.05
-1 14 -4 74.28 2.24
1 14 4 73.51 2.12
1 -14 4 72.01 2.65
-1 14 -5 29.55 1.29
1 -14 5 29.32 1.29
1 -14 5 30.78 1.23
1 14 5 30.68 1.22
1 14 5 28.11 1.54
1 -14 5 30.46 1.68
-1 14 -5 31.31 1.56
1 14 5 30.45 1.13
-1 14 -6 68.4 2.12
1 -14 6 64.96 2.13
1 14 6 65.9 2.43
1 -14 6 61.87 2.03
1 14 6 67.58 2.07
1 -14 6 63.58 2.62
1 14 6 64.13 1.71
-1 14 -6 67.87 2.43
1 -14 7 3.02 0.6
1 14 7 2.94 0.6
1 14 7 2.97 0.27
1 -14 7 3.33 0.64
1 -14 7 2.59 0.82
1 -14 8 62.95 2.24
-1 14 -8 65.13 2.19
1 -14 8 63.57 2.76
1 -14 9 15.34 1.11
1 -14 9 11.72 1.35
-1 14 -9 14.51 1.02
-1 14 -10 3.22 0.7
1 -14 10 2.67 0.95
1 -14 10 2.95 0.76
-1 14 -11 1.07 0.65
1 -14 11 -0.28 0.75
1 -14 11 0.72 0.9
-1 14 -12 21.4 1.46
1 -14 12 17.98 1.77
1 -14 12 22.18 1.54
1 -15 -13 2.08 0.93
1 15 -13 2.3 0.95
1 15 -13 1.37 0.97
1 15 -12 6.62 1.19
-1 -15 12 6.11 0.98
1 -15 -12 7.14 1.12
1 15 -12 5.5 1.01
-1 -15 11 12.46 1.17
1 15 -11 12.57 1.18
1 -15 -11 11.72 1.18
1 15 -11 12.85 1.36
-1 -15 10 7.15 0.92
1 15 -10 6.61 0.88
1 -15 -10 8.82 0.98
1 15 -10 6.04 1.01
1 15 -10 7.03 0.77
1 -15 -9 0.82 0.61
1 15 -9 0.04 0.54
-1 -15 9 0.3 0.81
-1 -15 9 -0.18 0.59
1 15 -9 -0.72 0.69
1 15 -9 0.31 0.46
-1 -15 8 33.07 1.51
-1 -15 8 33.41 1.98
1 15 -8 33.06 1.44
-1 -15 7 33.94 1.45
-1 -15 7 37.52 2.02
1 -15 -7 31.61 1.01
-1 -15 6 11.74 0.83
-1 -15 6 11.63 1.21
1 15 -6 8.62 0.44
1 -15 -6 10.73 0.71
1 15 -5 12.45 0.87
-1 -15 5 10.94 0.79
-1 -15 5 11.49 1.15
1 15 -5 9.93 0.53
1 15 -5 10.07 1.04
1 -15 -5 10.5 0.73
1 15 -4 252.28 5.64
-1 -15 4 257.66 5.65
1 -15 -4 258.28 5.7
-1 15 4 263.22 6.2
-1 -15 4 246.07 6.48
-1 -15 3 103.45 3.42
1 15 -3 105.34 2.72
-1 15 3 107.74 3.22
-1 -15 3 104.35 2.72
-1 15 3 105.62 2.79
1 -15 -3 103.22 2.87
1 15 -3 98.49 3.1
-1 15 2 0.14 0.46
-1 -15 2 -0.25 0.34
1 15 -2 0.17 0.4
-1 15 2 0.65 0.42
1 -15 -2 1.18 0.42
1 15 -2 0.22 0.51
1 15 -1 112.96 2.74
-1 -15 1 108.9 2.37
-1 15 1 109.3 2.37
1 -15 -1 109.4 3.14
-1 15 1 110.93 2.99
1 15 -1 112.28 3.21
1 15 0 580.44 11.34
1 -15 0 574.66 12
-1 15 0 563.76 11.74
1 15 0 557.15 11.84
-1 -15 0 587.73 12.21
1 -15 1 36.82 0.99
1 15 1 36.32 0.98
-1 -15 -1 39.15 1.7
1 15 1 36.98 1.28
-1 15 -1 37.76 1.58
1 15 1 35.75 1.5
-1 15 -2 23.9 1.15
1 15 2 22.02 0.73
1 -15 2 21.15 0.73
1 -15 2 19.99 1.02
-1 15 -2 21.89 1.23
1 15 2 22.24 1.13
1 15 3 126.6 2.95
1 -15 3 126.97 2.96
-1 15 -3 134.43 3.42
-1 15 -3 136.74 3.68
1 -15 3 128.67 3.85
1 15 3 132.54 3.35
1 -15 3 134.31 3.33
1 15 4 121.6 1.9
1 -15 4 119.25 2.23
-1 15 -4 120.53 2.32
1 -15 4 115.98 2.97
1 15 4 122.99 2.12
-1 15 -5 0.07 0.38
-1 15 -5 0.1 0.57
1 15 5 0.32 0.36
1 -15 5 0.13 0.52
1 -15 5 0.32 0.38
1 15 5 0.19 0.37
1 -15 5 0.27 0.42
1 15 5 0.71 0.59
1 -15 6 24.6 1.18
1 15 6 25.55 1.16
1 -15 6 24.47 1.24
1 -15 6 24.97 1.64
1 15 6 23.88 0.93
-1 15 -6 21.58 1.15
1 -15 7 52.89 1.77
1 -15 7 50.76 1.67
1 15 7 49.95 1.62
1 15 7 45.2 0.93
1 -15 7 49.79 2.27
1 -15 8 22.76 1.29
-1 15 -8 19.76 1.17
1 -15 8 23.1 1.68
1 -15 9 11.06 0.99
-1 15 -9 10.63 0.94
1 -15 9 10.66 1.29
1 -15 10 11.93 1.09
1 -15 10 14.48 1.53
-1 15 -10 12.58 1.06
-1 15 -11 2.31 0.69
1 -15 11 1.49 1
1 -15 11 0.85 0.71
-1 15 -12 4.53 0.9
1 -15 12 3.8 0.92
1 -15 12 3.79 1.12
1 -16 -13 6.99 1.19
1 16 -13 6.32 1.12
1 16 -13 5.87 1.24
-1 -16 12 -0.17 0.76
1 -16 -12 0.51 0.8
1 16 -12 0.48 0.76
1 16 -12 -0.17 0.82
-1 -16 11 0.38 0.66
1 -16 -11 0.91 0.76
1 16 -11 -0.43 0.71
1 16 -11 1.16 0.79
1 16 -10 0.24 0.61
1 -16 -10 0.51 0.64
1 16 -10 -0.07 0.7
1 16 -10 0.39 0.48
-1 -16 10 -0.1 0.64
-1 -16 10 -0.64 0.86
-1 -16 9 43.19 1.84
1 16 -9 41.55 1.67
-1 -16 9 47.94 2.41
1 -16 -9 46.77 1.87
1 16 -9 43.36 1.79
1 16 -9 39.98 2.11
1 16 -8 2.18 0.58
1 -16 -8 2.91 0.62
-1 -16 8 2.51 0.88
-1 -16 8 3.04 0.66
1 16 -8 2.33 0.57
-1 -16 7 5.82 0.69
-1 -16 7 6.13 1.01
1 -16 -7 4.92 0.49
1 16 -6 3.31 0.34
1 -16 -6 4.57 0.55
-1 -16 6 5.15 0.65
-1 -16 6 3.58 0.86
1 16 -5 153.55 3.83
-1 -16 5 149.67 3.77
1 -16 -5 154.3 3.75
-1 -16 5 153.88 4.64
-1 -16 4 4.85 0.86
-1 16 4 3.43 0.74
-1 -16 4 3.45 0.54
1 16 -4 3.85 0.63
1 -16 -4 4.47 0.6
1 16 -3 180.58 4.78
1 -16 -3 184.7 4.52
1 16 -3 188.43 4.31
-1 -16 3 183.04 5.12
-1 16 3 189.52 4.87
-1 -16 3 186.43 4.34
-1 16 3 183.07 4.37
1 16 -2 25.53 1.11
-1 -16 2 27.44 1.17
-1 16 2 25.92 1.44
1 -16 -2 24.23 1.26
-1 16 2 23.97 1.16
1 16 -2 25.59 1.41
1 16 -1 197.91 4.47
-1 -16 1 187.46 5.21
-1 16 1 206.09 4.05
-1 -16 1 201.77 4.04
1 -16 -1 196.12 4.97
-1 16 1 199.05 4.77
1 16 -1 197.18 4.98
1 16 0 2.17 0.6
-1 16 0 1.96 0.55
1 -16 0 1.42 0.51
-1 -16 0 1.82 0.58
1 16 0 1.87 0.43
1 -16 0 1.77 0.2
1 16 1 233.13 4.59
-1 -16 -1 233.97 5.72
1 16 1 235.69 5.05
1 -16 1 227.47 4.57
-1 16 -1 238.48 5.54
1 16 1 220.61 5.4
1 -16 2 14.6 0.91
1 16 2 16.08 0.87
-1 16 -2 16.17 1.09
1 16 2 14.11 0.95
1 -16 3 14.98 0.69
1 16 3 17.99 0.73
-1 16 -3 15.46 0.96
1 -16 3 16.08 0.94
-1 16 -3 17.15 1.16
1 -16 3 16.27 1.22
1 16 3 15.52 0.96
-1 16 -4 2.13 0.5
1 16 4 1.83 0.39
1 -16 4 2.02 0.48
1 -16 4 2.38 0.68
1 16 4 1.54 0.46
1 -16 5 173.92 4.34
-1 16 -5 176.14 4.37
1 -16 5 175.94 5.1
1 16 5 179.43 4.09
1 -16 5 185.78 4.21
1 16 5 180.24 4.15
-1 16 -6 0.8 0.47
1 16 6 0.53 0.46
1 -16 6 1.19 0.51
1 -16 6 0.61 0.49
1 -16 6 0.36 0.68
1 16 6 0.59 0.37
1 16 7 4.07 0.35
1 -16 7 4.11 0.65
1 16 7 3.58 0.61
1 -16 7 5.15 0.99
1 -16 7 4.59 0.7
1 -16 8 3.98 0.98
1 -16 8 3.14 0.66
-1 16 -8 3.42 0.64
1 -16 9 60.74 2.26
-1 16 -9 59.82 2.19
1 -16 9 58.03 2.75
1 -16 10 2.47 0.78
1 -16 10 3.59 1.11
-1 16 -10 4.04 0.8
-1 16 -11 1.58 0.7
1 -16 11 1.98 1.05
1 -16 11 2.51 0.81
1 -16 12 -0.09 0.98
-1 16 -12 0.28 0.64
1 -17 -13 0.13 0.86
1 17 -12 3.75 1.02
1 -17 -12 4.45 0.98
1 17 -12 3.8 0.91
-1 -17 12 3.57 0.89
1 17 -11 -0.4 0.82
-1 -17 11 0.11 0.66
1 -17 -11 -0.28 0.73
1 17 -11 0.33 0.67
-1 -17 10 17.15 1.23
-1 -17 10 15.63 1.59
1 17 -10 13.3 1.01
1 -17 -10 16.85 1.25
1 17 -10 14.55 1.15
1 17 -10 16.29 1.43
1 17 -9 2.61 0.65
1 -17 -9 3 0.68
1 17 -9 3.24 0.65
1 17 -9 3.62 0.85
-1 -17 9 2.28 0.7
-1 -17 9 3.81 1.05
-1 -17 8 52.84 1.98
-1 -17 8 53.45 2.61
1 -17 -8 49.73 1.88
1 17 -8 52.55 1.9
-1 -17 7 12.63 0.94
-1 -17 7 11.29 1.3
1 -17 -7 12.06 0.7
-1 -17 6 15.58 0.99
-1 -17 6 16.82 1.48
1 17 -6 13.68 0.62
1 -17 -6 17.97 0.94
-1 -17 5 8.79 0.78
1 17 -5 9.98 0.89
1 -17 -5 10.01 0.8
-1 -17 5 9.38 1.18
1 17 -4 152.17 3.73
1 -17 -4 144.19 3.81
-1 17 4 146.87 4.19
-1 -17 4 149.19 3.71
-1 -17 4 146.57 4.51
-1 -17 3 29.18 1.74
1 17 -3 29.2 1.3
1 -17 -3 30.44 1.42
1 17 -3 32 1.62
-1 17 3 32.53 1.66
-1 -17 3 29.17 1.28
-1 17 3 30.53 1.33
-1 17 2 1.52 0.63
-1 17 2 1.37 0.23
1 17 -2 1.03 0.46
-1 17 2 1.36 0.52
1 17 -2 1.48 0.66
1 -17 -2 0.93 0.48
1 17 -1 16.92 0.91
-1 -17 1 17.57 1.3
1 17 -1 17.22 1.17
1 -17 -1 16.4 1.14
-1 17 1 18.01 1.08
-1 -17 1 18.59 0.58
-1 17 1 17.89 0.58
-1 -17 0 271.62 6.6
1 17 0 270.34 5.7
1 -17 0 264.91 5.1
1 17 0 260.77 5.13
1 -17 0 268.89 6.4
-1 17 0 273.23 6.15
1 17 0 255.78 6.17
-1 -17 -1 17.72 1.26
1 17 1 20.08 0.96
1 -17 1 19.98 1.3
-1 17 -1 23.01 1.28
1 17 1 16.77 1.11
1 17 1 19.18 0.58
1 -17 2 44.57 1.66
1 17 2 46.83 1.58
1 17 2 41.8 1.69
-1 17 -2 47.79 1.92
-1 17 -3 23.98 1.24
1 -17 3 22.35 0.84
1 17 3 23.56 0.86
1 -17 3 22.27 1.15
1 17 3 24.45 1.19
1 -17 3 24.01 1.52
-1 17 -3 24.42 1.42
1 17 4 193.47 2.97
-1 17 -4 192.26 3.62
1 -17 4 181.19 4.35
1 17 4 191.07 3.33
1 -17 4 194.21 3.52
1 -17 5 19.32 0.96
1 17 5 19.85 0.95
-1 17 -5 18.75 1.1
1 -17 5 18.91 1.48
1 17 5 20.18 0.99
1 -17 5 18.89 1.11
1 17 6 101.97 2.78
1 -17 6 107.37 2.87
1 -17 6 99.88 2.98
-1 17 -6 105.28 3
1 17 6 104.83 2.57
1 -17 6 101.65 3.69
1 -17 7 1.44 0.59
1 -17 7 2.13 0.82
1 17 7 2.62 0.35
1 -17 7 2.67 0.6
1 17 7 1.57 0.53
1 -17 8 15.47 1.1
-1 17 -8 14.57 1.04
1 -17 8 17.03 1.59
1 -17 9 1.95 1
1 -17 9 2.09 0.7
-1 17 -9 1.83 0.66
1 -17 10 35.01 1.76
1 -17 10 32.08 2.22
-1 17 -10 31.68 1.63
-1 17 -11 0.27 0.61
1 -17 11 0.29 0.7
1 -17 11 0.89 0.95
1 -17 12 -0.72 1.06
1 -18 -12 0.6 0.79
1 18 -12 0.76 0.77
1 18 -12 0.5 0.89
1 18 -11 0.4 0.81
-1 -18 11 1 0.78
1 -18 -11 0.72 0.77
1 18 -11 1.14 0.72
-1 -18 10 17.94 1.26
-1 -18 10 13.67 1.56
1 18 -10 12.59 1
1 -18 -10 15.95 1.21
1 18 -10 15.74 1.18
1 18 -10 17.85 1.51
-1 -18 9 21.91 1.31
1 -18 -9 20.3 1.25
1 18 -9 21.21 1.25
1 18 -9 18.81 1.13
-1 -18 9 17.63 1.68
1 18 -8 1.45 0.58
1 -18 -8 1.25 0.56
-1 -18 8 0.61 0.57
-1 -18 8 0.83 0.84
-1 -18 7 10.86 0.93
1 -18 -7 9.91 0.71
-1 -18 7 8.09 1.22
1 -18 -7 10.18 0.8
1 18 -7 8.14 0.75
-1 -18 6 42.1 1.64
-1 -18 6 41.04 2.24
1 -18 -6 43.43 1.55
-1 -18 5 62.28 2.08
-1 -18 5 64.68 2.82
1 -18 -5 60.85 2.07
1 18 -4 31.65 1.41
-1 -18 4 30.56 1.87
-1 -18 4 31.89 1.4
1 -18 -4 32.6 1.49
1 -18 -3 127.3 3.52
1 18 -3 123.1 3.21
-1 18 3 127.55 3.79
-1 18 3 116.57 3.17
-1 -18 3 126.37 3.29
-1 18 3 120.66 3.25
-1 -18 2 267.41 5.38
-1 18 2 266.63 5.35
1 18 -2 277.91 5.97
-1 18 2 289.21 6.73
1 -18 -2 270.68 6.44
1 18 -2 277.67 6.53
-1 18 2 280.95 6.2
1 18 -1 202.2 5.11
1 -18 -1 204.01 5.21
-1 18 1 195.67 4.87
1 18 -1 202.73 4.59
-1 -18 1 205.35 5.48
1 18 0 78.9 2.15
1 18 0 71.83 1.53
1 18 0 77.87 2.54
1 -18 0 78.46 2.72
-1 18 0 75.22 2.47
-1 -18 0 80.16 2.85
-1 -18 -1 130.07 3.92
1 18 1 135.03 3.26
1 18 1 132.81 3.63
1 -18 1 131.46 3.97
-1 18 -1 129.44 3.68
1 18 2 115.6 2.95
1 -18 2 111.11 3.09
1 18 2 110.24 3.16
-1 18 -2 112.45 3.36
-1 18 -3 19.55 1.15
1 -18 3 19.4 1.11
1 -18 3 19.7 1.48
1 18 3 17.34 1.06
1 18 3 18.72 0.74
1 -18 3 16.64 0.71
-1 18 -4 13.6 0.98
1 -18 4 9.57 0.62
1 18 4 13.76 0.71
1 -18 4 15.79 1.02
1 -18 4 15.67 1.37
1 18 4 14.86 0.92
1 -18 5 70.84 2.05
1 18 5 69.35 2
-1 18 -5 71.76 2.35
1 18 5 69.22 2.07
1 -18 5 69.76 2.94
1 -18 5 69.41 2.32
1 -18 6 86.28 2.46
1 18 6 85.17 2.4
1 -18 6 81.48 2.62
-1 18 -6 80.34 2.59
1 18 6 85.79 2.23
1 -18 6 80.46 3.3
1 -18 7 4.04 0.66
1 18 7 3.07 0.59
-1 18 -7 3.32 0.62
1 -18 7 3.06 0.66
1 -18 7 3.13 0.99
1 -18 8 6.35 1.25
1 -18 8 7.61 0.88
-1 18 -9 27.15 1.48
1 -18 9 27.57 2.03
1 -18 9 30.51 1.57
1 -18 10 10.51 1.05
-1 18 -10 9.73 1.04
1 -18 10 11.57 1.52
1 -18 11 1.22 0.76
-1 18 -11 0.5 0.63
1 -18 11 -0.93 1.04
1 -18 12 4.41 1.26
1 19 -12 1.1 0.87
1 -19 -12 1.18 0.81
1 19 -12 0.06 0.76
-1 -19 11 19.45 1.4
1 -19 -11 15.38 1.32
1 19 -11 16.62 1.31
1 19 -11 16.84 1.56
1 -19 -10 5.72 0.9
1 19 -10 5.23 0.85
-1 -19 10 6.62 0.95
-1 -19 10 3.93 1.14
1 19 -10 4.82 0.74
1 19 -10 5.37 1.03
1 -19 -9 1.86 0.66
1 19 -9 2.23 0.66
-1 -19 9 1.01 0.67
-1 -19 9 1.59 0.94
1 19 -9 2.17 0.62
1 -19 -8 1.01 0.54
1 19 -8 1.48 0.54
-1 -19 8 0.98 0.61
-1 -19 8 1.3 0.96
-1 -19 7 73.3 2.35
1 -19 -7 69.98 1.99
-1 -19 7 75.65 3.15
1 -19 -7 72.55 2.12
1 19 -7 74.88 2.14
1 -19 -6 17.59 0.9
1 19 -6 15.25 0.86
-1 -19 6 16.83 1.56
-1 -19 6 18.12 1.11
1 19 -6 15.59 0.75
1 -19 -6 19.81 1.07
-1 -19 5 70.42 2.3
-1 -19 5 74.19 3.09
1 -19 -5 71.59 1.94
1 -19 -5 72.9 2.35
-1 -19 4 5.1 0.7
1 -19 -4 4.67 0.72
-1 -19 4 5.43 1.05
1 19 -3 105.9 2.9
-1 19 3 103.91 2.94
-1 -19 3 102.48 2.93
1 -19 -3 104.21 3.2
1 -19 -2 0.51 0.56
-1 19 2 0.31 0.5
-1 -19 2 0.19 0.19
-1 19 2 0.09 0.19
1 19 -2 0.06 0.46
-1 19 2 -0.47 0.64
1 19 -1 99.19 2.63
-1 -19 1 98.53 3.4
1 -19 -1 94.3 3.13
1 19 -1 94.94 3.03
-1 19 1 92.09 2.85
1 19 0 3.31 0.55
1 19 0 3.37 0.75
-1 19 0 2.56 0.69
1 -19 0 3.57 0.71
-1 -19 0 3.22 0.75
1 19 1 130.74 3.21
1 -19 1 127.17 3.96
1 19 1 125.73 3.56
-1 19 -1 129.59 3.67
-1 -19 -1 123.11 3.89
1 19 2 19.95 1.19
1 19 2 19.26 1.03
-1 19 -3 194.3 5.12
1 -19 3 202.01 5.04
1 19 3 207.62 5.01
1 -19 4 5.55 0.49
1 19 4 6.4 0.54
-1 19 -4 7.33 0.8
1 -19 4 6.3 0.78
1 19 4 5.85 0.72
1 -19 4 7.38 1.09
-1 19 -5 4.94 0.73
1 -19 5 3.99 0.52
1 19 5 4.9 0.54
1 -19 5 3.95 0.69
1 -19 5 4.33 1
1 19 5 4.75 0.64
1 -19 6 23.89 1.13
1 19 6 21.99 1.07
-1 19 -6 23.06 1.26
1 19 6 20.85 0.98
1 -19 6 18.88 1.64
1 -19 6 21.42 1.26
1 -19 7 85.32 2.52
1 19 7 83.17 2.44
1 -19 7 81.24 2.67
-1 19 -7 83.88 2.6
1 -19 7 77.79 3.35
1 -19 8 4.03 0.77
1 -19 8 2.81 1.02
-1 19 -8 1.03 0.16
1 -19 9 2.2 0.72
1 -19 9 3.68 1.14
-1 19 -9 2.51 0.7
1 -19 10 1.09 0.71
1 -19 10 0.19 0.92
-1 19 -10 0.75 0.66
1 -19 11 8.2 1.08
1 -19 11 7.27 1.39
-1 19 -11 8.03 1.01
1 -19 12 0.39 1.05
1 20 -12 5.19 0.95
-1 -20 11 0.73 0.76
1 20 -11 -0.05 0.68
1 -20 -11 0.84 0.78
1 20 -11 0.41 0.82
1 -20 -10 7.91 0.97
1 20 -10 6.88 0.89
-1 -20 10 7.91 1.02
-1 -20 10 7.21 1.38
1 20 -10 8.65 1.19
1 20 -10 7.19 0.85
1 -20 -9 1.2 0.62
1 20 -9 0.68 0.59
1 20 -9 0.83 0.53
-1 -20 9 0.29 0.63
-1 -20 9 0.27 0.94
-1 -20 8 36.36 1.68
-1 -20 8 36.74 2.28
1 -20 -8 38.22 1.55
1 20 -8 33.99 1.48
1 20 -7 1.69 0.36
1 20 -7 2.42 0.54
1 -20 -7 2.44 0.55
-1 -20 7 1.61 0.65
-1 -20 7 1.76 0.91
1 -20 -7 2.32 0.58
1 20 -6 89.61 2.39
1 -20 -6 93.35 2.4
-1 -20 6 89.37 3.56
-1 -20 6 95.22 2.79
1 -20 -6 96.07 2.7
-1 -20 5 4.48 0.7
1 -20 -5 6.1 0.78
-1 -20 5 4.73 1.05
1 -20 -5 5.05 0.49
1 20 -5 5.05 0.49
-1 -20 4 2.78 0.63
1 20 -4 3.74 0.38
1 -20 -4 3.17 0.37
1 -20 -4 4.08 0.73
-1 -20 4 3.83 0.94
1 20 -3 8.8 0.44
1 -20 -3 7.98 0.4
1 -20 -3 8.09 0.91
-1 20 3 8 0.83
1 20 -2 18.69 1.03
1 -20 -2 17.47 1.25
-1 20 2 15.95 1.08
1 20 -2 16.21 0.47
-1 20 2 15.64 0.45
-1 -20 2 15.25 0.47
1 20 -1 3.44 0.57
-1 20 1 2.92 0.68
1 -20 -1 3.81 0.77
-1 -20 1 2.34 0.73
1 20 0 9.4 0.75
-1 -20 0 7.43 1.05
1 20 0 7.72 0.92
1 -20 0 7.3 0.97
-1 20 0 7.91 0.91
1 20 1 5.69 0.67
1 -20 1 5.57 0.94
-1 -20 -1 6.16 0.94
1 20 1 5.37 0.81
1 20 2 202.11 4.99
1 -20 3 12.12 0.98
1 20 3 13.33 0.98
-1 20 -3 11.38 1
1 20 4 131.94 2.96
-1 20 -4 126.2 3.6
1 -20 4 134.43 3.59
1 20 4 132.5 3.39
1 -20 4 135.18 4.35
-1 20 -5 2.99 0.66
1 20 5 2.92 0.48
1 -20 5 2.6 0.63
1 -20 5 1.65 0.87
1 20 5 2.52 0.57
1 -20 6 45.82 1.89
-1 20 -6 47.18 1.89
1 -20 6 48.77 2.55
1 -20 6 47.23 1.64
1 20 6 46.39 1.6
-1 20 -7 3.62 0.67
1 -20 7 2.59 0.61
1 -20 7 3.06 0.72
1 -20 7 3.18 1.08
1 -20 8 36.73 1.64
1 -20 8 33.58 2.21
1 -20 9 0.21 0.67
1 -20 9 -0.1 0.94
-1 20 -9 0.21 0.58
1 -20 10 -0.95 0.74
1 -20 10 -0.39 0.96
-1 20 -10 0.33 0.64
1 -20 11 0.69 1.04
-1 20 -11 2.69 0.83
1 21 -12 0.66 0.75
-1 -21 11 6.74 1.05
1 21 -11 5.12 0.89
1 21 -11 7.07 1.22
1 21 -10 2.15 0.7
1 -21 -10 1.52 0.74
-1 -21 10 1.9 0.78
-1 -21 10 1.34 1.07
1 21 -10 1.96 0.88
1 21 -10 1.36 0.59
1 21 -9 0.38 0.56
1 -21 -9 0.7 0.6
1 21 -9 1.54 0.61
-1 -21 9 0.45 0.66
-1 -21 9 1.7 1.08
-1 -21 8 17.11 1.21
-1 -21 8 17.07 1.73
1 21 -8 16.89 1.05
1 -21 -8 14.78 1.02
-1 -21 7 31.08 1.52
-1 -21 7 28.83 2.07
1 -21 -7 29.81 1.3
1 21 -7 28.52 1.25
1 -21 -7 31.23 1.3
1 -21 -6 1.12 0.42
1 21 -6 1.49 0.45
1 21 -6 1.54 0.42
-1 -21 6 0.22 0.6
1 -21 -6 1.4 0.6
-1 -21 6 1.25 0.86
-1 -21 5 22.33 1.76
1 -21 -5 24.19 1.33
-1 -21 5 22.75 1.29
1 -21 -5 23.1 0.91
1 21 -5 22.08 0.92
-1 -21 4 43.61 2.4
-1 -21 4 46.41 1.8
1 -21 -4 40.76 1.17
1 21 -4 41.41 1.21
1 -21 -4 41.86 1.84
-1 -21 3 152.69 3.24
-1 21 3 157.2 3.22
1 21 -3 164.74 3.24
1 -21 -3 150.82 3.15
1 -21 -3 175.3 4.53
-1 21 3 177.76 4.19
-1 21 2 0.98 0.6
1 -21 -2 0.65 0.58
-1 -21 2 0.23 0.64
-1 -21 1 174.36 5.18
-1 21 1 175.02 4.56
1 -21 -1 178.91 4.98
-1 -21 0 76.4 3.03
1 -21 0 88.47 3.15
-1 -21 -1 45.89 2.2
1 21 1 42.75 1.84
1 -21 1 43.54 2.19
1 21 2 3.51 0.73
1 -21 2 4.67 0.93
1 -21 3 77.3 2.53
1 21 3 75.71 2.44
-1 21 -3 66.37 2.49
1 -21 4 36.35 1.17
-1 21 -4 40.71 1.81
1 -21 4 42.56 1.81
1 21 4 42.19 1.65
1 -21 4 44.28 2.39
-1 21 -5 2.14 0.63
1 21 5 4.27 0.53
1 -21 5 2.96 0.69
1 -21 5 3.43 0.97
1 21 5 2.9 0.61
1 -21 6 7.48 0.89
-1 21 -6 8.39 0.88
1 -21 6 7.41 1.3
1 -21 6 6.77 0.68
1 -21 7 24.76 1.45
-1 21 -7 29.64 1.45
1 -21 7 26.43 2.01
1 -21 7 24.08 1.23
1 -21 8 5.42 0.85
1 -21 8 4.94 1.18
1 -21 9 0.21 0.69
1 -21 9 0.2 0.99
-1 21 -9 -0.22 0.61
1 -21 10 2.15 0.83
1 -21 10 3.07 1.22
-1 21 -10 1.75 0.74
1 -21 11 3.97 1.31
1 22 -11 0.05 0.68
1 22 -11 0.69 0.93
1 22 -10 -0.09 0.61
1 22 -10 0.08 0.78
-1 -22 10 0.22 0.73
-1 -22 10 -0.69 1.07
1 22 -9 20.4 1.25
1 22 -9 19.24 1.25
-1 -22 9 21.81 1.97
1 22 -8 7.21 0.77
1 -22 -8 7.68 0.79
-1 -22 8 6.5 1.33
-1 -22 8 8.54 0.97
-1 -22 7 13.3 1.1
-1 -22 7 12.4 1.5
1 -22 -7 11.06 0.9
1 -22 -7 11.86 0.82
1 22 -7 11.21 0.82
-1 -22 6 7.77 1.26
1 22 -6 6.53 0.6
1 22 -6 6.52 0.61
1 -22 -6 6.58 0.59
-1 -22 6 7.24 0.87
1 -22 -6 8.71 0.9
1 22 -5 35.73 1.19
-1 -22 5 39.09 2.32
-1 -22 5 34.88 1.66
1 -22 -5 39.84 1.76
1 -22 -5 34.69 1.13
1 -22 -4 7.04 0.43
1 22 -4 8.08 0.47
-1 -22 4 7.73 0.88
1 -22 -4 6.87 0.9
-1 -22 4 7.91 1.23
-1 -22 3 52.75 1.23
-1 22 3 51.58 1.19
-1 22 3 73.04 2.27
1 22 -3 63.57 1.29
1 -22 -3 72.98 2.57
-1 22 2 12.92 1.06
1 -22 -2 10.95 1.13
-1 -22 2 11.78 1.29
1 -22 -1 87.2 3.21
-1 -22 1 94.29 3.45
1 -22 0 18.2 1.46
-1 -22 0 17.42 1.46
1 -22 1 100.19 3.59
-1 -22 -1 95.14 3.45
1 22 2 21.49 1.3
1 -22 2 21.43 1.65
1 22 3 28.62 1.43
-1 22 -3 23.67 1.43
-1 22 -4 25.15 1.49
1 22 4 30.02 1.42
1 -22 4 28.08 1.96
1 -22 4 28.13 1.51
-1 22 -5 79.32 2.74
1 -22 5 80.21 2.72
1 -22 5 87.46 3.55
1 -22 6 4.2 0.56
-1 22 -6 5.51 0.82
1 -22 6 5.06 1.16
1 -22 6 5.29 0.82
-1 22 -7 0.38 0.55
1 -22 7 -0.1 0.63
1 -22 7 0.29 0.92
1 -22 8 8.88 1.4
1 -22 8 9.53 1.03
1 -22 9 32.68 1.75
-1 22 -9 33 1.75
1 -22 9 32.37 2.35
1 -22 10 0.34 0.76
1 -22 10 0.2 1.06
-1 22 -10 0.65 0.69
1 23 -10 7.38 0.91
-1 -23 10 6.91 1.04
-1 -23 10 7.45 1.45
1 23 -10 7.66 1.2
1 23 -9 0.98 0.59
1 23 -9 1.19 0.6
-1 -23 9 2.69 0.84
-1 -23 9 2.22 1.15
-1 -23 8 18.67 1.3
-1 -23 8 18.76 1.89
1 23 -8 17.49 1.06
-1 -23 7 0.1 0.93
1 -23 -7 0.47 0.56
-1 -23 7 -0.78 0.64
1 23 -7 -0.09 0.43
1 23 -6 9.86 0.69
1 23 -6 7.39 0.68
1 -23 -6 9.05 0.64
-1 -23 6 10.71 1.04
-1 -23 6 10.91 1.44
1 -23 -6 10.99 1.01
1 23 -5 5.31 0.49
1 -23 -5 4.86 0.44
-1 -23 5 4.24 0.78
-1 -23 5 5.85 1.18
1 -23 -5 5.74 0.86
-1 23 4 82.36 1.93
1 23 -4 91.89 2.01
1 -23 -3 0.71 0.65
-1 23 3 0.74 0.6
-1 -23 2 2.2 0.92
1 -23 -2 1.49 0.76
1 -23 -1 1.45 0.74
-1 -23 1 1.33 0.77
1 -23 0 130.73 4.25
-1 -23 0 130.9 4.29
1 -23 1 9.91 1.25
-1 -23 -1 8.39 1.12
1 -23 2 17.72 1.55
-1 23 -3 1.87 0.67
1 23 3 2.43 0.71
-1 23 -4 63.19 2.48
1 -23 4 69.26 2.49
1 23 4 71.82 2.34
1 -23 5 4.66 0.81
-1 23 -5 4.33 0.8
1 -23 5 4.25 1.11
-1 23 -6 41.16 1.86
1 -23 6 39.8 1.85
1 -23 6 37.92 2.39
-1 23 -7 0.2 0.58
1 -23 7 -0.42 0.69
1 -23 7 0.99 0.98
1 -23 8 6.88 0.97
1 -23 8 7.05 1.38
1 -23 9 4.35 0.94
-1 23 -9 2.82 0.83
1 -23 9 2.58 1.22
-1 23 -10 14.26 1.31
1 -23 10 13.12 1.76
1 24 -10 3.24 1.02
-1 -24 9 14.12 1.24
-1 -24 9 13.21 1.74
1 24 -9 12.27 1.02
-1 -24 8 -0.52 1.01
1 24 -8 0.13 0.51
-1 -24 8 -0.16 0.69
1 -24 -7 0.96 0.6
-1 -24 7 0.51 1
-1 -24 7 0.4 0.67
1 24 -7 0.7 0.42
-1 -24 6 18.83 1.28
1 24 -6 13.37 0.89
1 24 -6 15.4 0.8
1 -24 -6 17.07 1.22
-1 -24 6 16.04 1.76
1 24 -5 44.95 1.31
-1 -24 5 45.57 2.62
-1 -24 5 49.26 2.02
1 -24 -5 51.29 2.09
1 -24 -4 0.23 0.67
-1 -24 4 0.23 0.18
1 -24 -3 36.11 1.92
1 -24 -2 39.53 2.06
-1 -24 2 41.51 2.34
1 -24 -1 70.86 2.89
-1 -24 1 66.92 2.97
-1 -24 0 1.4 0.8
1 -24 0 0.77 0.75
1 -24 1 83.22 3.37
-1 -24 -1 87.93 3.35
1 -24 2 41.23 2.33
-1 24 -3 1.08 0.65
1 -24 4 1.6 0.68
-1 24 -4 1.49 0.71
1 -24 5 37.28 1.85
1 -24 5 42.83 2.51
-1 24 -5 38.88 1.88
-1 24 -6 9.89 1.05
1 -24 6 8.68 1.46
1 -24 6 10.11 1.06
-1 24 -7 3.13 0.76
1 -24 7 0.98 0.7
1 -24 7 1.74 1.07
1 -24 8 0.83 0.72
1 -24 8 0.21 1
1 -24 9 9.8 1.15
1 -24 9 9.18 1.57
-1 -25 9 0.39 0.76
-1 -25 9 0.53 1.09
-1 -25 8 -0.59 0.75
-1 -25 8 0.42 1.14
-1 -25 7 20.68 2.01
-1 -25 7 22.42 1.47
1 25 -7 19.03 0.97
-1 -25 6 6.76 1.38
1 -25 -6 7.11 0.93
-1 -25 6 7.74 0.98
-1 -25 5 2.78 1.18
1 -25 -5 2.87 0.8
-1 -25 5 1.98 0.76
1 -25 -4 28.04 1.69
1 -25 -3 37.9 1.99
-1 -25 3 34.45 2.22
1 -25 -2 0.84 0.79
-1 -25 2 0.96 0.91
1 -25 -1 45.72 2.33
-1 -25 1 46.11 2.47
1 -25 0 45.3 2.4
-1 -25 0 43.88 2.35
1 -25 1 3.26 0.99
-1 -25 -1 2.57 0.91
1 -25 2 6.85 1.17
1 -25 3 45.48 2.52
-1 25 -3 39.98 1.95
-1 25 -4 2.68 0.77
1 -25 5 1.37 0.71
-1 25 -5 1.53 0.71
1 -25 6 10.03 1.07
1 -25 6 9.31 1.51
-1 25 -6 8.94 1.06
1 -25 7 34.1 1.77
1 -25 7 28.92 2.3
-1 25 -7 31.55 1.69
1 -25 8 0.32 1.03
1 -25 8 0.12 0.75
1 -25 9 0.32 1.11
-1 -26 8 2.51 1.27
-1 -26 8 1.63 0.81
-1 -26 7 1.73 1.1
-1 -26 7 1.11 0.78
-1 -26 6 29.64 2.33
1 -26 -6 25 1.56
-1 -26 6 30.33 1.66
-1 -26 5 -0.1 1.01
1 -26 -5 0.4 0.74
1 -26 -4 1.88 0.83
1 -26 -3 0.41 0.81
-1 -26 3 1.04 0.94
1 -26 -2 109.48 3.87
-1 -26 2 116.63 4.24
1 -26 -1 0.62 0.85
-1 -26 1 0.86 0.87
1 -26 0 1.72 0.93
-1 -26 0 1.91 0.9
1 -26 1 1.12 0.84
1 -26 2 61.07 2.95
1 -26 3 7.92 1.33
-1 26 -3 5.8 0.91
-1 26 -4 7.32 1
1 -26 5 -0.28 0.7
1 -26 5 0.92 1
-1 26 -5 -0.18 0.7
1 -26 6 19.38 1.42
1 -26 6 21.14 2
-1 26 -6 18.79 1.4
1 -26 7 1.24 0.79
1 -26 7 2.81 1.27
-1 26 -7 1.52 0.74
1 -26 8 17.39 1.94
1 -26 8 21.08 1.51
-1 -27 8 -0.41 0.79
-1 -27 7 29.42 2.4
-1 -27 7 27.02 1.63
-1 -27 6 0.98 1.11
1 -27 -6 0.36 0.69
-1 -27 6 0.84 0.78
1 -27 -5 4.16 0.9
1 -27 -4 15.68 1.41
1 -27 -3 47.66 2.37
-1 -27 3 51.87 2.79
1 -27 -2 0.08 0.82
-1 -27 2 -1.03 0.92
1 -27 -1 52.75 2.62
-1 -27 1 57 2.81
1 -27 0 18.41 1.66
-1 -27 0 18.63 1.67
1 -27 1 5.28 1.16
1 -27 2 4.88 1.2
1 -27 3 83.33 3.6
-1 27 -3 72.61 2.79
-1 27 -4 1.9 0.78
1 -27 5 -0.53 1.05
-1 27 -5 0.19 0.72
1 -27 6 -0.42 0.82
1 -27 6 1.63 1.17
-1 27 -6 0.24 0.74
1 -27 7 18.35 1.46
1 -27 7 16.99 1.94
-1 27 -7 18.13 1.39
-1 -28 7 5.33 1.44
-1 -28 7 3.79 0.94
-1 -28 6 15.51 1.89
1 -28 -6 14.03 1.26
1 -28 -5 19.22 1.49
1 -28 -4 1.02 0.81
1 -28 -3 5.56 1.07
-1 -28 3 6.44 1.33
-1 -28 2 12.41 1.58
1 -28 -2 16.39 1.56
-1 -28 1 10.04 1.39
1 -28 -1 7.16 1.24
1 -28 0 0.8 0.86
-1 -28 0 -0.18 0.91
1 -28 1 40.16 2.44
1 -28 2 24.32 2.02
-1 28 -2 20.71 1.47
1 -28 3 7.74 1.38
-1 28 -3 7.87 1.09
-1 28 -4 12.23 1.26
-1 28 -5 25.12 1.67
-1 28 -6 -0.37 0.74
1 -28 6 -0.06 0.81
1 -28 6 -0.89 1.17
-1 -29 6 0.34 1.11
1 -29 -5 0.82 0.83
1 -29 -4 23.44 1.72
-1 -29 4 23.3 2.09
-1 -29 3 -0.1 1.01
1 -29 -3 1.29 0.92
-1 -29 2 -0.69 1.04
1 -29 -2 -0.4 0.9
1 -29 -1 0.69 0.88
-1 -29 1 0.38 0.92
1 -29 0 31.86 2.21
-1 -29 0 33.44 2.22
1 -29 1 3.84 1.18
-1 29 -2 1.18 0.76
1 -29 2 -0.3 1
-1 29 -3 3.89 0.9
1 -29 3 3.03 1.14
1 -29 4 16.2 1.87
-1 29 -4 14.42 1.35
-1 29 -5 3.03 0.88
1 -29 6 21.14 2.13
-1 29 -6 18.48 1.48
1 -30 -5 29.51 1.86
-1 -30 4 2.08 1.18
1 -30 -4 2.73 1.01
1 -30 -3 15.78 1.56
-1 -30 3 14.95 1.8
-1 -30 2 1.11 1.03
1 -30 -2 2.09 0.95
1 -30 -1 21.12 1.86
-1 -30 1 23.23 1.99
1 -30 0 -0.28 0.99
1 -30 1 55.63 2.97
1 -30 2 0.2 1.02
-1 30 -2 0.57 0.74
1 -30 3 0.64 1.11
-1 30 -3 0.85 0.76
1 -30 4 3.29 1.22
-1 30 -4 0.2 0.78
-1 30 -5 10.96 1.26
-1 -31 4 13.46 1.86
1 -31 -4 12.27 1.4
-1 -31 3 10.47 1.63
1 -31 -3 8.82 1.34
-1 -31 2 -0.1 1.05
1 -31 -2 1.55 1.02
-1 -31 1 10.1 1.57
1 -31 -1 11.33 1.5
1 -31 0 17.03 1.77
1 -31 1 7.46 1.44
1 -31 2 4.48 1.24
-1 31 -2 2.59 0.87
1 -31 3 8.09 1.49
-1 31 -3 9.59 1.16
1 -31 4 14.74 1.9
-1 31 -4 13.96 1.37
-1 31 -5 5.67 1.04
1 -32 -4 0.22 0.86
1 -32 -3 1.23 0.98
-1 -32 3 -0.55 1.1
1 -32 -2 21.69 1.86
-1 -32 2 18.59 1.97
1 -32 -1 0.47 1.02
1 -32 0 -0.68 1.06
1 -32 1 0.92 1.1
1 -32 2 13.37 1.8
-1 32 -2 12.63 1.29
-1 32 -3 -0.2 0.78
-1 32 -4 4.9 1.02
-1 32 -5 4 1.04
1 -33 -4 -0.68 0.91
1 -33 -3 13.07 1.54
1 -33 -2 0.09 1
1 -33 -1 14.98 1.73
1 -33 0 -0.6 1.05
1 -33 1 7.86 1.54
-1 33 -2 1.06 0.79
-1 33 -3 11.82 1.3
-1 33 -4 0.55 0.84
1 -34 -3 2.37 1.05
1 -34 -2 10.56 1.52
1 -34 -1 1.16 1.14
1 -35 -3 2.31 1.1
-2 0 14 3.49 1
2 0 -13 0.09 0.88
2 0 -12 13.78 1.48
2 0 -11 -0.16 0.66
2 0 -10 2.71 0.78
-2 0 10 1.09 0.2
2 0 -9 1.05 0.71
2 0 -9 0.65 0.73
-2 0 9 0.74 0.25
2 0 -8 110.8 2.77
2 0 -8 99.18 3.17
-2 0 7 0.12 0.21
2 0 -7 0.21 0.48
2 0 -7 -0.03 0.45
-2 0 6 19.62 0.72
2 0 -6 21.78 1.23
-2 0 5 0.15 0.22
2 0 -5 0.32 0.38
-2 0 4 2160.6 40.61
2 0 -4 2182.25 41.24
-2 0 3 0.17 0.26
2 0 -3 0.29 0.34
2 0 -3 0.31 0.34
2 0 -2 82.84 2
-2 0 2 77.62 2.02
2 0 -2 81.53 2.17
2 0 -2 81.36 2.28
2 0 -1 0.09 0.25
2 0 -1 0.03 0.24
2 0 -1 -0.06 0.24
-2 0 0 709.13 14.03
2 0 0 713.06 13.83
2 0 0 702.61 13.74
2 0 0 703.9 13.52
2 0 1 0.32 0.25
-2 0 -1 0.33 0.34
2 0 1 0.02 0.36
2 0 1 -0.16 0.18
2 0 2 0.56 0.2
-2 0 -2 0.97 0.36
2 0 3 0.03 0.22
-2 0 -3 0.37 0.34
2 0 3 -0.07 0.11
2 0 4 246.92 5.29
2 0 4 236 5.18
2 0 5 0.56 0.45
2 0 5 -0.23 0.21
2 0 5 0.21 0.38
2 0 5 0.07 0.38
2 0 5 0.2 0.41
2 0 6 148.52 3.82
2 0 6 146.28 3.87
2 0 6 161.56 3.88
2 0 6 149.98 3.72
2 0 6 142.83 3.2
2 0 7 0.28 0.43
2 0 7 0.57 0.54
2 0 8 69.42 2.23
2 0 9 0.77 0.53
2 0 10 34.54 1.54
2 0 11 -0.55 0.92
2 0 12 -0.62 0.97
2 0 13 0.35 1.2
-2 -1 14 0.49 0.84
-2 -1 13 9.51 1.13
2 1 -13 7.8 1.29
2 -1 -13 8.11 1.34
2 -1 -12 1.23 0.84
2 1 -12 2.15 0.93
2 1 -11 0.36 0.68
-2 1 11 0.46 0.23
2 -1 -10 9.33 0.99
2 1 -10 10.07 1.05
2 -1 -9 85.35 2.44
2 1 -9 78.72 2.46
-2 -1 8 0.67 0.21
-2 1 8 0.78 0.28
2 1 -8 1.37 0.61
2 1 -8 0.75 0.59
2 -1 -8 0.41 0.59
2 1 -7 23 1.17
2 -1 -7 22.32 1.34
2 1 -7 23.22 1.36
-2 1 7 21.06 0.76
-2 -1 7 19.04 0.64
2 1 -6 74.39 2.19
2 -1 -6 67.1 2.35
2 1 -6 69.75 2.38
-2 1 6 65.67 1.7
-2 -1 6 66.89 1.59
2 -1 -5 93.03 2.79
2 1 -5 93.18 2.8
-2 1 5 95.3 2.23
-2 -1 5 94.06 2.14
2 1 -4 4.12 0.62
2 -1 -4 4.31 0.61
-2 1 4 2.66 0.4
2 1 -3 321.57 6.8
2 -1 -3 304.47 6.76
2 1 -3 313.51 6.68
2 -1 -3 314.24 6.72
-2 1 3 312.31 6.37
2 1 -2 274.74 5.89
2 -1 -2 271.08 5.88
-2 1 2 266.07 5.61
2 1 -2 274.31 5.52
2 1 -2 264.78 5.72
2 -1 -2 269.75 5.75
2 -1 -1 97.79 2.53
2 1 -1 97.45 2.51
-2 1 1 98.57 1.9
2 -1 -1 93.39 2.33
2 1 -1 96.36 2.32
-2 1 1 89.67 2.36
2 -1 -1 95.06 2.33
2 1 -1 92.71 2.31
-2 1 0 39.75 1.42
-2 -1 0 40.6 1.43
2 -1 0 37.81 1.29
2 1 0 39.65 1.28
2 -1 0 37.01 1.24
2 -1 0 37.1 1.08
-2 1 -1 829.92 16.59
-2 -1 -1 827.18 16.59
2 -1 1 877.83 16.32
2 1 1 851.77 15.79
2 -1 1 855.63 15.83
2 1 1 833.59 16.39
2 -1 1 831.44 16.37
2 -1 1 821.79 15.93
2 -1 2 116.44 2.49
-2 1 -2 116.36 3.09
-2 -1 -2 116.41 3.09
2 -1 2 114.55 2.69
-2 1 -3 0.4 0.35
-2 -1 -3 0.07 0.3
2 -1 3 0.06 0.19
2 -1 3 -0.18 0.26
2 1 3 0.44 0.19
2 1 4 59.16 1.92
2 -1 4 59.27 1.91
2 -1 4 56.28 1.84
2 -1 4 60.85 1.65
2 1 4 57.74 1.42
2 -1 4 60.42 1.97
2 1 5 317.6 7.2
2 -1 5 332.04 7.25
2 -1 5 364.32 7.32
2 -1 5 340.73 7.03
2 -1 5 351.4 7.34
2 1 5 335.29 6.69
2 -1 5 322.78 7.3
2 1 5 336 7.34
2 -1 6 55.78 1.89
2 -1 6 49.77 1.83
2 -1 6 44.78 1.81
2 1 6 48.79 1.85
2 -1 6 49.8 1.78
2 1 6 48.82 1.73
2 1 6 51.06 1.44
2 -1 7 24.9 1.22
2 -1 7 22.91 1.13
2 1 7 22.59 1.06
2 1 7 25.03 0.91
2 -1 8 53.79 2.02
2 -1 8 49.82 1.87
2 1 8 49.88 1.8
2 1 8 54.06 1.65
2 -1 9 57.95 2.21
2 -1 9 52.5 1.96
2 1 9 48.79 1.81
2 -1 10 2.28 0.86
2 -1 10 1.71 0.63
2 1 10 1.58 0.58
2 -1 11 9.63 1.2
2 -1 11 7.05 0.86
2 1 12 1.29 1.02
2 -1 12 0.99 0.95
2 -1 13 9.42 1.53
2 1 13 9.25 1.62
-2 -2 14 2.36 0.92
-2 -2 13 -0.35 0.75
2 -2 -13 0.97 0.93
2 2 -13 -0.19 0.82
-2 -2 12 1.89 0.79
2 -2 -12 2.13 0.92
2 2 -12 2.66 0.92
2 2 -11 18.2 1.31
2 2 -11 17.7 1.56
-2 2 11 13.17 0.6
2 2 -10 9.72 1.09
-2 2 10 6.89 0.49
2 -2 -9 0.4 0.62
2 2 -9 1.93 0.73
-2 2 8 46.71 1.38
2 2 -8 54.85 1.96
2 -2 -8 51.3 2.24
2 2 -8 52.22 2.23
-2 2 8 57.04 1.96
-2 2 7 167.46 3.79
2 -2 -7 176.29 4.77
2 2 -7 186.91 4.82
-2 2 7 192.62 4.47
2 2 -7 183.71 4.4
-2 2 6 3.44 0.4
2 2 -6 3.83 0.64
2 2 -6 2.62 0.63
2 2 -6 2.35 0.58
-2 2 6 3.76 0.61
2 -2 -6 2.72 0.62
-2 2 5 98.96 2.69
2 2 -5 99.23 2.7
2 2 -5 87.09 2.67
2 2 -5 90.42 2.76
2 -2 -5 93.45 2.83
-2 2 5 94.91 2.27
-2 2 4 102.03 2.69
-2 2 4 98.55 2.37
2 2 -4 93.52 2.71
2 -2 -4 96.61 2.76
2 2 -3 30.93 1.24
2 2 -3 30.08 0.9
-2 2 3 27.43 0.99
2 2 -3 28.5 1.16
2 -2 -3 29.37 1.19
-2 -2 3 25.36 0.79
2 2 -2 62.52 1.88
2 -2 -2 63.83 1.9
-2 2 2 62.53 1.69
2 2 -2 60.62 1.59
2 -2 -2 60.52 1.77
2 2 -2 59.94 1.74
-2 -2 2 57.58 1.28
2 -2 -1 480.23 9.87
-2 2 1 503.39 9.25
2 -2 -1 493 9.69
-2 2 1 480.49 9.77
2 2 -1 466.9 9.63
2 -2 -1 479.35 9.66
-2 2 0 274.02 5.93
2 -2 0 271.91 5.75
-2 2 0 271.41 5.2
2 -2 0 270.75 5.68
2 2 0 263.68 5.66
2 -2 0 271.77 5.45
-2 2 -1 19.45 0.96
2 -2 1 19.47 0.83
2 -2 1 18.93 0.56
2 2 1 19.21 0.88
2 -2 1 17.48 0.84
2 -2 1 18.42 0.57
2 -2 2 107.4 2.35
2 -2 2 109.99 2.56
-2 2 -2 108 2.92
2 -2 3 545.89 10.47
2 -2 3 536.73 10.48
-2 2 -3 544.61 11.13
2 2 3 521.04 10.87
2 -2 4 11.74 0.77
2 2 4 12.07 0.8
2 -2 4 11.85 0.52
2 -2 4 12.18 0.66
2 2 4 11.65 0.55
2 -2 4 11.56 0.79
2 -2 5 1.3 0.41
2 -2 5 1.36 0.47
2 -2 5 1.56 0.46
2 -2 5 1.06 0.21
2 2 5 2.18 0.5
2 -2 5 1.24 0.35
2 2 5 1.54 0.31
2 -2 6 120.8 3.32
2 2 6 120.01 3.38
2 -2 6 122.68 3.15
2 -2 6 134.94 3.37
2 2 6 118.39 3.15
2 -2 6 125.34 3.33
2 2 6 123.7 2.9
2 -2 7 78.1 2.43
2 -2 7 86.79 2.58
2 2 7 81.66 2.18
2 2 7 79.51 2.35
2 -2 7 77.23 2.47
2 2 8 7.66 0.69
2 2 8 7.58 0.71
2 -2 8 7.54 0.79
2 -2 8 6.79 0.81
2 2 9 17.06 1
2 -2 9 15.26 1.08
2 2 9 14.53 0.93
2 -2 9 16.62 1.22
2 -2 10 19.51 1.23
2 2 10 19.69 1.09
2 -2 10 24.79 1.54
2 -2 11 17.03 1.24
2 -2 11 23.79 1.63
2 -2 12 0.6 0.92
2 -2 13 22.85 1.93
2 2 13 21.62 2
2 -3 -13 0.2 0.88
2 3 -13 0.19 0.84
-2 -3 13 0.12 0.75
2 3 -12 5.18 1.08
2 -3 -12 6.28 1.23
-2 -3 12 7.36 1
2 3 -11 0.81 0.79
-2 -3 11 0.5 0.69
2 3 -11 1.42 0.84
2 3 -10 51.91 2.18
-2 -3 10 49.5 1.99
2 3 -9 0.7 0.63
2 -3 -9 -0.07 0.64
2 3 -8 11.47 0.96
2 -3 -8 10.3 1.05
2 3 -8 10.2 1.05
2 3 -7 3.61 0.7
2 -3 -7 3.32 0.73
2 3 -7 4.79 0.79
-2 3 7 4.1 0.71
-2 3 6 354.88 7.48
2 3 -6 367.77 8.26
2 -3 -6 377.43 8.36
2 3 -6 382.27 8.18
2 3 -6 367.71 7.98
-2 3 6 397.69 8.1
-2 3 5 0.65 0.28
-2 3 5 0.27 0.42
2 3 -5 -0.04 0.39
-2 3 5 0.47 0.4
2 3 -5 -0.19 0.37
2 3 -5 0.24 0.44
2 -3 -5 0.09 0.37
-2 3 4 24.53 1.11
-2 3 4 24.39 0.92
-2 3 4 23.51 1.07
2 3 -4 21.97 1.12
2 -3 -4 25.47 1.2
-2 -3 4 21.43 0.79
2 3 -3 58.12 1.9
-2 3 3 66.62 1.74
2 3 -3 60.16 1.5
2 3 -3 61.59 1.88
2 -3 -3 62.8 1.93
-2 -3 3 56.77 1.42
2 3 -2 1191.79 22.73
-2 3 2 1229.86 22.94
-2 3 2 1180.94 22.89
2 -3 -2 1217.94 23.06
-2 -3 2 1198.18 22.39
2 -3 -1 16.54 0.79
-2 3 1 15.85 0.45
2 -3 -1 16.13 0.7
-2 3 1 15.4 0.72
2 3 -1 15.81 0.68
2 -3 -1 15.22 0.66
-2 3 0 162.78 3.81
2 -3 0 163.89 3.68
-2 3 0 157.38 3.17
2 3 0 151.88 3.56
2 -3 0 160.84 3.59
2 -3 0 159.27 3.38
2 -3 1 25.95 0.72
2 -3 1 25.31 0.96
2 -3 1 24.44 0.68
-2 3 -1 23.43 1.08
2 -3 2 473.68 9.43
2 -3 2 504.56 9.65
-2 3 -2 486.56 10.1
2 3 2 504.24 9.95
-2 3 -3 1.69 0.44
2 -3 3 1.46 0.27
2 3 3 2.03 0.45
2 -3 3 1.24 0.3
2 -3 3 1.86 0.44
2 -3 4 111.02 2.97
2 3 4 116.91 3.06
2 -3 4 116.65 2.5
2 -3 4 117.05 2.76
2 3 4 112.86 2.68
2 -3 4 115.2 3.1
2 3 5 13.32 0.9
2 -3 5 15.03 0.92
2 -3 5 14.17 0.87
2 -3 5 15.14 0.81
2 -3 5 13.59 0.88
2 3 5 13.82 0.68
2 3 6 104.75 2.87
2 -3 6 110.44 3
2 -3 6 109.03 3.06
2 3 6 111.19 3.13
2 -3 6 108.58 2.9
2 3 6 111.46 2.69
2 -3 6 110.48 3.09
2 3 7 0.32 0.4
2 -3 7 -0.04 0.53
2 -3 7 0.07 0.47
2 3 7 0.58 0.4
2 -3 7 0.82 0.48
2 -3 8 49.56 1.93
2 3 8 51.18 1.73
2 -3 8 46.73 1.87
2 3 8 52.3 1.73
2 -3 9 10.37 1.01
2 3 9 10.5 0.88
2 -3 9 8.68 0.9
2 3 9 10 0.76
2 -3 10 2.59 0.79
2 -3 10 1.73 0.67
2 3 10 2.77 0.56
2 -3 11 -0.26 0.8
2 -3 11 0.9 0.67
2 -3 12 14.03 1.43
2 -3 13 1.37 1.13
-2 -4 13 -0.59 0.8
2 4 -13 0.74 0.89
2 -4 -13 0.4 0.89
-2 -4 12 1.25 0.74
2 4 -12 1.65 0.92
-2 -4 11 29.67 1.58
2 4 -11 30.54 1.92
2 4 -11 28.15 1.7
2 -4 -10 3.2 0.7
2 4 -10 4.73 0.95
-2 -4 10 3.89 0.78
2 -4 -10 3.05 0.91
-2 -4 9 12.39 0.93
2 -4 -9 11.7 1.17
2 4 -9 11.71 1.09
2 4 -8 11.49 1.1
2 -4 -8 11.65 1.13
2 4 -8 12.73 1.03
-2 -4 8 11.06 0.87
-2 4 7 132.71 3.51
2 4 -7 128.86 3.6
-2 -4 7 124.44 3.2
2 4 -7 127.35 3.75
2 -4 -7 116.09 3.72
2 4 -7 127.41 3.46
-2 4 6 1.25 0.6
2 4 -6 1.23 0.58
2 4 -6 1.28 0.55
2 -4 -6 1.73 0.6
-2 -4 6 0.98 0.44
2 4 -6 0.82 0.57
2 4 -5 131.64 2.79
-2 4 5 138.15 2.79
2 4 -5 127.49 2.72
-2 4 5 128.46 2.22
2 4 -5 128.66 2.87
-2 4 5 134.52 2.73
2 -4 -5 125.77 2.93
-2 4 4 49.85 1.69
2 4 -4 48.82 1.72
-2 4 4 48.32 1.44
2 -4 -4 43.36 1.7
-2 4 4 48.49 1.64
2 4 -4 45.41 1.68
-2 -4 4 43.61 1.27
2 4 -3 131.73 2.81
-2 4 3 131.56 3.07
2 -4 -3 131.73 3.33
-2 -4 3 125.68 2.73
2 4 -2 35.41 1.12
-2 4 2 39.77 1.3
-2 4 2 36.48 1.25
2 -4 -2 36.64 1.31
-2 -4 2 35.82 0.87
-2 4 1 716.55 2.97
-2 4 1 705.06 4.63
2 4 -1 721.36 4.1
-2 4 1 720.19 3.91
2 -4 -1 722.3 4.28
-2 4 0 48.19 1.59
-2 4 0 47.23 1.42
2 -4 0 45.42 1.28
2 -4 0 45.69 1.43
-2 4 0 46.53 1.14
2 -4 1 106.37 2.29
-2 4 -1 104.89 2.31
-2 4 -1 106.41 2.79
-2 4 -1 104.14 2.73
2 -4 2 44.39 1.2
2 -4 2 44.02 1.64
2 4 2 46.79 1.55
-2 4 -2 45.86 1.64
2 -4 3 828.84 15.67
2 -4 3 796.55 16.22
2 4 3 812.04 16.03
2 4 4 51.15 1.68
2 -4 4 46.72 1.65
2 -4 4 50.5 1.66
2 -4 4 47.58 1.69
2 4 4 49.04 1.72
2 -4 4 49.85 1.5
2 4 4 52.51 1.54
2 -4 4 49.86 1.78
2 -4 5 -0.4 0.46
2 -4 5 0.43 0.43
2 4 5 0.46 0.43
2 -4 5 0.54 0.39
2 -4 5 0.18 0.4
2 4 5 1.07 0.44
2 -4 5 0.18 0.32
2 4 5 0.2 0.31
2 -4 6 27.75 1.29
2 4 6 28.65 1.36
2 -4 6 29.54 1.39
2 4 6 28.56 1.4
2 -4 6 29.28 1.37
2 -4 6 31.05 1.28
2 4 6 30.62 1.15
2 -4 6 29.79 1.4
2 4 6 29.33 1.25
2 -4 7 133.85 3.49
2 -4 7 133.6 3.51
2 4 7 132.98 3.28
2 -4 7 135.67 3.66
2 4 7 130.85 3.3
2 4 8 17.37 1
2 4 8 18.67 0.97
2 -4 8 17.15 1.14
2 -4 8 18.72 1.17
2 4 9 27.53 1.31
2 -4 9 25.15 1.4
2 4 9 23.64 1.11
2 -4 9 25.67 1.45
2 -4 10 18.23 1.27
2 4 10 16.03 0.92
2 -4 10 19.93 1.36
2 -4 11 12.37 1.18
2 -4 11 19.09 1.45
2 -4 12 0.21 0.86
2 -4 13 1.02 1.01
2 -5 -13 1.44 0.95
2 5 -13 4.95 1.15
-2 -5 13 3.61 0.92
2 5 -12 3.99 1.03
-2 -5 12 3.73 0.9
2 5 -11 2.05 0.89
-2 -5 11 1.55 0.76
2 5 -11 2.38 0.85
-2 -5 10 30.38 1.55
2 -5 -10 28.67 1.29
2 5 -10 30.44 1.73
2 -5 -10 26.87 1.86
-2 -5 9 39.81 1.69
2 -5 -9 34.99 2.01
2 5 -9 41.61 1.92
2 5 -8 4.76 0.86
2 5 -8 5.64 0.84
2 -5 -8 4.37 0.6
-2 -5 8 5.05 0.68
2 -5 -8 4.57 0.86
-2 -5 7 52.28 1.8
2 5 -7 55.15 2.07
-2 5 7 57.7 2.06
2 5 -7 55.74 2.22
2 -5 -7 51.19 2.25
2 5 -7 55.38 2.02
-2 -5 6 111.48 2.84
2 5 -6 116.04 3.26
-2 5 6 119.31 3.22
2 5 -6 110.35 3.16
2 5 -6 115.58 3.39
-2 5 6 115.44 3.21
2 -5 -6 107.93 3.4
-2 5 5 128.1 2.42
2 5 -5 120.02 2.52
2 -5 -5 119.84 2.65
2 5 -5 121.19 2.41
-2 5 5 126.87 2.43
2 5 -5 120.4 2.42
-2 5 4 3.04 0.53
-2 5 4 3.09 0.53
-2 -5 4 2.36 0.37
-2 5 4 3.34 0.43
2 5 -4 3.06 0.57
2 -5 -4 2.35 0.52
-2 5 3 247.9 5.13
2 5 -3 236.85 4.78
2 -5 -3 237.21 5.38
-2 -5 3 229.27 4.73
-2 5 2 102.99 2.59
2 5 -2 101.26 2.38
-2 -5 2 102.16 2.13
-2 5 2 100.38 2.56
2 -5 -2 100.14 2.66
-2 5 1 207.16 4.27
2 -5 -1 212.28 4.59
-2 5 1 214.53 4.48
2 -5 0 117.2 2.81
-2 5 0 116.14 2.94
-2 -5 0 109.59 2.92
-2 5 0 122.32 2.82
-2 5 0 116.11 2.48
2 5 0 113.84 2.28
2 -5 0 116.9 2.64
-2 5 0 114.07 2.54
-2 5 -1 445.55 9.08
-2 -5 -1 420.41 9.04
-2 5 -1 443.74 8.74
-2 5 -1 440.4 8.55
2 -5 1 434.75 8.54
-2 5 -1 453.98 9.07
2 -5 2 294.63 5.9
2 -5 2 289.43 6.53
-2 5 -2 303.07 6.49
-2 -5 -2 279.51 6.44
2 5 2 302.98 6.32
-2 5 -2 294.91 6.39
2 -5 3 14.97 0.69
2 -5 3 14.72 0.94
2 -5 3 16.56 0.89
2 5 3 14.16 0.83
2 -5 4 216.67 4.97
2 5 4 212.63 4.96
2 5 4 209.13 4.87
2 -5 4 210.12 4.9
2 -5 4 226.15 4.9
2 -5 4 222.07 4.71
2 5 4 217.85 4.8
2 -5 4 213.02 5.12
2 -5 5 159.97 4.01
2 5 5 155.94 4.01
2 5 5 163.26 3.96
2 -5 5 160.86 3.97
2 -5 5 165.86 3.91
2 -5 5 159.6 3.76
2 5 5 159.33 3.74
2 -5 5 165.54 4.16
2 -5 6 67.64 2.13
2 5 6 70.69 2.24
2 -5 6 68.55 2.23
2 -5 6 69.32 2.28
2 5 6 65.29 2.27
2 -5 6 68.59 2.08
2 5 6 66.75 1.98
2 -5 6 67.93 2.32
2 -5 7 2.8 0.6
2 5 7 3.05 0.51
2 -5 7 3.16 0.61
2 -5 7 2.85 0.58
2 5 7 2.85 0.53
2 -5 8 57.13 2.09
2 -5 8 56.89 2.18
2 5 8 59.63 1.84
2 5 8 60.56 1.96
2 -5 9 30.84 1.59
2 5 9 35.84 1.51
2 -5 9 32.79 1.64
2 5 9 31.29 1.24
2 5 10 0.59 0.42
2 -5 10 0.6 0.64
2 -5 10 1.07 0.71
2 -5 11 2.8 0.82
2 -5 11 3.58 0.92
2 -5 12 8.81 1.22
2 -5 13 3.03 1.09
-2 -6 13 0.46 0.81
2 6 -13 0.09 0.91
2 -6 -13 -0.31 0.9
2 6 -12 18.03 1.61
-2 -6 12 15.39 1.29
2 6 -11 7.7 1.13
-2 -6 11 5.93 0.9
-2 -6 10 8.47 0.93
2 -6 -10 9.97 1.22
2 -6 -10 9.56 0.79
2 6 -10 9.82 1.13
2 6 -9 1.65 0.81
2 -6 -9 2.59 0.61
-2 -6 9 1.7 0.65
2 -6 -9 1.48 0.82
-2 -6 8 129.27 3.46
2 -6 -8 140.36 3.32
2 6 -8 132.93 3.78
2 -6 -8 122.57 4.1
2 6 -8 135.06 3.76
2 6 -7 8.02 0.93
-2 -6 7 7.42 0.72
-2 6 7 8.88 0.88
2 6 -7 8.51 0.86
2 -6 -7 8.48 0.98
2 6 -7 8.2 0.89
-2 -6 6 8.69 0.65
2 -6 -6 7.69 0.87
-2 6 6 10.74 0.88
2 6 -6 8.07 0.85
-2 6 6 9.46 0.85
2 6 -6 7.95 0.78
2 6 -6 9.05 0.87
2 -6 -5 1 0.48
2 6 -5 0.59 0.52
2 6 -5 0.51 0.41
2 6 -5 0.8 0.46
-2 6 5 1.3 0.5
-2 6 5 0.3 0.45
2 6 -4 463.95 9.09
-2 -6 4 469.34 9.33
-2 6 4 504 9.97
2 6 -4 496.7 10.04
2 -6 -4 474.73 10.12
-2 6 4 496.92 9.88
2 -6 -3 7.61 0.69
-2 6 3 9.21 0.63
2 6 -3 7.79 0.46
-2 -6 3 7.17 0.43
-2 6 2 8.07 0.58
-2 -6 2 7.58 0.37
-2 6 2 8.21 0.58
2 -6 -2 7.42 0.59
2 6 -1 38.14 0.92
-2 6 1 36.78 1.08
2 -6 -1 36.13 1.28
-2 6 1 36.88 1.2
-2 6 0 1044.37 19.92
2 6 0 1038.15 19.71
-2 6 0 1105.7 20.31
-2 -6 0 1088.73 20.43
-2 6 0 1078.69 20.42
-2 6 0 1040.37 19.97
2 -6 1 29.4 1.28
-2 6 -1 29.88 1.21
-2 6 -1 27.26 1.16
-2 -6 -1 30.3 1.22
-2 6 -1 29.39 1.04
-2 6 -1 28.23 0.92
2 -6 1 28.49 0.91
-2 6 -1 27.61 0.79
-2 6 -2 252.95 5.27
2 -6 2 246.86 5.22
2 6 2 258.68 5.58
-2 6 -2 263.56 5.75
-2 -6 -2 261.34 5.77
-2 6 -2 265.84 5.74
2 -6 2 256.66 5.83
2 -6 3 74.78 1.92
2 -6 3 75.84 2.17
2 6 3 73.74 2.15
2 -6 3 72.12 2.32
2 6 4 230.33 5.22
2 -6 4 233.48 5.21
2 -6 4 232.41 5.25
2 -6 4 234.5 5.3
2 6 4 233.72 5.29
2 -6 4 235.39 5.03
2 6 4 233.15 5.23
2 -6 4 233.21 5.51
2 -6 5 2.34 0.54
2 6 5 3.54 0.58
2 -6 5 2.99 0.57
2 -6 5 3.66 0.6
2 -6 5 2.93 0.55
2 6 5 3.49 0.6
2 -6 5 3.14 0.49
2 6 5 2.78 0.49
2 -6 6 78.61 2.3
2 6 6 76.23 2.36
2 -6 6 72.77 2.34
2 -6 6 74.37 2.41
2 6 6 79.82 2.48
2 -6 6 74.37 2.22
2 6 6 72.07 2.17
2 -6 6 74.67 2.5
2 -6 7 3.74 0.71
2 6 7 2.3 0.48
2 -6 7 1.75 0.56
2 -6 7 2.61 0.57
2 6 7 2.61 0.54
2 6 8 29.21 1.33
2 -6 8 28.76 1.39
-2 6 -8 27.17 1.08
2 -6 8 29.32 1.54
2 6 8 28.36 1.15
2 6 9 3.45 0.49
2 -6 9 4.16 0.78
2 -6 9 2.89 0.73
2 6 9 3.91 0.72
2 -6 10 24.11 1.46
2 -6 10 20.67 1.43
2 -6 11 0.77 0.8
2 -6 11 0.06 0.71
2 -6 12 -0.07 0.84
2 7 -13 10.5 1.42
2 -7 -13 9.68 1.53
-2 -7 13 11.39 1.22
-2 -7 12 1.13 0.82
2 7 -12 2.97 0.98
-2 -7 11 0.4 0.66
2 7 -11 0.16 0.76
2 7 -10 9.78 1.23
2 -7 -10 10.73 1.27
2 -7 -10 9.01 0.55
2 -7 -10 11.21 0.74
-2 -7 10 11.1 1.01
2 -7 -9 79.27 2.19
-2 -7 9 69.22 2.36
2 -7 -9 67.84 2.92
2 7 -9 75.71 2.71
2 7 -8 -0.05 0.52
2 -7 -8 0.39 0.5
2 7 -8 0.48 0.68
-2 -7 8 1.29 0.55
2 -7 -8 1.52 0.74
2 7 -7 48.48 2.09
2 7 -7 48.47 1.93
-2 -7 7 46.73 1.64
2 -7 -7 47.8 2.21
2 7 -7 47.79 1.95
2 -7 -6 0.11 0.46
-2 -7 6 -0.02 0.37
2 7 -6 0.52 0.51
2 7 -6 0.13 0.42
-2 7 6 0.51 0.51
2 7 -6 0.39 0.42
-2 7 6 0.65 0.5
2 -7 -5 146.97 4.1
-2 7 5 149.74 3.82
2 7 -5 148.74 3.9
2 7 -5 145.57 3.82
-2 7 5 144.54 3.81
2 7 -4 1.42 0.67
2 7 -4 -0.28 0.25
-2 7 4 1.22 0.5
-2 7 4 1.15 0.5
-2 -7 4 0.64 0.33
2 -7 -4 0.57 0.43
-2 -7 3 320.12 6.45
2 -7 -3 324.42 7.2
2 7 -3 329.08 6.49
-2 7 3 336 6.91
-2 7 2 27.36 1.13
-2 7 2 27.26 1.17
2 -7 -2 26.72 1.19
-2 -7 2 27.13 0.82
-2 7 2 28.29 1.1
2 -7 -1 229.96 5.11
-2 7 1 239.63 4.96
-2 7 1 230.77 4.78
2 7 -1 229.28 4.57
-2 7 0 0.02 0.21
-2 -7 0 0.5 0.35
-2 7 0 0.41 0.33
-2 7 0 0.73 0.31
2 7 0 0.39 0.22
-2 7 0 0.41 0.26
2 -7 1 348.29 7.72
-2 7 -1 369.83 7.63
-2 7 -1 364.45 7.55
-2 -7 -1 358.91 7.55
-2 7 -1 373.74 7.34
-2 7 -1 359.2 7.14
2 -7 1 365.32 7.16
-2 7 -1 342.31 6.98
-2 7 -2 54.81 1.78
2 7 2 53.92 1.62
-2 7 -2 52.44 1.73
-2 -7 -2 53.43 1.75
-2 7 -2 52.88 1.43
-2 7 -2 50.18 1.43
2 -7 2 51.55 1.4
2 -7 2 52.11 1.83
-2 7 -2 43.54 1.06
2 -7 3 5.46 0.47
2 -7 3 5.72 0.58
2 7 3 6.83 0.61
-2 7 -3 7.26 0.65
2 -7 3 6.51 0.67
2 -7 4 11.25 0.67
2 -7 4 11.48 0.79
2 7 4 11.35 0.78
2 -7 4 9.97 0.74
2 -7 4 9.86 0.74
2 7 4 10.77 0.75
2 -7 4 10.89 0.88
2 -7 5 299.65 6.33
2 7 5 286.42 6.37
2 -7 5 286.62 6.38
2 -7 5 287.76 6.46
2 7 5 298.02 6.48
2 -7 5 283.32 6.19
2 7 5 280.58 6.33
2 -7 5 293.58 6.71
2 -7 6 2.89 0.58
2 7 6 3.78 0.64
2 -7 6 4.18 0.7
2 -7 6 4.58 0.69
2 7 6 4.21 0.68
2 7 6 3.41 0.56
-2 7 -6 2.5 0.3
2 -7 6 3.27 0.56
2 -7 6 3.29 0.66
2 -7 7 61.51 2.3
2 7 7 57.3 1.86
2 -7 7 63.96 2.07
2 -7 7 61.42 2.04
-2 7 -7 65.33 1.63
2 7 7 62.74 2.04
2 7 8 6.22 0.72
2 -7 8 5.9 0.85
-2 7 -8 6.09 0.53
2 -7 8 4.32 0.68
2 7 8 5.15 0.54
2 7 9 62.83 2.16
2 -7 9 63.48 2.25
-2 7 -9 59.44 1.81
2 7 9 56.89 1.7
2 -7 9 52.16 2.27
2 -7 10 0.85 0.75
-2 7 -10 -0.26 0.48
2 -7 10 -0.1 0.69
2 -7 11 7.68 1.09
2 -7 11 9.74 1.13
2 -7 12 -0.33 0.82
2 -8 -13 1.77 1.1
2 8 -13 0.28 0.87
-2 -8 13 0.23 0.84
2 8 -12 11.39 1.42
-2 -8 12 8.19 1.07
-2 -8 11 10.43 1.04
2 8 -11 10.04 1.26
2 8 -10 1.66 0.84
-2 -8 10 2.52 0.71
2 -8 -10 1.04 0.83
2 -8 -10 1.83 0.43
2 -8 -10 1.6 0.31
2 8 -9 4.88 0.8
2 -8 -9 4.67 0.67
2 -8 -9 3.98 0.47
-2 -8 9 5.05 0.75
2 -8 -9 5.28 1
2 -8 -8 35.29 1.3
2 8 -8 34.56 1.65
2 -8 -8 32.04 1.19
-2 -8 8 34.85 1.46
2 -8 -8 33.34 1.93
2 8 -8 37.04 1.75
2 8 -7 23.61 1.44
2 8 -7 22.26 1.28
-2 -8 7 21.48 1.08
2 -8 -7 22.06 1.53
2 8 -7 21.93 1.34
-2 8 6 4.22 0.73
2 8 -6 2.59 0.6
2 8 -6 3.72 0.71
-2 8 6 3.85 0.71
-2 -8 6 2.93 0.48
2 8 -6 3.64 0.77
2 -8 -6 2.41 0.7
-2 8 5 100 2.88
2 -8 -5 90.97 3.08
2 8 -5 94.51 2.91
2 8 -5 97.67 2.84
-2 8 5 98.52 2.88
2 8 -4 274.67 6.15
-2 8 4 277.93 6.07
2 8 -4 255.08 5.16
-2 -8 4 261.1 5.42
-2 8 4 274.62 5.98
2 -8 -4 261.47 6.27
-2 -8 3 124.56 2.79
2 -8 -3 124.31 3.47
-2 8 3 134.23 3.29
2 -8 -2 37.99 1.32
-2 8 2 36.63 1.26
2 8 -2 38.12 1.4
-2 8 2 38 1.22
2 8 -2 35.83 0.8
2 -8 -2 34.47 1.28
-2 -8 2 35.32 0.81
2 8 -1 70.7 2.2
2 8 -1 70.37 1.65
-2 8 1 71.58 1.83
-2 8 1 72.24 1.95
2 -8 -1 73.09 2.24
2 8 0 214.64 1.66
-2 8 0 231.23 2.19
-2 8 0 232.73 2.81
-2 -8 0 230.47 2.82
-2 8 0 216.29 2.2
2 -8 1 92.87 2.73
-2 8 -1 95.5 2.61
-2 8 -1 93.44 2.54
-2 -8 -1 92.97 2.55
-2 8 -1 97.07 2.41
-2 8 -1 94.22 2.25
2 -8 1 93.33 2.27
-2 8 -1 90.59 2.13
-2 8 -2 158.46 3.78
-2 8 -2 150.85 3.67
-2 -8 -2 156.02 3.72
2 8 2 147.66 3.5
-2 8 -2 154.25 3.35
-2 8 -2 148.69 3.34
2 -8 2 154.76 3.34
2 -8 2 145.56 3.83
-2 8 -2 137.03 2.99
-2 8 -3 238.85 5.07
2 -8 3 235.86 5.02
-2 8 -3 246.81 5.48
2 -8 3 221.29 5.15
2 -8 3 240.48 5.27
2 8 3 236.94 5.24
2 -8 3 230.34 5.59
2 -8 4 184.94 4.14
2 -8 4 186.89 4.27
2 8 4 176.02 4.25
2 -8 4 185.48 4.29
2 -8 4 183.23 4.65
2 -8 4 183.9 4.35
2 8 4 178.93 4.31
2 -8 5 47.82 1.73
2 8 5 45.65 1.71
2 -8 5 46.61 1.69
2 -8 5 45.71 1.62
2 8 5 45.59 1.66
2 -8 5 46.56 1.58
2 8 5 46.15 1.72
2 -8 5 43.43 1.87
2 8 6 264.59 6.09
2 -8 6 268.36 6.12
2 -8 6 270.53 6.22
2 8 6 267.4 6.22
2 -8 6 271.54 6
2 -8 6 277.77 6.03
-2 8 -6 271.29 5.32
2 8 6 272.66 6.11
2 -8 6 263.19 6.43
2 -8 7 47.29 2.05
2 -8 7 50.98 1.84
2 -8 7 55.4 1.86
-2 8 -7 50.95 1.38
2 8 7 51.77 1.85
2 8 8 8.18 0.82
2 -8 8 8.26 0.82
-2 8 -8 9.88 0.6
2 -8 8 9.42 1.01
2 8 8 8.43 0.63
2 8 9 0.18 0.37
2 -8 9 0.24 0.66
2 -8 9 -0.27 0.58
2 8 9 -0.04 0.61
-2 8 -9 -0.03 0.41
-2 8 -10 15.06 0.92
2 -8 10 15.31 1.34
2 -8 10 16.48 1.24
-2 8 -11 7.83 0.83
2 -8 11 9.21 1.25
2 -8 11 10.32 1.16
2 -8 12 0.58 0.82
2 9 -13 0.93 0.93
-2 -9 13 0.97 0.81
2 9 -12 0.7 0.85
-2 -9 12 0.11 0.79
2 9 -11 0.49 0.81
2 -9 -11 0.68 0.93
-2 -9 11 1.24 0.7
-2 -9 10 37.9 1.73
2 -9 -10 39.06 2.33
2 9 -10 41.86 2.21
2 -9 -9 17.85 0.91
2 9 -9 15.79 1.17
2 -9 -9 15.34 1.45
2 -9 -9 14.87 0.7
-2 -9 9 16.23 1.08
2 9 -8 18.55 1.2
-2 -9 8 18.12 1.05
2 -9 -8 17.75 1.49
2 -9 -8 16.37 0.81
2 9 -7 4.39 0.71
2 9 -7 3.59 0.76
2 9 -7 3.4 0.77
2 -9 -7 3.3 0.5
-2 -9 7 3.82 0.59
2 -9 -7 4.58 0.88
-2 9 6 298.81 6.68
2 9 -6 286.83 6.65
-2 9 6 293.21 6.68
2 -9 -6 288.26 6.17
-2 -9 6 277.82 6.09
2 -9 -6 278.4 7.1
2 9 -6 285.55 6.71
-2 9 5 55.29 2.03
-2 9 5 57.27 2.02
2 -9 -5 53.65 1.77
2 -9 -5 51.61 2.2
2 9 -5 56.06 2.11
2 -9 -4 0.51 0.39
2 9 -4 1.48 0.61
-2 9 4 1.29 0.53
2 9 -4 0.09 0.21
-2 -9 4 0.02 0.1
-2 9 4 1.08 0.45
2 -9 -4 0.49 0.44
-2 9 3 100.98 2.74
-2 -9 3 100.63 2.35
2 -9 -3 96.56 2.97
2 -9 -3 101.4 2.78
-2 9 2 750.87 15.27
2 9 -2 763.41 15.54
-2 9 2 805.03 15.45
2 9 -2 763.59 14.76
-2 -9 2 785 14.81
2 -9 -2 734.76 15.49
-2 9 2 800.65 14.97
2 -9 -2 762.79 15.41
-2 -9 1 72.63 2.03
-2 9 1 67.26 1.98
-2 9 1 71.91 2.11
2 9 -1 66.48 2.16
-2 9 1 68.69 1.82
2 9 -1 66.01 1.62
2 -9 -1 68.25 2.17
-2 9 1 66.1 1.91
-2 9 0 143.55 3.46
-2 -9 0 149.88 3.5
2 9 0 144.51 3.64
2 9 0 142.31 3.05
-2 9 0 147.53 3.26
-2 9 0 146.37 3.62
-2 9 0 143.52 3.29
2 -9 1 66.07 2.3
-2 9 -1 79.22 2.31
-2 9 -1 76.09 2.19
-2 -9 -1 76.72 2.2
-2 9 -1 77.49 2.07
-2 9 -1 77.81 1.97
2 -9 1 77.32 2
2 9 1 75.33 1.81
-2 9 -1 74.77 1.86
-2 9 -2 440.1 8.95
-2 9 -2 426.58 8.83
-2 -9 -2 425.92 8.85
-2 9 -2 436.5 8.51
2 -9 2 418.52 8.48
-2 9 -2 424.81 8.5
-2 9 -2 409.17 8.2
2 -9 2 423.06 9.11
-2 9 -3 6.95 0.68
2 9 3 6.97 0.61
2 -9 3 7.09 0.63
-2 9 -3 5.95 0.43
-2 9 -3 5.78 0.57
2 -9 3 6 0.51
-2 9 -3 5.57 0.3
2 -9 3 6.02 0.68
2 -9 4 36 1.37
2 9 4 34.91 1.35
2 -9 4 35.96 1.33
-2 9 -4 34.1 1.44
2 9 4 31.56 1.27
2 -9 4 33.55 1.29
2 -9 4 35.78 1.25
2 -9 4 35.48 1.57
2 9 5 5.65 0.68
2 -9 5 5.13 0.65
2 -9 5 6 0.7
2 -9 5 5.72 0.65
2 9 5 6.07 0.7
2 -9 5 5.1 0.59
-2 9 -5 4.83 0.28
2 9 5 6.09 0.73
2 -9 5 5.89 0.75
2 -9 6 166.56 3.9
2 9 6 157.05 3.93
2 -9 6 159.66 3.95
2 -9 6 153.75 4.01
2 9 6 158.58 4.04
2 -9 6 155.56 3.84
2 9 6 152.44 3.95
-2 9 -6 150.62 3.21
2 -9 6 154.64 4.27
2 -9 7 1.05 0.6
2 -9 7 1.09 0.56
2 -9 7 0.95 0.5
-2 9 -7 0.42 0.28
2 9 7 0.67 0.52
2 -9 8 45.73 1.81
-2 9 -8 45.77 1.38
2 9 8 43.81 1.43
2 -9 8 44.27 2.05
2 9 8 48.1 1.85
2 9 9 4.89 0.78
-2 9 -9 3.62 0.53
2 9 9 4.14 0.45
2 -9 9 4.33 0.9
2 -9 9 3.98 0.76
-2 9 -10 -0.21 0.46
2 -9 10 -0.07 0.72
2 -9 10 0.36 0.72
-2 9 -11 3.68 0.71
2 -9 11 5.17 1.07
2 -9 11 3.6 0.93
2 -9 12 4.63 1.01
2 10 -13 0.37 0.89
-2 -10 13 0.06 0.79
2 10 -12 12.38 1.47
-2 -10 12 9.14 1.12
-2 -10 11 29.78 1.57
2 10 -11 27.35 1.91
2 -10 -11 25.22 2.04
2 -10 -10 5.43 1.11
-2 -10 10 5.34 0.83
2 10 -10 6.29 1.04
-2 -10 9 7.97 0.82
2 -10 -9 8.5 1.17
2 -10 -9 8.29 0.52
2 -10 -9 9.37 0.7
2 10 -9 7.9 0.91
2 10 -8 3.7 0.7
2 -10 -8 1.75 0.79
-2 -10 8 1.9 0.54
2 -10 -8 2.52 0.43
2 10 -7 99.28 3
2 10 -7 84.12 3.09
-2 -10 7 91.82 2.58
2 -10 -7 97.88 3.53
2 10 -7 98.01 3.08
2 -10 -7 92.32 2.42
-2 -10 6 8.24 0.67
2 -10 -6 6.79 0.97
-2 10 6 8.49 0.92
2 10 -6 8.07 0.96
2 -10 -6 7.57 0.69
2 10 -6 8.49 0.85
-2 10 5 117.72 3.33
-2 -10 5 110.06 2.76
2 -10 -5 110.51 3.59
2 10 -5 113.05 3.36
2 -10 -5 113.37 2.96
-2 10 5 117.56 3.25
-2 10 4 0.33 0.38
2 -10 -4 0.57 0.48
2 -10 -4 0.35 0.35
2 10 -4 0.37 0.51
-2 10 3 156.8 3.82
2 -10 -3 147.16 4.1
2 -10 -3 162.41 3.89
-2 -10 3 150.94 3.37
2 10 -3 151.94 3.4
2 10 -2 7.89 0.8
2 10 -2 7.73 0.51
-2 10 2 7.37 0.61
-2 -10 2 6.88 0.51
2 -10 -2 8.14 0.72
-2 10 1 357.09 7.5
-2 -10 1 365.16 7.54
2 10 -1 364.51 7.87
-2 10 1 369.19 7.35
2 10 -1 356.45 7.11
2 -10 -1 358.9 7.82
-2 10 1 354.78 7.49
-2 10 0 30.01 1.15
-2 -10 0 28.68 1.15
2 10 0 28.85 1.31
2 10 0 27.86 0.89
-2 10 0 26.69 1.03
-2 10 0 31.77 1.31
-2 10 0 28.45 1.06
-2 10 -1 54.18 1.42
-2 -10 -1 55.83 1.47
2 10 1 50.45 1.52
-2 10 -1 54.92 1.26
-2 10 -1 54.06 1.16
2 10 1 55.55 1.07
2 -10 1 55 1.29
-2 10 -1 56.87 1.62
-2 10 -2 3.24 0.51
-2 10 -2 3.89 0.48
-2 -10 -2 4.07 0.5
-2 10 -2 3.44 0.41
-2 10 -2 3.12 0.32
2 -10 2 3.31 0.43
-2 10 -2 2.74 0.46
2 10 2 3.78 0.53
2 -10 2 3.79 0.58
-2 10 -3 557.71 10.83
2 -10 3 528.78 10.46
2 10 3 519.71 10.42
-2 10 -3 497.62 10.07
-2 10 -3 539.2 10.37
2 -10 3 522.23 10.29
-2 10 -3 486.91 9.91
2 -10 3 526.7 11.02
2 -10 4 100.82 2.63
2 -10 4 98.03 2.7
2 10 4 98.67 2.69
-2 10 -4 101.2 2.93
2 -10 4 101.36 3.13
2 -10 4 105.49 2.8
2 10 4 100.77 2.74
2 -10 5 17.4 1.19
2 -10 5 15.37 0.98
2 10 5 16.5 1
2 -10 5 15.7 0.96
2 -10 5 15.55 0.93
2 10 5 15.54 0.95
2 -10 5 16.52 0.93
2 10 5 16.77 1.09
-2 10 -5 14.64 0.55
2 -10 6 1.08 0.59
2 -10 6 0.23 0.49
2 10 6 1.19 0.51
2 -10 6 0.84 0.52
2 -10 6 0.91 0.53
2 10 6 1.5 0.58
2 -10 6 0.76 0.45
2 10 6 0.89 0.54
-2 10 -6 0.58 0.23
2 -10 7 126.43 3.82
2 -10 7 130.46 3.31
2 -10 7 127.04 3.36
2 10 7 128.25 3.48
2 10 7 124.19 3.07
-2 10 -7 116.79 2.76
2 10 8 3.45 0.73
-2 10 -8 1.92 0.41
2 -10 8 2.39 0.65
2 10 8 1.42 0.46
2 -10 8 3.69 0.84
2 10 8 1.45 0.42
2 -10 9 8.77 0.92
-2 10 -9 10.17 0.68
2 -10 9 6.67 1.03
2 10 9 7.68 0.54
-2 10 -10 1.23 0.48
2 -10 10 1.96 0.72
2 -10 10 1.69 0.88
2 -10 11 13.52 1.45
2 -10 11 17.68 1.33
2 -10 12 1.2 0.89
-2 -11 13 0.46 0.77
2 -11 -13 0.53 0.91
-2 -11 12 11.48 1.2
2 11 -12 10.7 1.41
2 -11 -11 1.77 0.98
-2 -11 11 1.04 0.75
2 11 -11 0.93 0.89
-2 -11 10 15.48 1.14
2 11 -10 15.17 1.43
2 -11 -10 13.56 1.56
2 11 -10 15.35 1.2
-2 -11 9 15.81 1.07
2 -11 -9 15.61 0.67
2 -11 -9 15.4 1.55
2 -11 -9 17.35 0.83
2 11 -9 15.82 1.17
-2 -11 8 9.42 0.83
2 -11 -8 6.97 1.12
2 -11 -8 7.9 0.59
2 11 -8 9.26 0.94
-2 -11 7 25.84 1.19
2 -11 -7 25.21 1.07
2 -11 -7 24.27 1.73
2 11 -7 24.68 1.4
2 -11 -6 88.67 3.27
-2 -11 6 84.14 2.37
2 -11 -6 86.49 2.38
2 11 -6 92.52 2.97
2 11 -5 33 1.55
2 -11 -5 30.57 1.18
2 -11 -5 31.36 1.69
-2 -11 5 31.36 1.08
-2 11 5 34.06 1.45
-2 11 4 0.27 0.44
2 -11 -4 0.28 0.5
2 -11 -4 0.13 0.38
-2 11 3 60.28 1.66
2 -11 -3 60.04 1.63
2 11 -3 60.11 1.25
2 11 -2 233.26 5.56
2 11 -2 225.88 4.81
-2 11 2 241.14 5.03
2 -11 -2 227.06 5.36
-2 -11 1 20.31 0.88
-2 11 1 19.57 0.86
2 11 -1 21.53 1.12
2 11 -1 19.7 0.68
-2 11 1 19.17 0.83
2 -11 -1 20.4 1.05
-2 11 0 58.68 1.78
-2 -11 0 59.9 1.81
2 11 0 58.16 2.02
2 11 0 57.91 1.53
-2 11 0 58.84 1.72
-2 11 0 58.81 1.76
-2 11 0 61.38 2.02
-2 11 -1 126.64 3.15
-2 -11 -1 122.67 3.14
2 11 1 123.27 3.3
-2 11 -1 126.03 3.01
-2 11 -1 127.97 2.96
2 11 1 121.75 2.81
-2 11 -1 127.88 3.37
-2 11 -2 166.89 4.05
-2 11 -2 159.04 3.82
-2 -11 -2 160.49 3.85
2 11 2 150.5 3.87
-2 11 -2 153.09 3.6
-2 11 -2 163.02 3.68
-2 11 -2 155.85 3.49
2 -11 2 158.86 3.66
2 -11 2 157.27 4.21
2 -11 3 3.67 0.66
2 11 3 2.81 0.53
-2 11 -3 3.32 0.55
2 -11 3 2.63 0.48
-2 11 -3 2.65 0.38
2 -11 3 2.99 0.49
2 11 3 2.38 0.47
2 -11 3 2.2 0.45
-2 11 -3 2.86 0.52
-2 11 -3 2.79 0.36
2 -11 4 186.97 4.27
2 11 4 184.38 4.23
2 11 4 179 4.23
2 -11 4 189.58 4.17
-2 11 -4 188.38 4.21
2 11 4 186.29 4.2
2 -11 4 182.4 4.19
-2 11 -4 185.65 4.52
2 -11 4 184.19 4.74
-2 11 -5 88.01 2.18
2 -11 5 103.2 2.83
2 11 5 100.89 2.81
2 11 5 103.97 2.77
2 -11 5 101.6 2.77
2 11 5 103.35 2.71
2 -11 5 100.59 2.71
2 11 5 104.91 3.08
2 -11 5 104.25 3.22
-2 11 -6 16.52 0.68
2 11 6 17.19 1.02
2 -11 6 17.05 1.05
2 -11 6 18.78 1.11
2 11 6 18.25 1.12
2 11 6 19.08 0.95
2 -11 6 18.42 1.04
2 11 6 17.01 1.14
2 -11 6 17.9 1.28
2 11 7 -0.16 0.45
2 -11 7 0.61 0.63
2 -11 7 0.56 0.51
-2 11 -7 -0.19 0.3
2 11 7 -0.05 0.55
2 11 8 77.13 2.6
-2 11 -8 79.71 2.03
2 -11 8 78.21 2.97
2 11 8 76.52 2.06
2 -11 8 80.79 2.56
2 -11 9 15.44 1.14
-2 11 -9 15.25 0.82
2 -11 9 14.61 1.34
2 -11 10 0.44 0.76
-2 11 -10 0.19 0.43
2 -11 10 0.46 0.67
2 -11 11 -0.08 0.86
2 -11 11 0.91 0.76
2 -11 12 11.15 1.43
2 -11 12 13.14 1.32
-2 -12 13 -0.62 0.79
2 12 -12 7.09 1.27
-2 -12 12 7.17 1.01
2 12 -11 2.45 0.92
2 -12 -11 3.24 1.12
-2 -12 11 3.47 0.83
2 12 -10 7.79 1.14
2 12 -10 6.66 0.89
-2 -12 10 5.83 0.83
2 -12 -10 6.74 1.26
2 12 -9 1.09 0.61
2 12 -9 1.23 0.76
2 -12 -9 0.57 0.44
2 -12 -9 0.64 0.33
-2 -12 9 1.72 0.63
2 -12 -9 1.68 0.93
-2 -12 8 70.98 2.28
2 -12 -8 75.13 1.97
2 -12 -8 74.89 3.24
2 12 -8 72.29 2.58
-2 -12 7 66.53 2.09
2 -12 -7 68.97 1.96
2 -12 -7 66.51 2.96
2 12 -7 65.51 2.4
2 -12 -6 12.19 1.25
2 -12 -6 12.56 0.79
-2 -12 6 11.7 0.8
-2 -12 5 26.64 1.06
2 12 -5 26.44 1.47
2 -12 -5 25.08 1.13
-2 12 5 30.99 1.42
-2 -12 4 259.17 5.55
2 -12 -4 259.43 5.87
-2 12 4 269.22 6.08
2 12 -3 45.54 1.41
-2 12 3 46.18 1.74
2 -12 -3 44.43 1.68
2 12 -3 42.18 1.84
-2 12 2 7.01 0.65
2 12 -2 7.75 0.82
2 12 -2 5.95 0.51
-2 12 2 6.7 0.61
2 -12 -2 6.41 0.69
2 12 -1 222.29 4.71
-2 12 1 236.05 4.95
2 12 -1 226.98 5.42
-2 12 1 213.61 4.93
-2 -12 1 228.89 5.02
2 -12 -1 225.66 5.37
-2 12 0 513.95 10.34
-2 12 0 502.19 9.97
-2 -12 0 506.23 10
2 12 0 489.29 10.38
2 12 0 496.47 9.66
-2 12 0 470.47 9.87
-2 12 0 497.08 10.01
2 -12 0 464.21 10.4
2 12 1 0.41 0.47
-2 12 -1 0.12 0.39
-2 -12 -1 0.17 0.33
-2 12 -1 0.45 0.36
-2 12 -1 0.25 0.42
2 12 1 0.43 0.35
-2 12 -1 0.22 0.29
-2 12 -2 64.89 2.18
-2 -12 -2 63.38 1.99
2 12 2 61.11 2.07
-2 12 -2 65.49 1.93
2 -12 2 65.3 1.92
-2 12 -2 64.8 1.8
2 -12 2 65.93 2.36
2 -12 3 64.37 1.95
2 12 3 64.23 1.94
2 12 3 59.02 2.01
-2 12 -3 63.05 1.75
2 -12 3 63.46 1.91
-2 12 -3 65.07 1.97
2 12 3 62.92 1.89
2 -12 3 64.96 1.92
-2 12 -3 65.51 2.2
2 -12 3 64.39 2.37
2 -12 4 89.08 2.48
2 12 4 86.82 2.44
2 12 4 86.8 2.49
-2 12 -4 77.69 2.02
-2 12 -4 90.03 2.47
2 -12 4 86 2.4
2 12 4 88.17 2.42
-2 12 -4 92.12 2.76
2 -12 4 89.47 2.43
2 -12 4 88.12 2.93
-2 12 -5 22.15 1.28
2 -12 5 25.51 1.22
2 12 5 26.23 1.22
2 12 5 26.2 1.2
2 -12 5 25.63 1.18
2 12 5 23.81 1.14
2 -12 5 23.47 1.15
2 12 5 24.87 1.4
2 -12 5 22 1.4
2 12 6 5 0.8
-2 12 -6 4.51 0.41
2 12 6 4.91 0.7
2 -12 6 4.8 0.71
2 -12 6 4.82 0.71
2 12 6 3.97 0.67
2 -12 6 5.15 0.65
2 12 6 5 0.6
2 -12 6 6.02 0.88
2 12 7 29.34 1.18
2 -12 7 28.69 1.37
-2 12 -7 27.17 0.98
2 12 7 27.52 1.49
2 -12 7 28.52 1.7
2 -12 8 10.7 0.95
-2 12 -8 10.14 0.65
2 -12 8 10.65 1.2
2 12 8 10.28 0.65
-2 12 -9 8.06 0.64
2 -12 9 9.09 1.18
2 -12 9 8.92 0.95
-2 12 -10 26.98 1.15
2 -12 10 27.4 1.91
2 -12 10 28.02 1.54
2 -12 11 0.4 0.91
2 -12 11 -0.06 0.7
2 -12 12 0.56 0.93
2 -12 12 -0.06 0.8
-2 -13 13 4.32 0.97
-2 -13 12 0.11 0.74
2 13 -12 0.09 0.89
-2 -13 11 2.26 0.77
2 13 -11 1.44 0.89
-2 -13 10 0.8 0.64
2 13 -10 1.45 0.68
2 13 -10 0.63 0.79
2 13 -9 46.37 2
2 -13 -9 51.67 1.34
2 13 -9 43.83 2.27
-2 -13 9 46.33 1.81
2 -13 -9 47.12 2.65
2 -13 -9 42.43 1.19
2 13 -8 1.28 0.62
2 -13 -8 2.7 0.98
-2 -13 8 1.15 0.57
2 -13 -8 0.93 0.43
-2 -13 7 33.46 1.39
2 13 -7 30.13 1.56
2 -13 -7 35.29 1.29
-2 -13 6 0.91 0.41
2 -13 -6 0.66 0.4
-2 -13 5 135.02 3.35
2 -13 -5 139.92 3.53
-2 13 5 145.68 3.89
-2 13 4 0.8 0.6
-2 -13 4 1.04 0.42
2 -13 -4 0.78 0.48
2 13 -3 197.61 4.42
2 13 -3 205.81 5.18
2 -13 -3 202.5 4.84
-2 13 3 202.4 4.88
-2 13 2 0.32 0.39
2 13 -2 -0.22 0.36
-2 13 2 0.05 0.42
2 -13 -2 0.36 0.41
2 13 -2 0.43 0.55
2 13 -1 38.96 1.24
-2 13 1 42.21 1.43
2 13 -1 41.89 1.75
2 -13 -1 42.39 1.72
-2 13 1 35.74 1.31
-2 -13 1 39.35 1.39
-2 13 0 3.22 0.53
-2 13 0 2.45 0.43
-2 -13 0 2.34 0.43
-2 13 0 1.82 0.49
2 13 0 1.94 0.41
2 -13 0 4.05 0.65
2 13 0 3.07 0.65
-2 13 -1 520.15 10.53
-2 -13 -1 520.26 10.55
-2 13 -1 529.12 10.51
-2 13 -1 511 10.51
2 13 1 517.82 10.24
2 13 1 509.97 10.86
-2 13 -1 538.39 10.95
2 -13 2 0.7 0.48
2 13 2 0.68 0.54
-2 13 -2 0.54 0.41
2 -13 2 0.74 0.41
-2 13 -2 -0.03 0.5
-2 13 -2 0.63 0.34
-2 13 -3 2.05 0.48
2 13 3 2.61 0.46
2 -13 3 2.05 0.44
-2 13 -3 1.88 0.37
2 -13 3 2.39 0.46
2 13 3 2.41 0.45
2 -13 3 1.72 0.44
-2 13 -3 1.18 0.46
2 -13 3 2.22 0.58
2 13 3 1.61 0.52
2 -13 4 17.2 0.95
2 13 4 14.42 0.87
2 13 4 14.47 0.96
-2 13 -4 13.5 0.65
-2 13 -4 14.39 0.91
2 -13 4 15.28 0.91
2 -13 4 16.46 0.91
-2 13 -4 16.06 1.08
2 13 4 15.51 0.88
2 -13 4 14.59 1.17
-2 13 -5 292.06 6.9
2 -13 5 307.9 6.68
2 13 5 305.86 6.63
2 13 5 299.12 6.55
2 -13 5 302.44 6.55
2 13 5 303.17 6.59
2 -13 5 301.49 6.6
2 13 5 292.47 7.04
2 -13 5 294.28 7.25
2 13 6 6.58 0.76
2 -13 6 6.61 0.73
2 -13 6 6.58 0.78
2 -13 6 6.98 0.78
2 13 6 6.84 0.76
2 13 6 5.7 0.67
2 -13 6 6.43 0.94
-2 13 -6 5.5 0.46
2 13 6 5.88 0.86
-2 13 -7 1.05 0.35
2 -13 7 1.6 0.76
2 13 7 1.25 0.48
2 -13 7 0.24 0.51
-2 13 -8 0.49 0.36
2 -13 8 1.38 0.59
2 -13 8 0.63 0.69
2 13 8 0.29 0.37
2 -13 9 48.04 1.94
2 -13 9 41.32 2.25
-2 13 -9 45.46 1.48
2 -13 10 0.62 0.73
2 -13 10 -0.4 0.91
-2 13 -10 0.08 0.47
2 -13 11 5.45 1.17
2 -13 11 6.81 1
2 -13 12 1.25 0.99
-2 -14 12 3.7 0.85
2 14 -12 3.1 1.04
-2 -14 11 -0.29 0.68
2 14 -11 -0.17 0.83
-2 -14 10 12.74 1.06
2 14 -10 10.28 1.06
2 14 -10 10.52 1.29
2 -14 -9 1.95 0.41
2 -14 -9 1.87 0.35
-2 -14 9 1.45 0.64
2 14 -9 1.99 0.82
2 14 -9 1.95 0.69
-2 -14 8 47.92 1.76
2 -14 -8 45.12 1.44
2 14 -8 43.77 1.93
-2 -14 7 16.27 0.99
2 14 -7 16.01 1.14
2 -14 -7 17.01 0.9
-2 -14 6 1.08 0.51
2 -14 -6 2.93 0.54
2 -14 -5 49.39 1.76
-2 -14 5 51.1 1.67
-2 14 4 212.74 5.06
2 -14 -4 197.25 4.8
-2 -14 4 196.16 4.5
2 14 -4 201.28 4.53
-2 14 3 47.88 1.82
-2 14 3 47.1 1.59
-2 -14 3 45.43 1.54
2 -14 -3 50.87 1.85
2 14 -3 50.55 2.1
2 14 -3 46.09 1.53
-2 14 2 25.36 1.26
2 14 -2 26.38 1.05
-2 14 2 25.32 1.12
2 -14 -2 25.34 1.31
2 14 -2 24.39 1.45
-2 14 1 62.13 2.16
-2 14 1 62.93 1.86
-2 -14 1 62.65 1.89
2 14 -1 62.41 1.76
-2 14 1 66.9 1.97
-2 14 1 67.17 2.1
2 -14 -1 65.97 2.29
2 14 -1 66.74 2.35
-2 14 0 225.85 4.94
-2 -14 0 227.03 4.96
2 14 0 222.42 5.43
-2 14 0 215.63 4.96
2 14 0 222.83 4.75
-2 14 0 225.21 5.4
2 -14 0 221.37 5.49
-2 14 -1 18.27 1.09
-2 14 -1 15.66 0.83
-2 -14 -1 15.79 0.84
-2 14 -1 16.67 0.92
2 14 1 18.77 1.1
2 14 1 16.42 0.76
2 14 2 64.2 2.2
-2 14 -2 65.5 2
-2 14 -2 61.18 1.9
2 -14 2 62.85 1.98
2 14 2 63.27 1.81
-2 14 -2 65.02 2.26
-2 14 -3 35.26 1.59
2 14 3 34.88 1.28
2 -14 3 33.54 1.27
2 14 3 36.15 1.3
2 -14 3 35.2 1.3
2 14 3 34.43 1.49
-2 14 -3 36.35 1.42
2 -14 3 31.17 1.33
2 -14 3 35.97 1.76
2 -14 4 82.6 2.34
2 14 4 82.08 2.33
2 14 4 82.84 2.47
-2 14 -4 70.5 1.99
-2 14 -4 84.73 2.45
2 -14 4 82.9 2.41
2 -14 4 84 2.32
-2 14 -4 86.47 2.71
2 14 4 80.08 2.29
2 -14 4 80.88 2.89
2 14 5 4.16 0.66
2 -14 5 3.87 0.83
-2 14 -5 3.48 0.66
2 -14 5 4.78 0.64
2 14 5 4.49 0.63
-2 14 -5 2.93 0.33
2 -14 5 5.37 0.68
2 14 5 4.96 0.64
2 -14 5 4.61 0.65
2 14 5 4.18 0.8
2 -14 6 103.22 2.95
2 14 6 106.95 2.94
2 14 6 101.99 2.85
2 -14 6 99.93 2.89
-2 14 -6 91.85 2.41
2 14 6 101.26 3.22
2 -14 6 104.96 3.51
2 14 6 108.48 2.82
2 -14 7 27.17 1.37
2 -14 7 24.21 1.7
2 14 7 29.71 1.21
-2 14 -7 25.81 1.02
-2 14 -8 2.78 0.46
2 -14 8 2.73 0.92
2 -14 8 3.78 0.68
-2 14 -9 1.52 0.45
2 -14 9 2.01 0.68
2 -14 9 1.58 0.91
2 -14 10 46.08 2.5
2 -14 10 44.8 2.01
2 -14 11 1.35 0.74
2 -14 11 1.99 1.04
2 -14 12 0.61 1.06
2 15 -12 2.12 0.98
2 -15 -12 2.47 0.9
-2 -15 12 2.12 0.81
2 15 -11 0.34 0.65
2 15 -11 0.17 0.87
-2 -15 11 0.05 0.69
2 15 -10 9.83 1.29
2 15 -10 10.44 1.07
-2 -15 10 11.83 1.03
-2 -15 9 13.83 1.03
2 15 -9 12.42 1.27
2 15 -9 13.46 1.11
2 -15 -9 10.49 0.52
2 -15 -8 3.73 0.52
2 15 -8 3.64 0.75
-2 -15 8 3.75 0.67
-2 -15 7 4.5 0.66
2 -15 -7 4.17 0.59
-2 -15 6 82.05 2.41
2 -15 -6 85.95 2.45
-2 -15 5 53.65 1.77
2 -15 -5 51.76 1.85
2 -15 -4 0.73 0.48
2 15 -4 0.25 0.51
-2 -15 4 -0.6 0.5
-2 15 4 0.41 0.54
-2 15 3 56.31 2.03
2 15 -3 53.24 1.71
-2 -15 3 53.29 1.73
-2 15 3 57.81 1.8
2 -15 -3 54.39 2
2 15 -3 52.12 2.23
2 15 -2 365.65 7.38
2 -15 -2 354.72 7.93
2 15 -2 359.74 8.17
-2 15 2 364.78 7.49
-2 15 2 364.39 7.84
-2 15 2 335.93 7.34
-2 15 1 35.59 1.39
2 15 -1 37.61 1.27
2 -15 -1 34.43 1.63
2 15 -1 34.62 1.7
-2 15 1 39.87 1.54
-2 15 1 32.76 1.23
-2 -15 1 35.31 1.29
-2 15 0 18.74 0.92
-2 -15 0 18.9 0.92
-2 15 0 19.51 1.16
2 15 0 19.24 0.87
-2 15 0 19.74 1.02
-2 15 0 20.52 1.06
2 -15 0 22.02 1.3
2 15 0 20.43 1.28
-2 15 -1 126.01 3.24
2 15 1 128.92 3.01
-2 15 -1 129.26 3.59
2 15 1 126.35 3.56
-2 15 -1 125.93 3.15
-2 -15 -1 124.96 3.15
-2 15 -2 123.54 3.1
-2 15 -2 126.17 2.75
2 15 2 122.33 2.47
2 -15 2 118.57 2.69
2 15 2 120.33 2.97
-2 15 -3 0.42 0.45
2 15 3 0.69 0.41
2 -15 3 0.35 0.37
-2 15 -3 0.03 0.49
2 -15 3 0.03 0.43
2 -15 3 0.58 0.57
2 15 3 0.36 0.55
2 -15 4 25.92 1.17
2 15 4 27.57 1.18
2 -15 4 24.24 1.11
2 15 4 26.46 1.15
-2 15 -4 22.13 0.94
-2 15 -4 25.8 1.29
2 -15 4 24.49 1.21
2 15 4 25.78 1.29
2 -15 4 25.83 1.59
-2 15 -4 26.75 1.42
2 15 5 53.66 1.75
2 -15 5 51.63 1.79
2 -15 5 53.57 1.74
2 15 5 54.6 1.79
2 -15 5 51.32 1.83
2 -15 5 48.67 2.26
2 15 5 54.35 1.85
-2 15 -5 56.96 2.12
2 -15 6 25.32 1.29
2 15 6 22.69 1.23
2 -15 6 23.57 1.25
2 -15 6 24.37 1.62
2 15 6 25.51 1.21
2 -15 7 11.63 0.96
-2 15 -7 9.84 0.67
2 -15 7 11.44 1.29
2 -15 8 23.38 1.33
2 -15 8 22.79 1.72
-2 15 -8 22.92 1
-2 15 -9 3.37 0.55
2 -15 9 3.94 0.79
2 -15 9 3.54 1.06
2 -15 10 6.53 1.28
2 -15 10 10.99 1.1
2 -15 11 2.07 1.13
2 -15 11 2.15 0.81
2 -15 12 5.28 1.34
-2 -16 12 -0.05 0.75
2 -16 -12 1.15 0.87
2 16 -12 -0.12 0.78
-2 -16 11 13.88 1.17
2 16 -11 12.83 1.18
2 16 -11 12.49 1.48
2 16 -10 -0.49 0.84
2 16 -10 0.61 0.64
-2 -16 10 1.19 0.69
2 16 -9 1.76 0.67
2 16 -9 1.82 0.79
-2 -16 9 3.4 0.71
2 -16 -8 1.08 0.43
-2 -16 8 0.04 0.54
2 16 -8 0.16 0.55
-2 -16 7 72.89 2.28
2 -16 -7 72.9 2.17
-2 -16 6 3.36 0.62
2 -16 -6 2.82 0.61
2 -16 -5 82.31 2.49
-2 -16 5 80.37 2.36
-2 16 4 7.2 0.85
-2 -16 4 6.96 0.68
2 -16 -4 7.44 0.77
2 16 -4 8.31 0.73
-2 16 3 96.15 2.89
2 16 -3 90.46 2.5
-2 16 3 93.4 2.57
2 -16 -3 94.53 2.88
2 16 -2 2.06 0.82
2 -16 -2 4.17 0.68
-2 16 2 3.18 0.47
-2 -16 2 3.18 0.48
2 16 -2 3.04 0.57
-2 16 2 2.28 0.57
-2 16 2 2.98 0.66
2 16 -1 144.33 3.44
-2 16 1 156.31 3.66
2 16 -1 156.04 4.22
2 -16 -1 144.42 4.06
-2 16 1 145.63 3.83
-2 16 1 143.57 3.44
-2 -16 1 145.75 3.47
-2 16 0 4.72 0.53
-2 -16 0 5.58 0.55
-2 16 0 5.73 0.75
-2 16 0 5.5 0.66
-2 16 0 5.89 0.68
2 16 0 4.45 0.54
2 -16 0 5.32 0.77
2 16 0 4.7 0.84
-2 16 -1 18.09 0.92
-2 -16 -1 19.12 0.92
-2 16 -1 19.8 1.21
-2 16 -1 18.54 1.05
2 16 1 18.17 0.88
-2 16 -1 19.5 1.06
2 16 1 21 1.28
2 -16 2 1.9 0.42
-2 16 -2 2.19 0.58
2 16 2 2.54 0.5
-2 16 -2 2.2 0.56
2 -16 2 1.5 0.5
2 16 2 2.64 0.7
2 16 3 193.37 4.45
2 -16 3 197.38 4.44
-2 16 -3 210.42 5.13
-2 16 -3 205.56 4.77
2 -16 3 194.27 4.7
2 16 3 198.42 4.9
2 -16 3 191.66 5.31
-2 16 -4 1.05 0.55
2 16 4 0.58 0.46
2 -16 4 0.92 0.46
2 -16 4 1.64 0.5
2 16 4 0.51 0.46
2 -16 4 0.36 0.5
2 -16 4 0.72 0.66
2 16 4 0.44 0.6
-2 16 -5 4.23 0.73
2 16 5 4.18 0.6
2 -16 5 4.97 0.62
-2 16 -5 2.59 0.37
2 -16 5 4.06 0.62
2 16 5 4.31 0.65
2 -16 5 4.27 0.68
2 16 5 4.21 0.7
2 -16 5 3.8 0.86
2 -16 6 6.97 0.79
2 -16 6 7.27 0.81
2 16 6 7.25 0.77
2 -16 6 8.65 1.1
2 16 6 7.61 0.8
-2 16 -6 8.52 0.91
2 -16 7 100.64 2.93
-2 16 -7 89.45 2.42
2 -16 7 91.38 3.47
-2 16 -8 6.62 0.65
2 -16 8 7.76 1.21
2 -16 8 8.48 0.91
-2 16 -9 4.6 0.61
2 -16 9 4.9 1.17
2 -16 9 4.88 0.82
2 -16 10 0.18 0.93
2 -16 10 0.37 0.69
2 -16 11 6.01 1.33
2 -16 11 8.63 1.1
2 -16 12 0.37 1.02
2 -17 -12 4.75 1.01
2 17 -12 2.64 0.89
-2 -17 12 3.36 0.88
-2 -17 11 1.24 0.72
2 17 -11 0.95 0.71
2 17 -11 0.44 0.86
2 17 -10 14.14 1.22
2 17 -10 15.1 1.5
-2 -17 10 16.52 1.18
2 17 -9 3.68 0.78
2 17 -9 2.29 0.87
-2 -17 9 2.83 0.67
2 -17 -8 5.56 0.61
2 17 -8 4.81 0.81
-2 -17 8 5.21 0.75
-2 -17 7 1.87 0.6
2 -17 -7 2.61 0.6
2 -17 -6 59.63 1.76
-2 -17 6 61.6 1.78
2 -17 -5 13.35 1.01
-2 -17 5 15.26 0.96
-2 -17 4 2.16 0.57
2 17 -4 3.11 0.62
2 -17 -4 1.99 0.57
-2 17 3 8.5 0.88
2 17 -3 7.27 0.73
-2 17 3 7.5 0.77
2 -17 -3 8.07 0.83
-2 17 2 183.57 4.23
2 17 -2 182.89 4.15
-2 17 2 172.31 4.01
-2 -17 2 178.73 4.08
-2 17 2 181.74 4.58
2 -17 -2 170.97 4.61
2 17 -1 6.15 0.63
-2 17 1 6.33 0.57
-2 -17 1 6.89 0.58
-2 17 1 5.49 0.7
-2 17 1 7.19 0.77
2 -17 -1 7.39 0.87
-2 17 0 37.64 1.76
2 17 0 39.32 1.37
-2 17 0 42.33 1.57
-2 17 0 41.14 1.41
-2 -17 0 39.71 1.37
-2 17 0 39.13 1.62
2 17 0 40.12 1.85
2 -17 0 40.9 1.88
-2 17 -1 17.15 1.18
-2 17 -1 16.4 1.03
2 17 1 15.86 1.19
2 -17 1 16.93 1.25
-2 17 -1 14.34 0.97
2 17 1 14.7 0.82
-2 17 -2 204.5 5.08
2 -17 2 186.53 4.22
-2 17 -2 184.36 4.6
2 17 2 191.63 4.35
2 17 2 195.9 4.89
-2 17 -2 195.15 4.65
2 17 3 15.71 0.83
2 -17 3 15.48 0.83
-2 17 -3 13.76 1.11
2 -17 3 15.42 1.03
2 -17 3 15.98 1.29
2 17 3 15.24 1.12
-2 17 -4 123.94 3.63
2 -17 4 116.82 3.05
2 17 4 120.01 3.08
2 17 4 121.86 3.04
2 -17 4 119.25 3.01
2 -17 4 123.96 3.34
2 -17 4 117.09 3.9
2 17 4 123.26 3.41
-2 17 -5 5.2 0.77
2 17 5 4.35 0.61
-2 17 -5 3.88 0.45
2 -17 5 4.77 0.65
2 17 5 5.4 0.65
2 -17 5 4.61 0.7
2 17 5 5.14 0.78
2 -17 5 4.94 0.92
2 -17 6 20.16 1.16
2 17 6 21.23 1.16
2 -17 6 21.17 1.26
-2 17 -6 21.67 1.36
2 -17 6 20.72 1.6
2 17 6 24.21 1.22
2 -17 7 2.88 0.7
-2 17 -7 1.9 0.47
2 -17 8 66.18 2.32
2 -17 8 60.95 2.87
-2 17 -8 57.88 1.84
-2 17 -9 0.2 0.43
2 -17 9 1.07 0.93
2 -17 9 0.6 0.67
2 -17 10 0.09 0.94
2 -17 10 -0.96 0.7
2 -17 11 1.51 1.08
2 -17 12 4.01 1.25
2 -18 -12 3.97 1.01
2 18 -12 4.39 0.94
2 18 -11 7.43 1.27
2 18 -11 5.93 0.91
2 -18 -11 7.34 1.04
-2 -18 11 7.33 0.98
-2 -18 10 -0.28 0.65
2 18 -10 -0.5 0.84
2 18 -10 -0.11 0.64
-2 -18 9 4.24 0.79
2 18 -9 2.82 0.74
2 18 -9 3.11 0.94
2 -18 -8 13.72 0.87
-2 -18 8 16.41 1.09
2 18 -8 14.38 1.16
2 -18 -7 21.66 1.14
-2 -18 7 23.96 1.28
2 -18 -6 8.61 0.82
-2 -18 6 8.59 0.82
2 -18 -5 42.2 1.76
-2 -18 5 45.17 1.67
2 18 -4 157.53 3.79
2 -18 -4 146.19 4.02
-2 -18 4 144.82 3.75
2 18 -3 118.11 3.04
-2 18 3 114.87 3.42
2 -18 -3 112.61 3.39
2 18 -2 45.88 1.59
-2 18 2 43.45 1.45
-2 -18 2 43.69 1.46
-2 18 2 46.12 1.89
2 -18 -2 48.69 2.01
2 18 -1 98.11 2.61
-2 18 1 99.72 2.74
-2 18 1 100.89 2.55
-2 -18 1 98.99 2.53
-2 18 1 96.33 2.95
2 -18 -1 94.52 3.16
-2 18 0 85.43 2.89
2 18 0 88.04 2.4
-2 18 0 93.39 2.63
-2 18 0 93.23 2.41
-2 -18 0 89.53 2.36
-2 18 0 90.77 2.77
2 -18 0 84.5 3.01
-2 18 -1 14.93 1.13
-2 18 -1 14.2 1.01
2 -18 1 14.53 1.21
2 18 1 14.27 1.18
2 18 1 13.43 0.83
-2 18 -2 15.37 1.19
2 -18 2 15.56 0.79
-2 18 -2 15.65 1.04
2 18 2 16.01 0.9
2 18 2 14.89 1.19
2 18 3 73.96 2.05
-2 18 -3 72.3 2.64
2 18 3 78.54 2.25
2 -18 3 74.36 2.4
2 -18 3 64.83 2.77
2 18 3 75.43 2.54
2 -18 3 70.95 2.02
-2 18 -4 101.16 3.24
2 18 4 101.76 2.62
2 -18 4 97.32 2.59
2 -18 4 96.02 2.92
2 -18 4 93.68 3.48
2 18 4 106.98 3.08
-2 18 -5 5.31 0.82
-2 18 -5 4.86 0.5
2 -18 5 5.71 0.68
2 18 5 5.31 0.69
2 -18 5 5.58 0.77
2 18 5 5.89 0.8
2 -18 5 5.13 0.99
2 -18 6 13.06 0.95
2 18 6 12.24 0.93
2 -18 6 12.68 1.01
2 -18 6 10.12 1.26
-2 18 -6 11.2 1.07
2 -18 7 38.08 1.7
-2 18 -7 32.21 1.3
2 -18 7 35.85 2.17
2 -18 8 18.36 1.24
2 -18 8 13.73 1.54
-2 18 -8 15.29 0.92
2 -18 9 2.13 1.01
2 -18 9 1.02 0.7
2 -18 10 6.04 1.37
2 -18 10 6.86 0.98
2 -18 11 0.87 1.15
2 19 -12 1.54 0.81
2 19 -11 0.57 0.67
2 -19 -11 1.28 0.81
2 19 -11 0.27 0.67
-2 -19 11 0.77 0.76
2 19 -10 0.17 0.88
2 19 -10 0.06 0.67
-2 -19 10 0.52 0.68
-2 -19 9 25.29 1.37
2 19 -9 22.99 1.49
2 -19 -8 7.3 0.73
-2 -19 8 6.24 0.86
-2 -19 7 28.37 1.4
2 -19 -7 30.25 1.37
-2 -19 6 1.2 0.59
2 19 -6 1.31 0.28
2 -19 -6 1.55 0.6
2 -19 -5 45.23 1.88
-2 -19 5 48.3 1.8
-2 -19 4 0.39 0.52
2 -19 -4 0.1 0.54
2 19 -3 49.43 1.73
-2 19 3 45.13 1.48
-2 -19 3 47.2 1.54
2 -19 -3 46.77 2
2 -19 -2 1.68 0.62
-2 19 2 0.72 0.37
-2 -19 2 1.08 0.39
2 19 -2 1.22 0.55
-2 19 2 1.48 0.62
2 19 -1 83.73 2.39
-2 19 1 92.21 2.35
-2 -19 1 87.29 2.28
-2 19 1 87.04 2.79
2 -19 -1 85.31 3
-2 19 0 11.97 1.04
2 19 0 9.94 0.75
-2 19 0 10.89 0.7
-2 -19 0 9.78 0.67
-2 19 0 10.79 0.97
2 -19 0 10.27 1.09
-2 19 -1 172.47 4.75
2 -19 1 172.15 3.83
2 19 1 182.51 4.08
-2 19 -1 172.63 4.47
2 -19 1 175.19 4.97
-2 19 -2 7.43 0.92
2 -19 2 6.4 0.55
2 19 2 6.49 0.92
2 19 2 5.81 0.69
-2 19 -2 6.36 0.79
-2 19 -3 2.85 0.72
2 19 3 3.47 0.65
2 -19 3 2.31 0.64
2 19 3 1.85 0.73
2 19 3 2.78 0.46
2 -19 3 3 0.46
-2 19 -4 23.15 1.44
2 -19 4 24.47 1.34
2 -19 4 24.35 1.72
2 19 4 23.8 1.38
2 19 4 22.39 1.03
-2 19 -5 109.06 3.47
2 -19 5 105.53 2.9
2 19 5 111.28 2.95
2 -19 5 109.51 3.2
2 -19 5 97.93 3.74
2 19 5 112.26 3.2
-2 19 -6 3.52 0.77
-2 19 -6 1.87 0.35
2 -19 6 1.88 0.67
2 -19 6 1.97 0.95
2 -19 6 3.42 0.65
2 -19 7 3.05 1.03
2 -19 7 3.7 0.72
-2 19 -8 1.8 0.52
2 -19 8 2.81 0.76
2 -19 8 3.49 1.1
2 -19 9 12.88 1.62
2 -19 9 15.87 1.22
2 -19 10 0.3 1.04
2 -19 10 0.66 0.76
2 -19 11 1.99 1.2
2 20 -12 2.87 0.87
2 20 -11 0.29 0.68
-2 -20 11 -0.05 0.71
2 20 -11 0.78 0.72
-2 -20 10 10.07 1.06
2 -20 -10 10.7 1.11
2 20 -10 9.94 1.12
2 20 -10 10.09 1.38
-2 -20 9 0.05 0.66
2 20 -9 0.89 0.7
2 -20 -8 35.55 1.42
-2 -20 8 37.7 1.68
2 -20 -7 1.55 0.6
-2 -20 7 2.16 0.67
2 -20 -6 0.83 0.6
-2 -20 6 0.24 0.58
2 -20 -5 5.31 0.83
-2 -20 5 5.94 0.81
2 -20 -4 15.43 1.15
-2 20 3 0.62 0.38
-2 -20 3 0.86 0.39
2 -20 -3 0.27 0.58
-2 -20 2 3.93 0.46
2 -20 -2 3.17 0.76
2 20 -2 3.42 0.65
-2 20 2 4.13 0.49
-2 -20 1 2.63 0.43
-2 20 1 3.61 0.49
-2 20 1 4.19 0.74
2 20 -1 2.91 0.57
2 -20 -1 3.83 0.8
-2 20 0 167.65 4.37
2 -20 0 160.72 4.7
2 20 0 168.9 3.89
-2 20 -1 12.4 1.11
2 20 1 11.56 0.63
2 -20 1 12.68 0.66
2 20 1 13.84 0.87
-2 20 -1 12.28 1.03
2 -20 1 13.39 1.27
-2 20 -2 115.74 3.35
-2 20 -2 115.61 3.65
2 -20 2 116.19 2.76
-2 20 -3 2.58 0.75
2 20 3 3.46 0.8
2 20 3 3.21 0.48
2 -20 3 3.18 0.48
-2 20 -4 61.42 2.48
2 -20 4 61.8 2.24
2 -20 4 55.56 2.66
2 20 4 60.2 2.25
-2 20 -5 3.72 0.83
2 -20 5 4.95 0.62
2 -20 5 5.02 0.81
2 -20 5 3.59 0.99
2 -20 6 48.05 1.7
2 -20 6 55.05 2.02
2 -20 6 47.2 2.48
-2 20 -6 54.09 2.19
2 -20 7 -0.29 0.65
2 -20 7 0.27 0.85
2 -20 8 -0.2 0.68
2 -20 8 0.1 0.97
-2 20 -8 -0.31 0.48
2 -20 9 1.09 1.12
2 -20 9 1.97 0.79
2 -20 10 20.73 2.04
2 21 -11 0.36 0.69
2 21 -10 6.87 1
2 21 -10 5.75 1.19
-2 -21 10 7.14 1
2 21 -10 6.36 0.92
-2 -21 9 10.83 1.09
2 21 -9 9.04 1.09
-2 -21 8 1.06 0.67
2 -21 -7 8.79 0.92
-2 -21 7 10.41 0.97
2 -21 -6 15.39 1.15
-2 -21 6 15.88 1.11
2 -21 -5 78.14 2.67
-2 -21 5 77.96 2.51
2 -21 -4 1.71 0.66
2 -21 -3 82.05 2.88
-2 -21 3 78.93 2.15
-2 21 3 81.46 2.17
2 -21 -2 56.63 2.37
-2 21 2 61.43 1.74
-2 -21 2 55.58 1.66
2 -21 -1 25.99 1.63
-2 21 1 32.46 1.18
-2 -21 1 28.58 1.07
2 -21 0 4.15 0.91
-2 21 0 3.63 0.79
-2 21 0 3.76 0.77
-2 21 -1 62.78 2.53
2 -21 1 63.02 1.66
2 21 1 61.8 1.66
-2 21 -1 67.54 2.38
2 -21 1 60.91 2.68
-2 21 -2 40.98 1.99
-2 21 -2 40.45 1.8
2 -21 2 38.11 2.14
2 -21 2 40 1.25
-2 21 -3 0.82 0.69
2 -21 4 8.13 0.94
2 21 4 7.75 0.97
2 -21 4 8.19 1.21
-2 21 -4 10.09 1.07
-2 21 -5 38.67 1.93
2 -21 5 36.24 1.73
2 -21 5 31 2.06
-2 21 -6 8.57 1.04
2 -21 6 7.11 0.95
2 -21 6 4.51 1.09
2 -21 6 7.01 0.75
2 -21 7 1.9 0.98
2 -21 7 -0.05 0.65
-2 21 -8 1.89 0.56
2 -21 8 3.26 1.15
2 -21 8 3.34 0.82
2 -21 9 7.23 1.42
2 -21 9 8.19 1.05
2 -21 10 1.34 1.16
2 22 -11 6.56 0.97
2 22 -10 2.37 0.82
2 22 -10 2.65 0.76
-2 -22 10 1.97 0.81
2 22 -9 3.22 0.89
-2 -22 9 3.43 0.84
2 22 -9 5.85 0.81
-2 -22 8 1.43 0.68
2 -22 -7 12.58 1.06
-2 -22 7 13.08 1.09
2 -22 -6 2.89 0.78
-2 -22 6 2.43 0.72
-2 -22 5 33.93 1.59
2 -22 -5 33.17 1.72
2 -22 -4 10.66 1.11
-2 -22 4 11.15 0.72
-2 22 4 10.7 0.69
2 -22 -3 46.77 2.15
-2 22 3 50.8 1.54
-2 -22 3 49.34 1.51
2 -22 -2 10.22 1.15
-2 22 2 15.06 0.8
-2 -22 2 12.71 0.69
2 -22 -1 80.45 3.04
-2 -22 1 80.77 2.03
2 -22 0 17.63 1.48
2 22 0 16.94 0.7
-2 22 0 16.29 1.31
2 -22 0 17.6 0.7
2 22 1 24.88 0.88
-2 22 -1 21.92 1.48
-2 22 -1 25.43 1.49
2 -22 1 22.83 1.69
-2 22 -2 23.15 1.54
-2 22 -2 22.56 1.41
2 -22 2 23.94 1.71
2 22 2 23.6 0.87
-2 22 -3 85.54 3.12
2 -22 4 7.53 0.92
2 -22 4 6.39 1.15
-2 22 -4 6.21 0.97
2 -22 5 -0.05 0.65
2 -22 5 0.45 0.76
-2 22 -5 0.46 0.7
2 -22 6 14.01 1.15
2 -22 6 14.66 1.62
-2 22 -6 13.18 1.24
2 -22 7 51.32 2.15
2 -22 7 48.5 2.79
-2 22 -7 52.41 2.29
2 -22 8 0.32 0.72
2 -22 8 1.54 1.15
2 -22 9 1.79 0.83
2 -22 9 2.42 1.21
-2 -23 10 6.17 0.96
2 23 -10 6.14 1
2 23 -10 7.14 0.94
-2 -23 9 -0.49 0.74
2 23 -9 -0.43 0.71
2 23 -9 -0.04 0.6
-2 -23 8 3.16 0.84
2 -23 -7 2.26 0.7
-2 -23 7 1.79 0.73
2 -23 -6 49.64 2.08
-2 -23 6 46.11 1.94
2 -23 -5 0.62 0.68
2 -23 -4 1.43 0.71
-2 23 4 1.32 0.41
-2 -23 4 2.38 0.45
2 -23 -3 2.26 0.82
-2 23 3 1.87 0.44
-2 -23 3 1.99 0.4
2 -23 -2 75.89 2.97
-2 -23 2 76.1 2
2 -23 -1 4.5 0.98
2 23 0 11.83 0.54
-2 23 0 9.84 1.1
2 -23 0 11.28 1.25
-2 23 -1 1.63 0.74
2 -23 1 1.07 0.78
2 23 1 1.59 0.33
-2 23 -2 67.99 2.51
2 -23 2 69.55 3
-2 23 -2 63.9 2.68
-2 23 -3 5.95 0.99
-2 23 -4 46.16 2.21
2 -23 5 0.79 0.72
2 -23 5 -0.37 0.83
-2 23 -5 -0.48 0.73
2 -23 6 11.45 1.12
2 -23 6 9.8 1.45
-2 23 -6 11.64 1.23
2 -23 7 3.85 0.88
2 -23 7 4.89 1.27
-2 23 -7 5.13 0.98
2 -23 8 27.81 2.28
2 -23 8 30.64 1.72
2 24 -10 -0.44 0.69
2 24 -9 0.63 0.71
-2 -24 9 -0.36 0.78
-2 -24 8 5.66 0.95
2 24 -8 4.36 0.72
2 -24 -7 18.13 1.26
-2 -24 7 20.51 1.36
2 -24 -6 0.27 0.73
-2 -24 6 -0.19 0.72
2 -24 -5 12.76 1.24
2 -24 -4 16.95 1.41
-2 -24 4 18.16 0.84
2 -24 -3 39.13 2.07
-2 -24 3 42.14 1.26
2 -24 -2 0.69 0.71
2 24 -1 57.25 1.39
2 -24 -1 61.16 2.67
-2 24 0 21.21 1.52
2 -24 0 26.53 1.83
2 24 0 26.77 0.78
2 -24 1 1.93 0.86
-2 24 -1 1.14 0.71
2 -24 2 3.64 1.03
-2 24 -2 1.8 0.78
-2 24 -3 35.06 1.99
-2 24 -4 9.29 1.15
-2 24 -5 1.34 0.83
2 -24 5 2.93 1.11
2 -24 5 2.33 0.77
-2 24 -6 0.63 0.76
2 -24 6 0.91 1.03
2 -24 6 0.62 0.75
-2 24 -7 11 1.24
2 -24 7 12.76 1.24
2 -24 7 9.94 1.57
2 -24 8 3.45 0.92
2 -24 8 3.47 1.34
-2 -25 9 7.8 1.08
2 25 -9 5.91 0.98
-2 -25 8 3.6 0.88
-2 -25 7 2.29 0.85
2 -25 -6 13.44 1.25
2 -25 -5 17.52 1.42
-2 -25 5 14.92 0.83
2 -25 -4 1.13 0.82
-2 -25 4 1.17 0.37
2 -25 -3 25.28 1.76
-2 -25 3 29.26 0.93
2 -25 -2 23.77 1.71
2 25 -1 3.02 0.23
2 -25 -1 3.61 0.94
-2 25 0 7.42 1.04
2 -25 0 5.8 1.14
-2 25 -1 36.62 1.99
2 -25 1 34.51 2.13
-2 25 -2 3.43 0.88
2 -25 2 4.26 1.05
-2 25 -3 2.72 0.86
2 -25 3 3.34 1.1
-2 25 -4 7.81 1.15
-2 25 -5 38.74 2.11
2 -25 5 36.64 2.46
2 -25 6 0.53 1.05
-2 25 -6 0.43 0.8
2 -25 6 -0.87 0.82
2 -25 7 -0.65 1.14
-2 25 -7 0.14 0.75
2 -25 7 -0.47 0.87
2 26 -9 0.45 0.72
-2 -26 8 10.05 1.14
-2 -26 7 -0.1 0.81
2 -26 -6 0.06 0.73
2 -26 -5 0.51 0.77
2 -26 -4 56.65 2.54
2 -26 -3 0.37 0.81
2 -26 -2 3.15 0.98
2 -26 -1 0.8 0.82
-2 26 0 38.79 2.03
2 -26 0 41.21 2.33
-2 26 -1 7.17 1.09
2 -26 1 4.68 1.2
-2 26 -2 6.37 1.04
2 -26 2 8.43 1.36
-2 26 -3 -0.23 0.77
2 -26 3 1.07 0.94
-2 26 -4 21.17 1.67
-2 26 -5 1.97 0.93
2 -26 5 1.05 1.04
2 -26 6 31.18 1.79
2 -26 6 34.33 2.52
-2 26 -6 29.46 1.95
-2 26 -7 5.22 1.04
2 -26 7 5.09 1.05
2 27 -9 7.38 1.08
-2 -27 8 -0.16 0.82
2 -27 -6 9.09 1.14
2 -27 -5 26.23 1.77
2 -27 -4 -0.07 0.8
2 -27 -3 26.44 1.87
2 -27 -2 9.36 1.31
2 -27 -1 6.88 1.19
2 -27 0 2.38 1
-2 27 0 3.57 0.93
-2 27 -1 68.55 2.86
2 -27 1 71.47 3.22
2 -27 2 3.18 1.09
-2 27 -2 1.2 0.78
2 -27 3 0.2 1.01
-2 27 -3 0.54 0.84
-2 27 -4 -0.46 0.83
-2 27 -5 18.51 1.65
2 -27 5 22.48 2.09
2 -27 6 13.36 1.76
-2 27 -6 11.51 1.41
-2 27 -7 0.29 0.84
2 -28 -5 4.37 1.04
2 -28 -4 6.3 1.17
2 -28 -3 6.68 1.2
2 -28 -2 0.17 0.87
2 -28 -1 29.15 2.08
-2 28 0 15.83 1.44
2 -28 0 13.8 1.61
2 -28 1 4.49 1.23
-2 28 -1 6.33 1.08
2 -28 2 10.1 1.49
-2 28 -2 11.5 1.34
-2 28 -3 23.1 1.78
2 -28 3 27.5 2.23
-2 28 -4 -0.24 0.9
-2 28 -5 3.82 1.14
-2 28 -6 3.56 1.05
-2 28 -7 3.56 1.02
2 -29 -5 -0.62 0.83
2 -29 -4 -0.3 0.88
2 -29 -3 -0.16 0.89
2 -29 -2 22.94 1.9
2 -29 -1 0.72 0.96
-2 29 1 1.05 0.8
2 -29 0 0.76 1.03
-2 29 0 1.45 0.82
2 -29 1 2.67 1.13
-2 29 -1 2.99 0.97
-2 29 -2 15.24 1.46
2 -29 2 18.28 1.9
2 -29 3 3.83 1.27
-2 29 -3 3.83 1.05
-2 29 -4 14.99 1.56
2 -29 4 23.38 2.17
-2 29 -5 5.18 1.16
-2 29 -6 1.21 0.96
2 -30 -5 5.2 1.12
2 -30 -4 1.31 0.96
2 -30 -3 14.64 1.54
2 -30 -2 0.7 0.97
-2 30 1 31.14 1.92
2 -30 -1 38.08 2.41
2 -30 0 0.68 1.01
-2 30 0 1.76 0.86
2 -30 1 0.61 1
-2 30 -1 0.53 0.79
2 -30 2 0.74 1.07
-2 30 -2 0.7 0.81
2 -30 3 14.2 1.85
-2 30 -3 12.41 1.45
-2 30 -4 1.22 0.92
-2 30 -5 0.49 1.01
-2 30 -6 -0.33 0.94
2 -31 -4 -0.08 0.95
2 -31 -3 7.49 1.31
2 -31 -2 9.57 1.44
2 -31 -1 6.24 1.34
2 -31 0 1.28 1.08
-2 31 0 1.85 0.86
2 -31 1 9.56 1.56
-2 31 -1 10.96 1.35
-2 31 -2 11.95 1.41
-2 31 -3 2.69 1.02
2 -32 -4 9.91 1.39
2 -32 -3 0.09 1.02
2 -32 -2 1.46 1.11
2 -32 -1 0.67 1.07
2 -32 0 13.25 1.69
2 -33 -3 8.6 1.39
2 -33 -2 0.37 1.02
-3 0 13 -0.42 0.73
3 0 -12 -0.19 0.9
-3 0 12 0.35 0.72
3 0 -11 -0.09 0.82
3 0 -10 22.53 1.73
3 0 -9 -0.59 0.75
3 0 -9 0.43 0.69
3 0 -8 4.73 0.87
3 0 -8 4.93 0.8
3 0 -7 0.83 0.62
3 0 -7 0.75 0.68
3 0 -6 419.85 9.43
3 0 -5 1.29 0.61
3 0 -5 1.04 0.63
3 0 -4 31.06 1.47
3 0 -4 29.36 1.53
-3 0 3 -0.22 0.2
3 0 -3 0.07 0.38
3 0 -3 -0.27 0.5
3 0 -2 296.9 6.86
3 0 -2 293.45 6.58
-3 0 1 1.47 0.62
3 0 -1 0.52 0.51
3 0 -1 -0.24 0.39
3 0 -1 0.78 0.51
-3 0 0 14.83 1.07
3 0 0 14.83 0.93
3 0 0 15.35 0.9
3 0 0 13.56 0.72
-3 0 -1 -0.29 0.54
3 0 1 -0.38 0.53
3 0 1 -0.03 0.36
3 0 1 0.18 0.24
-3 0 -2 181.41 4.77
3 0 2 184.31 3.6
3 0 2 180.62 4.27
3 0 2 180.02 4.37
3 0 2 173.44 3.7
3 0 3 0.21 0.37
3 0 3 -0.34 0.37
3 0 3 0.07 0.55
-3 0 -3 1.05 0.53
3 0 3 0.99 0.57
3 0 4 153.4 3.43
3 0 4 152.33 3.66
3 0 5 0.36 0.56
3 0 5 0.02 0.41
3 0 5 0.28 0.33
3 0 6 56.65 1.84
3 0 6 55.94 1.68
3 0 6 61.04 2.26
3 0 7 0.59 0.57
3 0 7 -0.17 0.56
3 0 7 -0.02 0.33
3 0 8 63.33 2.19
3 0 8 57.71 2.25
3 0 9 0.7 0.64
3 0 9 -0.52 0.68
3 0 10 0.34 0.64
3 0 10 0.22 0.73
3 0 11 -0.06 0.9
3 0 12 1.32 1.01
-3 1 13 -0.32 0.78
-3 -1 13 -0.21 0.74
-3 -1 12 1.28 0.73
3 -1 -12 2.57 1.04
3 1 -12 2.17 1.01
3 -1 -11 14.45 1.51
3 1 -11 18.84 1.66
-3 -1 11 16.55 1.17
3 -1 -10 0.24 0.77
3 1 -10 0.88 0.84
-3 -1 10 1.42 0.68
3 -1 -9 5.81 0.93
3 -1 -9 6.68 1.07
3 1 -8 21.44 1.36
3 -1 -8 21.75 1.31
3 -1 -8 18.24 1.41
3 1 -8 20.88 1.46
-3 1 8 20.07 0.83
3 1 -7 40.38 1.78
-3 1 7 34.39 1.2
3 -1 -7 33.42 1.8
3 1 -7 33.17 1.77
-3 1 6 3.26 0.53
3 -1 -6 3.9 0.8
3 1 -6 4.77 0.88
-3 1 5 113.17 2.84
3 -1 -5 112.39 3.36
3 1 -5 115.39 3.39
3 -1 -4 83.99 2.67
3 1 -4 86.76 2.72
3 -1 -4 90.46 2.89
3 1 -4 85.39 2.81
-3 -1 4 85.41 1.95
3 1 -3 41.19 1.6
3 -1 -3 39.43 1.59
3 1 -3 40.33 1.72
3 -1 -3 41.5 1.74
-3 -1 3 39.74 0.89
3 1 -2 17.71 0.91
3 -1 -2 18.15 0.94
3 1 -2 16.27 0.95
3 -1 -2 17.24 0.96
3 1 -2 16.23 1.07
3 -1 -2 15.91 1.06
-3 1 1 392.89 8.44
-3 -1 1 370.29 8.36
3 -1 -1 377.49 7.77
3 1 -1 383.32 7.79
3 1 -1 350.44 7.67
3 -1 -1 372.04 7.71
3 1 -1 368.79 8.1
3 -1 -1 363.3 8.05
-3 1 0 66.7 2.37
-3 -1 0 66.63 2.38
3 -1 0 69.55 2.18
3 1 0 65.47 2.15
3 -1 0 66.04 2.05
3 1 0 67.72 2.06
3 1 0 64.93 1.85
3 -1 0 68.19 1.85
3 1 1 4.08 0.56
3 -1 1 3.93 0.54
-3 1 -1 5.35 0.76
-3 -1 -1 3.92 0.7
3 -1 1 3.39 0.6
3 1 1 3.47 0.62
3 1 1 4.18 0.4
3 -1 1 4.8 0.4
-3 1 -2 47.97 1.98
-3 -1 -2 43.87 1.91
3 -1 2 44.25 1.58
3 1 2 41.5 1.55
3 1 2 45.32 1.05
3 -1 2 44.86 1.09
3 1 2 47.95 1.73
3 -1 2 44.93 1.68
3 1 2 40.51 1.17
3 -1 2 42.59 1.08
3 1 3 274.92 5.47
3 -1 3 280.81 5.49
3 -1 3 271.95 5.92
3 1 3 264.48 5.92
-3 1 -3 256.76 6.54
-3 -1 -3 254.7 6.53
3 1 3 265.8 6.16
3 1 3 275.36 6.21
3 -1 3 273.27 6.16
3 -1 4 48.54 1.57
3 1 4 44.07 1.54
3 1 4 46.03 1.4
3 -1 4 46.28 1.41
3 -1 5 23.34 0.99
3 1 5 21.68 0.99
3 -1 5 28.02 1.5
3 1 5 24.51 1.05
3 -1 5 22.62 1
3 1 6 50.06 1.7
3 -1 6 51.55 1.71
3 1 6 56.35 2.14
3 -1 6 52.87 2.13
3 1 6 47.97 1.55
3 -1 6 47.24 1.45
3 1 7 67.42 2.1
3 -1 7 68.84 2.09
3 1 7 61.7 1.74
3 -1 7 64.91 2.34
3 1 7 69.26 2.37
3 -1 8 3.56 0.74
3 1 8 2.61 0.71
3 1 8 2.93 0.72
3 -1 8 2.26 0.67
3 1 8 1.78 0.38
3 1 9 10.01 1.02
3 -1 9 10.61 1.02
3 -1 9 9.29 0.97
3 1 9 9.98 0.99
3 1 10 1.11 0.78
3 -1 10 1.58 0.78
3 -1 10 1.53 0.65
3 1 10 2.23 0.68
3 1 11 18.1 1.55
3 -1 11 13.32 1.33
3 1 12 1.22 1.06
3 -1 12 2.5 0.99
-3 -2 13 3.16 0.87
3 2 -12 1.97 0.98
3 -2 -12 2.3 1.07
-3 -2 12 2.82 0.88
3 2 -11 0.26 0.81
3 -2 -11 0.7 0.86
-3 -2 11 0.22 0.65
3 -2 -10 13.37 1.39
3 2 -10 15.92 1.49
-3 -2 10 17.72 1.13
-3 -2 9 43.5 1.67
3 -2 -9 42.37 2.21
3 2 -9 42.95 2.2
3 -2 -9 48.75 1.94
3 -2 -8 1.6 0.76
-3 2 8 1.44 0.42
-3 -2 8 0.83 0.58
3 2 -8 1.77 0.74
3 -2 -8 1.01 0.69
3 2 -7 36.88 1.74
-3 2 7 33.91 1.24
3 -2 -7 35.34 1.87
3 2 -7 34.2 1.82
-3 -2 7 35.11 1.32
-3 2 6 26.6 1.1
3 -2 -6 27.32 1.54
3 2 -6 25.79 1.52
-3 2 5 15.54 0.85
3 2 -5 13.07 1.04
3 -2 -5 15.75 1.12
-3 -2 5 12.97 0.68
3 2 -4 8.65 0.91
-3 2 4 8.86 0.73
3 2 -4 7.88 0.84
3 -2 -4 10.29 0.91
-3 -2 4 8.08 0.47
3 2 -3 153.32 4.05
3 -2 -3 143.41 3.99
3 2 -3 160.37 3.49
-3 2 3 148.24 3.64
3 2 -3 150.73 3.84
3 -2 -3 146.09 3.8
-3 -2 3 146.68 2.86
3 2 -2 127.15 3.45
3 -2 -2 119.11 3.36
-3 2 2 118.01 2.35
3 2 -2 125.15 3
3 2 -2 119.93 3.13
3 -2 -2 117.01 3.1
-3 2 1 15.21 1.11
3 -2 -1 15.59 0.9
3 2 -1 13.46 0.85
3 2 -1 15.01 0.83
3 -2 -1 13.19 0.78
3 2 -1 15.13 1
3 -2 -1 13.58 0.96
-3 2 0 67.46 2.36
3 -2 0 68.16 2.03
3 2 0 66.62 2.04
3 2 0 60.92 1.81
3 -2 0 65.51 1.81
3 2 0 62.53 2.12
3 -2 0 63.45 2.11
-3 2 -1 333.88 7.68
3 2 1 324 7.28
3 -2 1 327.5 7.25
3 2 1 340.11 7.3
3 -2 1 339.63 7.26
3 -2 1 347.23 6.75
3 2 2 15.68 0.51
3 -2 2 16.14 0.59
3 -2 2 16.74 0.92
-3 2 -2 16.24 1.15
3 2 2 16.26 1.02
3 -2 2 13.35 0.94
-3 2 -3 1.35 0.59
3 -2 3 0.62 0.39
3 2 3 0.94 0.5
3 -2 3 0.35 0.31
3 2 3 0.04 0.32
3 -2 3 -0.04 0.57
3 2 3 0.27 0.56
3 2 4 96.64 2.32
3 -2 4 96.49 2.33
3 -2 4 103.18 3.12
3 -2 4 99.09 2.48
3 2 5 100.41 2.42
3 -2 5 102.39 2.44
3 -2 5 100.1 3.05
3 -2 5 103.28 2.38
3 2 6 7.66 0.89
3 2 6 6.18 0.39
3 -2 6 8.03 0.86
3 -2 6 8.03 0.71
3 2 6 7.8 0.71
3 -2 7 20.13 1.29
3 2 7 21.98 1.33
3 2 7 20.01 1.13
3 -2 7 18.91 1.09
3 -2 8 32.66 1.48
3 2 8 32.63 1.52
3 2 8 32.68 1.54
3 -2 8 31.65 1.63
3 2 9 21.84 1.38
3 -2 9 21.73 1.33
3 -2 9 21.15 1.36
3 2 9 22.18 1.31
3 2 10 1.24 0.81
3 -2 10 0.98 0.74
3 -2 10 1.18 0.68
3 2 10 0.73 0.61
3 2 11 25.67 1.76
3 -2 11 25.33 1.65
3 2 12 2.6 1.14
3 -2 12 1.7 0.93
-3 -3 13 -0.63 0.77
3 -3 -12 12.27 1.55
-3 -3 12 11.17 1.12
3 3 -12 11.75 1.56
-3 -3 11 -0.5 0.71
3 -3 -11 -0.09 0.8
3 3 -11 -0.26 0.81
-3 -3 10 1.53 0.65
3 3 -10 2.01 0.86
3 -3 -10 2.29 0.86
-3 3 10 1.71 0.4
3 -3 -9 1.67 0.78
-3 3 9 1.1 0.4
-3 -3 9 0.04 0.61
3 -3 -9 0.52 0.76
3 3 -9 0.95 0.74
-3 -3 8 93.92 2.56
-3 3 8 83.13 2.3
3 -3 -8 87.8 3.24
3 3 -8 89.36 3.25
3 -3 -8 97.67 2.9
-3 3 7 0.92 0.4
-3 -3 7 -0.28 0.48
3 -3 -7 0.06 0.59
3 3 -7 0.06 0.62
3 3 -7 0.24 0.61
-3 3 6 6.07 0.58
3 3 -6 5.64 0.83
3 3 -6 5.41 0.86
3 -3 -6 6.53 0.86
-3 3 5 14.36 0.85
3 3 -5 15.21 1.1
3 -3 -5 13.98 1.09
-3 -3 5 13.44 0.66
3 3 -4 384.59 8.53
-3 3 4 379.49 7.96
3 3 -4 367.36 8.28
3 -3 -4 368 8.32
-3 -3 4 378.11 7.31
3 3 -3 8.36 0.86
3 3 -3 7.32 0.62
-3 3 3 7.11 0.69
3 3 -3 5.98 0.71
3 -3 -3 6.96 0.73
-3 -3 3 5.7 0.26
3 3 -2 61.16 2.19
-3 3 2 64.76 1.39
-3 3 2 59.86 2
3 3 -2 60.51 1.85
3 3 -2 60.54 1.99
3 -3 -2 60.31 1.98
-3 3 1 11.93 1.02
3 3 -1 10.26 0.85
3 -3 -1 9.68 0.85
-3 3 1 9.84 0.35
3 -3 -1 11.07 0.78
3 3 -1 10.41 0.76
3 -3 -1 10.35 0.71
-3 3 0 252.26 6.04
3 -3 0 246.94 5.75
3 -3 0 254.43 5.6
3 3 0 256.09 5.64
3 -3 0 248.79 5.32
3 -3 1 3.3 0.55
-3 3 -1 4.37 0.75
3 -3 1 3.12 0.38
3 -3 1 3.65 0.68
3 3 1 2.99 0.64
3 3 2 111.56 2.24
3 -3 2 103.38 2.36
3 -3 2 106.68 2.86
-3 3 -2 103.26 3.26
3 3 2 109.53 3.04
3 -3 2 105.88 2.93
3 3 3 7.87 0.5
3 -3 3 8.51 0.52
3 -3 3 8.46 0.65
-3 3 -3 7.55 0.86
3 3 3 8.22 0.81
3 -3 3 8.37 0.79
3 -3 4 94.93 2.34
3 3 4 91.53 2.31
3 3 4 89.98 2.26
3 -3 4 100.62 2.49
3 -3 4 95.64 3.05
3 3 5 1.88 0.35
3 -3 5 1.54 0.47
3 -3 5 2.24 0.67
3 -3 6 52.09 1.68
3 -3 6 49.2 2.03
3 3 6 44.82 1.35
3 -3 7 10.81 0.86
3 3 7 9.01 0.91
3 -3 7 9.26 0.99
3 3 7 8.65 0.6
3 -3 8 2.8 0.66
3 3 8 3.47 0.72
3 -3 8 3.68 0.79
3 3 9 0.25 0.73
3 -3 9 -0.18 0.61
3 -3 9 -0.06 0.62
3 3 9 0.5 0.58
3 -3 10 26.14 1.52
3 3 10 29.6 1.71
3 -3 10 25.56 1.57
3 3 11 0.4 0.96
3 -3 11 0.69 0.84
3 3 12 4.54 1.2
3 -3 12 4.92 1.09
-3 -4 13 5.28 0.93
3 -4 -12 0.89 0.99
3 4 -12 0.76 1.01
-3 -4 12 0.44 0.81
3 -4 -11 2.72 0.98
3 4 -11 2.62 0.95
-3 -4 11 1.11 0.69
-3 4 10 3.27 0.48
-3 -4 10 2.91 0.69
3 -4 -10 4.33 1
3 4 -10 4.58 0.98
-3 -4 9 26.44 1.3
-3 4 9 23 1.02
3 -4 -9 25.91 1.76
3 4 -9 28.75 1.83
3 -4 -9 27.74 1.49
-3 4 8 1.16 0.45
3 4 -8 0.61 0.76
-3 -4 8 0.81 0.59
3 -4 -8 1.24 0.77
3 4 -7 45.22 2.08
-3 4 7 40.71 1.46
3 -4 -7 42.39 2.06
3 4 -7 41.46 2.05
-3 -4 7 43.47 1.47
3 4 -6 17.06 1.26
3 4 -6 20.97 1.35
-3 4 6 16.68 0.92
3 4 -6 17.54 1.26
3 -4 -6 16.35 1.24
-3 4 5 53.37 1.76
3 4 -5 49.8 2.06
3 -4 -5 49.83 2.08
-3 -4 5 50.78 1.41
3 4 -4 6.23 0.85
-3 4 4 6.42 0.67
3 4 -4 6.93 0.8
3 -4 -4 6.2 0.79
-3 -4 4 4.87 0.43
3 4 -3 290.06 6.67
3 4 -3 297.15 5.99
-3 4 3 303.06 6.38
3 4 -3 277.42 6.42
3 -4 -3 281.21 6.47
-3 -4 3 279.82 5.4
3 4 -2 37.2 1.63
-3 4 2 37.11 0.98
-3 4 2 39.09 1.54
3 4 -2 37.34 1.35
3 -4 -2 36.12 1.47
-3 4 1 42.72 1.83
3 4 -1 38.49 1.62
-3 4 1 37.84 0.96
-3 4 1 38.77 1.56
3 4 -1 39.07 1.45
3 -4 -1 41.01 1.44
-3 4 0 9.53 0.93
3 -4 0 9.5 0.76
3 4 0 10.05 0.83
3 -4 0 9.18 0.62
-3 4 -1 480.77 10.64
3 -4 1 511.27 9.68
3 -4 1 482.49 10.19
3 4 1 492.03 10.3
3 4 2 38.33 0.97
3 -4 2 36.64 1.09
-3 4 -2 38.44 1.76
3 -4 2 38.94 1.53
3 4 2 37.87 1.57
-3 4 -3 0.97 0.54
3 -4 3 0.21 0.52
3 4 3 0.31 0.48
3 -4 3 1.01 0.56
3 -4 3 0.55 0.31
3 -4 4 21.36 0.91
3 4 4 22.2 0.95
3 -4 4 20.56 1.31
3 4 5 146.87 3.52
3 -4 5 157.48 4.36
3 -4 6 16.34 0.95
3 4 6 15.17 0.77
3 -4 6 15.51 1.16
3 -4 7 31.6 1.39
3 4 7 33.69 1.22
3 -4 7 32.98 1.7
3 4 7 32.41 1.58
3 -4 8 21.65 1.21
3 4 8 22.41 1.28
3 -4 8 24.01 1.46
3 -4 9 24.66 1.37
3 4 9 23.59 1.31
3 -4 9 23.86 1.52
3 -4 10 -0.05 0.68
3 -4 10 0.12 0.69
3 4 11 1.87 1.05
3 -4 11 2.26 0.86
3 4 12 0.39 1.07
3 -4 12 -0.56 0.91
-3 -5 13 0.1 0.76
3 -5 -12 7.38 1.34
-3 -5 12 6.92 1.01
3 5 -11 4.16 1.06
3 -5 -11 5.86 1.19
-3 -5 11 5.73 0.87
-3 5 10 0.69 0.43
-3 -5 10 1.21 0.62
3 5 -10 0.48 0.75
3 -5 -10 0.6 0.8
-3 5 9 9.42 0.72
-3 -5 9 11.08 0.92
3 -5 -9 11.16 1.04
3 -5 -9 10.35 1.24
3 5 -9 11.05 1.26
-3 5 8 34.12 1.32
-3 -5 8 34.91 1.4
3 5 -8 38.05 1.94
3 -5 -8 33.49 1.93
3 5 -8 34.6 1.96
-3 -5 7 30.16 1.18
3 5 -7 31.07 1.72
3 5 -7 32.86 1.8
3 -5 -7 30.65 1.76
-3 5 7 29.97 1.26
3 5 -6 1.48 0.67
3 5 -6 0.78 0.61
-3 5 6 1.01 0.46
3 -5 -6 1.85 0.69
-3 -5 5 81.46 2.05
-3 5 5 89.48 2.5
3 5 -5 86.11 2.87
3 -5 -5 80.61 2.82
-3 -5 4 42.52 1.14
3 5 -4 48.08 1.36
-3 5 4 45.83 1.65
3 5 -4 43.12 1.83
3 -5 -4 43.5 1.87
3 5 -4 42.73 1.9
3 5 -3 45.54 1.46
-3 5 3 45.28 1.7
3 5 -3 45.45 1.92
-3 5 3 45.95 1.31
3 -5 -3 44.46 1.77
3 5 -3 43.29 1.76
3 5 -2 34.03 1.56
3 -5 -2 32.71 1.42
-3 5 2 35.44 1.51
3 5 -2 34.18 1.31
-3 5 2 35.42 1.01
-3 5 1 238.7 5.56
-3 -5 1 232.93 5.52
3 -5 -1 214.51 4.96
-3 5 1 217.33 5.23
3 5 -1 225.18 5.01
-3 5 1 215.36 4.39
-3 5 0 165.14 4.29
-3 -5 0 155.85 4.24
3 -5 0 166.69 3.72
3 -5 0 165.72 3.93
3 5 0 165.01 3.97
-3 5 0 157.33 4.12
-3 5 0 157.24 3.33
-3 5 -1 6.14 0.79
3 -5 1 5.78 0.73
3 5 1 6.44 0.74
-3 -5 -1 6.5 0.81
-3 5 -2 167.78 4.52
-3 -5 -2 171.16 4.56
3 -5 2 172.15 3.65
3 -5 2 172.11 4.18
3 -5 3 170.13 3.68
3 -5 3 168.73 4.6
-3 5 -3 170.71 4.56
-3 -5 -3 160.57 4.51
3 -5 3 170.83 4.19
3 -5 4 68.89 2.56
3 -5 4 72.73 1.95
3 5 5 6.28 0.61
3 -5 5 5.9 0.6
3 -5 5 7.1 0.89
3 -5 6 61.08 1.93
3 5 6 60.11 1.8
3 -5 6 60.37 2.36
3 -5 7 47.15 1.75
3 5 7 48.74 1.98
3 -5 7 46.8 2.07
3 5 7 47.63 1.59
3 -5 8 1.14 0.6
3 -5 8 1.51 0.68
3 5 8 0.31 0.56
3 -5 9 4.93 0.82
3 -5 9 5.13 0.89
3 5 9 4.99 0.75
3 -5 10 13.04 1.14
3 -5 10 12.11 1.21
3 -5 11 4.96 0.95
3 -5 12 0.25 0.84
3 5 12 -1.05 1.12
-3 -6 13 1.38 0.78
-3 -6 12 1.71 0.78
3 -6 -12 1.43 1
-3 -6 11 0.04 0.68
3 -6 -11 0.94 0.94
3 6 -11 0.79 0.86
-3 6 10 29.35 1.23
-3 -6 10 35.28 1.54
3 -6 -10 30.87 2.05
3 6 -10 31.28 2.04
3 -6 -9 1.62 0.66
-3 6 9 2.19 0.5
-3 -6 9 1.71 0.58
3 -6 -9 1.6 0.84
3 6 -9 2.6 0.88
-3 6 8 3.42 0.55
-3 -6 8 2.87 0.58
3 -6 -8 2.99 0.83
3 6 -8 3.01 0.86
3 6 -8 2.86 0.76
-3 6 7 0.03 0.42
-3 -6 7 0.27 0.43
3 -6 -7 -0.07 0.59
3 6 -7 0.13 0.6
3 6 -7 0.24 0.59
-3 6 6 145.97 3.67
3 6 -6 151.27 4.28
3 -6 -6 139.47 4.27
3 6 -6 145.65 4.24
-3 -6 5 6.38 0.53
-3 6 5 6.96 0.71
3 -6 -5 4.58 0.82
3 6 -5 5.9 0.83
-3 6 4 1.04 0.43
3 6 -4 1.69 0.37
-3 -6 4 0.77 0.27
3 -6 -4 0.81 0.53
3 6 -4 0.69 0.49
-3 6 3 16.55 1.03
3 6 -3 11.58 0.99
3 -6 -3 14.86 1.04
-3 6 3 13.81 0.7
-3 6 3 14.91 0.95
3 6 -3 13.25 0.76
-3 6 2 456.93 9.37
3 -6 -2 443.18 9.4
-3 6 2 452.3 9.44
3 6 -2 451.73 9.07
-3 6 2 432.06 8.67
-3 6 1 14.35 1.07
-3 -6 1 14.32 1.07
3 -6 -1 13.28 0.87
3 6 -1 13.97 0.91
-3 6 1 13.82 0.96
-3 6 1 12.78 0.59
-3 6 0 154.93 4.09
-3 -6 0 154.41 4.11
3 -6 0 153.43 3.58
3 6 0 157.47 3.83
-3 6 0 144.09 3.96
-3 6 0 151.96 3.24
-3 6 -1 34.83 1.63
-3 -6 -1 32.67 1.59
3 -6 1 34.72 1.42
-3 6 -2 151.71 4.19
-3 -6 -2 155.26 4.22
3 -6 2 157.58 4.32
3 -6 2 154.41 3.4
3 -6 2 156.51 3.88
3 -6 3 4.57 0.5
3 -6 3 5.84 0.85
3 -6 3 5.52 0.72
-3 6 -3 6.78 0.81
-3 -6 -3 6.25 0.83
3 -6 4 62.04 1.77
3 -6 4 60.2 2.39
3 6 5 2.73 0.54
3 -6 5 3.39 0.55
3 -6 5 3.19 0.7
3 -6 6 33.25 1.37
3 -6 6 32.5 1.71
3 6 6 35.15 1.32
3 -6 7 2.99 0.63
3 6 7 2.33 0.66
3 -6 7 3.59 0.77
3 -6 8 33.33 1.5
3 -6 8 33.16 1.79
3 6 8 31.02 1.53
3 -6 9 2.57 0.77
3 6 9 1.33 0.59
3 -6 9 1.02 0.66
3 -6 10 -0.51 0.76
3 -6 10 -0.05 0.74
3 -6 11 1.96 0.89
3 -6 11 4.06 0.91
3 -6 12 8.42 1.2
-3 -7 13 -0.2 0.76
-3 -7 12 4.01 0.84
3 -7 -12 4.32 1.2
-3 7 11 13.27 0.89
3 -7 -11 18.13 1.76
3 7 -11 20.69 1.73
-3 -7 11 15.99 1.16
-3 7 10 0.24 0.47
-3 -7 10 0.88 0.64
3 -7 -10 2.13 0.99
3 7 -10 -0.92 0.93
-3 7 9 11.83 0.83
-3 -7 9 13.28 0.92
3 -7 -9 10.85 1.31
3 7 -9 12.79 1.34
3 -7 -9 11.65 1.03
-3 7 8 -0.07 0.42
3 7 -8 0.28 0.67
3 7 -8 -0.38 0.65
-3 -7 8 -0.41 0.51
3 -7 -8 0.38 0.67
-3 7 7 34.54 1.42
-3 -7 7 34.71 1.3
3 -7 -7 33.8 1.94
3 7 -7 36.32 1.86
3 7 -7 39.21 1.98
3 7 -6 1.32 0.72
3 7 -6 1.3 0.72
-3 7 6 1.04 0.53
3 -7 -6 1.58 0.72
-3 7 5 107.29 3.04
-3 -7 5 108.69 2.55
3 -7 -5 109.35 3.5
3 7 -5 113.2 3.46
-3 7 5 117.03 3.19
3 7 -4 13.58 0.68
-3 7 4 13.38 0.92
-3 -7 4 13.4 0.59
3 -7 -4 13.76 1.1
-3 7 4 14.93 0.93
3 7 -4 16.48 1.26
3 7 -3 76.4 2.11
-3 7 3 77.47 2.45
-3 7 3 81.61 2.05
3 -7 -3 74.11 2.55
-3 7 3 78.68 2.32
-3 7 3 85.24 2.58
3 7 -2 0.96 0.53
-3 7 2 1.62 0.57
-3 7 2 1.56 0.55
-3 7 2 1.12 0.43
3 -7 -2 0.74 0.54
-3 7 1 208.89 5.16
-3 -7 1 208.31 5.18
-3 7 1 207.16 4.85
3 -7 -1 203.52 4.85
3 7 -1 208.92 4.78
-3 7 1 206.2 5.06
-3 7 1 206.16 4.29
-3 7 0 32.69 1.05
-3 7 0 34.24 1.58
-3 -7 0 38.21 1.65
-3 7 -1 7.03 0.54
3 7 1 7.45 0.3
3 -7 1 10.08 0.95
-3 7 -1 8.2 0.85
-3 -7 -1 9.13 0.92
3 -7 2 4.64 0.79
-3 7 -2 4.6 0.71
-3 -7 -2 4.25 0.68
3 -7 2 4.22 0.47
3 -7 2 4.33 0.66
3 -7 3 259.67 5.35
-3 7 -3 239.75 6.07
-3 -7 -3 239.77 6.09
3 -7 3 263.44 6.32
3 -7 4 2.09 0.46
3 -7 4 3.01 0.74
3 -7 5 75.88 2.16
3 7 5 73.81 2.26
3 -7 5 72.77 2.71
3 7 6 5.26 0.67
3 -7 6 5.07 0.65
3 -7 6 5 0.83
3 -7 7 69.77 2.23
3 -7 7 67.91 2.65
3 -7 8 0.91 0.61
3 7 8 0.08 0.57
3 -7 9 15.52 1.12
3 7 9 13.11 0.99
3 -7 9 12.98 1.26
3 -7 10 0.44 0.69
3 -7 10 1.25 0.8
3 -7 11 7.12 1.05
3 -7 11 7.04 1.13
3 -7 12 -0.43 0.89
-3 -8 13 1.46 0.8
-3 -8 12 -0.19 0.76
-3 8 11 0.81 0.48
-3 -8 11 1.08 0.68
3 -8 -11 1 1.06
3 8 -11 0.81 0.9
3 -8 -10 9.05 0.82
-3 8 10 8.03 0.77
-3 -8 10 7.97 0.88
3 -8 -10 11.47 1.43
3 8 -10 9.81 1.32
3 -8 -9 5.98 0.81
-3 8 9 6.21 0.7
-3 -8 9 5.46 0.7
3 -8 -9 5.79 1.06
3 8 -9 6.72 1.11
3 8 -9 6.73 1.01
-3 8 8 1.83 0.56
3 8 -8 2.47 0.82
3 8 -8 2.15 0.78
-3 -8 8 0.97 0.54
3 -8 -8 2.1 0.85
-3 8 7 25.87 1.22
-3 -8 7 23.6 1.06
3 8 -7 23.36 1.53
3 -8 -7 24.03 1.68
3 8 -7 23.1 1.56
-3 8 6 86.43 2.6
-3 -8 6 88.28 2.26
3 8 -6 91.97 3.1
3 -8 -6 86.41 3.17
3 8 -6 88.57 3.1
-3 8 5 34.29 1.42
3 -8 -5 30.79 1.69
-3 8 5 36.74 1.53
3 8 -5 33.01 1.66
3 8 -4 14.81 0.73
-3 8 4 15.91 1.03
-3 -8 4 13.56 0.64
3 -8 -4 16.9 1.22
-3 8 4 16.98 1.04
3 8 -3 50.74 1.56
-3 8 3 47.7 1.85
-3 8 3 50.74 1.94
3 -8 -3 47.99 1.99
-3 8 3 51.19 1.52
-3 8 3 51.49 1.77
3 8 -2 128.5 3.15
-3 8 2 127.78 3.48
-3 8 2 131.07 3.45
-3 8 2 114.07 2.84
3 -8 -2 123.07 3.47
-3 8 2 132.93 3.17
3 8 -1 37.31 1.36
-3 8 1 40.14 1.59
-3 8 1 38.89 1.6
-3 -8 1 41.38 1.66
-3 8 1 41.33 1.48
-3 8 1 38.19 1.05
3 -8 -1 39.33 1.47
-3 8 0 84.18 2.63
-3 -8 0 83.91 2.65
-3 8 0 86.49 2.39
-3 8 0 84.41 1.99
3 8 0 74.34 1.58
-3 8 -1 151.98 3.46
3 8 1 155.65 3.11
3 -8 1 163.49 4.39
-3 8 -1 159.48 4.19
-3 -8 -1 156.83 4.21
-3 8 -2 142.35 3.93
3 -8 2 141.85 3.64
-3 8 -2 142.14 3.94
-3 -8 -2 141.71 3.95
3 -8 2 140.24 3.25
3 -8 2 140.32 4.05
-3 8 -3 23.88 1.38
-3 -8 -3 25.3 1.44
3 -8 3 25.37 1.5
3 -8 3 26.82 1.05
3 -8 4 210.63 5.57
3 -8 4 221.17 4.81
3 -8 5 53.83 1.75
3 -8 5 50.98 2.23
3 8 5 55.37 1.93
3 -8 6 11.22 0.84
3 -8 6 12.63 1.14
3 8 6 11.28 0.89
3 -8 7 0.25 0.51
3 -8 7 0.75 0.65
3 -8 8 26.05 1.35
3 -8 8 25.43 1.61
3 8 8 25.8 1.36
3 -8 9 15.95 1.15
3 8 9 14.39 1.02
3 -8 9 15.53 1.38
3 -8 10 1.97 0.75
3 -8 10 1.57 0.84
3 -8 11 2.07 0.83
3 -8 11 0.49 0.81
-3 -9 13 -0.1 0.76
-3 -9 12 8.46 1.03
-3 9 11 3.54 0.64
-3 -9 11 3.96 0.83
3 -9 -11 3.99 1.17
3 -9 -10 2.96 0.61
-3 9 10 3.21 0.61
-3 -9 10 3.48 0.72
3 -9 -10 1.43 0.96
3 9 -10 3.41 1.02
3 -9 -9 0.82 0.56
3 9 -9 0.39 0.72
3 9 -9 1.19 0.78
-3 9 9 1.44 0.54
-3 -9 9 0.91 0.55
3 -9 -9 1.07 0.85
3 -9 -8 75.1 2.42
-3 9 8 70.79 2.3
-3 -9 8 74.63 2.21
3 9 -8 78.9 2.9
3 -9 -8 74.04 3.15
3 9 -8 78.3 3.08
-3 9 7 11.77 0.89
-3 -9 7 13.59 0.82
3 -9 -7 11.66 1.29
3 9 -7 11.74 1.22
3 9 -7 12.4 1.18
-3 9 6 1.47 0.54
-3 -9 6 0.15 0.4
3 -9 -6 1.51 0.73
3 9 -6 0.41 0.61
3 9 -6 -0.12 0.6
-3 9 5 27.18 1.34
3 9 -5 26.24 1.55
3 -9 -5 25.83 1.63
-3 9 5 30.72 1.45
-3 9 4 241.42 5.72
3 9 -4 247.07 5.06
-3 -9 4 231.01 4.97
3 -9 -4 240.42 6.13
3 9 -3 17.36 0.88
-3 9 3 17.38 1.09
-3 9 3 17.77 1.17
-3 9 3 17.95 0.9
3 -9 -3 15.22 1.17
-3 9 3 19.36 1.06
3 -9 -2 57.36 2.23
3 9 -2 58.22 1.82
-3 9 2 57.63 2.08
-3 9 2 57.27 2.08
-3 9 2 61.52 2.11
-3 9 2 50 1.59
3 -9 -2 54.33 2.1
-3 9 2 58.77 1.84
-3 9 1 44.53 1.82
-3 -9 1 44.04 1.82
-3 9 1 46.63 1.74
-3 9 1 43.6 1.37
3 -9 -1 47.49 2.01
-3 9 1 46.24 1.86
3 9 0 228.85 4.62
-3 9 0 244.24 5.01
-3 9 0 242.34 5.71
-3 -9 0 242.5 5.73
-3 9 0 239.28 5.01
-3 9 -1 1.19 0.57
-3 -9 -1 1.58 0.6
3 9 1 2.08 0.31
-3 9 -1 1.62 0.46
-3 9 -2 44.73 1.9
-3 9 -2 43.5 1.85
-3 -9 -2 41.84 1.85
3 9 2 42.21 1.18
3 -9 2 43.71 1.42
3 -9 2 44.71 1.97
-3 9 -2 43.63 1.42
3 -9 3 5.86 0.6
3 -9 3 6.15 0.88
-3 9 -3 5.36 0.73
-3 -9 -3 5.14 0.77
3 -9 4 122.22 3.05
3 -9 4 122.91 3.78
3 9 5 2.03 0.62
3 -9 5 2.57 0.57
3 -9 5 3.15 0.76
3 -9 6 59.54 1.96
3 9 6 57.42 2.03
3 -9 6 57.89 2.45
3 -9 7 7.13 0.75
3 -9 7 7.44 1.01
3 -9 8 1.54 0.63
3 -9 8 1.77 0.78
3 9 8 0.55 0.56
3 -9 9 9.34 0.96
3 -9 9 9.3 1.21
3 -9 10 10.77 1.06
3 -9 10 7.18 1.19
3 -9 11 0.05 0.71
3 -9 11 -0.07 0.86
-3 -10 13 5.6 0.97
-3 -10 12 2.12 0.84
-3 10 11 2.23 0.61
-3 -10 11 1.78 0.7
3 -10 -11 2.75 1.12
-3 10 10 1.13 0.56
3 10 -10 -0.52 0.87
3 -10 -10 0.17 0.47
-3 -10 10 0.19 0.59
3 -10 -10 -0.1 0.85
3 -10 -9 28.05 1.31
3 10 -9 26.96 1.7
-3 10 9 24.59 1.29
-3 -10 9 28.22 1.3
3 -10 -9 26.86 1.97
3 10 -9 30.7 1.94
3 -10 -8 1.58 0.65
3 10 -8 0.95 0.82
3 10 -8 2.81 0.82
-3 10 8 2.45 0.63
-3 -10 8 1.73 0.61
3 -10 -8 1.78 0.9
3 -10 -7 37.11 1.64
3 10 -7 35.49 1.87
-3 10 7 35.54 1.54
-3 -10 7 36.81 1.35
3 -10 -7 32.3 2
3 10 -7 35.24 1.96
3 -10 -6 0.73 0.54
3 10 -6 -0.3 0.58
3 10 -6 0.25 0.61
-3 10 6 0.75 0.48
-3 -10 6 0.22 0.37
3 -10 -6 0.36 0.68
3 10 -5 54.78 2.26
-3 10 5 52.64 1.94
3 10 -5 50.06 1.32
3 -10 -5 50.48 2.33
3 -10 -5 59.06 2.16
3 -10 -4 2.79 0.71
-3 10 4 2.82 0.69
-3 -10 4 1.86 0.45
3 -10 -4 2.24 0.73
-3 10 4 3.13 0.66
3 10 -4 2.11 0.46
3 -10 -3 172.84 4.57
-3 10 3 169.18 4.39
3 10 -3 169.34 3.88
3 -10 -3 160.61 4.58
-3 10 3 169.19 3.85
-3 10 3 173.72 4.2
-3 10 2 10.16 0.91
-3 10 2 10.47 0.91
-3 -10 2 11.37 0.94
-3 10 2 11.82 0.93
-3 10 2 9.37 0.69
3 -10 -2 12.39 1.04
-3 10 2 11.88 0.8
-3 10 1 26.52 1.36
-3 -10 1 30.26 1.44
-3 10 1 27.68 1.07
3 10 -1 25.09 0.78
-3 10 1 30.69 1.37
-3 10 1 26.4 1.4
3 -10 -1 30.92 1.58
-3 10 0 0.21 0.51
-3 -10 0 0.26 0.52
-3 10 0 0.25 0.42
3 10 0 0.18 0.26
-3 10 0 0.14 0.46
-3 10 0 0.35 0.36
3 10 1 333.93 6.63
-3 10 -1 346.72 7
-3 10 -1 363.58 7.34
-3 10 -1 342.03 7.64
-3 -10 -1 340.99 7.67
-3 10 -1 313.98 7.7
-3 10 -2 53.37 2.12
-3 10 -2 50.2 1.59
3 10 2 50.64 1.35
3 -10 2 51.04 1.61
3 -10 2 52.53 2.18
-3 10 -2 46.97 1.95
-3 -10 -2 48.81 2.01
-3 10 -3 11.61 1
-3 -10 -3 10.54 0.95
3 -10 3 11.6 1.08
3 -10 3 9.3 0.73
3 -10 4 0.14 0.44
3 -10 4 0.66 0.63
3 -10 5 138.32 3.43
3 10 5 133.38 3.7
3 -10 5 134.43 4.1
3 10 6 0.56 0.61
3 -10 6 1.01 0.54
3 -10 6 0.51 0.68
3 -10 7 12.74 0.96
3 -10 7 11.44 1.2
3 -10 8 2.1 0.66
3 10 8 1.51 0.62
3 -10 8 1.23 0.76
3 -10 9 26.32 1.41
3 -10 9 24.19 1.73
3 -10 10 2.22 0.81
3 -10 10 0.67 0.91
3 -10 11 8.99 1.09
3 -10 11 8.67 1.28
-3 -11 13 0.44 0.78
-3 -11 12 4.44 0.88
-3 11 11 2.67 0.66
-3 -11 11 3.87 0.79
3 -11 -11 2.4 1.11
-3 11 10 2.35 0.64
3 11 -10 1.56 0.93
3 11 -10 1.33 0.78
3 -11 -10 1.12 0.52
-3 -11 10 2.2 0.66
3 -11 -10 1.85 1.03
3 11 -9 7.73 1.19
3 11 -9 8.12 1.07
-3 11 9 7.72 0.83
-3 -11 9 8.19 0.82
3 -11 -9 7.92 1.32
3 -11 -9 7.34 0.78
3 -11 -8 28.31 1.37
3 11 -8 28.51 1.71
-3 11 8 26.92 1.36
-3 -11 8 28.28 1.24
3 -11 -8 27.64 1.98
3 11 -8 25.67 1.79
3 -11 -7 9.66 0.9
3 11 -7 12.34 1.17
-3 11 7 10.59 0.89
-3 -11 7 10.83 0.77
3 -11 -7 9.57 1.24
3 11 -7 10.32 1.15
3 -11 -6 0.71 0.59
3 11 -6 0.3 0.64
-3 11 6 1.2 0.55
-3 -11 6 0.21 0.45
3 -11 -6 0.15 0.67
3 11 -5 21.85 1.39
3 -11 -5 21.64 1.57
3 -11 -5 23.42 1.35
3 11 -5 20.01 0.72
-3 11 5 23.56 1.26
3 -11 -4 104.03 3.11
3 -11 -4 96.71 3.31
-3 11 4 97.55 2.49
-3 11 4 110.18 2.96
-3 11 4 100.99 2.94
3 11 -4 101.77 2.34
3 -11 -3 11.89 1.05
-3 11 3 11.98 0.98
3 11 -3 11.49 0.76
-3 11 3 9.62 0.76
-3 11 3 11.53 0.9
-3 11 2 25.17 1.4
-3 11 2 24.73 1.32
-3 -11 2 25.55 1.36
-3 11 2 28.24 1.41
-3 11 2 24.32 1.08
3 -11 -2 28.86 1.55
-3 11 2 26.11 1.19
-3 11 1 53.78 2.01
-3 -11 1 55.15 2.06
-3 11 1 63.12 2.07
3 11 -1 54.44 1.4
-3 11 1 53.75 1.68
3 -11 -1 60.55 2.32
-3 11 1 51.77 2.07
3 11 0 94.16 2.14
-3 11 0 103.38 2.52
-3 11 0 107.13 2.87
3 11 0 95.22 3
-3 11 0 93.47 2.88
-3 -11 0 93.43 2.91
-3 11 0 93.69 2.42
-3 11 -1 4.64 0.74
-3 11 -1 4.63 0.61
3 11 1 3.57 0.39
-3 -11 -1 3.74 0.65
-3 11 -1 3.62 0.65
-3 11 -1 4.24 0.59
-3 11 -1 4.45 0.42
-3 11 -2 130.9 3.74
-3 11 -2 123.74 3.04
3 11 2 119.87 2.73
3 -11 2 126.2 3.79
-3 11 -2 117.66 3.47
-3 -11 -2 121.06 3.54
-3 11 -3 98.61 3.17
3 -11 3 101.52 3.34
3 -11 3 97.99 2.63
3 -11 4 19.26 1.01
3 -11 4 21.44 1.44
3 11 5 0.88 0.63
3 -11 5 1.16 0.53
3 -11 5 0.39 0.61
3 -11 6 97.22 2.74
3 -11 6 88.59 3.26
3 11 6 93.04 2.91
3 -11 7 13.66 1.01
3 -11 7 15.3 1.33
3 -11 8 -0.04 0.57
3 -11 8 0.36 0.79
3 -11 9 1.05 0.66
3 -11 9 -0.3 0.79
3 -11 10 27.42 1.52
3 -11 10 18.15 1.67
3 -11 11 3.56 0.91
3 -11 11 4.04 1.1
-3 -12 12 2.64 0.8
-3 12 11 0.65 0.58
-3 -12 11 0.46 0.66
3 -12 -11 0.34 1.01
3 12 -10 16.38 1.42
-3 12 10 12.33 1.04
-3 -12 10 16.61 1.12
3 -12 -10 15.48 1.74
3 12 -10 17.53 1.62
3 -12 -9 15.71 1.01
-3 12 9 14.69 1.1
3 12 -9 16.44 1.39
-3 -12 9 17.5 1.06
3 -12 -9 17.73 1.77
3 12 -9 15.34 1.51
-3 12 8 2.55 0.64
3 12 -8 1.71 0.79
3 12 -8 2.65 0.87
3 -12 -8 1.75 0.58
-3 -12 8 2.68 0.6
3 -12 -8 1.19 0.86
3 12 -7 9.13 1.08
-3 12 7 9.44 0.88
-3 -12 7 8.91 0.76
3 12 -7 9.53 1.15
3 -12 -7 8.78 1.24
3 -12 -7 8.46 0.88
-3 12 6 75.37 2.55
-3 -12 6 82.47 2.21
3 12 -6 79.09 2.92
3 -12 -6 83.49 3.28
3 -12 -6 81.27 2.64
-3 12 5 17.86 1.15
3 12 -5 15.13 0.64
-3 -12 5 16.88 0.85
3 -12 -5 16.25 1.42
3 -12 -5 18.52 1.22
-3 12 4 3.21 0.68
-3 12 4 2.21 0.54
3 -12 -4 2.29 0.69
-3 12 4 2.61 0.62
3 12 -4 2.29 0.44
3 -12 -3 73.89 2.66
-3 12 3 74.99 2.55
3 12 -3 76.56 2.13
-3 12 3 77.31 2.16
-3 12 3 75.55 2.4
-3 12 2 221.79 5.55
-3 -12 2 228.88 5.48
-3 12 2 214.36 5.35
-3 12 2 220.59 4.95
-3 12 2 234.29 5.22
-3 12 2 236.42 5.53
3 -12 -2 220.19 5.68
-3 12 1 1.24 0.57
-3 12 1 0.99 0.49
-3 12 1 -0.04 0.51
-3 -12 1 0.5 0.54
-3 12 1 1.25 0.52
3 12 -1 0.26 0.34
3 -12 -1 1.6 0.71
-3 12 0 48.85 1.89
-3 -12 0 43.98 1.83
-3 12 0 53.48 1.86
3 12 0 49.25 1.3
-3 12 0 49.58 1.61
3 -12 0 46.44 2.07
-3 12 0 47.28 1.5
-3 12 -1 44.24 1.81
-3 -12 -1 44.16 1.83
-3 12 -1 47.15 1.68
3 12 1 41.29 1.21
-3 12 -1 44.45 1.51
-3 12 -1 46.01 1.97
-3 12 -1 41.88 1.27
3 -12 2 58.74 2.33
-3 12 -2 56.28 2.2
-3 12 -2 50.62 1.97
-3 -12 -2 51.19 2.01
-3 12 -2 55.22 1.7
3 12 2 52.67 1.4
-3 12 -2 57.38 1.75
3 12 2 52.19 2.01
-3 12 -3 12.31 1.08
3 -12 3 11.66 0.84
3 -12 3 12.73 1.2
-3 12 -3 12.15 0.87
3 -12 4 8.01 1.05
3 -12 4 8.29 0.77
3 -12 5 31.7 1.85
3 -12 5 36.34 1.49
3 12 6 12.85 1.08
3 -12 6 13.88 0.97
3 -12 6 14.02 1.31
3 12 6 13.87 1.15
3 -12 7 12.56 1
3 -12 7 12.13 1.26
3 -12 8 40.75 1.72
3 -12 8 35.85 2.09
3 -12 9 0.37 0.64
3 -12 9 0.08 0.83
3 -12 10 0.5 0.69
3 -12 10 0.48 0.88
3 -12 11 2.92 0.86
3 -12 11 4.12 1.18
-3 -13 12 0.46 0.7
-3 -13 11 10.89 1.01
3 -13 -11 8.73 1.51
-3 13 11 8.5 0.92
3 13 -10 1.48 0.97
3 13 -10 0.42 0.76
-3 13 10 0.94 0.63
-3 -13 10 0.27 0.66
3 -13 -10 1.75 1.12
-3 13 9 8.71 0.93
3 13 -9 11.72 1.22
3 13 -9 9.11 1.29
-3 -13 9 9.54 0.88
3 -13 -9 11.61 1.58
3 -13 -9 8.62 0.84
-3 13 8 1.04 0.6
3 13 -8 0.4 0.64
3 13 -8 0.46 0.72
3 -13 -8 -0.11 0.53
-3 -13 8 -0.19 0.5
3 -13 -8 0.86 0.85
3 -13 -7 45.77 1.85
-3 13 7 44.38 1.88
3 13 -7 54.09 2.34
-3 -13 7 49.7 1.66
3 -13 -7 50.39 2.63
3 13 -7 48.04 2.34
3 13 -6 1.94 0.73
3 -13 -6 1.38 0.68
-3 -13 6 0.62 0.5
3 -13 -6 1.05 0.83
-3 13 6 2.27 0.65
-3 13 5 79.6 2.57
3 13 -5 68.68 1.75
-3 -13 5 77.49 2.06
3 -13 -5 81.26 2.62
3 -13 -4 0.6 0.59
-3 13 4 0.35 0.49
-3 13 4 0.51 0.49
3 13 -4 0.17 0.35
-3 13 4 0.09 0.56
3 -13 -3 19.82 1.3
-3 13 3 19.58 1.24
-3 13 3 19.89 1.03
-3 13 3 20.15 1.17
-3 13 2 3.64 0.72
-3 13 2 2.62 0.61
-3 13 2 2.54 0.61
-3 -13 2 3.76 0.7
-3 13 2 2.38 0.63
3 13 -2 2.02 0.46
3 -13 -2 3.11 0.79
-3 13 1 252.44 5.89
-3 -13 1 264.41 5.98
-3 13 1 273.87 6.04
3 13 -1 249 5.2
-3 13 1 237.12 5.51
-3 13 1 264.26 5.68
3 -13 -1 260.89 6.38
-3 -13 0 -0.63 0.52
-3 13 0 -0.16 0.53
-3 13 0 1.13 0.5
3 13 0 0.09 0.36
-3 13 0 0.19 0.5
3 -13 0 1.05 0.6
-3 13 -1 2.46 0.55
-3 13 -1 2.02 0.39
-3 13 -1 2.05 0.56
-3 -13 -1 2.37 0.59
3 13 1 1.7 0.38
-3 13 -1 1.34 0.53
-3 13 -1 1.67 0.58
3 -13 2 11.04 1.11
-3 13 -2 13.28 1.11
-3 13 -2 12.02 0.96
-3 -13 -2 11.14 0.95
-3 13 -2 12.5 0.85
-3 13 -2 9.94 0.5
3 13 2 10.32 0.62
-3 13 -2 12.13 0.82
-3 13 -3 268.56 6.56
-3 13 -3 265.26 5.83
3 -13 3 263.8 5.85
3 -13 3 252.83 6.63
3 -13 4 3.42 0.64
3 -13 4 3.99 0.89
3 13 4 4.44 0.81
-3 13 -4 4.05 0.78
3 -13 5 0.68 0.74
3 13 5 0.62 0.64
3 -13 5 0.8 0.54
3 -13 6 0.92 0.76
3 13 6 0.13 0.61
3 -13 6 0.26 0.54
3 13 6 0.46 0.67
3 -13 7 57.73 2.62
3 -13 7 58.76 2.11
3 -13 8 0.15 0.81
3 -13 8 0.43 0.61
3 -13 9 9.45 1.31
3 -13 9 12.27 1.1
3 -13 10 0.96 0.7
3 -13 10 0.74 0.94
3 -13 11 3.68 0.94
3 -13 11 5.3 1.3
-3 -14 12 3.2 0.8
3 14 -11 0.21 0.76
-3 -14 11 1.11 0.7
-3 14 11 1.19 0.66
-3 -14 10 11.41 0.99
3 14 -10 12.36 1.29
-3 14 10 9.86 1
3 14 -9 4.77 1.07
3 14 -9 4.99 0.98
-3 -14 9 5.25 0.74
-3 14 9 4.62 0.8
3 -14 -9 4.73 0.67
3 14 -8 1.08 0.73
3 14 -8 -0.39 0.75
3 -14 -8 0.11 0.54
-3 -14 8 0.29 0.55
-3 14 8 0.9 0.6
-3 -14 7 13.95 0.92
-3 14 7 14.04 1.09
3 14 -7 14.2 1.26
3 -14 -7 13.68 1.05
-3 -14 6 66.79 1.97
3 -14 -6 62.18 2.28
-3 14 6 62.14 2.3
-3 14 5 11.78 1
3 14 -5 9.19 0.54
3 -14 -5 12.1 1.05
-3 -14 5 10.96 0.78
-3 14 4 13.45 1.06
3 14 -4 13.31 0.75
-3 14 4 13.66 0.92
3 -14 -4 15.23 1.18
-3 14 3 33.14 1.63
-3 14 3 33.4 1.32
3 -14 -3 32.94 1.68
-3 14 3 33.7 1.52
-3 14 2 116.28 3.44
-3 14 2 104.56 3.08
-3 -14 2 112.55 3.2
3 14 -2 107.62 2.6
-3 14 2 107.27 2.85
-3 14 2 112.22 3.06
3 -14 -2 113.18 3.49
-3 14 1 5.17 0.66
-3 14 1 5.72 0.8
3 14 -1 4.59 0.49
-3 14 1 4.73 0.69
-3 -14 1 3.56 0.67
-3 14 1 4.22 0.65
3 -14 -1 4.67 0.83
3 14 0 36.9 1.15
-3 14 0 37.42 1.44
-3 14 0 38.37 1.59
3 -14 0 38.52 1.91
-3 14 0 36.47 1.59
-3 -14 0 35.46 1.61
-3 14 -1 26.83 1.38
-3 -14 -1 25.94 1.37
-3 14 -1 30.29 1.34
3 14 1 27.98 0.98
-3 14 -1 27.05 1.24
-3 14 -1 25.98 1.52
-3 14 -1 25.27 1
-3 14 -2 70.06 2.38
-3 -14 -2 65.43 2.34
3 14 2 69.53 1.82
-3 14 -2 74.27 2.17
-3 14 -2 70.25 2.62
-3 14 -2 60.84 1.68
-3 14 -2 73.92 2.15
-3 14 -3 5.55 0.91
3 -14 3 4.84 0.71
3 14 3 5.33 0.6
-3 14 -3 4.78 0.72
-3 14 -3 3.16 0.28
-3 14 -3 5.46 0.6
-3 14 -4 111.7 3.55
3 -14 4 108.82 3
3 -14 4 108.16 3.68
3 -14 5 34.74 1.97
3 -14 5 34.15 1.48
3 -14 6 2.16 0.65
3 -14 6 2.31 0.83
3 -14 7 0.04 0.61
3 -14 7 0.92 0.86
3 -14 8 59.23 2.76
3 -14 8 64.16 2.28
3 -14 9 2.85 0.79
3 -14 9 1.91 1.01
3 -14 10 0.51 0.68
3 -14 10 0.68 0.95
3 -14 11 0.53 0.98
-3 -15 12 2.86 0.83
3 15 -11 3.65 0.91
-3 15 11 2.54 0.74
-3 -15 11 3.73 0.77
3 15 -10 1.18 0.8
-3 -15 10 1.85 0.67
-3 15 10 1.32 0.7
3 15 -9 1.19 0.87
3 15 -9 0.98 0.79
3 -15 -9 1.26 0.56
-3 -15 9 1.52 0.64
-3 15 9 0.99 0.65
-3 15 8 21.66 1.35
-3 -15 8 21.92 1.15
3 15 -8 23.74 1.59
3 -15 -8 24.16 1.25
3 15 -8 22.78 1.72
-3 -15 7 20.64 1.1
3 15 -7 18.35 1.4
-3 15 7 19.34 1.28
3 -15 -7 18.29 1.18
-3 -15 6 -0.14 0.53
-3 15 6 1.05 0.6
3 -15 -6 0.97 0.61
-3 15 5 18.8 1.24
3 -15 -5 15.57 1.17
-3 -15 5 15.06 0.91
-3 15 4 140.43 4.05
-3 15 4 146.39 3.59
3 -15 -4 149.31 4.15
-3 15 3 20.7 1.32
-3 15 3 22.21 1.11
-3 15 3 20.06 1.15
-3 -15 3 22.09 1.23
3 -15 -3 23.36 1.45
-3 15 3 23.35 1.29
-3 15 2 13.65 1.1
-3 15 2 11.63 0.91
-3 -15 2 11.96 0.95
3 -15 -2 14.05 1.16
-3 15 2 12.51 0.93
3 15 -2 13.08 0.74
-3 15 2 13.14 0.89
-3 15 1 62.87 2.16
-3 -15 1 66.18 2.24
3 15 -1 64.49 1.76
-3 15 1 62.49 2.03
3 -15 -1 67.93 2.61
-3 15 1 69.34 2.11
-3 15 0 68.72 2.66
-3 15 0 75.74 2.43
-3 -15 0 74.52 2.45
-3 15 0 72.9 2.25
3 15 0 73.8 1.93
-3 15 0 76.04 2.17
3 -15 0 79.09 2.88
-3 15 0 79.73 2.47
-3 15 -1 1.27 0.64
-3 15 -1 0.81 0.5
-3 -15 -1 0.26 0.5
-3 15 -1 0.59 0.55
-3 15 -1 0.26 0.59
3 15 1 0.38 0.4
-3 15 -1 0.22 0.24
-3 15 -2 19.47 1.17
-3 -15 -2 16.66 1.12
-3 15 -2 19.44 1.1
3 15 2 18.17 0.83
-3 15 -2 18.89 1.34
-3 15 -2 14.21 0.7
-3 15 -2 18.42 1.02
3 -15 3 35.99 1.94
-3 15 -3 39.73 1.9
3 15 3 37.03 1.23
3 -15 3 35.24 1.46
-3 15 -3 33.43 1.27
-3 15 -4 16.71 1.28
3 -15 4 17.91 1.46
3 -15 4 17.58 1.09
3 -15 5 7.14 0.81
3 -15 5 8.16 1.13
3 -15 6 25.28 1.76
3 -15 6 27.57 1.4
3 -15 7 3.15 0.7
3 -15 7 4.67 1.11
3 -15 8 14.52 1.51
3 -15 8 14.62 1.14
3 -15 9 1.7 0.95
3 -15 9 3.31 0.81
3 -15 10 9.61 1.41
3 -15 10 9.7 1.08
3 -15 11 0.46 1
-3 -16 12 0.32 0.74
3 16 -11 0.36 0.75
-3 16 11 0.7 0.69
-3 -16 11 1.47 0.7
-3 -16 10 -0.32 0.64
3 16 -10 0.63 0.76
-3 -16 9 22.55 1.26
3 16 -9 25.68 1.7
3 16 -9 25.23 1.89
3 -16 -8 1.98 0.65
-3 -16 8 0.87 0.6
3 16 -8 1.5 0.77
3 16 -8 0.32 0.79
-3 -16 7 27.73 1.28
3 16 -7 27.42 1.69
-3 16 7 27.22 1.51
3 -16 -7 26.17 1.39
-3 -16 6 1.11 0.54
-3 16 6 1.46 0.64
3 -16 -6 1.7 0.66
-3 16 5 29.6 1.59
-3 -16 5 30.48 1.29
3 -16 -5 32.8 1.64
3 -16 -4 3.63 0.81
-3 16 4 4.24 0.77
-3 16 3 61.18 2.36
-3 16 3 56.37 2.03
-3 -16 3 59.37 2.13
-3 16 3 62.54 1.96
3 16 -3 60.24 1.79
-3 16 3 64.52 2.23
3 -16 -3 63.55 2.45
-3 16 2 1.31 0.63
-3 16 2 1.5 0.54
-3 16 2 0.46 0.48
-3 -16 2 1.13 0.55
-3 16 2 0.12 0.6
3 16 -2 0.96 0.43
3 -16 -2 1.2 0.65
-3 16 1 14.38 0.97
-3 -16 1 13.66 0.97
3 16 -1 12.9 0.74
-3 16 1 12.88 0.94
-3 16 1 14 0.93
3 -16 -1 14.22 1.24
3 -16 0 4.02 0.86
-3 16 0 3.26 0.77
-3 16 0 3.64 0.69
-3 16 0 3.44 0.62
-3 -16 0 2.87 0.62
-3 16 0 3.8 0.68
3 16 0 2.74 0.48
-3 16 0 2.83 0.54
-3 16 -1 153.7 3.78
3 16 1 147.77 3.34
-3 16 -1 146.36 3.8
-3 16 -1 147.76 3.91
-3 -16 -1 138.71 3.86
-3 16 -1 145.24 4.28
-3 16 -2 1.92 0.56
-3 16 -2 0.99 0.64
3 16 2 0.59 0.43
-3 16 -2 0.88 0.38
-3 16 -3 1.91 0.5
-3 16 -3 1.92 0.7
3 16 3 1.4 0.51
-3 16 -3 1.66 0.32
3 -16 3 2.33 0.8
-3 16 -4 11.62 1.13
3 -16 4 9.99 0.91
3 -16 4 11.3 1.25
3 -16 5 99.42 2.93
3 -16 5 93.31 3.51
3 -16 6 9 1.24
3 -16 6 8.65 0.93
3 -16 7 7.18 1.21
3 -16 7 7.9 0.93
3 -16 8 0.66 0.67
3 -16 8 0.68 0.89
3 -16 9 8.52 1.02
3 -16 9 7.31 1.34
3 -16 10 0.58 0.73
3 -16 10 0.36 1.04
-3 17 11 0.83 0.7
-3 -17 11 0.52 0.69
3 17 -11 0.14 0.72
-3 -17 10 1.25 0.66
3 17 -10 1.55 0.84
-3 -17 9 0.23 0.65
3 17 -9 0.5 0.77
3 17 -9 -0.52 0.9
3 17 -8 17.4 1.44
-3 -17 8 18.38 1.11
3 17 -8 17.68 1.57
3 -17 -8 17.61 1.13
-3 17 7 6 0.88
-3 -17 7 6.32 0.79
3 -17 -7 5.56 0.83
3 17 -7 5.27 0.95
-3 -17 6 1.22 0.58
3 -17 -6 1.9 0.71
-3 17 6 1.68 0.67
3 -17 -5 2.69 0.75
-3 17 5 3.38 0.76
-3 17 4 75.41 2.74
3 -17 -4 82.72 2.84
3 -17 -3 1 0.67
-3 17 3 1.57 0.56
-3 -17 3 1.73 0.58
3 17 -3 0.02 0.53
-3 17 3 1.96 0.67
3 17 -2 23.89 1.03
-3 17 2 24.21 1.28
3 -17 -2 22.71 1.51
-3 17 2 21.38 1.17
-3 -17 2 22.14 1.21
3 17 -1 7.41 0.64
-3 17 1 8.63 0.82
3 -17 -1 7.19 0.99
-3 17 1 8.06 0.78
-3 -17 1 7.41 0.76
-3 17 0 123.1 3.81
-3 17 0 121.65 3.36
-3 -17 0 123.16 3.39
3 17 0 119.56 2.88
3 -17 0 120.22 3.9
-3 17 0 118.35 3.14
-3 17 -1 4.93 0.84
-3 17 -1 5.94 0.78
-3 -17 -1 6.2 0.78
3 17 1 6.29 0.61
-3 17 -1 6.56 0.79
3 -17 1 5.68 0.98
-3 17 -1 6.03 0.64
-3 17 -2 88.27 2.47
3 17 2 91.23 2.13
3 -17 3 8.81 1.14
3 17 3 5.95 0.71
-3 17 -3 5.99 0.66
-3 17 -3 8.42 1.04
3 17 3 7.31 0.69
-3 17 -3 5.02 0.47
3 -17 4 22.05 1.6
-3 17 -4 22.11 1.5
-3 17 -4 16.78 0.86
3 -17 4 21.47 1.23
3 17 4 23.49 1.1
3 -17 5 1.77 0.7
3 -17 5 2.51 0.98
-3 17 -5 2.31 0.77
3 -17 6 74.67 3.18
3 -17 6 77.26 2.56
3 -17 7 1.15 0.69
3 -17 7 0.42 0.88
3 -17 8 0.19 0.71
3 -17 8 0.09 0.9
3 -17 9 -0.15 0.72
3 -17 9 0.36 1.07
3 -17 10 7.18 1.4
-3 -18 11 1.05 0.72
3 18 -11 2.29 0.87
-3 -18 10 4.7 0.82
3 18 -10 3.38 0.92
-3 -18 9 5.21 0.81
3 18 -9 6.4 1.1
3 18 -9 4.35 1.13
-3 -18 8 1.33 0.66
3 18 -8 2.35 0.82
3 -18 -8 1.19 0.63
3 -18 -7 11.57 1.01
-3 -18 7 11 0.94
-3 18 6 48.37 2.14
3 -18 -6 53.45 2.1
-3 -18 6 52.35 1.85
3 -18 -5 42.7 1.91
-3 18 5 36.63 1.87
3 -18 -4 15.46 1.24
-3 18 4 16.04 1.23
3 18 -3 45.87 1.57
-3 18 3 46.16 1.75
-3 -18 3 46.9 1.82
3 -18 -3 46.56 2.13
-3 18 3 44.57 2.06
3 18 -2 46.93 1.56
-3 18 2 45.5 1.76
-3 -18 2 48.42 1.82
3 -18 -2 47.19 2.19
-3 18 2 48.66 1.9
3 18 -1 7.3 0.71
-3 18 1 8.7 0.81
-3 -18 1 7.73 0.8
3 -18 -1 9.75 1.14
-3 18 1 7.17 0.8
-3 18 0 8.51 1.05
-3 18 0 9.61 0.87
-3 -18 0 8.6 0.84
3 18 0 8.03 0.69
3 -18 0 9.95 1.15
-3 18 0 9.74 0.85
-3 18 -1 51.27 2.29
-3 18 -1 49.54 1.91
-3 -18 -1 47.51 1.86
3 18 1 49 1.54
-3 18 -1 48.97 1.88
3 -18 1 53.13 2.41
-3 18 -1 47.72 1.66
3 18 2 74.5 2.03
-3 18 -2 67.04 2.25
-3 18 -2 78.54 2.93
-3 18 -3 6.54 1
3 18 3 4.63 0.67
3 -18 3 6.35 1.07
3 18 3 5.53 0.66
-3 18 -3 4.18 0.5
-3 18 -3 5.04 0.67
3 -18 4 15.04 1.42
-3 18 -4 15.73 1.35
3 -18 4 15.28 1.11
-3 18 -4 13.24 0.82
3 -18 5 32.52 1.6
3 -18 5 32.49 2.04
-3 18 -5 32 1.84
3 -18 6 19.13 1.27
3 -18 6 14.51 1.5
3 -18 7 3.14 1.07
3 -18 7 3.23 0.8
3 -18 8 10.05 1.45
3 -18 8 8.3 1.03
3 -18 9 1.22 1.02
3 -18 9 1.73 0.81
3 19 -11 5.4 1.05
-3 -19 11 7.18 0.98
3 19 -10 2.72 0.91
-3 -19 10 2.66 0.79
-3 -19 9 9.11 0.97
3 19 -9 9.09 1.21
-3 -19 8 -0.39 0.68
3 -19 -8 0.98 0.59
3 19 -8 1.15 0.75
-3 -19 7 13.75 1.05
3 -19 -7 14.29 1.14
-3 -19 6 -0.6 0.63
3 -19 -6 0.49 0.63
-3 19 6 0.35 0.68
-3 19 5 18.85 1.36
3 -19 -5 19.38 1.36
-3 19 4 0.45 0.5
-3 -19 4 0.77 0.54
-3 19 4 0.06 0.57
3 -19 -4 0.4 0.66
-3 -19 3 37.07 1.57
-3 19 3 37.06 1.53
-3 19 3 36.86 1.87
3 -19 -3 35.33 1.87
-3 19 2 3.64 0.63
-3 -19 2 3.49 0.67
3 19 -2 4.39 0.64
3 -19 -2 4.37 0.97
-3 19 1 108.03 3.03
-3 -19 1 107.33 3.03
3 19 -1 106.3 2.72
-3 19 1 100.67 3.03
3 -19 -1 107.8 3.63
3 -19 0 4.95 0.97
-3 19 0 4.8 0.96
-3 19 0 3.78 0.68
-3 -19 0 4.91 0.71
3 19 0 4.5 0.61
-3 19 0 4.19 0.68
-3 19 -1 1.07 0.68
-3 -19 -1 0.16 0.51
3 -19 1 1.67 0.84
3 19 1 0.21 0.51
-3 19 -1 1.56 0.51
3 -19 2 13.87 0.93
-3 19 -2 16.2 1.37
-3 19 -2 12.32 0.81
-3 19 -2 11.32 0.95
3 19 3 86.69 2.06
-3 19 -3 86.19 2.12
3 -19 4 2.22 0.74
3 -19 4 3.11 0.95
-3 19 -4 2.23 0.84
3 -19 5 3.35 0.81
3 -19 5 3.64 1.02
-3 19 -5 2.2 0.81
3 -19 6 3.54 1.05
3 -19 6 3.17 0.79
3 -19 7 16.7 1.73
3 -19 7 21.86 1.39
3 -19 8 2.04 0.81
3 -19 8 2.79 1.15
3 -19 9 2.19 0.83
-3 -20 11 -0.14 0.72
3 20 -10 10.46 1.3
-3 -20 10 10.55 1.11
-3 -20 9 0.93 0.71
3 20 -9 0.96 0.76
-3 -20 8 -0.73 0.73
3 20 -8 0.66 0.72
-3 -20 7 1.76 0.7
3 -20 -7 2.04 0.73
-3 20 6 9.21 1.05
3 -20 -6 9.6 1.03
3 -20 -5 -0.11 0.65
-3 20 5 0.12 0.69
-3 20 4 0.95 0.52
-3 -20 4 1.09 0.55
3 -20 -4 1.81 0.76
-3 20 4 1.24 0.67
-3 20 3 0.8 0.53
-3 -20 3 1.19 0.55
3 -20 -3 1.13 0.71
-3 20 3 0.44 0.64
3 -20 -2 94.36 3.31
-3 20 2 87.71 2.66
-3 -20 2 92.72 2.71
3 -20 -1 8.82 1.13
-3 20 1 7.34 1.05
-3 20 1 7.1 0.86
-3 20 1 7.03 0.83
-3 -20 1 8 0.83
-3 20 0 67.96 2.79
-3 20 0 73.51 2.37
-3 -20 0 63.76 2.2
3 -20 0 65.83 2.8
-3 20 0 67.3 2.24
3 -20 1 3.22 0.96
-3 20 -1 2.25 0.55
-3 20 -1 2.17 0.78
-3 20 -2 40.25 1.68
3 20 2 41.95 1.53
-3 20 -2 47.05 2.25
-3 20 -2 38.53 1.49
3 20 3 3.6 0.63
-3 20 -3 4.16 0.67
-3 20 -3 4.24 0.95
3 -20 4 46.17 2.49
-3 20 -4 50.63 2.41
3 -20 5 -0.34 0.68
3 -20 5 -0.09 0.89
-3 20 -5 0.37 0.7
3 -20 6 -0.54 0.98
3 -20 6 -0.35 0.76
3 -20 7 1.12 1.04
3 -20 7 0.46 0.76
3 -20 8 20.05 1.45
3 -20 8 20.82 1.94
-3 -21 10 0.23 0.71
3 21 -10 -0.15 0.78
-3 -21 9 1.91 0.79
3 21 -9 2.47 0.92
-3 -21 8 4.49 0.83
3 21 -8 3.46 0.92
-3 -21 7 23.26 1.35
3 -21 -7 20.74 1.38
-3 21 6 0.57 0.71
3 -21 -6 1.55 0.75
-3 21 5 24.72 1.25
-3 21 5 22.78 1.57
-3 21 4 21.74 1.19
-3 -21 4 25.39 1.29
-3 21 4 22.73 1.53
3 -21 -4 23.89 1.55
-3 21 3 10.3 0.87
-3 -21 3 11.84 0.91
3 -21 -3 12.48 1.24
-3 21 3 11.97 1.2
-3 21 2 3.22 0.66
-3 -21 2 3.68 0.63
3 -21 -2 3.94 0.95
3 -21 -1 40.36 2.13
-3 21 1 44.01 1.74
-3 -21 1 40.4 1.62
-3 21 1 36.3 2.02
-3 21 0 29.42 1.41
-3 -21 0 25.54 1.27
-3 21 0 23.68 1.64
3 -21 0 26.25 1.75
-3 21 0 22.77 1.32
3 -21 1 1.25 0.8
-3 21 -1 1.23 0.55
-3 21 -1 1.45 0.75
3 -21 2 7.69 1.26
-3 21 -2 7.82 1.11
3 21 2 7.3 0.7
-3 21 -3 34.87 2.04
3 -21 4 9.08 1.32
-3 21 -4 8.06 1.12
-3 21 -5 1.3 0.85
3 -21 5 0.8 0.7
3 -21 5 2.16 1.03
3 -21 6 2.63 0.85
3 -21 6 2.16 1.07
3 -21 7 10.49 1.15
3 -21 7 10.08 1.55
3 -21 8 1.86 0.84
-3 -22 10 -0.51 0.79
-3 -22 9 4.67 0.9
3 22 -9 3.04 0.94
-3 -22 8 1.05 0.76
3 22 -8 1.35 0.8
3 -22 -7 9.45 1.06
3 -22 -6 5.05 0.92
-3 22 6 6.14 0.99
-3 22 5 15.96 1.4
3 -22 -5 17.89 1.4
-3 -22 5 19.47 1.17
-3 22 5 18.82 1.12
-3 22 4 4.93 0.71
-3 -22 4 5.79 0.74
3 -22 -4 5.44 0.98
-3 22 4 5.53 1.01
-3 22 3 42.29 2.17
3 -22 -3 46.02 2.25
-3 22 3 49.15 1.77
-3 -22 3 45.4 1.72
3 -22 -2 9.08 1.18
-3 22 2 9.8 0.85
-3 -22 2 9.15 0.83
-3 22 1 12.61 1.26
3 -22 -1 15.75 1.46
-3 22 1 14.85 1.03
-3 -22 1 15.02 0.98
3 -22 0 12.51 1.38
-3 22 0 11.8 1.29
3 -22 1 61.58 2.82
-3 22 -1 60.11 2.68
3 -22 2 4.57 1.08
-3 22 -2 4.29 0.96
-3 22 -3 -0.47 0.84
3 -22 4 11.43 1.48
-3 22 -4 12.77 1.42
3 -22 5 41.22 2.54
-3 22 -5 54.29 2.56
3 -22 6 0.86 0.76
3 -22 6 1.54 1.08
3 -22 7 1.61 0.86
3 -22 7 4.08 1.25
3 -22 8 3.49 0.92
-3 -23 9 0.33 0.78
3 23 -9 1.87 0.94
-3 -23 8 13.49 1.18
3 23 -8 14.36 1.45
-3 23 6 1.75 0.8
3 -23 -6 1.26 0.76
-3 -23 5 2.84 0.66
3 -23 -5 1.87 0.82
-3 23 5 2.04 0.84
-3 23 4 29.16 1.8
3 -23 -4 29.61 1.82
-3 -23 4 31.75 1.4
-3 -23 3 2.51 0.6
3 -23 -3 2.71 0.95
3 -23 -2 7.57 1.14
-3 -23 2 6.98 0.74
3 -23 -1 0.54 0.78
-3 23 1 0.88 0.72
-3 23 1 0.77 0.56
-3 -23 1 1.09 0.49
3 -23 0 52.69 2.59
-3 23 0 47.08 2.39
3 -23 1 5.37 1.12
-3 23 -1 4.54 0.99
3 -23 2 37.35 2.28
-3 23 -2 35.79 2.12
-3 23 -3 0.49 0.87
3 -23 4 9.91 1.47
-3 23 -4 13.92 1.5
3 -23 5 2.32 1.11
-3 23 -5 2.32 0.98
3 -23 6 34.02 1.84
3 -23 6 31.21 2.34
3 -23 7 0.34 0.82
-3 -24 9 6.06 0.98
3 24 -8 -0.31 0.76
-3 -24 6 4.83 0.74
-3 24 6 5.2 1.03
3 -24 -6 5.77 0.99
-3 -24 5 15.67 1.04
-3 24 5 15.56 1.45
3 -24 -5 14.83 1.36
-3 -24 4 0.1 0.49
-3 24 4 -0.78 0.75
3 -24 -4 0.2 0.82
3 -24 -3 26.15 1.79
-3 -24 3 29.36 1.31
3 -24 -2 11.84 1.33
-3 -24 2 13.36 0.9
-3 24 1 1.13 0.84
-3 -24 1 1.21 0.47
3 -24 -1 1.26 0.82
3 -24 0 5.46 1.11
-3 24 0 4.48 1.07
3 -24 1 28.17 2.02
-3 24 -1 24.62 1.81
3 -24 2 5.41 1.19
-3 24 -2 6.06 1.14
-3 24 -3 2.71 0.97
-3 24 -4 2.69 1.01
3 -24 5 9.95 1.49
-3 24 -5 11.51 1.44
-3 24 -6 6.49 1.2
3 -25 -6 0.91 0.8
-3 25 6 2.21 0.86
-3 25 5 10.22 1.25
3 -25 -5 10.62 1.23
-3 25 4 10.72 1.27
3 -25 -4 10.99 1.3
-3 -25 3 3.64 0.59
3 -25 -3 5.27 1.05
-3 -25 2 2.48 0.53
-3 25 2 1.42 0.87
3 -25 -2 2.04 0.96
-3 25 1 17.26 1.53
3 -25 -1 23.55 1.84
-3 25 0 3.31 0.97
3 -25 0 2.07 0.99
-3 25 -1 4.49 1.07
3 -25 1 5.43 1.26
-3 25 -2 6.49 1.18
3 -25 2 6.3 1.31
-3 25 -3 30.54 2.06
3 -25 3 29.9 2.19
-3 25 -4 -0.18 0.87
-3 25 -5 0.44 0.94
-3 25 -6 17.14 1.69
-3 26 5 1.99 0.92
3 -26 -5 1.14 0.87
-3 26 4 2.3 0.92
3 -26 -4 1.85 0.92
3 -26 -3 -0.08 0.86
-3 26 2 17.4 1.53
3 -26 -2 18.12 1.69
-3 26 1 1.82 0.9
3 -26 -1 4.75 1.22
-3 26 0 6.94 1.19
3 -26 0 5.7 1.2
-3 26 -1 1.62 0.97
3 -26 1 0.46 0.95
-3 26 -2 14.43 1.58
3 -26 2 17.38 1.78
-3 26 -3 0.71 0.92
3 -26 3 0.8 1.05
-3 26 -4 29.64 2.14
-3 26 -5 6.48 1.29
3 -27 -5 10.97 1.31
3 -27 -4 4.6 1.06
3 -27 -3 3.44 1.04
-3 27 2 1.72 0.9
3 -27 -2 1.15 0.96
-3 27 1 39.94 2.28
3 -27 -1 43.5 2.51
-3 27 0 1.18 0.87
3 -27 0 1.18 1.08
-3 27 -1 1.13 0.93
3 -27 1 -1.05 1.11
-3 27 -2 0.18 0.93
3 -27 2 -0.6 1.01
-3 27 -3 15.13 1.65
3 -27 3 17.99 1.92
-3 27 -4 12.37 1.57
3 -28 -5 2.75 1.03
3 -28 -4 1.38 0.97
3 -28 -3 12.75 1.53
3 -28 -2 7.27 1.29
3 -28 -1 5.04 1.24
-3 28 0 5.23 1.16
3 -28 0 5.67 1.26
-3 28 -1 16.41 1.68
3 -28 1 18.85 1.91
3 -29 -4 9.04 1.32
3 -29 -3 0.17 1.02
3 -29 -2 0.27 0.96
3 -29 -1 3.82 1.17
3 -29 0 11.73 1.63
3 -30 -4 0.81 0.96
3 -30 -3 15.52 1.67
3 -30 -2 1.28 0.99
-4 0 10 0.47 0.66
4 0 -10 0.44 0.85
-4 0 9 -0.32 0.55
4 0 -9 0.81 0.82
4 0 -8 89.92 3.36
-4 0 8 85.23 2.34
4 0 -7 0.47 0.75
4 0 -6 11.5 1.15
-4 0 6 9.61 0.59
4 0 -5 -0.22 0.54
-4 0 5 -0.34 0.24
4 0 -4 91.91 2.97
4 0 -4 91.05 3.23
4 0 -3 0.4 0.57
4 0 -3 1.11 0.76
-4 0 2 16.13 1.42
4 0 -2 14.29 1.18
4 0 -2 17.81 1.06
4 0 -2 16.38 1.08
-4 0 1 -0.14 0.77
4 0 -1 -0.14 0.47
4 0 -1 -0.37 0.57
4 0 0 92.16 3.01
-4 0 0 89.58 3.35
4 0 0 100.65 2.63
-4 0 -1 1.26 0.83
4 0 1 0.28 0.45
4 0 1 0.76 0.62
4 0 2 100.45 3.06
-4 0 -2 95.05 3.52
4 0 2 102.58 2.32
-4 0 -3 1.71 0.73
4 0 3 0.22 0.52
4 0 4 34.55 1.05
4 0 4 40.06 1.64
4 0 5 0.92 0.55
4 0 5 -0.19 0.44
4 0 5 0.7 0.79
4 0 6 64.26 1.93
4 0 6 74.45 2.95
4 0 6 70.9 2.22
4 0 7 0.07 0.76
4 0 7 -0.26 0.53
4 0 8 0.34 0.77
4 0 8 -0.33 0.61
4 0 9 -0.07 0.77
-4 1 10 3.53 0.7
-4 -1 10 4.09 0.73
4 1 -10 5.98 1.16
4 -1 -10 2.88 1.01
4 -1 -9 9.41 1.27
4 1 -9 10.73 1.31
-4 1 9 8.33 0.8
-4 -1 9 8.3 0.8
-4 1 8 1.33 0.62
-4 -1 8 1.14 0.65
4 -1 -8 1.63 0.93
4 1 -8 0.3 0.81
-4 1 7 31.35 1.16
4 -1 -7 35.86 1.96
4 1 -7 33.3 1.9
-4 1 6 22.06 0.85
-4 -1 6 21.33 0.8
4 -1 -6 25.53 1.59
4 1 -6 22.04 1.48
-4 -1 5 9.75 0.32
-4 1 5 10.36 0.45
4 -1 -5 10.12 1.06
4 1 -5 9.6 1.04
4 1 -5 9.93 1.14
4 -1 -4 5.52 0.82
4 1 -4 5.88 0.89
4 1 -4 5.99 0.98
4 -1 -3 112.91 3.34
4 1 -3 118.61 3.4
4 -1 -3 116.8 3.7
4 1 -3 116.4 3.69
-4 1 2 27.08 1.78
-4 -1 2 23.4 1.69
4 -1 -2 24.46 1.5
4 1 -2 25.83 1.53
4 1 -2 27.99 1.28
4 -1 -2 25.82 1.32
4 1 -2 25.24 1.31
-4 1 1 2.27 0.86
-4 -1 1 2.75 0.88
4 -1 -1 2.27 0.56
4 1 -1 2.84 0.59
4 -1 -1 3.17 0.72
4 1 -1 2.95 0.69
-4 1 0 17.59 1.45
-4 -1 0 18.62 1.48
4 -1 0 20.47 1.03
4 1 0 19.69 1.02
4 1 0 19.74 1.29
4 -1 0 19.37 1.26
-4 1 -1 137.96 4.43
-4 -1 -1 134.42 4.41
4 1 1 144.38 3.41
4 1 1 135.84 3.95
4 -1 1 137.41 3.91
-4 1 -2 25.99 1.74
-4 -1 -2 25.56 1.71
4 -1 2 23.95 0.71
4 1 2 28.02 1.45
4 -1 2 29.18 1.45
4 1 2 29.23 1
-4 1 -3 14.2 1.33
-4 -1 -3 14.13 1.36
4 1 3 14.55 1.07
4 -1 3 16.59 1.09
4 -1 4 34.56 1.07
4 1 4 37.53 1.05
4 1 4 40.01 1.69
4 -1 4 38.97 1.62
4 -1 5 58.08 1.66
4 1 5 57.52 1.64
4 1 5 60.02 2.13
4 -1 5 66.54 2.13
4 -1 5 67.29 2.83
4 1 6 4.94 1.04
4 -1 6 3.77 0.98
4 1 6 2.58 0.57
4 -1 6 3.02 0.59
4 1 6 3.82 0.69
4 1 7 11.44 0.85
4 -1 7 11.2 0.83
4 -1 7 12.99 1.3
4 1 7 13.06 1.34
4 -1 8 3.39 0.69
4 1 8 4.61 0.99
4 -1 8 5.31 1.04
4 -1 9 11.94 1.29
4 1 9 14.43 1.36
-4 2 10 0.35 0.64
-4 -2 10 0.03 0.6
4 2 -10 0.71 0.9
4 -2 -10 0.35 0.86
4 -2 -9 8.81 1.21
4 2 -9 8.5 1.22
-4 -2 9 8.17 0.76
-4 2 9 9.56 0.84
4 2 -8 3.9 0.98
4 -2 -8 6.15 1.05
-4 -2 8 5.57 0.61
4 -2 -7 4.49 0.94
4 2 -7 5.54 0.94
4 2 -6 2.25 0.88
-4 -2 6 1.27 0.47
4 -2 -6 3.35 0.87
4 2 -6 2.61 0.89
4 2 -5 41.06 2.1
-4 2 5 38.37 1.07
-4 2 5 39.37 1.05
4 -2 -5 37.7 1.88
4 2 -5 40.88 1.96
4 -2 -4 40.12 1.85
4 2 -4 41.39 1.89
4 2 -4 39.75 2.01
4 -2 -3 5.09 0.78
4 2 -3 5.34 0.8
4 2 -3 4.91 0.89
-4 2 2 29.74 1.84
4 2 -2 29.66 1.33
4 2 -2 25.88 1.34
4 -2 -2 26.48 1.38
4 2 -2 25.02 1.53
4 -2 -2 24.27 1.53
4 2 -1 135.1 4
4 -2 -1 135.1 3.97
4 2 -1 139.91 3.59
4 -2 -1 139.67 3.59
-4 2 1 136 4.3
4 2 0 14.22 1.13
4 -2 0 13.75 1.09
-4 2 0 13.89 1.31
4 2 0 15.29 0.91
4 -2 0 16.23 0.94
-4 2 -1 0.07 0.76
4 -2 1 0.04 0.43
4 2 1 -0.05 0.52
4 2 1 0.4 0.4
4 -2 1 1.04 0.59
4 2 2 47.7 1.95
4 -2 2 47.14 1.88
4 2 2 46.54 1.42
-4 2 -2 42.57 2.21
4 2 3 84.36 2.62
4 -2 3 87.9 2.6
-4 2 -3 77.58 3.05
4 2 4 7.4 0.82
4 -2 4 7.46 0.79
4 -2 4 8.2 1.2
4 2 4 6.44 0.48
4 -2 4 6.21 0.51
4 2 5 17.68 1.12
4 -2 5 17.51 1.51
4 -2 5 15.32 0.79
4 2 5 14.45 0.78
4 -2 6 27.91 1.14
4 2 6 27.36 1.14
4 2 6 30.92 1.94
4 -2 6 29.29 1.86
4 2 6 30.17 1.44
4 2 7 15.53 0.92
4 -2 7 16.25 0.97
4 2 7 17.02 1.43
4 -2 7 18.44 1.47
4 2 8 2.09 0.84
4 -2 8 1.06 0.84
4 -2 8 0.5 0.57
4 -2 9 19.33 1.54
4 2 9 18.22 1.47
-4 3 11 0.12 0.68
-4 -3 10 18.05 1.11
4 3 -10 21.34 1.78
4 -3 -10 19.91 1.75
4 3 -9 -0.25 0.76
4 -3 -9 -0.41 0.8
-4 -3 9 0.08 0.53
4 3 -8 1.57 0.81
4 -3 -8 0.82 0.73
-4 -3 8 0.2 0.51
4 -3 -7 2.47 0.82
4 3 -7 3.73 0.94
-4 -3 6 98.72 2.16
4 -3 -6 94.86 3.34
4 3 -6 93.24 3.33
4 3 -5 1.84 0.79
4 3 -5 1.53 0.79
-4 3 5 1.58 0.45
4 -3 -5 2.27 0.75
4 -3 -4 15.48 1.21
4 3 -4 16.65 1.24
4 3 -4 17.74 1.38
-4 3 4 16.84 0.48
-4 3 4 16.08 0.47
4 3 -3 3.4 0.61
4 -3 -3 2.82 0.67
4 3 -3 2.81 0.67
4 3 -3 2.48 0.74
-4 3 2 94.24 3.41
4 3 -2 92.94 3.18
4 3 -2 97.89 2.69
4 3 -2 90.38 2.8
4 -3 -2 93.21 2.85
-4 3 1 2.89 0.94
4 -3 -1 1.75 0.65
4 3 -1 1.71 0.72
4 3 -1 2.21 0.61
-4 3 0 60.24 2.62
4 3 0 57.58 2.32
4 3 0 55.64 1.89
-4 3 -1 2.83 0.86
4 3 1 1.84 0.62
4 3 1 3.16 0.5
4 -3 1 2.84 0.47
4 3 2 51.21 2.05
-4 3 -2 51.41 2.4
4 3 2 49.77 1.52
4 3 3 3 0.69
4 3 3 2.48 0.4
-4 3 -3 3.6 0.9
4 -3 4 40.35 1.11
4 3 4 41.3 0.99
4 -3 4 47.97 2.33
4 3 4 40.77 1.67
4 -3 5 5.72 0.57
4 3 5 5.69 0.76
4 3 5 4.1 0.55
4 -3 6 4.53 0.96
4 3 6 4.88 1.04
4 3 6 5.06 0.79
4 -3 6 2.99 0.57
4 3 6 4.02 0.59
4 -3 7 -0.62 0.51
4 3 7 -0.06 0.54
4 -3 7 -0.14 0.74
4 3 7 0.69 0.83
4 -3 8 30.93 1.38
4 3 8 31.99 1.86
4 -3 8 31.67 1.91
4 -3 9 0.14 0.8
4 3 9 0.43 0.81
-4 -4 10 -0.03 0.65
4 4 -10 1.24 0.96
4 -4 -10 0.81 0.99
4 -4 -9 10.53 1.37
4 4 -9 12.25 1.35
-4 -4 9 11.07 0.86
-4 -4 8 4.29 0.56
4 -4 -8 3.12 0.87
4 -4 -7 12.06 1.26
4 4 -7 14.95 1.39
4 4 -6 1.29 0.81
4 -4 -6 1.97 0.82
-4 -4 6 0.94 0.51
4 4 -5 88.29 3.24
-4 4 5 85.64 2.07
4 4 -5 88.68 3.1
4 -4 -5 87.97 3.06
-4 4 4 15.49 0.55
4 4 -4 14.27 1.18
4 -4 -4 14.74 1.19
4 4 -4 14.47 1.29
-4 4 3 13.83 1.28
4 4 -3 10.85 1.13
4 4 -3 12.38 0.88
4 4 -3 9.95 0.97
4 -4 -3 10.33 0.98
4 4 -2 1.89 0.76
4 4 -2 1.34 0.59
-4 4 2 1.55 0.86
4 4 -2 1.51 0.66
4 -4 -2 1.11 0.66
-4 4 1 176.27 5.09
4 4 -1 167.42 4.37
4 4 -1 178.63 4.9
-4 4 0 17.08 1.45
4 4 0 16.09 1.23
4 -4 0 20.58 1.07
4 4 0 15 0.96
4 4 1 0.87 0.62
4 4 1 0.94 0.44
-4 4 -1 0.07 0.81
-4 4 -2 9.87 1.17
4 4 2 10.96 0.69
4 4 2 11.36 0.99
-4 4 -3 125.82 4.03
4 4 3 129.12 3.53
4 4 4 7.86 0.58
4 -4 4 7.75 0.58
4 -4 4 10.56 1.26
4 4 4 5.67 0.44
4 4 4 9.28 0.87
4 -4 5 28.68 1.11
4 4 5 28.05 1.06
4 -4 5 31.89 1.93
4 4 5 29.97 1.45
4 4 6 16.46 0.88
4 -4 6 18.12 0.94
4 4 6 19.38 1.17
4 -4 6 19.04 1.51
4 4 7 25.29 1.18
4 -4 7 26.29 1.2
4 4 7 29.03 1.8
4 -4 7 27.85 1.79
4 -4 8 0.45 0.6
4 -4 8 1.61 0.9
4 4 8 0.13 0.79
4 -4 9 4.38 1.04
4 -4 10 0.28 0.84
4 -5 -10 8.84 1.35
4 5 -10 9.59 1.34
-4 -5 10 7.67 0.83
4 5 -9 8.12 1.2
4 -5 -9 6.26 1.15
-4 -5 9 5.61 0.69
-4 5 8 1.11 0.56
-4 -5 8 0.55 0.5
4 5 -8 0.23 0.8
4 -5 -8 0.78 0.82
-4 5 7 27.93 1.31
4 5 -7 26.32 1.79
4 -5 -7 24.28 1.69
4 5 -7 24.25 1.7
-4 5 6 13.89 0.99
-4 -5 6 14.73 0.59
4 -5 -6 12.83 1.26
4 5 -6 13.17 1.28
4 5 -5 5.36 0.94
4 5 -5 7.72 1.08
-4 5 5 6.45 0.59
4 -5 -5 8.75 1.04
-4 5 5 9.4 0.86
-4 5 4 8.11 0.87
4 5 -4 7.36 1.07
-4 5 4 8.04 0.5
4 -5 -4 7.81 0.98
4 5 -4 7.33 0.98
4 5 -3 85.17 2.28
-4 5 3 78.72 2.95
-4 -5 3 75.34 2.94
4 5 -3 83.99 2.99
-4 5 3 69.86 1.57
4 -5 -3 80.76 2.71
4 5 -3 78.02 2.65
4 5 -2 66.51 2.12
-4 5 2 63.79 2.7
-4 -5 2 61.86 2.68
4 5 -2 61.96 2.57
4 -5 -2 67.1 2.36
4 5 -2 63.47 2.3
-4 5 1 2.21 0.86
-4 -5 1 2.09 0.89
4 5 -1 1.55 0.74
4 5 -1 2.13 0.59
4 -5 -1 1.35 0.63
4 5 0 78.33 2.85
-4 5 0 83.91 3.15
-4 -5 0 81.9 3.12
4 5 0 76.24 2.43
-4 5 -1 112.74 3.75
-4 -5 -1 110.1 3.71
4 5 1 102.53 3.31
4 5 2 39.51 1.8
-4 5 -2 39.27 2.11
-4 -5 -2 43.26 2.18
4 -5 2 46.41 2.32
-4 5 -3 4.75 0.93
-4 -5 -3 3.82 0.87
4 -5 4 42.65 1.34
4 5 4 43.51 1.19
4 -5 4 50.04 2.4
4 5 5 45.78 1.38
4 -5 5 44.56 1.46
4 -5 5 50.9 2.41
4 -5 6 0.66 0.79
4 -5 6 1.34 0.49
4 5 6 0.59 0.51
4 5 7 7.96 1.15
4 -5 7 7.28 1.13
4 -5 7 7.18 0.76
4 5 8 11.82 1.29
4 -5 8 11.39 1.32
4 -5 8 9.77 0.89
4 -5 9 8.34 1.23
4 -5 10 0.14 0.83
4 -6 -10 0.28 0.85
4 6 -10 0.9 0.85
-4 6 9 0.17 0.49
-4 -6 9 -0.51 0.6
4 6 -9 -0.17 0.85
4 -6 -9 0.86 0.91
-4 6 8 32.92 1.46
-4 -6 8 33.5 1.21
4 -6 -8 31.55 2.02
4 6 -8 34.89 2.11
4 6 -8 32.94 2.03
-4 6 7 3.08 0.69
4 -6 -7 3.02 0.94
4 6 -7 1.25 0.87
4 6 -7 2.38 0.9
-4 6 6 0.39 0.53
-4 -6 6 -0.21 0.32
4 -6 -6 -0.14 0.74
4 6 -6 0.34 0.64
-4 6 5 4.43 0.73
4 6 -5 3.84 0.88
4 6 -5 3.67 0.86
-4 6 5 3.18 0.5
4 -6 -5 2.67 0.82
4 6 -4 144.09 3.28
-4 6 4 140.57 3.77
-4 6 4 126.17 2.89
4 6 -4 126.89 4.16
4 -6 -4 139.61 4.07
4 6 -4 129.43 3.93
4 6 -3 5.36 0.93
4 6 -3 5.47 0.87
-4 6 3 5.34 0.42
-4 6 3 5.59 0.96
-4 -6 3 6.36 1.01
4 -6 -3 6.54 0.95
4 6 -3 5.94 0.73
-4 6 3 7.36 0.87
4 6 -2 65.67 2.07
-4 6 2 62.01 2.6
-4 -6 2 64.55 2.64
4 6 -2 62.78 2.54
-4 6 2 53.97 1.3
4 -6 -2 69.31 2.37
4 6 -2 61.23 2.23
-4 6 1 9.99 1.16
-4 -6 1 10.92 1.18
4 -6 -1 11.02 0.96
4 6 -1 12.51 1.14
4 6 -1 10.08 0.89
-4 6 0 67.64 2.73
-4 -6 0 65.6 2.7
4 6 0 63.43 2.49
-4 6 -1 2.64 0.89
-4 -6 -1 4.17 0.95
-4 6 -2 38.86 2.07
-4 -6 -2 35.21 1.97
4 -6 3 2.11 0.9
-4 6 -3 3.11 0.85
-4 -6 -3 2.06 0.81
4 6 4 23.19 0.8
4 -6 4 25.66 1.76
4 -6 4 23.1 0.96
4 -6 5 0.98 0.51
4 6 5 0.6 0.45
4 -6 5 2.07 0.91
4 -6 6 31.93 1.29
4 6 6 30.84 1.22
4 -6 6 34.26 1.98
4 -6 7 2.33 0.58
4 6 7 2.59 0.93
4 -6 7 2.94 0.92
4 -6 8 0.43 0.55
4 6 8 -0.25 0.77
4 -6 8 0.38 0.8
4 -6 9 5.02 1.06
4 -6 10 12.19 1.4
4 -7 -10 0.67 0.87
4 7 -10 0.27 0.87
-4 7 9 6.28 0.77
-4 -7 9 6.56 0.72
4 -7 -9 6.04 1.16
4 7 -9 7.41 1.21
-4 7 8 1.86 0.64
-4 -7 8 1.33 0.55
4 -7 -8 0.82 0.84
4 7 -8 0.64 0.93
4 7 -8 1.34 0.89
-4 7 7 31.65 1.5
4 -7 -7 25.99 1.82
4 7 -7 29.88 1.9
4 7 -7 32 1.94
-4 7 6 4.32 0.73
-4 -7 6 3.98 0.41
4 -7 -6 4.26 0.89
4 7 -6 3.11 0.84
-4 7 5 23.4 1.34
-4 7 5 22.28 0.94
4 -7 -5 23.6 1.58
4 7 -5 20.81 1.49
4 7 -5 23.92 1.69
-4 7 4 1.95 0.68
4 7 -4 1.59 0.59
4 7 -4 0.61 0.82
4 7 -4 0.58 0.74
-4 7 4 0.66 0.47
4 -7 -4 2.77 0.81
4 7 -3 86 2.41
-4 7 3 87.66 2.85
-4 7 3 84.39 3.07
-4 -7 3 86.6 3.15
4 7 -3 80.96 3.07
-4 7 3 83.2 1.95
4 -7 -3 86.82 2.97
4 7 -3 75.75 2.8
-4 7 2 17.33 1.21
4 7 -2 14.55 1.02
-4 7 2 15.79 1.37
-4 -7 2 16.61 1.4
4 7 -2 14.08 1.26
4 -7 -2 16.23 1.23
4 7 -2 15.56 1.14
-4 7 2 13.28 0.59
-4 7 1 4.6 0.95
-4 -7 1 5.92 0.99
4 -7 -1 5.09 0.78
4 7 -1 5.15 0.87
-4 7 0 0.76 0.76
-4 -7 0 0.45 0.7
-4 7 -1 152.14 4.6
-4 -7 -1 147.69 4.55
4 -7 2 2.57 0.92
-4 7 -2 1.67 0.8
-4 -7 -2 1.28 0.81
-4 7 -3 47.77 2.28
-4 -7 -3 44.13 2.21
4 -7 3 50.08 2.42
4 7 4 2.54 0.39
4 -7 4 2.23 0.48
4 -7 4 3.01 0.9
4 7 5 54.73 1.58
4 -7 5 54.07 1.71
4 -7 5 58.37 2.63
4 -7 6 0.54 0.52
4 -7 6 1.06 0.75
4 -7 7 15.7 0.99
4 -7 7 15.39 1.49
4 -7 8 1.84 0.96
4 7 8 1.87 0.86
4 -7 8 1.65 0.64
4 -7 9 10.92 1.36
4 -7 10 -0.08 0.85
4 -8 -10 0.79 0.98
4 8 -10 0.28 0.91
4 -8 -10 -0.59 0.77
-4 8 9 4.82 0.74
4 8 -9 5.79 1.17
-4 -8 9 4.69 0.67
4 -8 -9 4.5 1.12
-4 8 8 21.54 1.25
-4 -8 8 20.15 0.95
4 -8 -8 21.6 1.74
4 8 -8 24.77 1.84
4 8 -8 23.56 1.74
-4 8 7 7.8 0.88
4 8 -7 9.68 1.23
4 -8 -7 7.59 1.15
4 8 -7 7.94 1.13
-4 8 6 6.62 0.87
-4 -8 6 4.59 0.49
4 -8 -6 6.38 1.05
4 8 -6 4.86 1
-4 8 5 20.5 1.29
4 -8 -5 20.59 1.53
-4 8 5 19.71 0.93
4 8 -5 20.15 1.49
4 8 -4 42.5 1.45
-4 8 4 45.89 1.91
4 8 -4 41.48 2.15
-4 8 4 37.95 1.27
4 -8 -4 42.54 2.1
4 8 -4 39.67 1.98
4 8 -3 10.77 0.86
-4 8 3 12 1.06
-4 8 3 13.19 1.23
-4 -8 3 11.15 1.17
4 8 -3 11.77 1.21
-4 8 3 10.39 0.63
4 -8 -3 12.92 1.19
4 8 -3 9.84 1.04
-4 8 2 31.01 1.79
-4 -8 2 30.25 1.81
4 8 -2 34.31 1.87
4 -8 -2 36.32 1.8
-4 8 2 29.81 1
-4 8 2 34.69 1.71
4 8 -2 32.36 1.43
-4 8 1 63.14 1.62
-4 8 1 69.64 2.56
-4 8 1 70.58 2.7
-4 -8 1 70.8 2.73
-4 8 0 70.54 2.77
-4 -8 0 70.76 2.79
-4 8 -1 8.5 1.09
4 -8 1 10.54 1.2
-4 -8 -1 8.21 1.09
-4 8 -2 111.7 3.73
-4 -8 -2 111.45 3.75
4 -8 2 114.85 3.91
4 8 3 34.55 0.83
4 -8 3 39.72 2.14
-4 8 -3 34.45 1.9
-4 -8 -3 35.06 1.93
4 -8 4 8.45 0.7
4 8 4 8.41 0.54
4 -8 4 9.27 1.2
4 8 5 1.12 0.44
4 -8 5 0.6 0.5
4 -8 6 28.98 1.26
4 -8 6 28.56 1.91
4 -8 7 16.96 1.04
4 -8 7 15.27 1.48
4 8 8 0.49 0.79
4 -8 8 0.62 0.87
4 -8 8 0.77 0.6
4 -8 9 1.64 0.93
4 -8 10 5.21 1.22
4 -9 -10 12.84 1.61
4 9 -10 17.35 1.74
4 -9 -9 1.78 0.78
-4 9 9 2.93 0.69
-4 -9 9 2.35 0.58
4 -9 -9 2.44 1.06
4 9 -9 0.89 0.93
4 9 -9 3.45 0.99
4 -9 -8 0.73 0.71
-4 9 8 1.12 0.64
-4 -9 8 0.54 0.49
4 -9 -8 1.05 0.88
4 9 -8 0.33 0.83
4 9 -8 0.63 0.78
-4 9 7 6.86 0.87
4 -9 -7 6.39 1.14
4 9 -7 4.85 1.04
4 9 -7 4.56 0.97
-4 9 6 65.15 2.32
4 -9 -6 62.05 2.79
-4 -9 6 57.9 1.54
-4 9 6 60.93 1.82
4 9 -6 60.45 2.68
-4 9 5 5.04 0.81
4 9 -5 4.23 0.95
-4 9 5 4.46 0.61
4 -9 -5 2.68 0.95
-4 9 4 19.82 1.29
4 9 -4 15.36 1.41
-4 9 4 14.17 0.8
4 -9 -4 17.98 1.44
4 9 -4 18.45 1.38
-4 9 3 20.23 1.43
-4 -9 3 19.1 1.45
4 9 -3 19.03 1.46
-4 9 3 16.93 0.81
4 -9 -3 18.08 1.38
-4 9 3 20.82 1.36
4 9 -3 18.69 1.04
-4 9 2 96.95 3.23
4 9 -2 103.16 2.84
-4 9 2 97 3.3
-4 -9 2 99.66 3.38
-4 9 2 94.98 2.32
4 9 -2 97.68 3.4
4 -9 -2 105.58 3.33
4 -9 -2 102.03 3.57
4 -9 -1 2.48 0.92
-4 9 1 0.33 0.42
-4 9 1 1.74 0.81
-4 -9 1 1.1 0.8
-4 9 1 1.55 0.69
-4 9 0 31.95 1.75
-4 9 0 36.88 1.94
-4 -9 0 35.13 1.91
4 -9 1 4.86 1.01
-4 9 -1 3.84 0.87
-4 -9 -1 4.61 0.93
-4 9 -2 61.47 2.6
-4 -9 -2 62.9 2.63
4 -9 2 64.17 2.82
-4 9 -3 3.33 0.83
-4 -9 -3 2.55 0.85
4 -9 3 2.63 0.88
4 -9 4 48.55 2.39
4 -9 4 46.08 1.55
4 -9 5 7.96 0.74
4 -9 5 7.97 1.16
4 -9 6 1.92 0.62
4 -9 6 2.13 0.91
4 -9 7 8.76 1.27
4 -9 7 8.39 0.87
4 -9 8 15.04 1.53
4 -9 8 14.32 1.06
4 9 8 13.81 1.31
4 -9 9 0.24 0.96
4 -9 10 1.06 0.96
4 -10 -10 0.62 1.05
-4 10 9 8.62 0.95
4 -10 -9 9.4 1.42
4 -10 -9 8.11 1.01
4 10 -9 7.82 1.34
4 10 -9 8.69 1.23
4 -10 -8 0.72 0.71
4 10 -8 0.5 0.81
4 10 -8 0.47 0.75
-4 10 8 -0.42 0.63
-4 -10 8 0.22 0.45
4 -10 -8 -0.18 0.84
4 -10 -7 13.98 1.25
4 10 -7 17.49 1.5
-4 10 7 15.01 1.16
-4 -10 7 13.76 0.76
4 -10 -7 11.75 1.43
4 10 -7 13.76 1.43
4 10 -6 0.08 0.79
4 10 -6 1.03 0.86
4 -10 -6 1.18 0.84
4 -10 -6 2.14 0.95
-4 10 6 1.4 0.71
4 -10 -5 57.98 2.47
-4 10 5 54.1 2.19
-4 10 5 53.46 1.69
4 -10 -5 55.04 2.59
4 10 -5 57.13 2.52
4 -10 -4 4.37 0.94
-4 10 4 4.62 0.79
4 10 -4 3.09 0.9
4 10 -4 1.85 0.76
-4 10 4 2.18 0.52
4 -10 -4 2.13 0.84
-4 10 3 9.86 1.02
4 10 -3 7.89 0.77
-4 -10 3 9.36 1.11
-4 10 3 11.83 1.16
-4 10 3 8.36 0.67
4 10 -3 8.86 1.08
4 -10 -3 8.57 1.09
4 -10 -3 10.14 1.21
-4 10 2 1.68 0.72
4 10 -2 0.46 0.61
-4 10 2 0.87 0.73
-4 -10 2 0.18 0.69
-4 10 2 0.84 0.47
4 -10 -2 1.91 0.86
-4 10 1 141.35 3.26
-4 10 1 153.33 4.34
4 -10 -1 159.4 4.68
-4 10 1 145.12 4.29
-4 -10 1 147.99 4.35
-4 10 0 17.13 0.84
-4 10 0 19.39 1.39
-4 -10 0 18.7 1.4
-4 10 0 18.99 1.4
-4 10 -1 5.26 0.92
-4 -10 -1 4.5 0.9
4 -10 2 1.28 0.81
-4 10 -2 0.25 0.69
-4 -10 -2 -0.32 0.68
4 -10 3 98.44 3.56
-4 10 -3 93.63 3.29
-4 -10 -3 92.49 3.31
4 -10 4 0.38 0.53
4 -10 4 1.69 0.88
4 -10 5 9.87 0.82
4 -10 5 9.82 1.28
4 -10 6 0.16 0.57
4 -10 6 2.16 0.98
4 -10 7 23.77 1.82
4 -10 7 24.52 1.28
4 -10 8 3.67 1.06
4 -10 8 1.12 0.7
4 -10 9 12.83 1.49
4 -10 10 0.67 0.91
-4 11 9 1.4 0.66
4 -11 -9 2.4 1.1
4 -11 -9 2.54 0.79
4 11 -9 3.61 1.08
4 11 -9 2.03 0.88
4 -11 -8 0.32 0.72
-4 11 8 0.92 0.68
-4 -11 8 0.37 0.51
4 -11 -8 0.47 0.93
4 11 -8 -0.08 0.83
4 11 -8 -0.32 0.77
4 -11 -7 6.73 1.01
-4 11 7 4.94 0.85
-4 -11 7 4.63 0.58
4 -11 -7 5.65 1.19
4 11 -7 4.77 1.08
4 11 -7 5.44 1.06
4 -11 -6 36.13 1.88
-4 11 6 31.75 1.64
4 -11 -6 30.06 2.06
4 11 -6 33.17 1.98
4 11 -6 33.23 1.98
4 -11 -5 3.48 0.9
4 11 -5 3.65 0.96
-4 11 5 4.42 0.83
-4 11 5 4.08 0.67
4 -11 -5 4.93 1.06
-4 11 4 8.54 0.99
4 11 -4 7.81 1.12
-4 11 4 8.04 0.75
4 -11 -4 10.22 1.21
4 -11 -4 8.34 1.16
-4 11 3 21.37 1.46
-4 -11 3 20.87 1.5
4 11 -3 21.29 1.53
-4 11 3 16.68 0.9
-4 11 3 22.36 1.42
4 -11 -3 21.79 1.55
-4 11 2 43.56 1.4
-4 11 2 42.39 2.02
4 11 -2 43.27 1.69
4 -11 -2 46.75 2.26
-4 11 2 41.4 1.99
-4 -11 2 42.68 2.07
-4 11 1 3.39 0.83
-4 11 1 2.19 0.8
-4 -11 1 3.16 0.83
-4 11 1 2.55 0.53
4 -11 -1 4.16 0.97
-4 11 0 51.89 2.27
-4 -11 0 53.55 2.34
-4 11 0 54.17 2.35
-4 11 0 52.44 1.58
-4 11 -1 54.47 2.37
-4 -11 -1 59.47 2.49
4 -11 2 16.1 1.43
-4 11 -2 13.59 1.22
-4 -11 -2 14.16 1.29
4 -11 3 1.38 0.89
-4 -11 -3 1.15 0.71
4 -11 4 74.82 3.05
4 -11 4 67.94 2.09
4 -11 5 9.49 0.84
4 -11 5 10.6 1.29
4 -11 6 0.75 0.58
4 -11 6 -0.33 0.85
4 -11 7 0.52 0.64
4 -11 7 0.33 0.86
4 -11 8 23.49 1.35
4 -11 8 25.09 1.94
4 -11 9 3.46 1.13
4 12 -10 0.51 0.87
4 -12 -9 3.2 0.83
-4 12 9 2.04 0.74
4 -12 -9 3.79 1.2
4 12 -9 2.72 1.06
4 12 -9 2.46 0.94
4 -12 -8 20.24 1.44
-4 12 8 17.79 1.28
4 -12 -8 18.27 1.78
4 12 -8 20.9 1.76
4 12 -8 23.42 1.72
4 -12 -7 4.37 0.92
-4 12 7 4.45 0.81
-4 -12 7 3.76 0.59
4 12 -7 2.63 0.97
4 12 -7 3.74 1.05
4 -12 -7 4.01 1.13
4 12 -6 1.48 0.84
4 12 -6 1.21 0.85
-4 12 6 0.85 0.62
4 -12 -6 0.95 0.88
4 -12 -6 1.4 0.79
4 -12 -5 19.22 1.45
-4 12 5 19.14 1.33
-4 12 5 17.96 1.01
4 -12 -5 18.69 1.63
4 12 -5 20.74 1.58
-4 -12 4 77.45 2.83
-4 12 4 66.26 2.58
-4 12 4 71.96 2.08
-4 12 4 76.83 2.74
4 -12 -4 79.17 2.95
4 12 -4 75.49 3.02
-4 12 3 1.82 0.76
-4 12 3 2.43 0.79
-4 -12 3 1.03 0.75
-4 12 3 1.07 0.54
4 -12 -3 2.82 0.86
-4 12 2 24.01 1.05
-4 12 2 22.62 1.5
-4 12 2 21.52 1.43
-4 -12 2 22.95 1.52
4 -12 -2 25 1.7
-4 12 1 19.93 0.94
-4 12 1 21.24 1.45
-4 12 1 20.24 1.39
-4 -12 1 20.19 1.43
4 -12 -1 23.36 1.64
-4 12 0 24.25 1.07
-4 12 0 27.93 1.69
-4 12 0 24.35 1.54
-4 -12 0 24.33 1.57
4 -12 0 24.5 1.71
-4 12 -1 3.39 0.61
-4 12 -1 4.28 0.86
-4 -12 -1 3.69 0.87
-4 12 -2 10.66 1.09
-4 -12 -2 9.54 1.08
4 -12 2 8.86 1.22
4 -12 3 28.31 1.87
4 -12 4 13.2 1.41
4 -12 5 10.88 1.33
4 -12 5 9.12 0.85
4 -12 6 34.2 2.15
4 -12 6 40.59 1.64
4 -12 7 -0.04 0.65
4 -12 7 1.17 0.95
4 -12 8 0.17 0.67
4 -12 8 0.84 0.92
4 -12 9 5.99 1.27
4 13 -9 12.88 1.44
-4 13 9 10.88 1.1
4 -13 -9 10.77 1.12
4 13 -9 14.12 1.61
4 -13 -9 12.38 1.67
4 -13 -8 0.69 0.74
-4 13 8 1.1 0.74
4 -13 -8 1.61 1.08
4 13 -8 0.52 0.92
4 13 -8 1.14 0.86
4 -13 -7 24.31 1.53
-4 13 7 21.81 1.43
4 -13 -7 26.92 2.07
-4 -13 7 22.11 1.02
4 13 -7 25.06 1.83
4 13 -7 23.59 1.82
4 13 -6 0.08 0.79
4 13 -6 -0.08 0.77
-4 13 6 -0.38 0.63
4 -13 -6 0.92 0.72
-4 13 5 5.9 0.91
4 -13 -5 5.54 1
-4 13 4 2.85 0.8
-4 13 4 3.5 0.8
-4 -13 4 2.5 0.8
-4 13 4 1.48 0.61
4 -13 -4 2.04 0.91
-4 13 3 75.36 2.23
-4 13 3 94.03 3.11
4 -13 -3 88.8 3.23
-4 13 3 81.81 2.88
-4 -13 3 85.07 2.99
-4 13 2 0.06 0.63
-4 13 2 0.41 0.53
4 -13 -2 0.21 0.75
-4 13 2 0.59 0.65
-4 -13 2 0.69 0.67
-4 13 1 1.11 0.7
-4 13 1 0.83 0.53
4 -13 -1 1.82 0.76
-4 13 1 0.89 0.69
-4 -13 1 0.75 0.66
-4 13 0 6.03 0.94
-4 13 0 4.38 0.85
-4 -13 0 6.34 0.94
-4 13 0 4.28 0.65
4 -13 0 6.63 1.04
-4 13 -1 148.46 3.5
-4 13 -1 137.62 4.2
-4 -13 -1 145.6 4.31
4 -13 2 4.14 1.02
-4 -13 -2 1.78 0.78
-4 13 -2 2.74 0.81
4 -13 3 1.2 0.88
4 -13 4 0.49 0.88
4 -13 5 54.47 2.68
4 -13 5 50.52 1.85
4 -13 6 -0.3 0.65
4 -13 6 0.67 0.92
4 -13 7 12.28 1.49
4 -13 7 11.01 1.02
4 -13 8 1.11 0.73
4 -13 8 0.35 0.91
4 14 -9 2.72 0.96
-4 14 9 3.46 0.85
4 14 -8 18.45 1.64
-4 14 8 16.73 1.31
4 -14 -8 15.04 1.28
4 14 -8 14.95 1.62
4 -14 -7 2.01 0.83
-4 14 7 3.19 0.85
4 14 -7 3.33 1
4 14 -7 3 1.03
4 -14 -6 5.84 0.99
4 14 -6 6.36 1.1
4 14 -6 6.13 1.1
-4 14 6 3.47 0.85
-4 14 5 12.73 1.17
4 -14 -5 10.48 1.18
-4 14 4 36.4 1.46
-4 14 4 40.7 1.96
4 -14 -4 41.41 2.1
-4 14 4 37.49 1.84
-4 -14 4 45.39 2.05
-4 14 3 1.04 0.77
-4 14 3 0.74 0.64
-4 -14 3 1.15 0.72
-4 14 3 1.24 0.59
4 -14 -3 2.09 0.88
-4 14 2 13.48 0.92
-4 14 2 18.45 1.37
-4 14 2 14.06 1.17
-4 -14 2 15.7 1.27
4 -14 -2 14.42 1.37
-4 14 1 12.15 0.89
-4 14 1 15.51 1.31
4 -14 -1 13.53 1.33
-4 14 1 11.84 1.08
-4 -14 1 13.8 1.2
-4 14 0 42.59 1.54
4 -14 0 44.52 2.29
-4 14 0 38.72 1.91
-4 -14 0 40.59 1.99
-4 14 -1 3.63 0.7
-4 14 -1 2.62 0.81
-4 -14 -1 3.19 0.83
-4 14 -2 71.79 2.73
-4 -14 -2 71.67 2.77
-4 14 -2 80.41 3.05
4 -14 3 28.06 1.93
4 -14 4 2.59 0.97
4 -14 5 -0.25 0.83
4 -14 5 0.07 0.62
4 -14 6 49.96 2.66
4 -14 6 56.77 2.06
4 -14 7 2.92 0.8
4 -14 7 4.05 1.14
4 -14 8 0.22 0.71
4 -14 8 -0.98 1
-4 15 9 4.17 0.91
4 15 -9 5.9 1.15
-4 15 8 0.23 0.71
4 -15 -8 0.27 0.69
4 15 -8 0.08 0.8
4 15 -8 -0.27 0.89
-4 15 7 3.14 0.84
4 -15 -7 4.61 0.91
4 15 -7 3.71 1.01
4 15 -7 2.54 0.95
-4 15 6 42.57 2.03
4 -15 -6 39.37 2.05
4 15 -6 43.13 2.33
4 15 -6 45.67 2.38
4 15 -5 6.48 1.1
-4 15 5 7.61 1.02
4 -15 -5 8.01 1.09
-4 15 4 4.28 0.82
-4 -15 4 6.91 0.98
4 -15 -4 6.64 1.1
-4 15 4 5.19 0.93
-4 15 3 20.94 1.14
-4 -15 3 24.39 1.53
-4 15 3 22.38 1.41
4 -15 -3 26.86 1.77
-4 15 3 26.4 1.61
-4 15 2 34.05 1.85
-4 15 2 33.13 1.67
-4 -15 2 33.86 1.74
-4 15 2 30.69 1.35
-4 15 2 31.01 1.41
4 -15 -2 34.94 1.98
-4 15 1 0.88 0.77
-4 15 1 1.51 0.68
-4 -15 1 0.68 0.68
-4 15 1 1.11 0.63
4 -15 -1 1.29 0.85
4 -15 0 11.22 1.29
-4 15 0 10.05 1.07
-4 -15 0 10.32 1.08
-4 15 0 7.48 0.8
-4 15 -1 16.29 1.04
-4 15 -1 15.64 1.26
-4 -15 -1 17 1.33
-4 15 -2 10.78 1.2
-4 15 -2 9.01 1.06
-4 -15 -2 8.65 1.04
4 -15 3 4.43 1.13
4 -15 4 19.19 1.69
4 -15 5 4.47 1.13
4 -15 5 3.14 0.75
4 -15 6 12.77 1.49
4 -15 6 12.24 1.1
4 -15 7 5.42 1.24
4 -15 7 4.01 0.8
-4 16 9 5.55 1.01
4 16 -8 0.59 0.84
4 16 -8 0.18 0.9
-4 16 8 0.06 0.7
4 -16 -8 0.43 0.7
4 16 -7 7.03 1.18
4 16 -7 7.12 1.23
-4 16 7 7.19 1.03
4 -16 -7 7.99 1.08
4 16 -6 2.85 1.01
4 -16 -6 2.81 0.95
-4 16 6 2.88 0.85
-4 16 5 19.94 1.33
-4 -16 5 17.67 1.35
4 16 -5 20.48 1.59
-4 16 5 19.31 1.41
4 -16 -5 17.87 1.48
-4 16 4 0.79 0.66
-4 -16 4 0.76 0.66
-4 16 4 -0.13 0.65
4 -16 -4 0.56 0.81
-4 16 3 6.42 0.89
-4 -16 3 6.9 0.96
-4 16 3 6.96 1.03
4 -16 -3 6.99 1.12
-4 16 2 2.71 0.73
-4 -16 2 3.11 0.79
4 -16 -2 3.11 1
-4 16 2 3.08 0.84
-4 16 1 76.68 2.35
-4 16 1 81.34 3.06
4 -16 -1 80.88 3.21
-4 16 1 77.33 2.74
-4 -16 1 77.35 2.78
4 -16 0 1.83 0.91
-4 16 0 0.83 0.67
-4 -16 0 2.02 0.71
4 -16 1 0.49 0.87
-4 16 -1 -0.06 0.68
-4 -16 -1 0.12 0.65
-4 16 -2 8.78 1.16
-4 -16 -2 9.41 1.08
4 -16 3 66.57 3.02
4 -16 4 7.4 1.26
4 -16 5 9.23 1.34
4 -16 6 2.48 1.09
4 -16 6 0.04 0.73
4 -16 7 9.89 1.49
4 -16 7 8.77 1.04
-4 17 9 1.56 0.8
4 -17 -8 1 0.79
-4 17 8 1.23 0.79
4 17 -8 1.36 0.97
4 -17 -7 1.81 0.82
4 17 -7 0.92 0.83
4 17 -7 2.08 0.95
-4 17 7 1.44 0.79
4 17 -6 24.23 1.83
-4 17 6 23.94 1.61
4 -17 -6 22.79 1.6
-4 17 5 0.42 0.59
-4 -17 5 0.46 0.68
-4 17 5 0.51 0.71
4 -17 -5 1.48 0.83
-4 17 4 10.55 1.17
4 -17 -4 10.56 1.25
-4 17 4 8.51 0.98
-4 -17 4 9.08 1.05
-4 17 3 2.42 0.7
-4 -17 3 2.19 0.75
4 -17 -3 3.19 0.95
-4 17 3 3.26 0.86
-4 17 2 49.73 2.35
4 -17 -2 53.34 2.54
-4 17 2 48.35 2.06
-4 -17 2 52.03 2.18
-4 17 1 3.02 0.8
-4 -17 1 2.69 0.79
4 -17 -1 3.1 1
-4 17 1 3.71 0.91
4 -17 0 44.41 2.38
-4 17 0 42.59 1.98
-4 -17 0 45.18 2.06
-4 -17 -1 6.25 1
4 -17 1 8.21 1.24
-4 17 -1 6.44 1.06
-4 17 -1 5.84 0.93
-4 17 -2 15.3 1.41
4 -17 3 1.73 0.97
-4 17 -3 2.36 0.89
4 -17 4 57.24 2.83
4 -17 5 0.54 0.95
4 -17 6 0.37 0.96
4 -17 6 -0.41 0.75
4 -17 7 -0.85 0.83
-4 18 9 2.99 0.91
-4 18 8 11.99 1.27
-4 18 7 10.49 1.2
4 -18 -7 10.94 1.2
4 18 -7 9.35 1.3
4 18 -7 9.66 1.36
4 18 -6 4.1 1.01
4 -18 -6 5.85 1.04
-4 18 6 4.09 0.92
-4 18 5 13.97 1.34
4 -18 -5 16.22 1.46
-4 -18 5 16.14 1.32
-4 18 5 14.88 1.19
-4 18 4 17.26 1.41
4 -18 -4 17.11 1.49
-4 18 4 16.33 1.22
-4 -18 4 19.06 1.33
-4 18 3 2.15 0.71
-4 -18 3 3.53 0.79
-4 18 3 3.84 0.96
4 -18 -3 4.54 1.07
-4 18 2 3.57 0.77
-4 -18 2 4.12 0.83
4 -18 -2 3.7 1.03
-4 18 2 5.05 1.02
-4 18 1 25.34 1.73
4 -18 -1 27.48 1.9
-4 18 1 24.39 1.5
-4 -18 1 24.85 1.52
4 -18 0 37.26 2.24
-4 18 0 32.94 1.76
-4 -18 0 37.81 1.85
4 -18 1 4.69 1.09
-4 18 -1 4.34 1
-4 18 -1 2.95 0.82
-4 -18 -1 3.81 0.86
-4 18 -2 13.07 1.4
4 -18 3 16.86 1.66
-4 18 -3 17.02 1.52
4 -18 4 10.68 1.42
4 -18 5 3.19 1.13
4 -18 6 8.47 1.4
4 -18 6 6.79 0.99
4 -18 7 2.11 0.83
-4 19 8 0.4 0.79
4 19 -7 7.63 1.23
-4 19 7 6.03 1.04
4 -19 -7 6.41 1.03
4 19 -6 0.08 0.77
-4 19 6 0.62 0.63
-4 -19 6 0.69 0.7
-4 19 6 0.27 0.75
4 -19 -6 0.38 0.73
-4 19 5 11.52 1.09
-4 -19 5 11.31 1.17
4 -19 -5 13.99 1.39
-4 19 5 10.46 1.25
-4 19 4 2 0.72
-4 -19 4 2.46 0.77
-4 19 4 2.51 0.9
4 -19 -4 1.61 0.9
-4 19 3 40.83 1.86
-4 -19 3 43.67 1.97
4 -19 -3 46.96 2.38
-4 19 3 40.22 2.15
-4 19 2 1.27 0.72
-4 -19 2 2.73 0.8
4 -19 -2 2.4 0.96
-4 19 2 0.94 0.81
-4 19 1 -0.63 0.7
-4 -19 1 1.53 0.74
4 -19 -1 0.99 0.94
-4 19 1 0.3 0.76
-4 19 0 6.61 0.97
-4 -19 0 8.31 1
4 -19 0 7.54 1.29
4 -19 1 56.8 2.8
-4 19 -1 65.14 2.86
-4 19 -1 56.47 2.32
-4 -19 -1 55.75 2.29
-4 19 -2 1.83 0.9
-4 19 -3 1.67 0.93
4 -19 4 4.19 1.15
4 -19 5 15.35 1.71
-4 20 7 0.97 0.87
4 -20 -7 1.06 0.8
4 20 -6 -0.25 0.74
-4 20 6 1.09 0.67
-4 -20 6 0.9 0.73
4 -20 -6 0.51 0.86
-4 20 6 -0.42 0.8
-4 20 5 0.45 0.63
-4 -20 5 0.83 0.72
4 -20 -5 0.28 0.83
-4 20 5 0.64 0.77
-4 20 4 29.38 1.84
4 -20 -4 32.77 2
-4 20 4 26.97 1.52
-4 -20 4 31.65 1.66
-4 20 3 2.46 0.74
-4 -20 3 4.09 0.84
4 -20 -3 4.03 1.05
-4 20 3 2.41 0.95
-4 20 2 23.61 1.71
4 -20 -2 27.86 1.98
-4 20 2 25.04 1.47
-4 -20 2 26.28 1.53
-4 20 1 1.31 0.68
-4 -20 1 2.52 0.74
4 -20 -1 1 0.98
4 -20 0 23.41 1.86
-4 20 0 23.38 1.47
-4 -20 0 24.63 1.48
4 -20 1 3.98 1.14
-4 20 -1 2.11 0.97
-4 20 -2 35.25 2.18
-4 20 -3 -0.09 0.81
4 -20 4 0.57 0.93
-4 -21 6 7.91 1.05
4 -21 -6 6.38 1.06
-4 21 6 7.52 1.17
-4 -21 5 4.38 0.88
4 -21 -5 4.19 1.04
-4 21 5 5.05 1.06
-4 21 4 2.23 0.75
-4 -21 4 1.44 0.68
4 -21 -4 2.16 0.95
-4 21 4 1.71 0.89
-4 21 3 16.02 1.49
4 -21 -3 17.04 1.62
-4 21 3 14.07 1.14
-4 -21 3 15.88 1.25
-4 21 2 8.71 1
-4 21 2 10.16 1.29
4 -21 -2 12.43 1.48
-4 -21 2 11.79 1.11
-4 21 1 -0.05 0.72
-4 -21 1 -0.63 0.73
4 -21 -1 1.03 0.97
-4 21 0 4.92 0.93
-4 -21 0 3.48 0.81
4 -21 0 4.07 1.13
-4 21 -1 21.95 1.82
4 -21 1 22.31 1.89
4 -21 2 5.86 1.26
-4 21 -2 7.43 1.29
-4 21 -3 0.62 0.89
-4 -22 7 4.42 0.86
-4 -22 6 3.52 0.87
4 -22 -6 2.15 0.92
-4 22 5 16.14 1.51
4 -22 -5 16.5 1.51
-4 -22 5 17.57 1.31
-4 -22 4 2.48 0.78
4 -22 -4 2.24 0.97
-4 22 4 2.45 0.97
-4 -22 3 6.74 0.94
4 -22 -3 7.33 1.26
-4 22 3 5.92 1.15
-4 -22 2 3.88 0.86
4 -22 -2 4.6 1.16
-4 22 2 4.28 1.08
4 -22 -1 27.09 2.03
-4 -22 1 28.68 1.59
-4 22 0 1.62 1.02
4 -22 0 2.49 1.11
-4 -22 0 1.54 0.71
4 -22 1 -0.55 0.97
-4 22 -1 1.24 0.95
4 -22 2 10.74 1.53
-4 22 -2 9.57 1.38
-4 22 -3 32.31 2.18
4 -23 -6 8.44 1.2
-4 -23 5 0.54 0.66
4 -23 -5 1.5 0.92
-4 -23 4 2.65 0.75
4 -23 -4 2.14 0.95
-4 -23 3 0.44 0.6
-4 23 3 -1.04 0.9
4 -23 -3 0.65 0.87
4 -23 -2 22.22 1.88
-4 23 2 23.27 1.81
-4 -23 2 22.25 1.42
4 -23 -1 2.75 1.09
-4 -23 1 1.84 0.74
4 -23 0 21.49 1.91
-4 23 0 19.03 1.74
4 -23 1 -0.67 0.95
-4 23 -1 -0.27 0.84
4 -23 2 8.25 1.45
4 -24 -5 9.11 1.31
4 -24 -4 5.24 1.17
4 -24 -3 0.66 0.95
4 -24 -2 4.29 1.18
4 -24 -1 13.91 1.65
4 -24 0 4.09 1.19
4 -25 -5 1.76 0.97
4 -25 -4 0.87 1.03
4 -25 -3 9.16 1.37
4 -25 -2 0.72 1.02
4 -25 -1 3.1 1.15
4 -26 -5 -0.6 0.89
4 -26 -4 6.77 1.24
5 0 -8 3.33 1.03
5 0 -7 -0.3 0.81
5 0 -6 20.67 1.58
5 0 -5 0.77 0.8
-5 0 5 2.45 1
5 0 -4 8.19 1.04
-5 0 4 6.99 1.28
5 0 -3 -0.7 0.72
-5 0 3 -0.27 0.89
5 0 -2 40.07 2.08
5 0 -2 38.39 1.79
-5 0 2 33.39 2.21
-5 0 1 1 0.97
5 0 -1 1.09 0.78
5 0 -1 0.36 0.69
5 0 0 39 2.03
-5 0 0 40.44 2.43
-5 0 -1 0.85 0.94
5 0 1 0.06 0.66
-5 0 -2 14.42 1.63
5 0 2 15.6 1.31
-5 0 -3 2.04 1.01
5 0 3 1.08 0.71
5 0 4 54.36 2.32
5 0 5 0.11 1.16
5 0 6 1.49 1.21
5 0 7 1.87 1.08
5 0 8 8.38 1.38
5 1 -8 5.75 1.18
5 -1 -8 2.92 0.99
5 1 -7 2.29 0.95
5 -1 -7 1.96 0.94
5 1 -6 1.54 0.88
5 -1 -6 1.53 0.89
-5 1 5 28.22 1.99
-5 -1 5 27.72 2
5 -1 -5 32.3 1.81
5 1 -5 28.42 1.74
-5 1 4 7.13 1.28
-5 -1 4 9.29 1.4
5 -1 -4 7.78 1.05
5 1 -4 7.24 1
-5 1 3 0.27 0.97
-5 -1 3 1.25 1.01
5 1 -3 1.65 0.88
5 1 -3 0.37 0.68
5 -1 -3 1.09 0.74
-5 1 2 5.44 1.18
-5 -1 2 4.74 1.15
5 1 -2 6.36 1.07
5 1 -2 6.87 0.91
5 -1 -2 6.14 0.94
5 1 -1 48.38 2.31
-5 1 1 47.92 2.64
-5 -1 1 52.17 2.73
-5 -1 0 11.71 1.52
5 1 0 11.04 1.19
-5 1 0 11.71 1.51
-5 1 -1 7.16 1.26
-5 -1 -1 5.93 1.29
5 1 1 8.31 1.05
-5 1 -2 18.17 1.76
-5 -1 -2 16.83 1.75
5 1 2 20.2 1.44
-5 1 -3 35.98 2.29
-5 -1 -3 33.81 2.26
5 1 3 38.45 1.9
5 1 4 2.6 0.87
5 -1 4 2.85 1.34
5 1 5 14.82 1.87
5 -1 5 11.43 1.7
5 -1 6 7.61 1.45
5 1 6 7.55 1.51
5 -1 7 7.76 1.42
5 1 7 11.48 1.59
5 1 8 0.78 1.04
5 2 -8 0.5 0.94
5 -2 -8 0.65 0.91
5 2 -7 9.19 1.24
5 -2 -7 9.52 1.28
5 2 -6 10.79 1.27
5 -2 -6 8.87 1.19
-5 2 5 3.11 1.03
5 2 -5 2.62 0.88
5 -2 -5 1.62 0.8
-5 2 4 7.97 1.31
5 2 -4 9.58 1.24
5 2 -4 6.4 0.98
5 -2 -4 6.9 1.04
5 2 -3 44.67 2.29
5 -2 -3 46.8 2.1
5 2 -3 43.9 1.98
-5 2 3 41.62 2.43
-5 2 2 6.54 1.22
5 2 -2 6.63 1.03
5 2 -2 8.29 0.93
5 -2 -2 7.68 1.02
-5 2 1 -0.09 0.97
5 2 -1 0.48 0.76
5 2 -1 -0.64 0.66
-5 2 0 15.71 1.68
5 2 0 14.76 1.32
-5 2 -1 46.19 2.6
5 2 1 43.86 2.12
5 2 2 3.63 0.88
-5 2 -2 2.25 1.04
5 2 3 8.81 1.08
-5 2 -3 7.1 1.29
5 -2 4 22.59 2.1
5 2 4 18.41 1.4
5 -2 5 14.06 1.76
5 2 5 16.57 1.93
5 2 6 0.1 1.18
5 -2 6 1.4 1.16
5 2 7 13.99 1.71
5 -2 7 13.57 1.68
5 2 8 2.74 1.09
5 -3 -8 19.72 1.7
5 3 -8 22.39 1.78
5 -3 -7 0.08 0.86
5 3 -7 1.38 0.91
5 3 -6 4.73 1
5 -3 -6 4.72 1.02
-5 3 5 2.73 0.99
5 -3 -5 0.4 0.78
5 3 -5 0.9 0.73
5 3 -5 0.58 0.83
-5 3 4 28.06 2.05
5 3 -4 27.71 1.87
5 -3 -4 28.8 1.75
5 3 -4 27.94 1.64
-5 3 3 1.73 1.07
5 3 -3 1.97 0.8
5 -3 -3 0.41 0.87
5 3 -3 1.29 0.9
-5 3 2 24.84 1.92
5 3 -2 25.52 1.73
5 -3 -2 28.79 1.64
5 3 -2 22.45 1.37
-5 3 1 1.52 1.03
5 3 -1 0.78 0.6
5 3 -1 1.32 0.77
5 3 0 19.1 1.46
-5 3 0 22.13 1.86
-5 3 -1 3.43 1.16
5 3 1 4.1 0.94
-5 3 -2 22.75 1.92
5 3 2 23.36 1.54
5 3 3 1.95 0.8
-5 3 -3 3.19 1.07
5 -3 3 4.46 1.4
5 -3 4 4.67 1.44
5 3 4 3.3 0.86
5 -3 5 -0.21 1.13
5 3 6 31.06 2.34
5 -3 6 31.28 2.31
5 -3 7 1.24 1.16
5 3 7 0.09 1.01
5 3 8 6.61 1.29
5 -4 -8 0.84 1
5 4 -8 1.85 1.04
5 -4 -7 22.6 1.77
5 4 -7 20.52 1.71
5 -4 -6 4.75 1.06
5 4 -6 3.85 0.96
-5 4 5 2.62 1.02
-5 -4 5 3.47 1.07
5 -4 -5 2.4 0.92
5 4 -5 2.3 0.89
5 4 -5 4.2 1.06
-5 4 4 1.66 1.04
-5 -4 4 1.08 1.04
5 -4 -4 0.65 0.87
5 4 -4 0.84 0.81
5 4 -4 0.24 0.78
-5 4 3 54.43 2.76
-5 -4 3 49.44 2.7
5 4 -3 52.7 2.55
5 -4 -3 58.57 2.47
5 4 -3 53.24 2.23
-5 4 2 6.35 1.25
-5 -4 2 6.36 1.29
5 -4 -2 6.75 1.08
5 4 -2 5.07 0.89
5 4 -2 6.98 1.11
-5 4 1 0.09 0.97
-5 -4 1 1.87 1.07
5 4 -1 0.66 0.63
5 4 -1 0.42 0.77
-5 4 0 3.16 1.2
-5 -4 0 5.34 1.26
5 4 0 4.89 0.96
5 4 1 74.35 2.9
-5 -4 -1 69.5 3.29
-5 4 -2 2.56 1.07
-5 -4 -2 4.1 1.17
5 4 2 3.77 0.91
5 -4 2 6.5 1.47
5 4 3 18.96 1.43
-5 4 -3 19.02 1.74
-5 -4 -3 17.21 1.69
5 -4 4 11.68 1.7
5 4 4 9.37 1.13
5 -4 5 22.16 2.06
5 4 6 0.1 1.13
5 -4 6 1.98 1.25
5 -4 7 5.79 1.36
5 4 7 2.97 1.12
5 -5 -8 4.36 1.1
5 5 -8 5.81 1.13
5 -5 -7 -0.32 0.87
5 5 -7 1.81 0.92
5 -5 -6 2.49 0.99
5 5 -6 1.39 0.94
5 5 -6 2.3 0.99
-5 5 5 21.57 1.76
-5 -5 5 20.07 1.72
5 -5 -5 24 1.74
5 5 -5 20.59 1.55
5 5 -5 22.49 1.75
-5 5 4 19.31 1.74
-5 -5 4 19.04 1.75
5 5 -4 22.51 1.74
5 -5 -4 23.59 1.7
5 5 -4 20.77 1.5
-5 5 3 0.25 0.95
-5 -5 3 0.26 0.95
5 5 -3 -0.06 0.69
5 5 -3 1.4 0.89
5 -5 -3 -0.19 0.91
5 5 -2 28.72 1.87
-5 5 2 30.24 2.08
-5 -5 2 27.57 2.03
5 5 -2 27.11 1.53
5 5 -1 49.91 2.39
-5 5 1 49.22 2.62
-5 -5 1 46.46 2.57
5 5 -1 45.22 1.88
5 5 0 16.31 1.4
-5 5 0 16.84 1.7
-5 -5 0 13.63 1.52
-5 5 -1 3.05 1.12
-5 -5 -1 2.7 1.15
5 5 1 1.8 0.82
5 5 2 21.49 1.5
-5 5 -2 22.26 1.88
-5 -5 -2 18.95 1.77
5 5 3 32.3 1.82
-5 5 -3 31.75 2.14
-5 -5 -3 29.56 2.08
5 -5 4 -0.11 1.07
5 5 4 -0.12 0.7
5 -5 5 7.56 1.49
5 -5 6 7.05 1.44
5 5 6 8.67 1.53
5 5 7 7.24 1.36
5 -6 -8 0.17 0.91
5 6 -8 0.26 0.84
5 -6 -7 0.08 0.85
5 6 -7 1.86 0.99
5 6 -6 35.7 2.23
5 -6 -6 32.41 2.04
5 6 -6 32.67 2.01
-5 6 5 2.85 1.06
-5 -6 5 3.32 1.08
5 -6 -5 2.72 1.01
5 6 -5 2.84 0.97
5 6 -5 1.97 0.99
-5 6 4 18.72 1.66
-5 -6 4 21.2 1.8
5 6 -4 20.84 1.68
5 -6 -4 20.21 1.67
5 6 -4 21.7 1.54
-5 6 3 3.33 1.11
-5 -6 3 2.33 1.07
5 -6 -3 1.7 0.95
5 6 -3 1.83 0.77
5 6 -3 4.06 1.01
5 6 -2 23.42 1.76
-5 6 2 20.53 1.76
-5 -6 2 21.75 1.8
5 6 -2 20.43 1.36
5 6 -1 3.56 0.98
5 6 -1 2.22 0.76
-5 6 1 4.66 1.22
-5 -6 1 2.49 1.06
5 6 0 20.25 1.54
-5 6 0 16.09 1.65
-5 -6 0 17.09 1.68
5 6 0 17.53 1.14
-5 6 -1 0.7 0.97
-5 -6 -1 0.62 0.91
5 6 1 1.23 0.78
5 -6 1 2.49 1.26
-5 6 -2 9.41 1.4
-5 -6 -2 10.43 1.4
5 6 2 9.77 1.14
5 6 3 1 0.75
5 -6 3 2.31 1.24
-5 6 -3 0.09 0.86
-5 -6 -3 0.87 0.92
5 -6 4 30.69 2.31
5 6 4 22.41 1.55
5 -6 5 4.14 1.31
5 -6 6 1 1.18
5 6 7 5.4 1.31
5 -7 -8 1.27 1.03
5 -7 -7 4.12 1.12
5 7 -7 5.97 1.2
5 -7 -6 2.28 1.06
5 7 -6 1.15 0.95
5 7 -6 1.33 1.04
-5 7 5 27.6 1.92
-5 -7 5 28.12 2
5 7 -5 25.65 1.92
5 -7 -5 27.15 1.93
5 7 -5 27.39 1.81
-5 7 4 5.59 1.15
-5 -7 4 4.95 1.17
5 -7 -4 3.73 1.14
5 7 -4 5.19 1.04
5 7 -4 5.85 1.13
-5 7 3 3.24 1.05
-5 -7 3 2.2 0.98
5 -7 -3 0.86 0.98
5 7 -3 2.91 0.85
5 7 -3 1.15 0.89
5 7 -2 0.47 0.86
5 7 -2 0.75 0.73
-5 7 2 0.73 0.91
-5 -7 2 0.76 0.92
5 7 -1 56.5 2.62
-5 7 1 57 2.78
-5 -7 1 61.75 2.89
5 7 -1 56.69 2.2
-5 7 0 1.77 1.02
-5 -7 0 0.94 1.01
5 7 0 1.16 0.84
5 7 0 1.12 0.63
5 7 1 19.12 1.5
-5 7 -1 19.4 1.73
-5 -7 -1 17.96 1.71
-5 7 -2 0.78 0.93
-5 -7 -2 -0.52 0.97
5 -7 2 1.36 1.12
5 7 2 1.3 0.77
5 7 3 28.62 1.73
-5 7 -3 30.83 2.07
-5 -7 -3 29.7 2.03
5 -7 3 33.48 2.37
5 7 4 1.6 0.76
5 -7 4 3.09 1.3
5 7 5 9.29 1.11
5 -7 5 10.37 1.59
5 -7 6 0.2 1.1
5 7 7 9.41 1.39
5 -8 -9 1.47 0.92
5 -8 -8 1.67 1.06
5 -8 -7 5.82 1.22
5 8 -7 4.92 1.19
5 -8 -6 10.76 1.45
5 8 -6 11.58 1.38
5 8 -6 10.15 1.4
-5 8 5 3.63 1.02
-5 -8 5 4.62 1.11
5 -8 -5 2.93 1.14
5 8 -5 2.25 0.97
5 8 -5 2.97 1.02
-5 8 4 8.85 1.32
-5 -8 4 10.14 1.42
5 8 -4 10.75 1.27
5 -8 -4 12.79 1.53
5 8 -4 11.06 1.4
-5 8 3 22.14 1.75
-5 -8 3 18.37 1.69
5 8 -3 22.17 1.54
5 8 -3 22.42 1.75
-5 8 2 22.29 1.74
-5 -8 2 27.15 1.93
5 8 -2 24.18 1.79
5 -8 -2 25.65 2.06
5 8 -2 23.99 1.48
-5 8 1 2.27 1.01
-5 -8 1 3.23 0.98
5 -8 -1 3.75 1.21
5 8 -1 2.38 0.97
5 8 -1 2.41 0.78
-5 8 0 41.43 2.34
-5 -8 0 43.45 2.42
5 8 0 36.99 1.71
5 8 0 40.39 2.16
5 8 1 17.87 1.46
5 -8 1 24.11 2.03
-5 8 -1 19.6 1.69
-5 -8 -1 18.62 1.69
-5 8 -2 2.94 1.02
-5 -8 -2 2.89 1.04
5 -8 2 5.15 1.36
5 8 2 3.14 0.86
5 -8 3 1.65 1.19
5 8 3 1.34 0.77
-5 8 -3 1.51 0.94
-5 -8 -3 1.86 0.95
5 -8 4 23.3 2.04
5 8 4 14.64 1.3
5 8 5 11.33 1.22
5 -8 5 9.82 1.57
5 8 7 1.97 1.07
5 -9 -8 14.67 1.5
5 -9 -8 12.63 1.62
5 9 -7 0.17 0.9
5 -9 -7 1.37 1.11
5 -9 -7 1.41 1.02
5 9 -6 4.6 1.11
5 9 -6 4.25 1.19
5 -9 -6 2.75 1.13
5 -9 -6 4.83 1.11
-5 9 6 4.23 1
5 9 -5 3.99 1.03
5 9 -5 4.61 1.13
-5 9 5 4.73 1.06
-5 -9 5 6.33 1.21
5 -9 -5 4.08 1.14
5 -9 -5 5.08 1.14
5 9 -4 28.73 1.84
-5 9 4 26.8 1.91
-5 -9 4 30.19 2.03
5 9 -4 28.55 2.04
5 -9 -4 34.06 2.2
5 -9 -4 32.38 2.14
-5 9 3 2.22 0.99
-5 -9 3 1.29 0.98
5 -9 -3 2.78 1.16
5 9 -3 0.59 0.94
5 9 -3 1.43 0.88
-5 9 2 19.73 1.66
-5 -9 2 18.39 1.65
5 9 -2 19.84 1.67
5 -9 -2 20.24 1.88
5 9 -2 14.53 1.29
-5 9 1 3.62 1.06
-5 -9 1 3.34 1.04
5 -9 -1 4.14 1.2
5 9 -1 2.56 0.89
5 9 -1 1.88 0.72
5 9 0 19.75 1.58
-5 9 0 24.21 1.81
-5 -9 0 21.73 1.78
5 9 0 18.83 1.28
-5 9 -1 1.31 1.01
-5 -9 -1 1.17 0.98
5 -9 1 1.8 1.15
5 9 1 2.33 0.86
5 9 2 26.17 1.68
-5 9 -2 22.6 1.82
-5 -9 -2 27.5 1.94
5 -9 3 6.96 1.39
5 9 3 5.08 0.92
5 -9 4 1.83 1.16
5 9 4 2.52 0.77
5 -9 5 9.9 1.61
5 9 5 4.38 0.9
5 -10 -8 0.34 0.89
5 -10 -8 1.08 1.07
5 10 -7 15.07 1.68
5 -10 -7 14.16 1.67
5 -10 -7 13.73 1.48
5 10 -6 -0.81 0.92
5 -10 -6 0.64 1.09
5 -10 -6 0.15 0.86
-5 10 6 2.23 0.89
-5 -10 6 2.56 0.93
5 10 -5 1.75 0.93
5 10 -5 1.46 0.95
5 -10 -5 2.58 1.18
-5 10 5 2.67 0.96
-5 -10 5 2.64 0.98
5 -10 -5 3.32 1.11
-5 10 4 0.81 0.85
-5 -10 4 0.64 0.91
5 -10 -4 0.51 1.01
5 10 -4 1.6 0.97
5 10 -4 0.98 0.9
-5 10 3 44.88 2.34
-5 -10 3 48.27 2.49
5 10 -3 51.68 2.66
5 10 -3 48.68 2.31
5 -10 -3 52.05 2.69
-5 10 2 5.27 1.1
-5 -10 2 5.47 1.14
5 -10 -2 5.93 1.29
5 10 -2 5.36 1.11
5 10 -2 4.57 0.93
-5 10 1 1.38 0.93
-5 -10 1 1.52 0.97
5 -10 -1 1.78 1.1
5 10 -1 1.19 0.81
5 10 -1 1.64 0.73
5 10 0 1.28 0.82
5 10 0 0.05 0.59
-5 10 0 1.18 0.89
-5 -10 0 1.13 0.96
5 10 1 47.1 2.32
-5 10 -1 46.19 2.46
-5 -10 -1 49.89 2.56
5 10 2 2.08 0.81
5 -10 2 1.5 1.09
-5 10 -2 0.56 0.89
-5 -10 -2 0.41 0.86
5 -10 3 9.09 1.49
5 10 3 6.63 0.99
5 -10 4 0.71 1.08
5 10 4 0.86 0.7
5 -10 5 18.14 1.88
5 10 5 13.87 1.27
5 -11 -8 7.48 1.19
5 -11 -8 7.8 1.44
-5 11 7 0.23 0.74
5 11 -7 1.07 1.03
5 -11 -7 0.86 0.94
5 -11 -7 -0.39 1.04
-5 11 6 1.94 0.8
-5 11 6 1.82 0.92
-5 -11 6 3.17 1
5 11 -6 1.07 0.99
5 -11 -6 3.1 1.07
5 -11 -6 1.91 1.12
5 11 -5 5.06 1.1
5 11 -5 5.64 1.21
-5 11 5 6.92 1.17
-5 -11 5 6.76 1.23
5 -11 -5 6.76 1.22
-5 11 5 6.51 1.03
-5 11 4 14.43 1.34
-5 11 4 12.69 1.36
-5 -11 4 14.6 1.49
5 11 -4 10.4 1.42
5 11 -4 13.29 1.43
5 -11 -4 14.7 1.53
-5 11 3 1.72 0.87
-5 -11 3 -0.15 0.85
5 -11 -3 2.42 1.13
5 11 -3 1.65 0.95
5 11 -3 0.33 0.82
5 11 -2 14.7 1.5
-5 11 2 14.02 1.39
-5 -11 2 14.99 1.5
5 11 -2 14.95 1.31
5 -11 -2 16.95 1.69
-5 11 1 18.79 1.57
-5 -11 1 21.09 1.72
5 11 -1 20.56 1.67
5 -11 -1 25.11 2.01
5 11 -1 18.16 1.37
-5 11 0 6.19 1.15
-5 -11 0 6.25 1.18
5 -11 0 8.43 1.44
5 11 0 6.11 1.05
-5 11 -1 0.39 0.87
-5 -11 -1 0.57 0.92
5 11 1 1.21 0.8
5 -11 2 36.88 2.42
-5 11 -2 33.46 2.1
-5 -11 -2 35.13 2.16
5 -11 3 7.04 1.38
5 -11 4 -0.21 1.1
5 -12 -8 0.07 0.85
-5 12 7 3.48 0.91
5 -12 -7 4.36 1.1
-5 12 6 19.06 1.5
-5 12 6 17.9 1.55
-5 -12 6 18.79 1.67
5 -12 -6 18.07 1.66
5 12 -6 20.73 1.81
5 12 -5 0.56 0.88
5 12 -5 0.71 0.94
-5 12 5 1.3 0.84
5 -12 -5 0.64 0.93
-5 12 5 1.44 0.86
-5 -12 5 2.05 1
5 12 -4 8.92 1.32
5 12 -4 7.28 1.19
-5 12 4 7.32 1.08
5 -12 -4 8.14 1.3
-5 12 4 8.19 1.15
-5 -12 4 6.61 1.16
5 12 -3 4.99 1.08
5 12 -3 6.01 1.05
-5 12 3 6.26 1.03
-5 12 3 5.64 1.07
-5 -12 3 5.5 1.09
5 -12 -3 7.31 1.31
-5 12 2 6.25 1.1
-5 -12 2 8.25 1.24
5 12 -2 9.14 1.29
5 12 -2 6.51 1.04
5 -12 -2 9.09 1.39
-5 12 1 1.33 0.91
-5 -12 1 1.63 0.99
5 12 -1 3.06 0.98
5 -12 -1 3.53 1.27
-5 12 0 3.91 1.05
-5 -12 0 6.84 1.23
5 -12 0 5.97 1.3
5 12 0 5.62 1.04
-5 12 -1 12.94 1.44
-5 -12 -1 13.19 1.47
-5 12 -2 7.89 1.2
-5 -12 -2 8.71 1.29
5 -12 2 9.9 1.51
5 -12 3 6.07 1.32
5 -13 -8 0.59 0.81
-5 13 7 0.63 0.77
5 -13 -7 1.35 0.93
5 13 -6 1.21 0.99
-5 13 6 2.27 0.91
-5 -13 6 2.74 1
-5 13 6 1.57 0.87
5 -13 -6 1.06 0.96
-5 13 5 25.36 1.68
-5 13 5 21.28 1.64
-5 -13 5 22.46 1.76
5 -13 -5 22.01 1.81
5 13 -5 25.44 1.88
5 13 -4 1.01 0.97
5 13 -4 0.91 0.86
-5 13 4 1.1 0.85
5 -13 -4 1.5 0.97
-5 13 4 -0.28 0.77
-5 -13 4 0.38 0.85
5 13 -3 0.98 0.92
5 13 -3 0.14 0.75
-5 13 3 0.14 0.72
5 -13 -3 0.43 0.96
-5 13 3 0.42 0.82
-5 -13 3 0.9 0.86
-5 13 2 2.87 0.88
-5 -13 2 3.74 0.99
5 -13 -2 3.03 1.14
5 13 -2 3.34 1.03
5 13 -1 53.86 2.63
5 -13 -1 57.58 2.92
-5 13 1 56.24 2.56
-5 -13 1 59.12 2.68
-5 13 0 1.98 0.86
-5 -13 0 2.85 0.91
5 -13 0 1.42 1.11
-5 13 -1 0.67 0.88
-5 -13 -1 0.85 0.84
-5 13 -2 -0.59 0.86
-5 -13 -2 -0.15 0.88
5 -13 3 32.65 2.38
-5 14 7 3.06 0.93
5 -14 -7 2.68 1.01
-5 14 6 12.44 1.34
-5 14 6 10.4 1.26
5 -14 -6 10.87 1.38
-5 -14 6 9.22 1.31
5 14 -5 0.66 0.9
-5 14 5 1.53 0.87
5 -14 -5 1.88 1.05
-5 14 5 1.02 0.85
-5 -14 5 0.68 0.92
5 14 -4 5.05 1.19
5 14 -4 5.86 1.12
-5 14 4 5.19 1.02
5 -14 -4 5.91 1.22
-5 14 4 3.71 0.94
-5 -14 4 3.63 1
5 14 -3 4.68 1.11
5 14 -3 5.81 1.06
-5 14 3 5.21 1.04
-5 -14 3 5.08 1.04
-5 14 3 5.83 1.06
5 -14 -3 4.96 1.19
-5 14 2 13.71 1.38
-5 -14 2 15.26 1.5
5 14 -2 17.42 1.62
5 -14 -2 14.33 1.6
-5 14 2 15.06 1.45
-5 14 1 3.36 1.01
-5 -14 1 1.19 0.93
5 14 -1 4.68 1.06
5 -14 -1 4.16 1.21
5 -14 0 37.72 2.43
-5 14 0 31.53 1.97
-5 -14 0 36.55 2.11
-5 14 -1 15.71 1.5
-5 -14 -1 16.08 1.53
-5 14 -2 0.8 0.85
-5 -14 -2 0.83 0.89
-5 15 7 2.48 0.91
5 -15 -7 3.1 1
-5 15 6 0.63 0.8
5 -15 -6 3.59 1.09
5 15 -5 7.35 1.24
-5 15 5 6.01 1.01
-5 -15 5 7.43 1.19
-5 15 5 6.58 1.09
5 -15 -5 7.91 1.3
-5 -15 4 11.87 1.34
5 15 -4 10.85 1.35
-5 15 4 11.88 1.35
5 -15 -4 11.19 1.46
-5 15 4 9.92 1.18
5 15 -3 1.17 0.92
-5 15 3 0.22 0.81
5 -15 -3 1.81 1.04
-5 15 3 1.2 0.83
-5 -15 3 0.51 0.84
5 15 -2 2.92 0.95
-5 15 2 4.43 1.02
5 -15 -2 5.91 1.23
-5 15 2 3.3 0.94
-5 -15 2 2.69 0.93
-5 15 1 4.88 1.07
-5 15 1 5.45 1.07
-5 -15 1 6.48 1.14
5 -15 -1 7.5 1.35
-5 15 0 3.59 1.01
-5 -15 0 4.53 1.1
5 -15 0 4.8 1.32
-5 15 -1 1.99 0.97
-5 -15 -1 1.34 0.93
5 -16 -7 3.84 1.05
5 -16 -6 -0.68 0.96
5 16 -5 3.22 1.08
-5 16 5 2.12 0.92
5 -16 -5 2.79 1.01
-5 16 5 1.39 0.85
-5 -16 5 3.19 1.01
5 16 -4 2.36 0.98
-5 16 4 1.94 0.87
-5 -16 4 1.13 0.88
5 -16 -4 2.51 1.1
-5 16 4 1.05 0.82
-5 16 3 28.84 1.91
5 -16 -3 25.26 1.99
-5 16 3 24.85 1.68
-5 -16 3 27.98 1.84
-5 16 2 -0.27 0.79
-5 -16 2 0.79 0.81
5 -16 -2 0.82 0.97
-5 16 2 2.11 0.93
-5 16 1 -0.68 0.89
-5 -16 1 -0.73 0.92
5 -16 -1 -0.19 0.97
-5 16 1 1.04 0.91
5 -16 0 5.12 1.32
-5 16 0 3.33 0.99
-5 -16 0 3.98 1.06
-5 16 -1 23.06 1.72
-5 -16 -1 25.01 1.77
5 -17 -6 2.58 1.05
5 -17 -5 1.69 1.04
-5 17 5 -0.26 0.75
-5 -17 5 0.57 0.86
-5 17 4 12.98 1.34
-5 -17 4 15.78 1.47
5 17 -4 12.84 1.45
5 -17 -4 13.72 1.56
5 -17 -3 1.06 1.1
-5 17 3 1.28 0.89
-5 -17 3 0.14 0.88
5 -17 -2 16.51 1.74
-5 17 2 15.57 1.43
-5 -17 2 13.84 1.41
-5 17 1 1.61 0.9
-5 -17 1 1.86 0.97
-5 17 0 4.6 1.08
-5 -17 0 6.66 1.16
-5 -17 -1 0.86 0.89
-5 17 -1 0.41 0.87
-5 -18 5 1.18 0.89
-5 18 4 0.63 0.78
-5 -18 4 1.94 0.91
-5 18 3 8.49 1.14
-5 -18 3 8.72 1.23
-5 -18 2 11.1 1.3
-5 18 2 10.88 1.24
-5 18 1 0.72 0.84
-5 -18 1 1.47 0.95
-5 18 0 5.85 1.13
-5 -18 0 4.77 1.11
-5 18 -1 5.83 1.15
-5 -18 -1 5.17 1.12
-5 -19 4 0.54 0.81
-5 19 3 0.38 0.8
-5 -19 3 -0.07 0.77
-5 19 2 1.79 0.87
-5 -19 2 2.2 0.94
-5 19 1 19.75 1.57
-5 -19 1 22.74 1.7
-5 19 0 -1.51 0.95
-5 -19 0 0.76 0.95
-5 -20 4 8.63 1.19
-5 -20 3 1.07 0.83
-5 -20 2 6.92 1.17
-5 -20 1 0.07 0.89
-5 -20 0 12.08 1.33
-5 -21 3 -0.45 0.8
-5 -21 2 1.63 0.85
-5 -21 1 8.41 1.17
-5 -21 0 2.13 0.89
6 3 0 10.25 1.35
6 3 1 1.96 0.96
6 4 1 8.47 1.26
6 5 2 1.06 0.91
0 0 -1 0 0.05
0 0 2 224.88 4.4
0 0 2 217.96 4.29
0 0 3 0.32 0.13
0 0 -3 0.08 0.13
0 0 3 -0.09 0.19
0 0 4 815.47 15.17
0 0 -4 789.8 14.87
0 0 4 784.05 14.92
0 0 4 764.59 14.91
0 0 5 -0.06 0.22
0 0 5 0.23 0.32
0 0 -5 -0.03 0.25
0 0 -5 0.58 0.22
0 0 5 0.43 0.21
0 0 6 0.93 0.26
0 0 6 0.85 0.36
0 0 6 1.21 0.25
0 0 -6 1.2 0.25
0 0 -6 0.73 0.33
0 0 7 -0.25 0.38
0 0 7 0.08 0.24
0 0 -7 0.03 0.23
0 0 7 0.14 0.24
0 0 -7 -0.22 0.37
0 0 -7 -0.11 0.35
0 0 -8 120.62 3.42
0 0 8 121.31 2.86
0 0 8 117.7 2.84
0 0 -8 125.27 3.44
0 0 -8 118.6 2.74
0 0 9 0.2 0.36
0 0 -9 0.46 0.34
0 0 -9 0.41 0.51
0 0 -9 0.95 0.61
0 0 -10 43.23 2
0 0 -10 39.67 1.94
0 0 -11 0.46 0.66
0 0 -11 -0.33 0.68
0 0 -12 26.48 1.75
0 0 -12 18.3 1.55
0 0 -13 0.91 0.87
0 0 -13 0.08 0.88
0 0 -14 1.72 1
0 0 -14 2.33 1.04
0 0 -15 2.06 1.14
0 -1 -1 307.62 5.97
0 -1 1 314.39 5.95
0 1 2 520.01 9.46
0 -1 2 499.13 9.39
0 -1 2 498.79 9.41
0 -1 3 106.42 2.35
0 1 3 106.27 2.39
0 -1 -3 103.7 2.09
0 1 3 103.48 2.11
0 1 -3 101.58 2.25
0 -1 3 100.02 2.3
0 -1 3 106.18 2.18
0 1 -4 9.09 0.55
0 1 4 10.58 0.61
0 -1 4 11.38 0.6
0 -1 4 11.25 0.53
0 -1 -4 11.11 0.4
0 1 4 10.76 0.41
0 1 -4 10.96 0.5
0 -1 4 10.66 0.45
0 1 -5 647.4 12.91
0 -1 5 689.46 12.9
0 1 5 678.05 12.9
0 -1 -5 661.22 12.99
0 -1 5 656.89 12.69
0 1 -5 649.74 12.6
0 -1 -5 640.37 12.43
0 1 5 653.89 12.47
0 -1 5 650.35 12.56
0 1 -6 75.18 2.2
0 -1 -6 70.44 2.16
0 1 6 73.66 1.74
0 -1 6 72.63 1.82
0 1 6 73.67 1.9
0 1 6 76.81 2.15
0 -1 -6 74.66 2.21
0 1 -6 77 2.19
0 1 -6 76.76 1.87
0 -1 6 75.13 1.93
0 -1 -6 69.7 1.69
0 1 7 1.74 0.34
0 1 7 2.48 0.51
0 1 7 2.09 0.3
0 -1 7 2.16 0.34
0 -1 -7 1.72 0.27
0 -1 7 2.41 0.39
0 1 -7 2.27 0.37
0 1 -7 1.92 0.45
0 -1 -7 1.86 0.46
0 -1 -7 2.07 0.48
0 1 -7 2.59 0.5
0 -1 -8 18.31 1.15
0 1 -8 16.94 1.13
0 1 -8 20.29 1.17
0 1 8 21 1.11
0 -1 8 19.31 0.89
0 1 8 19.22 0.87
0 -1 8 17.98 0.79
0 -1 -8 20.27 1.2
0 1 -8 19.15 0.83
0 1 -9 105.22 3.27
0 -1 -9 105.6 3.28
0 1 -9 113.68 3.32
0 1 9 117.81 3.15
0 1 9 102.98 2.68
0 -1 9 106.71 2.68
0 -1 -9 113.44 3.39
0 1 -9 104.6 2.6
0 1 -10 20.7 1.37
0 -1 -10 19.09 1.37
0 1 10 18.04 0.91
0 1 -10 18.8 1.34
0 -1 -10 16.83 1.31
0 -1 -11 4.5 0.94
0 1 -11 4.31 0.91
0 -1 -11 4.16 0.84
0 1 -11 4.12 0.83
0 -1 11 4.02 0.57
0 1 -12 12.27 1.3
0 -1 -12 10.72 1.26
0 1 -12 10.7 1.28
0 -1 -12 9.24 1.22
0 1 -13 7.15 1.25
0 -1 -13 6.19 1.21
0 1 -13 9.28 1.24
0 -1 -13 9.45 1.3
0 -1 -14 0.09 0.96
0 1 -14 -1.55 1.03
0 1 -14 -0.71 0.95
0 -1 -14 -0.28 0.94
0 -1 -15 1.89 1.1
0 1 -15 2.41 1.13
0 -2 -1 89.55 1.94
0 2 -1 89.47 1.82
0 -2 1 86.64 1.91
0 2 2 180.2 3.67
0 -2 2 176.36 3.68
0 2 3 1259.33 23.38
0 -2 3 1246.22 23.37
0 2 -3 1206.49 23.28
0 2 4 334.57 6.44
0 2 -4 318.8 6.37
0 2 -4 323.63 6.27
0 -2 -4 298.38 5.9
0 -2 4 324 6.36
0 2 4 309.33 5.91
0 2 -5 5.04 0.46
0 2 5 4.33 0.49
0 2 5 5.01 0.26
0 -2 -5 5.3 0.5
0 -2 5 5.52 0.46
0 -2 -5 4.92 0.25
0 2 -5 5.35 0.44
0 2 -6 68.8 2.01
0 2 6 70.22 2.01
0 -2 -6 67.16 2.03
0 -2 -6 58.85 1.43
0 -2 -6 68.09 2.09
0 2 -6 67.94 1.78
0 -2 6 69.16 1.86
0 2 7 249.13 5.35
0 2 -7 234.73 5.37
0 2 7 224.87 4.98
0 -2 7 231.21 5.1
0 -2 -7 226.08 5.38
0 -2 -7 239.34 5.52
0 2 -7 229.74 4.97
0 2 8 15.11 0.97
0 2 -8 14.66 0.99
0 -2 -8 13.12 0.96
0 2 8 13.67 0.75
0 -2 8 15.48 0.83
0 -2 -8 14.92 1.05
0 2 -8 13.8 0.74
0 2 9 0.49 0.37
0 2 9 1.05 0.58
0 -2 -9 0.6 0.54
0 2 -9 0.15 0.48
0 -2 9 0.8 0.41
0 2 -9 0.82 0.38
0 -2 -9 -0.05 0.49
0 2 -10 31.77 1.21
0 -2 -10 35.87 1.87
0 -2 10 37.49 1.29
0 -2 -10 40.78 1.96
0 2 -10 40.71 1.88
0 2 10 35.97 1.33
0 2 -11 11.34 1.14
0 -2 -11 14.05 1.3
0 -2 -11 12.59 1.22
0 -2 11 11.37 0.77
0 -2 -12 1.65 0.88
0 2 -12 0.57 0.75
0 -2 -12 1.25 0.8
0 -2 -13 1.9 0.93
0 2 -13 1.88 0.87
0 -2 -13 3.57 1.04
0 -2 -14 3.1 1.13
0 -2 -14 3.5 1.11
0 2 -14 3.22 1.02
0 -2 -15 6.32 1.42
0 2 -15 5.72 1.3
0 3 0 0.76 0.11
0 -3 0 0.01 0.11
0 -3 1 55.41 1.38
0 3 1 55.61 1.19
0 3 -1 57.45 1.24
0 -3 2 2231.5 45.54
0 3 -2 2607.75 45.57
0 3 2 2802.53 45.9
0 -3 -2 2180.64 45.86
0 -3 2 2728.93 45.94
0 3 -3 15.43 0.52
0 -3 3 18.66 0.76
0 3 -3 18.92 0.73
0 3 3 18.37 0.74
0 -3 3 17.38 0.52
0 3 -4 133.8 3.05
0 -3 4 134.63 3.13
0 3 4 135.07 3.13
0 3 -4 135.49 3.07
0 -3 4 133.88 2.79
0 -3 5 7.7 0.56
0 3 -5 7.32 0.52
0 -3 5 7.02 0.4
0 -3 -5 5.93 0.55
0 3 5 7.48 0.57
0 3 -5 7.12 0.53
0 -3 6 391.7 8.21
0 3 -6 402.51 8.11
0 -3 6 386.64 7.84
0 -3 -6 396.82 8.35
0 -3 -6 407.38 8.53
0 3 6 410.9 8.35
0 3 -6 412.34 8.35
0 -3 -7 1.28 0.49
0 -3 7 0.99 0.41
0 3 -7 1.1 0.4
0 3 7 0.53 0.47
0 -3 7 0.81 0.31
0 -3 -7 0.98 0.48
0 3 -7 0.96 0.43
0 3 -8 50.53 1.62
0 -3 8 50.39 1.49
0 -3 -8 51.94 1.97
0 -3 8 53.13 1.74
0 3 8 49.02 1.61
0 -3 -8 52.89 2.07
0 3 8 56.11 1.92
0 3 -8 54.29 1.96
0 -3 -9 3.98 0.71
0 -3 9 3.59 0.55
0 3 9 4.14 0.72
0 3 9 3.99 0.49
0 3 -9 4.17 0.67
0 -3 -9 3.72 0.72
0 -3 10 35.68 1.41
0 3 10 32.92 1.3
0 -3 -10 33.06 1.83
0 3 -10 32.08 1.67
0 -3 -10 29.58 1.67
0 -3 11 -0.18 0.4
0 3 -11 0.43 0.63
0 -3 -11 0.94 0.72
0 -3 -11 0.32 0.7
0 3 -12 14.32 1.34
0 -3 -12 14.08 1.44
0 -3 -12 15.27 1.47
0 -3 -13 1.18 0.91
0 -3 -13 2.31 0.98
0 3 -13 0.39 0.81
0 -3 -14 1.28 1
0 -3 -14 1.06 0.99
0 3 -14 0.51 0.88
0 -3 -15 0.52 1.07
0 3 -15 0.09 0.96
0 4 0 109.45 2.24
0 4 0 106.93 2.33
0 4 1 311.56 6.1
0 -4 1 315.12 6.34
0 4 -1 322.26 6.11
0 4 -2 89.73 1.92
0 4 2 96.66 2.24
0 -4 2 93.89 2.27
0 4 -2 97.84 2.09
0 -4 3 987.01 18.73
0 4 3 1029.01 19.16
0 -4 3 1012.31 19.24
0 4 -4 15.62 0.53
0 -4 4 15.62 0.78
0 4 -4 16.3 0.77
0 4 -4 15.44 0.69
0 4 4 15.71 0.76
0 -4 4 14.41 0.51
0 4 -5 109.5 2.7
0 -4 5 108.47 2.81
0 -4 5 108.71 2.38
0 -4 -5 103.7 2.9
0 4 5 113.88 2.8
0 4 -5 112.06 2.75
0 -4 6 36.6 1.38
0 4 -6 37.39 1.31
0 -4 6 34.09 1.05
0 -4 -6 38.37 1.55
0 4 6 37.36 1.41
0 4 -6 35.54 1.37
0 -4 -6 37.14 1.41
0 -4 7 380.62 8.09
0 4 -7 373.97 7.91
0 -4 7 384.31 7.62
0 -4 -7 368.44 8.19
0 -4 -7 383.8 8.48
0 4 -7 386.98 8.21
0 4 7 404.12 8.22
0 -4 8 14.14 0.69
0 -4 -8 14.09 1
0 -4 8 14.94 0.93
0 -4 -8 13.32 1.07
0 4 -8 14.33 0.97
0 4 8 15.44 1.01
0 -4 9 -0.02 0.3
0 -4 -9 0.2 0.52
0 -4 9 0.25 0.44
0 4 9 0.08 0.51
0 4 9 0.26 0.37
0 -4 9 -0.32 0.56
0 -4 -9 -0.3 0.54
0 4 -9 0.05 0.47
0 4 -10 9.06 0.95
0 -4 -10 7.65 1
0 4 10 7.05 0.68
0 -4 10 6.83 0.76
0 -4 -10 8.12 1
0 4 -10 7.19 0.72
0 -4 -11 31.43 1.8
0 -4 -11 32.25 1.92
0 4 -11 33.94 1.78
0 4 -11 29.17 1.29
0 -4 -12 3.61 0.93
0 4 -12 3.96 0.91
0 -4 -12 3.82 1
0 -4 -13 3.81 1.08
0 -4 -13 2.55 1.02
0 4 -13 3.8 0.98
0 -4 -14 1.61 1.05
0 -4 -14 2 1.1
0 4 -14 1.66 0.95
0 4 -15 0.27 0.98
0 5 0 0.05 0.18
0 5 0 0.08 0.25
0 5 1 604.8 11.64
0 -5 1 602.06 11.89
0 5 -1 626.15 11.61
0 -5 -1 609.71 11.46
0 5 -2 277.61 5.44
0 -5 -2 286.91 5.45
0 -5 2 278.4 5.87
0 5 2 274.45 5.4
0 5 -2 290.03 5.59
0 5 -3 622.97 11.8
0 5 3 621.83 12.21
0 -5 3 618.77 12.32
0 -5 4 100 2.16
0 5 -4 100.19 2.2
0 5 -4 106.12 2.6
0 -5 4 106.12 2.71
0 5 4 104.98 2.61
0 -5 5 386.56 7.49
0 -5 -5 390.53 7.94
0 5 -5 380.78 7.52
0 5 5 394.5 8.03
0 5 -5 398.61 7.97
0 -5 5 385.97 8.1
0 5 -5 367.5 7.94
0 5 -6 202.6 4.61
0 -5 6 203.2 4.76
0 -5 -6 202.01 4.68
0 -5 6 200.86 4.16
0 -5 6 202.1 4.61
0 -5 -6 204.98 4.98
0 5 -6 203.38 4.67
0 5 6 208.84 4.71
0 -5 7 10.86 0.81
0 -5 -7 9.55 0.79
0 -5 7 9.59 0.53
0 -5 7 9.85 0.76
0 -5 -7 9.92 0.9
0 5 7 10.45 0.84
0 5 -7 9.34 0.76
0 -5 8 64.82 2.15
0 -5 8 63.92 1.65
0 5 -8 58.69 2.16
0 -5 -8 64.28 2.23
0 -5 8 60.23 2.14
0 -5 -8 65.37 2.45
0 5 8 67.62 2.21
0 5 -8 62.09 2.18
0 5 -9 51.31 1.73
0 5 -9 46.71 1.98
0 -5 -9 45.48 1.94
0 -5 9 46.04 1.37
0 -5 9 47.26 1.83
0 -5 -9 47.2 2.17
0 5 -9 50.81 1.99
0 5 9 50.51 1.92
0 5 -10 9.96 0.81
0 -5 -10 11.5 1.12
0 5 -10 10.43 1.04
0 -5 10 10.49 0.89
0 5 10 9.34 0.75
0 -5 -10 11.46 1.17
0 5 -10 9.47 0.94
0 5 -11 0.37 0.52
0 -5 11 -0.04 0.52
0 5 -11 1.03 0.64
0 -5 -11 0.23 0.71
0 5 -11 0.64 0.73
0 -5 -11 0.76 0.74
0 5 -12 12.93 1.35
0 -5 -12 10.73 1.25
0 -5 -12 14.06 1.47
0 5 -12 12 1.23
0 5 -13 5.61 1.06
0 -5 -13 5.64 1.25
0 -5 -13 8.23 1.26
0 5 -13 6.61 1.19
0 5 -14 0.25 0.84
0 5 -15 1.42 1.04
0 6 0 1684.98 31.57
0 6 0 1689.66 31.72
0 6 -1 8.25 0.4
0 -6 1 7.95 0.52
0 6 1 8.54 0.44
0 -6 -1 8.76 0.28
0 6 -1 8.51 0.29
0 6 -2 38.32 1.08
0 -6 -2 38.59 1.03
0 6 2 38.98 0.98
0 -6 2 38.46 1.31
0 6 -3 69.79 1.57
0 -6 -3 66.04 1.45
0 6 3 67.48 1.93
0 -6 3 70.37 2.03
0 6 3 68.49 1.44
0 6 -3 72.54 1.77
0 -6 4 909.76 17.91
0 6 -4 900.36 17.75
0 6 4 912.81 17.75
0 -6 -4 925.01 17.54
0 -6 5 16.92 0.6
0 -6 -5 18.21 0.85
0 6 -5 16.61 0.82
0 6 -5 16.7 0.63
0 6 -5 18.26 0.86
0 6 5 18.72 0.95
0 6 -5 16.11 0.89
0 -6 5 17.89 0.99
0 -6 6 112.38 3.1
0 6 -6 108.34 2.93
0 -6 -6 112.49 2.94
0 -6 6 109.66 2.45
0 -6 6 110.42 2.9
0 -6 -6 119.62 3.34
0 6 -6 117.72 3
0 6 6 114.25 3.01
0 -6 7 47.61 1.82
0 -6 -7 48.96 1.79
0 6 -7 50.4 1.79
0 -6 7 50.02 1.33
0 -6 7 46.95 1.74
0 -6 -7 53.4 2.11
0 6 -7 51.27 1.82
0 6 7 52.34 1.83
0 -6 8 124.89 3.46
0 6 -8 129.16 3.32
0 -6 8 122.7 2.79
0 6 -8 125.81 3.5
0 -6 -8 121.51 3.47
0 -6 -8 124.58 3.83
0 6 8 134.59 3.5
0 6 -8 125.12 3.49
0 -6 -9 2.06 0.65
0 6 -9 1.51 0.63
0 -6 9 1.19 0.57
0 6 -9 1.83 0.56
0 -6 9 0.91 0.34
0 6 -9 0.33 0.5
0 -6 -9 1.76 0.7
0 6 -10 29.33 1.36
0 6 -10 30.6 1.68
0 -6 -10 30.28 1.67
0 -6 10 29.56 1
0 -6 10 27.97 1.47
0 6 10 27.35 1.27
0 -6 -10 32.44 1.9
0 6 -10 33.18 1.67
0 6 -11 -0.13 0.66
0 -6 -11 0.25 0.68
0 -6 -11 -0.64 0.73
0 6 -11 -0.61 0.62
0 -6 11 -0.18 0.55
0 6 -11 0.22 0.53
0 6 -12 4.65 0.99
0 -6 -12 3.75 0.95
0 -6 -12 4.5 1.06
0 6 -12 4.43 0.91
0 6 -13 1.74 0.96
0 -6 -13 1.75 0.92
0 6 -13 0.66 0.8
0 6 -14 5.1 1.11
0 6 -15 -0.09 0.92
0 7 0 0.24 0.19
0 7 0 0.2 0.25
0 7 -1 793.42 14.72
0 -7 -1 780.64 14.72
0 -7 -1 752.7 15.13
0 -7 1 785.53 15.36
0 7 1 795.07 15.05
0 7 -1 811.59 14.98
0 7 -2 4.26 0.35
0 -7 -2 4.94 0.28
0 7 -2 4.58 0.28
0 7 2 4.17 0.31
0 -7 -2 7.2 0.4
0 -7 2 4.4 0.47
0 7 -3 414.26 8.07
0 -7 -3 413.19 8.18
0 7 -3 417.97 8.19
0 -7 -3 418.8 8.03
0 7 -3 423.02 8.31
0 7 3 430.16 8.62
0 -7 3 412.02 8.68
0 7 3 413.6 7.96
0 7 -4 1.08 0.28
0 -7 -4 0.29 0.25
0 7 -4 0.54 0.19
0 7 -4 0.29 0.35
0 -7 4 1.12 0.38
0 7 4 0.64 0.37
0 -7 -5 386.85 7.89
0 7 -5 390.42 7.9
0 7 -5 376.86 7.51
0 7 5 391.85 8.1
0 -7 5 376.12 8.24
0 7 -6 38.8 1.46
0 7 6 39.88 1.53
0 7 -6 40.75 1.46
0 -7 -6 39.25 1.44
0 7 -6 36.98 1.1
0 -7 6 35.66 1.38
0 -7 -6 41.45 1.77
0 -7 6 37.39 1.59
0 -7 -7 0.04 0.37
0 7 -7 0.25 0.4
0 7 -7 0.28 0.46
0 -7 7 0.04 0.41
0 7 -7 0.11 0.36
0 -7 7 0.19 0.23
0 -7 -7 0.49 0.49
0 7 7 0.07 0.41
0 7 -8 10.63 0.86
0 -7 8 8.26 0.85
0 -7 -8 10.29 0.89
0 7 -8 10.75 0.89
0 -7 8 8.96 0.53
0 -7 -8 8.92 1
0 7 8 9.56 0.87
0 7 -8 11.8 0.95
0 7 -9 113.64 3.1
0 -7 9 105.24 2.46
0 -7 -9 107.85 3.3
0 7 -9 107.03 3.29
0 -7 9 107.36 3.25
0 -7 -9 107.25 3.68
0 7 -9 113.78 3.34
0 7 -10 2.85 0.76
0 -7 -10 2.22 0.75
0 7 -10 2.1 0.67
0 -7 10 2.52 0.7
0 -7 10 2.01 0.38
0 -7 -10 3.09 0.89
0 7 -10 2.6 0.7
0 -7 11 7.13 0.92
0 -7 -11 7.81 1.06
0 7 -11 7.13 1.02
0 7 -11 8.33 0.99
0 -7 -11 7.56 1.17
0 7 -11 7.19 0.86
0 -7 -12 0.41 0.79
0 7 -12 0.34 0.77
0 7 -12 -0.07 0.68
0 -7 12 0.19 0.63
0 7 -13 13.62 1.38
0 -7 -13 11.88 1.38
0 7 -13 12.86 1.44
0 7 -14 -0.32 0.89
0 7 -15 2.05 1.01
0 8 0 772.8 14.51
0 8 0 741.08 14.71
0 -8 -1 433.18 8.44
0 8 -1 458.93 8.46
0 8 -1 465.94 8.77
0 -8 -1 460.2 8.99
0 8 -1 452.43 9.06
0 -8 1 436.71 9.16
0 8 1 455.72 8.86
0 8 -2 32.4 1.01
0 -8 -2 32.28 1.04
0 8 2 32.94 0.96
0 -8 2 31.88 1.27
0 8 -2 30.81 0.85
0 -8 -2 30.6 0.84
0 -8 -3 47.13 1.29
0 8 -3 48.31 1.31
0 -8 -3 50.25 1.28
0 8 -3 49.67 1.42
0 8 -3 47.34 1.24
0 -8 3 50.13 1.75
0 8 3 47.65 1.19
0 8 -4 133.32 1.49
0 -8 -4 137.88 1.85
0 8 -4 133.69 1.82
0 -8 4 128.32 2.48
0 8 4 120.39 0.99
0 8 4 132.86 2.32
0 8 -5 68.25 1.89
0 -8 -5 68.51 1.91
0 -8 5 57.34 1.81
0 8 5 68.3 2.09
0 -8 5 62.65 2.18
0 8 -6 55.61 1.52
0 8 -6 59.42 1.88
0 -8 -6 59.27 1.87
0 8 -6 60.08 1.98
0 -8 6 59.01 2.14
0 8 -6 62.35 1.96
0 8 6 61.38 2.02
0 8 -7 113.17 3.11
0 -8 -7 116.81 3.13
0 8 -7 116.99 3.2
0 -8 7 111.97 3.33
0 8 7 117.2 3.21
0 8 -7 115.35 3.18
0 -8 -8 77.19 2.5
0 8 -8 77.16 2.51
0 8 -8 80.16 2.57
0 8 8 81.17 2.55
0 -8 -8 76.65 2.92
0 8 -8 83.29 2.54
0 -8 8 70.68 2.57
0 -8 -9 17.1 1.2
0 8 -9 19.25 1.25
0 -8 9 18.02 1.25
0 8 -9 18.18 1.25
0 -8 -9 18.12 1.46
0 8 -9 23.53 1.3
0 -8 -10 81.45 2.9
0 8 -10 83.04 2.92
0 8 -10 90.07 2.74
0 8 -10 90.44 2.98
0 -8 10 80.65 2.84
0 8 -11 17.43 1.36
0 -8 -11 19.41 1.44
0 -8 11 15.79 1.24
0 8 -11 16.05 1.28
0 8 -11 14.7 1.14
0 8 -12 -0.13 0.79
0 -8 -12 -0.47 0.83
0 8 -12 0.6 0.7
0 -8 12 0.95 0.7
0 -8 -13 -0.3 0.88
0 8 -13 -0.15 0.86
0 8 -13 -0.36 0.79
0 8 -14 1.26 0.9
0 8 -15 0.51 0.96
0 9 0 0.05 0.22
0 9 0 0.16 0.28
0 9 -1 375.79 7.17
0 -9 -1 385.25 7.79
0 9 -1 386.22 7.83
0 9 1 382.18 7.64
0 9 -1 381.26 7.52
0 -9 -2 1718.07 32.96
0 9 2 1749.36 32.81
0 -9 2 1785.28 33.42
0 -9 -2 1736.38 32.59
0 9 -2 1734.7 32.59
0 9 -2 1776.67 32.86
0 -9 -3 107.15 2.42
0 9 -3 103.63 2.41
0 9 -3 109.52 2.59
0 9 -3 109.74 2.42
0 9 3 107.14 2.37
0 -9 -3 105.93 2.47
0 -9 3 107.36 3.02
0 9 -4 161 3.5
0 9 -4 167.07 3.67
0 -9 -4 169.61 3.68
0 -9 -4 165.93 3.4
0 9 -4 171.93 3.8
0 9 4 170.85 4.11
0 -9 4 163.49 4.22
0 9 4 163.81 3.34
0 -9 -5 81.09 2.17
0 9 -5 76.53 2.14
0 9 -5 79.64 1.91
0 9 5 78.92 2.4
0 -9 5 79.14 2.57
0 9 -5 80.71 2.42
0 9 -6 286.37 6.22
0 -9 -6 299.45 6.27
0 9 -6 270.71 5.78
0 9 -6 296.88 6.47
0 -9 6 289.77 6.71
0 9 6 291.38 6.47
0 9 -7 4.81 0.41
0 -9 7 5.04 0.75
0 9 -7 4.89 0.73
0 9 7 5.63 0.73
0 9 -7 5 0.63
0 9 -7 6.44 0.68
0 -9 -7 5.62 0.66
0 9 -8 6.35 0.81
0 -9 8 5.3 0.81
0 9 -8 5.78 0.72
0 -9 -8 6.81 0.75
0 9 -8 6.25 0.76
0 9 8 7.3 0.83
0 -9 9 7.39 0.93
0 9 -9 7.35 0.91
0 -9 -9 5.58 0.82
0 9 -9 7.59 0.89
0 9 -9 6.86 0.86
0 -9 -10 58.27 2.32
0 9 -10 58.98 2.34
0 -9 10 55.24 2.32
0 9 -10 59.25 2.35
0 9 -10 59.68 2.22
0 9 -11 -0.06 0.64
0 -9 -11 0.91 0.7
0 9 -11 0.49 0.64
0 -9 11 1.01 0.72
0 -9 -12 6.82 1.1
0 9 -12 6.56 1.05
0 9 -12 6.83 1.02
0 -9 12 7.85 1.06
0 -9 -13 0.07 0.86
0 9 -13 0.07 0.86
0 9 -13 0.22 0.76
0 9 -14 0.16 0.83
0 9 -15 0.25 0.88
0 10 0 1.51 0.3
0 10 0 1.78 0.4
0 -10 -1 351.48 7.4
0 10 1 354.78 7.26
0 10 -1 363.27 7.45
0 10 -1 352.39 7.12
0 10 -2 61.46 1.44
0 -10 -2 61.07 1.42
0 -10 -2 61.26 1.8
0 -10 2 62.73 2.09
0 10 2 63.18 1.68
0 10 -2 65.65 1.7
0 10 -3 482.32 9.13
0 10 -3 448.32 8.88
0 -10 -3 464 8.89
0 10 3 440.68 8.89
0 -10 -3 443.48 9.04
0 -10 3 463.2 9.74
0 10 -4 42.84 1.26
0 -10 -4 47.28 1.38
0 10 -4 46 1.37
0 -10 -4 47.44 1.25
0 10 -4 44.85 1.48
0 10 4 46.7 1.74
0 -10 4 46.81 1.85
0 10 4 46.16 1.17
0 10 -5 49.34 1.37
0 10 5 51.08 1.85
0 10 -5 48.25 1.55
0 -10 -5 49.99 1.56
0 -10 5 48.95 1.96
0 10 -5 50.66 1.84
0 10 -6 20.27 1
0 -10 -6 20.29 1
0 10 -6 18.8 1.12
0 -10 6 17.98 1.22
0 10 6 20.25 1.15
0 10 -7 265.56 5.97
0 -10 -7 272.59 6
0 -10 7 256.66 6.38
0 10 -7 271.96 6.21
0 10 7 276.54 6.23
0 10 -7 273.9 6.14
0 10 -7 250.49 5.43
0 -10 -8 85.79 2.67
0 10 -8 85.04 2.67
0 10 -8 90.02 2.79
0 -10 8 80.72 2.88
0 10 -8 85.9 2.74
0 10 -9 5.42 0.8
0 -10 -9 5.95 0.8
0 10 -9 4.98 0.77
0 -10 9 5.44 0.88
0 10 -9 4.25 0.82
0 10 -10 -0.28 0.61
0 -10 10 0.18 0.66
0 10 -10 0.59 0.64
0 -10 -10 0.43 0.64
0 -10 11 32.17 1.82
0 -10 -11 31.02 1.78
0 10 -11 33.48 1.8
0 10 -11 34.45 1.8
0 10 -12 2.99 0.87
0 -10 -12 2.71 0.91
0 10 -12 2.66 0.85
0 -10 12 1.64 0.81
0 10 -13 1.49 0.95
0 -10 -13 1.09 0.93
0 10 -13 1.66 0.84
0 10 -14 0.54 0.81
0 11 0 0.07 0.25
0 11 0 0.05 0.33
0 11 1 97.47 2.35
0 11 -1 95.45 2.61
0 -11 -1 96.47 2.63
0 11 1 99.61 2.5
0 11 -1 95.01 2.34
0 -11 -2 292.1 5.86
0 11 -2 303.62 5.88
0 -11 2 306.91 6.85
0 -11 -2 293.57 6.42
0 11 2 305.51 6.24
0 11 -2 318.65 6.25
0 11 -3 50.38 1.38
0 11 -3 55.37 1.61
0 -11 -3 52.45 1.39
0 -11 3 53.51 2
0 -11 -3 52.18 1.59
0 11 3 54.94 1.47
0 11 -4 60.71 1.62
0 11 -4 61.88 1.68
0 -11 -4 61.04 1.69
0 -11 -4 63.47 1.66
0 11 -4 64.73 1.87
0 11 4 64.8 2.18
0 -11 4 62.69 2.26
0 11 4 61.61 1.54
0 11 -5 107.34 2.54
0 11 5 112.55 3.16
0 -11 -5 110.95 2.74
0 11 -5 106.7 2.71
0 -11 5 106.61 3.31
0 11 -5 111.58 3.13
0 11 6 111.71 3.13
0 -11 6 100.14 3.28
0 11 -6 101.77 3.06
0 -11 -6 105.58 2.8
0 11 -6 104.77 2.77
0 11 -7 0.66 0.31
0 11 -7 0.04 0.45
0 11 7 0.54 0.52
0 11 -7 0.41 0.61
0 -11 7 0.88 0.58
0 11 -7 1.69 0.49
0 -11 -7 1.29 0.5
0 -11 8 92.96 3.16
0 11 -8 94.99 2.98
0 -11 -8 97.43 2.88
0 11 -8 90.7 2.81
0 11 -8 91.66 2.92
0 11 -9 16.71 1.16
0 -11 -9 16.76 1.16
0 11 -9 16.21 1.27
0 -11 9 16.05 1.31
0 11 -9 16.54 1.18
0 -11 10 3.04 0.82
0 11 -10 4.39 0.8
0 11 -10 3.42 0.79
0 -11 -10 4.21 0.81
0 11 -11 -0.23 0.64
0 -11 -11 0.24 0.67
0 -11 11 -0.95 0.75
0 11 -11 -0.37 0.7
0 -11 -12 18.57 1.47
0 11 -12 19.77 1.5
0 -11 12 16.55 1.49
0 11 -12 19.98 1.51
0 -11 -13 6.04 1.13
0 11 -13 5.8 1.06
0 11 -13 6.39 1.09
0 11 -14 -0.38 0.82
0 12 0 860.47 16.95
0 -12 0 844.64 17.15
0 12 0 879.16 16.65
0 12 1 100.67 2.41
0 12 -1 95.35 2.38
0 -12 -1 92.5 2.67
0 12 1 98.11 2.54
0 12 -1 93.82 2.66
0 12 -2 40.32 1.32
0 -12 2 43.1 1.74
0 12 2 41.91 1.34
0 -12 -2 40.07 1.46
0 12 -2 40.22 1.02
0 -12 -2 38.67 0.99
0 12 -3 457.54 8.77
0 -12 -3 423.57 8.42
0 12 -3 417.68 8.44
0 -12 3 434.98 9.44
0 12 3 434.47 8.58
0 -12 -3 429.56 8.8
0 12 -4 563.02 11.32
0 -12 -4 592.64 11.39
0 12 -4 568.33 11.37
0 -12 -4 585.27 11.45
0 12 -4 604.75 11.65
0 12 4 613.48 12.2
0 -12 4 574.77 12.32
0 12 4 571.98 11.25
0 -12 -5 1.09 0.36
0 12 -5 1.25 0.36
0 12 -5 1.43 0.31
0 12 -5 1.26 0.52
0 -12 5 0.8 0.56
0 12 5 0.95 0.22
0 12 -5 1.1 0.48
0 12 5 1.05 0.5
0 -12 6 41.53 1.95
0 12 -6 39.8 1.74
0 12 6 39.42 1.73
0 -12 -6 42.87 1.52
0 12 -6 41.48 1.49
0 -12 -7 33.29 1.4
0 12 -7 27.02 1.02
0 12 -7 30.95 1.36
0 -12 7 32.11 1.72
0 12 -7 34.14 1.63
0 12 7 31.22 1.53
0 -12 -8 59.68 2.13
0 12 -8 62.23 2.13
0 -12 8 61.66 2.49
0 12 -8 58.56 2.28
0 12 -8 61.86 2.26
0 12 -8 55.9 1.6
0 12 -9 12.59 1.02
0 -12 -9 12.3 1.03
0 12 -9 10.14 1.03
0 -12 9 11.95 1.21
0 -12 10 2.81 0.84
0 12 -10 2.66 0.74
0 12 -10 3.85 0.75
0 -12 -10 3.32 0.75
0 12 -11 4.6 0.9
0 -12 -11 5.27 0.9
0 12 -11 4.51 0.9
0 -12 11 4.62 0.98
0 -12 -12 3.94 0.94
0 12 -12 2.9 0.88
0 12 -12 3.35 0.9
0 -12 12 2.58 0.95
0 12 -13 1.11 0.88
0 -12 -13 1.64 0.97
0 12 -13 1.09 0.83
0 12 -14 4.29 1.08
0 13 0 -0.02 0.29
0 -13 0 0.35 0.36
0 13 0 0.37 0.37
0 13 -1 372.91 7.64
0 -13 -1 365.71 8.06
0 13 1 373.06 7.83
0 13 -1 376 8.02
0 13 1 386.4 7.66
0 13 -2 0.19 0.34
0 -13 -2 0.59 0.34
0 13 2 0.56 0.33
0 -13 2 1.03 0.46
0 13 -3 67.54 1.94
0 13 -3 65.48 1.65
0 -13 -3 67.05 1.63
0 13 -3 70.28 2.26
0 -13 3 65.55 2.41
0 13 3 67.79 1.84
0 -13 -3 65 2
0 13 -4 1.74 0.33
0 13 -4 1.59 0.31
0 -13 -4 1.87 0.31
0 13 4 0.98 0.51
0 13 -4 1.91 0.48
0 -13 4 2.26 0.62
0 13 4 1.28 0.31
0 -13 -4 0.72 0.34
0 -13 -5 388.37 7.8
0 13 -5 382.57 7.8
0 13 -5 365.57 7.63
0 13 -5 395.66 8.02
0 13 5 393.25 8.49
0 -13 5 379.07 8.76
0 13 5 366.66 7.43
0 13 -5 394.68 8.42
0 -13 -6 0.18 0.35
0 13 -6 0.47 0.39
0 13 -6 0.18 0.27
0 13 6 -0.05 0.54
0 13 -6 0.09 0.55
0 -13 6 0.24 0.56
0 13 -7 1.94 0.34
0 13 -7 2.57 0.76
0 -13 7 2.9 0.8
0 13 -7 2.85 0.55
0 -13 -7 3.38 0.56
0 13 -8 3.59 0.41
0 13 -8 4.09 0.72
0 -13 8 4.97 0.87
0 -13 -8 4.09 0.67
0 13 -8 4.17 0.65
0 13 -9 80.87 2.66
0 -13 -9 85.86 2.75
0 13 -9 85.01 2.86
0 -13 9 74.53 3.01
0 -13 10 1.59 0.83
0 13 -10 2.41 0.68
0 -13 -10 2.77 0.78
0 13 -10 2.69 0.73
0 -13 11 0.28 0.78
0 -13 -11 0.23 0.65
0 13 -11 -0.51 0.7
0 13 -11 -0.25 0.69
0 -13 12 0.29 0.82
0 -13 -12 0.13 0.81
0 13 -12 0.44 0.76
0 13 -12 0.07 0.71
0 -13 -13 9.21 1.29
0 13 -13 9 1.23
0 13 -13 9.65 1.23
0 13 -14 -0.08 0.84
0 -14 0 618.36 12.85
0 14 0 608.7 12.54
0 14 0 631.22 12.23
0 14 -1 184.96 4.14
0 14 1 183.38 4.13
0 14 1 188.31 4.34
0 -14 -1 185.54 4.59
0 14 -1 184.8 4.49
0 14 -2 30.8 1.39
0 -14 -2 29.43 1.32
0 14 2 27.89 1.15
0 14 2 29.93 0.77
0 14 -2 30.4 1.16
0 14 -3 68.89 2
0 14 -3 65.93 1.64
0 -14 -3 67.19 1.63
0 -14 -3 63.11 2.05
0 14 -3 72.34 2.34
0 -14 3 67.48 2.53
0 14 3 68.49 1.9
0 -14 -4 251.69 5.81
0 14 -4 267.73 5.67
0 14 -4 263.17 5.54
0 -14 -4 268.08 5.55
0 14 4 289.21 6.54
0 -14 4 260.66 6.6
0 14 4 269.2 5.59
0 14 -4 284.77 5.92
0 14 -5 21.67 0.94
0 14 -5 18.85 0.86
0 -14 -5 21.68 0.94
0 14 5 24.85 1.38
0 -14 5 21.29 1.43
0 14 5 20.29 0.77
0 14 -5 22.39 1.31
0 14 -5 22.07 1.11
0 14 -6 58.39 1.69
0 14 -6 58.25 1.85
0 -14 -6 58.33 1.87
0 -14 6 58.96 2.47
0 14 -6 64.3 2.31
0 14 6 58.98 2.25
0 -14 7 13.28 1.26
0 -14 -7 16.02 0.98
0 14 -7 15.24 0.95
0 14 -8 33.82 1.47
0 -14 -8 33.07 1.48
0 14 -8 28.66 1.08
0 -14 8 32.24 1.89
0 14 -8 33.79 1.62
0 14 -9 2.25 0.69
0 -14 9 3.31 0.88
0 14 -9 2.93 0.68
0 -14 -9 1.56 0.63
0 -14 10 26.92 1.82
0 -14 -10 25.94 1.47
0 14 -10 25.86 1.47
0 14 -10 25.4 1.57
0 -14 11 4.23 1.01
0 14 -11 4.83 0.93
0 -14 -11 4.31 0.86
0 14 -11 5.14 0.92
0 -14 -12 1.02 0.84
0 14 -12 1.11 0.79
0 14 -12 0.89 0.75
0 -14 12 1.13 0.9
0 -14 -13 0.9 0.88
0 14 -13 0.6 0.79
0 14 -13 0.65 0.81
0 14 -14 7.41 1.22
0 15 0 0.07 0.33
0 -15 0 -0.14 0.41
0 15 0 0.1 0.39
0 15 -1 137.11 3.26
0 15 1 140.27 3.27
0 15 1 134.86 3.43
0 15 -1 130.51 3.55
0 -15 -1 134.02 3.67
0 -15 -2 495.07 10.14
0 15 2 495.73 9.82
0 15 -2 509.06 10.24
0 -15 2 467.68 9.12
0 15 2 477.38 9.1
0 15 -2 500.54 9.77
0 15 -3 22.19 1.05
0 15 -3 20.81 0.75
0 -15 -3 23.61 1.15
0 -15 3 23.15 1.45
0 15 3 23 0.99
0 15 -3 23.95 1.28
0 15 -4 19.44 0.9
0 -15 -4 18.37 0.77
0 15 -4 18.53 0.77
0 15 -4 19.37 1.03
0 -15 -4 18.44 1
0 15 4 19.97 1.28
0 15 4 19.65 0.86
0 -15 4 18.3 1.34
0 15 -5 80.05 2.16
0 -15 -5 83.03 2.18
0 15 -5 80.07 2.15
0 15 5 82.52 2.8
0 15 -5 88.7 2.48
0 -15 5 81.75 3.03
0 15 5 75.48 1.99
0 15 -5 85.15 2.74
0 15 -6 83.51 2.74
0 -15 6 76.39 2.94
0 -15 -6 76.5 2.19
0 15 -6 73.62 2.15
0 15 -6 72.6 2.03
0 -15 7 -0.07 0.58
0 15 -7 -0.37 0.43
0 -15 -7 0.24 0.43
0 -15 8 13.1 1.32
0 15 -8 12.72 0.72
0 15 -8 15.01 1
0 -15 -8 16.21 1.04
0 15 -9 27.41 1.03
0 -15 9 28.36 1.86
0 15 -9 33.72 1.72
0 15 -9 31.33 1.5
0 -15 -9 30.19 1.49
0 -15 10 13.86 1.44
0 -15 -10 14.08 1.17
0 15 -10 14.88 1.17
0 15 -10 15.88 1.31
0 -15 11 5.2 1.14
0 -15 -11 6.15 1.01
0 15 -11 4.1 0.86
0 15 -11 6.16 1.01
0 15 -12 5.7 1.01
0 15 -12 3.86 0.93
0 -15 -12 3.72 0.99
0 -15 12 2.59 1.08
0 -15 -13 0.14 0.9
0 15 -13 1.12 0.85
0 15 -13 0.51 0.76
0 15 -14 2.18 0.96
0 16 0 41.72 1.64
0 -16 0 42.08 1.83
0 16 0 42.28 1.44
0 16 -1 255.86 5.56
0 16 1 261.11 5.55
0 16 -1 257.22 5.94
0 16 1 253.11 5.76
0 -16 -1 255.32 6.08
0 16 2 1.79 0.14
0 -16 2 1.61 0.16
0 16 -2 2.83 0.5
0 16 2 2.27 0.46
0 16 2 2.01 0.47
0 -16 -2 2.43 0.51
0 16 -2 2.01 0.63
0 16 -3 236.42 5.21
0 -16 -3 224.77 5.37
0 -16 3 233.69 6
0 16 3 227.94 5.08
0 16 -3 225.17 5.54
0 -16 -4 12.91 0.64
0 16 -4 13.4 0.66
0 16 -4 13.31 0.78
0 16 -4 14.76 0.91
0 -16 -4 13.24 0.9
0 16 4 14.77 1.17
0 16 4 12.75 0.74
0 -16 4 13.81 1.19
0 16 -5 11.52 0.67
0 16 -5 10.77 0.7
0 -16 -5 10.44 0.66
0 -16 -5 10.77 0.78
0 16 -5 10.08 0.86
0 16 5 10.12 1.03
0 -16 5 10.64 1.14
0 16 5 10.91 0.62
0 16 -5 11.64 1.04
0 -16 -6 3.65 0.51
0 16 -6 3.91 0.5
0 16 -6 2.92 0.44
0 -16 6 1.6 0.74
0 -16 7 96.31 3.57
0 -16 -7 108.34 2.89
0 16 -7 102.69 2.84
0 16 -8 0.31 0.33
0 -16 -8 0.28 0.5
0 16 -8 0.19 0.5
0 -16 8 0.82 0.82
0 16 -9 1.13 0.37
0 16 -9 1.93 0.69
0 16 -9 2.94 0.67
0 -16 -9 2.16 0.64
0 -16 9 2.4 0.92
0 16 -10 0.98 0.68
0 -16 10 1.82 0.95
0 16 -10 1.78 0.68
0 -16 -10 1.59 0.69
0 -16 11 18.96 1.75
0 -16 -11 23.4 1.53
0 16 -11 24.04 1.53
0 16 -11 25.79 1.68
0 -16 12 0.49 0.99
0 16 -12 2.25 0.85
0 -16 -12 1.8 0.85
0 16 -12 1.21 0.81
0 16 -13 0.51 0.79
0 17 0 0.35 0.37
0 -17 0 0.26 0.49
0 17 0 0.91 0.5
0 17 -1 31.36 1.25
0 -17 -1 31.2 1.54
0 17 1 32.97 1.4
0 -17 1 32.6 1.7
0 17 -1 30.62 1.46
0 17 1 31.73 1.24
0 17 -2 250.37 5.59
0 17 2 261.63 5.6
0 17 2 257.37 5.7
0 -17 -2 246.5 5.98
0 17 -2 247.32 5.98
0 17 -3 20.07 1.08
0 -17 -3 21.03 1.19
0 -17 3 21.22 0.72
0 17 3 20.95 0.7
0 -17 3 20.65 1.43
0 17 3 22.06 1.05
0 17 -3 22.68 1.32
0 17 -4 36.31 1.36
0 17 -4 33.9 1.44
0 17 4 35.72 1.82
0 -17 -4 33.91 1.49
0 -17 4 33.09 1.89
0 17 4 34.65 1.29
0 -17 -5 21.81 1.12
0 17 -5 22.17 1.02
0 -17 -5 22.25 0.93
0 17 -5 21.29 0.93
0 17 5 23.53 0.95
0 -17 5 21.26 1.55
0 17 -6 118.3 2.99
0 -17 -6 118.63 3
0 17 -6 112.43 2.9
0 -17 6 125.07 4.06
0 -17 -7 10.43 0.82
0 17 -7 11.24 0.81
0 17 -7 10.29 0.69
0 -17 7 9.51 1.18
0 -17 8 50.08 2.48
0 -17 -8 51.34 1.85
0 17 -8 48.88 1.79
0 -17 9 0.48 0.81
0 17 -9 0.87 0.63
0 17 -9 0.77 0.36
0 -17 -9 1.21 0.62
0 17 -9 0.96 0.55
0 17 -10 7.35 1
0 17 -10 6.61 0.9
0 -17 10 7.34 1.2
0 -17 -10 8.02 0.98
0 -17 11 1.01 0.95
0 17 -11 0.71 0.73
0 -17 -11 0.61 0.72
0 17 -11 1.6 0.79
0 17 -12 9.89 1.18
0 17 -12 13.28 1.37
0 -17 12 14.08 1.64
0 17 -13 0.22 0.8
0 18 0 340.01 7.59
0 -18 0 335.01 7.98
0 18 0 350.98 7.26
0 18 -1 217.62 4.88
0 18 -1 211.69 5.23
0 -18 1 213.28 5.65
0 18 1 211.76 5.09
0 -18 -1 215.54 5.45
0 18 1 219.28 4.86
0 18 -2 67.64 2.13
0 18 2 75.3 2.17
0 18 -2 72.77 2.46
0 18 2 71.57 2.23
0 -18 -2 68.46 2.44
0 18 -3 114.94 2.99
0 18 -3 110.06 3.27
0 18 3 116.17 2.91
0 18 3 106.33 2.28
0 -18 -3 116.36 3.26
0 18 4 81.92 2.31
0 -18 4 82.78 3.16
0 -18 -4 83.17 2.61
0 18 5 16.61 0.84
0 -18 5 17.76 1.5
0 18 -5 16.19 0.91
0 -18 -5 16.46 1.03
0 18 -6 4.59 0.55
0 -18 -6 5.47 0.58
0 18 -6 4.11 0.53
0 18 6 4.81 0.48
0 -18 6 4.34 0.96
0 -18 7 46.63 2.38
0 -18 -7 46.91 1.66
0 18 -7 43.69 1.49
0 18 -7 42.13 1.59
0 -18 8 43.24 2.38
0 -18 -8 44.77 1.74
0 18 -8 44.88 1.73
0 18 -9 1.66 0.42
0 18 -9 1.89 0.71
0 18 -9 2.25 0.66
0 -18 -9 2.11 0.67
0 -18 9 0.59 0.86
0 18 -10 3.04 0.85
0 -18 10 1.11 0.96
0 18 -10 1.94 0.71
0 -18 -10 3.07 0.77
0 -18 11 10.31 1.44
0 18 -11 11.37 1.15
0 18 -11 14.21 1.35
0 18 -12 3.93 1.02
0 -18 12 2.75 1.1
0 18 -13 0.6 0.82
0 19 0 0.29 0.44
0 -19 0 0.17 0.54
0 19 0 0.29 0.52
0 19 -1 126.49 3.61
0 -19 -1 131.28 3.85
0 -19 1 133.02 4.05
0 19 1 131.64 3.55
0 19 1 128.56 3.26
0 19 -1 132.59 3.32
0 19 -2 4.43 0.65
0 19 2 4.89 0.64
0 19 2 4.64 0.68
0 -19 -2 5.15 0.77
0 19 -2 3.91 0.75
0 -19 -3 118.81 3.27
0 19 3 100.21 2.11
0 -19 3 95.67 2.12
0 19 3 115.76 2.91
0 -19 -4 24.32 1.33
0 19 4 24.36 1.13
0 -19 4 22.15 1.62
0 19 4 23.09 0.83
0 -19 4 21.85 0.84
0 19 5 149.71 3.56
0 -19 5 153.31 4.78
0 -19 -5 154.05 3.97
0 19 -5 146.79 3.71
0 -19 6 2.79 0.95
0 19 6 2.8 0.46
0 19 -6 4.22 0.55
0 19 -7 3.58 0.59
0 -19 7 3.32 0.97
0 19 -7 3.35 0.53
0 19 -8 14.11 0.97
0 -19 8 13.85 1.46
0 -19 9 42.51 2.42
0 19 -9 45.3 1.79
0 -19 10 1.78 1.04
0 19 -10 1.88 0.72
0 19 -10 1.45 0.77
0 19 -11 0.99 0.78
0 -19 11 1.81 1.06
0 19 -12 0.07 0.79
0 -19 12 0.64 1.05
0 19 -13 3.45 1
0 20 0 17.31 0.96
0 20 0 14.83 1.08
0 -20 0 13.72 1.18
0 20 -1 8.62 0.92
0 -20 -1 7.87 0.91
0 20 1 7.41 0.82
0 -20 1 7.35 0.98
0 -20 -2 8.95 0.95
0 20 2 7.75 0.82
0 -20 -3 7.6 0.87
0 20 3 8.08 0.79
0 -20 -4 174.43 4.44
0 -20 4 165.51 5.05
0 20 4 167.34 4.02
0 -20 4 156.25 3.48
0 20 4 163.34 3.47
0 20 5 5.95 0.52
0 -20 -5 6.19 0.83
0 -20 5 5.69 1.1
0 20 -5 6.98 0.72
0 20 5 7.15 0.68
0 20 6 79.43 2.13
0 20 -6 80.46 2.36
0 -20 6 86.85 3.43
0 20 -7 1.41 0.45
0 -20 7 1.72 0.92
0 -20 8 19.56 1.8
0 -20 9 2.27 1.01
0 20 -9 1.24 0.46
0 20 -10 14.85 1.37
0 -20 10 14.58 1.67
0 -20 11 -0.06 0.74
0 -20 11 -0.09 0.97
0 20 -11 -0.43 0.8
0 -20 12 -0.1 1.02
0 20 -12 -0.53 0.81
0 20 -13 1.33 0.91
0 -21 0 0.63 0.67
0 21 0 -0.14 0.64
0 21 1 232.14 5.62
0 -21 -1 236.75 6.05
0 -21 1 234.09 6.24
0 21 2 77.48 2.47
0 -21 2 75.63 3.04
0 -21 -2 76.33 2.76
0 -21 -3 40.78 1.89
0 21 3 42.74 1.68
0 -21 4 2.33 0.88
0 -21 -4 2.98 0.72
0 21 4 2.43 0.58
0 21 4 2.22 0.32
0 -21 4 1.84 0.3
0 -21 5 54.62 1.6
0 21 5 55.99 1.59
0 21 -5 55.04 1.95
0 -21 5 62.09 2.83
0 21 5 56.66 1.83
0 -21 -5 62.18 2.26
0 -21 6 33.23 2.14
0 21 -6 29.33 1.31
0 21 -7 2.21 0.54
0 -21 7 3.58 1.07
0 -21 8 3.95 1.14
0 21 -9 10.99 0.78
0 -21 9 13.49 1.58
0 -21 10 1.14 1.12
0 21 -10 1.8 0.81
0 -21 11 0.58 1.04
0 21 -11 1.02 0.83
0 21 -12 1.08 0.87
0 -22 0 9.21 1.11
0 22 1 100.97 3.04
0 -22 -1 97.57 3.36
0 -22 1 101 3.58
0 -22 2 14.17 1.35
0 22 2 15.82 1.12
0 -22 -2 16.39 1.24
0 22 3 78.45 2.46
0 -22 -3 74.25 2.73
0 -22 4 13.87 1.41
0 22 4 15.34 1.01
0 22 4 11.94 0.47
0 -22 4 12.45 0.48
0 -22 5 19.88 0.84
0 22 -5 21.6 1.19
0 22 5 22.39 1.13
0 -22 5 23.92 1.84
0 -22 -5 21.32 1.37
0 -22 6 16.72 0.89
0 -22 6 20.59 1.76
0 22 -6 17.63 1.04
0 -22 7 51.28 2.74
0 22 -7 49.94 1.76
0 -22 8 1.71 1.1
0 -22 9 -0.58 1.03
0 22 -9 0.09 0.43
0 -22 10 4.53 0.93
0 22 -10 2.84 0.88
0 -22 10 3.05 1.2
0 -22 11 14.86 1.79
0 22 -11 16.66 1.53
0 22 -12 0.7 0.82
0 -23 0 -0.35 0.66
0 -23 -1 1.25 0.71
0 -23 1 0.37 0.69
0 -23 2 145.27 4.64
0 23 2 143.18 3.88
0 -23 -2 141.87 4.26
0 23 3 9.63 0.93
0 -23 -3 8.1 1.01
0 23 4 15.45 1.07
0 -23 -4 16.46 1.26
0 -23 5 0.27 0.91
0 -23 -5 0.75 0.69
0 23 -5 1.04 0.56
0 -23 5 0.59 0.31
0 -23 6 46.7 2.61
0 23 -6 40.35 1.65
0 23 -7 2.98 0.61
0 -23 7 3.18 1.1
0 -23 8 18.99 1.86
0 -23 9 -0.06 0.7
0 -23 9 -0.6 1.03
0 -23 10 3.19 0.88
0 23 -10 3.63 0.96
0 -23 10 2.34 1.17
0 23 -11 2.53 0.97
0 -24 0 53.16 2.49
0 -24 -1 63.13 2.67
0 -24 1 62.99 2.79
0 -24 -2 0.65 0.7
0 -24 2 0.58 0.74
0 24 3 75.95 2.52
0 -24 -3 77.81 2.89
0 24 4 33.12 1.54
0 -24 -4 36.7 1.86
0 -24 5 0.71 0.27
0 24 -5 0.79 0.56
0 -24 -5 0.11 0.67
0 -24 5 0.66 0.85
0 24 -6 0.57 0.53
0 -24 6 0.97 0.97
0 -24 7 26.12 2.08
0 24 -7 26.76 1.29
0 -24 8 8.13 1.02
0 -24 8 7.91 1.43
0 -24 9 1.18 0.76
0 -24 9 -0.1 1.01
0 24 -10 0.82 0.84
0 -24 10 -0.31 1.09
0 24 -11 5.44 1.11
0 -25 0 0.46 0.73
0 -25 1 46.15 2.4
0 -25 -1 45.88 2.29
0 -25 2 39.82 2.32
0 -25 -2 44.45 2.18
0 -25 3 1.8 0.88
0 -25 -3 1.6 0.73
0 -25 -4 11.63 1.2
0 25 -5 30.78 1.46
0 -25 5 33.94 2.23
0 25 -6 0.52 0.55
0 -25 6 0.1 0.92
0 -25 7 0.38 0.72
0 -25 7 0.41 1.02
0 -25 8 6.19 0.99
0 -25 8 6.89 1.45
0 -25 9 15.35 1.84
0 -25 9 15.39 1.34
0 25 -10 -0.08 0.8
0 25 -11 -0.16 0.9
0 -26 0 142.45 4.61
0 -26 -1 1.93 0.88
0 -26 1 1.84 0.94
0 -26 -2 2.25 0.85
0 -26 2 1.85 0.94
0 -26 -3 0.33 0.69
0 -26 3 1.39 0.93
0 -26 -4 60.81 2.48
0 26 -4 46.98 1.98
0 -26 5 5.14 1.25
0 26 -5 4.02 0.74
0 26 -6 5.52 0.8
0 -26 6 6.94 1.42
0 -26 6 5.66 0.95
0 -26 7 0.32 0.95
0 -26 7 -0.29 0.75
0 -26 8 9.55 1.57
0 -26 8 10.24 1.16
0 26 -10 9.25 1.3
0 -27 0 0.41 0.83
0 -27 1 64.55 2.98
0 -27 -1 61.29 2.77
0 -27 2 25.21 1.96
0 -27 -2 24.95 1.75
0 -27 -3 5.12 1.01
0 -27 3 4.03 1.19
0 27 -4 1.83 0.68
0 -27 -4 1.87 0.85
0 27 -5 52.42 2.09
0 -27 6 0.21 0.99
0 27 -6 -0.14 0.62
0 -27 6 0.64 0.75
0 -27 7 0.48 0.78
0 -27 7 0.22 1.11
0 -27 8 0.78 0.79
0 -27 8 0.77 1.2
0 27 -10 4.93 1.12
0 -28 0 17.3 1.65
0 -28 1 8.24 1.33
0 -28 -1 9.17 1.26
0 -28 -2 0.38 0.76
0 -28 2 0.57 0.89
0 -28 -3 34.08 2.02
0 -28 3 34.81 2.36
0 28 -4 25.01 1.47
0 -28 -4 25.81 1.77
0 28 -5 7.25 0.92
0 -28 6 13.63 1.27
0 -28 6 18.06 1.94
0 -28 7 17.57 1.48
0 -28 7 21.26 2.12
0 -29 0 1.13 0.9
0 -29 1 -0.37 0.91
0 -29 -1 -0.17 0.82
0 -29 -2 31.42 2.06
0 -29 2 39.34 2.46
0 -29 -3 2.97 0.96
0 -29 3 0.71 1.04
0 29 -4 1.15 0.67
0 -29 -4 1.7 0.89
0 -29 4 1.06 1.09
0 29 -5 1.34 0.71
0 -29 6 10.3 1.61
0 -30 0 1.17 0.92
0 -30 -1 23.5 1.84
0 -30 1 25.34 2.04
0 -30 2 2.88 1.14
0 -30 -2 2.09 0.95
0 -30 -3 51.48 2.58
0 -30 3 51.13 2.92
0 30 -4 1.06 0.71
0 -30 -4 0.07 0.86
0 -30 4 0.11 1.04
0 30 -5 0.05 0.65
0 -31 0 0.28 0.93
0 -31 1 10.88 1.51
0 -31 -1 11.36 1.46
0 -31 2 18.36 1.9
0 -31 -2 17.42 1.69
0 -31 -3 7.08 1.26
0 -31 3 4.16 1.28
0 31 -4 1.9 0.76
0 -31 4 3.21 1.29
0 -32 0 24.74 2.06
0 -32 -1 0.45 0.96
0 -32 1 0.5 1.05
0 -32 2 -0.1 1.05
0 -32 -2 -0.86 1.01
0 -32 -3 0.08 0.93
0 -32 3 0.76 1.1
0 32 -4 11.91 1.16
0 -33 0 0.39 0.99
0 -33 1 17.97 1.89
0 -33 -1 17.87 1.8
0 -33 -2 0.18 0.96
0 -33 2 -1.07 1.15
0 -33 -3 5.47 1.23
0 -34 0 13.76 1.72
0 -34 -1 1.61 1.08
0 -34 -2 1.08 1.04
0 -34 -3 1.95 1.08
0 34 -3 1.91 0.79
0 -35 -1 1.26 1.13
0 -35 -2 7.13 1.38
1 0 -14 7.18 1.32
1 0 -13 0.35 0.86
1 0 -13 -0.75 0.92
1 0 -12 12.58 1.36
1 0 -12 12.4 1.37
1 0 -11 0.67 0.39
1 0 -11 0.36 0.7
1 0 -10 49.96 2.24
1 0 -10 46.17 1.48
1 0 -9 -0.23 0.56
1 0 -9 0.08 0.37
-1 0 8 2.34 0.47
1 0 -8 3.08 0.65
1 0 -8 2.82 0.51
-1 0 7 0.82 0.42
1 0 -7 0.82 0.48
1 0 -6 359.1 7.45
-1 0 6 366.79 7.55
1 0 -5 0.14 0.26
1 0 -5 -0.2 0.3
-1 0 5 -0.23 0.3
1 0 -4 77.02 2.13
-1 0 4 76.04 2
1 0 -4 73.3 1.91
-1 0 3 0.16 0.21
1 0 -3 0.07 0.2
-1 0 2 9999 181.9
1 0 -2 9611.08 182.19
1 0 -2 9639.99 182.18
1 0 -1 0.08 0.15
1 0 -1 -0.06 0.15
1 0 -1 0.01 0.13
-1 0 0 201.8 4.16
1 0 0 202.01 4.08
-1 0 -1 0.18 0.18
1 0 2 987.88 18.47
1 0 3 0.02 0.22
1 0 3 0.07 0.13
1 0 4 13.18 0.56
-1 0 -4 14.15 0.64
1 0 4 13.58 0.65
1 0 5 0.04 0.22
1 0 5 0.35 0.24
-1 0 -5 0.02 0.24
1 0 6 237.2 5.02
-1 0 -6 220.67 5.35
-1 0 -6 239.01 5.19
1 0 6 231.58 5
1 0 7 -0.05 0.36
1 0 7 0.34 0.35
-1 0 -7 -0.17 0.4
-1 0 -7 1.01 0.49
-1 0 -8 92.96 2.83
-1 0 -8 99.08 2.72
1 0 8 90.98 2.32
1 0 9 0.13 0.24
1 0 9 0.17 0.39
-1 0 -9 0.43 0.51
-1 0 -9 0.33 0.6
-1 0 -10 47.98 2.19
-1 0 -10 48.76 2.1
1 0 10 46.9 1.6
-1 0 -11 0.19 0.66
1 0 11 0.02 0.41
-1 0 -12 13 1.32
1 0 13 -1.07 1.01
-1 -1 14 3.18 1
1 -1 -14 3.5 1.1
1 1 -14 1.88 1.03
1 -1 -13 0.18 0.82
1 1 -13 1.29 0.9
1 -1 -13 0.41 0.91
1 1 -13 0.74 0.95
1 1 -12 8.5 1.18
1 -1 -12 5.57 1.09
1 1 -12 7.34 1.15
1 -1 -12 5.85 1.11
1 -1 -11 28.32 0.9
-1 -1 11 26.05 0.86
1 -1 -11 33.09 1.88
1 1 -11 35.56 1.9
1 1 -10 4.81 0.83
1 -1 -10 5.48 0.9
1 -1 -10 5.47 0.5
1 1 -10 2.74 0.48
-1 1 9 0.07 0.42
1 -1 -9 0.23 0.53
1 1 -9 0.17 0.49
1 1 -9 0.12 0.42
1 -1 -9 0.02 0.36
1 -1 -8 30.25 1.16
1 1 -8 31.5 1.31
-1 1 8 33.18 1.33
1 1 -8 28.4 1.5
1 -1 -7 274.62 5.78
1 1 -7 272.45 5.93
-1 1 7 266.77 6.09
-1 1 7 261.51 5.85
1 -1 -6 2.72 0.42
1 1 -6 2.46 0.47
-1 1 6 2.08 0.49
-1 1 6 1.82 0.43
1 1 -5 55.59 1.63
-1 -1 5 55.87 1.63
-1 1 5 59.58 1.74
1 -1 -5 53.6 1.53
1 1 -5 50.02 1.78
1 -1 -5 59.65 1.87
-1 1 4 214.88 4.44
1 1 -4 199.42 4.32
1 -1 -4 201.99 4.55
1 1 -4 204.58 4.52
-1 1 3 189.44 3.89
1 1 -3 170.12 3.89
1 -1 -3 177.2 3.96
-1 -1 3 175.56 3.45
1 1 -2 0.99 0.26
1 -1 -2 0.63 0.26
1 -1 -2 0.93 0.23
1 1 -2 0.59 0.25
-1 1 2 0.53 0.21
-1 -1 2 0.64 0.18
1 -1 -1 469.44 9.17
1 -1 -1 477.79 9.02
1 1 -1 463.14 8.99
1 -1 -1 478.79 9.12
1 -1 0 568.8 10.93
-1 -1 0 571.56 11.01
-1 1 0 581.33 11.01
1 -1 0 594.24 10.96
-1 1 0 567.5 10.67
1 -1 0 563.75 10.68
1 -1 0 581.5 10.8
1 -1 1 130.8 2.63
-1 1 -1 136.52 2.95
-1 -1 -1 137 2.94
1 -1 1 129.31 2.71
1 1 2 37.28 0.96
1 -1 3 1070.45 20.24
1 1 3 1063.38 20.34
1 -1 3 1021.99 20.57
-1 1 -4 121.96 2.66
1 1 4 110.94 2.68
1 -1 4 121.23 2.82
1 -1 4 121.01 2.59
1 1 4 118.58 2.65
-1 1 -5 3.83 0.4
-1 -1 -5 4.77 0.46
1 1 5 3.97 0.39
1 -1 5 4.44 0.43
1 -1 5 4.34 0.37
1 1 5 4.09 0.39
1 1 6 47.94 1.42
1 -1 6 48.1 1.51
-1 -1 -6 46.51 1.73
-1 1 -6 42.87 1.66
-1 1 -6 49.55 1.55
-1 -1 -6 50.05 1.66
1 -1 6 46.02 1.42
1 1 6 47.4 1.48
1 -1 7 248.26 5.14
1 1 7 250.69 4.99
-1 -1 -7 256.24 5.61
-1 1 -7 256.49 5.61
-1 1 -7 260.55 5.33
-1 -1 -7 271.71 5.53
1 1 7 269.51 5.22
1 -1 8 34.96 1.31
1 1 8 34.8 1.19
-1 -1 -8 35.99 1.64
-1 1 -8 33.81 1.61
-1 -1 -8 35.9 1.56
-1 1 -8 34.92 1.47
1 1 8 36.44 1.37
1 1 9 13.44 0.77
1 -1 9 12.09 0.84
1 1 9 9.34 0.54
-1 -1 -9 13.07 1.11
-1 1 -9 12.1 1.07
1 -1 9 15.85 0.99
-1 1 -9 14.1 1.04
-1 -1 -9 13.76 1.07
1 1 9 14.22 0.93
-1 -1 -10 28.72 1.68
-1 1 -10 29.46 1.69
1 -1 10 32.52 1.43
-1 -1 -10 31.07 1.68
-1 1 -10 31.47 1.59
1 1 10 27.16 1.08
1 -1 10 28.21 1.27
-1 1 -11 24.99 1.56
-1 -1 -11 26.09 1.66
1 -1 11 22.04 1.11
-1 1 -12 -0.61 0.71
-1 -1 -12 -0.29 0.82
1 -1 12 0.66 0.89
-1 1 -13 3.27 0.99
1 -1 13 5.36 1.27
1 2 -14 0.66 0.9
1 -2 -14 0.4 0.95
-1 -2 14 0.4 0.84
1 -2 -13 2.72 1.05
1 -2 -13 2.96 0.95
1 2 -13 2.38 0.96
-1 -2 13 3.02 0.9
1 -2 -12 9.37 1.29
1 -2 -12 11.71 1.34
1 2 -12 12.22 1.3
-1 -2 11 0.17 0.25
1 2 -11 0.42 0.67
1 -2 -11 -0.22 0.69
1 -2 -11 0.19 0.2
-1 -2 10 5.91 0.39
1 -2 -10 6.07 0.44
1 2 -10 8.61 1.01
1 -2 -10 7.14 0.97
-1 2 10 7.22 0.74
1 -2 -9 74.34 1.9
1 -2 -9 75.35 2.79
1 2 -9 75.33 2.72
-1 2 9 80.51 2.36
1 -2 -8 30.04 1.04
1 2 -8 27.33 1.43
-1 2 8 33.93 1.47
-1 2 8 29.8 1.25
1 -2 -7 3.53 0.48
1 2 -7 2.71 0.56
-1 2 7 2.2 0.47
-1 2 7 3.3 0.6
1 -2 -6 161.17 3.59
1 2 -6 162.15 3.84
-1 2 6 163.2 4
-1 2 6 164.78 3.87
1 2 -5 585.57 11.77
1 -2 -5 578.02 11.52
1 2 -5 606.33 11.82
-1 2 5 614.98 11.84
1 -2 -5 599.85 12.09
-1 2 4 30.91 1.11
1 2 -4 27.28 1.03
1 2 -4 24.59 1.01
1 -2 -4 27.46 1.13
1 2 -4 28.45 1.11
1 2 -3 150.06 3.34
-1 2 3 156.82 3.35
1 2 -3 145.56 3.37
1 -2 -3 153.39 3.45
-1 -2 3 145.24 2.87
1 -2 -2 253.44 5.46
1 2 -2 269.75 5.1
-1 -2 1 31.04 0.68
1 2 -1 29.56 0.79
1 -2 -1 30.36 0.9
1 -2 0 232.8 4.65
-1 2 0 233.03 4.72
1 -2 0 239.69 4.68
-1 2 0 234.12 4.44
1 -2 0 228.01 4.45
-1 2 0 229.93 4.5
1 -2 0 229.78 4.52
1 -2 1 1143.94 21.44
-1 2 -1 1136.93 21.45
1 -2 1 1161.87 21.51
-1 2 -1 1137.63 21.68
1 2 1 1145.55 21.69
-1 2 -1 1160 21.74
1 -2 2 406.22 7.85
1 -2 2 405.54 7.71
1 2 2 406.37 8.05
1 -2 2 400.45 8.08
1 -2 3 11.58 0.6
1 2 3 10.57 0.59
1 -2 3 9.58 0.3
1 -2 3 10.61 0.51
-1 2 -3 11.08 0.39
1 2 3 9.86 0.48
1 -2 3 11.79 0.61
1 -2 4 109.65 2.66
1 2 4 103.94 2.48
-1 2 -4 112.54 2.41
1 2 4 105.01 2.48
1 -2 4 106.47 2.57
1 -2 5 494.55 3.88
1 2 5 463.4 3.16
-1 2 -5 488.84 3.33
1 2 5 484.31 3.47
1 2 6 13.68 0.66
1 -2 6 15.43 0.81
-1 -2 -6 14.88 0.92
-1 -2 -6 14.24 0.87
-1 2 -6 14.08 0.75
1 2 6 13.99 0.76
-1 -2 -7 2.31 0.52
1 2 7 0.68 0.43
1 -2 7 1.75 0.46
-1 -2 -7 1.26 0.46
-1 2 -7 1.95 0.42
1 -2 7 1.55 0.41
1 2 7 1.93 0.37
1 2 8 86.88 2.24
1 -2 8 83.42 2.51
1 -2 8 90.88 2.53
-1 -2 -8 86.91 2.86
-1 -2 -8 89.88 2.84
-1 2 -8 90.14 2.65
1 2 8 97.98 2.61
1 -2 9 36.55 1.5
1 2 9 37.62 1.23
1 -2 9 40.8 1.55
-1 -2 -9 36.56 1.78
-1 -2 -9 40.6 1.81
-1 2 -9 37.97 1.63
1 2 9 40.76 1.57
-1 -2 -10 4.97 0.9
1 -2 10 2.79 0.63
-1 2 -10 3.68 0.75
-1 -2 -10 3.76 0.82
1 -2 10 3.48 0.64
1 2 10 3.72 0.45
1 2 10 2.63 0.41
1 2 10 4.16 0.73
-1 -2 -11 7.39 1.07
-1 2 -11 6.44 0.94
1 -2 11 7.43 1.07
1 -2 11 5.37 0.73
-1 2 -12 8.43 1.13
1 -2 12 11.69 1.32
-1 2 -13 9.65 1.28
1 -2 13 19.71 1.68
-1 2 -14 -0.39 0.81
1 -3 -14 4.43 1.18
1 3 -14 2.2 0.97
-1 -3 14 4.31 1.05
1 3 -13 -0.08 0.81
1 -3 -13 0.83 0.88
-1 -3 13 0.12 0.84
1 -3 -13 -0.82 0.87
-1 -3 12 11.57 1.18
1 -3 -12 10.93 1.33
1 -3 -12 10.56 1.31
1 3 -12 11.43 1.26
1 3 -11 1.49 0.55
-1 -3 11 0.57 0.14
1 3 -11 1.05 0.72
1 -3 -11 0.38 0.67
1 3 -10 23.13 1.15
1 -3 -10 16.14 0.51
-1 3 10 21.89 1.13
-1 -3 10 14.14 0.48
1 -3 -10 20.46 1.47
1 3 -10 23.54 1.49
1 -3 -9 0.85 0.32
-1 3 9 1.25 0.57
1 -3 -9 0.73 0.6
1 3 -9 1.34 0.6
-1 -3 9 0.82 0.22
-1 3 8 168.42 3.63
1 -3 -8 161.67 3.06
-1 3 8 172.12 3.88
1 3 -8 160.95 4.03
1 3 -7 0.03 0.27
1 -3 -7 1.91 0.38
-1 3 7 1.77 0.45
-1 3 7 1 0.48
-1 -3 7 1.51 0.15
1 -3 -6 48.77 1.34
-1 3 6 43.33 1.56
1 3 -6 46.57 1.61
-1 3 6 46.91 1.69
1 3 -5 8.18 0.59
-1 3 5 9.78 0.69
1 3 -5 8.18 0.64
1 -3 -5 6.69 0.64
1 3 -4 1178.87 23.09
-1 3 4 1264.1 23.14
1 3 -4 1187.63 23.1
1 -3 -4 1213.29 23.34
1 3 -4 1197.92 23.22
-1 3 3 2.85 0.36
1 -3 -3 2.56 0.34
-1 -3 3 1.95 0.24
1 3 -3 2.69 0.39
-1 -3 2 38.63 0.97
1 -3 -2 37.48 1.21
1 3 -2 41.03 0.91
1 3 -1 130.11 2.63
-1 -3 1 136.17 2.62
1 -3 -1 134.08 2.89
-1 3 0 2777.75 51.98
-1 3 0 2828.73 51.98
-1 3 0 2805.6 51.74
1 3 0 2785.19 51.67
1 -3 0 2775.85 51.83
-1 3 0 2751.26 51.79
1 3 1 24 0.8
-1 3 -1 25.04 0.84
-1 3 -1 24.57 0.69
1 -3 1 23.24 0.66
-1 3 -1 23.39 0.67
-1 3 -1 24.06 0.82
1 -3 1 21.92 0.84
1 -3 2 228.01 4.6
-1 3 -2 231.82 4.78
1 -3 2 228.89 4.87
1 3 2 228.59 4.79
1 -3 3 22.3 0.9
1 3 3 22.21 0.88
1 -3 3 21.87 0.86
1 -3 3 21.94 0.78
1 3 3 21.65 0.81
-1 3 -3 22.03 0.61
1 -3 4 605.72 11.69
1 -3 4 589.8 11.53
1 -3 4 595.64 11.62
1 -3 4 578.61 11.5
1 3 4 569.42 11.46
-1 3 -4 593.05 11.29
1 -3 5 0.54 0.38
1 -3 5 0.45 0.31
1 3 5 -0.08 0.26
1 -3 5 0.07 0.28
-1 3 -5 -0.37 0.28
1 3 5 0.13 0.28
1 -3 5 -0.11 0.17
1 -3 6 90.74 2.53
1 3 6 95.4 2.23
-1 3 -6 92.61 2.38
1 3 6 92.58 2.43
1 -3 7 11.39 0.78
1 3 7 10.99 0.58
-1 3 -7 11.39 0.73
1 3 7 10.85 0.76
-1 -3 -7 11.5 0.9
1 -3 7 11.42 0.74
1 3 8 69.62 1.88
1 -3 8 72.51 2.3
-1 -3 -8 76.28 2.58
1 -3 8 79.55 2.25
-1 3 -8 75.66 2.32
-1 -3 -8 76.7 2.6
1 3 8 75.82 2.27
1 -3 9 -0.16 0.46
1 3 9 0.27 0.31
1 -3 9 -0.23 0.51
-1 -3 -9 0.22 0.54
-1 3 -9 -0.3 0.53
-1 -3 -9 -0.06 0.54
1 -3 9 -0.29 0.59
1 3 9 -0.04 0.51
1 -3 10 33.05 1.48
1 3 10 24.45 0.82
1 3 10 23.25 0.98
1 -3 10 35.01 1.75
-1 3 -10 35.7 1.63
1 3 10 36.05 1.54
1 -3 10 34.55 1.41
-1 -3 -10 31.03 1.72
1 -3 11 4 0.69
1 -3 11 3.79 0.66
1 -3 11 4.81 0.95
-1 3 -11 3.4 0.81
1 -3 12 1.6 0.92
-1 3 -12 0.82 0.72
1 -3 13 0.39 1.01
-1 3 -13 0.35 0.8
-1 3 -14 4.28 1.09
-1 -4 14 1.22 0.88
1 4 -14 0.36 0.9
1 -4 -14 2.06 1.1
-1 -4 13 11.06 1.23
1 -4 -13 8.59 1.35
1 -4 -13 11.33 1.45
1 4 -13 10.07 1.33
-1 -4 12 1.79 0.76
1 -4 -12 1.84 0.9
1 4 -12 1.76 0.82
1 -4 -12 1.47 0.88
1 4 -11 -0.21 0.65
1 -4 -11 -0.31 0.7
-1 -4 11 -0.26 0.68
1 4 -11 0.07 0.52
1 -4 -10 4.97 0.95
1 4 -10 5.04 0.85
-1 -4 10 5.08 0.8
1 4 -10 5.56 0.76
-1 4 10 4.91 0.71
1 4 -9 123.58 3.51
1 -4 -9 116.43 3.59
-1 4 9 130.06 3.08
1 4 -9 121.41 3.08
-1 4 8 12.08 0.87
1 -4 -8 10.83 0.53
1 4 -8 11.01 1
-1 4 8 11.78 1
-1 4 7 44.68 1.61
1 -4 -7 44.83 1.3
-1 4 7 45.01 1.74
1 -4 -6 19.21 0.64
1 4 -6 18.99 0.87
-1 4 6 19.39 0.92
-1 4 6 17.88 0.95
1 -4 -6 18.95 1.07
1 4 -5 462.13 9.13
-1 4 5 451.43 9.2
1 -4 -5 426.39 9.4
1 4 -5 447.55 9.2
-1 -4 4 13.03 0.63
1 4 -4 11.99 0.67
1 -4 -4 13.33 0.8
1 4 -4 13.01 0.77
1 -4 -3 244.86 5.22
-1 -4 3 234.61 4.84
-1 -4 2 77.46 1.71
1 -4 -2 77.15 2.02
1 4 -1 232.01 4.49
-1 -4 1 236.46 4.49
1 -4 -1 229.7 4.78
-1 4 1 222.51 4.71
-1 4 0 131.77 2.83
-1 4 0 130.93 2.66
-1 4 0 128.7 2.7
1 4 0 126.97 2.58
-1 4 0 131.7 2.83
-1 4 -1 1275.54 24.01
1 4 1 1260.42 23.96
-1 4 -1 1267.14 24.02
-1 4 -1 1272.09 23.82
1 -4 1 1273.53 23.79
-1 4 -1 1255.9 23.81
-1 4 -1 1272.4 23.72
1 -4 1 1289.5 24.12
1 4 2 24.25 0.85
-1 4 -2 21.77 0.6
-1 4 -2 22.52 0.75
1 -4 2 22.75 0.74
-1 4 -2 23.03 0.85
1 -4 2 22.05 0.88
1 -4 3 164.06 3.69
1 -4 3 160.05 3.56
1 -4 3 160.17 3.5
1 4 3 160.99 3.61
-1 4 -3 176.35 3.74
1 -4 3 159.07 3.46
1 4 3 161.98 3.6
-1 4 -3 155.32 3.21
1 -4 4 67.56 1.95
1 -4 4 64.69 1.77
1 -4 4 67.28 1.86
-1 4 -4 71.04 1.97
1 -4 4 66.1 1.8
1 4 4 67.99 1.84
-1 4 -4 65.42 1.59
1 -4 5 753.79 4.96
1 4 5 725.6 3.7
-1 4 -5 712.66 4.9
1 -4 5 769.39 4.83
1 -4 5 769.24 5.25
-1 4 -5 761.34 4.04
1 4 5 741.34 4.7
1 -4 6 34.71 1.34
-1 4 -6 35.38 1.22
1 4 6 36.84 1.33
1 -4 6 35.45 1.4
1 4 6 37.23 1.08
1 -4 7 0.19 0.38
-1 -4 -7 0.13 0.46
-1 4 -7 0.14 0.3
1 4 7 -0.18 0.4
1 -4 7 -0.35 0.41
1 4 7 0.22 0.24
1 -4 7 0.39 0.38
1 -4 8 22.81 1.23
1 -4 8 21.7 1.05
-1 -4 -8 20.75 1.26
-1 4 -8 20.26 1.08
1 4 8 23.27 1.16
1 -4 8 19.85 1.14
1 4 8 20.38 0.76
1 4 9 69.72 1.71
1 -4 9 72.3 2.45
1 -4 9 81.5 2.63
-1 -4 -9 74.55 2.69
1 -4 9 79.79 2.27
-1 4 -9 77.4 2.45
1 4 9 86.55 2.5
1 -4 10 9.52 0.93
1 -4 10 9.9 1.04
1 -4 10 9.25 0.81
-1 4 -10 10.94 0.99
1 4 10 10.59 0.99
1 -4 11 12.96 1.23
-1 4 -11 9.92 1.04
1 -4 11 10.23 0.98
1 -4 11 10.47 0.87
-1 4 -12 6.76 1.01
1 -4 12 9.63 1.23
-1 4 -13 3.91 0.98
1 -4 13 7.65 1.25
-1 4 -14 -0.6 0.89
1 -5 -14 2.32 1.13
1 5 -14 3.41 1.06
-1 -5 14 3.81 0.98
1 -5 -13 -0.72 0.88
1 5 -13 -0.08 0.92
1 -5 -13 -0.19 0.85
1 5 -13 -0.17 0.81
-1 -5 13 -0.95 0.81
1 -5 -12 2.46 0.91
1 5 -12 1.36 0.88
-1 -5 12 0.88 0.74
1 -5 -12 0.71 0.81
1 5 -12 1.46 0.82
1 5 -11 14.95 1.32
1 -5 -11 14.86 1.42
1 5 -11 16.62 1.13
-1 -5 11 15.99 1.24
1 5 -10 19.62 1.39
-1 -5 10 19.73 1.28
1 -5 -10 18.63 1.46
1 5 -10 18.47 1.21
-1 5 9 2.74 0.62
1 -5 -9 3.57 0.82
1 5 -9 3.48 0.76
-1 -5 9 2.77 0.66
1 5 -9 4.35 0.76
-1 -5 8 89.85 2.57
-1 5 8 85.47 2.47
-1 5 8 86.02 2.64
1 5 -8 85.39 2.81
1 5 -8 91.47 2.65
-1 -5 7 151.87 3.82
-1 5 7 152.67 3.85
1 5 -7 155.15 3.8
-1 5 7 162.68 4.05
1 5 -7 142.27 4.05
1 -5 -7 163.67 3.34
-1 -5 6 28.55 1.16
1 -5 -6 26.08 1.38
-1 5 6 28.38 1.3
1 5 -6 30.51 1.2
-1 5 6 31.02 1.28
1 -5 -6 29.27 0.9
1 5 -5 235.63 2.82
1 -5 -5 222.48 3.37
-1 -5 4 224.43 4.84
1 5 -4 234.96 4.97
1 -5 -4 240.9 5.32
1 5 -4 230.22 5.12
-1 -5 3 341.07 6.74
1 -5 -3 339.16 7.19
-1 -5 2 3.7 0.27
1 5 -2 3.72 0.29
1 -5 -2 3.56 0.37
1 5 -1 498.49 9.52
-1 -5 1 508.37 9.53
1 -5 -1 497.3 9.86
-1 5 1 495.38 9.77
-1 5 0 189.75 3.78
-1 5 0 186.57 3.89
-1 -5 0 174.43 3.86
-1 5 0 189 3.85
1 5 0 183.84 3.69
-1 5 0 200.05 3.96
1 5 1 646.17 12.39
-1 5 -1 643.33 12.46
-1 -5 -1 621.45 12.44
1 -5 1 666.07 12.41
-1 5 -1 634.06 12.29
1 -5 1 635.59 12.27
-1 5 -1 676.45 12.51
1 -5 1 651.18 12.61
1 5 2 191.79 4.13
1 -5 2 199.99 4.15
-1 5 -2 189 3.84
-1 5 -2 201.89 4.2
1 -5 2 189.18 4.29
1 -5 2 194.92 4.02
-1 5 -2 198.64 4.04
1 5 3 562.8 11.16
1 -5 3 559.65 11.15
1 -5 3 560.23 11.01
1 -5 3 568.84 11.06
1 5 3 571.18 11.1
-1 5 -3 565.14 11.14
1 -5 3 566.68 11.11
1 -5 3 584.33 11.34
1 -5 4 328.39 3.43
1 -5 4 334.73 2.83
1 -5 4 321.31 3.01
-1 5 -4 332.98 3.4
1 -5 4 326.33 2.87
1 5 4 323.65 3.13
-1 5 -4 316.58 2.24
1 -5 5 17.91 0.88
1 -5 5 18.68 0.84
1 5 5 18.51 0.84
1 -5 5 18.03 0.8
1 5 5 16.93 0.79
-1 5 -5 18.38 0.67
1 5 6 154.95 3.27
1 -5 6 149.22 3.82
1 -5 6 151.49 3.72
1 5 6 155.02 3.71
-1 5 -6 157.14 3.53
-1 5 -7 102.26 2.83
-1 5 -7 97 2.98
1 -5 7 113.32 2.74
1 -5 7 100.4 2.94
1 5 7 102.45 2.32
1 5 7 106.68 2.83
-1 5 -7 109.51 2.76
1 -5 7 105.7 2.92
-1 -5 -8 36.25 1.66
-1 5 -8 32.7 1.61
1 -5 8 35.7 1.35
1 -5 8 34.49 1.55
1 5 8 38.67 1.53
-1 5 -8 36.28 1.45
1 -5 8 32.99 1.54
1 5 8 34.45 0.96
1 -5 9 0.69 0.55
1 -5 9 0.8 0.49
-1 5 -9 0.7 0.67
-1 5 -9 0.32 0.47
1 -5 9 0.8 0.61
1 5 9 0.6 0.55
1 -5 10 38.49 1.82
1 -5 10 34.78 1.38
-1 5 -10 34.85 1.64
1 -5 10 30.54 1.58
1 -5 11 18.22 1.4
-1 5 -11 17.18 1.25
1 -5 11 18.42 1.25
1 -5 11 14.79 0.97
-1 5 -12 0.36 0.65
1 -5 12 -0.07 0.82
-1 5 -13 0.74 0.8
1 -5 13 0.74 0.96
-1 5 -14 4.11 1.04
1 -6 -14 2.15 1.17
1 6 -14 1.51 0.93
1 -6 -13 0.4 0.85
1 6 -13 -0.25 0.81
-1 -6 13 -0.5 0.78
1 6 -13 -0.16 0.95
1 -6 -13 -0.4 0.86
-1 -6 12 10 1.12
1 6 -12 9.49 1.25
1 -6 -12 10.36 1.26
1 6 -12 10.08 1.27
1 -6 -12 7.08 1.22
1 -6 -11 2.53 0.9
1 6 -11 1.08 0.75
1 -6 -11 1.49 0.84
1 6 -11 1.41 0.82
-1 -6 11 0.81 0.71
1 6 -11 1.85 0.71
1 6 -10 54.42 2.36
-1 -6 10 51.83 2.11
1 -6 -10 53.79 2.54
1 6 -10 53.86 2.08
-1 -6 9 20.36 1.22
1 6 -9 19.62 1.36
-1 6 9 23.09 1.2
1 6 -9 20.88 1.27
-1 -6 8 39.55 1.61
1 6 -8 37.48 1.77
-1 6 8 37.96 1.67
1 6 -8 38.77 1.69
-1 6 8 37.02 1.55
-1 6 7 6.45 0.7
1 6 -7 5.56 0.59
-1 6 7 5.57 0.71
1 6 -7 6 0.73
-1 -6 7 5.52 0.64
1 -6 -7 4.08 0.29
1 -6 -7 5.15 0.39
1 6 -7 5.73 0.77
-1 -6 6 395.19 8.17
-1 6 6 401.81 8.45
1 -6 -6 388.74 7.67
1 6 -6 413.04 8.23
1 -6 -5 30.78 1.42
1 6 -5 30.18 1.17
1 -6 -4 23.71 1.08
-1 -6 4 21.43 0.76
1 -6 -3 5.41 0.53
1 -6 -3 5.45 0.39
-1 -6 3 4.82 0.37
1 -6 -2 1176.07 22.77
1 -6 -2 1169.47 22.49
-1 -6 2 1196.28 22.3
1 6 -2 1188.13 22.31
1 6 -1 0.49 0.17
-1 -6 1 0.62 0.16
-1 6 1 0.31 0.23
-1 6 0 26.27 0.83
1 6 0 29.18 1.04
-1 6 0 28.37 0.92
1 6 0 25.98 0.76
-1 6 0 28.35 0.86
-1 -6 0 28.49 0.87
-1 6 -1 76.55 1.82
1 6 1 70.02 1.75
1 -6 1 73.6 1.77
-1 -6 -1 75.27 1.83
-1 6 -1 74.43 1.88
1 -6 1 74.25 1.98
1 -6 1 72.18 1.72
-1 6 -1 71 1.71
1 6 2 1400.47 26.75
1 -6 2 1408.46 26.75
-1 6 -2 1397.14 26.67
1 -6 2 1424.4 26.66
-1 6 -2 1446.89 26.82
1 -6 2 1419.93 27.02
1 -6 3 34.04 1.14
1 6 3 32.96 1.13
-1 6 -3 28.42 0.75
1 -6 3 35.63 1.09
-1 6 -3 35.55 1.11
1 -6 3 35.96 1.14
1 6 3 36.02 1.12
-1 6 -3 34.9 1.16
1 -6 3 33.76 1.07
1 -6 3 35.73 1.3
1 -6 4 234.31 3.01
1 -6 4 238.29 2.41
1 -6 4 236.08 2.56
1 6 4 234.97 2.68
1 -6 4 238.85 2.51
-1 6 -4 227.66 1.95
1 6 4 231.54 2.82
-1 6 -5 82.73 2.05
1 -6 5 81.56 2.23
1 6 5 83.55 2.32
1 -6 5 84.77 2.46
1 -6 6 212.3 4.88
-1 6 -6 223.4 4.99
-1 6 -6 220.61 4.7
1 6 6 217.92 4.91
1 -6 6 209.5 5.05
1 6 6 210.11 4.36
1 -6 7 1.87 0.44
1 -6 7 1.68 0.5
1 6 7 1.75 0.25
-1 6 -7 2.33 0.56
1 -6 7 1.72 0.49
-1 6 -7 1.42 0.37
1 6 7 1.81 0.5
-1 6 -8 60.07 2.16
1 -6 8 62.34 1.77
-1 6 -8 61.07 1.95
1 -6 8 62.71 2.07
-1 6 -8 60.34 1.88
1 6 8 60.22 1.95
1 -6 8 59.93 2.11
1 6 8 49.53 1.12
1 -6 9 0.26 0.43
1 6 9 0.67 0.55
-1 6 -9 0.24 0.47
1 -6 9 0.28 0.55
1 -6 9 1.14 0.61
1 -6 10 11.41 0.83
1 -6 10 15.15 1.2
-1 6 -10 13.28 1.04
1 -6 10 13.49 1.1
1 -6 11 2.09 0.56
-1 6 -11 2.61 0.72
1 -6 11 2.85 0.8
1 -6 11 2.51 0.76
1 -6 12 14.23 1.34
-1 6 -12 9.06 1.07
-1 6 -13 0.72 0.74
1 -6 13 0.29 0.87
1 7 -14 -0.62 0.85
1 -7 -14 -0.87 1.12
1 7 -13 1.58 0.85
1 -7 -13 1.42 0.98
1 -7 -13 1.95 1.01
1 7 -13 0.84 0.96
-1 -7 13 2.61 0.9
1 -7 -12 0.95 0.91
1 7 -12 0.77 0.78
-1 -7 12 2.09 0.86
1 -7 -12 2.18 0.96
1 7 -12 1.44 0.81
1 7 -11 37.99 1.97
1 -7 -11 43.06 2.11
-1 -7 11 42.22 1.93
1 -7 -11 39.68 2.29
1 7 -11 37.41 1.84
1 7 -11 42.62 2.15
-1 -7 10 3.88 0.78
1 7 -10 4.26 0.88
1 -7 -10 5.54 0.97
1 7 -10 4 0.88
1 7 -9 0.51 0.64
-1 -7 9 1.09 0.59
1 7 -9 -0.24 0.6
-1 7 9 0.28 0.52
-1 -7 8 24.67 1.26
1 7 -8 24.4 1.42
-1 7 8 23.07 1.24
1 7 -8 24.37 1.35
-1 -7 7 208.42 4.74
-1 7 7 214.04 5
1 7 -7 208.69 5.12
1 7 -7 201.42 4.95
1 -7 -7 192.27 3.88
1 -7 -7 206.08 3.95
1 7 -7 207.8 4.68
-1 7 6 0.38 0.43
1 -7 -6 0.41 0.44
-1 -7 6 0.95 0.39
-1 -7 6 0.59 0.43
1 -7 -6 -0.04 0.23
1 7 -6 1.05 0.55
1 7 -6 0.15 0.31
-1 7 5 169.42 4.06
1 -7 -5 169.86 4.36
1 -7 -5 163.51 3.46
-1 -7 5 162.03 4.15
1 7 -5 167 3.85
1 -7 -4 0.78 0.34
-1 -7 4 0.28 0.17
1 -7 -4 0.72 0.21
-1 -7 4 0.38 0.31
-1 -7 3 427.34 8.36
1 7 -3 425.07 8.38
1 -7 -3 424.8 8.93
1 -7 -3 420.04 8.39
-1 -7 3 427.36 8.88
1 -7 -2 0.2 0.26
1 -7 -2 0.22 0.25
-1 -7 2 0.15 0.19
1 7 -2 -0.01 0.22
-1 7 1 693.23 13.7
-1 -7 1 720.6 13.42
1 7 -1 694.91 13.37
-1 7 0 22.52 0.75
-1 -7 0 23.61 0.77
1 7 0 24.06 0.98
-1 7 0 22.29 0.78
-1 7 0 23.7 0.88
1 7 0 21.66 0.7
-1 7 0 24.84 0.95
-1 7 -1 514.74 9.63
1 -7 1 499.12 9.57
-1 -7 -1 509.03 9.64
1 7 1 473.58 9.56
1 -7 1 482.39 9.55
-1 7 -1 479.44 9.55
-1 7 -1 501.62 9.76
1 -7 1 489.57 9.92
1 7 1 489.13 9.8
-1 7 -2 0.57 0.22
1 -7 2 0.96 0.26
1 7 2 0.94 0.25
-1 7 -2 0.55 0.26
1 -7 2 0.79 0.22
1 7 2 0.78 0.27
1 -7 2 0.69 0.27
-1 7 -3 455.91 9.11
1 -7 3 459.59 9.08
1 7 3 456.38 9.15
1 -7 3 452.54 9.16
1 -7 3 454.22 9.05
1 7 3 469.21 9.11
1 -7 3 459.38 9.1
-1 7 -3 456.84 9.19
1 -7 3 462.47 9.47
-1 7 -4 53.48 1.29
1 -7 4 27.51 0.84
1 7 4 50.39 1.28
1 -7 4 -0.02 0.17
1 -7 4 49.27 1.2
1 7 4 0.04 0.15
1 -7 4 51.86 1.22
1 7 4 51.52 1.44
1 -7 4 52.98 1.51
-1 7 -5 1.49 0.29
-1 7 -5 1.93 0.46
1 -7 5 2.18 0.47
1 -7 5 1.44 0.36
1 7 5 1.43 0.41
1 -7 6 12.7 0.8
1 -7 6 15.87 1
-1 7 -6 14.93 0.92
1 7 6 12.89 0.54
-1 7 -6 14.23 0.75
1 7 6 14.55 0.89
1 -7 7 218.55 4.79
1 7 7 217.82 4.28
1 -7 7 212.83 5.04
1 7 7 215.89 5.06
-1 7 -7 218.11 4.87
1 7 7 215.86 4.27
1 -7 7 208.05 5.24
-1 7 -7 215.02 5.09
1 -7 8 3.26 0.69
-1 7 -8 2.26 0.65
1 -7 8 2.06 0.51
1 -7 8 3.31 0.66
1 7 8 3.92 0.65
-1 7 -8 3.29 0.56
-1 7 -9 29.27 1.42
1 -7 9 30.32 1.21
1 -7 9 27.32 1.46
-1 7 -9 29.54 1.38
1 7 9 30.15 1.46
1 -7 9 24.77 1.51
1 -7 10 2.22 0.72
1 -7 10 2.32 0.53
1 -7 10 2.7 0.72
-1 7 -10 3.01 0.66
1 -7 11 30.46 1.31
-1 7 -11 36.98 1.73
1 -7 11 36.46 1.83
1 -7 11 33.46 1.76
1 -7 12 0.07 0.78
1 -7 12 0.43 0.72
-1 7 -12 -0.35 0.72
-1 7 -13 2.61 0.85
1 -7 13 5.31 1.11
1 8 -14 1.06 0.92
1 8 -13 5.36 1.07
1 -8 -13 4.69 1.24
-1 -8 13 6.89 1.06
1 8 -13 6.4 1.16
1 -8 -13 6.55 1.19
-1 -8 12 28.56 1.65
1 -8 -12 24.01 1.96
1 8 -12 22.19 1.63
1 -8 -12 24.76 1.76
1 8 -12 27.81 1.83
1 -8 -11 6.35 1.05
1 8 -11 6 0.94
1 8 -11 5.72 1.01
1 -8 -11 5.44 1.13
-1 -8 11 5.32 0.9
1 8 -11 5.05 0.95
1 8 -10 31.51 1.81
1 -8 -10 30.83 1.95
-1 -8 10 34.75 1.66
1 8 -10 31.87 1.7
-1 -8 9 42.35 1.76
1 8 -9 42.22 2
1 8 -9 38.99 1.83
-1 -8 8 15.7 1.02
1 8 -8 13.4 0.88
1 8 -8 13.21 1.1
1 8 -8 12.37 1.07
1 8 -7 20.88 1.25
-1 8 7 20.28 1.22
-1 -8 7 20.62 1.09
1 8 -7 21.5 1.07
-1 -8 7 22.5 1.3
1 -8 -7 18.19 1.35
1 8 -7 24.52 1.33
-1 8 6 85.09 2.57
-1 -8 6 81.9 2.32
-1 -8 6 82.64 2.65
1 8 -6 84.04 2.36
1 -8 -6 78.88 2.82
1 -8 -6 86.37 1.87
1 8 -6 83.63 2.62
-1 8 5 45.03 1.67
-1 -8 5 43.35 1.74
1 -8 -5 46.47 1.89
1 8 -5 47.1 1.75
1 -8 -5 46.34 1.23
-1 -8 5 43.97 1.43
-1 -8 4 8.21 0.73
1 -8 -4 7.52 0.71
1 -8 -4 7.49 0.46
-1 -8 3 275.32 6.09
1 -8 -3 267.89 6.12
1 -8 -3 270.31 5.58
1 8 -3 267.25 5.56
-1 -8 3 272.23 5.54
-1 -8 2 560.77 11.3
-1 8 2 539.63 11.1
1 -8 -2 558.96 10.92
-1 -8 2 556.24 10.72
1 8 -2 556.17 10.72
1 8 -1 338.59 7.28
1 8 -1 344.11 6.82
-1 8 1 355.14 6.94
-1 8 1 345.6 7.18
-1 -8 1 344.65 6.87
1 -8 -1 352.09 7.14
-1 -8 0 56.2 1.42
-1 8 0 56.45 1.41
1 8 0 60.35 1.76
-1 8 0 53.88 1.48
1 8 0 57.04 1.41
-1 8 0 57.76 1.68
-1 8 -1 59.5 1.65
1 -8 1 59.25 1.48
1 8 1 56.28 1.45
-1 8 -1 58.78 1.5
-1 -8 -1 59.88 1.53
1 8 1 58.24 1.71
-1 8 -1 53.57 1.49
1 -8 1 57.5 1.52
1 -8 1 57.95 1.78
1 8 2 202.28 4.32
1 -8 2 209.19 4.35
1 8 2 199.37 4.46
1 -8 2 214.39 4.35
-1 8 -2 196.87 4.33
1 8 2 203.24 4.29
1 -8 2 206.74 4.3
-1 8 -2 211.7 4.49
1 -8 2 205.85 4.7
1 -8 3 122.36 2.87
1 8 3 121.32 2.86
1 8 3 114.51 2.81
1 -8 3 118.09 2.8
-1 8 -3 117.86 2.85
-1 8 -3 124.24 2.93
1 -8 3 122.47 2.81
1 8 3 122.45 2.8
1 -8 3 123.24 3.18
-1 8 -4 145.43 2.15
1 8 4 140.1 2.1
1 -8 4 142.24 1.98
1 -8 4 143.36 2.02
1 -8 4 140.7 2.55
1 8 4 137.63 2.44
1 8 4 138.46 1.75
1 8 5 213.61 4.48
-1 8 -5 210.32 4.59
1 -8 5 217.68 4.82
1 8 5 214.24 5.01
1 -8 5 216.39 5.16
-1 8 -5 231.45 5.09
1 8 6 147.06 3.1
1 -8 6 140.9 3.58
-1 8 -6 145.88 3.43
1 8 6 144.8 3.7
1 -8 6 144.57 3.91
-1 8 -6 153.22 3.8
1 -8 7 39.91 1.37
1 -8 7 40.44 1.57
1 -8 7 39.51 1.76
1 8 7 38.09 0.93
1 8 7 40 0.95
-1 8 -7 40.91 1.64
1 8 7 38.42 1.57
-1 8 -7 39.74 1.44
-1 8 -8 201.43 4.85
1 -8 8 195.14 4.44
1 -8 8 199.09 4.83
1 -8 8 189.29 5.08
1 8 8 199.09 4.82
-1 8 -8 197.18 4.64
-1 8 -9 33.97 1.6
1 -8 9 34.55 1.3
1 -8 9 35.42 1.64
-1 8 -9 36.21 1.54
1 -8 9 32.13 1.73
1 -8 10 3.87 0.81
1 -8 10 3.02 0.74
-1 8 -10 3.1 0.64
1 -8 10 2.46 0.53
1 -8 11 0.35 0.7
1 -8 11 -0.17 0.66
-1 8 -11 0.1 0.58
1 -8 11 -0.11 0.46
-1 8 -12 6.8 0.98
1 -8 12 5.24 0.95
1 -8 12 7.4 1.09
-1 8 -13 3.99 0.91
1 -8 13 4.02 1.04
1 9 -14 2.48 0.98
1 -9 -13 0.75 0.87
1 9 -13 1.37 0.92
-1 -9 13 -0.93 0.86
1 -9 -13 -0.43 0.95
1 9 -13 0.75 0.84
1 9 -12 19.45 1.54
1 -9 -12 18.08 1.51
1 -9 -12 16.85 1.76
1 9 -12 18.84 1.59
-1 -9 12 18.98 1.41
1 -9 -11 4.14 0.86
1 9 -11 3.06 0.84
-1 -9 11 3.6 0.81
1 9 -11 3.6 0.89
1 -9 -11 3.3 1
1 9 -10 3.33 0.84
-1 -9 10 2.69 0.74
1 9 -10 2.55 0.86
1 -9 -10 2.28 0.87
1 9 -9 3.14 0.85
-1 -9 9 2.72 0.65
1 9 -9 2.08 0.65
-1 -9 8 122.2 3.39
1 9 -8 124.22 3.75
1 9 -8 131.84 3.68
-1 -9 8 123.35 3.7
1 9 -8 127.54 3.3
1 9 -7 44.06 1.6
-1 -9 7 45.93 1.94
1 9 -7 46.82 1.93
-1 9 7 44.31 1.81
-1 -9 7 43.63 1.63
1 -9 -7 40.31 2.05
1 9 -7 46.53 1.89
1 9 -6 64.74 1.99
-1 -9 6 67.03 2.37
-1 9 6 69.01 2.25
-1 -9 6 65.32 1.98
1 -9 -6 67.6 2.57
1 -9 -6 67.42 1.56
1 9 -6 65.28 2.27
-1 -9 5 23.06 1
1 -9 -5 25.68 0.84
1 9 -5 25.14 1.28
-1 -9 5 26.22 1.34
1 -9 -5 24.12 1.37
1 -9 -4 903 16.95
1 9 -4 862.03 17.5
1 -9 -4 860.46 17.77
-1 -9 4 891.46 17.71
1 9 -3 196.69 4.21
-1 -9 3 193.19 4.17
1 -9 -3 197.43 4.24
-1 -9 3 195.86 4.77
-1 9 2 0.2 0.3
-1 -9 2 0.06 0.22
1 9 -2 -0.05 0.26
1 -9 -2 0.35 0.26
-1 -9 2 0.42 0.31
1 -9 -1 290.7 6.12
1 9 -1 279.91 6.23
1 9 -1 283.3 5.77
-1 -9 1 294.94 5.85
-1 9 1 291.2 6.21
-1 9 1 283.23 5.88
-1 9 1 295.37 6.08
1 9 0 1685.75 31.41
-1 9 0 1634.39 30.9
-1 -9 0 1667.77 30.92
-1 9 0 1569.49 31.04
1 9 0 1638.42 30.95
-1 9 0 1744.94 31.36
1 -9 1 150.53 3.29
-1 -9 -1 162.99 3.39
-1 9 -1 159.92 3.36
1 9 1 159.89 3.66
-1 9 -1 146.8 3.4
1 -9 1 158.53 3.44
-1 9 -1 160.93 3.57
1 9 2 231.46 4.83
1 -9 2 239.71 4.87
1 9 2 230.98 5.06
1 -9 2 234.99 4.91
-1 9 -2 222.59 4.91
1 -9 2 233.54 4.83
1 9 2 235.22 4.82
-1 9 -2 244.7 5.07
1 -9 2 233.54 5.32
1 -9 3 97.88 2.39
1 9 3 97.87 2.37
1 -9 3 95.3 2.32
1 9 3 89.4 2.37
-1 9 -3 90.93 2.38
1 -9 3 100.85 2.41
1 9 3 96.04 2.32
-1 9 -3 97.28 2.46
1 -9 3 92.85 2.7
-1 9 -4 467.94 3.92
1 9 4 459.62 3.77
1 -9 4 450.56 3.5
-1 9 -4 441.08 3.72
1 -9 4 459.52 3.69
-1 9 -4 483.16 4.53
1 -9 4 457.83 4.73
1 9 4 464.22 4.64
1 9 4 466.06 3.3
1 -9 5 8.93 0.64
-1 9 -5 10.38 0.81
1 -9 5 9.95 0.82
1 9 5 8.16 0.76
1 9 5 8.58 0.51
1 -9 6 14.9 1.08
1 9 6 17.53 0.65
-1 9 -6 17.78 1.08
1 -9 6 17.54 0.96
1 -9 6 16.53 0.83
1 9 6 17.08 1.02
-1 9 -6 16.7 0.84
1 -9 7 7.99 0.63
1 -9 7 8.86 0.76
1 9 7 6.83 0.29
1 -9 7 6.99 0.87
-1 9 -7 8.53 0.85
1 9 7 6.4 0.27
-1 9 -7 7.55 0.64
1 9 7 8.05 0.8
-1 9 -8 127.21 3.47
1 -9 8 121.58 3.04
1 -9 8 122.6 3.42
1 9 8 125.15 3.46
-1 9 -8 125.36 3.27
1 -9 8 115.46 3.67
1 -9 9 0.59 0.66
-1 9 -9 0.31 0.61
1 -9 9 -0.21 0.44
1 -9 9 -0.37 0.59
-1 9 -9 0.2 0.46
1 -9 10 23.89 1.08
1 -9 10 24.04 1.42
1 -9 10 19.91 1.46
-1 9 -10 22.24 1.28
-1 9 -11 1.36 0.64
1 -9 11 2.45 0.84
1 -9 11 1.49 0.79
-1 9 -12 -0.78 0.7
1 -9 12 1.37 0.82
1 -9 12 -0.51 0.82
-1 9 -13 1.36 0.79
1 -9 13 2.43 0.99
1 10 -14 2.31 1.06
1 10 -13 9.53 1.28
1 -10 -13 8.8 1.26
1 10 -13 9.04 1.26
-1 -10 13 9.63 1.18
1 -10 -12 -0.47 0.82
1 10 -12 0.13 0.8
-1 -10 12 -0.76 0.77
1 10 -12 0.08 0.77
1 -10 -12 0.31 0.94
1 10 -11 1.35 0.73
1 -10 -11 1.89 0.8
1 -10 -11 0.29 0.86
-1 -10 11 0.21 0.66
1 10 -11 1.09 0.77
-1 -10 10 36.16 1.74
1 -10 -10 37.58 2.24
1 10 -10 36.83 1.98
-1 -10 9 105.9 3.14
1 10 -9 106.66 3.51
1 10 -9 105.35 2.95
1 10 -9 106.92 3.38
-1 -10 8 13.35 0.98
1 10 -8 12.34 1.08
1 10 -8 13.13 1.14
1 10 -8 11.14 0.83
-1 -10 8 12.44 1.11
1 10 -7 24.15 1.14
-1 -10 7 24.49 1.44
1 10 -7 23.03 1.34
-1 10 7 25.56 1.35
-1 -10 7 24.01 1.17
1 -10 -7 22.63 1.56
1 10 -7 25.69 1.41
-1 -10 6 16.28 1.14
-1 10 6 16.1 1.03
-1 -10 6 13.38 0.84
1 -10 -6 16.53 1.25
1 10 -6 15.56 1.11
1 -10 -6 15.95 0.59
-1 -10 5 257.46 5.59
1 10 -5 257.96 6.06
1 -10 -5 263.89 5.33
1 -10 -5 250.46 6.35
-1 -10 5 266.86 6.25
1 10 -4 35.68 1.26
1 -10 -4 36.98 1.17
-1 -10 4 35.59 1.62
1 10 -3 245.76 5.28
1 -10 -3 256.91 5.36
-1 -10 3 258.63 5.96
-1 -10 2 0.62 0.35
1 10 -2 0.34 0.26
-1 -10 2 0.27 0.22
-1 10 2 0.03 0.2
-1 10 1 320.28 6.46
1 10 -1 300.66 6.14
-1 10 1 305.41 6.59
-1 -10 1 313.49 6.23
-1 10 1 295.33 6.23
1 -10 -1 297.9 6.47
1 10 -1 304.11 6.61
1 10 0 32.01 1
-1 10 0 28.91 1.05
-1 10 0 33.3 1.25
1 10 0 31.49 1.27
-1 -10 0 32.65 0.95
-1 10 0 32.06 0.93
1 10 1 527.66 10.46
1 -10 1 534.12 10.22
-1 10 -1 522.21 10.03
-1 -10 -1 531.53 10.06
1 -10 2 55.75 1.59
-1 10 -2 50.79 1.58
-1 10 -2 55.04 1.68
1 -10 2 57.14 1.49
1 10 2 60.48 1.51
1 -10 2 57.54 1.52
1 10 2 58.05 1.51
1 10 2 60.1 1.75
1 -10 2 56.74 1.92
-1 10 -3 60.48 1.87
1 -10 3 70.73 1.91
-1 10 -3 72.03 2
1 -10 3 70.18 2.27
1 10 3 69.44 1.92
1 10 3 70.74 1.83
1 -10 3 70.13 1.82
1 -10 3 73.36 1.91
1 10 3 73.54 1.89
1 -10 4 15.73 0.71
1 10 4 15.98 0.76
-1 10 -4 16.83 0.81
-1 10 -4 14.3 0.78
1 -10 4 15.77 0.75
1 10 4 16.32 0.99
1 10 4 15.15 0.67
-1 10 -4 16.7 0.95
1 -10 4 16.73 1
1 -10 5 484.36 9.89
1 10 5 475.1 9.89
1 -10 5 473.16 9.87
-1 10 -5 502.58 9.92
1 10 5 477.79 10.26
1 10 5 482.45 9.55
1 -10 5 483.47 10.41
-1 10 -5 514.02 10.25
-1 10 -6 116.67 3.03
1 10 6 124.05 3.43
1 -10 6 121.94 3.21
1 -10 6 118.09 3.58
-1 10 -6 133.62 3.48
1 10 6 129.82 2.75
1 -10 7 12.62 0.9
-1 10 -7 13.66 0.84
1 10 7 12.49 0.96
-1 10 -7 13.1 1.04
1 -10 7 11.36 1.06
-1 10 -8 0.39 0.44
1 10 8 1.25 0.61
1 -10 8 0.66 0.55
1 -10 8 0.35 0.61
-1 10 -8 0.35 0.58
1 -10 9 73.91 2.52
1 -10 9 70.83 2.8
-1 10 -9 79.35 2.45
-1 10 -10 3.58 0.7
1 -10 10 4.08 0.94
1 -10 10 3.29 0.76
-1 10 -11 3.1 0.72
1 -10 11 3.32 0.9
1 -10 11 4.95 0.87
-1 10 -12 2.27 0.76
1 -10 12 0.73 0.84
1 -10 12 1.87 0.81
-1 10 -13 7.24 1.06
1 -10 13 8.64 1.23
1 -11 -13 0.37 0.94
1 11 -13 -0.92 0.85
1 11 -13 0.08 0.83
-1 -11 13 -0.25 0.77
1 -11 -12 1.53 0.83
1 11 -12 1.08 0.76
-1 -11 12 0.46 0.79
1 11 -12 1.88 0.85
1 11 -11 3.3 0.9
-1 -11 11 3.34 0.79
1 -11 -11 3.53 0.83
1 11 -11 4.37 0.84
1 -11 -10 39.43 1.86
1 11 -10 37.16 1.78
-1 -11 10 38.59 1.77
1 11 -10 35.54 1.96
1 -11 -10 34.06 2.23
-1 -11 9 2.32 0.69
1 11 -9 0.98 0.65
1 11 -9 1.74 0.51
-1 -11 8 47.06 1.82
1 11 -8 46.46 2.08
1 11 -8 47.34 2.07
1 11 -8 49.35 1.77
-1 -11 8 50.6 2.19
-1 -11 7 46.6 1.72
1 11 -7 49.51 2.01
1 -11 -7 45.67 2.29
1 11 -7 49.82 1.74
-1 -11 7 47.96 2.11
-1 -11 6 27.54 1.2
-1 11 6 28.6 1.42
-1 -11 6 28.44 1.56
1 11 -6 27.69 1.45
1 -11 -6 27.46 0.88
-1 -11 5 52.2 1.58
-1 -11 5 52.55 2.08
1 -11 -5 50.67 1.38
1 11 -5 51.66 1.93
-1 -11 4 203.33 4.5
1 11 -4 205.99 4.54
-1 -11 4 208.9 5.22
1 -11 -4 204.22 4.44
1 11 -3 66.38 1.83
-1 11 3 64.54 2.13
1 -11 -3 69.27 1.9
-1 -11 3 62.99 2.27
-1 -11 2 -0.04 0.12
1 11 -2 0.28 0.28
1 -11 -2 0.43 0.27
-1 -11 2 0.25 0.38
-1 11 2 0.05 0.3
-1 11 1 104.01 2.61
1 11 -1 97.44 2.35
-1 11 1 98.05 2.44
-1 11 1 93.78 2.73
1 11 -1 102.44 2.8
1 -11 -1 102.43 2.68
1 11 0 334.8 6.68
1 11 0 330.46 7.11
-1 11 0 346.34 7.08
-1 -11 0 341.4 6.56
-1 11 0 336.24 6.54
1 -11 1 31.64 1.12
1 11 1 31.91 1.26
-1 11 -1 33.03 1.31
1 -11 2 80.5 1.98
1 11 2 79.23 1.96
1 -11 2 81.98 1.96
-1 11 -2 84.48 2.26
1 11 2 84.38 1.97
1 -11 2 83.28 2.52
1 11 2 81.34 2.26
1 -11 2 83.19 2.15
1 11 3 159.75 3.48
1 -11 3 157.13 3.47
1 -11 3 162.61 3.58
1 11 3 158.76 3.53
-1 11 -3 155.45 3.73
1 11 3 157.23 3.66
1 -11 3 154.74 4.08
1 -11 3 155.8 3.63
1 11 4 169.41 3.8
1 -11 4 163.58 3.82
-1 11 -4 168.81 3.89
1 -11 4 164.41 4.3
1 11 4 167.72 3.72
-1 11 -5 -0.27 0.34
1 11 5 0.37 0.38
1 -11 5 0.49 0.38
1 11 5 0.22 0.48
1 -11 5 -0.03 0.37
-1 11 -5 0.44 0.5
1 11 5 0.11 0.3
1 -11 5 0.44 0.46
1 11 6 169.32 4.35
1 -11 6 166.48 4.09
-1 11 -6 172.54 4.36
1 -11 6 164.45 4.56
1 11 6 168.28 3.58
1 -11 7 53.47 1.92
-1 11 -7 56 1.84
1 11 7 56.02 2.07
1 -11 7 51.2 2.25
-1 11 -7 60.83 2.16
1 -11 8 10.11 0.9
1 -11 8 10.19 1.07
-1 11 -8 9.37 0.99
-1 11 -8 9.95 0.79
-1 11 -9 0.2 0.49
1 -11 9 0.09 0.57
1 -11 9 0.6 0.72
1 -11 10 51.33 2.11
-1 11 -10 52.97 2.01
1 -11 10 45.57 2.33
1 -11 11 11.82 1.18
1 -11 11 10.64 1.31
-1 11 -11 11.98 1.05
-1 11 -12 -0.66 0.72
1 -11 12 0.63 0.86
1 -11 12 -0.06 0.77
-1 11 -13 0.12 0.71
1 -12 -13 1.32 0.94
1 12 -13 0.98 0.87
1 12 -13 0.08 0.86
-1 -12 13 0.62 0.78
1 -12 -12 1.83 0.87
1 12 -12 1.95 0.86
-1 -12 12 1.64 0.76
1 12 -12 2.7 0.92
1 12 -11 3.29 0.92
-1 -12 11 4.37 0.87
1 12 -11 3.57 0.84
1 -12 -11 3.72 0.88
-1 -12 10 26.69 1.49
1 -12 -10 27.46 1.54
1 12 -10 25.63 1.48
1 12 -10 25.8 1.67
-1 -12 9 12.77 1.02
1 12 -9 14.39 1.24
-1 -12 9 10.99 1.18
1 12 -9 13.12 0.9
-1 -12 8 22.06 1.19
1 12 -8 20.65 1.1
-1 -12 8 21.26 1.46
1 12 -8 20.19 1.37
1 12 -7 1.13 0.69
-1 -12 7 2.14 0.73
-1 -12 7 1.31 0.51
1 12 -7 1.38 0.45
-1 -12 6 244.32 5.5
-1 12 6 251.9 5.95
-1 -12 6 253.21 6.25
1 -12 -6 243.64 5.08
1 12 -6 251.95 6
-1 -12 5 210.72 4.47
-1 -12 5 218.52 5.3
1 -12 -5 211.75 4.27
1 12 -5 213.45 5.01
1 12 -4 37.57 1.32
-1 -12 4 34.05 1.24
-1 -12 4 35.49 1.72
1 -12 -4 36.31 1.26
1 12 -3 61.88 1.78
-1 -12 3 65.25 2.34
-1 12 3 62.74 2.11
1 -12 -3 62.79 1.86
1 12 -3 60.25 2.13
1 12 -2 630.91 12.25
-1 -12 2 614.8 13
1 -12 -2 612.01 12.5
-1 12 2 638.55 12.44
1 12 -1 82.56 2.07
-1 12 1 78.48 2.13
-1 12 1 83.95 2.3
1 -12 -1 83.12 2.38
1 12 -1 81.93 2.48
1 12 0 19.8 0.81
-1 -12 0 20.52 1.11
-1 12 0 18.59 0.98
1 -12 0 19.37 1.02
1 12 0 20.15 1.05
-1 12 0 19.72 0.67
-1 -12 0 20.24 0.69
1 -12 1 465.81 9.2
1 12 1 448.7 9.03
1 12 1 446.93 9.4
-1 12 -1 459.62 9.47
-1 12 -2 802.38 14.9
1 12 2 759.29 14.4
1 -12 2 756.71 14.4
1 12 2 731.92 14.4
1 -12 2 739.96 14.42
1 -12 2 747.57 14.69
1 -12 2 746.68 15.23
1 12 2 753.41 14.85
1 12 3 0.36 0.26
1 -12 3 0.38 0.26
1 12 3 0.42 0.34
1 -12 3 0.04 0.35
1 -12 3 0.27 0.26
1 12 3 0.39 0.27
1 -12 3 0.03 0.29
-1 12 -3 0.47 0.31
1 -12 4 57.07 1.78
-1 12 -4 55.78 1.8
1 -12 4 52.66 2.14
1 12 4 58.93 1.72
1 12 4 60.83 1.75
1 -12 5 58.93 1.84
1 12 5 58.43 1.84
-1 12 -5 60.5 1.9
1 -12 5 57.92 1.87
1 12 5 58.36 2.18
1 -12 5 54.09 2.21
1 12 5 58.66 1.65
-1 12 -5 61.09 2.16
1 -12 6 92.45 2.65
1 -12 6 92.79 2.62
1 12 6 90.17 2.59
1 12 6 97.23 2.94
1 -12 6 91.99 3.1
-1 12 -6 97.22 2.92
1 12 6 92.81 2.2
-1 12 -7 22.46 1.09
1 -12 7 23.38 1.19
1 12 7 22.78 1.3
1 -12 7 24.19 1.52
-1 12 -7 26.83 1.39
1 12 7 20.04 0.51
1 -12 8 3.09 0.78
1 -12 8 4.26 0.7
-1 12 -8 3.36 0.57
1 -12 9 13.95 1.08
-1 12 -9 16.17 1.06
1 -12 9 14.56 1.38
-1 12 -10 8.51 0.88
1 -12 10 6.09 1.08
1 -12 10 7.38 0.93
-1 12 -11 5.21 0.84
1 -12 11 4.6 0.91
1 -12 11 3.59 0.99
1 -12 12 14.8 1.34
-1 12 -12 12.17 1.16
1 -12 12 10.34 1.37
1 13 -13 0.62 0.88
1 -13 -13 -0.65 0.9
-1 -13 13 0.56 0.8
1 13 -13 0.5 0.85
1 13 -12 0.08 0.81
-1 -13 12 0.17 0.74
1 -13 -12 1.29 0.84
1 13 -12 0.92 0.79
-1 -13 11 25.51 1.51
1 13 -11 23.23 1.51
1 -13 -11 23.85 1.56
1 13 -11 22.96 1.7
-1 -13 10 1.03 0.67
1 -13 -10 0.89 0.61
1 13 -10 1.16 0.63
1 13 -10 1.33 0.79
-1 -13 9 3.21 0.84
1 13 -9 2.61 0.78
1 13 -9 2.88 0.56
-1 -13 9 2.92 0.67
-1 -13 8 0.26 0.59
-1 -13 8 -0.16 0.49
1 13 -8 -0.04 0.43
1 13 -8 0.34 0.52
-1 -13 7 150.98 3.41
-1 -13 7 156.88 4.2
1 13 -7 152.47 3.86
-1 -13 6 1.6 0.5
-1 -13 6 2.13 0.71
1 13 -6 1.41 0.66
1 -13 -6 1.25 0.36
-1 -13 5 62.49 2.42
-1 -13 5 60.96 1.83
1 13 -5 51.35 1.34
1 13 -5 62.22 2.23
1 -13 -5 60.25 1.68
-1 -13 4 2.1 0.41
1 13 -4 1.58 0.44
1 -13 -4 1.83 0.37
-1 -13 4 1.39 0.56
1 13 -3 279.1 5.94
-1 -13 3 287.13 5.94
-1 13 3 281.06 6.45
-1 -13 3 277.99 6.74
1 -13 -3 276.66 6.07
1 13 -3 274.45 6.46
1 13 -2 0.49 0.51
-1 13 2 0.83 0.39
1 -13 -2 0.51 0.35
1 13 -2 0.82 0.37
-1 13 2 1.1 0.5
1 13 -1 334.75 6.8
-1 -13 1 323.64 6.56
-1 13 1 328.28 6.53
1 13 -1 338.59 7.34
-1 13 1 345.94 7.14
1 -13 -1 342.26 7.27
1 13 0 0.27 0.31
-1 13 0 0.23 0.18
-1 -13 0 0.17 0.18
1 13 0 0.85 0.47
-1 -13 0 0.34 0.35
-1 13 0 0.32 0.38
1 -13 0 0.19 0.37
1 -13 1 53.98 1.34
1 -13 1 51.57 1.64
1 13 1 53.4 1.56
1 13 1 53.54 1.82
-1 13 -1 54.55 1.88
1 -13 2 1.83 0.29
1 13 2 1.54 0.27
-1 13 -2 1.78 0.51
1 13 2 1.35 0.42
1 -13 2 1.9 0.48
1 -13 2 1.43 0.26
1 13 2 1.92 0.28
1 -13 2 1.96 0.37
-1 13 -2 2 0.4
1 13 3 602.05 11.74
1 -13 3 596.99 11.67
1 13 3 593.1 11.66
1 -13 3 601.72 11.77
1 -13 3 607.12 12
-1 13 -3 626.22 12.13
-1 13 -3 596.55 12.41
1 -13 3 578.43 12.62
1 13 3 605.17 12.03
1 13 4 1.42 0.38
1 13 4 1.49 0.39
1 -13 4 1.34 0.51
1 -13 4 1.25 0.41
-1 13 -4 1.52 0.39
-1 13 -5 1.61 0.43
1 13 5 2.77 0.43
-1 13 -5 2.2 0.63
1 -13 5 1.44 0.59
1 13 5 2.49 0.45
1 -13 5 2.01 0.43
1 -13 5 1.39 0.44
1 13 5 1.81 0.6
1 13 6 11.58 0.82
1 -13 6 10.97 0.8
-1 13 -6 11.35 0.8
1 -13 6 11.36 0.84
1 13 6 10.01 0.97
1 -13 6 9.84 1.02
1 13 6 10.87 0.57
-1 13 -6 10.3 1.02
1 13 7 194.93 4.42
1 -13 7 207.12 4.54
-1 13 -7 194.6 4.33
1 -13 7 189.34 5.13
1 -13 8 5.41 0.75
-1 13 -8 3.69 0.61
1 -13 8 4.97 0.97
1 -13 9 1.64 0.63
-1 13 -9 1.4 0.55
1 -13 9 0.94 0.79
-1 13 -10 0.14 0.57
1 -13 10 0.21 0.63
1 -13 10 -0.15 0.79
1 -13 11 26.04 1.56
1 -13 11 20.63 1.74
-1 13 -11 21.3 1.35
-1 13 -12 -0.06 0.68
1 -13 12 0.8 0.83
1 -13 12 0.54 0.98
1 -14 -13 0.85 0.84
1 14 -13 0.6 0.83
1 14 -13 1.86 0.93
1 14 -12 7.58 1.2
1 14 -12 9.45 1.14
1 -14 -12 8.45 1.18
-1 -14 12 8.72 1.1
1 14 -11 1.81 0.88
-1 -14 11 0.81 0.75
1 -14 -11 2.2 0.79
1 14 -11 1.82 0.76
-1 -14 10 11.38 1.06
1 14 -10 11.58 0.9
1 14 -10 10.73 0.99
1 -14 -10 12.1 1.1
1 14 -10 11.41 1.23
1 -14 -9 4.83 0.74
1 14 -9 3.59 0.68
-1 -14 9 3.66 0.93
1 14 -9 3.4 0.82
1 14 -9 3.22 0.59
-1 -14 9 2.85 0.69
1 14 -8 29.91 1.37
-1 -14 8 33.48 1.93
-1 -14 8 32.96 1.49
-1 -14 7 9.01 1.11
1 -14 -7 6.72 0.44
-1 -14 7 9.29 0.83
-1 -14 6 133.99 3.24
-1 -14 6 135.11 4.01
1 14 -6 138.31 3.73
1 -14 -6 134.74 2.94
1 14 -5 40.87 1.49
-1 -14 5 38.12 1.42
1 14 -5 33.11 1.02
-1 -14 5 40.38 1.99
1 -14 -5 39.55 1.34
1 14 -5 43.55 1.83
-1 -14 4 13.12 0.79
1 14 -4 12.98 0.84
-1 -14 4 14.23 1.17
-1 14 4 12.85 1.03
1 -14 -4 13.54 0.8
1 14 -3 127.24 3.1
-1 -14 3 126.27 3.09
-1 -14 3 126.98 3.82
-1 14 3 127.28 3.59
1 -14 -3 125.62 3.24
1 14 -3 124.82 3.56
1 -14 -2 433.5 9.21
1 14 -2 434.58 9.47
1 14 -2 448.84 8.9
-1 14 2 407.64 8.88
-1 14 2 470.71 9.61
-1 -14 2 450.78 8.97
-1 14 2 444.92 9.08
1 14 -1 124.18 3
-1 14 1 124.23 2.7
-1 -14 1 127.52 2.72
-1 14 1 135.78 3.32
1 -14 -1 130.18 3.44
1 14 -1 127.52 3.48
1 14 0 33.43 1.17
-1 -14 0 36.08 1.63
1 -14 0 32.73 1.48
1 14 0 33.28 1.45
-1 14 0 33.88 1.41
-1 14 0 34.63 0.96
-1 -14 0 36.26 0.98
1 -14 1 81.03 1.86
1 14 1 81.93 1.87
1 14 1 84.25 2.17
-1 14 -1 86.44 2.54
1 14 1 80.73 2.44
-1 14 -2 333.14 6.91
1 14 2 303.62 6.28
1 -14 2 314.37 6.28
1 14 2 321.65 6.28
1 -14 2 304.8 6.3
1 -14 2 331.33 6.76
-1 14 -2 327.91 7.11
1 14 2 315.66 6.87
1 -14 3 25.97 1.12
1 14 3 26.31 0.95
1 -14 3 26.46 0.97
-1 14 -3 28.72 1.23
-1 14 -3 27.06 1.39
1 -14 3 25.23 1.44
1 14 3 27.87 1.19
1 -14 4 74.45 2.19
1 14 4 75.33 2.05
-1 14 -4 74.28 2.24
1 14 4 73.51 2.12
1 -14 4 72.01 2.65
-1 14 -5 29.55 1.29
1 -14 5 29.32 1.29
1 -14 5 30.78 1.23
1 14 5 30.68 1.22
1 14 5 28.11 1.54
1 -14 5 30.46 1.68
-1 14 -5 31.31 1.56
1 14 5 30.45 1.13
-1 14 -6 68.4 2.12
1 -14 6 64.96 2.13
1 14 6 65.9 2.43
1 -14 6 61.87 2.03
1 14 6 67.58 2.07
1 -14 6 63.58 2.62
1 14 6 64.13 1.71
-1 14 -6 67.87 2.43
1 -14 7 3.02 0.6
1 14 7 2.94 0.6
1 14 7 2.97 0.27
1 -14 7 3.33 0.64
1 -14 7 2.59 0.82
1 -14 8 62.95 2.24
-1 14 -8 65.13 2.19
1 -14 8 63.57 2.76
1 -14 9 15.34 1.11
1 -14 9 11.72 1.35
-1 14 -9 14.51 1.02
-1 14 -10 3.22 0.7
1 -14 10 2.67 0.95
1 -14 10 2.95 0.76
-1 14 -11 1.07 0.65
1 -14 11 -0.28 0.75
1 -14 11 0.72 0.9
-1 14 -12 21.4 1.46
1 -14 12 17.98 1.77
1 -14 12 22.18 1.54
1 -15 -13 2.08 0.93
1 15 -13 2.3 0.95
1 15 -13 1.37 0.97
1 15 -12 6.62 1.19
-1 -15 12 6.11 0.98
1 -15 -12 7.14 1.12
1 15 -12 5.5 1.01
-1 -15 11 12.46 1.17
1 15 -11 12.57 1.18
1 -15 -11 11.72 1.18
1 15 -11 12.85 1.36
-1 -15 10 7.15 0.92
1 15 -10 6.61 0.88
1 -15 -10 8.82 0.98
1 15 -10 6.04 1.01
1 15 -10 7.03 0.77
1 -15 -9 0.82 0.61
1 15 -9 0.04 0.54
-1 -15 9 0.3 0.81
-1 -15 9 -0.18 0.59
1 15 -9 -0.72 0.69
1 15 -9 0.31 0.46
-1 -15 8 33.07 1.51
-1 -15 8 33.41 1.98
1 15 -8 33.06 1.44
-1 -15 7 33.94 1.45
-1 -15 7 37.52 2.02
1 -15 -7 31.61 1.01
-1 -15 6 11.74 0.83
-1 -15 6 11.63 1.21
1 15 -6 8.62 0.44
1 -15 -6 10.73 0.71
1 15 -5 12.45 0.87
-1 -15 5 10.94 0.79
-1 -15 5 11.49 1.15
1 15 -5 9.93 0.53
1 15 -5 10.07 1.04
1 -15 -5 10.5 0.73
1 15 -4 252.28 5.64
-1 -15 4 257.66 5.65
1 -15 -4 258.28 5.7
-1 15 4 263.22 6.2
-1 -15 4 246.07 6.48
-1 -15 3 103.45 3.42
1 15 -3 105.34 2.72
-1 15 3 107.74 3.22
-1 -15 3 104.35 2.72
-1 15 3 105.62 2.79
1 -15 -3 103.22 2.87
1 15 -3 98.49 3.1
-1 15 2 0.14 0.46
-1 -15 2 -0.25 0.34
1 15 -2 0.17 0.4
-1 15 2 0.65 0.42
1 -15 -2 1.18 0.42
1 15 -2 0.22 0.51
1 15 -1 112.96 2.74
-1 -15 1 108.9 2.37
-1 15 1 109.3 2.37
1 -15 -1 109.4 3.14
-1 15 1 110.93 2.99
1 15 -1 112.28 3.21
1 15 0 580.44 11.34
1 -15 0 574.66 12
-1 15 0 563.76 11.74
1 15 0 557.15 11.84
-1 -15 0 587.73 12.21
1 -15 1 36.82 0.99
1 15 1 36.32 0.98
-1 -15 -1 39.15 1.7
1 15 1 36.98 1.28
-1 15 -1 37.76 1.58
1 15 1 35.75 1.5
-1 15 -2 23.9 1.15
1 15 2 22.02 0.73
1 -15 2 21.15 0.73
1 -15 2 19.99 1.02
-1 15 -2 21.89 1.23
1 15 2 22.24 1.13
1 15 3 126.6 2.95
1 -15 3 126.97 2.96
-1 15 -3 134.43 3.42
-1 15 -3 136.74 3.68
1 -15 3 128.67 3.85
1 15 3 132.54 3.35
1 -15 3 134.31 3.33
1 15 4 121.6 1.9
1 -15 4 119.25 2.23
-1 15 -4 120.53 2.32
1 -15 4 115.98 2.97
1 15 4 122.99 2.12
-1 15 -5 0.07 0.38
-1 15 -5 0.1 0.57
1 15 5 0.32 0.36
1 -15 5 0.13 0.52
1 -15 5 0.32 0.38
1 15 5 0.19 0.37
1 -15 5 0.27 0.42
1 15 5 0.71 0.59
1 -15 6 24.6 1.18
1 15 6 25.55 1.16
1 -15 6 24.47 1.24
1 -15 6 24.97 1.64
1 15 6 23.88 0.93
-1 15 -6 21.58 1.15
1 -15 7 52.89 1.77
1 -15 7 50.76 1.67
1 15 7 49.95 1.62
1 15 7 45.2 0.93
1 -15 7 49.79 2.27
1 -15 8 22.76 1.29
-1 15 -8 19.76 1.17
1 -15 8 23.1 1.68
1 -15 9 11.06 0.99
-1 15 -9 10.63 0.94
1 -15 9 10.66 1.29
1 -15 10 11.93 1.09
1 -15 10 14.48 1.53
-1 15 -10 12.58 1.06
-1 15 -11 2.31 0.69
1 -15 11 1.49 1
1 -15 11 0.85 0.71
-1 15 -12 4.53 0.9
1 -15 12 3.8 0.92
1 -15 12 3.79 1.12
1 -16 -13 6.99 1.19
1 16 -13 6.32 1.12
1 16 -13 5.87 1.24
-1 -16 12 -0.17 0.76
1 -16 -12 0.51 0.8
1 16 -12 0.48 0.76
1 16 -12 -0.17 0.82
-1 -16 11 0.38 0.66
1 -16 -11 0.91 0.76
1 16 -11 -0.43 0.71
1 16 -11 1.16 0.79
1 16 -10 0.24 0.61
1 -16 -10 0.51 0.64
1 16 -10 -0.07 0.7
1 16 -10 0.39 0.48
-1 -16 10 -0.1 0.64
-1 -16 10 -0.64 0.86
-1 -16 9 43.19 1.84
1 16 -9 41.55 1.67
-1 -16 9 47.94 2.41
1 -16 -9 46.77 1.87
1 16 -9 43.36 1.79
1 16 -9 39.98 2.11
1 16 -8 2.18 0.58
1 -16 -8 2.91 0.62
-1 -16 8 2.51 0.88
-1 -16 8 3.04 0.66
1 16 -8 2.33 0.57
-1 -16 7 5.82 0.69
-1 -16 7 6.13 1.01
1 -16 -7 4.92 0.49
1 16 -6 3.31 0.34
1 -16 -6 4.57 0.55
-1 -16 6 5.15 0.65
-1 -16 6 3.58 0.86
1 16 -5 153.55 3.83
-1 -16 5 149.67 3.77
1 -16 -5 154.3 3.75
-1 -16 5 153.88 4.64
-1 -16 4 4.85 0.86
-1 16 4 3.43 0.74
-1 -16 4 3.45 0.54
1 16 -4 3.85 0.63
1 -16 -4 4.47 0.6
1 16 -3 180.58 4.78
1 -16 -3 184.7 4.52
1 16 -3 188.43 4.31
-1 -16 3 183.04 5.12
-1 16 3 189.52 4.87
-1 -16 3 186.43 4.34
-1 16 3 183.07 4.37
1 16 -2 25.53 1.11
-1 -16 2 27.44 1.17
-1 16 2 25.92 1.44
1 -16 -2 24.23 1.26
-1 16 2 23.97 1.16
1 16 -2 25.59 1.41
1 16 -1 197.91 4.47
-1 -16 1 187.46 5.21
-1 16 1 206.09 4.05
-1 -16 1 201.77 4.04
1 -16 -1 196.12 4.97
-1 16 1 199.05 4.77
1 16 -1 197.18 4.98
1 16 0 2.17 0.6
-1 16 0 1.96 0.55
1 -16 0 1.42 0.51
-1 -16 0 1.82 0.58
1 16 0 1.87 0.43
1 -16 0 1.77 0.2
1 16 1 233.13 4.59
-1 -16 -1 233.97 5.72
1 16 1 235.69 5.05
1 -16 1 227.47 4.57
-1 16 -1 238.48 5.54
1 16 1 220.61 5.4
1 -16 2 14.6 0.91
1 16 2 16.08 0.87
-1 16 -2 16.17 1.09
1 16 2 14.11 0.95
1 -16 3 14.98 0.69
1 16 3 17.99 0.73
-1 16 -3 15.46 0.96
1 -16 3 16.08 0.94
-1 16 -3 17.15 1.16
1 -16 3 16.27 1.22
1 16 3 15.52 0.96
-1 16 -4 2.13 0.5
1 16 4 1.83 0.39
1 -16 4 2.02 0.48
1 -16 4 2.38 0.68
1 16 4 1.54 0.46
1 -16 5 173.92 4.34
-1 16 -5 176.14 4.37
1 -16 5 175.94 5.1
1 16 5 179.43 4.09
1 -16 5 185.78 4.21
1 16 5 180.24 4.15
-1 16 -6 0.8 0.47
1 16 6 0.53 0.46
1 -16 6 1.19 0.51
1 -16 6 0.61 0.49
1 -16 6 0.36 0.68
1 16 6 0.59 0.37
1 16 7 4.07 0.35
1 -16 7 4.11 0.65
1 16 7 3.58 0.61
1 -16 7 5.15 0.99
1 -16 7 4.59 0.7
1 -16 8 3.98 0.98
1 -16 8 3.14 0.66
-1 16 -8 3.42 0.64
1 -16 9 60.74 2.26
-1 16 -9 59.82 2.19
1 -16 9 58.03 2.75
1 -16 10 2.47 0.78
1 -16 10 3.59 1.11
-1 16 -10 4.04 0.8
-1 16 -11 1.58 0.7
1 -16 11 1.98 1.05
1 -16 11 2.51 0.81
1 -16 12 -0.09 0.98
-1 16 -12 0.28 0.64
1 -17 -13 0.13 0.86
1 17 -12 3.75 1.02
1 -17 -12 4.45 0.98
1 17 -12 3.8 0.91
-1 -17 12 3.57 0.89
1 17 -11 -0.4 0.82
-1 -17 11 0.11 0.66
1 -17 -11 -0.28 0.73
1 17 -11 0.33 0.67
-1 -17 10 17.15 1.23
-1 -17 10 15.63 1.59
1 17 -10 13.3 1.01
1 -17 -10 16.85 1.25
1 17 -10 14.55 1.15
1 17 -10 16.29 1.43
1 17 -9 2.61 0.65
1 -17 -9 3 0.68
1 17 -9 3.24 0.65
1 17 -9 3.62 0.85
-1 -17 9 2.28 0.7
-1 -17 9 3.81 1.05
-1 -17 8 52.84 1.98
-1 -17 8 53.45 2.61
1 -17 -8 49.73 1.88
1 17 -8 52.55 1.9
-1 -17 7 12.63 0.94
-1 -17 7 11.29 1.3
1 -17 -7 12.06 0.7
-1 -17 6 15.58 0.99
-1 -17 6 16.82 1.48
1 17 -6 13.68 0.62
1 -17 -6 17.97 0.94
-1 -17 5 8.79 0.78
1 17 -5 9.98 0.89
1 -17 -5 10.01 0.8
-1 -17 5 9.38 1.18
1 17 -4 152.17 3.73
1 -17 -4 144.19 3.81
-1 17 4 146.87 4.19
-1 -17 4 149.19 3.71
-1 -17 4 146.57 4.51
-1 -17 3 29.18 1.74
1 17 -3 29.2 1.3
1 -17 -3 30.44 1.42
1 17 -3 32 1.62
-1 17 3 32.53 1.66
-1 -17 3 29.17 1.28
-1 17 3 30.53 1.33
-1 17 2 1.52 0.63
-1 17 2 1.37 0.23
1 17 -2 1.03 0.46
-1 17 2 1.36 0.52
1 17 -2 1.48 0.66
1 -17 -2 0.93 0.48
1 17 -1 16.92 0.91
-1 -17 1 17.57 1.3
1 17 -1 17.22 1.17
1 -17 -1 16.4 1.14
-1 17 1 18.01 1.08
-1 -17 1 18.59 0.58
-1 17 1 17.89 0.58
-1 -17 0 271.62 6.6
1 17 0 270.34 5.7
1 -17 0 264.91 5.1
1 17 0 260.77 5.13
1 -17 0 268.89 6.4
-1 17 0 273.23 6.15
1 17 0 255.78 6.17
-1 -17 -1 17.72 1.26
1 17 1 20.08 0.96
1 -17 1 19.98 1.3
-1 17 -1 23.01 1.28
1 17 1 16.77 1.11
1 17 1 19.18 0.58
1 -17 2 44.57 1.66
1 17 2 46.83 1.58
1 17 2 41.8 1.69
-1 17 -2 47.79 1.92
-1 17 -3 23.98 1.24
1 -17 3 22.35 0.84
1 17 3 23.56 0.86
1 -17 3 22.27 1.15
1 17 3 24.45 1.19
1 -17 3 24.01 1.52
-1 17 -3 24.42 1.42
1 17 4 193.47 2.97
-1 17 -4 192.26 3.62
1 -17 4 181.19 4.35
1 17 4 191.07 3.33
1 -17 4 194.21 3.52
1 -17 5 19.32 0.96
1 17 5 19.85 0.95
-1 17 -5 18.75 1.1
1 -17 5 18.91 1.48
1 17 5 20.18 0.99
1 -17 5 18.89 1.11
1 17 6 101.97 2.78
1 -17 6 107.37 2.87
1 -17 6 99.88 2.98
-1 17 -6 105.28 3
1 17 6 104.83 2.57
1 -17 6 101.65 3.69
1 -17 7 1.44 0.59
1 -17 7 2.13 0.82
1 17 7 2.62 0.35
1 -17 7 2.67 0.6
1 17 7 1.57 0.53
1 -17 8 15.47 1.1
-1 17 -8 14.57 1.04
1 -17 8 17.03 1.59
1 -17 9 1.95 1
1 -17 9 2.09 0.7
-1 17 -9 1.83 0.66
1 -17 10 35.01 1.76
1 -17 10 32.08 2.22
-1 17 -10 31.68 1.63
-1 17 -11 0.27 0.61
1 -17 11 0.29 0.7
1 -17 11 0.89 0.95
1 -17 12 -0.72 1.06
1 -18 -12 0.6 0.79
1 18 -12 0.76 0.77
1 18 -12 0.5 0.89
1 18 -11 0.4 0.81
-1 -18 11 1 0.78
1 -18 -11 0.72 0.77
1 18 -11 1.14 0.72
-1 -18 10 17.94 1.26
-1 -18 10 13.67 1.56
1 18 -10 12.59 1
1 -18 -10 15.95 1.21
1 18 -10 15.74 1.18
1 18 -10 17.85 1.51
-1 -18 9 21.91 1.31
1 -18 -9 20.3 1.25
1 18 -9 21.21 1.25
1 18 -9 18.81 1.13
-1 -18 9 17.63 1.68
1 18 -8 1.45 0.58
1 -18 -8 1.25 0.56
-1 -18 8 0.61 0.57
-1 -18 8 0.83 0.84
-1 -18 7 10.86 0.93
1 -18 -7 9.91 0.71
-1 -18 7 8.09 1.22
1 -18 -7 10.18 0.8
1 18 -7 8.14 0.75
-1 -18 6 42.1 1.64
-1 -18 6 41.04 2.24
1 -18 -6 43.43 1.55
-1 -18 5 62.28 2.08
-1 -18 5 64.68 2.82
1 -18 -5 60.85 2.07
1 18 -4 31.65 1.41
-1 -18 4 30.56 1.87
-1 -18 4 31.89 1.4
1 -18 -4 32.6 1.49
1 -18 -3 127.3 3.52
1 18 -3 123.1 3.21
-1 18 3 127.55 3.79
-1 18 3 116.57 3.17
-1 -18 3 126.37 3.29
-1 18 3 120.66 3.25
-1 -18 2 267.41 5.38
-1 18 2 266.63 5.35
1 18 -2 277.91 5.97
-1 18 2 289.21 6.73
1 -18 -2 270.68 6.44
1 18 -2 277.67 6.53
-1 18 2 280.95 6.2
1 18 -1 202.2 5.11
1 -18 -1 204.01 5.21
-1 18 1 195.67 4.87
1 18 -1 202.73 4.59
-1 -18 1 205.35 5.48
1 18 0 78.9 2.15
1 18 0 71.83 1.53
1 18 0 77.87 2.54
1 -18 0 78.46 2.72
-1 18 0 75.22 2.47
-1 -18 0 80.16 2.85
-1 -18 -1 130.07 3.92
1 18 1 135.03 3.26
1 18 1 132.81 3.63
1 -18 1 131.46 3.97
-1 18 -1 129.44 3.68
1 18 2 115.6 2.95
1 -18 2 111.11 3.09
1 18 2 110.24 3.16
-1 18 -2 112.45 3.36
-1 18 -3 19.55 1.15
1 -18 3 19.4 1.11
1 -18 3 19.7 1.48
1 18 3 17.34 1.06
1 18 3 18.72 0.74
1 -18 3 16.64 0.71
-1 18 -4 13.6 0.98
1 -18 4 9.57 0.62
1 18 4 13.76 0.71
1 -18 4 15.79 1.02
1 -18 4 15.67 1.37
1 18 4 14.86 0.92
1 -18 5 70.84 2.05
1 18 5 69.35 2
-1 18 -5 71.76 2.35
1 18 5 69.22 2.07
1 -18 5 69.76 2.94
1 -18 5 69.41 2.32
1 -18 6 86.28 2.46
1 18 6 85.17 2.4
1 -18 6 81.48 2.62
-1 18 -6 80.34 2.59
1 18 6 85.79 2.23
1 -18 6 80.46 3.3
1 -18 7 4.04 0.66
1 18 7 3.07 0.59
-1 18 -7 3.32 0.62
1 -18 7 3.06 0.66
1 -18 7 3.13 0.99
1 -18 8 6.35 1.25
1 -18 8 7.61 0.88
-1 18 -9 27.15 1.48
1 -18 9 27.57 2.03
1 -18 9 30.51 1.57
1 -18 10 10.51 1.05
-1 18 -10 9.73 1.04
1 -18 10 11.57 1.52
1 -18 11 1.22 0.76
-1 18 -11 0.5 0.63
1 -18 11 -0.93 1.04
1 -18 12 4.41 1.26
1 19 -12 1.1 0.87
1 -19 -12 1.18 0.81
1 19 -12 0.06 0.76
-1 -19 11 19.45 1.4
1 -19 -11 15.38 1.32
1 19 -11 16.62 1.31
1 19 -11 16.84 1.56
1 -19 -10 5.72 0.9
1 19 -10 5.23 0.85
-1 -19 10 6.62 0.95
-1 -19 10 3.93 1.14
1 19 -10 4.82 0.74
1 19 -10 5.37 1.03
1 -19 -9 1.86 0.66
1 19 -9 2.23 0.66
-1 -19 9 1.01 0.67
-1 -19 9 1.59 0.94
1 19 -9 2.17 0.62
1 -19 -8 1.01 0.54
1 19 -8 1.48 0.54
-1 -19 8 0.98 0.61
-1 -19 8 1.3 0.96
-1 -19 7 73.3 2.35
1 -19 -7 69.98 1.99
-1 -19 7 75.65 3.15
1 -19 -7 72.55 2.12
1 19 -7 74.88 2.14
1 -19 -6 17.59 0.9
1 19 -6 15.25 0.86
-1 -19 6 16.83 1.56
-1 -19 6 18.12 1.11
1 19 -6 15.59 0.75
1 -19 -6 19.81 1.07
-1 -19 5 70.42 2.3
-1 -19 5 74.19 3.09
1 -19 -5 71.59 1.94
1 -19 -5 72.9 2.35
-1 -19 4 5.1 0.7
1 -19 -4 4.67 0.72
-1 -19 4 5.43 1.05
1 19 -3 105.9 2.9
-1 19 3 103.91 2.94
-1 -19 3 102.48 2.93
1 -19 -3 104.21 3.2
1 -19 -2 0.51 0.56
-1 19 2 0.31 0.5
-1 -19 2 0.19 0.19
-1 19 2 0.09 0.19
1 19 -2 0.06 0.46
-1 19 2 -0.47 0.64
1 19 -1 99.19 2.63
-1 -19 1 98.53 3.4
1 -19 -1 94.3 3.13
1 19 -1 94.94 3.03
-1 19 1 92.09 2.85
1 19 0 3.31 0.55
1 19 0 3.37 0.75
-1 19 0 2.56 0.69
1 -19 0 3.57 0.71
-1 -19 0 3.22 0.75
1 19 1 130.74 3.21
1 -19 1 127.17 3.96
1 19 1 125.73 3.56
-1 19 -1 129.59 3.67
-1 -19 -1 123.11 3.89
1 19 2 19.95 1.19
1 19 2 19.26 1.03
-1 19 -3 194.3 5.12
1 -19 3 202.01 5.04
1 19 3 207.62 5.01
1 -19 4 5.55 0.49
1 19 4 6.4 0.54
-1 19 -4 7.33 0.8
1 -19 4 6.3 0.78
1 19 4 5.85 0.72
1 -19 4 7.38 1.09
-1 19 -5 4.94 0.73
1 -19 5 3.99 0.52
1 19 5 4.9 0.54
1 -19 5 3.95 0.69
1 -19 5 4.33 1
1 19 5 4.75 0.64
1 -19 6 23.89 1.13
1 19 6 21.99 1.07
-1 19 -6 23.06 1.26
1 19 6 20.85 0.98
1 -19 6 18.88 1.64
1 -19 6 21.42 1.26
1 -19 7 85.32 2.52
1 19 7 83.17 2.44
1 -19 7 81.24 2.67
-1 19 -7 83.88 2.6
1 -19 7 77.79 3.35
1 -19 8 4.03 0.77
1 -19 8 2.81 1.02
-1 19 -8 1.03 0.16
1 -19 9 2.2 0.72
1 -19 9 3.68 1.14
-1 19 -9 2.51 0.7
1 -19 10 1.09 0.71
1 -19 10 0.19 0.92
-1 19 -10 0.75 0.66
1 -19 11 8.2 1.08
1 -19 11 7.27 1.39
-1 19 -11 8.03 1.01
1 -19 12 0.39 1.05
1 20 -12 5.19 0.95
-1 -20 11 0.73 0.76
1 20 -11 -0.05 0.68
1 -20 -11 0.84 0.78
1 20 -11 0.41 0.82
1 -20 -10 7.91 0.97
1 20 -10 6.88 0.89
-1 -20 10 7.91 1.02
-1 -20 10 7.21 1.38
1 20 -10 8.65 1.19
1 20 -10 7.19 0.85
1 -20 -9 1.2 0.62
1 20 -9 0.68 0.59
1 20 -9 0.83 0.53
-1 -20 9 0.29 0.63
-1 -20 9 0.27 0.94
-1 -20 8 36.36 1.68
-1 -20 8 36.74 2.28
1 -20 -8 38.22 1.55
1 20 -8 33.99 1.48
1 20 -7 1.69 0.36
1 20 -7 2.42 0.54
1 -20 -7 2.44 0.55
-1 -20 7 1.61 0.65
-1 -20 7 1.76 0.91
1 -20 -7 2.32 0.58
1 20 -6 89.61 2.39
1 -20 -6 93.35 2.4
-1 -20 6 89.37 3.56
-1 -20 6 95.22 2.79
1 -20 -6 96.07 2.7
-1 -20 5 4.48 0.7
1 -20 -5 6.1 0.78
-1 -20 5 4.73 1.05
1 -20 -5 5.05 0.49
1 20 -5 5.05 0.49
-1 -20 4 2.78 0.63
1 20 -4 3.74 0.38
1 -20 -4 3.17 0.37
1 -20 -4 4.08 0.73
-1 -20 4 3.83 0.94
1 20 -3 8.8 0.44
1 -20 -3 7.98 0.4
1 -20 -3 8.09 0.91
-1 20 3 8 0.83
1 20 -2 18.69 1.03
1 -20 -2 17.47 1.25
-1 20 2 15.95 1.08
1 20 -2 16.21 0.47
-1 20 2 15.64 0.45
-1 -20 2 15.25 0.47
1 20 -1 3.44 0.57
-1 20 1 2.92 0.68
1 -20 -1 3.81 0.77
-1 -20 1 2.34 0.73
1 20 0 9.4 0.75
-1 -20 0 7.43 1.05
1 20 0 7.72 0.92
1 -20 0 7.3 0.97
-1 20 0 7.91 0.91
1 20 1 5.69 0.67
1 -20 1 5.57 0.94
-1 -20 -1 6.16 0.94
1 20 1 5.37 0.81
1 20 2 202.11 4.99
1 -20 3 12.12 0.98
1 20 3 13.33 0.98
-1 20 -3 11.38 1
1 20 4 131.94 2.96
-1 20 -4 126.2 3.6
1 -20 4 134.43 3.59
1 20 4 132.5 3.39
1 -20 4 135.18 4.35
-1 20 -5 2.99 0.66
1 20 5 2.92 0.48
1 -20 5 2.6 0.63
1 -20 5 1.65 0.87
1 20 5 2.52 0.57
1 -20 6 45.82 1.89
-1 20 -6 47.18 1.89
1 -20 6 48.77 2.55
1 -20 6 47.23 1.64
1 20 6 46.39 1.6
-1 20 -7 3.62 0.67
1 -20 7 2.59 0.61
1 -20 7 3.06 0.72
1 -20 7 3.18 1.08
1 -20 8 36.73 1.64
1 -20 8 33.58 2.21
1 -20 9 0.21 0.67
1 -20 9 -0.1 0.94
-1 20 -9 0.21 0.58
1 -20 10 -0.95 0.74
1 -20 10 -0.39 0.96
-1 20 -10 0.33 0.64
1 -20 11 0.69 1.04
-1 20 -11 2.69 0.83
1 21 -12 0.66 0.75
-1 -21 11 6.74 1.05
1 21 -11 5.12 0.89
1 21 -11 7.07 1.22
1 21 -10 2.15 0.7
1 -21 -10 1.52 0.74
-1 -21 10 1.9 0.78
-1 -21 10 1.34 1.07
1 21 -10 1.96 0.88
1 21 -10 1.36 0.59
1 21 -9 0.38 0.56
1 -21 -9 0.7 0.6
1 21 -9 1.54 0.61
-1 -21 9 0.45 0.66
-1 -21 9 1.7 1.08
-1 -21 8 17.11 1.21
-1 -21 8 17.07 1.73
1 21 -8 16.89 1.05
1 -21 -8 14.78 1.02
-1 -21 7 31.08 1.52
-1 -21 7 28.83 2.07
1 -21 -7 29.81 1.3
1 21 -7 28.52 1.25
1 -21 -7 31.23 1.3
1 -21 -6 1.12 0.42
1 21 -6 1.49 0.45
1 21 -6 1.54 0.42
-1 -21 6 0.22 0.6
1 -21 -6 1.4 0.6
-1 -21 6 1.25 0.86
-1 -21 5 22.33 1.76
1 -21 -5 24.19 1.33
-1 -21 5 22.75 1.29
1 -21 -5 23.1 0.91
1 21 -5 22.08 0.92
-1 -21 4 43.61 2.4
-1 -21 4 46.41 1.8
1 -21 -4 40.76 1.17
1 21 -4 41.41 1.21
1 -21 -4 41.86 1.84
-1 -21 3 152.69 3.24
-1 21 3 157.2 3.22
1 21 -3 164.74 3.24
1 -21 -3 150.82 3.15
1 -21 -3 175.3 4.53
-1 21 3 177.76 4.19
-1 21 2 0.98 0.6
1 -21 -2 0.65 0.58
-1 -21 2 0.23 0.64
-1 -21 1 174.36 5.18
-1 21 1 175.02 4.56
1 -21 -1 178.91 4.98
-1 -21 0 76.4 3.03
1 -21 0 88.47 3.15
-1 -21 -1 45.89 2.2
1 21 1 42.75 1.84
1 -21 1 43.54 2.19
1 21 2 3.51 0.73
1 -21 2 4.67 0.93
1 -21 3 77.3 2.53
1 21 3 75.71 2.44
-1 21 -3 66.37 2.49
1 -21 4 36.35 1.17
-1 21 -4 40.71 1.81
1 -21 4 42.56 1.81
1 21 4 42.19 1.65
1 -21 4 44.28 2.39
-1 21 -5 2.14 0.63
1 21 5 4.27 0.53
1 -21 5 2.96 0.69
1 -21 5 3.43 0.97
1 21 5 2.9 0.61
1 -21 6 7.48 0.89
-1 21 -6 8.39 0.88
1 -21 6 7.41 1.3
1 -21 6 6.77 0.68
1 -21 7 24.76 1.45
-1 21 -7 29.64 1.45
1 -21 7 26.43 2.01
1 -21 7 24.08 1.23
1 -21 8 5.42 0.85
1 -21 8 4.94 1.18
1 -21 9 0.21 0.69
1 -21 9 0.2 0.99
-1 21 -9 -0.22 0.61
1 -21 10 2.15 0.83
1 -21 10 3.07 1.22
-1 21 -10 1.75 0.74
1 -21 11 3.97 1.31
1 22 -11 0.05 0.68
1 22 -11 0.69 0.93
1 22 -10 -0.09 0.61
1 22 -10 0.08 0.78
-1 -22 10 0.22 0.73
-1 -22 10 -0.69 1.07
1 22 -9 20.4 1.25
1 22 -9 19.24 1.25
-1 -22 9 21.81 1.97
1 22 -8 7.21 0.77
1 -22 -8 7.68 0.79
-1 -22 8 6.5 1.33
-1 -22 8 8.54 0.97
-1 -22 7 13.3 1.1
-1 -22 7 12.4 1.5
1 -22 -7 11.06 0.9
1 -22 -7 11.86 0.82
1 22 -7 11.21 0.82
-1 -22 6 7.77 1.26
1 22 -6 6.53 0.6
1 22 -6 6.52 0.61
1 -22 -6 6.58 0.59
-1 -22 6 7.24 0.87
1 -22 -6 8.71 0.9
1 22 -5 35.73 1.19
-1 -22 5 39.09 2.32
-1 -22 5 34.88 1.66
1 -22 -5 39.84 1.76
1 -22 -5 34.69 1.13
1 -22 -4 7.04 0.43
1 22 -4 8.08 0.47
-1 -22 4 7.73 0.88
1 -22 -4 6.87 0.9
-1 -22 4 7.91 1.23
-1 -22 3 52.75 1.23
-1 22 3 51.58 1.19
-1 22 3 73.04 2.27
1 22 -3 63.57 1.29
1 -22 -3 72.98 2.57
-1 22 2 12.92 1.06
1 -22 -2 10.95 1.13
-1 -22 2 11.78 1.29
1 -22 -1 87.2 3.21
-1 -22 1 94.29 3.45
1 -22 0 18.2 1.46
-1 -22 0 17.42 1.46
1 -22 1 100.19 3.59
-1 -22 -1 95.14 3.45
1 22 2 21.49 1.3
1 -22 2 21.43 1.65
1 22 3 28.62 1.43
-1 22 -3 23.67 1.43
-1 22 -4 25.15 1.49
1 22 4 30.02 1.42
1 -22 4 28.08 1.96
1 -22 4 28.13 1.51
-1 22 -5 79.32 2.74
1 -22 5 80.21 2.72
1 -22 5 87.46 3.55
1 -22 6 4.2 0.56
-1 22 -6 5.51 0.82
1 -22 6 5.06 1.16
1 -22 6 5.29 0.82
-1 22 -7 0.38 0.55
1 -22 7 -0.1 0.63
1 -22 7 0.29 0.92
1 -22 8 8.88 1.4
1 -22 8 9.53 1.03
1 -22 9 32.68 1.75
-1 22 -9 33 1.75
1 -22 9 32.37 2.35
1 -22 10 0.34 0.76
1 -22 10 0.2 1.06
-1 22 -10 0.65 0.69
1 23 -10 7.38 0.91
-1 -23 10 6.91 1.04
-1 -23 10 7.45 1.45
1 23 -10 7.66 1.2
1 23 -9 0.98 0.59
1 23 -9 1.19 0.6
-1 -23 9 2.69 0.84
-1 -23 9 2.22 1.15
-1 -23 8 18.67 1.3
-1 -23 8 18.76 1.89
1 23 -8 17.49 1.06
-1 -23 7 0.1 0.93
1 -23 -7 0.47 0.56
-1 -23 7 -0.78 0.64
1 23 -7 -0.09 0.43
1 23 -6 9.86 0.69
1 23 -6 7.39 0.68
1 -23 -6 9.05 0.64
-1 -23 6 10.71 1.04
-1 -23 6 10.91 1.44
1 -23 -6 10.99 1.01
1 23 -5 5.31 0.49
1 -23 -5 4.86 0.44
-1 -23 5 4.24 0.78
-1 -23 5 5.85 1.18
1 -23 -5 5.74 0.86
-1 23 4 82.36 1.93
1 23 -4 91.89 2.01
1 -23 -3 0.71 0.65
-1 23 3 0.74 0.6
-1 -23 2 2.2 0.92
1 -23 -2 1.49 0.76
1 -23 -1 1.45 0.74
-1 -23 1 1.33 0.77
1 -23 0 130.73 4.25
-1 -23 0 130.9 4.29
1 -23 1 9.91 1.25
-1 -23 -1 8.39 1.12
1 -23 2 17.72 1.55
-1 23 -3 1.87 0.67
1 23 3 2.43 0.71
-1 23 -4 63.19 2.48
1 -23 4 69.26 2.49
1 23 4 71.82 2.34
1 -23 5 4.66 0.81
-1 23 -5 4.33 0.8
1 -23 5 4.25 1.11
-1 23 -6 41.16 1.86
1 -23 6 39.8 1.85
1 -23 6 37.92 2.39
-1 23 -7 0.2 0.58
1 -23 7 -0.42 0.69
1 -23 7 0.99 0.98
1 -23 8 6.88 0.97
1 -23 8 7.05 1.38
1 -23 9 4.35 0.94
-1 23 -9 2.82 0.83
1 -23 9 2.58 1.22
-1 23 -10 14.26 1.31
1 -23 10 13.12 1.76
1 24 -10 3.24 1.02
-1 -24 9 14.12 1.24
-1 -24 9 13.21 1.74
1 24 -9 12.27 1.02
-1 -24 8 -0.52 1.01
1 24 -8 0.13 0.51
-1 -24 8 -0.16 0.69
1 -24 -7 0.96 0.6
-1 -24 7 0.51 1
-1 -24 7 0.4 0.67
1 24 -7 0.7 0.42
-1 -24 6 18.83 1.28
1 24 -6 13.37 0.89
1 24 -6 15.4 0.8
1 -24 -6 17.07 1.22
-1 -24 6 16.04 1.76
1 24 -5 44.95 1.31
-1 -24 5 45.57 2.62
-1 -24 5 49.26 2.02
1 -24 -5 51.29 2.09
1 -24 -4 0.23 0.67
-1 -24 4 0.23 0.18
1 -24 -3 36.11 1.92
1 -24 -2 39.53 2.06
-1 -24 2 41.51 2.34
1 -24 -1 70.86 2.89
-1 -24 1 66.92 2.97
-1 -24 0 1.4 0.8
1 -24 0 0.77 0.75
1 -24 1 83.22 3.37
-1 -24 -1 87.93 3.35
1 -24 2 41.23 2.33
-1 24 -3 1.08 0.65
1 -24 4 1.6 0.68
-1 24 -4 1.49 0.71
1 -24 5 37.28 1.85
1 -24 5 42.83 2.51
-1 24 -5 38.88 1.88
-1 24 -6 9.89 1.05
1 -24 6 8.68 1.46
1 -24 6 10.11 1.06
-1 24 -7 3.13 0.76
1 -24 7 0.98 0.7
1 -24 7 1.74 1.07
1 -24 8 0.83 0.72
1 -24 8 0.21 1
1 -24 9 9.8 1.15
1 -24 9 9.18 1.57
-1 -25 9 0.39 0.76
-1 -25 9 0.53 1.09
-1 -25 8 -0.59 0.75
-1 -25 8 0.42 1.14
-1 -25 7 20.68 2.01
-1 -25 7 22.42 1.47
1 25 -7 19.03 0.97
-1 -25 6 6.76 1.38
1 -25 -6 7.11 0.93
-1 -25 6 7.74 0.98
-1 -25 5 2.78 1.18
1 -25 -5 2.87 0.8
-1 -25 5 1.98 0.76
1 -25 -4 28.04 1.69
1 -25 -3 37.9 1.99
-1 -25 3 34.45 2.22
1 -25 -2 0.84 0.79
-1 -25 2 0.96 0.91
1 -25 -1 45.72 2.33
-1 -25 1 46.11 2.47
1 -25 0 45.3 2.4
-1 -25 0 43.88 2.35
1 -25 1 3.26 0.99
-1 -25 -1 2.57 0.91
1 -25 2 6.85 1.17
1 -25 3 45.48 2.52
-1 25 -3 39.98 1.95
-1 25 -4 2.68 0.77
1 -25 5 1.37 0.71
-1 25 -5 1.53 0.71
1 -25 6 10.03 1.07
1 -25 6 9.31 1.51
-1 25 -6 8.94 1.06
1 -25 7 34.1 1.77
1 -25 7 28.92 2.3
-1 25 -7 31.55 1.69
1 -25 8 0.32 1.03
1 -25 8 0.12 0.75
1 -25 9 0.32 1.11
-1 -26 8 2.51 1.27
-1 -26 8 1.63 0.81
-1 -26 7 1.73 1.1
-1 -26 7 1.11 0.78
-1 -26 6 29.64 2.33
1 -26 -6 25 1.56
-1 -26 6 30.33 1.66
-1 -26 5 -0.1 1.01
1 -26 -5 0.4 0.74
1 -26 -4 1.88 0.83
1 -26 -3 0.41 0.81
-1 -26 3 1.04 0.94
1 -26 -2 109.48 3.87
-1 -26 2 116.63 4.24
1 -26 -1 0.62 0.85
-1 -26 1 0.86 0.87
1 -26 0 1.72 0.93
-1 -26 0 1.91 0.9
1 -26 1 1.12 0.84
1 -26 2 61.07 2.95
1 -26 3 7.92 1.33
-1 26 -3 5.8 0.91
-1 26 -4 7.32 1
1 -26 5 -0.28 0.7
1 -26 5 0.92 1
-1 26 -5 -0.18 0.7
1 -26 6 19.38 1.42
1 -26 6 21.14 2
-1 26 -6 18.79 1.4
1 -26 7 1.24 0.79
1 -26 7 2.81 1.27
-1 26 -7 1.52 0.74
1 -26 8 17.39 1.94
1 -26 8 21.08 1.51
-1 -27 8 -0.41 0.79
-1 -27 7 29.42 2.4
-1 -27 7 27.02 1.63
-1 -27 6 0.98 1.11
1 -27 -6 0.36 0.69
-1 -27 6 0.84 0.78
1 -27 -5 4.16 0.9
1 -27 -4 15.68 1.41
1 -27 -3 47.66 2.37
-1 -27 3 51.87 2.79
1 -27 -2 0.08 0.82
-1 -27 2 -1.03 0.92
1 -27 -1 52.75 2.62
-1 -27 1 57 2.81
1 -27 0 18.41 1.66
-1 -27 0 18.63 1.67
1 -27 1 5.28 1.16
1 -27 2 4.88 1.2
1 -27 3 83.33 3.6
-1 27 -3 72.61 2.79
-1 27 -4 1.9 0.78
1 -27 5 -0.53 1.05
-1 27 -5 0.19 0.72
1 -27 6 -0.42 0.82
1 -27 6 1.63 1.17
-1 27 -6 0.24 0.74
1 -27 7 18.35 1.46
1 -27 7 16.99 1.94
-1 27 -7 18.13 1.39
-1 -28 7 5.33 1.44
-1 -28 7 3.79 0.94
-1 -28 6 15.51 1.89
1 -28 -6 14.03 1.26
1 -28 -5 19.22 1.49
1 -28 -4 1.02 0.81
1 -28 -3 5.56 1.07
-1 -28 3 6.44 1.33
-1 -28 2 12.41 1.58
1 -28 -2 16.39 1.56
-1 -28 1 10.04 1.39
1 -28 -1 7.16 1.24
1 -28 0 0.8 0.86
-1 -28 0 -0.18 0.91
1 -28 1 40.16 2.44
1 -28 2 24.32 2.02
-1 28 -2 20.71 1.47
1 -28 3 7.74 1.38
-1 28 -3 7.87 1.09
-1 28 -4 12.23 1.26
-1 28 -5 25.12 1.67
-1 28 -6 -0.37 0.74
1 -28 6 -0.06 0.81
1 -28 6 -0.89 1.17
-1 -29 6 0.34 1.11
1 -29 -5 0.82 0.83
1 -29 -4 23.44 1.72
-1 -29 4 23.3 2.09
-1 -29 3 -0.1 1.01
1 -29 -3 1.29 0.92
-1 -29 2 -0.69 1.04
1 -29 -2 -0.4 0.9
1 -29 -1 0.69 0.88
-1 -29 1 0.38 0.92
1 -29 0 31.86 2.21
-1 -29 0 33.44 2.22
1 -29 1 3.84 1.18
-1 29 -2 1.18 0.76
1 -29 2 -0.3 1
-1 29 -3 3.89 0.9
1 -29 3 3.03 1.14
1 -29 4 16.2 1.87
-1 29 -4 14.42 1.35
-1 29 -5 3.03 0.88
1 -29 6 21.14 2.13
-1 29 -6 18.48 1.48
1 -30 -5 29.51 1.86
-1 -30 4 2.08 1.18
1 -30 -4 2.73 1.01
1 -30 -3 15.78 1.56
-1 -30 3 14.95 1.8
-1 -30 2 1.11 1.03
1 -30 -2 2.09 0.95
1 -30 -1 21.12 1.86
-1 -30 1 23.23 1.99
1 -30 0 -0.28 0.99
1 -30 1 55.63 2.97
1 -30 2 0.2 1.02
-1 30 -2 0.57 0.74
1 -30 3 0.64 1.11
-1 30 -3 0.85 0.76
1 -30 4 3.29 1.22
-1 30 -4 0.2 0.78
-1 30 -5 10.96 1.26
-1 -31 4 13.46 1.86
1 -31 -4 12.27 1.4
-1 -31 3 10.47 1.63
1 -31 -3 8.82 1.34
-1 -31 2 -0.1 1.05
1 -31 -2 1.55 1.02
-1 -31 1 10.1 1.57
1 -31 -1 11.33 1.5
1 -31 0 17.03 1.77
1 -31 1 7.46 1.44
1 -31 2 4.48 1.24
-1 31 -2 2.59 0.87
1 -31 3 8.09 1.49
-1 31 -3 9.59 1.16
1 -31 4 14.74 1.9
-1 31 -4 13.96 1.37
-1 31 -5 5.67 1.04
1 -32 -4 0.22 0.86
1 -32 -3 1.23 0.98
-1 -32 3 -0.55 1.1
1 -32 -2 21.69 1.86
-1 -32 2 18.59 1.97
1 -32 -1 0.47 1.02
1 -32 0 -0.68 1.06
1 -32 1 0.92 1.1
1 -32 2 13.37 1.8
-1 32 -2 12.63 1.29
-1 32 -3 -0.2 0.78
-1 32 -4 4.9 1.02
-1 32 -5 4 1.04
1 -33 -4 -0.68 0.91
1 -33 -3 13.07 1.54
1 -33 -2 0.09 1
1 -33 -1 14.98 1.73
1 -33 0 -0.6 1.05
1 -33 1 7.86 1.54
-1 33 -2 1.06 0.79
-1 33 -3 11.82 1.3
-1 33 -4 0.55 0.84
1 -34 -3 2.37 1.05
1 -34 -2 10.56 1.52
1 -34 -1 1.16 1.14
1 -35 -3 2.31 1.1
-2 0 14 3.49 1
2 0 -13 0.09 0.88
2 0 -12 13.78 1.48
2 0 -11 -0.16 0.66
2 0 -10 2.71 0.78
-2 0 10 1.09 0.2
2 0 -9 1.05 0.71
2 0 -9 0.65 0.73
-2 0 9 0.74 0.25
2 0 -8 110.8 2.77
2 0 -8 99.18 3.17
-2 0 7 0.12 0.21
2 0 -7 0.21 0.48
2 0 -7 -0.03 0.45
-2 0 6 19.62 0.72
2 0 -6 21.78 1.23
-2 0 5 0.15 0.22
2 0 -5 0.32 0.38
-2 0 4 2160.6 40.61
2 0 -4 2182.25 41.24
-2 0 3 0.17 0.26
2 0 -3 0.29 0.34
2 0 -3 0.31 0.34
2 0 -2 82.84 2
-2 0 2 77.62 2.02
2 0 -2 81.53 2.17
2 0 -2 81.36 2.28
2 0 -1 0.09 0.25
2 0 -1 0.03 0.24
2 0 -1 -0.06 0.24
-2 0 0 709.13 14.03
2 0 0 713.06 13.83
2 0 0 702.61 13.74
2 0 0 703.9 13.52
2 0 1 0.32 0.25
-2 0 -1 0.33 0.34
2 0 1 0.02 0.36
2 0 1 -0.16 0.18
2 0 2 0.56 0.2
-2 0 -2 0.97 0.36
2 0 3 0.03 0.22
-2 0 -3 0.37 0.34
2 0 3 -0.07 0.11
2 0 4 246.92 5.29
2 0 4 236 5.18
2 0 5 0.56 0.45
2 0 5 -0.23 0.21
2 0 5 0.21 0.38
2 0 5 0.07 0.38
2 0 5 0.2 0.41
2 0 6 148.52 3.82
2 0 6 146.28 3.87
2 0 6 161.56 3.88
2 0 6 149.98 3.72
2 0 6 142.83 3.2
2 0 7 0.28 0.43
2 0 7 0.57 0.54
2 0 8 69.42 2.23
2 0 9 0.77 0.53
2 0 10 34.54 1.54
2 0 11 -0.55 0.92
2 0 12 -0.62 0.97
2 0 13 0.35 1.2
-2 -1 14 0.49 0.84
-2 -1 13 9.51 1.13
2 1 -13 7.8 1.29
2 -1 -13 8.11 1.34
2 -1 -12 1.23 0.84
2 1 -12 2.15 0.93
2 1 -11 0.36 0.68
-2 1 11 0.46 0.23
2 -1 -10 9.33 0.99
2 1 -10 10.07 1.05
2 -1 -9 85.35 2.44
2 1 -9 78.72 2.46
-2 -1 8 0.67 0.21
-2 1 8 0.78 0.28
2 1 -8 1.37 0.61
2 1 -8 0.75 0.59
2 -1 -8 0.41 0.59
2 1 -7 23 1.17
2 -1 -7 22.32 1.34
2 1 -7 23.22 1.36
-2 1 7 21.06 0.76
-2 -1 7 19.04 0.64
2 1 -6 74.39 2.19
2 -1 -6 67.1 2.35
2 1 -6 69.75 2.38
-2 1 6 65.67 1.7
-2 -1 6 66.89 1.59
2 -1 -5 93.03 2.79
2 1 -5 93.18 2.8
-2 1 5 95.3 2.23
-2 -1 5 94.06 2.14
2 1 -4 4.12 0.62
2 -1 -4 4.31 0.61
-2 1 4 2.66 0.4
2 1 -3 321.57 6.8
2 -1 -3 304.47 6.76
2 1 -3 313.51 6.68
2 -1 -3 314.24 6.72
-2 1 3 312.31 6.37
2 1 -2 274.74 5.89
2 -1 -2 271.08 5.88
-2 1 2 266.07 5.61
2 1 -2 274.31 5.52
2 1 -2 264.78 5.72
2 -1 -2 269.75 5.75
2 -1 -1 97.79 2.53
2 1 -1 97.45 2.51
-2 1 1 98.57 1.9
2 -1 -1 93.39 2.33
2 1 -1 96.36 2.32
-2 1 1 89.67 2.36
2 -1 -1 95.06 2.33
2 1 -1 92.71 2.31
-2 1 0 39.75 1.42
-2 -1 0 40.6 1.43
2 -1 0 37.81 1.29
2 1 0 39.65 1.28
2 -1 0 37.01 1.24
2 -1 0 37.1 1.08
-2 1 -1 829.92 16.59
-2 -1 -1 827.18 16.59
2 -1 1 877.83 16.32
2 1 1 851.77 15.79
2 -1 1 855.63 15.83
2 1 1 833.59 16.39
2 -1 1 831.44 16.37
2 -1 1 821.79 15.93
2 -1 2 116.44 2.49
-2 1 -2 116.36 3.09
-2 -1 -2 116.41 3.09
2 -1 2 114.55 2.69
-2 1 -3 0.4 0.35
-2 -1 -3 0.07 0.3
2 -1 3 0.06 0.19
2 -1 3 -0.18 0.26
2 1 3 0.44 0.19
2 1 4 59.16 1.92
2 -1 4 59.27 1.91
2 -1 4 56.28 1.84
2 -1 4 60.85 1.65
2 1 4 57.74 1.42
2 -1 4 60.42 1.97
2 1 5 317.6 7.2
2 -1 5 332.04 7.25
2 -1 5 364.32 7.32
2 -1 5 340.73 7.03
2 -1 5 351.4 7.34
2 1 5 335.29 6.69
2 -1 5 322.78 7.3
2 1 5 336 7.34
2 -1 6 55.78 1.89
2 -1 6 49.77 1.83
2 -1 6 44.78 1.81
2 1 6 48.79 1.85
2 -1 6 49.8 1.78
2 1 6 48.82 1.73
2 1 6 51.06 1.44
2 -1 7 24.9 1.22
2 -1 7 22.91 1.13
2 1 7 22.59 1.06
2 1 7 25.03 0.91
2 -1 8 53.79 2.02
2 -1 8 49.82 1.87
2 1 8 49.88 1.8
2 1 8 54.06 1.65
2 -1 9 57.95 2.21
2 -1 9 52.5 1.96
2 1 9 48.79 1.81
2 -1 10 2.28 0.86
2 -1 10 1.71 0.63
2 1 10 1.58 0.58
2 -1 11 9.63 1.2
2 -1 11 7.05 0.86
2 1 12 1.29 1.02
2 -1 12 0.99 0.95
2 -1 13 9.42 1.53
2 1 13 9.25 1.62
-2 -2 14 2.36 0.92
-2 -2 13 -0.35 0.75
2 -2 -13 0.97 0.93
2 2 -13 -0.19 0.82
-2 -2 12 1.89 0.79
2 -2 -12 2.13 0.92
2 2 -12 2.66 0.92
2 2 -11 18.2 1.31
2 2 -11 17.7 1.56
-2 2 11 13.17 0.6
2 2 -10 9.72 1.09
-2 2 10 6.89 0.49
2 -2 -9 0.4 0.62
2 2 -9 1.93 0.73
-2 2 8 46.71 1.38
2 2 -8 54.85 1.96
2 -2 -8 51.3 2.24
2 2 -8 52.22 2.23
-2 2 8 57.04 1.96
-2 2 7 167.46 3.79
2 -2 -7 176.29 4.77
2 2 -7 186.91 4.82
-2 2 7 192.62 4.47
2 2 -7 183.71 4.4
-2 2 6 3.44 0.4
2 2 -6 3.83 0.64
2 2 -6 2.62 0.63
2 2 -6 2.35 0.58
-2 2 6 3.76 0.61
2 -2 -6 2.72 0.62
-2 2 5 98.96 2.69
2 2 -5 99.23 2.7
2 2 -5 87.09 2.67
2 2 -5 90.42 2.76
2 -2 -5 93.45 2.83
-2 2 5 94.91 2.27
-2 2 4 102.03 2.69
-2 2 4 98.55 2.37
2 2 -4 93.52 2.71
2 -2 -4 96.61 2.76
2 2 -3 30.93 1.24
2 2 -3 30.08 0.9
-2 2 3 27.43 0.99
2 2 -3 28.5 1.16
2 -2 -3 29.37 1.19
-2 -2 3 25.36 0.79
2 2 -2 62.52 1.88
2 -2 -2 63.83 1.9
-2 2 2 62.53 1.69
2 2 -2 60.62 1.59
2 -2 -2 60.52 1.77
2 2 -2 59.94 1.74
-2 -2 2 57.58 1.28
2 -2 -1 480.23 9.87
-2 2 1 503.39 9.25
2 -2 -1 493 9.69
-2 2 1 480.49 9.77
2 2 -1 466.9 9.63
2 -2 -1 479.35 9.66
-2 2 0 274.02 5.93
2 -2 0 271.91 5.75
-2 2 0 271.41 5.2
2 -2 0 270.75 5.68
2 2 0 263.68 5.66
2 -2 0 271.77 5.45
-2 2 -1 19.45 0.96
2 -2 1 19.47 0.83
2 -2 1 18.93 0.56
2 2 1 19.21 0.88
2 -2 1 17.48 0.84
2 -2 1 18.42 0.57
2 -2 2 107.4 2.35
2 -2 2 109.99 2.56
-2 2 -2 108 2.92
2 -2 3 545.89 10.47
2 -2 3 536.73 10.48
-2 2 -3 544.61 11.13
2 2 3 521.04 10.87
2 -2 4 11.74 0.77
2 2 4 12.07 0.8
2 -2 4 11.85 0.52
2 -2 4 12.18 0.66
2 2 4 11.65 0.55
2 -2 4 11.56 0.79
2 -2 5 1.3 0.41
2 -2 5 1.36 0.47
2 -2 5 1.56 0.46
2 -2 5 1.06 0.21
2 2 5 2.18 0.5
2 -2 5 1.24 0.35
2 2 5 1.54 0.31
2 -2 6 120.8 3.32
2 2 6 120.01 3.38
2 -2 6 122.68 3.15
2 -2 6 134.94 3.37
2 2 6 118.39 3.15
2 -2 6 125.34 3.33
2 2 6 123.7 2.9
2 -2 7 78.1 2.43
2 -2 7 86.79 2.58
2 2 7 81.66 2.18
2 2 7 79.51 2.35
2 -2 7 77.23 2.47
2 2 8 7.66 0.69
2 2 8 7.58 0.71
2 -2 8 7.54 0.79
2 -2 8 6.79 0.81
2 2 9 17.06 1
2 -2 9 15.26 1.08
2 2 9 14.53 0.93
2 -2 9 16.62 1.22
2 -2 10 19.51 1.23
2 2 10 19.69 1.09
2 -2 10 24.79 1.54
2 -2 11 17.03 1.24
2 -2 11 23.79 1.63
2 -2 12 0.6 0.92
2 -2 13 22.85 1.93
2 2 13 21.62 2
2 -3 -13 0.2 0.88
2 3 -13 0.19 0.84
-2 -3 13 0.12 0.75
2 3 -12 5.18 1.08
2 -3 -12 6.28 1.23
-2 -3 12 7.36 1
2 3 -11 0.81 0.79
-2 -3 11 0.5 0.69
2 3 -11 1.42 0.84
2 3 -10 51.91 2.18
-2 -3 10 49.5 1.99
2 3 -9 0.7 0.63
2 -3 -9 -0.07 0.64
2 3 -8 11.47 0.96
2 -3 -8 10.3 1.05
2 3 -8 10.2 1.05
2 3 -7 3.61 0.7
2 -3 -7 3.32 0.73
2 3 -7 4.79 0.79
-2 3 7 4.1 0.71
-2 3 6 354.88 7.48
2 3 -6 367.77 8.26
2 -3 -6 377.43 8.36
2 3 -6 382.27 8.18
2 3 -6 367.71 7.98
-2 3 6 397.69 8.1
-2 3 5 0.65 0.28
-2 3 5 0.27 0.42
2 3 -5 -0.04 0.39
-2 3 5 0.47 0.4
2 3 -5 -0.19 0.37
2 3 -5 0.24 0.44
2 -3 -5 0.09 0.37
-2 3 4 24.53 1.11
-2 3 4 24.39 0.92
-2 3 4 23.51 1.07
2 3 -4 21.97 1.12
2 -3 -4 25.47 1.2
-2 -3 4 21.43 0.79
2 3 -3 58.12 1.9
-2 3 3 66.62 1.74
2 3 -3 60.16 1.5
2 3 -3 61.59 1.88
2 -3 -3 62.8 1.93
-2 -3 3 56.77 1.42
2 3 -2 1191.79 22.73
-2 3 2 1229.86 22.94
-2 3 2 1180.94 22.89
2 -3 -2 1217.94 23.06
-2 -3 2 1198.18 22.39
2 -3 -1 16.54 0.79
-2 3 1 15.85 0.45
2 -3 -1 16.13 0.7
-2 3 1 15.4 0.72
2 3 -1 15.81 0.68
2 -3 -1 15.22 0.66
-2 3 0 162.78 3.81
2 -3 0 163.89 3.68
-2 3 0 157.38 3.17
2 3 0 151.88 3.56
2 -3 0 160.84 3.59
2 -3 0 159.27 3.38
2 -3 1 25.95 0.72
2 -3 1 25.31 0.96
2 -3 1 24.44 0.68
-2 3 -1 23.43 1.08
2 -3 2 473.68 9.43
2 -3 2 504.56 9.65
-2 3 -2 486.56 10.1
2 3 2 504.24 9.95
-2 3 -3 1.69 0.44
2 -3 3 1.46 0.27
2 3 3 2.03 0.45
2 -3 3 1.24 0.3
2 -3 3 1.86 0.44
2 -3 4 111.02 2.97
2 3 4 116.91 3.06
2 -3 4 116.65 2.5
2 -3 4 117.05 2.76
2 3 4 112.86 2.68
2 -3 4 115.2 3.1
2 3 5 13.32 0.9
2 -3 5 15.03 0.92
2 -3 5 14.17 0.87
2 -3 5 15.14 0.81
2 -3 5 13.59 0.88
2 3 5 13.82 0.68
2 3 6 104.75 2.87
2 -3 6 110.44 3
2 -3 6 109.03 3.06
2 3 6 111.19 3.13
2 -3 6 108.58 2.9
2 3 6 111.46 2.69
2 -3 6 110.48 3.09
2 3 7 0.32 0.4
2 -3 7 -0.04 0.53
2 -3 7 0.07 0.47
2 3 7 0.58 0.4
2 -3 7 0.82 0.48
2 -3 8 49.56 1.93
2 3 8 51.18 1.73
2 -3 8 46.73 1.87
2 3 8 52.3 1.73
2 -3 9 10.37 1.01
2 3 9 10.5 0.88
2 -3 9 8.68 0.9
2 3 9 10 0.76
2 -3 10 2.59 0.79
2 -3 10 1.73 0.67
2 3 10 2.77 0.56
2 -3 11 -0.26 0.8
2 -3 11 0.9 0.67
2 -3 12 14.03 1.43
2 -3 13 1.37 1.13
-2 -4 13 -0.59 0.8
2 4 -13 0.74 0.89
2 -4 -13 0.4 0.89
-2 -4 12 1.25 0.74
2 4 -12 1.65 0.92
-2 -4 11 29.67 1.58
2 4 -11 30.54 1.92
2 4 -11 28.15 1.7
2 -4 -10 3.2 0.7
2 4 -10 4.73 0.95
-2 -4 10 3.89 0.78
2 -4 -10 3.05 0.91
-2 -4 9 12.39 0.93
2 -4 -9 11.7 1.17
2 4 -9 11.71 1.09
2 4 -8 11.49 1.1
2 -4 -8 11.65 1.13
2 4 -8 12.73 1.03
-2 -4 8 11.06 0.87
-2 4 7 132.71 3.51
2 4 -7 128.86 3.6
-2 -4 7 124.44 3.2
2 4 -7 127.35 3.75
2 -4 -7 116.09 3.72
2 4 -7 127.41 3.46
-2 4 6 1.25 0.6
2 4 -6 1.23 0.58
2 4 -6 1.28 0.55
2 -4 -6 1.73 0.6
-2 -4 6 0.98 0.44
2 4 -6 0.82 0.57
2 4 -5 131.64 2.79
-2 4 5 138.15 2.79
2 4 -5 127.49 2.72
-2 4 5 128.46 2.22
2 4 -5 128.66 2.87
-2 4 5 134.52 2.73
2 -4 -5 125.77 2.93
-2 4 4 49.85 1.69
2 4 -4 48.82 1.72
-2 4 4 48.32 1.44
2 -4 -4 43.36 1.7
-2 4 4 48.49 1.64
2 4 -4 45.41 1.68
-2 -4 4 43.61 1.27
2 4 -3 131.73 2.81
-2 4 3 131.56 3.07
2 -4 -3 131.73 3.33
-2 -4 3 125.68 2.73
2 4 -2 35.41 1.12
-2 4 2 39.77 1.3
-2 4 2 36.48 1.25
2 -4 -2 36.64 1.31
-2 -4 2 35.82 0.87
-2 4 1 716.55 2.97
-2 4 1 705.06 4.63
2 4 -1 721.36 4.1
-2 4 1 720.19 3.91
2 -4 -1 722.3 4.28
-2 4 0 48.19 1.59
-2 4 0 47.23 1.42
2 -4 0 45.42 1.28
2 -4 0 45.69 1.43
-2 4 0 46.53 1.14
2 -4 1 106.37 2.29
-2 4 -1 104.89 2.31
-2 4 -1 106.41 2.79
-2 4 -1 104.14 2.73
2 -4 2 44.39 1.2
2 -4 2 44.02 1.64
2 4 2 46.79 1.55
-2 4 -2 45.86 1.64
2 -4 3 828.84 15.67
2 -4 3 796.55 16.22
2 4 3 812.04 16.03
2 4 4 51.15 1.68
2 -4 4 46.72 1.65
2 -4 4 50.5 1.66
2 -4 4 47.58 1.69
2 4 4 49.04 1.72
2 -4 4 49.85 1.5
2 4 4 52.51 1.54
2 -4 4 49.86 1.78
2 -4 5 -0.4 0.46
2 -4 5 0.43 0.43
2 4 5 0.46 0.43
2 -4 5 0.54 0.39
2 -4 5 0.18 0.4
2 4 5 1.07 0.44
2 -4 5 0.18 0.32
2 4 5 0.2 0.31
2 -4 6 27.75 1.29
2 4 6 28.65 1.36
2 -4 6 29.54 1.39
2 4 6 28.56 1.4
2 -4 6 29.28 1.37
2 -4 6 31.05 1.28
2 4 6 30.62 1.15
2 -4 6 29.79 1.4
2 4 6 29.33 1.25
2 -4 7 133.85 3.49
2 -4 7 133.6 3.51
2 4 7 132.98 3.28
2 -4 7 135.67 3.66
2 4 7 130.85 3.3
2 4 8 17.37 1
2 4 8 18.67 0.97
2 -4 8 17.15 1.14
2 -4 8 18.72 1.17
2 4 9 27.53 1.31
2 -4 9 25.15 1.4
2 4 9 23.64 1.11
2 -4 9 25.67 1.45
2 -4 10 18.23 1.27
2 4 10 16.03 0.92
2 -4 10 19.93 1.36
2 -4 11 12.37 1.18
2 -4 11 19.09 1.45
2 -4 12 0.21 0.86
2 -4 13 1.02 1.01
2 -5 -13 1.44 0.95
2 5 -13 4.95 1.15
-2 -5 13 3.61 0.92
2 5 -12 3.99 1.03
-2 -5 12 3.73 0.9
2 5 -11 2.05 0.89
-2 -5 11 1.55 0.76
2 5 -11 2.38 0.85
-2 -5 10 30.38 1.55
2 -5 -10 28.67 1.29
2 5 -10 30.44 1.73
2 -5 -10 26.87 1.86
-2 -5 9 39.81 1.69
2 -5 -9 34.99 2.01
2 5 -9 41.61 1.92
2 5 -8 4.76 0.86
2 5 -8 5.64 0.84
2 -5 -8 4.37 0.6
-2 -5 8 5.05 0.68
2 -5 -8 4.57 0.86
-2 -5 7 52.28 1.8
2 5 -7 55.15 2.07
-2 5 7 57.7 2.06
2 5 -7 55.74 2.22
2 -5 -7 51.19 2.25
2 5 -7 55.38 2.02
-2 -5 6 111.48 2.84
2 5 -6 116.04 3.26
-2 5 6 119.31 3.22
2 5 -6 110.35 3.16
2 5 -6 115.58 3.39
-2 5 6 115.44 3.21
2 -5 -6 107.93 3.4
-2 5 5 128.1 2.42
2 5 -5 120.02 2.52
2 -5 -5 119.84 2.65
2 5 -5 121.19 2.41
-2 5 5 126.87 2.43
2 5 -5 120.4 2.42
-2 5 4 3.04 0.53
-2 5 4 3.09 0.53
-2 -5 4 2.36 0.37
-2 5 4 3.34 0.43
2 5 -4 3.06 0.57
2 -5 -4 2.35 0.52
-2 5 3 247.9 5.13
2 5 -3 236.85 4.78
2 -5 -3 237.21 5.38
-2 -5 3 229.27 4.73
-2 5 2 102.99 2.59
2 5 -2 101.26 2.38
-2 -5 2 102.16 2.13
-2 5 2 100.38 2.56
2 -5 -2 100.14 2.66
-2 5 1 207.16 4.27
2 -5 -1 212.28 4.59
-2 5 1 214.53 4.48
2 -5 0 117.2 2.81
-2 5 0 116.14 2.94
-2 -5 0 109.59 2.92
-2 5 0 122.32 2.82
-2 5 0 116.11 2.48
2 5 0 113.84 2.28
2 -5 0 116.9 2.64
-2 5 0 114.07 2.54
-2 5 -1 445.55 9.08
-2 -5 -1 420.41 9.04
-2 5 -1 443.74 8.74
-2 5 -1 440.4 8.55
2 -5 1 434.75 8.54
-2 5 -1 453.98 9.07
2 -5 2 294.63 5.9
2 -5 2 289.43 6.53
-2 5 -2 303.07 6.49
-2 -5 -2 279.51 6.44
2 5 2 302.98 6.32
-2 5 -2 294.91 6.39
2 -5 3 14.97 0.69
2 -5 3 14.72 0.94
2 -5 3 16.56 0.89
2 5 3 14.16 0.83
2 -5 4 216.67 4.97
2 5 4 212.63 4.96
2 5 4 209.13 4.87
2 -5 4 210.12 4.9
2 -5 4 226.15 4.9
2 -5 4 222.07 4.71
2 5 4 217.85 4.8
2 -5 4 213.02 5.12
2 -5 5 159.97 4.01
2 5 5 155.94 4.01
2 5 5 163.26 3.96
2 -5 5 160.86 3.97
2 -5 5 165.86 3.91
2 -5 5 159.6 3.76
2 5 5 159.33 3.74
2 -5 5 165.54 4.16
2 -5 6 67.64 2.13
2 5 6 70.69 2.24
2 -5 6 68.55 2.23
2 -5 6 69.32 2.28
2 5 6 65.29 2.27
2 -5 6 68.59 2.08
2 5 6 66.75 1.98
2 -5 6 67.93 2.32
2 -5 7 2.8 0.6
2 5 7 3.05 0.51
2 -5 7 3.16 0.61
2 -5 7 2.85 0.58
2 5 7 2.85 0.53
2 -5 8 57.13 2.09
2 -5 8 56.89 2.18
2 5 8 59.63 1.84
2 5 8 60.56 1.96
2 -5 9 30.84 1.59
2 5 9 35.84 1.51
2 -5 9 32.79 1.64
2 5 9 31.29 1.24
2 5 10 0.59 0.42
2 -5 10 0.6 0.64
2 -5 10 1.07 0.71
2 -5 11 2.8 0.82
2 -5 11 3.58 0.92
2 -5 12 8.81 1.22
2 -5 13 3.03 1.09
-2 -6 13 0.46 0.81
2 6 -13 0.09 0.91
2 -6 -13 -0.31 0.9
2 6 -12 18.03 1.61
-2 -6 12 15.39 1.29
2 6 -11 7.7 1.13
-2 -6 11 5.93 0.9
-2 -6 10 8.47 0.93
2 -6 -10 9.97 1.22
2 -6 -10 9.56 0.79
2 6 -10 9.82 1.13
2 6 -9 1.65 0.81
2 -6 -9 2.59 0.61
-2 -6 9 1.7 0.65
2 -6 -9 1.48 0.82
-2 -6 8 129.27 3.46
2 -6 -8 140.36 3.32
2 6 -8 132.93 3.78
2 -6 -8 122.57 4.1
2 6 -8 135.06 3.76
2 6 -7 8.02 0.93
-2 -6 7 7.42 0.72
-2 6 7 8.88 0.88
2 6 -7 8.51 0.86
2 -6 -7 8.48 0.98
2 6 -7 8.2 0.89
-2 -6 6 8.69 0.65
2 -6 -6 7.69 0.87
-2 6 6 10.74 0.88
2 6 -6 8.07 0.85
-2 6 6 9.46 0.85
2 6 -6 7.95 0.78
2 6 -6 9.05 0.87
2 -6 -5 1 0.48
2 6 -5 0.59 0.52
2 6 -5 0.51 0.41
2 6 -5 0.8 0.46
-2 6 5 1.3 0.5
-2 6 5 0.3 0.45
2 6 -4 463.95 9.09
-2 -6 4 469.34 9.33
-2 6 4 504 9.97
2 6 -4 496.7 10.04
2 -6 -4 474.73 10.12
-2 6 4 496.92 9.88
2 -6 -3 7.61 0.69
-2 6 3 9.21 0.63
2 6 -3 7.79 0.46
-2 -6 3 7.17 0.43
-2 6 2 8.07 0.58
-2 -6 2 7.58 0.37
-2 6 2 8.21 0.58
2 -6 -2 7.42 0.59
2 6 -1 38.14 0.92
-2 6 1 36.78 1.08
2 -6 -1 36.13 1.28
-2 6 1 36.88 1.2
-2 6 0 1044.37 19.92
2 6 0 1038.15 19.71
-2 6 0 1105.7 20.31
-2 -6 0 1088.73 20.43
-2 6 0 1078.69 20.42
-2 6 0 1040.37 19.97
2 -6 1 29.4 1.28
-2 6 -1 29.88 1.21
-2 6 -1 27.26 1.16
-2 -6 -1 30.3 1.22
-2 6 -1 29.39 1.04
-2 6 -1 28.23 0.92
2 -6 1 28.49 0.91
-2 6 -1 27.61 0.79
-2 6 -2 252.95 5.27
2 -6 2 246.86 5.22
2 6 2 258.68 5.58
-2 6 -2 263.56 5.75
-2 -6 -2 261.34 5.77
-2 6 -2 265.84 5.74
2 -6 2 256.66 5.83
2 -6 3 74.78 1.92
2 -6 3 75.84 2.17
2 6 3 73.74 2.15
2 -6 3 72.12 2.32
2 6 4 230.33 5.22
2 -6 4 233.48 5.21
2 -6 4 232.41 5.25
2 -6 4 234.5 5.3
2 6 4 233.72 5.29
2 -6 4 235.39 5.03
2 6 4 233.15 5.23
2 -6 4 233.21 5.51
2 -6 5 2.34 0.54
2 6 5 3.54 0.58
2 -6 5 2.99 0.57
2 -6 5 3.66 0.6
2 -6 5 2.93 0.55
2 6 5 3.49 0.6
2 -6 5 3.14 0.49
2 6 5 2.78 0.49
2 -6 6 78.61 2.3
2 6 6 76.23 2.36
2 -6 6 72.77 2.34
2 -6 6 74.37 2.41
2 6 6 79.82 2.48
2 -6 6 74.37 2.22
2 6 6 72.07 2.17
2 -6 6 74.67 2.5
2 -6 7 3.74 0.71
2 6 7 2.3 0.48
2 -6 7 1.75 0.56
2 -6 7 2.61 0.57
2 6 7 2.61 0.54
2 6 8 29.21 1.33
2 -6 8 28.76 1.39
-2 6 -8 27.17 1.08
2 -6 8 29.32 1.54
2 6 8 28.36 1.15
2 6 9 3.45 0.49
2 -6 9 4.16 0.78
2 -6 9 2.89 0.73
2 6 9 3.91 0.72
2 -6 10 24.11 1.46
2 -6 10 20.67 1.43
2 -6 11 0.77 0.8
2 -6 11 0.06 0.71
2 -6 12 -0.07 0.84
2 7 -13 10.5 1.42
2 -7 -13 9.68 1.53
-2 -7 13 11.39 1.22
-2 -7 12 1.13 0.82
2 7 -12 2.97 0.98
-2 -7 11 0.4 0.66
2 7 -11 0.16 0.76
2 7 -10 9.78 1.23
2 -7 -10 10.73 1.27
2 -7 -10 9.01 0.55
2 -7 -10 11.21 0.74
-2 -7 10 11.1 1.01
2 -7 -9 79.27 2.19
-2 -7 9 69.22 2.36
2 -7 -9 67.84 2.92
2 7 -9 75.71 2.71
2 7 -8 -0.05 0.52
2 -7 -8 0.39 0.5
2 7 -8 0.48 0.68
-2 -7 8 1.29 0.55
2 -7 -8 1.52 0.74
2 7 -7 48.48 2.09
2 7 -7 48.47 1.93
-2 -7 7 46.73 1.64
2 -7 -7 47.8 2.21
2 7 -7 47.79 1.95
2 -7 -6 0.11 0.46
-2 -7 6 -0.02 0.37
2 7 -6 0.52 0.51
2 7 -6 0.13 0.42
-2 7 6 0.51 0.51
2 7 -6 0.39 0.42
-2 7 6 0.65 0.5
2 -7 -5 146.97 4.1
-2 7 5 149.74 3.82
2 7 -5 148.74 3.9
2 7 -5 145.57 3.82
-2 7 5 144.54 3.81
2 7 -4 1.42 0.67
2 7 -4 -0.28 0.25
-2 7 4 1.22 0.5
-2 7 4 1.15 0.5
-2 -7 4 0.64 0.33
2 -7 -4 0.57 0.43
-2 -7 3 320.12 6.45
2 -7 -3 324.42 7.2
2 7 -3 329.08 6.49
-2 7 3 336 6.91
-2 7 2 27.36 1.13
-2 7 2 27.26 1.17
2 -7 -2 26.72 1.19
-2 -7 2 27.13 0.82
-2 7 2 28.29 1.1
2 -7 -1 229.96 5.11
-2 7 1 239.63 4.96
-2 7 1 230.77 4.78
2 7 -1 229.28 4.57
-2 7 0 0.02 0.21
-2 -7 0 0.5 0.35
-2 7 0 0.41 0.33
-2 7 0 0.73 0.31
2 7 0 0.39 0.22
-2 7 0 0.41 0.26
2 -7 1 348.29 7.72
-2 7 -1 369.83 7.63
-2 7 -1 364.45 7.55
-2 -7 -1 358.91 7.55
-2 7 -1 373.74 7.34
-2 7 -1 359.2 7.14
2 -7 1 365.32 7.16
-2 7 -1 342.31 6.98
-2 7 -2 54.81 1.78
2 7 2 53.92 1.62
-2 7 -2 52.44 1.73
-2 -7 -2 53.43 1.75
-2 7 -2 52.88 1.43
-2 7 -2 50.18 1.43
2 -7 2 51.55 1.4
2 -7 2 52.11 1.83
-2 7 -2 43.54 1.06
2 -7 3 5.46 0.47
2 -7 3 5.72 0.58
2 7 3 6.83 0.61
-2 7 -3 7.26 0.65
2 -7 3 6.51 0.67
2 -7 4 11.25 0.67
2 -7 4 11.48 0.79
2 7 4 11.35 0.78
2 -7 4 9.97 0.74
2 -7 4 9.86 0.74
2 7 4 10.77 0.75
2 -7 4 10.89 0.88
2 -7 5 299.65 6.33
2 7 5 286.42 6.37
2 -7 5 286.62 6.38
2 -7 5 287.76 6.46
2 7 5 298.02 6.48
2 -7 5 283.32 6.19
2 7 5 280.58 6.33
2 -7 5 293.58 6.71
2 -7 6 2.89 0.58
2 7 6 3.78 0.64
2 -7 6 4.18 0.7
2 -7 6 4.58 0.69
2 7 6 4.21 0.68
2 7 6 3.41 0.56
-2 7 -6 2.5 0.3
2 -7 6 3.27 0.56
2 -7 6 3.29 0.66
2 -7 7 61.51 2.3
2 7 7 57.3 1.86
2 -7 7 63.96 2.07
2 -7 7 61.42 2.04
-2 7 -7 65.33 1.63
2 7 7 62.74 2.04
2 7 8 6.22 0.72
2 -7 8 5.9 0.85
-2 7 -8 6.09 0.53
2 -7 8 4.32 0.68
2 7 8 5.15 0.54
2 7 9 62.83 2.16
2 -7 9 63.48 2.25
-2 7 -9 59.44 1.81
2 7 9 56.89 1.7
2 -7 9 52.16 2.27
2 -7 10 0.85 0.75
-2 7 -10 -0.26 0.48
2 -7 10 -0.1 0.69
2 -7 11 7.68 1.09
2 -7 11 9.74 1.13
2 -7 12 -0.33 0.82
2 -8 -13 1.77 1.1
2 8 -13 0.28 0.87
-2 -8 13 0.23 0.84
2 8 -12 11.39 1.42
-2 -8 12 8.19 1.07
-2 -8 11 10.43 1.04
2 8 -11 10.04 1.26
2 8 -10 1.66 0.84
-2 -8 10 2.52 0.71
2 -8 -10 1.04 0.83
2 -8 -10 1.83 0.43
2 -8 -10 1.6 0.31
2 8 -9 4.88 0.8
2 -8 -9 4.67 0.67
2 -8 -9 3.98 0.47
-2 -8 9 5.05 0.75
2 -8 -9 5.28 1
2 -8 -8 35.29 1.3
2 8 -8 34.56 1.65
2 -8 -8 32.04 1.19
-2 -8 8 34.85 1.46
2 -8 -8 33.34 1.93
2 8 -8 37.04 1.75
2 8 -7 23.61 1.44
2 8 -7 22.26 1.28
-2 -8 7 21.48 1.08
2 -8 -7 22.06 1.53
2 8 -7 21.93 1.34
-2 8 6 4.22 0.73
2 8 -6 2.59 0.6
2 8 -6 3.72 0.71
-2 8 6 3.85 0.71
-2 -8 6 2.93 0.48
2 8 -6 3.64 0.77
2 -8 -6 2.41 0.7
-2 8 5 100 2.88
2 -8 -5 90.97 3.08
2 8 -5 94.51 2.91
2 8 -5 97.67 2.84
-2 8 5 98.52 2.88
2 8 -4 274.67 6.15
-2 8 4 277.93 6.07
2 8 -4 255.08 5.16
-2 -8 4 261.1 5.42
-2 8 4 274.62 5.98
2 -8 -4 261.47 6.27
-2 -8 3 124.56 2.79
2 -8 -3 124.31 3.47
-2 8 3 134.23 3.29
2 -8 -2 37.99 1.32
-2 8 2 36.63 1.26
2 8 -2 38.12 1.4
-2 8 2 38 1.22
2 8 -2 35.83 0.8
2 -8 -2 34.47 1.28
-2 -8 2 35.32 0.81
2 8 -1 70.7 2.2
2 8 -1 70.37 1.65
-2 8 1 71.58 1.83
-2 8 1 72.24 1.95
2 -8 -1 73.09 2.24
2 8 0 214.64 1.66
-2 8 0 231.23 2.19
-2 8 0 232.73 2.81
-2 -8 0 230.47 2.82
-2 8 0 216.29 2.2
2 -8 1 92.87 2.73
-2 8 -1 95.5 2.61
-2 8 -1 93.44 2.54
-2 -8 -1 92.97 2.55
-2 8 -1 97.07 2.41
-2 8 -1 94.22 2.25
2 -8 1 93.33 2.27
-2 8 -1 90.59 2.13
-2 8 -2 158.46 3.78
-2 8 -2 150.85 3.67
-2 -8 -2 156.02 3.72
2 8 2 147.66 3.5
-2 8 -2 154.25 3.35
-2 8 -2 148.69 3.34
2 -8 2 154.76 3.34
2 -8 2 145.56 3.83
-2 8 -2 137.03 2.99
-2 8 -3 238.85 5.07
2 -8 3 235.86 5.02
-2 8 -3 246.81 5.48
2 -8 3 221.29 5.15
2 -8 3 240.48 5.27
2 8 3 236.94 5.24
2 -8 3 230.34 5.59
2 -8 4 184.94 4.14
2 -8 4 186.89 4.27
2 8 4 176.02 4.25
2 -8 4 185.48 4.29
2 -8 4 183.23 4.65
2 -8 4 183.9 4.35
2 8 4 178.93 4.31
2 -8 5 47.82 1.73
2 8 5 45.65 1.71
2 -8 5 46.61 1.69
2 -8 5 45.71 1.62
2 8 5 45.59 1.66
2 -8 5 46.56 1.58
2 8 5 46.15 1.72
2 -8 5 43.43 1.87
2 8 6 264.59 6.09
2 -8 6 268.36 6.12
2 -8 6 270.53 6.22
2 8 6 267.4 6.22
2 -8 6 271.54 6
2 -8 6 277.77 6.03
-2 8 -6 271.29 5.32
2 8 6 272.66 6.11
2 -8 6 263.19 6.43
2 -8 7 47.29 2.05
2 -8 7 50.98 1.84
2 -8 7 55.4 1.86
-2 8 -7 50.95 1.38
2 8 7 51.77 1.85
2 8 8 8.18 0.82
2 -8 8 8.26 0.82
-2 8 -8 9.88 0.6
2 -8 8 9.42 1.01
2 8 8 8.43 0.63
2 8 9 0.18 0.37
2 -8 9 0.24 0.66
2 -8 9 -0.27 0.58
2 8 9 -0.04 0.61
-2 8 -9 -0.03 0.41
-2 8 -10 15.06 0.92
2 -8 10 15.31 1.34
2 -8 10 16.48 1.24
-2 8 -11 7.83 0.83
2 -8 11 9.21 1.25
2 -8 11 10.32 1.16
2 -8 12 0.58 0.82
2 9 -13 0.93 0.93
-2 -9 13 0.97 0.81
2 9 -12 0.7 0.85
-2 -9 12 0.11 0.79
2 9 -11 0.49 0.81
2 -9 -11 0.68 0.93
-2 -9 11 1.24 0.7
-2 -9 10 37.9 1.73
2 -9 -10 39.06 2.33
2 9 -10 41.86 2.21
2 -9 -9 17.85 0.91
2 9 -9 15.79 1.17
2 -9 -9 15.34 1.45
2 -9 -9 14.87 0.7
-2 -9 9 16.23 1.08
2 9 -8 18.55 1.2
-2 -9 8 18.12 1.05
2 -9 -8 17.75 1.49
2 -9 -8 16.37 0.81
2 9 -7 4.39 0.71
2 9 -7 3.59 0.76
2 9 -7 3.4 0.77
2 -9 -7 3.3 0.5
-2 -9 7 3.82 0.59
2 -9 -7 4.58 0.88
-2 9 6 298.81 6.68
2 9 -6 286.83 6.65
-2 9 6 293.21 6.68
2 -9 -6 288.26 6.17
-2 -9 6 277.82 6.09
2 -9 -6 278.4 7.1
2 9 -6 285.55 6.71
-2 9 5 55.29 2.03
-2 9 5 57.27 2.02
2 -9 -5 53.65 1.77
2 -9 -5 51.61 2.2
2 9 -5 56.06 2.11
2 -9 -4 0.51 0.39
2 9 -4 1.48 0.61
-2 9 4 1.29 0.53
2 9 -4 0.09 0.21
-2 -9 4 0.02 0.1
-2 9 4 1.08 0.45
2 -9 -4 0.49 0.44
-2 9 3 100.98 2.74
-2 -9 3 100.63 2.35
2 -9 -3 96.56 2.97
2 -9 -3 101.4 2.78
-2 9 2 750.87 15.27
2 9 -2 763.41 15.54
-2 9 2 805.03 15.45
2 9 -2 763.59 14.76
-2 -9 2 785 14.81
2 -9 -2 734.76 15.49
-2 9 2 800.65 14.97
2 -9 -2 762.79 15.41
-2 -9 1 72.63 2.03
-2 9 1 67.26 1.98
-2 9 1 71.91 2.11
2 9 -1 66.48 2.16
-2 9 1 68.69 1.82
2 9 -1 66.01 1.62
2 -9 -1 68.25 2.17
-2 9 1 66.1 1.91
-2 9 0 143.55 3.46
-2 -9 0 149.88 3.5
2 9 0 144.51 3.64
2 9 0 142.31 3.05
-2 9 0 147.53 3.26
-2 9 0 146.37 3.62
-2 9 0 143.52 3.29
2 -9 1 66.07 2.3
-2 9 -1 79.22 2.31
-2 9 -1 76.09 2.19
-2 -9 -1 76.72 2.2
-2 9 -1 77.49 2.07
-2 9 -1 77.81 1.97
2 -9 1 77.32 2
2 9 1 75.33 1.81
-2 9 -1 74.77 1.86
-2 9 -2 440.1 8.95
-2 9 -2 426.58 8.83
-2 -9 -2 425.92 8.85
-2 9 -2 436.5 8.51
2 -9 2 418.52 8.48
-2 9 -2 424.81 8.5
-2 9 -2 409.17 8.2
2 -9 2 423.06 9.11
-2 9 -3 6.95 0.68
2 9 3 6.97 0.61
2 -9 3 7.09 0.63
-2 9 -3 5.95 0.43
-2 9 -3 5.78 0.57
2 -9 3 6 0.51
-2 9 -3 5.57 0.3
2 -9 3 6.02 0.68
2 -9 4 36 1.37
2 9 4 34.91 1.35
2 -9 4 35.96 1.33
-2 9 -4 34.1 1.44
2 9 4 31.56 1.27
2 -9 4 33.55 1.29
2 -9 4 35.78 1.25
2 -9 4 35.48 1.57
2 9 5 5.65 0.68
2 -9 5 5.13 0.65
2 -9 5 6 0.7
2 -9 5 5.72 0.65
2 9 5 6.07 0.7
2 -9 5 5.1 0.59
-2 9 -5 4.83 0.28
2 9 5 6.09 0.73
2 -9 5 5.89 0.75
2 -9 6 166.56 3.9
2 9 6 157.05 3.93
2 -9 6 159.66 3.95
2 -9 6 153.75 4.01
2 9 6 158.58 4.04
2 -9 6 155.56 3.84
2 9 6 152.44 3.95
-2 9 -6 150.62 3.21
2 -9 6 154.64 4.27
2 -9 7 1.05 0.6
2 -9 7 1.09 0.56
2 -9 7 0.95 0.5
-2 9 -7 0.42 0.28
2 9 7 0.67 0.52
2 -9 8 45.73 1.81
-2 9 -8 45.77 1.38
2 9 8 43.81 1.43
2 -9 8 44.27 2.05
2 9 8 48.1 1.85
2 9 9 4.89 0.78
-2 9 -9 3.62 0.53
2 9 9 4.14 0.45
2 -9 9 4.33 0.9
2 -9 9 3.98 0.76
-2 9 -10 -0.21 0.46
2 -9 10 -0.07 0.72
2 -9 10 0.36 0.72
-2 9 -11 3.68 0.71
2 -9 11 5.17 1.07
2 -9 11 3.6 0.93
2 -9 12 4.63 1.01
2 10 -13 0.37 0.89
-2 -10 13 0.06 0.79
2 10 -12 12.38 1.47
-2 -10 12 9.14 1.12
-2 -10 11 29.78 1.57
2 10 -11 27.35 1.91
2 -10 -11 25.22 2.04
2 -10 -10 5.43 1.11
-2 -10 10 5.34 0.83
2 10 -10 6.29 1.04
-2 -10 9 7.97 0.82
2 -10 -9 8.5 1.17
2 -10 -9 8.29 0.52
2 -10 -9 9.37 0.7
2 10 -9 7.9 0.91
2 10 -8 3.7 0.7
2 -10 -8 1.75 0.79
-2 -10 8 1.9 0.54
2 -10 -8 2.52 0.43
2 10 -7 99.28 3
2 10 -7 84.12 3.09
-2 -10 7 91.82 2.58
2 -10 -7 97.88 3.53
2 10 -7 98.01 3.08
2 -10 -7 92.32 2.42
-2 -10 6 8.24 0.67
2 -10 -6 6.79 0.97
-2 10 6 8.49 0.92
2 10 -6 8.07 0.96
2 -10 -6 7.57 0.69
2 10 -6 8.49 0.85
-2 10 5 117.72 3.33
-2 -10 5 110.06 2.76
2 -10 -5 110.51 3.59
2 10 -5 113.05 3.36
2 -10 -5 113.37 2.96
-2 10 5 117.56 3.25
-2 10 4 0.33 0.38
2 -10 -4 0.57 0.48
2 -10 -4 0.35 0.35
2 10 -4 0.37 0.51
-2 10 3 156.8 3.82
2 -10 -3 147.16 4.1
2 -10 -3 162.41 3.89
-2 -10 3 150.94 3.37
2 10 -3 151.94 3.4
2 10 -2 7.89 0.8
2 10 -2 7.73 0.51
-2 10 2 7.37 0.61
-2 -10 2 6.88 0.51
2 -10 -2 8.14 0.72
-2 10 1 357.09 7.5
-2 -10 1 365.16 7.54
2 10 -1 364.51 7.87
-2 10 1 369.19 7.35
2 10 -1 356.45 7.11
2 -10 -1 358.9 7.82
-2 10 1 354.78 7.49
-2 10 0 30.01 1.15
-2 -10 0 28.68 1.15
2 10 0 28.85 1.31
2 10 0 27.86 0.89
-2 10 0 26.69 1.03
-2 10 0 31.77 1.31
-2 10 0 28.45 1.06
-2 10 -1 54.18 1.42
-2 -10 -1 55.83 1.47
2 10 1 50.45 1.52
-2 10 -1 54.92 1.26
-2 10 -1 54.06 1.16
2 10 1 55.55 1.07
2 -10 1 55 1.29
-2 10 -1 56.87 1.62
-2 10 -2 3.24 0.51
-2 10 -2 3.89 0.48
-2 -10 -2 4.07 0.5
-2 10 -2 3.44 0.41
-2 10 -2 3.12 0.32
2 -10 2 3.31 0.43
-2 10 -2 2.74 0.46
2 10 2 3.78 0.53
2 -10 2 3.79 0.58
-2 10 -3 557.71 10.83
2 -10 3 528.78 10.46
2 10 3 519.71 10.42
-2 10 -3 497.62 10.07
-2 10 -3 539.2 10.37
2 -10 3 522.23 10.29
-2 10 -3 486.91 9.91
2 -10 3 526.7 11.02
2 -10 4 100.82 2.63
2 -10 4 98.03 2.7
2 10 4 98.67 2.69
-2 10 -4 101.2 2.93
2 -10 4 101.36 3.13
2 -10 4 105.49 2.8
2 10 4 100.77 2.74
2 -10 5 17.4 1.19
2 -10 5 15.37 0.98
2 10 5 16.5 1
2 -10 5 15.7 0.96
2 -10 5 15.55 0.93
2 10 5 15.54 0.95
2 -10 5 16.52 0.93
2 10 5 16.77 1.09
-2 10 -5 14.64 0.55
2 -10 6 1.08 0.59
2 -10 6 0.23 0.49
2 10 6 1.19 0.51
2 -10 6 0.84 0.52
2 -10 6 0.91 0.53
2 10 6 1.5 0.58
2 -10 6 0.76 0.45
2 10 6 0.89 0.54
-2 10 -6 0.58 0.23
2 -10 7 126.43 3.82
2 -10 7 130.46 3.31
2 -10 7 127.04 3.36
2 10 7 128.25 3.48
2 10 7 124.19 3.07
-2 10 -7 116.79 2.76
2 10 8 3.45 0.73
-2 10 -8 1.92 0.41
2 -10 8 2.39 0.65
2 10 8 1.42 0.46
2 -10 8 3.69 0.84
2 10 8 1.45 0.42
2 -10 9 8.77 0.92
-2 10 -9 10.17 0.68
2 -10 9 6.67 1.03
2 10 9 7.68 0.54
-2 10 -10 1.23 0.48
2 -10 10 1.96 0.72
2 -10 10 1.69 0.88
2 -10 11 13.52 1.45
2 -10 11 17.68 1.33
2 -10 12 1.2 0.89
-2 -11 13 0.46 0.77
2 -11 -13 0.53 0.91
-2 -11 12 11.48 1.2
2 11 -12 10.7 1.41
2 -11 -11 1.77 0.98
-2 -11 11 1.04 0.75
2 11 -11 0.93 0.89
-2 -11 10 15.48 1.14
2 11 -10 15.17 1.43
2 -11 -10 13.56 1.56
2 11 -10 15.35 1.2
-2 -11 9 15.81 1.07
2 -11 -9 15.61 0.67
2 -11 -9 15.4 1.55
2 -11 -9 17.35 0.83
2 11 -9 15.82 1.17
-2 -11 8 9.42 0.83
2 -11 -8 6.97 1.12
2 -11 -8 7.9 0.59
2 11 -8 9.26 0.94
-2 -11 7 25.84 1.19
2 -11 -7 25.21 1.07
2 -11 -7 24.27 1.73
2 11 -7 24.68 1.4
2 -11 -6 88.67 3.27
-2 -11 6 84.14 2.37
2 -11 -6 86.49 2.38
2 11 -6 92.52 2.97
2 11 -5 33 1.55
2 -11 -5 30.57 1.18
2 -11 -5 31.36 1.69
-2 -11 5 31.36 1.08
-2 11 5 34.06 1.45
-2 11 4 0.27 0.44
2 -11 -4 0.28 0.5
2 -11 -4 0.13 0.38
-2 11 3 60.28 1.66
2 -11 -3 60.04 1.63
2 11 -3 60.11 1.25
2 11 -2 233.26 5.56
2 11 -2 225.88 4.81
-2 11 2 241.14 5.03
2 -11 -2 227.06 5.36
-2 -11 1 20.31 0.88
-2 11 1 19.57 0.86
2 11 -1 21.53 1.12
2 11 -1 19.7 0.68
-2 11 1 19.17 0.83
2 -11 -1 20.4 1.05
-2 11 0 58.68 1.78
-2 -11 0 59.9 1.81
2 11 0 58.16 2.02
2 11 0 57.91 1.53
-2 11 0 58.84 1.72
-2 11 0 58.81 1.76
-2 11 0 61.38 2.02
-2 11 -1 126.64 3.15
-2 -11 -1 122.67 3.14
2 11 1 123.27 3.3
-2 11 -1 126.03 3.01
-2 11 -1 127.97 2.96
2 11 1 121.75 2.81
-2 11 -1 127.88 3.37
-2 11 -2 166.89 4.05
-2 11 -2 159.04 3.82
-2 -11 -2 160.49 3.85
2 11 2 150.5 3.87
-2 11 -2 153.09 3.6
-2 11 -2 163.02 3.68
-2 11 -2 155.85 3.49
2 -11 2 158.86 3.66
2 -11 2 157.27 4.21
2 -11 3 3.67 0.66
2 11 3 2.81 0.53
-2 11 -3 3.32 0.55
2 -11 3 2.63 0.48
-2 11 -3 2.65 0.38
2 -11 3 2.99 0.49
2 11 3 2.38 0.47
2 -11 3 2.2 0.45
-2 11 -3 2.86 0.52
-2 11 -3 2.79 0.36
2 -11 4 186.97 4.27
2 11 4 184.38 4.23
2 11 4 179 4.23
2 -11 4 189.58 4.17
-2 11 -4 188.38 4.21
2 11 4 186.29 4.2
2 -11 4 182.4 4.19
-2 11 -4 185.65 4.52
2 -11 4 184.19 4.74
-2 11 -5 88.01 2.18
2 -11 5 103.2 2.83
2 11 5 100.89 2.81
2 11 5 103.97 2.77
2 -11 5 101.6 2.77
2 11 5 103.35 2.71
2 -11 5 100.59 2.71
2 11 5 104.91 3.08
2 -11 5 104.25 3.22
-2 11 -6 16.52 0.68
2 11 6 17.19 1.02
2 -11 6 17.05 1.05
2 -11 6 18.78 1.11
2 11 6 18.25 1.12
2 11 6 19.08 0.95
2 -11 6 18.42 1.04
2 11 6 17.01 1.14
2 -11 6 17.9 1.28
2 11 7 -0.16 0.45
2 -11 7 0.61 0.63
2 -11 7 0.56 0.51
-2 11 -7 -0.19 0.3
2 11 7 -0.05 0.55
2 11 8 77.13 2.6
-2 11 -8 79.71 2.03
2 -11 8 78.21 2.97
2 11 8 76.52 2.06
2 -11 8 80.79 2.56
2 -11 9 15.44 1.14
-2 11 -9 15.25 0.82
2 -11 9 14.61 1.34
2 -11 10 0.44 0.76
-2 11 -10 0.19 0.43
2 -11 10 0.46 0.67
2 -11 11 -0.08 0.86
2 -11 11 0.91 0.76
2 -11 12 11.15 1.43
2 -11 12 13.14 1.32
-2 -12 13 -0.62 0.79
2 12 -12 7.09 1.27
-2 -12 12 7.17 1.01
2 12 -11 2.45 0.92
2 -12 -11 3.24 1.12
-2 -12 11 3.47 0.83
2 12 -10 7.79 1.14
2 12 -10 6.66 0.89
-2 -12 10 5.83 0.83
2 -12 -10 6.74 1.26
2 12 -9 1.09 0.61
2 12 -9 1.23 0.76
2 -12 -9 0.57 0.44
2 -12 -9 0.64 0.33
-2 -12 9 1.72 0.63
2 -12 -9 1.68 0.93
-2 -12 8 70.98 2.28
2 -12 -8 75.13 1.97
2 -12 -8 74.89 3.24
2 12 -8 72.29 2.58
-2 -12 7 66.53 2.09
2 -12 -7 68.97 1.96
2 -12 -7 66.51 2.96
2 12 -7 65.51 2.4
2 -12 -6 12.19 1.25
2 -12 -6 12.56 0.79
-2 -12 6 11.7 0.8
-2 -12 5 26.64 1.06
2 12 -5 26.44 1.47
2 -12 -5 25.08 1.13
-2 12 5 30.99 1.42
-2 -12 4 259.17 5.55
2 -12 -4 259.43 5.87
-2 12 4 269.22 6.08
2 12 -3 45.54 1.41
-2 12 3 46.18 1.74
2 -12 -3 44.43 1.68
2 12 -3 42.18 1.84
-2 12 2 7.01 0.65
2 12 -2 7.75 0.82
2 12 -2 5.95 0.51
-2 12 2 6.7 0.61
2 -12 -2 6.41 0.69
2 12 -1 222.29 4.71
-2 12 1 236.05 4.95
2 12 -1 226.98 5.42
-2 12 1 213.61 4.93
-2 -12 1 228.89 5.02
2 -12 -1 225.66 5.37
-2 12 0 513.95 10.34
-2 12 0 502.19 9.97
-2 -12 0 506.23 10
2 12 0 489.29 10.38
2 12 0 496.47 9.66
-2 12 0 470.47 9.87
-2 12 0 497.08 10.01
2 -12 0 464.21 10.4
2 12 1 0.41 0.47
-2 12 -1 0.12 0.39
-2 -12 -1 0.17 0.33
-2 12 -1 0.45 0.36
-2 12 -1 0.25 0.42
2 12 1 0.43 0.35
-2 12 -1 0.22 0.29
-2 12 -2 64.89 2.18
-2 -12 -2 63.38 1.99
2 12 2 61.11 2.07
-2 12 -2 65.49 1.93
2 -12 2 65.3 1.92
-2 12 -2 64.8 1.8
2 -12 2 65.93 2.36
2 -12 3 64.37 1.95
2 12 3 64.23 1.94
2 12 3 59.02 2.01
-2 12 -3 63.05 1.75
2 -12 3 63.46 1.91
-2 12 -3 65.07 1.97
2 12 3 62.92 1.89
2 -12 3 64.96 1.92
-2 12 -3 65.51 2.2
2 -12 3 64.39 2.37
2 -12 4 89.08 2.48
2 12 4 86.82 2.44
2 12 4 86.8 2.49
-2 12 -4 77.69 2.02
-2 12 -4 90.03 2.47
2 -12 4 86 2.4
2 12 4 88.17 2.42
-2 12 -4 92.12 2.76
2 -12 4 89.47 2.43
2 -12 4 88.12 2.93
-2 12 -5 22.15 1.28
2 -12 5 25.51 1.22
2 12 5 26.23 1.22
2 12 5 26.2 1.2
2 -12 5 25.63 1.18
2 12 5 23.81 1.14
2 -12 5 23.47 1.15
2 12 5 24.87 1.4
2 -12 5 22 1.4
2 12 6 5 0.8
-2 12 -6 4.51 0.41
2 12 6 4.91 0.7
2 -12 6 4.8 0.71
2 -12 6 4.82 0.71
2 12 6 3.97 0.67
2 -12 6 5.15 0.65
2 12 6 5 0.6
2 -12 6 6.02 0.88
2 12 7 29.34 1.18
2 -12 7 28.69 1.37
-2 12 -7 27.17 0.98
2 12 7 27.52 1.49
2 -12 7 28.52 1.7
2 -12 8 10.7 0.95
-2 12 -8 10.14 0.65
2 -12 8 10.65 1.2
2 12 8 10.28 0.65
-2 12 -9 8.06 0.64
2 -12 9 9.09 1.18
2 -12 9 8.92 0.95
-2 12 -10 26.98 1.15
2 -12 10 27.4 1.91
2 -12 10 28.02 1.54
2 -12 11 0.4 0.91
2 -12 11 -0.06 0.7
2 -12 12 0.56 0.93
2 -12 12 -0.06 0.8
-2 -13 13 4.32 0.97
-2 -13 12 0.11 0.74
2 13 -12 0.09 0.89
-2 -13 11 2.26 0.77
2 13 -11 1.44 0.89
-2 -13 10 0.8 0.64
2 13 -10 1.45 0.68
2 13 -10 0.63 0.79
2 13 -9 46.37 2
2 -13 -9 51.67 1.34
2 13 -9 43.83 2.27
-2 -13 9 46.33 1.81
2 -13 -9 47.12 2.65
2 -13 -9 42.43 1.19
2 13 -8 1.28 0.62
2 -13 -8 2.7 0.98
-2 -13 8 1.15 0.57
2 -13 -8 0.93 0.43
-2 -13 7 33.46 1.39
2 13 -7 30.13 1.56
2 -13 -7 35.29 1.29
-2 -13 6 0.91 0.41
2 -13 -6 0.66 0.4
-2 -13 5 135.02 3.35
2 -13 -5 139.92 3.53
-2 13 5 145.68 3.89
-2 13 4 0.8 0.6
-2 -13 4 1.04 0.42
2 -13 -4 0.78 0.48
2 13 -3 197.61 4.42
2 13 -3 205.81 5.18
2 -13 -3 202.5 4.84
-2 13 3 202.4 4.88
-2 13 2 0.32 0.39
2 13 -2 -0.22 0.36
-2 13 2 0.05 0.42
2 -13 -2 0.36 0.41
2 13 -2 0.43 0.55
2 13 -1 38.96 1.24
-2 13 1 42.21 1.43
2 13 -1 41.89 1.75
2 -13 -1 42.39 1.72
-2 13 1 35.74 1.31
-2 -13 1 39.35 1.39
-2 13 0 3.22 0.53
-2 13 0 2.45 0.43
-2 -13 0 2.34 0.43
-2 13 0 1.82 0.49
2 13 0 1.94 0.41
2 -13 0 4.05 0.65
2 13 0 3.07 0.65
-2 13 -1 520.15 10.53
-2 -13 -1 520.26 10.55
-2 13 -1 529.12 10.51
-2 13 -1 511 10.51
2 13 1 517.82 10.24
2 13 1 509.97 10.86
-2 13 -1 538.39 10.95
2 -13 2 0.7 0.48
2 13 2 0.68 0.54
-2 13 -2 0.54 0.41
2 -13 2 0.74 0.41
-2 13 -2 -0.03 0.5
-2 13 -2 0.63 0.34
-2 13 -3 2.05 0.48
2 13 3 2.61 0.46
2 -13 3 2.05 0.44
-2 13 -3 1.88 0.37
2 -13 3 2.39 0.46
2 13 3 2.41 0.45
2 -13 3 1.72 0.44
-2 13 -3 1.18 0.46
2 -13 3 2.22 0.58
2 13 3 1.61 0.52
2 -13 4 17.2 0.95
2 13 4 14.42 0.87
2 13 4 14.47 0.96
-2 13 -4 13.5 0.65
-2 13 -4 14.39 0.91
2 -13 4 15.28 0.91
2 -13 4 16.46 0.91
-2 13 -4 16.06 1.08
2 13 4 15.51 0.88
2 -13 4 14.59 1.17
-2 13 -5 292.06 6.9
2 -13 5 307.9 6.68
2 13 5 305.86 6.63
2 13 5 299.12 6.55
2 -13 5 302.44 6.55
2 13 5 303.17 6.59
2 -13 5 301.49 6.6
2 13 5 292.47 7.04
2 -13 5 294.28 7.25
2 13 6 6.58 0.76
2 -13 6 6.61 0.73
2 -13 6 6.58 0.78
2 -13 6 6.98 0.78
2 13 6 6.84 0.76
2 13 6 5.7 0.67
2 -13 6 6.43 0.94
-2 13 -6 5.5 0.46
2 13 6 5.88 0.86
-2 13 -7 1.05 0.35
2 -13 7 1.6 0.76
2 13 7 1.25 0.48
2 -13 7 0.24 0.51
-2 13 -8 0.49 0.36
2 -13 8 1.38 0.59
2 -13 8 0.63 0.69
2 13 8 0.29 0.37
2 -13 9 48.04 1.94
2 -13 9 41.32 2.25
-2 13 -9 45.46 1.48
2 -13 10 0.62 0.73
2 -13 10 -0.4 0.91
-2 13 -10 0.08 0.47
2 -13 11 5.45 1.17
2 -13 11 6.81 1
2 -13 12 1.25 0.99
-2 -14 12 3.7 0.85
2 14 -12 3.1 1.04
-2 -14 11 -0.29 0.68
2 14 -11 -0.17 0.83
-2 -14 10 12.74 1.06
2 14 -10 10.28 1.06
2 14 -10 10.52 1.29
2 -14 -9 1.95 0.41
2 -14 -9 1.87 0.35
-2 -14 9 1.45 0.64
2 14 -9 1.99 0.82
2 14 -9 1.95 0.69
-2 -14 8 47.92 1.76
2 -14 -8 45.12 1.44
2 14 -8 43.77 1.93
-2 -14 7 16.27 0.99
2 14 -7 16.01 1.14
2 -14 -7 17.01 0.9
-2 -14 6 1.08 0.51
2 -14 -6 2.93 0.54
2 -14 -5 49.39 1.76
-2 -14 5 51.1 1.67
-2 14 4 212.74 5.06
2 -14 -4 197.25 4.8
-2 -14 4 196.16 4.5
2 14 -4 201.28 4.53
-2 14 3 47.88 1.82
-2 14 3 47.1 1.59
-2 -14 3 45.43 1.54
2 -14 -3 50.87 1.85
2 14 -3 50.55 2.1
2 14 -3 46.09 1.53
-2 14 2 25.36 1.26
2 14 -2 26.38 1.05
-2 14 2 25.32 1.12
2 -14 -2 25.34 1.31
2 14 -2 24.39 1.45
-2 14 1 62.13 2.16
-2 14 1 62.93 1.86
-2 -14 1 62.65 1.89
2 14 -1 62.41 1.76
-2 14 1 66.9 1.97
-2 14 1 67.17 2.1
2 -14 -1 65.97 2.29
2 14 -1 66.74 2.35
-2 14 0 225.85 4.94
-2 -14 0 227.03 4.96
2 14 0 222.42 5.43
-2 14 0 215.63 4.96
2 14 0 222.83 4.75
-2 14 0 225.21 5.4
2 -14 0 221.37 5.49
-2 14 -1 18.27 1.09
-2 14 -1 15.66 0.83
-2 -14 -1 15.79 0.84
-2 14 -1 16.67 0.92
2 14 1 18.77 1.1
2 14 1 16.42 0.76
2 14 2 64.2 2.2
-2 14 -2 65.5 2
-2 14 -2 61.18 1.9
2 -14 2 62.85 1.98
2 14 2 63.27 1.81
-2 14 -2 65.02 2.26
-2 14 -3 35.26 1.59
2 14 3 34.88 1.28
2 -14 3 33.54 1.27
2 14 3 36.15 1.3
2 -14 3 35.2 1.3
2 14 3 34.43 1.49
-2 14 -3 36.35 1.42
2 -14 3 31.17 1.33
2 -14 3 35.97 1.76
2 -14 4 82.6 2.34
2 14 4 82.08 2.33
2 14 4 82.84 2.47
-2 14 -4 70.5 1.99
-2 14 -4 84.73 2.45
2 -14 4 82.9 2.41
2 -14 4 84 2.32
-2 14 -4 86.47 2.71
2 14 4 80.08 2.29
2 -14 4 80.88 2.89
2 14 5 4.16 0.66
2 -14 5 3.87 0.83
-2 14 -5 3.48 0.66
2 -14 5 4.78 0.64
2 14 5 4.49 0.63
-2 14 -5 2.93 0.33
2 -14 5 5.37 0.68
2 14 5 4.96 0.64
2 -14 5 4.61 0.65
2 14 5 4.18 0.8
2 -14 6 103.22 2.95
2 14 6 106.95 2.94
2 14 6 101.99 2.85
2 -14 6 99.93 2.89
-2 14 -6 91.85 2.41
2 14 6 101.26 3.22
2 -14 6 104.96 3.51
2 14 6 108.48 2.82
2 -14 7 27.17 1.37
2 -14 7 24.21 1.7
2 14 7 29.71 1.21
-2 14 -7 25.81 1.02
-2 14 -8 2.78 0.46
2 -14 8 2.73 0.92
2 -14 8 3.78 0.68
-2 14 -9 1.52 0.45
2 -14 9 2.01 0.68
2 -14 9 1.58 0.91
2 -14 10 46.08 2.5
2 -14 10 44.8 2.01
2 -14 11 1.35 0.74
2 -14 11 1.99 1.04
2 -14 12 0.61 1.06
2 15 -12 2.12 0.98
2 -15 -12 2.47 0.9
-2 -15 12 2.12 0.81
2 15 -11 0.34 0.65
2 15 -11 0.17 0.87
-2 -15 11 0.05 0.69
2 15 -10 9.83 1.29
2 15 -10 10.44 1.07
-2 -15 10 11.83 1.03
-2 -15 9 13.83 1.03
2 15 -9 12.42 1.27
2 15 -9 13.46 1.11
2 -15 -9 10.49 0.52
2 -15 -8 3.73 0.52
2 15 -8 3.64 0.75
-2 -15 8 3.75 0.67
-2 -15 7 4.5 0.66
2 -15 -7 4.17 0.59
-2 -15 6 82.05 2.41
2 -15 -6 85.95 2.45
-2 -15 5 53.65 1.77
2 -15 -5 51.76 1.85
2 -15 -4 0.73 0.48
2 15 -4 0.25 0.51
-2 -15 4 -0.6 0.5
-2 15 4 0.41 0.54
-2 15 3 56.31 2.03
2 15 -3 53.24 1.71
-2 -15 3 53.29 1.73
-2 15 3 57.81 1.8
2 -15 -3 54.39 2
2 15 -3 52.12 2.23
2 15 -2 365.65 7.38
2 -15 -2 354.72 7.93
2 15 -2 359.74 8.17
-2 15 2 364.78 7.49
-2 15 2 364.39 7.84
-2 15 2 335.93 7.34
-2 15 1 35.59 1.39
2 15 -1 37.61 1.27
2 -15 -1 34.43 1.63
2 15 -1 34.62 1.7
-2 15 1 39.87 1.54
-2 15 1 32.76 1.23
-2 -15 1 35.31 1.29
-2 15 0 18.74 0.92
-2 -15 0 18.9 0.92
-2 15 0 19.51 1.16
2 15 0 19.24 0.87
-2 15 0 19.74 1.02
-2 15 0 20.52 1.06
2 -15 0 22.02 1.3
2 15 0 20.43 1.28
-2 15 -1 126.01 3.24
2 15 1 128.92 3.01
-2 15 -1 129.26 3.59
2 15 1 126.35 3.56
-2 15 -1 125.93 3.15
-2 -15 -1 124.96 3.15
-2 15 -2 123.54 3.1
-2 15 -2 126.17 2.75
2 15 2 122.33 2.47
2 -15 2 118.57 2.69
2 15 2 120.33 2.97
-2 15 -3 0.42 0.45
2 15 3 0.69 0.41
2 -15 3 0.35 0.37
-2 15 -3 0.03 0.49
2 -15 3 0.03 0.43
2 -15 3 0.58 0.57
2 15 3 0.36 0.55
2 -15 4 25.92 1.17
2 15 4 27.57 1.18
2 -15 4 24.24 1.11
2 15 4 26.46 1.15
-2 15 -4 22.13 0.94
-2 15 -4 25.8 1.29
2 -15 4 24.49 1.21
2 15 4 25.78 1.29
2 -15 4 25.83 1.59
-2 15 -4 26.75 1.42
2 15 5 53.66 1.75
2 -15 5 51.63 1.79
2 -15 5 53.57 1.74
2 15 5 54.6 1.79
2 -15 5 51.32 1.83
2 -15 5 48.67 2.26
2 15 5 54.35 1.85
-2 15 -5 56.96 2.12
2 -15 6 25.32 1.29
2 15 6 22.69 1.23
2 -15 6 23.57 1.25
2 -15 6 24.37 1.62
2 15 6 25.51 1.21
2 -15 7 11.63 0.96
-2 15 -7 9.84 0.67
2 -15 7 11.44 1.29
2 -15 8 23.38 1.33
2 -15 8 22.79 1.72
-2 15 -8 22.92 1
-2 15 -9 3.37 0.55
2 -15 9 3.94 0.79
2 -15 9 3.54 1.06
2 -15 10 6.53 1.28
2 -15 10 10.99 1.1
2 -15 11 2.07 1.13
2 -15 11 2.15 0.81
2 -15 12 5.28 1.34
-2 -16 12 -0.05 0.75
2 -16 -12 1.15 0.87
2 16 -12 -0.12 0.78
-2 -16 11 13.88 1.17
2 16 -11 12.83 1.18
2 16 -11 12.49 1.48
2 16 -10 -0.49 0.84
2 16 -10 0.61 0.64
-2 -16 10 1.19 0.69
2 16 -9 1.76 0.67
2 16 -9 1.82 0.79
-2 -16 9 3.4 0.71
2 -16 -8 1.08 0.43
-2 -16 8 0.04 0.54
2 16 -8 0.16 0.55
-2 -16 7 72.89 2.28
2 -16 -7 72.9 2.17
-2 -16 6 3.36 0.62
2 -16 -6 2.82 0.61
2 -16 -5 82.31 2.49
-2 -16 5 80.37 2.36
-2 16 4 7.2 0.85
-2 -16 4 6.96 0.68
2 -16 -4 7.44 0.77
2 16 -4 8.31 0.73
-2 16 3 96.15 2.89
2 16 -3 90.46 2.5
-2 16 3 93.4 2.57
2 -16 -3 94.53 2.88
2 16 -2 2.06 0.82
2 -16 -2 4.17 0.68
-2 16 2 3.18 0.47
-2 -16 2 3.18 0.48
2 16 -2 3.04 0.57
-2 16 2 2.28 0.57
-2 16 2 2.98 0.66
2 16 -1 144.33 3.44
-2 16 1 156.31 3.66
2 16 -1 156.04 4.22
2 -16 -1 144.42 4.06
-2 16 1 145.63 3.83
-2 16 1 143.57 3.44
-2 -16 1 145.75 3.47
-2 16 0 4.72 0.53
-2 -16 0 5.58 0.55
-2 16 0 5.73 0.75
-2 16 0 5.5 0.66
-2 16 0 5.89 0.68
2 16 0 4.45 0.54
2 -16 0 5.32 0.77
2 16 0 4.7 0.84
-2 16 -1 18.09 0.92
-2 -16 -1 19.12 0.92
-2 16 -1 19.8 1.21
-2 16 -1 18.54 1.05
2 16 1 18.17 0.88
-2 16 -1 19.5 1.06
2 16 1 21 1.28
2 -16 2 1.9 0.42
-2 16 -2 2.19 0.58
2 16 2 2.54 0.5
-2 16 -2 2.2 0.56
2 -16 2 1.5 0.5
2 16 2 2.64 0.7
2 16 3 193.37 4.45
2 -16 3 197.38 4.44
-2 16 -3 210.42 5.13
-2 16 -3 205.56 4.77
2 -16 3 194.27 4.7
2 16 3 198.42 4.9
2 -16 3 191.66 5.31
-2 16 -4 1.05 0.55
2 16 4 0.58 0.46
2 -16 4 0.92 0.46
2 -16 4 1.64 0.5
2 16 4 0.51 0.46
2 -16 4 0.36 0.5
2 -16 4 0.72 0.66
2 16 4 0.44 0.6
-2 16 -5 4.23 0.73
2 16 5 4.18 0.6
2 -16 5 4.97 0.62
-2 16 -5 2.59 0.37
2 -16 5 4.06 0.62
2 16 5 4.31 0.65
2 -16 5 4.27 0.68
2 16 5 4.21 0.7
2 -16 5 3.8 0.86
2 -16 6 6.97 0.79
2 -16 6 7.27 0.81
2 16 6 7.25 0.77
2 -16 6 8.65 1.1
2 16 6 7.61 0.8
-2 16 -6 8.52 0.91
2 -16 7 100.64 2.93
-2 16 -7 89.45 2.42
2 -16 7 91.38 3.47
-2 16 -8 6.62 0.65
2 -16 8 7.76 1.21
2 -16 8 8.48 0.91
-2 16 -9 4.6 0.61
2 -16 9 4.9 1.17
2 -16 9 4.88 0.82
2 -16 10 0.18 0.93
2 -16 10 0.37 0.69
2 -16 11 6.01 1.33
2 -16 11 8.63 1.1
2 -16 12 0.37 1.02
2 -17 -12 4.75 1.01
2 17 -12 2.64 0.89
-2 -17 12 3.36 0.88
-2 -17 11 1.24 0.72
2 17 -11 0.95 0.71
2 17 -11 0.44 0.86
2 17 -10 14.14 1.22
2 17 -10 15.1 1.5
-2 -17 10 16.52 1.18
2 17 -9 3.68 0.78
2 17 -9 2.29 0.87
-2 -17 9 2.83 0.67
2 -17 -8 5.56 0.61
2 17 -8 4.81 0.81
-2 -17 8 5.21 0.75
-2 -17 7 1.87 0.6
2 -17 -7 2.61 0.6
2 -17 -6 59.63 1.76
-2 -17 6 61.6 1.78
2 -17 -5 13.35 1.01
-2 -17 5 15.26 0.96
-2 -17 4 2.16 0.57
2 17 -4 3.11 0.62
2 -17 -4 1.99 0.57
-2 17 3 8.5 0.88
2 17 -3 7.27 0.73
-2 17 3 7.5 0.77
2 -17 -3 8.07 0.83
-2 17 2 183.57 4.23
2 17 -2 182.89 4.15
-2 17 2 172.31 4.01
-2 -17 2 178.73 4.08
-2 17 2 181.74 4.58
2 -17 -2 170.97 4.61
2 17 -1 6.15 0.63
-2 17 1 6.33 0.57
-2 -17 1 6.89 0.58
-2 17 1 5.49 0.7
-2 17 1 7.19 0.77
2 -17 -1 7.39 0.87
-2 17 0 37.64 1.76
2 17 0 39.32 1.37
-2 17 0 42.33 1.57
-2 17 0 41.14 1.41
-2 -17 0 39.71 1.37
-2 17 0 39.13 1.62
2 17 0 40.12 1.85
2 -17 0 40.9 1.88
-2 17 -1 17.15 1.18
-2 17 -1 16.4 1.03
2 17 1 15.86 1.19
2 -17 1 16.93 1.25
-2 17 -1 14.34 0.97
2 17 1 14.7 0.82
-2 17 -2 204.5 5.08
2 -17 2 186.53 4.22
-2 17 -2 184.36 4.6
2 17 2 191.63 4.35
2 17 2 195.9 4.89
-2 17 -2 195.15 4.65
2 17 3 15.71 0.83
2 -17 3 15.48 0.83
-2 17 -3 13.76 1.11
2 -17 3 15.42 1.03
2 -17 3 15.98 1.29
2 17 3 15.24 1.12
-2 17 -4 123.94 3.63
2 -17 4 116.82 3.05
2 17 4 120.01 3.08
2 17 4 121.86 3.04
2 -17 4 119.25 3.01
2 -17 4 123.96 3.34
2 -17 4 117.09 3.9
2 17 4 123.26 3.41
-2 17 -5 5.2 0.77
2 17 5 4.35 0.61
-2 17 -5 3.88 0.45
2 -17 5 4.77 0.65
2 17 5 5.4 0.65
2 -17 5 4.61 0.7
2 17 5 5.14 0.78
2 -17 5 4.94 0.92
2 -17 6 20.16 1.16
2 17 6 21.23 1.16
2 -17 6 21.17 1.26
-2 17 -6 21.67 1.36
2 -17 6 20.72 1.6
2 17 6 24.21 1.22
2 -17 7 2.88 0.7
-2 17 -7 1.9 0.47
2 -17 8 66.18 2.32
2 -17 8 60.95 2.87
-2 17 -8 57.88 1.84
-2 17 -9 0.2 0.43
2 -17 9 1.07 0.93
2 -17 9 0.6 0.67
2 -17 10 0.09 0.94
2 -17 10 -0.96 0.7
2 -17 11 1.51 1.08
2 -17 12 4.01 1.25
2 -18 -12 3.97 1.01
2 18 -12 4.39 0.94
2 18 -11 7.43 1.27
2 18 -11 5.93 0.91
2 -18 -11 7.34 1.04
-2 -18 11 7.33 0.98
-2 -18 10 -0.28 0.65
2 18 -10 -0.5 0.84
2 18 -10 -0.11 0.64
-2 -18 9 4.24 0.79
2 18 -9 2.82 0.74
2 18 -9 3.11 0.94
2 -18 -8 13.72 0.87
-2 -18 8 16.41 1.09
2 18 -8 14.38 1.16
2 -18 -7 21.66 1.14
-2 -18 7 23.96 1.28
2 -18 -6 8.61 0.82
-2 -18 6 8.59 0.82
2 -18 -5 42.2 1.76
-2 -18 5 45.17 1.67
2 18 -4 157.53 3.79
2 -18 -4 146.19 4.02
-2 -18 4 144.82 3.75
2 18 -3 118.11 3.04
-2 18 3 114.87 3.42
2 -18 -3 112.61 3.39
2 18 -2 45.88 1.59
-2 18 2 43.45 1.45
-2 -18 2 43.69 1.46
-2 18 2 46.12 1.89
2 -18 -2 48.69 2.01
2 18 -1 98.11 2.61
-2 18 1 99.72 2.74
-2 18 1 100.89 2.55
-2 -18 1 98.99 2.53
-2 18 1 96.33 2.95
2 -18 -1 94.52 3.16
-2 18 0 85.43 2.89
2 18 0 88.04 2.4
-2 18 0 93.39 2.63
-2 18 0 93.23 2.41
-2 -18 0 89.53 2.36
-2 18 0 90.77 2.77
2 -18 0 84.5 3.01
-2 18 -1 14.93 1.13
-2 18 -1 14.2 1.01
2 -18 1 14.53 1.21
2 18 1 14.27 1.18
2 18 1 13.43 0.83
-2 18 -2 15.37 1.19
2 -18 2 15.56 0.79
-2 18 -2 15.65 1.04
2 18 2 16.01 0.9
2 18 2 14.89 1.19
2 18 3 73.96 2.05
-2 18 -3 72.3 2.64
2 18 3 78.54 2.25
2 -18 3 74.36 2.4
2 -18 3 64.83 2.77
2 18 3 75.43 2.54
2 -18 3 70.95 2.02
-2 18 -4 101.16 3.24
2 18 4 101.76 2.62
2 -18 4 97.32 2.59
2 -18 4 96.02 2.92
2 -18 4 93.68 3.48
2 18 4 106.98 3.08
-2 18 -5 5.31 0.82
-2 18 -5 4.86 0.5
2 -18 5 5.71 0.68
2 18 5 5.31 0.69
2 -18 5 5.58 0.77
2 18 5 5.89 0.8
2 -18 5 5.13 0.99
2 -18 6 13.06 0.95
2 18 6 12.24 0.93
2 -18 6 12.68 1.01
2 -18 6 10.12 1.26
-2 18 -6 11.2 1.07
2 -18 7 38.08 1.7
-2 18 -7 32.21 1.3
2 -18 7 35.85 2.17
2 -18 8 18.36 1.24
2 -18 8 13.73 1.54
-2 18 -8 15.29 0.92
2 -18 9 2.13 1.01
2 -18 9 1.02 0.7
2 -18 10 6.04 1.37
2 -18 10 6.86 0.98
2 -18 11 0.87 1.15
2 19 -12 1.54 0.81
2 19 -11 0.57 0.67
2 -19 -11 1.28 0.81
2 19 -11 0.27 0.67
-2 -19 11 0.77 0.76
2 19 -10 0.17 0.88
2 19 -10 0.06 0.67
-2 -19 10 0.52 0.68
-2 -19 9 25.29 1.37
2 19 -9 22.99 1.49
2 -19 -8 7.3 0.73
-2 -19 8 6.24 0.86
-2 -19 7 28.37 1.4
2 -19 -7 30.25 1.37
-2 -19 6 1.2 0.59
2 19 -6 1.31 0.28
2 -19 -6 1.55 0.6
2 -19 -5 45.23 1.88
-2 -19 5 48.3 1.8
-2 -19 4 0.39 0.52
2 -19 -4 0.1 0.54
2 19 -3 49.43 1.73
-2 19 3 45.13 1.48
-2 -19 3 47.2 1.54
2 -19 -3 46.77 2
2 -19 -2 1.68 0.62
-2 19 2 0.72 0.37
-2 -19 2 1.08 0.39
2 19 -2 1.22 0.55
-2 19 2 1.48 0.62
2 19 -1 83.73 2.39
-2 19 1 92.21 2.35
-2 -19 1 87.29 2.28
-2 19 1 87.04 2.79
2 -19 -1 85.31 3
-2 19 0 11.97 1.04
2 19 0 9.94 0.75
-2 19 0 10.89 0.7
-2 -19 0 9.78 0.67
-2 19 0 10.79 0.97
2 -19 0 10.27 1.09
-2 19 -1 172.47 4.75
2 -19 1 172.15 3.83
2 19 1 182.51 4.08
-2 19 -1 172.63 4.47
2 -19 1 175.19 4.97
-2 19 -2 7.43 0.92
2 -19 2 6.4 0.55
2 19 2 6.49 0.92
2 19 2 5.81 0.69
-2 19 -2 6.36 0.79
-2 19 -3 2.85 0.72
2 19 3 3.47 0.65
2 -19 3 2.31 0.64
2 19 3 1.85 0.73
2 19 3 2.78 0.46
2 -19 3 3 0.46
-2 19 -4 23.15 1.44
2 -19 4 24.47 1.34
2 -19 4 24.35 1.72
2 19 4 23.8 1.38
2 19 4 22.39 1.03
-2 19 -5 109.06 3.47
2 -19 5 105.53 2.9
2 19 5 111.28 2.95
2 -19 5 109.51 3.2
2 -19 5 97.93 3.74
2 19 5 112.26 3.2
-2 19 -6 3.52 0.77
-2 19 -6 1.87 0.35
2 -19 6 1.88 0.67
2 -19 6 1.97 0.95
2 -19 6 3.42 0.65
2 -19 7 3.05 1.03
2 -19 7 3.7 0.72
-2 19 -8 1.8 0.52
2 -19 8 2.81 0.76
2 -19 8 3.49 1.1
2 -19 9 12.88 1.62
2 -19 9 15.87 1.22
2 -19 10 0.3 1.04
2 -19 10 0.66 0.76
2 -19 11 1.99 1.2
2 20 -12 2.87 0.87
2 20 -11 0.29 0.68
-2 -20 11 -0.05 0.71
2 20 -11 0.78 0.72
-2 -20 10 10.07 1.06
2 -20 -10 10.7 1.11
2 20 -10 9.94 1.12
2 20 -10 10.09 1.38
-2 -20 9 0.05 0.66
2 20 -9 0.89 0.7
2 -20 -8 35.55 1.42
-2 -20 8 37.7 1.68
2 -20 -7 1.55 0.6
-2 -20 7 2.16 0.67
2 -20 -6 0.83 0.6
-2 -20 6 0.24 0.58
2 -20 -5 5.31 0.83
-2 -20 5 5.94 0.81
2 -20 -4 15.43 1.15
-2 20 3 0.62 0.38
-2 -20 3 0.86 0.39
2 -20 -3 0.27 0.58
-2 -20 2 3.93 0.46
2 -20 -2 3.17 0.76
2 20 -2 3.42 0.65
-2 20 2 4.13 0.49
-2 -20 1 2.63 0.43
-2 20 1 3.61 0.49
-2 20 1 4.19 0.74
2 20 -1 2.91 0.57
2 -20 -1 3.83 0.8
-2 20 0 167.65 4.37
2 -20 0 160.72 4.7
2 20 0 168.9 3.89
-2 20 -1 12.4 1.11
2 20 1 11.56 0.63
2 -20 1 12.68 0.66
2 20 1 13.84 0.87
-2 20 -1 12.28 1.03
2 -20 1 13.39 1.27
-2 20 -2 115.74 3.35
-2 20 -2 115.61 3.65
2 -20 2 116.19 2.76
-2 20 -3 2.58 0.75
2 20 3 3.46 0.8
2 20 3 3.21 0.48
2 -20 3 3.18 0.48
-2 20 -4 61.42 2.48
2 -20 4 61.8 2.24
2 -20 4 55.56 2.66
2 20 4 60.2 2.25
-2 20 -5 3.72 0.83
2 -20 5 4.95 0.62
2 -20 5 5.02 0.81
2 -20 5 3.59 0.99
2 -20 6 48.05 1.7
2 -20 6 55.05 2.02
2 -20 6 47.2 2.48
-2 20 -6 54.09 2.19
2 -20 7 -0.29 0.65
2 -20 7 0.27 0.85
2 -20 8 -0.2 0.68
2 -20 8 0.1 0.97
-2 20 -8 -0.31 0.48
2 -20 9 1.09 1.12
2 -20 9 1.97 0.79
2 -20 10 20.73 2.04
2 21 -11 0.36 0.69
2 21 -10 6.87 1
2 21 -10 5.75 1.19
-2 -21 10 7.14 1
2 21 -10 6.36 0.92
-2 -21 9 10.83 1.09
2 21 -9 9.04 1.09
-2 -21 8 1.06 0.67
2 -21 -7 8.79 0.92
-2 -21 7 10.41 0.97
2 -21 -6 15.39 1.15
-2 -21 6 15.88 1.11
2 -21 -5 78.14 2.67
-2 -21 5 77.96 2.51
2 -21 -4 1.71 0.66
2 -21 -3 82.05 2.88
-2 -21 3 78.93 2.15
-2 21 3 81.46 2.17
2 -21 -2 56.63 2.37
-2 21 2 61.43 1.74
-2 -21 2 55.58 1.66
2 -21 -1 25.99 1.63
-2 21 1 32.46 1.18
-2 -21 1 28.58 1.07
2 -21 0 4.15 0.91
-2 21 0 3.63 0.79
-2 21 0 3.76 0.77
-2 21 -1 62.78 2.53
2 -21 1 63.02 1.66
2 21 1 61.8 1.66
-2 21 -1 67.54 2.38
2 -21 1 60.91 2.68
-2 21 -2 40.98 1.99
-2 21 -2 40.45 1.8
2 -21 2 38.11 2.14
2 -21 2 40 1.25
-2 21 -3 0.82 0.69
2 -21 4 8.13 0.94
2 21 4 7.75 0.97
2 -21 4 8.19 1.21
-2 21 -4 10.09 1.07
-2 21 -5 38.67 1.93
2 -21 5 36.24 1.73
2 -21 5 31 2.06
-2 21 -6 8.57 1.04
2 -21 6 7.11 0.95
2 -21 6 4.51 1.09
2 -21 6 7.01 0.75
2 -21 7 1.9 0.98
2 -21 7 -0.05 0.65
-2 21 -8 1.89 0.56
2 -21 8 3.26 1.15
2 -21 8 3.34 0.82
2 -21 9 7.23 1.42
2 -21 9 8.19 1.05
2 -21 10 1.34 1.16
2 22 -11 6.56 0.97
2 22 -10 2.37 0.82
2 22 -10 2.65 0.76
-2 -22 10 1.97 0.81
2 22 -9 3.22 0.89
-2 -22 9 3.43 0.84
2 22 -9 5.85 0.81
-2 -22 8 1.43 0.68
2 -22 -7 12.58 1.06
-2 -22 7 13.08 1.09
2 -22 -6 2.89 0.78
-2 -22 6 2.43 0.72
-2 -22 5 33.93 1.59
2 -22 -5 33.17 1.72
2 -22 -4 10.66 1.11
-2 -22 4 11.15 0.72
-2 22 4 10.7 0.69
2 -22 -3 46.77 2.15
-2 22 3 50.8 1.54
-2 -22 3 49.34 1.51
2 -22 -2 10.22 1.15
-2 22 2 15.06 0.8
-2 -22 2 12.71 0.69
2 -22 -1 80.45 3.04
-2 -22 1 80.77 2.03
2 -22 0 17.63 1.48
2 22 0 16.94 0.7
-2 22 0 16.29 1.31
2 -22 0 17.6 0.7
2 22 1 24.88 0.88
-2 22 -1 21.92 1.48
-2 22 -1 25.43 1.49
2 -22 1 22.83 1.69
-2 22 -2 23.15 1.54
-2 22 -2 22.56 1.41
2 -22 2 23.94 1.71
2 22 2 23.6 0.87
-2 22 -3 85.54 3.12
2 -22 4 7.53 0.92
2 -22 4 6.39 1.15
-2 22 -4 6.21 0.97
2 -22 5 -0.05 0.65
2 -22 5 0.45 0.76
-2 22 -5 0.46 0.7
2 -22 6 14.01 1.15
2 -22 6 14.66 1.62
-2 22 -6 13.18 1.24
2 -22 7 51.32 2.15
2 -22 7 48.5 2.79
-2 22 -7 52.41 2.29
2 -22 8 0.32 0.72
2 -22 8 1.54 1.15
2 -22 9 1.79 0.83
2 -22 9 2.42 1.21
-2 -23 10 6.17 0.96
2 23 -10 6.14 1
2 23 -10 7.14 0.94
-2 -23 9 -0.49 0.74
2 23 -9 -0.43 0.71
2 23 -9 -0.04 0.6
-2 -23 8 3.16 0.84
2 -23 -7 2.26 0.7
-2 -23 7 1.79 0.73
2 -23 -6 49.64 2.08
-2 -23 6 46.11 1.94
2 -23 -5 0.62 0.68
2 -23 -4 1.43 0.71
-2 23 4 1.32 0.41
-2 -23 4 2.38 0.45
2 -23 -3 2.26 0.82
-2 23 3 1.87 0.44
-2 -23 3 1.99 0.4
2 -23 -2 75.89 2.97
-2 -23 2 76.1 2
2 -23 -1 4.5 0.98
2 23 0 11.83 0.54
-2 23 0 9.84 1.1
2 -23 0 11.28 1.25
-2 23 -1 1.63 0.74
2 -23 1 1.07 0.78
2 23 1 1.59 0.33
-2 23 -2 67.99 2.51
2 -23 2 69.55 3
-2 23 -2 63.9 2.68
-2 23 -3 5.95 0.99
-2 23 -4 46.16 2.21
2 -23 5 0.79 0.72
2 -23 5 -0.37 0.83
-2 23 -5 -0.48 0.73
2 -23 6 11.45 1.12
2 -23 6 9.8 1.45
-2 23 -6 11.64 1.23
2 -23 7 3.85 0.88
2 -23 7 4.89 1.27
-2 23 -7 5.13 0.98
2 -23 8 27.81 2.28
2 -23 8 30.64 1.72
2 24 -10 -0.44 0.69
2 24 -9 0.63 0.71
-2 -24 9 -0.36 0.78
-2 -24 8 5.66 0.95
2 24 -8 4.36 0.72
2 -24 -7 18.13 1.26
-2 -24 7 20.51 1.36
2 -24 -6 0.27 0.73
-2 -24 6 -0.19 0.72
2 -24 -5 12.76 1.24
2 -24 -4 16.95 1.41
-2 -24 4 18.16 0.84
2 -24 -3 39.13 2.07
-2 -24 3 42.14 1.26
2 -24 -2 0.69 0.71
2 24 -1 57.25 1.39
2 -24 -1 61.16 2.67
-2 24 0 21.21 1.52
2 -24 0 26.53 1.83
2 24 0 26.77 0.78
2 -24 1 1.93 0.86
-2 24 -1 1.14 0.71
2 -24 2 3.64 1.03
-2 24 -2 1.8 0.78
-2 24 -3 35.06 1.99
-2 24 -4 9.29 1.15
-2 24 -5 1.34 0.83
2 -24 5 2.93 1.11
2 -24 5 2.33 0.77
-2 24 -6 0.63 0.76
2 -24 6 0.91 1.03
2 -24 6 0.62 0.75
-2 24 -7 11 1.24
2 -24 7 12.76 1.24
2 -24 7 9.94 1.57
2 -24 8 3.45 0.92
2 -24 8 3.47 1.34
-2 -25 9 7.8 1.08
2 25 -9 5.91 0.98
-2 -25 8 3.6 0.88
-2 -25 7 2.29 0.85
2 -25 -6 13.44 1.25
2 -25 -5 17.52 1.42
-2 -25 5 14.92 0.83
2 -25 -4 1.13 0.82
-2 -25 4 1.17 0.37
2 -25 -3 25.28 1.76
-2 -25 3 29.26 0.93
2 -25 -2 23.77 1.71
2 25 -1 3.02 0.23
2 -25 -1 3.61 0.94
-2 25 0 7.42 1.04
2 -25 0 5.8 1.14
-2 25 -1 36.62 1.99
2 -25 1 34.51 2.13
-2 25 -2 3.43 0.88
2 -25 2 4.26 1.05
-2 25 -3 2.72 0.86
2 -25 3 3.34 1.1
-2 25 -4 7.81 1.15
-2 25 -5 38.74 2.11
2 -25 5 36.64 2.46
2 -25 6 0.53 1.05
-2 25 -6 0.43 0.8
2 -25 6 -0.87 0.82
2 -25 7 -0.65 1.14
-2 25 -7 0.14 0.75
2 -25 7 -0.47 0.87
2 26 -9 0.45 0.72
-2 -26 8 10.05 1.14
-2 -26 7 -0.1 0.81
2 -26 -6 0.06 0.73
2 -26 -5 0.51 0.77
2 -26 -4 56.65 2.54
2 -26 -3 0.37 0.81
2 -26 -2 3.15 0.98
2 -26 -1 0.8 0.82
-2 26 0 38.79 2.03
2 -26 0 41.21 2.33
-2 26 -1 7.17 1.09
2 -26 1 4.68 1.2
-2 26 -2 6.37 1.04
2 -26 2 8.43 1.36
-2 26 -3 -0.23 0.77
2 -26 3 1.07 0.94
-2 26 -4 21.17 1.67
-2 26 -5 1.97 0.93
2 -26 5 1.05 1.04
2 -26 6 31.18 1.79
2 -26 6 34.33 2.52
-2 26 -6 29.46 1.95
-2 26 -7 5.22 1.04
2 -26 7 5.09 1.05
2 27 -9 7.38 1.08
-2 -27 8 -0.16 0.82
2 -27 -6 9.09 1.14
2 -27 -5 26.23 1.77
2 -27 -4 -0.07 0.8
2 -27 -3 26.44 1.87
2 -27 -2 9.36 1.31
2 -27 -1 6.88 1.19
2 -27 0 2.38 1
-2 27 0 3.57 0.93
-2 27 -1 68.55 2.86
2 -27 1 71.47 3.22
2 -27 2 3.18 1.09
-2 27 -2 1.2 0.78
2 -27 3 0.2 1.01
-2 27 -3 0.54 0.84
-2 27 -4 -0.46 0.83
-2 27 -5 18.51 1.65
2 -27 5 22.48 2.09
2 -27 6 13.36 1.76
-2 27 -6 11.51 1.41
-2 27 -7 0.29 0.84
2 -28 -5 4.37 1.04
2 -28 -4 6.3 1.17
2 -28 -3 6.68 1.2
2 -28 -2 0.17 0.87
2 -28 -1 29.15 2.08
-2 28 0 15.83 1.44
2 -28 0 13.8 1.61
2 -28 1 4.49 1.23
-2 28 -1 6.33 1.08
2 -28 2 10.1 1.49
-2 28 -2 11.5 1.34
-2 28 -3 23.1 1.78
2 -28 3 27.5 2.23
-2 28 -4 -0.24 0.9
-2 28 -5 3.82 1.14
-2 28 -6 3.56 1.05
-2 28 -7 3.56 1.02
2 -29 -5 -0.62 0.83
2 -29 -4 -0.3 0.88
2 -29 -3 -0.16 0.89
2 -29 -2 22.94 1.9
2 -29 -1 0.72 0.96
-2 29 1 1.05 0.8
2 -29 0 0.76 1.03
-2 29 0 1.45 0.82
2 -29 1 2.67 1.13
-2 29 -1 2.99 0.97
-2 29 -2 15.24 1.46
2 -29 2 18.28 1.9
2 -29 3 3.83 1.27
-2 29 -3 3.83 1.05
-2 29 -4 14.99 1.56
2 -29 4 23.38 2.17
-2 29 -5 5.18 1.16
-2 29 -6 1.21 0.96
2 -30 -5 5.2 1.12
2 -30 -4 1.31 0.96
2 -30 -3 14.64 1.54
2 -30 -2 0.7 0.97
-2 30 1 31.14 1.92
2 -30 -1 38.08 2.41
2 -30 0 0.68 1.01
-2 30 0 1.76 0.86
2 -30 1 0.61 1
-2 30 -1 0.53 0.79
2 -30 2 0.74 1.07
-2 30 -2 0.7 0.81
2 -30 3 14.2 1.85
-2 30 -3 12.41 1.45
-2 30 -4 1.22 0.92
-2 30 -5 0.49 1.01
-2 30 -6 -0.33 0.94
2 -31 -4 -0.08 0.95
2 -31 -3 7.49 1.31
2 -31 -2 9.57 1.44
2 -31 -1 6.24 1.34
2 -31 0 1.28 1.08
-2 31 0 1.85 0.86
2 -31 1 9.56 1.56
-2 31 -1 10.96 1.35
-2 31 -2 11.95 1.41
-2 31 -3 2.69 1.02
2 -32 -4 9.91 1.39
2 -32 -3 0.09 1.02
2 -32 -2 1.46 1.11
2 -32 -1 0.67 1.07
2 -32 0 13.25 1.69
2 -33 -3 8.6 1.39
2 -33 -2 0.37 1.02
-3 0 13 -0.42 0.73
3 0 -12 -0.19 0.9
-3 0 12 0.35 0.72
3 0 -11 -0.09 0.82
3 0 -10 22.53 1.73
3 0 -9 -0.59 0.75
3 0 -9 0.43 0.69
3 0 -8 4.73 0.87
3 0 -8 4.93 0.8
3 0 -7 0.83 0.62
3 0 -7 0.75 0.68
3 0 -6 419.85 9.43
3 0 -5 1.29 0.61
3 0 -5 1.04 0.63
3 0 -4 31.06 1.47
3 0 -4 29.36 1.53
-3 0 3 -0.22 0.2
3 0 -3 0.07 0.38
3 0 -3 -0.27 0.5
3 0 -2 296.9 6.86
3 0 -2 293.45 6.58
-3 0 1 1.47 0.62
3 0 -1 0.52 0.51
3 0 -1 -0.24 0.39
3 0 -1 0.78 0.51
-3 0 0 14.83 1.07
3 0 0 14.83 0.93
3 0 0 15.35 0.9
3 0 0 13.56 0.72
-3 0 -1 -0.29 0.54
3 0 1 -0.38 0.53
3 0 1 -0.03 0.36
3 0 1 0.18 0.24
-3 0 -2 181.41 4.77
3 0 2 184.31 3.6
3 0 2 180.62 4.27
3 0 2 180.02 4.37
3 0 2 173.44 3.7
3 0 3 0.21 0.37
3 0 3 -0.34 0.37
3 0 3 0.07 0.55
-3 0 -3 1.05 0.53
3 0 3 0.99 0.57
3 0 4 153.4 3.43
3 0 4 152.33 3.66
3 0 5 0.36 0.56
3 0 5 0.02 0.41
3 0 5 0.28 0.33
3 0 6 56.65 1.84
3 0 6 55.94 1.68
3 0 6 61.04 2.26
3 0 7 0.59 0.57
3 0 7 -0.17 0.56
3 0 7 -0.02 0.33
3 0 8 63.33 2.19
3 0 8 57.71 2.25
3 0 9 0.7 0.64
3 0 9 -0.52 0.68
3 0 10 0.34 0.64
3 0 10 0.22 0.73
3 0 11 -0.06 0.9
3 0 12 1.32 1.01
-3 1 13 -0.32 0.78
-3 -1 13 -0.21 0.74
-3 -1 12 1.28 0.73
3 -1 -12 2.57 1.04
3 1 -12 2.17 1.01
3 -1 -11 14.45 1.51
3 1 -11 18.84 1.66
-3 -1 11 16.55 1.17
3 -1 -10 0.24 0.77
3 1 -10 0.88 0.84
-3 -1 10 1.42 0.68
3 -1 -9 5.81 0.93
3 -1 -9 6.68 1.07
3 1 -8 21.44 1.36
3 -1 -8 21.75 1.31
3 -1 -8 18.24 1.41
3 1 -8 20.88 1.46
-3 1 8 20.07 0.83
3 1 -7 40.38 1.78
-3 1 7 34.39 1.2
3 -1 -7 33.42 1.8
3 1 -7 33.17 1.77
-3 1 6 3.26 0.53
3 -1 -6 3.9 0.8
3 1 -6 4.77 0.88
-3 1 5 113.17 2.84
3 -1 -5 112.39 3.36
3 1 -5 115.39 3.39
3 -1 -4 83.99 2.67
3 1 -4 86.76 2.72
3 -1 -4 90.46 2.89
3 1 -4 85.39 2.81
-3 -1 4 85.41 1.95
3 1 -3 41.19 1.6
3 -1 -3 39.43 1.59
3 1 -3 40.33 1.72
3 -1 -3 41.5 1.74
-3 -1 3 39.74 0.89
3 1 -2 17.71 0.91
3 -1 -2 18.15 0.94
3 1 -2 16.27 0.95
3 -1 -2 17.24 0.96
3 1 -2 16.23 1.07
3 -1 -2 15.91 1.06
-3 1 1 392.89 8.44
-3 -1 1 370.29 8.36
3 -1 -1 377.49 7.77
3 1 -1 383.32 7.79
3 1 -1 350.44 7.67
3 -1 -1 372.04 7.71
3 1 -1 368.79 8.1
3 -1 -1 363.3 8.05
-3 1 0 66.7 2.37
-3 -1 0 66.63 2.38
3 -1 0 69.55 2.18
3 1 0 65.47 2.15
3 -1 0 66.04 2.05
3 1 0 67.72 2.06
3 1 0 64.93 1.85
3 -1 0 68.19 1.85
3 1 1 4.08 0.56
3 -1 1 3.93 0.54
-3 1 -1 5.35 0.76
-3 -1 -1 3.92 0.7
3 -1 1 3.39 0.6
3 1 1 3.47 0.62
3 1 1 4.18 0.4
3 -1 1 4.8 0.4
-3 1 -2 47.97 1.98
-3 -1 -2 43.87 1.91
3 -1 2 44.25 1.58
3 1 2 41.5 1.55
3 1 2 45.32 1.05
3 -1 2 44.86 1.09
3 1 2 47.95 1.73
3 -1 2 44.93 1.68
3 1 2 40.51 1.17
3 -1 2 42.59 1.08
3 1 3 274.92 5.47
3 -1 3 280.81 5.49
3 -1 3 271.95 5.92
3 1 3 264.48 5.92
-3 1 -3 256.76 6.54
-3 -1 -3 254.7 6.53
3 1 3 265.8 6.16
3 1 3 275.36 6.21
3 -1 3 273.27 6.16
3 -1 4 48.54 1.57
3 1 4 44.07 1.54
3 1 4 46.03 1.4
3 -1 4 46.28 1.41
3 -1 5 23.34 0.99
3 1 5 21.68 0.99
3 -1 5 28.02 1.5
3 1 5 24.51 1.05
3 -1 5 22.62 1
3 1 6 50.06 1.7
3 -1 6 51.55 1.71
3 1 6 56.35 2.14
3 -1 6 52.87 2.13
3 1 6 47.97 1.55
3 -1 6 47.24 1.45
3 1 7 67.42 2.1
3 -1 7 68.84 2.09
3 1 7 61.7 1.74
3 -1 7 64.91 2.34
3 1 7 69.26 2.37
3 -1 8 3.56 0.74
3 1 8 2.61 0.71
3 1 8 2.93 0.72
3 -1 8 2.26 0.67
3 1 8 1.78 0.38
3 1 9 10.01 1.02
3 -1 9 10.61 1.02
3 -1 9 9.29 0.97
3 1 9 9.98 0.99
3 1 10 1.11 0.78
3 -1 10 1.58 0.78
3 -1 10 1.53 0.65
3 1 10 2.23 0.68
3 1 11 18.1 1.55
3 -1 11 13.32 1.33
3 1 12 1.22 1.06
3 -1 12 2.5 0.99
-3 -2 13 3.16 0.87
3 2 -12 1.97 0.98
3 -2 -12 2.3 1.07
-3 -2 12 2.82 0.88
3 2 -11 0.26 0.81
3 -2 -11 0.7 0.86
-3 -2 11 0.22 0.65
3 -2 -10 13.37 1.39
3 2 -10 15.92 1.49
-3 -2 10 17.72 1.13
-3 -2 9 43.5 1.67
3 -2 -9 42.37 2.21
3 2 -9 42.95 2.2
3 -2 -9 48.75 1.94
3 -2 -8 1.6 0.76
-3 2 8 1.44 0.42
-3 -2 8 0.83 0.58
3 2 -8 1.77 0.74
3 -2 -8 1.01 0.69
3 2 -7 36.88 1.74
-3 2 7 33.91 1.24
3 -2 -7 35.34 1.87
3 2 -7 34.2 1.82
-3 -2 7 35.11 1.32
-3 2 6 26.6 1.1
3 -2 -6 27.32 1.54
3 2 -6 25.79 1.52
-3 2 5 15.54 0.85
3 2 -5 13.07 1.04
3 -2 -5 15.75 1.12
-3 -2 5 12.97 0.68
3 2 -4 8.65 0.91
-3 2 4 8.86 0.73
3 2 -4 7.88 0.84
3 -2 -4 10.29 0.91
-3 -2 4 8.08 0.47
3 2 -3 153.32 4.05
3 -2 -3 143.41 3.99
3 2 -3 160.37 3.49
-3 2 3 148.24 3.64
3 2 -3 150.73 3.84
3 -2 -3 146.09 3.8
-3 -2 3 146.68 2.86
3 2 -2 127.15 3.45
3 -2 -2 119.11 3.36
-3 2 2 118.01 2.35
3 2 -2 125.15 3
3 2 -2 119.93 3.13
3 -2 -2 117.01 3.1
-3 2 1 15.21 1.11
3 -2 -1 15.59 0.9
3 2 -1 13.46 0.85
3 2 -1 15.01 0.83
3 -2 -1 13.19 0.78
3 2 -1 15.13 1
3 -2 -1 13.58 0.96
-3 2 0 67.46 2.36
3 -2 0 68.16 2.03
3 2 0 66.62 2.04
3 2 0 60.92 1.81
3 -2 0 65.51 1.81
3 2 0 62.53 2.12
3 -2 0 63.45 2.11
-3 2 -1 333.88 7.68
3 2 1 324 7.28
3 -2 1 327.5 7.25
3 2 1 340.11 7.3
3 -2 1 339.63 7.26
3 -2 1 347.23 6.75
3 2 2 15.68 0.51
3 -2 2 16.14 0.59
3 -2 2 16.74 0.92
-3 2 -2 16.24 1.15
3 2 2 16.26 1.02
3 -2 2 13.35 0.94
-3 2 -3 1.35 0.59
3 -2 3 0.62 0.39
3 2 3 0.94 0.5
3 -2 3 0.35 0.31
3 2 3 0.04 0.32
3 -2 3 -0.04 0.57
3 2 3 0.27 0.56
3 2 4 96.64 2.32
3 -2 4 96.49 2.33
3 -2 4 103.18 3.12
3 -2 4 99.09 2.48
3 2 5 100.41 2.42
3 -2 5 102.39 2.44
3 -2 5 100.1 3.05
3 -2 5 103.28 2.38
3 2 6 7.66 0.89
3 2 6 6.18 0.39
3 -2 6 8.03 0.86
3 -2 6 8.03 0.71
3 2 6 7.8 0.71
3 -2 7 20.13 1.29
3 2 7 21.98 1.33
3 2 7 20.01 1.13
3 -2 7 18.91 1.09
3 -2 8 32.66 1.48
3 2 8 32.63 1.52
3 2 8 32.68 1.54
3 -2 8 31.65 1.63
3 2 9 21.84 1.38
3 -2 9 21.73 1.33
3 -2 9 21.15 1.36
3 2 9 22.18 1.31
3 2 10 1.24 0.81
3 -2 10 0.98 0.74
3 -2 10 1.18 0.68
3 2 10 0.73 0.61
3 2 11 25.67 1.76
3 -2 11 25.33 1.65
3 2 12 2.6 1.14
3 -2 12 1.7 0.93
-3 -3 13 -0.63 0.77
3 -3 -12 12.27 1.55
-3 -3 12 11.17 1.12
3 3 -12 11.75 1.56
-3 -3 11 -0.5 0.71
3 -3 -11 -0.09 0.8
3 3 -11 -0.26 0.81
-3 -3 10 1.53 0.65
3 3 -10 2.01 0.86
3 -3 -10 2.29 0.86
-3 3 10 1.71 0.4
3 -3 -9 1.67 0.78
-3 3 9 1.1 0.4
-3 -3 9 0.04 0.61
3 -3 -9 0.52 0.76
3 3 -9 0.95 0.74
-3 -3 8 93.92 2.56
-3 3 8 83.13 2.3
3 -3 -8 87.8 3.24
3 3 -8 89.36 3.25
3 -3 -8 97.67 2.9
-3 3 7 0.92 0.4
-3 -3 7 -0.28 0.48
3 -3 -7 0.06 0.59
3 3 -7 0.06 0.62
3 3 -7 0.24 0.61
-3 3 6 6.07 0.58
3 3 -6 5.64 0.83
3 3 -6 5.41 0.86
3 -3 -6 6.53 0.86
-3 3 5 14.36 0.85
3 3 -5 15.21 1.1
3 -3 -5 13.98 1.09
-3 -3 5 13.44 0.66
3 3 -4 384.59 8.53
-3 3 4 379.49 7.96
3 3 -4 367.36 8.28
3 -3 -4 368 8.32
-3 -3 4 378.11 7.31
3 3 -3 8.36 0.86
3 3 -3 7.32 0.62
-3 3 3 7.11 0.69
3 3 -3 5.98 0.71
3 -3 -3 6.96 0.73
-3 -3 3 5.7 0.26
3 3 -2 61.16 2.19
-3 3 2 64.76 1.39
-3 3 2 59.86 2
3 3 -2 60.51 1.85
3 3 -2 60.54 1.99
3 -3 -2 60.31 1.98
-3 3 1 11.93 1.02
3 3 -1 10.26 0.85
3 -3 -1 9.68 0.85
-3 3 1 9.84 0.35
3 -3 -1 11.07 0.78
3 3 -1 10.41 0.76
3 -3 -1 10.35 0.71
-3 3 0 252.26 6.04
3 -3 0 246.94 5.75
3 -3 0 254.43 5.6
3 3 0 256.09 5.64
3 -3 0 248.79 5.32
3 -3 1 3.3 0.55
-3 3 -1 4.37 0.75
3 -3 1 3.12 0.38
3 -3 1 3.65 0.68
3 3 1 2.99 0.64
3 3 2 111.56 2.24
3 -3 2 103.38 2.36
3 -3 2 106.68 2.86
-3 3 -2 103.26 3.26
3 3 2 109.53 3.04
3 -3 2 105.88 2.93
3 3 3 7.87 0.5
3 -3 3 8.51 0.52
3 -3 3 8.46 0.65
-3 3 -3 7.55 0.86
3 3 3 8.22 0.81
3 -3 3 8.37 0.79
3 -3 4 94.93 2.34
3 3 4 91.53 2.31
3 3 4 89.98 2.26
3 -3 4 100.62 2.49
3 -3 4 95.64 3.05
3 3 5 1.88 0.35
3 -3 5 1.54 0.47
3 -3 5 2.24 0.67
3 -3 6 52.09 1.68
3 -3 6 49.2 2.03
3 3 6 44.82 1.35
3 -3 7 10.81 0.86
3 3 7 9.01 0.91
3 -3 7 9.26 0.99
3 3 7 8.65 0.6
3 -3 8 2.8 0.66
3 3 8 3.47 0.72
3 -3 8 3.68 0.79
3 3 9 0.25 0.73
3 -3 9 -0.18 0.61
3 -3 9 -0.06 0.62
3 3 9 0.5 0.58
3 -3 10 26.14 1.52
3 3 10 29.6 1.71
3 -3 10 25.56 1.57
3 3 11 0.4 0.96
3 -3 11 0.69 0.84
3 3 12 4.54 1.2
3 -3 12 4.92 1.09
-3 -4 13 5.28 0.93
3 -4 -12 0.89 0.99
3 4 -12 0.76 1.01
-3 -4 12 0.44 0.81
3 -4 -11 2.72 0.98
3 4 -11 2.62 0.95
-3 -4 11 1.11 0.69
-3 4 10 3.27 0.48
-3 -4 10 2.91 0.69
3 -4 -10 4.33 1
3 4 -10 4.58 0.98
-3 -4 9 26.44 1.3
-3 4 9 23 1.02
3 -4 -9 25.91 1.76
3 4 -9 28.75 1.83
3 -4 -9 27.74 1.49
-3 4 8 1.16 0.45
3 4 -8 0.61 0.76
-3 -4 8 0.81 0.59
3 -4 -8 1.24 0.77
3 4 -7 45.22 2.08
-3 4 7 40.71 1.46
3 -4 -7 42.39 2.06
3 4 -7 41.46 2.05
-3 -4 7 43.47 1.47
3 4 -6 17.06 1.26
3 4 -6 20.97 1.35
-3 4 6 16.68 0.92
3 4 -6 17.54 1.26
3 -4 -6 16.35 1.24
-3 4 5 53.37 1.76
3 4 -5 49.8 2.06
3 -4 -5 49.83 2.08
-3 -4 5 50.78 1.41
3 4 -4 6.23 0.85
-3 4 4 6.42 0.67
3 4 -4 6.93 0.8
3 -4 -4 6.2 0.79
-3 -4 4 4.87 0.43
3 4 -3 290.06 6.67
3 4 -3 297.15 5.99
-3 4 3 303.06 6.38
3 4 -3 277.42 6.42
3 -4 -3 281.21 6.47
-3 -4 3 279.82 5.4
3 4 -2 37.2 1.63
-3 4 2 37.11 0.98
-3 4 2 39.09 1.54
3 4 -2 37.34 1.35
3 -4 -2 36.12 1.47
-3 4 1 42.72 1.83
3 4 -1 38.49 1.62
-3 4 1 37.84 0.96
-3 4 1 38.77 1.56
3 4 -1 39.07 1.45
3 -4 -1 41.01 1.44
-3 4 0 9.53 0.93
3 -4 0 9.5 0.76
3 4 0 10.05 0.83
3 -4 0 9.18 0.62
-3 4 -1 480.77 10.64
3 -4 1 511.27 9.68
3 -4 1 482.49 10.19
3 4 1 492.03 10.3
3 4 2 38.33 0.97
3 -4 2 36.64 1.09
-3 4 -2 38.44 1.76
3 -4 2 38.94 1.53
3 4 2 37.87 1.57
-3 4 -3 0.97 0.54
3 -4 3 0.21 0.52
3 4 3 0.31 0.48
3 -4 3 1.01 0.56
3 -4 3 0.55 0.31
3 -4 4 21.36 0.91
3 4 4 22.2 0.95
3 -4 4 20.56 1.31
3 4 5 146.87 3.52
3 -4 5 157.48 4.36
3 -4 6 16.34 0.95
3 4 6 15.17 0.77
3 -4 6 15.51 1.16
3 -4 7 31.6 1.39
3 4 7 33.69 1.22
3 -4 7 32.98 1.7
3 4 7 32.41 1.58
3 -4 8 21.65 1.21
3 4 8 22.41 1.28
3 -4 8 24.01 1.46
3 -4 9 24.66 1.37
3 4 9 23.59 1.31
3 -4 9 23.86 1.52
3 -4 10 -0.05 0.68
3 -4 10 0.12 0.69
3 4 11 1.87 1.05
3 -4 11 2.26 0.86
3 4 12 0.39 1.07
3 -4 12 -0.56 0.91
-3 -5 13 0.1 0.76
3 -5 -12 7.38 1.34
-3 -5 12 6.92 1.01
3 5 -11 4.16 1.06
3 -5 -11 5.86 1.19
-3 -5 11 5.73 0.87
-3 5 10 0.69 0.43
-3 -5 10 1.21 0.62
3 5 -10 0.48 0.75
3 -5 -10 0.6 0.8
-3 5 9 9.42 0.72
-3 -5 9 11.08 0.92
3 -5 -9 11.16 1.04
3 -5 -9 10.35 1.24
3 5 -9 11.05 1.26
-3 5 8 34.12 1.32
-3 -5 8 34.91 1.4
3 5 -8 38.05 1.94
3 -5 -8 33.49 1.93
3 5 -8 34.6 1.96
-3 -5 7 30.16 1.18
3 5 -7 31.07 1.72
3 5 -7 32.86 1.8
3 -5 -7 30.65 1.76
-3 5 7 29.97 1.26
3 5 -6 1.48 0.67
3 5 -6 0.78 0.61
-3 5 6 1.01 0.46
3 -5 -6 1.85 0.69
-3 -5 5 81.46 2.05
-3 5 5 89.48 2.5
3 5 -5 86.11 2.87
3 -5 -5 80.61 2.82
-3 -5 4 42.52 1.14
3 5 -4 48.08 1.36
-3 5 4 45.83 1.65
3 5 -4 43.12 1.83
3 -5 -4 43.5 1.87
3 5 -4 42.73 1.9
3 5 -3 45.54 1.46
-3 5 3 45.28 1.7
3 5 -3 45.45 1.92
-3 5 3 45.95 1.31
3 -5 -3 44.46 1.77
3 5 -3 43.29 1.76
3 5 -2 34.03 1.56
3 -5 -2 32.71 1.42
-3 5 2 35.44 1.51
3 5 -2 34.18 1.31
-3 5 2 35.42 1.01
-3 5 1 238.7 5.56
-3 -5 1 232.93 5.52
3 -5 -1 214.51 4.96
-3 5 1 217.33 5.23
3 5 -1 225.18 5.01
-3 5 1 215.36 4.39
-3 5 0 165.14 4.29
-3 -5 0 155.85 4.24
3 -5 0 166.69 3.72
3 -5 0 165.72 3.93
3 5 0 165.01 3.97
-3 5 0 157.33 4.12
-3 5 0 157.24 3.33
-3 5 -1 6.14 0.79
3 -5 1 5.78 0.73
3 5 1 6.44 0.74
-3 -5 -1 6.5 0.81
-3 5 -2 167.78 4.52
-3 -5 -2 171.16 4.56
3 -5 2 172.15 3.65
3 -5 2 172.11 4.18
3 -5 3 170.13 3.68
3 -5 3 168.73 4.6
-3 5 -3 170.71 4.56
-3 -5 -3 160.57 4.51
3 -5 3 170.83 4.19
3 -5 4 68.89 2.56
3 -5 4 72.73 1.95
3 5 5 6.28 0.61
3 -5 5 5.9 0.6
3 -5 5 7.1 0.89
3 -5 6 61.08 1.93
3 5 6 60.11 1.8
3 -5 6 60.37 2.36
3 -5 7 47.15 1.75
3 5 7 48.74 1.98
3 -5 7 46.8 2.07
3 5 7 47.63 1.59
3 -5 8 1.14 0.6
3 -5 8 1.51 0.68
3 5 8 0.31 0.56
3 -5 9 4.93 0.82
3 -5 9 5.13 0.89
3 5 9 4.99 0.75
3 -5 10 13.04 1.14
3 -5 10 12.11 1.21
3 -5 11 4.96 0.95
3 -5 12 0.25 0.84
3 5 12 -1.05 1.12
-3 -6 13 1.38 0.78
-3 -6 12 1.71 0.78
3 -6 -12 1.43 1
-3 -6 11 0.04 0.68
3 -6 -11 0.94 0.94
3 6 -11 0.79 0.86
-3 6 10 29.35 1.23
-3 -6 10 35.28 1.54
3 -6 -10 30.87 2.05
3 6 -10 31.28 2.04
3 -6 -9 1.62 0.66
-3 6 9 2.19 0.5
-3 -6 9 1.71 0.58
3 -6 -9 1.6 0.84
3 6 -9 2.6 0.88
-3 6 8 3.42 0.55
-3 -6 8 2.87 0.58
3 -6 -8 2.99 0.83
3 6 -8 3.01 0.86
3 6 -8 2.86 0.76
-3 6 7 0.03 0.42
-3 -6 7 0.27 0.43
3 -6 -7 -0.07 0.59
3 6 -7 0.13 0.6
3 6 -7 0.24 0.59
-3 6 6 145.97 3.67
3 6 -6 151.27 4.28
3 -6 -6 139.47 4.27
3 6 -6 145.65 4.24
-3 -6 5 6.38 0.53
-3 6 5 6.96 0.71
3 -6 -5 4.58 0.82
3 6 -5 5.9 0.83
-3 6 4 1.04 0.43
3 6 -4 1.69 0.37
-3 -6 4 0.77 0.27
3 -6 -4 0.81 0.53
3 6 -4 0.69 0.49
-3 6 3 16.55 1.03
3 6 -3 11.58 0.99
3 -6 -3 14.86 1.04
-3 6 3 13.81 0.7
-3 6 3 14.91 0.95
3 6 -3 13.25 0.76
-3 6 2 456.93 9.37
3 -6 -2 443.18 9.4
-3 6 2 452.3 9.44
3 6 -2 451.73 9.07
-3 6 2 432.06 8.67
-3 6 1 14.35 1.07
-3 -6 1 14.32 1.07
3 -6 -1 13.28 0.87
3 6 -1 13.97 0.91
-3 6 1 13.82 0.96
-3 6 1 12.78 0.59
-3 6 0 154.93 4.09
-3 -6 0 154.41 4.11
3 -6 0 153.43 3.58
3 6 0 157.47 3.83
-3 6 0 144.09 3.96
-3 6 0 151.96 3.24
-3 6 -1 34.83 1.63
-3 -6 -1 32.67 1.59
3 -6 1 34.72 1.42
-3 6 -2 151.71 4.19
-3 -6 -2 155.26 4.22
3 -6 2 157.58 4.32
3 -6 2 154.41 3.4
3 -6 2 156.51 3.88
3 -6 3 4.57 0.5
3 -6 3 5.84 0.85
3 -6 3 5.52 0.72
-3 6 -3 6.78 0.81
-3 -6 -3 6.25 0.83
3 -6 4 62.04 1.77
3 -6 4 60.2 2.39
3 6 5 2.73 0.54
3 -6 5 3.39 0.55
3 -6 5 3.19 0.7
3 -6 6 33.25 1.37
3 -6 6 32.5 1.71
3 6 6 35.15 1.32
3 -6 7 2.99 0.63
3 6 7 2.33 0.66
3 -6 7 3.59 0.77
3 -6 8 33.33 1.5
3 -6 8 33.16 1.79
3 6 8 31.02 1.53
3 -6 9 2.57 0.77
3 6 9 1.33 0.59
3 -6 9 1.02 0.66
3 -6 10 -0.51 0.76
3 -6 10 -0.05 0.74
3 -6 11 1.96 0.89
3 -6 11 4.06 0.91
3 -6 12 8.42 1.2
-3 -7 13 -0.2 0.76
-3 -7 12 4.01 0.84
3 -7 -12 4.32 1.2
-3 7 11 13.27 0.89
3 -7 -11 18.13 1.76
3 7 -11 20.69 1.73
-3 -7 11 15.99 1.16
-3 7 10 0.24 0.47
-3 -7 10 0.88 0.64
3 -7 -10 2.13 0.99
3 7 -10 -0.92 0.93
-3 7 9 11.83 0.83
-3 -7 9 13.28 0.92
3 -7 -9 10.85 1.31
3 7 -9 12.79 1.34
3 -7 -9 11.65 1.03
-3 7 8 -0.07 0.42
3 7 -8 0.28 0.67
3 7 -8 -0.38 0.65
-3 -7 8 -0.41 0.51
3 -7 -8 0.38 0.67
-3 7 7 34.54 1.42
-3 -7 7 34.71 1.3
3 -7 -7 33.8 1.94
3 7 -7 36.32 1.86
3 7 -7 39.21 1.98
3 7 -6 1.32 0.72
3 7 -6 1.3 0.72
-3 7 6 1.04 0.53
3 -7 -6 1.58 0.72
-3 7 5 107.29 3.04
-3 -7 5 108.69 2.55
3 -7 -5 109.35 3.5
3 7 -5 113.2 3.46
-3 7 5 117.03 3.19
3 7 -4 13.58 0.68
-3 7 4 13.38 0.92
-3 -7 4 13.4 0.59
3 -7 -4 13.76 1.1
-3 7 4 14.93 0.93
3 7 -4 16.48 1.26
3 7 -3 76.4 2.11
-3 7 3 77.47 2.45
-3 7 3 81.61 2.05
3 -7 -3 74.11 2.55
-3 7 3 78.68 2.32
-3 7 3 85.24 2.58
3 7 -2 0.96 0.53
-3 7 2 1.62 0.57
-3 7 2 1.56 0.55
-3 7 2 1.12 0.43
3 -7 -2 0.74 0.54
-3 7 1 208.89 5.16
-3 -7 1 208.31 5.18
-3 7 1 207.16 4.85
3 -7 -1 203.52 4.85
3 7 -1 208.92 4.78
-3 7 1 206.2 5.06
-3 7 1 206.16 4.29
-3 7 0 32.69 1.05
-3 7 0 34.24 1.58
-3 -7 0 38.21 1.65
-3 7 -1 7.03 0.54
3 7 1 7.45 0.3
3 -7 1 10.08 0.95
-3 7 -1 8.2 0.85
-3 -7 -1 9.13 0.92
3 -7 2 4.64 0.79
-3 7 -2 4.6 0.71
-3 -7 -2 4.25 0.68
3 -7 2 4.22 0.47
3 -7 2 4.33 0.66
3 -7 3 259.67 5.35
-3 7 -3 239.75 6.07
-3 -7 -3 239.77 6.09
3 -7 3 263.44 6.32
3 -7 4 2.09 0.46
3 -7 4 3.01 0.74
3 -7 5 75.88 2.16
3 7 5 73.81 2.26
3 -7 5 72.77 2.71
3 7 6 5.26 0.67
3 -7 6 5.07 0.65
3 -7 6 5 0.83
3 -7 7 69.77 2.23
3 -7 7 67.91 2.65
3 -7 8 0.91 0.61
3 7 8 0.08 0.57
3 -7 9 15.52 1.12
3 7 9 13.11 0.99
3 -7 9 12.98 1.26
3 -7 10 0.44 0.69
3 -7 10 1.25 0.8
3 -7 11 7.12 1.05
3 -7 11 7.04 1.13
3 -7 12 -0.43 0.89
-3 -8 13 1.46 0.8
-3 -8 12 -0.19 0.76
-3 8 11 0.81 0.48
-3 -8 11 1.08 0.68
3 -8 -11 1 1.06
3 8 -11 0.81 0.9
3 -8 -10 9.05 0.82
-3 8 10 8.03 0.77
-3 -8 10 7.97 0.88
3 -8 -10 11.47 1.43
3 8 -10 9.81 1.32
3 -8 -9 5.98 0.81
-3 8 9 6.21 0.7
-3 -8 9 5.46 0.7
3 -8 -9 5.79 1.06
3 8 -9 6.72 1.11
3 8 -9 6.73 1.01
-3 8 8 1.83 0.56
3 8 -8 2.47 0.82
3 8 -8 2.15 0.78
-3 -8 8 0.97 0.54
3 -8 -8 2.1 0.85
-3 8 7 25.87 1.22
-3 -8 7 23.6 1.06
3 8 -7 23.36 1.53
3 -8 -7 24.03 1.68
3 8 -7 23.1 1.56
-3 8 6 86.43 2.6
-3 -8 6 88.28 2.26
3 8 -6 91.97 3.1
3 -8 -6 86.41 3.17
3 8 -6 88.57 3.1
-3 8 5 34.29 1.42
3 -8 -5 30.79 1.69
-3 8 5 36.74 1.53
3 8 -5 33.01 1.66
3 8 -4 14.81 0.73
-3 8 4 15.91 1.03
-3 -8 4 13.56 0.64
3 -8 -4 16.9 1.22
-3 8 4 16.98 1.04
3 8 -3 50.74 1.56
-3 8 3 47.7 1.85
-3 8 3 50.74 1.94
3 -8 -3 47.99 1.99
-3 8 3 51.19 1.52
-3 8 3 51.49 1.77
3 8 -2 128.5 3.15
-3 8 2 127.78 3.48
-3 8 2 131.07 3.45
-3 8 2 114.07 2.84
3 -8 -2 123.07 3.47
-3 8 2 132.93 3.17
3 8 -1 37.31 1.36
-3 8 1 40.14 1.59
-3 8 1 38.89 1.6
-3 -8 1 41.38 1.66
-3 8 1 41.33 1.48
-3 8 1 38.19 1.05
3 -8 -1 39.33 1.47
-3 8 0 84.18 2.63
-3 -8 0 83.91 2.65
-3 8 0 86.49 2.39
-3 8 0 84.41 1.99
3 8 0 74.34 1.58
-3 8 -1 151.98 3.46
3 8 1 155.65 3.11
3 -8 1 163.49 4.39
-3 8 -1 159.48 4.19
-3 -8 -1 156.83 4.21
-3 8 -2 142.35 3.93
3 -8 2 141.85 3.64
-3 8 -2 142.14 3.94
-3 -8 -2 141.71 3.95
3 -8 2 140.24 3.25
3 -8 2 140.32 4.05
-3 8 -3 23.88 1.38
-3 -8 -3 25.3 1.44
3 -8 3 25.37 1.5
3 -8 3 26.82 1.05
3 -8 4 210.63 5.57
3 -8 4 221.17 4.81
3 -8 5 53.83 1.75
3 -8 5 50.98 2.23
3 8 5 55.37 1.93
3 -8 6 11.22 0.84
3 -8 6 12.63 1.14
3 8 6 11.28 0.89
3 -8 7 0.25 0.51
3 -8 7 0.75 0.65
3 -8 8 26.05 1.35
3 -8 8 25.43 1.61
3 8 8 25.8 1.36
3 -8 9 15.95 1.15
3 8 9 14.39 1.02
3 -8 9 15.53 1.38
3 -8 10 1.97 0.75
3 -8 10 1.57 0.84
3 -8 11 2.07 0.83
3 -8 11 0.49 0.81
-3 -9 13 -0.1 0.76
-3 -9 12 8.46 1.03
-3 9 11 3.54 0.64
-3 -9 11 3.96 0.83
3 -9 -11 3.99 1.17
3 -9 -10 2.96 0.61
-3 9 10 3.21 0.61
-3 -9 10 3.48 0.72
3 -9 -10 1.43 0.96
3 9 -10 3.41 1.02
3 -9 -9 0.82 0.56
3 9 -9 0.39 0.72
3 9 -9 1.19 0.78
-3 9 9 1.44 0.54
-3 -9 9 0.91 0.55
3 -9 -9 1.07 0.85
3 -9 -8 75.1 2.42
-3 9 8 70.79 2.3
-3 -9 8 74.63 2.21
3 9 -8 78.9 2.9
3 -9 -8 74.04 3.15
3 9 -8 78.3 3.08
-3 9 7 11.77 0.89
-3 -9 7 13.59 0.82
3 -9 -7 11.66 1.29
3 9 -7 11.74 1.22
3 9 -7 12.4 1.18
-3 9 6 1.47 0.54
-3 -9 6 0.15 0.4
3 -9 -6 1.51 0.73
3 9 -6 0.41 0.61
3 9 -6 -0.12 0.6
-3 9 5 27.18 1.34
3 9 -5 26.24 1.55
3 -9 -5 25.83 1.63
-3 9 5 30.72 1.45
-3 9 4 241.42 5.72
3 9 -4 247.07 5.06
-3 -9 4 231.01 4.97
3 -9 -4 240.42 6.13
3 9 -3 17.36 0.88
-3 9 3 17.38 1.09
-3 9 3 17.77 1.17
-3 9 3 17.95 0.9
3 -9 -3 15.22 1.17
-3 9 3 19.36 1.06
3 -9 -2 57.36 2.23
3 9 -2 58.22 1.82
-3 9 2 57.63 2.08
-3 9 2 57.27 2.08
-3 9 2 61.52 2.11
-3 9 2 50 1.59
3 -9 -2 54.33 2.1
-3 9 2 58.77 1.84
-3 9 1 44.53 1.82
-3 -9 1 44.04 1.82
-3 9 1 46.63 1.74
-3 9 1 43.6 1.37
3 -9 -1 47.49 2.01
-3 9 1 46.24 1.86
3 9 0 228.85 4.62
-3 9 0 244.24 5.01
-3 9 0 242.34 5.71
-3 -9 0 242.5 5.73
-3 9 0 239.28 5.01
-3 9 -1 1.19 0.57
-3 -9 -1 1.58 0.6
3 9 1 2.08 0.31
-3 9 -1 1.62 0.46
-3 9 -2 44.73 1.9
-3 9 -2 43.5 1.85
-3 -9 -2 41.84 1.85
3 9 2 42.21 1.18
3 -9 2 43.71 1.42
3 -9 2 44.71 1.97
-3 9 -2 43.63 1.42
3 -9 3 5.86 0.6
3 -9 3 6.15 0.88
-3 9 -3 5.36 0.73
-3 -9 -3 5.14 0.77
3 -9 4 122.22 3.05
3 -9 4 122.91 3.78
3 9 5 2.03 0.62
3 -9 5 2.57 0.57
3 -9 5 3.15 0.76
3 -9 6 59.54 1.96
3 9 6 57.42 2.03
3 -9 6 57.89 2.45
3 -9 7 7.13 0.75
3 -9 7 7.44 1.01
3 -9 8 1.54 0.63
3 -9 8 1.77 0.78
3 9 8 0.55 0.56
3 -9 9 9.34 0.96
3 -9 9 9.3 1.21
3 -9 10 10.77 1.06
3 -9 10 7.18 1.19
3 -9 11 0.05 0.71
3 -9 11 -0.07 0.86
-3 -10 13 5.6 0.97
-3 -10 12 2.12 0.84
-3 10 11 2.23 0.61
-3 -10 11 1.78 0.7
3 -10 -11 2.75 1.12
-3 10 10 1.13 0.56
3 10 -10 -0.52 0.87
3 -10 -10 0.17 0.47
-3 -10 10 0.19 0.59
3 -10 -10 -0.1 0.85
3 -10 -9 28.05 1.31
3 10 -9 26.96 1.7
-3 10 9 24.59 1.29
-3 -10 9 28.22 1.3
3 -10 -9 26.86 1.97
3 10 -9 30.7 1.94
3 -10 -8 1.58 0.65
3 10 -8 0.95 0.82
3 10 -8 2.81 0.82
-3 10 8 2.45 0.63
-3 -10 8 1.73 0.61
3 -10 -8 1.78 0.9
3 -10 -7 37.11 1.64
3 10 -7 35.49 1.87
-3 10 7 35.54 1.54
-3 -10 7 36.81 1.35
3 -10 -7 32.3 2
3 10 -7 35.24 1.96
3 -10 -6 0.73 0.54
3 10 -6 -0.3 0.58
3 10 -6 0.25 0.61
-3 10 6 0.75 0.48
-3 -10 6 0.22 0.37
3 -10 -6 0.36 0.68
3 10 -5 54.78 2.26
-3 10 5 52.64 1.94
3 10 -5 50.06 1.32
3 -10 -5 50.48 2.33
3 -10 -5 59.06 2.16
3 -10 -4 2.79 0.71
-3 10 4 2.82 0.69
-3 -10 4 1.86 0.45
3 -10 -4 2.24 0.73
-3 10 4 3.13 0.66
3 10 -4 2.11 0.46
3 -10 -3 172.84 4.57
-3 10 3 169.18 4.39
3 10 -3 169.34 3.88
3 -10 -3 160.61 4.58
-3 10 3 169.19 3.85
-3 10 3 173.72 4.2
-3 10 2 10.16 0.91
-3 10 2 10.47 0.91
-3 -10 2 11.37 0.94
-3 10 2 11.82 0.93
-3 10 2 9.37 0.69
3 -10 -2 12.39 1.04
-3 10 2 11.88 0.8
-3 10 1 26.52 1.36
-3 -10 1 30.26 1.44
-3 10 1 27.68 1.07
3 10 -1 25.09 0.78
-3 10 1 30.69 1.37
-3 10 1 26.4 1.4
3 -10 -1 30.92 1.58
-3 10 0 0.21 0.51
-3 -10 0 0.26 0.52
-3 10 0 0.25 0.42
3 10 0 0.18 0.26
-3 10 0 0.14 0.46
-3 10 0 0.35 0.36
3 10 1 333.93 6.63
-3 10 -1 346.72 7
-3 10 -1 363.58 7.34
-3 10 -1 342.03 7.64
-3 -10 -1 340.99 7.67
-3 10 -1 313.98 7.7
-3 10 -2 53.37 2.12
-3 10 -2 50.2 1.59
3 10 2 50.64 1.35
3 -10 2 51.04 1.61
3 -10 2 52.53 2.18
-3 10 -2 46.97 1.95
-3 -10 -2 48.81 2.01
-3 10 -3 11.61 1
-3 -10 -3 10.54 0.95
3 -10 3 11.6 1.08
3 -10 3 9.3 0.73
3 -10 4 0.14 0.44
3 -10 4 0.66 0.63
3 -10 5 138.32 3.43
3 10 5 133.38 3.7
3 -10 5 134.43 4.1
3 10 6 0.56 0.61
3 -10 6 1.01 0.54
3 -10 6 0.51 0.68
3 -10 7 12.74 0.96
3 -10 7 11.44 1.2
3 -10 8 2.1 0.66
3 10 8 1.51 0.62
3 -10 8 1.23 0.76
3 -10 9 26.32 1.41
3 -10 9 24.19 1.73
3 -10 10 2.22 0.81
3 -10 10 0.67 0.91
3 -10 11 8.99 1.09
3 -10 11 8.67 1.28
-3 -11 13 0.44 0.78
-3 -11 12 4.44 0.88
-3 11 11 2.67 0.66
-3 -11 11 3.87 0.79
3 -11 -11 2.4 1.11
-3 11 10 2.35 0.64
3 11 -10 1.56 0.93
3 11 -10 1.33 0.78
3 -11 -10 1.12 0.52
-3 -11 10 2.2 0.66
3 -11 -10 1.85 1.03
3 11 -9 7.73 1.19
3 11 -9 8.12 1.07
-3 11 9 7.72 0.83
-3 -11 9 8.19 0.82
3 -11 -9 7.92 1.32
3 -11 -9 7.34 0.78
3 -11 -8 28.31 1.37
3 11 -8 28.51 1.71
-3 11 8 26.92 1.36
-3 -11 8 28.28 1.24
3 -11 -8 27.64 1.98
3 11 -8 25.67 1.79
3 -11 -7 9.66 0.9
3 11 -7 12.34 1.17
-3 11 7 10.59 0.89
-3 -11 7 10.83 0.77
3 -11 -7 9.57 1.24
3 11 -7 10.32 1.15
3 -11 -6 0.71 0.59
3 11 -6 0.3 0.64
-3 11 6 1.2 0.55
-3 -11 6 0.21 0.45
3 -11 -6 0.15 0.67
3 11 -5 21.85 1.39
3 -11 -5 21.64 1.57
3 -11 -5 23.42 1.35
3 11 -5 20.01 0.72
-3 11 5 23.56 1.26
3 -11 -4 104.03 3.11
3 -11 -4 96.71 3.31
-3 11 4 97.55 2.49
-3 11 4 110.18 2.96
-3 11 4 100.99 2.94
3 11 -4 101.77 2.34
3 -11 -3 11.89 1.05
-3 11 3 11.98 0.98
3 11 -3 11.49 0.76
-3 11 3 9.62 0.76
-3 11 3 11.53 0.9
-3 11 2 25.17 1.4
-3 11 2 24.73 1.32
-3 -11 2 25.55 1.36
-3 11 2 28.24 1.41
-3 11 2 24.32 1.08
3 -11 -2 28.86 1.55
-3 11 2 26.11 1.19
-3 11 1 53.78 2.01
-3 -11 1 55.15 2.06
-3 11 1 63.12 2.07
3 11 -1 54.44 1.4
-3 11 1 53.75 1.68
3 -11 -1 60.55 2.32
-3 11 1 51.77 2.07
3 11 0 94.16 2.14
-3 11 0 103.38 2.52
-3 11 0 107.13 2.87
3 11 0 95.22 3
-3 11 0 93.47 2.88
-3 -11 0 93.43 2.91
-3 11 0 93.69 2.42
-3 11 -1 4.64 0.74
-3 11 -1 4.63 0.61
3 11 1 3.57 0.39
-3 -11 -1 3.74 0.65
-3 11 -1 3.62 0.65
-3 11 -1 4.24 0.59
-3 11 -1 4.45 0.42
-3 11 -2 130.9 3.74
-3 11 -2 123.74 3.04
3 11 2 119.87 2.73
3 -11 2 126.2 3.79
-3 11 -2 117.66 3.47
-3 -11 -2 121.06 3.54
-3 11 -3 98.61 3.17
3 -11 3 101.52 3.34
3 -11 3 97.99 2.63
3 -11 4 19.26 1.01
3 -11 4 21.44 1.44
3 11 5 0.88 0.63
3 -11 5 1.16 0.53
3 -11 5 0.39 0.61
3 -11 6 97.22 2.74
3 -11 6 88.59 3.26
3 11 6 93.04 2.91
3 -11 7 13.66 1.01
3 -11 7 15.3 1.33
3 -11 8 -0.04 0.57
3 -11 8 0.36 0.79
3 -11 9 1.05 0.66
3 -11 9 -0.3 0.79
3 -11 10 27.42 1.52
3 -11 10 18.15 1.67
3 -11 11 3.56 0.91
3 -11 11 4.04 1.1
-3 -12 12 2.64 0.8
-3 12 11 0.65 0.58
-3 -12 11 0.46 0.66
3 -12 -11 0.34 1.01
3 12 -10 16.38 1.42
-3 12 10 12.33 1.04
-3 -12 10 16.61 1.12
3 -12 -10 15.48 1.74
3 12 -10 17.53 1.62
3 -12 -9 15.71 1.01
-3 12 9 14.69 1.1
3 12 -9 16.44 1.39
-3 -12 9 17.5 1.06
3 -12 -9 17.73 1.77
3 12 -9 15.34 1.51
-3 12 8 2.55 0.64
3 12 -8 1.71 0.79
3 12 -8 2.65 0.87
3 -12 -8 1.75 0.58
-3 -12 8 2.68 0.6
3 -12 -8 1.19 0.86
3 12 -7 9.13 1.08
-3 12 7 9.44 0.88
-3 -12 7 8.91 0.76
3 12 -7 9.53 1.15
3 -12 -7 8.78 1.24
3 -12 -7 8.46 0.88
-3 12 6 75.37 2.55
-3 -12 6 82.47 2.21
3 12 -6 79.09 2.92
3 -12 -6 83.49 3.28
3 -12 -6 81.27 2.64
-3 12 5 17.86 1.15
3 12 -5 15.13 0.64
-3 -12 5 16.88 0.85
3 -12 -5 16.25 1.42
3 -12 -5 18.52 1.22
-3 12 4 3.21 0.68
-3 12 4 2.21 0.54
3 -12 -4 2.29 0.69
-3 12 4 2.61 0.62
3 12 -4 2.29 0.44
3 -12 -3 73.89 2.66
-3 12 3 74.99 2.55
3 12 -3 76.56 2.13
-3 12 3 77.31 2.16
-3 12 3 75.55 2.4
-3 12 2 221.79 5.55
-3 -12 2 228.88 5.48
-3 12 2 214.36 5.35
-3 12 2 220.59 4.95
-3 12 2 234.29 5.22
-3 12 2 236.42 5.53
3 -12 -2 220.19 5.68
-3 12 1 1.24 0.57
-3 12 1 0.99 0.49
-3 12 1 -0.04 0.51
-3 -12 1 0.5 0.54
-3 12 1 1.25 0.52
3 12 -1 0.26 0.34
3 -12 -1 1.6 0.71
-3 12 0 48.85 1.89
-3 -12 0 43.98 1.83
-3 12 0 53.48 1.86
3 12 0 49.25 1.3
-3 12 0 49.58 1.61
3 -12 0 46.44 2.07
-3 12 0 47.28 1.5
-3 12 -1 44.24 1.81
-3 -12 -1 44.16 1.83
-3 12 -1 47.15 1.68
3 12 1 41.29 1.21
-3 12 -1 44.45 1.51
-3 12 -1 46.01 1.97
-3 12 -1 41.88 1.27
3 -12 2 58.74 2.33
-3 12 -2 56.28 2.2
-3 12 -2 50.62 1.97
-3 -12 -2 51.19 2.01
-3 12 -2 55.22 1.7
3 12 2 52.67 1.4
-3 12 -2 57.38 1.75
3 12 2 52.19 2.01
-3 12 -3 12.31 1.08
3 -12 3 11.66 0.84
3 -12 3 12.73 1.2
-3 12 -3 12.15 0.87
3 -12 4 8.01 1.05
3 -12 4 8.29 0.77
3 -12 5 31.7 1.85
3 -12 5 36.34 1.49
3 12 6 12.85 1.08
3 -12 6 13.88 0.97
3 -12 6 14.02 1.31
3 12 6 13.87 1.15
3 -12 7 12.56 1
3 -12 7 12.13 1.26
3 -12 8 40.75 1.72
3 -12 8 35.85 2.09
3 -12 9 0.37 0.64
3 -12 9 0.08 0.83
3 -12 10 0.5 0.69
3 -12 10 0.48 0.88
3 -12 11 2.92 0.86
3 -12 11 4.12 1.18
-3 -13 12 0.46 0.7
-3 -13 11 10.89 1.01
3 -13 -11 8.73 1.51
-3 13 11 8.5 0.92
3 13 -10 1.48 0.97
3 13 -10 0.42 0.76
-3 13 10 0.94 0.63
-3 -13 10 0.27 0.66
3 -13 -10 1.75 1.12
-3 13 9 8.71 0.93
3 13 -9 11.72 1.22
3 13 -9 9.11 1.29
-3 -13 9 9.54 0.88
3 -13 -9 11.61 1.58
3 -13 -9 8.62 0.84
-3 13 8 1.04 0.6
3 13 -8 0.4 0.64
3 13 -8 0.46 0.72
3 -13 -8 -0.11 0.53
-3 -13 8 -0.19 0.5
3 -13 -8 0.86 0.85
3 -13 -7 45.77 1.85
-3 13 7 44.38 1.88
3 13 -7 54.09 2.34
-3 -13 7 49.7 1.66
3 -13 -7 50.39 2.63
3 13 -7 48.04 2.34
3 13 -6 1.94 0.73
3 -13 -6 1.38 0.68
-3 -13 6 0.62 0.5
3 -13 -6 1.05 0.83
-3 13 6 2.27 0.65
-3 13 5 79.6 2.57
3 13 -5 68.68 1.75
-3 -13 5 77.49 2.06
3 -13 -5 81.26 2.62
3 -13 -4 0.6 0.59
-3 13 4 0.35 0.49
-3 13 4 0.51 0.49
3 13 -4 0.17 0.35
-3 13 4 0.09 0.56
3 -13 -3 19.82 1.3
-3 13 3 19.58 1.24
-3 13 3 19.89 1.03
-3 13 3 20.15 1.17
-3 13 2 3.64 0.72
-3 13 2 2.62 0.61
-3 13 2 2.54 0.61
-3 -13 2 3.76 0.7
-3 13 2 2.38 0.63
3 13 -2 2.02 0.46
3 -13 -2 3.11 0.79
-3 13 1 252.44 5.89
-3 -13 1 264.41 5.98
-3 13 1 273.87 6.04
3 13 -1 249 5.2
-3 13 1 237.12 5.51
-3 13 1 264.26 5.68
3 -13 -1 260.89 6.38
-3 -13 0 -0.63 0.52
-3 13 0 -0.16 0.53
-3 13 0 1.13 0.5
3 13 0 0.09 0.36
-3 13 0 0.19 0.5
3 -13 0 1.05 0.6
-3 13 -1 2.46 0.55
-3 13 -1 2.02 0.39
-3 13 -1 2.05 0.56
-3 -13 -1 2.37 0.59
3 13 1 1.7 0.38
-3 13 -1 1.34 0.53
-3 13 -1 1.67 0.58
3 -13 2 11.04 1.11
-3 13 -2 13.28 1.11
-3 13 -2 12.02 0.96
-3 -13 -2 11.14 0.95
-3 13 -2 12.5 0.85
-3 13 -2 9.94 0.5
3 13 2 10.32 0.62
-3 13 -2 12.13 0.82
-3 13 -3 268.56 6.56
-3 13 -3 265.26 5.83
3 -13 3 263.8 5.85
3 -13 3 252.83 6.63
3 -13 4 3.42 0.64
3 -13 4 3.99 0.89
3 13 4 4.44 0.81
-3 13 -4 4.05 0.78
3 -13 5 0.68 0.74
3 13 5 0.62 0.64
3 -13 5 0.8 0.54
3 -13 6 0.92 0.76
3 13 6 0.13 0.61
3 -13 6 0.26 0.54
3 13 6 0.46 0.67
3 -13 7 57.73 2.62
3 -13 7 58.76 2.11
3 -13 8 0.15 0.81
3 -13 8 0.43 0.61
3 -13 9 9.45 1.31
3 -13 9 12.27 1.1
3 -13 10 0.96 0.7
3 -13 10 0.74 0.94
3 -13 11 3.68 0.94
3 -13 11 5.3 1.3
-3 -14 12 3.2 0.8
3 14 -11 0.21 0.76
-3 -14 11 1.11 0.7
-3 14 11 1.19 0.66
-3 -14 10 11.41 0.99
3 14 -10 12.36 1.29
-3 14 10 9.86 1
3 14 -9 4.77 1.07
3 14 -9 4.99 0.98
-3 -14 9 5.25 0.74
-3 14 9 4.62 0.8
3 -14 -9 4.73 0.67
3 14 -8 1.08 0.73
3 14 -8 -0.39 0.75
3 -14 -8 0.11 0.54
-3 -14 8 0.29 0.55
-3 14 8 0.9 0.6
-3 -14 7 13.95 0.92
-3 14 7 14.04 1.09
3 14 -7 14.2 1.26
3 -14 -7 13.68 1.05
-3 -14 6 66.79 1.97
3 -14 -6 62.18 2.28
-3 14 6 62.14 2.3
-3 14 5 11.78 1
3 14 -5 9.19 0.54
3 -14 -5 12.1 1.05
-3 -14 5 10.96 0.78
-3 14 4 13.45 1.06
3 14 -4 13.31 0.75
-3 14 4 13.66 0.92
3 -14 -4 15.23 1.18
-3 14 3 33.14 1.63
-3 14 3 33.4 1.32
3 -14 -3 32.94 1.68
-3 14 3 33.7 1.52
-3 14 2 116.28 3.44
-3 14 2 104.56 3.08
-3 -14 2 112.55 3.2
3 14 -2 107.62 2.6
-3 14 2 107.27 2.85
-3 14 2 112.22 3.06
3 -14 -2 113.18 3.49
-3 14 1 5.17 0.66
-3 14 1 5.72 0.8
3 14 -1 4.59 0.49
-3 14 1 4.73 0.69
-3 -14 1 3.56 0.67
-3 14 1 4.22 0.65
3 -14 -1 4.67 0.83
3 14 0 36.9 1.15
-3 14 0 37.42 1.44
-3 14 0 38.37 1.59
3 -14 0 38.52 1.91
-3 14 0 36.47 1.59
-3 -14 0 35.46 1.61
-3 14 -1 26.83 1.38
-3 -14 -1 25.94 1.37
-3 14 -1 30.29 1.34
3 14 1 27.98 0.98
-3 14 -1 27.05 1.24
-3 14 -1 25.98 1.52
-3 14 -1 25.27 1
-3 14 -2 70.06 2.38
-3 -14 -2 65.43 2.34
3 14 2 69.53 1.82
-3 14 -2 74.27 2.17
-3 14 -2 70.25 2.62
-3 14 -2 60.84 1.68
-3 14 -2 73.92 2.15
-3 14 -3 5.55 0.91
3 -14 3 4.84 0.71
3 14 3 5.33 0.6
-3 14 -3 4.78 0.72
-3 14 -3 3.16 0.28
-3 14 -3 5.46 0.6
-3 14 -4 111.7 3.55
3 -14 4 108.82 3
3 -14 4 108.16 3.68
3 -14 5 34.74 1.97
3 -14 5 34.15 1.48
3 -14 6 2.16 0.65
3 -14 6 2.31 0.83
3 -14 7 0.04 0.61
3 -14 7 0.92 0.86
3 -14 8 59.23 2.76
3 -14 8 64.16 2.28
3 -14 9 2.85 0.79
3 -14 9 1.91 1.01
3 -14 10 0.51 0.68
3 -14 10 0.68 0.95
3 -14 11 0.53 0.98
-3 -15 12 2.86 0.83
3 15 -11 3.65 0.91
-3 15 11 2.54 0.74
-3 -15 11 3.73 0.77
3 15 -10 1.18 0.8
-3 -15 10 1.85 0.67
-3 15 10 1.32 0.7
3 15 -9 1.19 0.87
3 15 -9 0.98 0.79
3 -15 -9 1.26 0.56
-3 -15 9 1.52 0.64
-3 15 9 0.99 0.65
-3 15 8 21.66 1.35
-3 -15 8 21.92 1.15
3 15 -8 23.74 1.59
3 -15 -8 24.16 1.25
3 15 -8 22.78 1.72
-3 -15 7 20.64 1.1
3 15 -7 18.35 1.4
-3 15 7 19.34 1.28
3 -15 -7 18.29 1.18
-3 -15 6 -0.14 0.53
-3 15 6 1.05 0.6
3 -15 -6 0.97 0.61
-3 15 5 18.8 1.24
3 -15 -5 15.57 1.17
-3 -15 5 15.06 0.91
-3 15 4 140.43 4.05
-3 15 4 146.39 3.59
3 -15 -4 149.31 4.15
-3 15 3 20.7 1.32
-3 15 3 22.21 1.11
-3 15 3 20.06 1.15
-3 -15 3 22.09 1.23
3 -15 -3 23.36 1.45
-3 15 3 23.35 1.29
-3 15 2 13.65 1.1
-3 15 2 11.63 0.91
-3 -15 2 11.96 0.95
3 -15 -2 14.05 1.16
-3 15 2 12.51 0.93
3 15 -2 13.08 0.74
-3 15 2 13.14 0.89
-3 15 1 62.87 2.16
-3 -15 1 66.18 2.24
3 15 -1 64.49 1.76
-3 15 1 62.49 2.03
3 -15 -1 67.93 2.61
-3 15 1 69.34 2.11
-3 15 0 68.72 2.66
-3 15 0 75.74 2.43
-3 -15 0 74.52 2.45
-3 15 0 72.9 2.25
3 15 0 73.8 1.93
-3 15 0 76.04 2.17
3 -15 0 79.09 2.88
-3 15 0 79.73 2.47
-3 15 -1 1.27 0.64
-3 15 -1 0.81 0.5
-3 -15 -1 0.26 0.5
-3 15 -1 0.59 0.55
-3 15 -1 0.26 0.59
3 15 1 0.38 0.4
-3 15 -1 0.22 0.24
-3 15 -2 19.47 1.17
-3 -15 -2 16.66 1.12
-3 15 -2 19.44 1.1
3 15 2 18.17 0.83
-3 15 -2 18.89 1.34
-3 15 -2 14.21 0.7
-3 15 -2 18.42 1.02
3 -15 3 35.99 1.94
-3 15 -3 39.73 1.9
3 15 3 37.03 1.23
3 -15 3 35.24 1.46
-3 15 -3 33.43 1.27
-3 15 -4 16.71 1.28
3 -15 4 17.91 1.46
3 -15 4 17.58 1.09
3 -15 5 7.14 0.81
3 -15 5 8.16 1.13
3 -15 6 25.28 1.76
3 -15 6 27.57 1.4
3 -15 7 3.15 0.7
3 -15 7 4.67 1.11
3 -15 8 14.52 1.51
3 -15 8 14.62 1.14
3 -15 9 1.7 0.95
3 -15 9 3.31 0.81
3 -15 10 9.61 1.41
3 -15 10 9.7 1.08
3 -15 11 0.46 1
-3 -16 12 0.32 0.74
3 16 -11 0.36 0.75
-3 16 11 0.7 0.69
-3 -16 11 1.47 0.7
-3 -16 10 -0.32 0.64
3 16 -10 0.63 0.76
-3 -16 9 22.55 1.26
3 16 -9 25.68 1.7
3 16 -9 25.23 1.89
3 -16 -8 1.98 0.65
-3 -16 8 0.87 0.6
3 16 -8 1.5 0.77
3 16 -8 0.32 0.79
-3 -16 7 27.73 1.28
3 16 -7 27.42 1.69
-3 16 7 27.22 1.51
3 -16 -7 26.17 1.39
-3 -16 6 1.11 0.54
-3 16 6 1.46 0.64
3 -16 -6 1.7 0.66
-3 16 5 29.6 1.59
-3 -16 5 30.48 1.29
3 -16 -5 32.8 1.64
3 -16 -4 3.63 0.81
-3 16 4 4.24 0.77
-3 16 3 61.18 2.36
-3 16 3 56.37 2.03
-3 -16 3 59.37 2.13
-3 16 3 62.54 1.96
3 16 -3 60.24 1.79
-3 16 3 64.52 2.23
3 -16 -3 63.55 2.45
-3 16 2 1.31 0.63
-3 16 2 1.5 0.54
-3 16 2 0.46 0.48
-3 -16 2 1.13 0.55
-3 16 2 0.12 0.6
3 16 -2 0.96 0.43
3 -16 -2 1.2 0.65
-3 16 1 14.38 0.97
-3 -16 1 13.66 0.97
3 16 -1 12.9 0.74
-3 16 1 12.88 0.94
-3 16 1 14 0.93
3 -16 -1 14.22 1.24
3 -16 0 4.02 0.86
-3 16 0 3.26 0.77
-3 16 0 3.64 0.69
-3 16 0 3.44 0.62
-3 -16 0 2.87 0.62
-3 16 0 3.8 0.68
3 16 0 2.74 0.48
-3 16 0 2.83 0.54
-3 16 -1 153.7 3.78
3 16 1 147.77 3.34
-3 16 -1 146.36 3.8
-3 16 -1 147.76 3.91
-3 -16 -1 138.71 3.86
-3 16 -1 145.24 4.28
-3 16 -2 1.92 0.56
-3 16 -2 0.99 0.64
3 16 2 0.59 0.43
-3 16 -2 0.88 0.38
-3 16 -3 1.91 0.5
-3 16 -3 1.92 0.7
3 16 3 1.4 0.51
-3 16 -3 1.66 0.32
3 -16 3 2.33 0.8
-3 16 -4 11.62 1.13
3 -16 4 9.99 0.91
3 -16 4 11.3 1.25
3 -16 5 99.42 2.93
3 -16 5 93.31 3.51
3 -16 6 9 1.24
3 -16 6 8.65 0.93
3 -16 7 7.18 1.21
3 -16 7 7.9 0.93
3 -16 8 0.66 0.67
3 -16 8 0.68 0.89
3 -16 9 8.52 1.02
3 -16 9 7.31 1.34
3 -16 10 0.58 0.73
3 -16 10 0.36 1.04
-3 17 11 0.83 0.7
-3 -17 11 0.52 0.69
3 17 -11 0.14 0.72
-3 -17 10 1.25 0.66
3 17 -10 1.55 0.84
-3 -17 9 0.23 0.65
3 17 -9 0.5 0.77
3 17 -9 -0.52 0.9
3 17 -8 17.4 1.44
-3 -17 8 18.38 1.11
3 17 -8 17.68 1.57
3 -17 -8 17.61 1.13
-3 17 7 6 0.88
-3 -17 7 6.32 0.79
3 -17 -7 5.56 0.83
3 17 -7 5.27 0.95
-3 -17 6 1.22 0.58
3 -17 -6 1.9 0.71
-3 17 6 1.68 0.67
3 -17 -5 2.69 0.75
-3 17 5 3.38 0.76
-3 17 4 75.41 2.74
3 -17 -4 82.72 2.84
3 -17 -3 1 0.67
-3 17 3 1.57 0.56
-3 -17 3 1.73 0.58
3 17 -3 0.02 0.53
-3 17 3 1.96 0.67
3 17 -2 23.89 1.03
-3 17 2 24.21 1.28
3 -17 -2 22.71 1.51
-3 17 2 21.38 1.17
-3 -17 2 22.14 1.21
3 17 -1 7.41 0.64
-3 17 1 8.63 0.82
3 -17 -1 7.19 0.99
-3 17 1 8.06 0.78
-3 -17 1 7.41 0.76
-3 17 0 123.1 3.81
-3 17 0 121.65 3.36
-3 -17 0 123.16 3.39
3 17 0 119.56 2.88
3 -17 0 120.22 3.9
-3 17 0 118.35 3.14
-3 17 -1 4.93 0.84
-3 17 -1 5.94 0.78
-3 -17 -1 6.2 0.78
3 17 1 6.29 0.61
-3 17 -1 6.56 0.79
3 -17 1 5.68 0.98
-3 17 -1 6.03 0.64
-3 17 -2 88.27 2.47
3 17 2 91.23 2.13
3 -17 3 8.81 1.14
3 17 3 5.95 0.71
-3 17 -3 5.99 0.66
-3 17 -3 8.42 1.04
3 17 3 7.31 0.69
-3 17 -3 5.02 0.47
3 -17 4 22.05 1.6
-3 17 -4 22.11 1.5
-3 17 -4 16.78 0.86
3 -17 4 21.47 1.23
3 17 4 23.49 1.1
3 -17 5 1.77 0.7
3 -17 5 2.51 0.98
-3 17 -5 2.31 0.77
3 -17 6 74.67 3.18
3 -17 6 77.26 2.56
3 -17 7 1.15 0.69
3 -17 7 0.42 0.88
3 -17 8 0.19 0.71
3 -17 8 0.09 0.9
3 -17 9 -0.15 0.72
3 -17 9 0.36 1.07
3 -17 10 7.18 1.4
-3 -18 11 1.05 0.72
3 18 -11 2.29 0.87
-3 -18 10 4.7 0.82
3 18 -10 3.38 0.92
-3 -18 9 5.21 0.81
3 18 -9 6.4 1.1
3 18 -9 4.35 1.13
-3 -18 8 1.33 0.66
3 18 -8 2.35 0.82
3 -18 -8 1.19 0.63
3 -18 -7 11.57 1.01
-3 -18 7 11 0.94
-3 18 6 48.37 2.14
3 -18 -6 53.45 2.1
-3 -18 6 52.35 1.85
3 -18 -5 42.7 1.91
-3 18 5 36.63 1.87
3 -18 -4 15.46 1.24
-3 18 4 16.04 1.23
3 18 -3 45.87 1.57
-3 18 3 46.16 1.75
-3 -18 3 46.9 1.82
3 -18 -3 46.56 2.13
-3 18 3 44.57 2.06
3 18 -2 46.93 1.56
-3 18 2 45.5 1.76
-3 -18 2 48.42 1.82
3 -18 -2 47.19 2.19
-3 18 2 48.66 1.9
3 18 -1 7.3 0.71
-3 18 1 8.7 0.81
-3 -18 1 7.73 0.8
3 -18 -1 9.75 1.14
-3 18 1 7.17 0.8
-3 18 0 8.51 1.05
-3 18 0 9.61 0.87
-3 -18 0 8.6 0.84
3 18 0 8.03 0.69
3 -18 0 9.95 1.15
-3 18 0 9.74 0.85
-3 18 -1 51.27 2.29
-3 18 -1 49.54 1.91
-3 -18 -1 47.51 1.86
3 18 1 49 1.54
-3 18 -1 48.97 1.88
3 -18 1 53.13 2.41
-3 18 -1 47.72 1.66
3 18 2 74.5 2.03
-3 18 -2 67.04 2.25
-3 18 -2 78.54 2.93
-3 18 -3 6.54 1
3 18 3 4.63 0.67
3 -18 3 6.35 1.07
3 18 3 5.53 0.66
-3 18 -3 4.18 0.5
-3 18 -3 5.04 0.67
3 -18 4 15.04 1.42
-3 18 -4 15.73 1.35
3 -18 4 15.28 1.11
-3 18 -4 13.24 0.82
3 -18 5 32.52 1.6
3 -18 5 32.49 2.04
-3 18 -5 32 1.84
3 -18 6 19.13 1.27
3 -18 6 14.51 1.5
3 -18 7 3.14 1.07
3 -18 7 3.23 0.8
3 -18 8 10.05 1.45
3 -18 8 8.3 1.03
3 -18 9 1.22 1.02
3 -18 9 1.73 0.81
3 19 -11 5.4 1.05
-3 -19 11 7.18 0.98
3 19 -10 2.72 0.91
-3 -19 10 2.66 0.79
-3 -19 9 9.11 0.97
3 19 -9 9.09 1.21
-3 -19 8 -0.39 0.68
3 -19 -8 0.98 0.59
3 19 -8 1.15 0.75
-3 -19 7 13.75 1.05
3 -19 -7 14.29 1.14
-3 -19 6 -0.6 0.63
3 -19 -6 0.49 0.63
-3 19 6 0.35 0.68
-3 19 5 18.85 1.36
3 -19 -5 19.38 1.36
-3 19 4 0.45 0.5
-3 -19 4 0.77 0.54
-3 19 4 0.06 0.57
3 -19 -4 0.4 0.66
-3 -19 3 37.07 1.57
-3 19 3 37.06 1.53
-3 19 3 36.86 1.87
3 -19 -3 35.33 1.87
-3 19 2 3.64 0.63
-3 -19 2 3.49 0.67
3 19 -2 4.39 0.64
3 -19 -2 4.37 0.97
-3 19 1 108.03 3.03
-3 -19 1 107.33 3.03
3 19 -1 106.3 2.72
-3 19 1 100.67 3.03
3 -19 -1 107.8 3.63
3 -19 0 4.95 0.97
-3 19 0 4.8 0.96
-3 19 0 3.78 0.68
-3 -19 0 4.91 0.71
3 19 0 4.5 0.61
-3 19 0 4.19 0.68
-3 19 -1 1.07 0.68
-3 -19 -1 0.16 0.51
3 -19 1 1.67 0.84
3 19 1 0.21 0.51
-3 19 -1 1.56 0.51
3 -19 2 13.87 0.93
-3 19 -2 16.2 1.37
-3 19 -2 12.32 0.81
-3 19 -2 11.32 0.95
3 19 3 86.69 2.06
-3 19 -3 86.19 2.12
3 -19 4 2.22 0.74
3 -19 4 3.11 0.95
-3 19 -4 2.23 0.84
3 -19 5 3.35 0.81
3 -19 5 3.64 1.02
-3 19 -5 2.2 0.81
3 -19 6 3.54 1.05
3 -19 6 3.17 0.79
3 -19 7 16.7 1.73
3 -19 7 21.86 1.39
3 -19 8 2.04 0.81
3 -19 8 2.79 1.15
3 -19 9 2.19 0.83
-3 -20 11 -0.14 0.72
3 20 -10 10.46 1.3
-3 -20 10 10.55 1.11
-3 -20 9 0.93 0.71
3 20 -9 0.96 0.76
-3 -20 8 -0.73 0.73
3 20 -8 0.66 0.72
-3 -20 7 1.76 0.7
3 -20 -7 2.04 0.73
-3 20 6 9.21 1.05
3 -20 -6 9.6 1.03
3 -20 -5 -0.11 0.65
-3 20 5 0.12 0.69
-3 20 4 0.95 0.52
-3 -20 4 1.09 0.55
3 -20 -4 1.81 0.76
-3 20 4 1.24 0.67
-3 20 3 0.8 0.53
-3 -20 3 1.19 0.55
3 -20 -3 1.13 0.71
-3 20 3 0.44 0.64
3 -20 -2 94.36 3.31
-3 20 2 87.71 2.66
-3 -20 2 92.72 2.71
3 -20 -1 8.82 1.13
-3 20 1 7.34 1.05
-3 20 1 7.1 0.86
-3 20 1 7.03 0.83
-3 -20 1 8 0.83
-3 20 0 67.96 2.79
-3 20 0 73.51 2.37
-3 -20 0 63.76 2.2
3 -20 0 65.83 2.8
-3 20 0 67.3 2.24
3 -20 1 3.22 0.96
-3 20 -1 2.25 0.55
-3 20 -1 2.17 0.78
-3 20 -2 40.25 1.68
3 20 2 41.95 1.53
-3 20 -2 47.05 2.25
-3 20 -2 38.53 1.49
3 20 3 3.6 0.63
-3 20 -3 4.16 0.67
-3 20 -3 4.24 0.95
3 -20 4 46.17 2.49
-3 20 -4 50.63 2.41
3 -20 5 -0.34 0.68
3 -20 5 -0.09 0.89
-3 20 -5 0.37 0.7
3 -20 6 -0.54 0.98
3 -20 6 -0.35 0.76
3 -20 7 1.12 1.04
3 -20 7 0.46 0.76
3 -20 8 20.05 1.45
3 -20 8 20.82 1.94
-3 -21 10 0.23 0.71
3 21 -10 -0.15 0.78
-3 -21 9 1.91 0.79
3 21 -9 2.47 0.92
-3 -21 8 4.49 0.83
3 21 -8 3.46 0.92
-3 -21 7 23.26 1.35
3 -21 -7 20.74 1.38
-3 21 6 0.57 0.71
3 -21 -6 1.55 0.75
-3 21 5 24.72 1.25
-3 21 5 22.78 1.57
-3 21 4 21.74 1.19
-3 -21 4 25.39 1.29
-3 21 4 22.73 1.53
3 -21 -4 23.89 1.55
-3 21 3 10.3 0.87
-3 -21 3 11.84 0.91
3 -21 -3 12.48 1.24
-3 21 3 11.97 1.2
-3 21 2 3.22 0.66
-3 -21 2 3.68 0.63
3 -21 -2 3.94 0.95
3 -21 -1 40.36 2.13
-3 21 1 44.01 1.74
-3 -21 1 40.4 1.62
-3 21 1 36.3 2.02
-3 21 0 29.42 1.41
-3 -21 0 25.54 1.27
-3 21 0 23.68 1.64
3 -21 0 26.25 1.75
-3 21 0 22.77 1.32
3 -21 1 1.25 0.8
-3 21 -1 1.23 0.55
-3 21 -1 1.45 0.75
3 -21 2 7.69 1.26
-3 21 -2 7.82 1.11
3 21 2 7.3 0.7
-3 21 -3 34.87 2.04
3 -21 4 9.08 1.32
-3 21 -4 8.06 1.12
-3 21 -5 1.3 0.85
3 -21 5 0.8 0.7
3 -21 5 2.16 1.03
3 -21 6 2.63 0.85
3 -21 6 2.16 1.07
3 -21 7 10.49 1.15
3 -21 7 10.08 1.55
3 -21 8 1.86 0.84
-3 -22 10 -0.51 0.79
-3 -22 9 4.67 0.9
3 22 -9 3.04 0.94
-3 -22 8 1.05 0.76
3 22 -8 1.35 0.8
3 -22 -7 9.45 1.06
3 -22 -6 5.05 0.92
-3 22 6 6.14 0.99
-3 22 5 15.96 1.4
3 -22 -5 17.89 1.4
-3 -22 5 19.47 1.17
-3 22 5 18.82 1.12
-3 22 4 4.93 0.71
-3 -22 4 5.79 0.74
3 -22 -4 5.44 0.98
-3 22 4 5.53 1.01
-3 22 3 42.29 2.17
3 -22 -3 46.02 2.25
-3 22 3 49.15 1.77
-3 -22 3 45.4 1.72
3 -22 -2 9.08 1.18
-3 22 2 9.8 0.85
-3 -22 2 9.15 0.83
-3 22 1 12.61 1.26
3 -22 -1 15.75 1.46
-3 22 1 14.85 1.03
-3 -22 1 15.02 0.98
3 -22 0 12.51 1.38
-3 22 0 11.8 1.29
3 -22 1 61.58 2.82
-3 22 -1 60.11 2.68
3 -22 2 4.57 1.08
-3 22 -2 4.29 0.96
-3 22 -3 -0.47 0.84
3 -22 4 11.43 1.48
-3 22 -4 12.77 1.42
3 -22 5 41.22 2.54
-3 22 -5 54.29 2.56
3 -22 6 0.86 0.76
3 -22 6 1.54 1.08
3 -22 7 1.61 0.86
3 -22 7 4.08 1.25
3 -22 8 3.49 0.92
-3 -23 9 0.33 0.78
3 23 -9 1.87 0.94
-3 -23 8 13.49 1.18
3 23 -8 14.36 1.45
-3 23 6 1.75 0.8
3 -23 -6 1.26 0.76
-3 -23 5 2.84 0.66
3 -23 -5 1.87 0.82
-3 23 5 2.04 0.84
-3 23 4 29.16 1.8
3 -23 -4 29.61 1.82
-3 -23 4 31.75 1.4
-3 -23 3 2.51 0.6
3 -23 -3 2.71 0.95
3 -23 -2 7.57 1.14
-3 -23 2 6.98 0.74
3 -23 -1 0.54 0.78
-3 23 1 0.88 0.72
-3 23 1 0.77 0.56
-3 -23 1 1.09 0.49
3 -23 0 52.69 2.59
-3 23 0 47.08 2.39
3 -23 1 5.37 1.12
-3 23 -1 4.54 0.99
3 -23 2 37.35 2.28
-3 23 -2 35.79 2.12
-3 23 -3 0.49 0.87
3 -23 4 9.91 1.47
-3 23 -4 13.92 1.5
3 -23 5 2.32 1.11
-3 23 -5 2.32 0.98
3 -23 6 34.02 1.84
3 -23 6 31.21 2.34
3 -23 7 0.34 0.82
-3 -24 9 6.06 0.98
3 24 -8 -0.31 0.76
-3 -24 6 4.83 0.74
-3 24 6 5.2 1.03
3 -24 -6 5.77 0.99
-3 -24 5 15.67 1.04
-3 24 5 15.56 1.45
3 -24 -5 14.83 1.36
-3 -24 4 0.1 0.49
-3 24 4 -0.78 0.75
3 -24 -4 0.2 0.82
3 -24 -3 26.15 1.79
-3 -24 3 29.36 1.31
3 -24 -2 11.84 1.33
-3 -24 2 13.36 0.9
-3 24 1 1.13 0.84
-3 -24 1 1.21 0.47
3 -24 -1 1.26 0.82
3 -24 0 5.46 1.11
-3 24 0 4.48 1.07
3 -24 1 28.17 2.02
-3 24 -1 24.62 1.81
3 -24 2 5.41 1.19
-3 24 -2 6.06 1.14
-3 24 -3 2.71 0.97
-3 24 -4 2.69 1.01
3 -24 5 9.95 1.49
-3 24 -5 11.51 1.44
-3 24 -6 6.49 1.2
3 -25 -6 0.91 0.8
-3 25 6 2.21 0.86
-3 25 5 10.22 1.25
3 -25 -5 10.62 1.23
-3 25 4 10.72 1.27
3 -25 -4 10.99 1.3
-3 -25 3 3.64 0.59
3 -25 -3 5.27 1.05
-3 -25 2 2.48 0.53
-3 25 2 1.42 0.87
3 -25 -2 2.04 0.96
-3 25 1 17.26 1.53
3 -25 -1 23.55 1.84
-3 25 0 3.31 0.97
3 -25 0 2.07 0.99
-3 25 -1 4.49 1.07
3 -25 1 5.43 1.26
-3 25 -2 6.49 1.18
3 -25 2 6.3 1.31
-3 25 -3 30.54 2.06
3 -25 3 29.9 2.19
-3 25 -4 -0.18 0.87
-3 25 -5 0.44 0.94
-3 25 -6 17.14 1.69
-3 26 5 1.99 0.92
3 -26 -5 1.14 0.87
-3 26 4 2.3 0.92
3 -26 -4 1.85 0.92
3 -26 -3 -0.08 0.86
-3 26 2 17.4 1.53
3 -26 -2 18.12 1.69
-3 26 1 1.82 0.9
3 -26 -1 4.75 1.22
-3 26 0 6.94 1.19
3 -26 0 5.7 1.2
-3 26 -1 1.62 0.97
3 -26 1 0.46 0.95
-3 26 -2 14.43 1.58
3 -26 2 17.38 1.78
-3 26 -3 0.71 0.92
3 -26 3 0.8 1.05
-3 26 -4 29.64 2.14
-3 26 -5 6.48 1.29
3 -27 -5 10.97 1.31
3 -27 -4 4.6 1.06
3 -27 -3 3.44 1.04
-3 27 2 1.72 0.9
3 -27 -2 1.15 0.96
-3 27 1 39.94 2.28
3 -27 -1 43.5 2.51
-3 27 0 1.18 0.87
3 -27 0 1.18 1.08
-3 27 -1 1.13 0.93
3 -27 1 -1.05 1.11
-3 27 -2 0.18 0.93
3 -27 2 -0.6 1.01
-3 27 -3 15.13 1.65
3 -27 3 17.99 1.92
-3 27 -4 12.37 1.57
3 -28 -5 2.75 1.03
3 -28 -4 1.38 0.97
3 -28 -3 12.75 1.53
3 -28 -2 7.27 1.29
3 -28 -1 5.04 1.24
-3 28 0 5.23 1.16
3 -28 0 5.67 1.26
-3 28 -1 16.41 1.68
3 -28 1 18.85 1.91
3 -29 -4 9.04 1.32
3 -29 -3 0.17 1.02
3 -29 -2 0.27 0.96
3 -29 -1 3.82 1.17
3 -29 0 11.73 1.63
3 -30 -4 0.81 0.96
3 -30 -3 15.52 1.67
3 -30 -2 1.28 0.99
-4 0 10 0.47 0.66
4 0 -10 0.44 0.85
-4 0 9 -0.32 0.55
4 0 -9 0.81 0.82
4 0 -8 89.92 3.36
-4 0 8 85.23 2.34
4 0 -7 0.47 0.75
4 0 -6 11.5 1.15
-4 0 6 9.61 0.59
4 0 -5 -0.22 0.54
-4 0 5 -0.34 0.24
4 0 -4 91.91 2.97
4 0 -4 91.05 3.23
4 0 -3 0.4 0.57
4 0 -3 1.11 0.76
-4 0 2 16.13 1.42
4 0 -2 14.29 1.18
4 0 -2 17.81 1.06
4 0 -2 16.38 1.08
-4 0 1 -0.14 0.77
4 0 -1 -0.14 0.47
4 0 -1 -0.37 0.57
4 0 0 92.16 3.01
-4 0 0 89.58 3.35
4 0 0 100.65 2.63
-4 0 -1 1.26 0.83
4 0 1 0.28 0.45
4 0 1 0.76 0.62
4 0 2 100.45 3.06
-4 0 -2 95.05 3.52
4 0 2 102.58 2.32
-4 0 -3 1.71 0.73
4 0 3 0.22 0.52
4 0 4 34.55 1.05
4 0 4 40.06 1.64
4 0 5 0.92 0.55
4 0 5 -0.19 0.44
4 0 5 0.7 0.79
4 0 6 64.26 1.93
4 0 6 74.45 2.95
4 0 6 70.9 2.22
4 0 7 0.07 0.76
4 0 7 -0.26 0.53
4 0 8 0.34 0.77
4 0 8 -0.33 0.61
4 0 9 -0.07 0.77
-4 1 10 3.53 0.7
-4 -1 10 4.09 0.73
4 1 -10 5.98 1.16
4 -1 -10 2.88 1.01
4 -1 -9 9.41 1.27
4 1 -9 10.73 1.31
-4 1 9 8.33 0.8
-4 -1 9 8.3 0.8
-4 1 8 1.33 0.62
-4 -1 8 1.14 0.65
4 -1 -8 1.63 0.93
4 1 -8 0.3 0.81
-4 1 7 31.35 1.16
4 -1 -7 35.86 1.96
4 1 -7 33.3 1.9
-4 1 6 22.06 0.85
-4 -1 6 21.33 0.8
4 -1 -6 25.53 1.59
4 1 -6 22.04 1.48
-4 -1 5 9.75 0.32
-4 1 5 10.36 0.45
4 -1 -5 10.12 1.06
4 1 -5 9.6 1.04
4 1 -5 9.93 1.14
4 -1 -4 5.52 0.82
4 1 -4 5.88 0.89
4 1 -4 5.99 0.98
4 -1 -3 112.91 3.34
4 1 -3 118.61 3.4
4 -1 -3 116.8 3.7
4 1 -3 116.4 3.69
-4 1 2 27.08 1.78
-4 -1 2 23.4 1.69
4 -1 -2 24.46 1.5
4 1 -2 25.83 1.53
4 1 -2 27.99 1.28
4 -1 -2 25.82 1.32
4 1 -2 25.24 1.31
-4 1 1 2.27 0.86
-4 -1 1 2.75 0.88
4 -1 -1 2.27 0.56
4 1 -1 2.84 0.59
4 -1 -1 3.17 0.72
4 1 -1 2.95 0.69
-4 1 0 17.59 1.45
-4 -1 0 18.62 1.48
4 -1 0 20.47 1.03
4 1 0 19.69 1.02
4 1 0 19.74 1.29
4 -1 0 19.37 1.26
-4 1 -1 137.96 4.43
-4 -1 -1 134.42 4.41
4 1 1 144.38 3.41
4 1 1 135.84 3.95
4 -1 1 137.41 3.91
-4 1 -2 25.99 1.74
-4 -1 -2 25.56 1.71
4 -1 2 23.95 0.71
4 1 2 28.02 1.45
4 -1 2 29.18 1.45
4 1 2 29.23 1
-4 1 -3 14.2 1.33
-4 -1 -3 14.13 1.36
4 1 3 14.55 1.07
4 -1 3 16.59 1.09
4 -1 4 34.56 1.07
4 1 4 37.53 1.05
4 1 4 40.01 1.69
4 -1 4 38.97 1.62
4 -1 5 58.08 1.66
4 1 5 57.52 1.64
4 1 5 60.02 2.13
4 -1 5 66.54 2.13
4 -1 5 67.29 2.83
4 1 6 4.94 1.04
4 -1 6 3.77 0.98
4 1 6 2.58 0.57
4 -1 6 3.02 0.59
4 1 6 3.82 0.69
4 1 7 11.44 0.85
4 -1 7 11.2 0.83
4 -1 7 12.99 1.3
4 1 7 13.06 1.34
4 -1 8 3.39 0.69
4 1 8 4.61 0.99
4 -1 8 5.31 1.04
4 -1 9 11.94 1.29
4 1 9 14.43 1.36
-4 2 10 0.35 0.64
-4 -2 10 0.03 0.6
4 2 -10 0.71 0.9
4 -2 -10 0.35 0.86
4 -2 -9 8.81 1.21
4 2 -9 8.5 1.22
-4 -2 9 8.17 0.76
-4 2 9 9.56 0.84
4 2 -8 3.9 0.98
4 -2 -8 6.15 1.05
-4 -2 8 5.57 0.61
4 -2 -7 4.49 0.94
4 2 -7 5.54 0.94
4 2 -6 2.25 0.88
-4 -2 6 1.27 0.47
4 -2 -6 3.35 0.87
4 2 -6 2.61 0.89
4 2 -5 41.06 2.1
-4 2 5 38.37 1.07
-4 2 5 39.37 1.05
4 -2 -5 37.7 1.88
4 2 -5 40.88 1.96
4 -2 -4 40.12 1.85
4 2 -4 41.39 1.89
4 2 -4 39.75 2.01
4 -2 -3 5.09 0.78
4 2 -3 5.34 0.8
4 2 -3 4.91 0.89
-4 2 2 29.74 1.84
4 2 -2 29.66 1.33
4 2 -2 25.88 1.34
4 -2 -2 26.48 1.38
4 2 -2 25.02 1.53
4 -2 -2 24.27 1.53
4 2 -1 135.1 4
4 -2 -1 135.1 3.97
4 2 -1 139.91 3.59
4 -2 -1 139.67 3.59
-4 2 1 136 4.3
4 2 0 14.22 1.13
4 -2 0 13.75 1.09
-4 2 0 13.89 1.31
4 2 0 15.29 0.91
4 -2 0 16.23 0.94
-4 2 -1 0.07 0.76
4 -2 1 0.04 0.43
4 2 1 -0.05 0.52
4 2 1 0.4 0.4
4 -2 1 1.04 0.59
4 2 2 47.7 1.95
4 -2 2 47.14 1.88
4 2 2 46.54 1.42
-4 2 -2 42.57 2.21
4 2 3 84.36 2.62
4 -2 3 87.9 2.6
-4 2 -3 77.58 3.05
4 2 4 7.4 0.82
4 -2 4 7.46 0.79
4 -2 4 8.2 1.2
4 2 4 6.44 0.48
4 -2 4 6.21 0.51
4 2 5 17.68 1.12
4 -2 5 17.51 1.51
4 -2 5 15.32 0.79
4 2 5 14.45 0.78
4 -2 6 27.91 1.14
4 2 6 27.36 1.14
4 2 6 30.92 1.94
4 -2 6 29.29 1.86
4 2 6 30.17 1.44
4 2 7 15.53 0.92
4 -2 7 16.25 0.97
4 2 7 17.02 1.43
4 -2 7 18.44 1.47
4 2 8 2.09 0.84
4 -2 8 1.06 0.84
4 -2 8 0.5 0.57
4 -2 9 19.33 1.54
4 2 9 18.22 1.47
-4 3 11 0.12 0.68
-4 -3 10 18.05 1.11
4 3 -10 21.34 1.78
4 -3 -10 19.91 1.75
4 3 -9 -0.25 0.76
4 -3 -9 -0.41 0.8
-4 -3 9 0.08 0.53
4 3 -8 1.57 0.81
4 -3 -8 0.82 0.73
-4 -3 8 0.2 0.51
4 -3 -7 2.47 0.82
4 3 -7 3.73 0.94
-4 -3 6 98.72 2.16
4 -3 -6 94.86 3.34
4 3 -6 93.24 3.33
4 3 -5 1.84 0.79
4 3 -5 1.53 0.79
-4 3 5 1.58 0.45
4 -3 -5 2.27 0.75
4 -3 -4 15.48 1.21
4 3 -4 16.65 1.24
4 3 -4 17.74 1.38
-4 3 4 16.84 0.48
-4 3 4 16.08 0.47
4 3 -3 3.4 0.61
4 -3 -3 2.82 0.67
4 3 -3 2.81 0.67
4 3 -3 2.48 0.74
-4 3 2 94.24 3.41
4 3 -2 92.94 3.18
4 3 -2 97.89 2.69
4 3 -2 90.38 2.8
4 -3 -2 93.21 2.85
-4 3 1 2.89 0.94
4 -3 -1 1.75 0.65
4 3 -1 1.71 0.72
4 3 -1 2.21 0.61
-4 3 0 60.24 2.62
4 3 0 57.58 2.32
4 3 0 55.64 1.89
-4 3 -1 2.83 0.86
4 3 1 1.84 0.62
4 3 1 3.16 0.5
4 -3 1 2.84 0.47
4 3 2 51.21 2.05
-4 3 -2 51.41 2.4
4 3 2 49.77 1.52
4 3 3 3 0.69
4 3 3 2.48 0.4
-4 3 -3 3.6 0.9
4 -3 4 40.35 1.11
4 3 4 41.3 0.99
4 -3 4 47.97 2.33
4 3 4 40.77 1.67
4 -3 5 5.72 0.57
4 3 5 5.69 0.76
4 3 5 4.1 0.55
4 -3 6 4.53 0.96
4 3 6 4.88 1.04
4 3 6 5.06 0.79
4 -3 6 2.99 0.57
4 3 6 4.02 0.59
4 -3 7 -0.62 0.51
4 3 7 -0.06 0.54
4 -3 7 -0.14 0.74
4 3 7 0.69 0.83
4 -3 8 30.93 1.38
4 3 8 31.99 1.86
4 -3 8 31.67 1.91
4 -3 9 0.14 0.8
4 3 9 0.43 0.81
-4 -4 10 -0.03 0.65
4 4 -10 1.24 0.96
4 -4 -10 0.81 0.99
4 -4 -9 10.53 1.37
4 4 -9 12.25 1.35
-4 -4 9 11.07 0.86
-4 -4 8 4.29 0.56
4 -4 -8 3.12 0.87
4 -4 -7 12.06 1.26
4 4 -7 14.95 1.39
4 4 -6 1.29 0.81
4 -4 -6 1.97 0.82
-4 -4 6 0.94 0.51
4 4 -5 88.29 3.24
-4 4 5 85.64 2.07
4 4 -5 88.68 3.1
4 -4 -5 87.97 3.06
-4 4 4 15.49 0.55
4 4 -4 14.27 1.18
4 -4 -4 14.74 1.19
4 4 -4 14.47 1.29
-4 4 3 13.83 1.28
4 4 -3 10.85 1.13
4 4 -3 12.38 0.88
4 4 -3 9.95 0.97
4 -4 -3 10.33 0.98
4 4 -2 1.89 0.76
4 4 -2 1.34 0.59
-4 4 2 1.55 0.86
4 4 -2 1.51 0.66
4 -4 -2 1.11 0.66
-4 4 1 176.27 5.09
4 4 -1 167.42 4.37
4 4 -1 178.63 4.9
-4 4 0 17.08 1.45
4 4 0 16.09 1.23
4 -4 0 20.58 1.07
4 4 0 15 0.96
4 4 1 0.87 0.62
4 4 1 0.94 0.44
-4 4 -1 0.07 0.81
-4 4 -2 9.87 1.17
4 4 2 10.96 0.69
4 4 2 11.36 0.99
-4 4 -3 125.82 4.03
4 4 3 129.12 3.53
4 4 4 7.86 0.58
4 -4 4 7.75 0.58
4 -4 4 10.56 1.26
4 4 4 5.67 0.44
4 4 4 9.28 0.87
4 -4 5 28.68 1.11
4 4 5 28.05 1.06
4 -4 5 31.89 1.93
4 4 5 29.97 1.45
4 4 6 16.46 0.88
4 -4 6 18.12 0.94
4 4 6 19.38 1.17
4 -4 6 19.04 1.51
4 4 7 25.29 1.18
4 -4 7 26.29 1.2
4 4 7 29.03 1.8
4 -4 7 27.85 1.79
4 -4 8 0.45 0.6
4 -4 8 1.61 0.9
4 4 8 0.13 0.79
4 -4 9 4.38 1.04
4 -4 10 0.28 0.84
4 -5 -10 8.84 1.35
4 5 -10 9.59 1.34
-4 -5 10 7.67 0.83
4 5 -9 8.12 1.2
4 -5 -9 6.26 1.15
-4 -5 9 5.61 0.69
-4 5 8 1.11 0.56
-4 -5 8 0.55 0.5
4 5 -8 0.23 0.8
4 -5 -8 0.78 0.82
-4 5 7 27.93 1.31
4 5 -7 26.32 1.79
4 -5 -7 24.28 1.69
4 5 -7 24.25 1.7
-4 5 6 13.89 0.99
-4 -5 6 14.73 0.59
4 -5 -6 12.83 1.26
4 5 -6 13.17 1.28
4 5 -5 5.36 0.94
4 5 -5 7.72 1.08
-4 5 5 6.45 0.59
4 -5 -5 8.75 1.04
-4 5 5 9.4 0.86
-4 5 4 8.11 0.87
4 5 -4 7.36 1.07
-4 5 4 8.04 0.5
4 -5 -4 7.81 0.98
4 5 -4 7.33 0.98
4 5 -3 85.17 2.28
-4 5 3 78.72 2.95
-4 -5 3 75.34 2.94
4 5 -3 83.99 2.99
-4 5 3 69.86 1.57
4 -5 -3 80.76 2.71
4 5 -3 78.02 2.65
4 5 -2 66.51 2.12
-4 5 2 63.79 2.7
-4 -5 2 61.86 2.68
4 5 -2 61.96 2.57
4 -5 -2 67.1 2.36
4 5 -2 63.47 2.3
-4 5 1 2.21 0.86
-4 -5 1 2.09 0.89
4 5 -1 1.55 0.74
4 5 -1 2.13 0.59
4 -5 -1 1.35 0.63
4 5 0 78.33 2.85
-4 5 0 83.91 3.15
-4 -5 0 81.9 3.12
4 5 0 76.24 2.43
-4 5 -1 112.74 3.75
-4 -5 -1 110.1 3.71
4 5 1 102.53 3.31
4 5 2 39.51 1.8
-4 5 -2 39.27 2.11
-4 -5 -2 43.26 2.18
4 -5 2 46.41 2.32
-4 5 -3 4.75 0.93
-4 -5 -3 3.82 0.87
4 -5 4 42.65 1.34
4 5 4 43.51 1.19
4 -5 4 50.04 2.4
4 5 5 45.78 1.38
4 -5 5 44.56 1.46
4 -5 5 50.9 2.41
4 -5 6 0.66 0.79
4 -5 6 1.34 0.49
4 5 6 0.59 0.51
4 5 7 7.96 1.15
4 -5 7 7.28 1.13
4 -5 7 7.18 0.76
4 5 8 11.82 1.29
4 -5 8 11.39 1.32
4 -5 8 9.77 0.89
4 -5 9 8.34 1.23
4 -5 10 0.14 0.83
4 -6 -10 0.28 0.85
4 6 -10 0.9 0.85
-4 6 9 0.17 0.49
-4 -6 9 -0.51 0.6
4 6 -9 -0.17 0.85
4 -6 -9 0.86 0.91
-4 6 8 32.92 1.46
-4 -6 8 33.5 1.21
4 -6 -8 31.55 2.02
4 6 -8 34.89 2.11
4 6 -8 32.94 2.03
-4 6 7 3.08 0.69
4 -6 -7 3.02 0.94
4 6 -7 1.25 0.87
4 6 -7 2.38 0.9
-4 6 6 0.39 0.53
-4 -6 6 -0.21 0.32
4 -6 -6 -0.14 0.74
4 6 -6 0.34 0.64
-4 6 5 4.43 0.73
4 6 -5 3.84 0.88
4 6 -5 3.67 0.86
-4 6 5 3.18 0.5
4 -6 -5 2.67 0.82
4 6 -4 144.09 3.28
-4 6 4 140.57 3.77
-4 6 4 126.17 2.89
4 6 -4 126.89 4.16
4 -6 -4 139.61 4.07
4 6 -4 129.43 3.93
4 6 -3 5.36 0.93
4 6 -3 5.47 0.87
-4 6 3 5.34 0.42
-4 6 3 5.59 0.96
-4 -6 3 6.36 1.01
4 -6 -3 6.54 0.95
4 6 -3 5.94 0.73
-4 6 3 7.36 0.87
4 6 -2 65.67 2.07
-4 6 2 62.01 2.6
-4 -6 2 64.55 2.64
4 6 -2 62.78 2.54
-4 6 2 53.97 1.3
4 -6 -2 69.31 2.37
4 6 -2 61.23 2.23
-4 6 1 9.99 1.16
-4 -6 1 10.92 1.18
4 -6 -1 11.02 0.96
4 6 -1 12.51 1.14
4 6 -1 10.08 0.89
-4 6 0 67.64 2.73
-4 -6 0 65.6 2.7
4 6 0 63.43 2.49
-4 6 -1 2.64 0.89
-4 -6 -1 4.17 0.95
-4 6 -2 38.86 2.07
-4 -6 -2 35.21 1.97
4 -6 3 2.11 0.9
-4 6 -3 3.11 0.85
-4 -6 -3 2.06 0.81
4 6 4 23.19 0.8
4 -6 4 25.66 1.76
4 -6 4 23.1 0.96
4 -6 5 0.98 0.51
4 6 5 0.6 0.45
4 -6 5 2.07 0.91
4 -6 6 31.93 1.29
4 6 6 30.84 1.22
4 -6 6 34.26 1.98
4 -6 7 2.33 0.58
4 6 7 2.59 0.93
4 -6 7 2.94 0.92
4 -6 8 0.43 0.55
4 6 8 -0.25 0.77
4 -6 8 0.38 0.8
4 -6 9 5.02 1.06
4 -6 10 12.19 1.4
4 -7 -10 0.67 0.87
4 7 -10 0.27 0.87
-4 7 9 6.28 0.77
-4 -7 9 6.56 0.72
4 -7 -9 6.04 1.16
4 7 -9 7.41 1.21
-4 7 8 1.86 0.64
-4 -7 8 1.33 0.55
4 -7 -8 0.82 0.84
4 7 -8 0.64 0.93
4 7 -8 1.34 0.89
-4 7 7 31.65 1.5
4 -7 -7 25.99 1.82
4 7 -7 29.88 1.9
4 7 -7 32 1.94
-4 7 6 4.32 0.73
-4 -7 6 3.98 0.41
4 -7 -6 4.26 0.89
4 7 -6 3.11 0.84
-4 7 5 23.4 1.34
-4 7 5 22.28 0.94
4 -7 -5 23.6 1.58
4 7 -5 20.81 1.49
4 7 -5 23.92 1.69
-4 7 4 1.95 0.68
4 7 -4 1.59 0.59
4 7 -4 0.61 0.82
4 7 -4 0.58 0.74
-4 7 4 0.66 0.47
4 -7 -4 2.77 0.81
4 7 -3 86 2.41
-4 7 3 87.66 2.85
-4 7 3 84.39 3.07
-4 -7 3 86.6 3.15
4 7 -3 80.96 3.07
-4 7 3 83.2 1.95
4 -7 -3 86.82 2.97
4 7 -3 75.75 2.8
-4 7 2 17.33 1.21
4 7 -2 14.55 1.02
-4 7 2 15.79 1.37
-4 -7 2 16.61 1.4
4 7 -2 14.08 1.26
4 -7 -2 16.23 1.23
4 7 -2 15.56 1.14
-4 7 2 13.28 0.59
-4 7 1 4.6 0.95
-4 -7 1 5.92 0.99
4 -7 -1 5.09 0.78
4 7 -1 5.15 0.87
-4 7 0 0.76 0.76
-4 -7 0 0.45 0.7
-4 7 -1 152.14 4.6
-4 -7 -1 147.69 4.55
4 -7 2 2.57 0.92
-4 7 -2 1.67 0.8
-4 -7 -2 1.28 0.81
-4 7 -3 47.77 2.28
-4 -7 -3 44.13 2.21
4 -7 3 50.08 2.42
4 7 4 2.54 0.39
4 -7 4 2.23 0.48
4 -7 4 3.01 0.9
4 7 5 54.73 1.58
4 -7 5 54.07 1.71
4 -7 5 58.37 2.63
4 -7 6 0.54 0.52
4 -7 6 1.06 0.75
4 -7 7 15.7 0.99
4 -7 7 15.39 1.49
4 -7 8 1.84 0.96
4 7 8 1.87 0.86
4 -7 8 1.65 0.64
4 -7 9 10.92 1.36
4 -7 10 -0.08 0.85
4 -8 -10 0.79 0.98
4 8 -10 0.28 0.91
4 -8 -10 -0.59 0.77
-4 8 9 4.82 0.74
4 8 -9 5.79 1.17
-4 -8 9 4.69 0.67
4 -8 -9 4.5 1.12
-4 8 8 21.54 1.25
-4 -8 8 20.15 0.95
4 -8 -8 21.6 1.74
4 8 -8 24.77 1.84
4 8 -8 23.56 1.74
-4 8 7 7.8 0.88
4 8 -7 9.68 1.23
4 -8 -7 7.59 1.15
4 8 -7 7.94 1.13
-4 8 6 6.62 0.87
-4 -8 6 4.59 0.49
4 -8 -6 6.38 1.05
4 8 -6 4.86 1
-4 8 5 20.5 1.29
4 -8 -5 20.59 1.53
-4 8 5 19.71 0.93
4 8 -5 20.15 1.49
4 8 -4 42.5 1.45
-4 8 4 45.89 1.91
4 8 -4 41.48 2.15
-4 8 4 37.95 1.27
4 -8 -4 42.54 2.1
4 8 -4 39.67 1.98
4 8 -3 10.77 0.86
-4 8 3 12 1.06
-4 8 3 13.19 1.23
-4 -8 3 11.15 1.17
4 8 -3 11.77 1.21
-4 8 3 10.39 0.63
4 -8 -3 12.92 1.19
4 8 -3 9.84 1.04
-4 8 2 31.01 1.79
-4 -8 2 30.25 1.81
4 8 -2 34.31 1.87
4 -8 -2 36.32 1.8
-4 8 2 29.81 1
-4 8 2 34.69 1.71
4 8 -2 32.36 1.43
-4 8 1 63.14 1.62
-4 8 1 69.64 2.56
-4 8 1 70.58 2.7
-4 -8 1 70.8 2.73
-4 8 0 70.54 2.77
-4 -8 0 70.76 2.79
-4 8 -1 8.5 1.09
4 -8 1 10.54 1.2
-4 -8 -1 8.21 1.09
-4 8 -2 111.7 3.73
-4 -8 -2 111.45 3.75
4 -8 2 114.85 3.91
4 8 3 34.55 0.83
4 -8 3 39.72 2.14
-4 8 -3 34.45 1.9
-4 -8 -3 35.06 1.93
4 -8 4 8.45 0.7
4 8 4 8.41 0.54
4 -8 4 9.27 1.2
4 8 5 1.12 0.44
4 -8 5 0.6 0.5
4 -8 6 28.98 1.26
4 -8 6 28.56 1.91
4 -8 7 16.96 1.04
4 -8 7 15.27 1.48
4 8 8 0.49 0.79
4 -8 8 0.62 0.87
4 -8 8 0.77 0.6
4 -8 9 1.64 0.93
4 -8 10 5.21 1.22
4 -9 -10 12.84 1.61
4 9 -10 17.35 1.74
4 -9 -9 1.78 0.78
-4 9 9 2.93 0.69
-4 -9 9 2.35 0.58
4 -9 -9 2.44 1.06
4 9 -9 0.89 0.93
4 9 -9 3.45 0.99
4 -9 -8 0.73 0.71
-4 9 8 1.12 0.64
-4 -9 8 0.54 0.49
4 -9 -8 1.05 0.88
4 9 -8 0.33 0.83
4 9 -8 0.63 0.78
-4 9 7 6.86 0.87
4 -9 -7 6.39 1.14
4 9 -7 4.85 1.04
4 9 -7 4.56 0.97
-4 9 6 65.15 2.32
4 -9 -6 62.05 2.79
-4 -9 6 57.9 1.54
-4 9 6 60.93 1.82
4 9 -6 60.45 2.68
-4 9 5 5.04 0.81
4 9 -5 4.23 0.95
-4 9 5 4.46 0.61
4 -9 -5 2.68 0.95
-4 9 4 19.82 1.29
4 9 -4 15.36 1.41
-4 9 4 14.17 0.8
4 -9 -4 17.98 1.44
4 9 -4 18.45 1.38
-4 9 3 20.23 1.43
-4 -9 3 19.1 1.45
4 9 -3 19.03 1.46
-4 9 3 16.93 0.81
4 -9 -3 18.08 1.38
-4 9 3 20.82 1.36
4 9 -3 18.69 1.04
-4 9 2 96.95 3.23
4 9 -2 103.16 2.84
-4 9 2 97 3.3
-4 -9 2 99.66 3.38
-4 9 2 94.98 2.32
4 9 -2 97.68 3.4
4 -9 -2 105.58 3.33
4 -9 -2 102.03 3.57
4 -9 -1 2.48 0.92
-4 9 1 0.33 0.42
-4 9 1 1.74 0.81
-4 -9 1 1.1 0.8
-4 9 1 1.55 0.69
-4 9 0 31.95 1.75
-4 9 0 36.88 1.94
-4 -9 0 35.13 1.91
4 -9 1 4.86 1.01
-4 9 -1 3.84 0.87
-4 -9 -1 4.61 0.93
-4 9 -2 61.47 2.6
-4 -9 -2 62.9 2.63
4 -9 2 64.17 2.82
-4 9 -3 3.33 0.83
-4 -9 -3 2.55 0.85
4 -9 3 2.63 0.88
4 -9 4 48.55 2.39
4 -9 4 46.08 1.55
4 -9 5 7.96 0.74
4 -9 5 7.97 1.16
4 -9 6 1.92 0.62
4 -9 6 2.13 0.91
4 -9 7 8.76 1.27
4 -9 7 8.39 0.87
4 -9 8 15.04 1.53
4 -9 8 14.32 1.06
4 9 8 13.81 1.31
4 -9 9 0.24 0.96
4 -9 10 1.06 0.96
4 -10 -10 0.62 1.05
-4 10 9 8.62 0.95
4 -10 -9 9.4 1.42
4 -10 -9 8.11 1.01
4 10 -9 7.82 1.34
4 10 -9 8.69 1.23
4 -10 -8 0.72 0.71
4 10 -8 0.5 0.81
4 10 -8 0.47 0.75
-4 10 8 -0.42 0.63
-4 -10 8 0.22 0.45
4 -10 -8 -0.18 0.84
4 -10 -7 13.98 1.25
4 10 -7 17.49 1.5
-4 10 7 15.01 1.16
-4 -10 7 13.76 0.76
4 -10 -7 11.75 1.43
4 10 -7 13.76 1.43
4 10 -6 0.08 0.79
4 10 -6 1.03 0.86
4 -10 -6 1.18 0.84
4 -10 -6 2.14 0.95
-4 10 6 1.4 0.71
4 -10 -5 57.98 2.47
-4 10 5 54.1 2.19
-4 10 5 53.46 1.69
4 -10 -5 55.04 2.59
4 10 -5 57.13 2.52
4 -10 -4 4.37 0.94
-4 10 4 4.62 0.79
4 10 -4 3.09 0.9
4 10 -4 1.85 0.76
-4 10 4 2.18 0.52
4 -10 -4 2.13 0.84
-4 10 3 9.86 1.02
4 10 -3 7.89 0.77
-4 -10 3 9.36 1.11
-4 10 3 11.83 1.16
-4 10 3 8.36 0.67
4 10 -3 8.86 1.08
4 -10 -3 8.57 1.09
4 -10 -3 10.14 1.21
-4 10 2 1.68 0.72
4 10 -2 0.46 0.61
-4 10 2 0.87 0.73
-4 -10 2 0.18 0.69
-4 10 2 0.84 0.47
4 -10 -2 1.91 0.86
-4 10 1 141.35 3.26
-4 10 1 153.33 4.34
4 -10 -1 159.4 4.68
-4 10 1 145.12 4.29
-4 -10 1 147.99 4.35
-4 10 0 17.13 0.84
-4 10 0 19.39 1.39
-4 -10 0 18.7 1.4
-4 10 0 18.99 1.4
-4 10 -1 5.26 0.92
-4 -10 -1 4.5 0.9
4 -10 2 1.28 0.81
-4 10 -2 0.25 0.69
-4 -10 -2 -0.32 0.68
4 -10 3 98.44 3.56
-4 10 -3 93.63 3.29
-4 -10 -3 92.49 3.31
4 -10 4 0.38 0.53
4 -10 4 1.69 0.88
4 -10 5 9.87 0.82
4 -10 5 9.82 1.28
4 -10 6 0.16 0.57
4 -10 6 2.16 0.98
4 -10 7 23.77 1.82
4 -10 7 24.52 1.28
4 -10 8 3.67 1.06
4 -10 8 1.12 0.7
4 -10 9 12.83 1.49
4 -10 10 0.67 0.91
-4 11 9 1.4 0.66
4 -11 -9 2.4 1.1
4 -11 -9 2.54 0.79
4 11 -9 3.61 1.08
4 11 -9 2.03 0.88
4 -11 -8 0.32 0.72
-4 11 8 0.92 0.68
-4 -11 8 0.37 0.51
4 -11 -8 0.47 0.93
4 11 -8 -0.08 0.83
4 11 -8 -0.32 0.77
4 -11 -7 6.73 1.01
-4 11 7 4.94 0.85
-4 -11 7 4.63 0.58
4 -11 -7 5.65 1.19
4 11 -7 4.77 1.08
4 11 -7 5.44 1.06
4 -11 -6 36.13 1.88
-4 11 6 31.75 1.64
4 -11 -6 30.06 2.06
4 11 -6 33.17 1.98
4 11 -6 33.23 1.98
4 -11 -5 3.48 0.9
4 11 -5 3.65 0.96
-4 11 5 4.42 0.83
-4 11 5 4.08 0.67
4 -11 -5 4.93 1.06
-4 11 4 8.54 0.99
4 11 -4 7.81 1.12
-4 11 4 8.04 0.75
4 -11 -4 10.22 1.21
4 -11 -4 8.34 1.16
-4 11 3 21.37 1.46
-4 -11 3 20.87 1.5
4 11 -3 21.29 1.53
-4 11 3 16.68 0.9
-4 11 3 22.36 1.42
4 -11 -3 21.79 1.55
-4 11 2 43.56 1.4
-4 11 2 42.39 2.02
4 11 -2 43.27 1.69
4 -11 -2 46.75 2.26
-4 11 2 41.4 1.99
-4 -11 2 42.68 2.07
-4 11 1 3.39 0.83
-4 11 1 2.19 0.8
-4 -11 1 3.16 0.83
-4 11 1 2.55 0.53
4 -11 -1 4.16 0.97
-4 11 0 51.89 2.27
-4 -11 0 53.55 2.34
-4 11 0 54.17 2.35
-4 11 0 52.44 1.58
-4 11 -1 54.47 2.37
-4 -11 -1 59.47 2.49
4 -11 2 16.1 1.43
-4 11 -2 13.59 1.22
-4 -11 -2 14.16 1.29
4 -11 3 1.38 0.89
-4 -11 -3 1.15 0.71
4 -11 4 74.82 3.05
4 -11 4 67.94 2.09
4 -11 5 9.49 0.84
4 -11 5 10.6 1.29
4 -11 6 0.75 0.58
4 -11 6 -0.33 0.85
4 -11 7 0.52 0.64
4 -11 7 0.33 0.86
4 -11 8 23.49 1.35
4 -11 8 25.09 1.94
4 -11 9 3.46 1.13
4 12 -10 0.51 0.87
4 -12 -9 3.2 0.83
-4 12 9 2.04 0.74
4 -12 -9 3.79 1.2
4 12 -9 2.72 1.06
4 12 -9 2.46 0.94
4 -12 -8 20.24 1.44
-4 12 8 17.79 1.28
4 -12 -8 18.27 1.78
4 12 -8 20.9 1.76
4 12 -8 23.42 1.72
4 -12 -7 4.37 0.92
-4 12 7 4.45 0.81
-4 -12 7 3.76 0.59
4 12 -7 2.63 0.97
4 12 -7 3.74 1.05
4 -12 -7 4.01 1.13
4 12 -6 1.48 0.84
4 12 -6 1.21 0.85
-4 12 6 0.85 0.62
4 -12 -6 0.95 0.88
4 -12 -6 1.4 0.79
4 -12 -5 19.22 1.45
-4 12 5 19.14 1.33
-4 12 5 17.96 1.01
4 -12 -5 18.69 1.63
4 12 -5 20.74 1.58
-4 -12 4 77.45 2.83
-4 12 4 66.26 2.58
-4 12 4 71.96 2.08
-4 12 4 76.83 2.74
4 -12 -4 79.17 2.95
4 12 -4 75.49 3.02
-4 12 3 1.82 0.76
-4 12 3 2.43 0.79
-4 -12 3 1.03 0.75
-4 12 3 1.07 0.54
4 -12 -3 2.82 0.86
-4 12 2 24.01 1.05
-4 12 2 22.62 1.5
-4 12 2 21.52 1.43
-4 -12 2 22.95 1.52
4 -12 -2 25 1.7
-4 12 1 19.93 0.94
-4 12 1 21.24 1.45
-4 12 1 20.24 1.39
-4 -12 1 20.19 1.43
4 -12 -1 23.36 1.64
-4 12 0 24.25 1.07
-4 12 0 27.93 1.69
-4 12 0 24.35 1.54
-4 -12 0 24.33 1.57
4 -12 0 24.5 1.71
-4 12 -1 3.39 0.61
-4 12 -1 4.28 0.86
-4 -12 -1 3.69 0.87
-4 12 -2 10.66 1.09
-4 -12 -2 9.54 1.08
4 -12 2 8.86 1.22
4 -12 3 28.31 1.87
4 -12 4 13.2 1.41
4 -12 5 10.88 1.33
4 -12 5 9.12 0.85
4 -12 6 34.2 2.15
4 -12 6 40.59 1.64
4 -12 7 -0.04 0.65
4 -12 7 1.17 0.95
4 -12 8 0.17 0.67
4 -12 8 0.84 0.92
4 -12 9 5.99 1.27
4 13 -9 12.88 1.44
-4 13 9 10.88 1.1
4 -13 -9 10.77 1.12
4 13 -9 14.12 1.61
4 -13 -9 12.38 1.67
4 -13 -8 0.69 0.74
-4 13 8 1.1 0.74
4 -13 -8 1.61 1.08
4 13 -8 0.52 0.92
4 13 -8 1.14 0.86
4 -13 -7 24.31 1.53
-4 13 7 21.81 1.43
4 -13 -7 26.92 2.07
-4 -13 7 22.11 1.02
4 13 -7 25.06 1.83
4 13 -7 23.59 1.82
4 13 -6 0.08 0.79
4 13 -6 -0.08 0.77
-4 13 6 -0.38 0.63
4 -13 -6 0.92 0.72
-4 13 5 5.9 0.91
4 -13 -5 5.54 1
-4 13 4 2.85 0.8
-4 13 4 3.5 0.8
-4 -13 4 2.5 0.8
-4 13 4 1.48 0.61
4 -13 -4 2.04 0.91
-4 13 3 75.36 2.23
-4 13 3 94.03 3.11
4 -13 -3 88.8 3.23
-4 13 3 81.81 2.88
-4 -13 3 85.07 2.99
-4 13 2 0.06 0.63
-4 13 2 0.41 0.53
4 -13 -2 0.21 0.75
-4 13 2 0.59 0.65
-4 -13 2 0.69 0.67
-4 13 1 1.11 0.7
-4 13 1 0.83 0.53
4 -13 -1 1.82 0.76
-4 13 1 0.89 0.69
-4 -13 1 0.75 0.66
-4 13 0 6.03 0.94
-4 13 0 4.38 0.85
-4 -13 0 6.34 0.94
-4 13 0 4.28 0.65
4 -13 0 6.63 1.04
-4 13 -1 148.46 3.5
-4 13 -1 137.62 4.2
-4 -13 -1 145.6 4.31
4 -13 2 4.14 1.02
-4 -13 -2 1.78 0.78
-4 13 -2 2.74 0.81
4 -13 3 1.2 0.88
4 -13 4 0.49 0.88
4 -13 5 54.47 2.68
4 -13 5 50.52 1.85
4 -13 6 -0.3 0.65
4 -13 6 0.67 0.92
4 -13 7 12.28 1.49
4 -13 7 11.01 1.02
4 -13 8 1.11 0.73
4 -13 8 0.35 0.91
4 14 -9 2.72 0.96
-4 14 9 3.46 0.85
4 14 -8 18.45 1.64
-4 14 8 16.73 1.31
4 -14 -8 15.04 1.28
4 14 -8 14.95 1.62
4 -14 -7 2.01 0.83
-4 14 7 3.19 0.85
4 14 -7 3.33 1
4 14 -7 3 1.03
4 -14 -6 5.84 0.99
4 14 -6 6.36 1.1
4 14 -6 6.13 1.1
-4 14 6 3.47 0.85
-4 14 5 12.73 1.17
4 -14 -5 10.48 1.18
-4 14 4 36.4 1.46
-4 14 4 40.7 1.96
4 -14 -4 41.41 2.1
-4 14 4 37.49 1.84
-4 -14 4 45.39 2.05
-4 14 3 1.04 0.77
-4 14 3 0.74 0.64
-4 -14 3 1.15 0.72
-4 14 3 1.24 0.59
4 -14 -3 2.09 0.88
-4 14 2 13.48 0.92
-4 14 2 18.45 1.37
-4 14 2 14.06 1.17
-4 -14 2 15.7 1.27
4 -14 -2 14.42 1.37
-4 14 1 12.15 0.89
-4 14 1 15.51 1.31
4 -14 -1 13.53 1.33
-4 14 1 11.84 1.08
-4 -14 1 13.8 1.2
-4 14 0 42.59 1.54
4 -14 0 44.52 2.29
-4 14 0 38.72 1.91
-4 -14 0 40.59 1.99
-4 14 -1 3.63 0.7
-4 14 -1 2.62 0.81
-4 -14 -1 3.19 0.83
-4 14 -2 71.79 2.73
-4 -14 -2 71.67 2.77
-4 14 -2 80.41 3.05
4 -14 3 28.06 1.93
4 -14 4 2.59 0.97
4 -14 5 -0.25 0.83
4 -14 5 0.07 0.62
4 -14 6 49.96 2.66
4 -14 6 56.77 2.06
4 -14 7 2.92 0.8
4 -14 7 4.05 1.14
4 -14 8 0.22 0.71
4 -14 8 -0.98 1
-4 15 9 4.17 0.91
4 15 -9 5.9 1.15
-4 15 8 0.23 0.71
4 -15 -8 0.27 0.69
4 15 -8 0.08 0.8
4 15 -8 -0.27 0.89
-4 15 7 3.14 0.84
4 -15 -7 4.61 0.91
4 15 -7 3.71 1.01
4 15 -7 2.54 0.95
-4 15 6 42.57 2.03
4 -15 -6 39.37 2.05
4 15 -6 43.13 2.33
4 15 -6 45.67 2.38
4 15 -5 6.48 1.1
-4 15 5 7.61 1.02
4 -15 -5 8.01 1.09
-4 15 4 4.28 0.82
-4 -15 4 6.91 0.98
4 -15 -4 6.64 1.1
-4 15 4 5.19 0.93
-4 15 3 20.94 1.14
-4 -15 3 24.39 1.53
-4 15 3 22.38 1.41
4 -15 -3 26.86 1.77
-4 15 3 26.4 1.61
-4 15 2 34.05 1.85
-4 15 2 33.13 1.67
-4 -15 2 33.86 1.74
-4 15 2 30.69 1.35
-4 15 2 31.01 1.41
4 -15 -2 34.94 1.98
-4 15 1 0.88 0.77
-4 15 1 1.51 0.68
-4 -15 1 0.68 0.68
-4 15 1 1.11 0.63
4 -15 -1 1.29 0.85
4 -15 0 11.22 1.29
-4 15 0 10.05 1.07
-4 -15 0 10.32 1.08
-4 15 0 7.48 0.8
-4 15 -1 16.29 1.04
-4 15 -1 15.64 1.26
-4 -15 -1 17 1.33
-4 15 -2 10.78 1.2
-4 15 -2 9.01 1.06
-4 -15 -2 8.65 1.04
4 -15 3 4.43 1.13
4 -15 4 19.19 1.69
4 -15 5 4.47 1.13
4 -15 5 3.14 0.75
4 -15 6 12.77 1.49
4 -15 6 12.24 1.1
4 -15 7 5.42 1.24
4 -15 7 4.01 0.8
-4 16 9 5.55 1.01
4 16 -8 0.59 0.84
4 16 -8 0.18 0.9
-4 16 8 0.06 0.7
4 -16 -8 0.43 0.7
4 16 -7 7.03 1.18
4 16 -7 7.12 1.23
-4 16 7 7.19 1.03
4 -16 -7 7.99 1.08
4 16 -6 2.85 1.01
4 -16 -6 2.81 0.95
-4 16 6 2.88 0.85
-4 16 5 19.94 1.33
-4 -16 5 17.67 1.35
4 16 -5 20.48 1.59
-4 16 5 19.31 1.41
4 -16 -5 17.87 1.48
-4 16 4 0.79 0.66
-4 -16 4 0.76 0.66
-4 16 4 -0.13 0.65
4 -16 -4 0.56 0.81
-4 16 3 6.42 0.89
-4 -16 3 6.9 0.96
-4 16 3 6.96 1.03
4 -16 -3 6.99 1.12
-4 16 2 2.71 0.73
-4 -16 2 3.11 0.79
4 -16 -2 3.11 1
-4 16 2 3.08 0.84
-4 16 1 76.68 2.35
-4 16 1 81.34 3.06
4 -16 -1 80.88 3.21
-4 16 1 77.33 2.74
-4 -16 1 77.35 2.78
4 -16 0 1.83 0.91
-4 16 0 0.83 0.67
-4 -16 0 2.02 0.71
4 -16 1 0.49 0.87
-4 16 -1 -0.06 0.68
-4 -16 -1 0.12 0.65
-4 16 -2 8.78 1.16
-4 -16 -2 9.41 1.08
4 -16 3 66.57 3.02
4 -16 4 7.4 1.26
4 -16 5 9.23 1.34
4 -16 6 2.48 1.09
4 -16 6 0.04 0.73
4 -16 7 9.89 1.49
4 -16 7 8.77 1.04
-4 17 9 1.56 0.8
4 -17 -8 1 0.79
-4 17 8 1.23 0.79
4 17 -8 1.36 0.97
4 -17 -7 1.81 0.82
4 17 -7 0.92 0.83
4 17 -7 2.08 0.95
-4 17 7 1.44 0.79
4 17 -6 24.23 1.83
-4 17 6 23.94 1.61
4 -17 -6 22.79 1.6
-4 17 5 0.42 0.59
-4 -17 5 0.46 0.68
-4 17 5 0.51 0.71
4 -17 -5 1.48 0.83
-4 17 4 10.55 1.17
4 -17 -4 10.56 1.25
-4 17 4 8.51 0.98
-4 -17 4 9.08 1.05
-4 17 3 2.42 0.7
-4 -17 3 2.19 0.75
4 -17 -3 3.19 0.95
-4 17 3 3.26 0.86
-4 17 2 49.73 2.35
4 -17 -2 53.34 2.54
-4 17 2 48.35 2.06
-4 -17 2 52.03 2.18
-4 17 1 3.02 0.8
-4 -17 1 2.69 0.79
4 -17 -1 3.1 1
-4 17 1 3.71 0.91
4 -17 0 44.41 2.38
-4 17 0 42.59 1.98
-4 -17 0 45.18 2.06
-4 -17 -1 6.25 1
4 -17 1 8.21 1.24
-4 17 -1 6.44 1.06
-4 17 -1 5.84 0.93
-4 17 -2 15.3 1.41
4 -17 3 1.73 0.97
-4 17 -3 2.36 0.89
4 -17 4 57.24 2.83
4 -17 5 0.54 0.95
4 -17 6 0.37 0.96
4 -17 6 -0.41 0.75
4 -17 7 -0.85 0.83
-4 18 9 2.99 0.91
-4 18 8 11.99 1.27
-4 18 7 10.49 1.2
4 -18 -7 10.94 1.2
4 18 -7 9.35 1.3
4 18 -7 9.66 1.36
4 18 -6 4.1 1.01
4 -18 -6 5.85 1.04
-4 18 6 4.09 0.92
-4 18 5 13.97 1.34
4 -18 -5 16.22 1.46
-4 -18 5 16.14 1.32
-4 18 5 14.88 1.19
-4 18 4 17.26 1.41
4 -18 -4 17.11 1.49
-4 18 4 16.33 1.22
-4 -18 4 19.06 1.33
-4 18 3 2.15 0.71
-4 -18 3 3.53 0.79
-4 18 3 3.84 0.96
4 -18 -3 4.54 1.07
-4 18 2 3.57 0.77
-4 -18 2 4.12 0.83
4 -18 -2 3.7 1.03
-4 18 2 5.05 1.02
-4 18 1 25.34 1.73
4 -18 -1 27.48 1.9
-4 18 1 24.39 1.5
-4 -18 1 24.85 1.52
4 -18 0 37.26 2.24
-4 18 0 32.94 1.76
-4 -18 0 37.81 1.85
4 -18 1 4.69 1.09
-4 18 -1 4.34 1
-4 18 -1 2.95 0.82
-4 -18 -1 3.81 0.86
-4 18 -2 13.07 1.4
4 -18 3 16.86 1.66
-4 18 -3 17.02 1.52
4 -18 4 10.68 1.42
4 -18 5 3.19 1.13
4 -18 6 8.47 1.4
4 -18 6 6.79 0.99
4 -18 7 2.11 0.83
-4 19 8 0.4 0.79
4 19 -7 7.63 1.23
-4 19 7 6.03 1.04
4 -19 -7 6.41 1.03
4 19 -6 0.08 0.77
-4 19 6 0.62 0.63
-4 -19 6 0.69 0.7
-4 19 6 0.27 0.75
4 -19 -6 0.38 0.73
-4 19 5 11.52 1.09
-4 -19 5 11.31 1.17
4 -19 -5 13.99 1.39
-4 19 5 10.46 1.25
-4 19 4 2 0.72
-4 -19 4 2.46 0.77
-4 19 4 2.51 0.9
4 -19 -4 1.61 0.9
-4 19 3 40.83 1.86
-4 -19 3 43.67 1.97
4 -19 -3 46.96 2.38
-4 19 3 40.22 2.15
-4 19 2 1.27 0.72
-4 -19 2 2.73 0.8
4 -19 -2 2.4 0.96
-4 19 2 0.94 0.81
-4 19 1 -0.63 0.7
-4 -19 1 1.53 0.74
4 -19 -1 0.99 0.94
-4 19 1 0.3 0.76
-4 19 0 6.61 0.97
-4 -19 0 8.31 1
4 -19 0 7.54 1.29
4 -19 1 56.8 2.8
-4 19 -1 65.14 2.86
-4 19 -1 56.47 2.32
-4 -19 -1 55.75 2.29
-4 19 -2 1.83 0.9
-4 19 -3 1.67 0.93
4 -19 4 4.19 1.15
4 -19 5 15.35 1.71
-4 20 7 0.97 0.87
4 -20 -7 1.06 0.8
4 20 -6 -0.25 0.74
-4 20 6 1.09 0.67
-4 -20 6 0.9 0.73
4 -20 -6 0.51 0.86
-4 20 6 -0.42 0.8
-4 20 5 0.45 0.63
-4 -20 5 0.83 0.72
4 -20 -5 0.28 0.83
-4 20 5 0.64 0.77
-4 20 4 29.38 1.84
4 -20 -4 32.77 2
-4 20 4 26.97 1.52
-4 -20 4 31.65 1.66
-4 20 3 2.46 0.74
-4 -20 3 4.09 0.84
4 -20 -3 4.03 1.05
-4 20 3 2.41 0.95
-4 20 2 23.61 1.71
4 -20 -2 27.86 1.98
-4 20 2 25.04 1.47
-4 -20 2 26.28 1.53
-4 20 1 1.31 0.68
-4 -20 1 2.52 0.74
4 -20 -1 1 0.98
4 -20 0 23.41 1.86
-4 20 0 23.38 1.47
-4 -20 0 24.63 1.48
4 -20 1 3.98 1.14
-4 20 -1 2.11 0.97
-4 20 -2 35.25 2.18
-4 20 -3 -0.09 0.81
4 -20 4 0.57 0.93
-4 -21 6 7.91 1.05
4 -21 -6 6.38 1.06
-4 21 6 7.52 1.17
-4 -21 5 4.38 0.88
4 -21 -5 4.19 1.04
-4 21 5 5.05 1.06
-4 21 4 2.23 0.75
-4 -21 4 1.44 0.68
4 -21 -4 2.16 0.95
-4 21 4 1.71 0.89
-4 21 3 16.02 1.49
4 -21 -3 17.04 1.62
-4 21 3 14.07 1.14
-4 -21 3 15.88 1.25
-4 21 2 8.71 1
-4 21 2 10.16 1.29
4 -21 -2 12.43 1.48
-4 -21 2 11.79 1.11
-4 21 1 -0.05 0.72
-4 -21 1 -0.63 0.73
4 -21 -1 1.03 0.97
-4 21 0 4.92 0.93
-4 -21 0 3.48 0.81
4 -21 0 4.07 1.13
-4 21 -1 21.95 1.82
4 -21 1 22.31 1.89
4 -21 2 5.86 1.26
-4 21 -2 7.43 1.29
-4 21 -3 0.62 0.89
-4 -22 7 4.42 0.86
-4 -22 6 3.52 0.87
4 -22 -6 2.15 0.92
-4 22 5 16.14 1.51
4 -22 -5 16.5 1.51
-4 -22 5 17.57 1.31
-4 -22 4 2.48 0.78
4 -22 -4 2.24 0.97
-4 22 4 2.45 0.97
-4 -22 3 6.74 0.94
4 -22 -3 7.33 1.26
-4 22 3 5.92 1.15
-4 -22 2 3.88 0.86
4 -22 -2 4.6 1.16
-4 22 2 4.28 1.08
4 -22 -1 27.09 2.03
-4 -22 1 28.68 1.59
-4 22 0 1.62 1.02
4 -22 0 2.49 1.11
-4 -22 0 1.54 0.71
4 -22 1 -0.55 0.97
-4 22 -1 1.24 0.95
4 -22 2 10.74 1.53
-4 22 -2 9.57 1.38
-4 22 -3 32.31 2.18
4 -23 -6 8.44 1.2
-4 -23 5 0.54 0.66
4 -23 -5 1.5 0.92
-4 -23 4 2.65 0.75
4 -23 -4 2.14 0.95
-4 -23 3 0.44 0.6
-4 23 3 -1.04 0.9
4 -23 -3 0.65 0.87
4 -23 -2 22.22 1.88
-4 23 2 23.27 1.81
-4 -23 2 22.25 1.42
4 -23 -1 2.75 1.09
-4 -23 1 1.84 0.74
4 -23 0 21.49 1.91
-4 23 0 19.03 1.74
4 -23 1 -0.67 0.95
-4 23 -1 -0.27 0.84
4 -23 2 8.25 1.45
4 -24 -5 9.11 1.31
4 -24 -4 5.24 1.17
4 -24 -3 0.66 0.95
4 -24 -2 4.29 1.18
4 -24 -1 13.91 1.65
4 -24 0 4.09 1.19
4 -25 -5 1.76 0.97
4 -25 -4 0.87 1.03
4 -25 -3 9.16 1.37
4 -25 -2 0.72 1.02
4 -25 -1 3.1 1.15
4 -26 -5 -0.6 0.89
4 -26 -4 6.77 1.24
5 0 -8 3.33 1.03
5 0 -7 -0.3 0.81
5 0 -6 20.67 1.58
5 0 -5 0.77 0.8
-5 0 5 2.45 1
5 0 -4 8.19 1.04
-5 0 4 6.99 1.28
5 0 -3 -0.7 0.72
-5 0 3 -0.27 0.89
5 0 -2 40.07 2.08
5 0 -2 38.39 1.79
-5 0 2 33.39 2.21
-5 0 1 1 0.97
5 0 -1 1.09 0.78
5 0 -1 0.36 0.69
5 0 0 39 2.03
-5 0 0 40.44 2.43
-5 0 -1 0.85 0.94
5 0 1 0.06 0.66
-5 0 -2 14.42 1.63
5 0 2 15.6 1.31
-5 0 -3 2.04 1.01
5 0 3 1.08 0.71
5 0 4 54.36 2.32
5 0 5 0.11 1.16
5 0 6 1.49 1.21
5 0 7 1.87 1.08
5 0 8 8.38 1.38
5 1 -8 5.75 1.18
5 -1 -8 2.92 0.99
5 1 -7 2.29 0.95
5 -1 -7 1.96 0.94
5 1 -6 1.54 0.88
5 -1 -6 1.53 0.89
-5 1 5 28.22 1.99
-5 -1 5 27.72 2
5 -1 -5 32.3 1.81
5 1 -5 28.42 1.74
-5 1 4 7.13 1.28
-5 -1 4 9.29 1.4
5 -1 -4 7.78 1.05
5 1 -4 7.24 1
-5 1 3 0.27 0.97
-5 -1 3 1.25 1.01
5 1 -3 1.65 0.88
5 1 -3 0.37 0.68
5 -1 -3 1.09 0.74
-5 1 2 5.44 1.18
-5 -1 2 4.74 1.15
5 1 -2 6.36 1.07
5 1 -2 6.87 0.91
5 -1 -2 6.14 0.94
5 1 -1 48.38 2.31
-5 1 1 47.92 2.64
-5 -1 1 52.17 2.73
-5 -1 0 11.71 1.52
5 1 0 11.04 1.19
-5 1 0 11.71 1.51
-5 1 -1 7.16 1.26
-5 -1 -1 5.93 1.29
5 1 1 8.31 1.05
-5 1 -2 18.17 1.76
-5 -1 -2 16.83 1.75
5 1 2 20.2 1.44
-5 1 -3 35.98 2.29
-5 -1 -3 33.81 2.26
5 1 3 38.45 1.9
5 1 4 2.6 0.87
5 -1 4 2.85 1.34
5 1 5 14.82 1.87
5 -1 5 11.43 1.7
5 -1 6 7.61 1.45
5 1 6 7.55 1.51
5 -1 7 7.76 1.42
5 1 7 11.48 1.59
5 1 8 0.78 1.04
5 2 -8 0.5 0.94
5 -2 -8 0.65 0.91
5 2 -7 9.19 1.24
5 -2 -7 9.52 1.28
5 2 -6 10.79 1.27
5 -2 -6 8.87 1.19
-5 2 5 3.11 1.03
5 2 -5 2.62 0.88
5 -2 -5 1.62 0.8
-5 2 4 7.97 1.31
5 2 -4 9.58 1.24
5 2 -4 6.4 0.98
5 -2 -4 6.9 1.04
5 2 -3 44.67 2.29
5 -2 -3 46.8 2.1
5 2 -3 43.9 1.98
-5 2 3 41.62 2.43
-5 2 2 6.54 1.22
5 2 -2 6.63 1.03
5 2 -2 8.29 0.93
5 -2 -2 7.68 1.02
-5 2 1 -0.09 0.97
5 2 -1 0.48 0.76
5 2 -1 -0.64 0.66
-5 2 0 15.71 1.68
5 2 0 14.76 1.32
-5 2 -1 46.19 2.6
5 2 1 43.86 2.12
5 2 2 3.63 0.88
-5 2 -2 2.25 1.04
5 2 3 8.81 1.08
-5 2 -3 7.1 1.29
5 -2 4 22.59 2.1
5 2 4 18.41 1.4
5 -2 5 14.06 1.76
5 2 5 16.57 1.93
5 2 6 0.1 1.18
5 -2 6 1.4 1.16
5 2 7 13.99 1.71
5 -2 7 13.57 1.68
5 2 8 2.74 1.09
5 -3 -8 19.72 1.7
5 3 -8 22.39 1.78
5 -3 -7 0.08 0.86
5 3 -7 1.38 0.91
5 3 -6 4.73 1
5 -3 -6 4.72 1.02
-5 3 5 2.73 0.99
5 -3 -5 0.4 0.78
5 3 -5 0.9 0.73
5 3 -5 0.58 0.83
-5 3 4 28.06 2.05
5 3 -4 27.71 1.87
5 -3 -4 28.8 1.75
5 3 -4 27.94 1.64
-5 3 3 1.73 1.07
5 3 -3 1.97 0.8
5 -3 -3 0.41 0.87
5 3 -3 1.29 0.9
-5 3 2 24.84 1.92
5 3 -2 25.52 1.73
5 -3 -2 28.79 1.64
5 3 -2 22.45 1.37
-5 3 1 1.52 1.03
5 3 -1 0.78 0.6
5 3 -1 1.32 0.77
5 3 0 19.1 1.46
-5 3 0 22.13 1.86
-5 3 -1 3.43 1.16
5 3 1 4.1 0.94
-5 3 -2 22.75 1.92
5 3 2 23.36 1.54
5 3 3 1.95 0.8
-5 3 -3 3.19 1.07
5 -3 3 4.46 1.4
5 -3 4 4.67 1.44
5 3 4 3.3 0.86
5 -3 5 -0.21 1.13
5 3 6 31.06 2.34
5 -3 6 31.28 2.31
5 -3 7 1.24 1.16
5 3 7 0.09 1.01
5 3 8 6.61 1.29
5 -4 -8 0.84 1
5 4 -8 1.85 1.04
5 -4 -7 22.6 1.77
5 4 -7 20.52 1.71
5 -4 -6 4.75 1.06
5 4 -6 3.85 0.96
-5 4 5 2.62 1.02
-5 -4 5 3.47 1.07
5 -4 -5 2.4 0.92
5 4 -5 2.3 0.89
5 4 -5 4.2 1.06
-5 4 4 1.66 1.04
-5 -4 4 1.08 1.04
5 -4 -4 0.65 0.87
5 4 -4 0.84 0.81
5 4 -4 0.24 0.78
-5 4 3 54.43 2.76
-5 -4 3 49.44 2.7
5 4 -3 52.7 2.55
5 -4 -3 58.57 2.47
5 4 -3 53.24 2.23
-5 4 2 6.35 1.25
-5 -4 2 6.36 1.29
5 -4 -2 6.75 1.08
5 4 -2 5.07 0.89
5 4 -2 6.98 1.11
-5 4 1 0.09 0.97
-5 -4 1 1.87 1.07
5 4 -1 0.66 0.63
5 4 -1 0.42 0.77
-5 4 0 3.16 1.2
-5 -4 0 5.34 1.26
5 4 0 4.89 0.96
5 4 1 74.35 2.9
-5 -4 -1 69.5 3.29
-5 4 -2 2.56 1.07
-5 -4 -2 4.1 1.17
5 4 2 3.77 0.91
5 -4 2 6.5 1.47
5 4 3 18.96 1.43
-5 4 -3 19.02 1.74
-5 -4 -3 17.21 1.69
5 -4 4 11.68 1.7
5 4 4 9.37 1.13
5 -4 5 22.16 2.06
5 4 6 0.1 1.13
5 -4 6 1.98 1.25
5 -4 7 5.79 1.36
5 4 7 2.97 1.12
5 -5 -8 4.36 1.1
5 5 -8 5.81 1.13
5 -5 -7 -0.32 0.87
5 5 -7 1.81 0.92
5 -5 -6 2.49 0.99
5 5 -6 1.39 0.94
5 5 -6 2.3 0.99
-5 5 5 21.57 1.76
-5 -5 5 20.07 1.72
5 -5 -5 24 1.74
5 5 -5 20.59 1.55
5 5 -5 22.49 1.75
-5 5 4 19.31 1.74
-5 -5 4 19.04 1.75
5 5 -4 22.51 1.74
5 -5 -4 23.59 1.7
5 5 -4 20.77 1.5
-5 5 3 0.25 0.95
-5 -5 3 0.26 0.95
5 5 -3 -0.06 0.69
5 5 -3 1.4 0.89
5 -5 -3 -0.19 0.91
5 5 -2 28.72 1.87
-5 5 2 30.24 2.08
-5 -5 2 27.57 2.03
5 5 -2 27.11 1.53
5 5 -1 49.91 2.39
-5 5 1 49.22 2.62
-5 -5 1 46.46 2.57
5 5 -1 45.22 1.88
5 5 0 16.31 1.4
-5 5 0 16.84 1.7
-5 -5 0 13.63 1.52
-5 5 -1 3.05 1.12
-5 -5 -1 2.7 1.15
5 5 1 1.8 0.82
5 5 2 21.49 1.5
-5 5 -2 22.26 1.88
-5 -5 -2 18.95 1.77
5 5 3 32.3 1.82
-5 5 -3 31.75 2.14
-5 -5 -3 29.56 2.08
5 -5 4 -0.11 1.07
5 5 4 -0.12 0.7
5 -5 5 7.56 1.49
5 -5 6 7.05 1.44
5 5 6 8.67 1.53
5 5 7 7.24 1.36
5 -6 -8 0.17 0.91
5 6 -8 0.26 0.84
5 -6 -7 0.08 0.85
5 6 -7 1.86 0.99
5 6 -6 35.7 2.23
5 -6 -6 32.41 2.04
5 6 -6 32.67 2.01
-5 6 5 2.85 1.06
-5 -6 5 3.32 1.08
5 -6 -5 2.72 1.01
5 6 -5 2.84 0.97
5 6 -5 1.97 0.99
-5 6 4 18.72 1.66
-5 -6 4 21.2 1.8
5 6 -4 20.84 1.68
5 -6 -4 20.21 1.67
5 6 -4 21.7 1.54
-5 6 3 3.33 1.11
-5 -6 3 2.33 1.07
5 -6 -3 1.7 0.95
5 6 -3 1.83 0.77
5 6 -3 4.06 1.01
5 6 -2 23.42 1.76
-5 6 2 20.53 1.76
-5 -6 2 21.75 1.8
5 6 -2 20.43 1.36
5 6 -1 3.56 0.98
5 6 -1 2.22 0.76
-5 6 1 4.66 1.22
-5 -6 1 2.49 1.06
5 6 0 20.25 1.54
-5 6 0 16.09 1.65
-5 -6 0 17.09 1.68
5 6 0 17.53 1.14
-5 6 -1 0.7 0.97
-5 -6 -1 0.62 0.91
5 6 1 1.23 0.78
5 -6 1 2.49 1.26
-5 6 -2 9.41 1.4
-5 -6 -2 10.43 1.4
5 6 2 9.77 1.14
5 6 3 1 0.75
5 -6 3 2.31 1.24
-5 6 -3 0.09 0.86
-5 -6 -3 0.87 0.92
5 -6 4 30.69 2.31
5 6 4 22.41 1.55
5 -6 5 4.14 1.31
5 -6 6 1 1.18
5 6 7 5.4 1.31
5 -7 -8 1.27 1.03
5 -7 -7 4.12 1.12
5 7 -7 5.97 1.2
5 -7 -6 2.28 1.06
5 7 -6 1.15 0.95
5 7 -6 1.33 1.04
-5 7 5 27.6 1.92
-5 -7 5 28.12 2
5 7 -5 25.65 1.92
5 -7 -5 27.15 1.93
5 7 -5 27.39 1.81
-5 7 4 5.59 1.15
-5 -7 4 4.95 1.17
5 -7 -4 3.73 1.14
5 7 -4 5.19 1.04
5 7 -4 5.85 1.13
-5 7 3 3.24 1.05
-5 -7 3 2.2 0.98
5 -7 -3 0.86 0.98
5 7 -3 2.91 0.85
5 7 -3 1.15 0.89
5 7 -2 0.47 0.86
5 7 -2 0.75 0.73
-5 7 2 0.73 0.91
-5 -7 2 0.76 0.92
5 7 -1 56.5 2.62
-5 7 1 57 2.78
-5 -7 1 61.75 2.89
5 7 -1 56.69 2.2
-5 7 0 1.77 1.02
-5 -7 0 0.94 1.01
5 7 0 1.16 0.84
5 7 0 1.12 0.63
5 7 1 19.12 1.5
-5 7 -1 19.4 1.73
-5 -7 -1 17.96 1.71
-5 7 -2 0.78 0.93
-5 -7 -2 -0.52 0.97
5 -7 2 1.36 1.12
5 7 2 1.3 0.77
5 7 3 28.62 1.73
-5 7 -3 30.83 2.07
-5 -7 -3 29.7 2.03
5 -7 3 33.48 2.37
5 7 4 1.6 0.76
5 -7 4 3.09 1.3
5 7 5 9.29 1.11
5 -7 5 10.37 1.59
5 -7 6 0.2 1.1
5 7 7 9.41 1.39
5 -8 -9 1.47 0.92
5 -8 -8 1.67 1.06
5 -8 -7 5.82 1.22
5 8 -7 4.92 1.19
5 -8 -6 10.76 1.45
5 8 -6 11.58 1.38
5 8 -6 10.15 1.4
-5 8 5 3.63 1.02
-5 -8 5 4.62 1.11
5 -8 -5 2.93 1.14
5 8 -5 2.25 0.97
5 8 -5 2.97 1.02
-5 8 4 8.85 1.32
-5 -8 4 10.14 1.42
5 8 -4 10.75 1.27
5 -8 -4 12.79 1.53
5 8 -4 11.06 1.4
-5 8 3 22.14 1.75
-5 -8 3 18.37 1.69
5 8 -3 22.17 1.54
5 8 -3 22.42 1.75
-5 8 2 22.29 1.74
-5 -8 2 27.15 1.93
5 8 -2 24.18 1.79
5 -8 -2 25.65 2.06
5 8 -2 23.99 1.48
-5 8 1 2.27 1.01
-5 -8 1 3.23 0.98
5 -8 -1 3.75 1.21
5 8 -1 2.38 0.97
5 8 -1 2.41 0.78
-5 8 0 41.43 2.34
-5 -8 0 43.45 2.42
5 8 0 36.99 1.71
5 8 0 40.39 2.16
5 8 1 17.87 1.46
5 -8 1 24.11 2.03
-5 8 -1 19.6 1.69
-5 -8 -1 18.62 1.69
-5 8 -2 2.94 1.02
-5 -8 -2 2.89 1.04
5 -8 2 5.15 1.36
5 8 2 3.14 0.86
5 -8 3 1.65 1.19
5 8 3 1.34 0.77
-5 8 -3 1.51 0.94
-5 -8 -3 1.86 0.95
5 -8 4 23.3 2.04
5 8 4 14.64 1.3
5 8 5 11.33 1.22
5 -8 5 9.82 1.57
5 8 7 1.97 1.07
5 -9 -8 14.67 1.5
5 -9 -8 12.63 1.62
5 9 -7 0.17 0.9
5 -9 -7 1.37 1.11
5 -9 -7 1.41 1.02
5 9 -6 4.6 1.11
5 9 -6 4.25 1.19
5 -9 -6 2.75 1.13
5 -9 -6 4.83 1.11
-5 9 6 4.23 1
5 9 -5 3.99 1.03
5 9 -5 4.61 1.13
-5 9 5 4.73 1.06
-5 -9 5 6.33 1.21
5 -9 -5 4.08 1.14
5 -9 -5 5.08 1.14
5 9 -4 28.73 1.84
-5 9 4 26.8 1.91
-5 -9 4 30.19 2.03
5 9 -4 28.55 2.04
5 -9 -4 34.06 2.2
5 -9 -4 32.38 2.14
-5 9 3 2.22 0.99
-5 -9 3 1.29 0.98
5 -9 -3 2.78 1.16
5 9 -3 0.59 0.94
5 9 -3 1.43 0.88
-5 9 2 19.73 1.66
-5 -9 2 18.39 1.65
5 9 -2 19.84 1.67
5 -9 -2 20.24 1.88
5 9 -2 14.53 1.29
-5 9 1 3.62 1.06
-5 -9 1 3.34 1.04
5 -9 -1 4.14 1.2
5 9 -1 2.56 0.89
5 9 -1 1.88 0.72
5 9 0 19.75 1.58
-5 9 0 24.21 1.81
-5 -9 0 21.73 1.78
5 9 0 18.83 1.28
-5 9 -1 1.31 1.01
-5 -9 -1 1.17 0.98
5 -9 1 1.8 1.15
5 9 1 2.33 0.86
5 9 2 26.17 1.68
-5 9 -2 22.6 1.82
-5 -9 -2 27.5 1.94
5 -9 3 6.96 1.39
5 9 3 5.08 0.92
5 -9 4 1.83 1.16
5 9 4 2.52 0.77
5 -9 5 9.9 1.61
5 9 5 4.38 0.9
5 -10 -8 0.34 0.89
5 -10 -8 1.08 1.07
5 10 -7 15.07 1.68
5 -10 -7 14.16 1.67
5 -10 -7 13.73 1.48
5 10 -6 -0.81 0.92
5 -10 -6 0.64 1.09
5 -10 -6 0.15 0.86
-5 10 6 2.23 0.89
-5 -10 6 2.56 0.93
5 10 -5 1.75 0.93
5 10 -5 1.46 0.95
5 -10 -5 2.58 1.18
-5 10 5 2.67 0.96
-5 -10 5 2.64 0.98
5 -10 -5 3.32 1.11
-5 10 4 0.81 0.85
-5 -10 4 0.64 0.91
5 -10 -4 0.51 1.01
5 10 -4 1.6 0.97
5 10 -4 0.98 0.9
-5 10 3 44.88 2.34
-5 -10 3 48.27 2.49
5 10 -3 51.68 2.66
5 10 -3 48.68 2.31
5 -10 -3 52.05 2.69
-5 10 2 5.27 1.1
-5 -10 2 5.47 1.14
5 -10 -2 5.93 1.29
5 10 -2 5.36 1.11
5 10 -2 4.57 0.93
-5 10 1 1.38 0.93
-5 -10 1 1.52 0.97
5 -10 -1 1.78 1.1
5 10 -1 1.19 0.81
5 10 -1 1.64 0.73
5 10 0 1.28 0.82
5 10 0 0.05 0.59
-5 10 0 1.18 0.89
-5 -10 0 1.13 0.96
5 10 1 47.1 2.32
-5 10 -1 46.19 2.46
-5 -10 -1 49.89 2.56
5 10 2 2.08 0.81
5 -10 2 1.5 1.09
-5 10 -2 0.56 0.89
-5 -10 -2 0.41 0.86
5 -10 3 9.09 1.49
5 10 3 6.63 0.99
5 -10 4 0.71 1.08
5 10 4 0.86 0.7
5 -10 5 18.14 1.88
5 10 5 13.87 1.27
5 -11 -8 7.48 1.19
5 -11 -8 7.8 1.44
-5 11 7 0.23 0.74
5 11 -7 1.07 1.03
5 -11 -7 0.86 0.94
5 -11 -7 -0.39 1.04
-5 11 6 1.94 0.8
-5 11 6 1.82 0.92
-5 -11 6 3.17 1
5 11 -6 1.07 0.99
5 -11 -6 3.1 1.07
5 -11 -6 1.91 1.12
5 11 -5 5.06 1.1
5 11 -5 5.64 1.21
-5 11 5 6.92 1.17
-5 -11 5 6.76 1.23
5 -11 -5 6.76 1.22
-5 11 5 6.51 1.03
-5 11 4 14.43 1.34
-5 11 4 12.69 1.36
-5 -11 4 14.6 1.49
5 11 -4 10.4 1.42
5 11 -4 13.29 1.43
5 -11 -4 14.7 1.53
-5 11 3 1.72 0.87
-5 -11 3 -0.15 0.85
5 -11 -3 2.42 1.13
5 11 -3 1.65 0.95
5 11 -3 0.33 0.82
5 11 -2 14.7 1.5
-5 11 2 14.02 1.39
-5 -11 2 14.99 1.5
5 11 -2 14.95 1.31
5 -11 -2 16.95 1.69
-5 11 1 18.79 1.57
-5 -11 1 21.09 1.72
5 11 -1 20.56 1.67
5 -11 -1 25.11 2.01
5 11 -1 18.16 1.37
-5 11 0 6.19 1.15
-5 -11 0 6.25 1.18
5 -11 0 8.43 1.44
5 11 0 6.11 1.05
-5 11 -1 0.39 0.87
-5 -11 -1 0.57 0.92
5 11 1 1.21 0.8
5 -11 2 36.88 2.42
-5 11 -2 33.46 2.1
-5 -11 -2 35.13 2.16
5 -11 3 7.04 1.38
5 -11 4 -0.21 1.1
5 -12 -8 0.07 0.85
-5 12 7 3.48 0.91
5 -12 -7 4.36 1.1
-5 12 6 19.06 1.5
-5 12 6 17.9 1.55
-5 -12 6 18.79 1.67
5 -12 -6 18.07 1.66
5 12 -6 20.73 1.81
5 12 -5 0.56 0.88
5 12 -5 0.71 0.94
-5 12 5 1.3 0.84
5 -12 -5 0.64 0.93
-5 12 5 1.44 0.86
-5 -12 5 2.05 1
5 12 -4 8.92 1.32
5 12 -4 7.28 1.19
-5 12 4 7.32 1.08
5 -12 -4 8.14 1.3
-5 12 4 8.19 1.15
-5 -12 4 6.61 1.16
5 12 -3 4.99 1.08
5 12 -3 6.01 1.05
-5 12 3 6.26 1.03
-5 12 3 5.64 1.07
-5 -12 3 5.5 1.09
5 -12 -3 7.31 1.31
-5 12 2 6.25 1.1
-5 -12 2 8.25 1.24
5 12 -2 9.14 1.29
5 12 -2 6.51 1.04
5 -12 -2 9.09 1.39
-5 12 1 1.33 0.91
-5 -12 1 1.63 0.99
5 12 -1 3.06 0.98
5 -12 -1 3.53 1.27
-5 12 0 3.91 1.05
-5 -12 0 6.84 1.23
5 -12 0 5.97 1.3
5 12 0 5.62 1.04
-5 12 -1 12.94 1.44
-5 -12 -1 13.19 1.47
-5 12 -2 7.89 1.2
-5 -12 -2 8.71 1.29
5 -12 2 9.9 1.51
5 -12 3 6.07 1.32
5 -13 -8 0.59 0.81
-5 13 7 0.63 0.77
5 -13 -7 1.35 0.93
5 13 -6 1.21 0.99
-5 13 6 2.27 0.91
-5 -13 6 2.74 1
-5 13 6 1.57 0.87
5 -13 -6 1.06 0.96
-5 13 5 25.36 1.68
-5 13 5 21.28 1.64
-5 -13 5 22.46 1.76
5 -13 -5 22.01 1.81
5 13 -5 25.44 1.88
5 13 -4 1.01 0.97
5 13 -4 0.91 0.86
-5 13 4 1.1 0.85
5 -13 -4 1.5 0.97
-5 13 4 -0.28 0.77
-5 -13 4 0.38 0.85
5 13 -3 0.98 0.92
5 13 -3 0.14 0.75
-5 13 3 0.14 0.72
5 -13 -3 0.43 0.96
-5 13 3 0.42 0.82
-5 -13 3 0.9 0.86
-5 13 2 2.87 0.88
-5 -13 2 3.74 0.99
5 -13 -2 3.03 1.14
5 13 -2 3.34 1.03
5 13 -1 53.86 2.63
5 -13 -1 57.58 2.92
-5 13 1 56.24 2.56
-5 -13 1 59.12 2.68
-5 13 0 1.98 0.86
-5 -13 0 2.85 0.91
5 -13 0 1.42 1.11
-5 13 -1 0.67 0.88
-5 -13 -1 0.85 0.84
-5 13 -2 -0.59 0.86
-5 -13 -2 -0.15 0.88
5 -13 3 32.65 2.38
-5 14 7 3.06 0.93
5 -14 -7 2.68 1.01
-5 14 6 12.44 1.34
-5 14 6 10.4 1.26
5 -14 -6 10.87 1.38
-5 -14 6 9.22 1.31
5 14 -5 0.66 0.9
-5 14 5 1.53 0.87
5 -14 -5 1.88 1.05
-5 14 5 1.02 0.85
-5 -14 5 0.68 0.92
5 14 -4 5.05 1.19
5 14 -4 5.86 1.12
-5 14 4 5.19 1.02
5 -14 -4 5.91 1.22
-5 14 4 3.71 0.94
-5 -14 4 3.63 1
5 14 -3 4.68 1.11
5 14 -3 5.81 1.06
-5 14 3 5.21 1.04
-5 -14 3 5.08 1.04
-5 14 3 5.83 1.06
5 -14 -3 4.96 1.19
-5 14 2 13.71 1.38
-5 -14 2 15.26 1.5
5 14 -2 17.42 1.62
5 -14 -2 14.33 1.6
-5 14 2 15.06 1.45
-5 14 1 3.36 1.01
-5 -14 1 1.19 0.93
5 14 -1 4.68 1.06
5 -14 -1 4.16 1.21
5 -14 0 37.72 2.43
-5 14 0 31.53 1.97
-5 -14 0 36.55 2.11
-5 14 -1 15.71 1.5
-5 -14 -1 16.08 1.53
-5 14 -2 0.8 0.85
-5 -14 -2 0.83 0.89
-5 15 7 2.48 0.91
5 -15 -7 3.1 1
-5 15 6 0.63 0.8
5 -15 -6 3.59 1.09
5 15 -5 7.35 1.24
-5 15 5 6.01 1.01
-5 -15 5 7.43 1.19
-5 15 5 6.58 1.09
5 -15 -5 7.91 1.3
-5 -15 4 11.87 1.34
5 15 -4 10.85 1.35
-5 15 4 11.88 1.35
5 -15 -4 11.19 1.46
-5 15 4 9.92 1.18
5 15 -3 1.17 0.92
-5 15 3 0.22 0.81
5 -15 -3 1.81 1.04
-5 15 3 1.2 0.83
-5 -15 3 0.51 0.84
5 15 -2 2.92 0.95
-5 15 2 4.43 1.02
5 -15 -2 5.91 1.23
-5 15 2 3.3 0.94
-5 -15 2 2.69 0.93
-5 15 1 4.88 1.07
-5 15 1 5.45 1.07
-5 -15 1 6.48 1.14
5 -15 -1 7.5 1.35
-5 15 0 3.59 1.01
-5 -15 0 4.53 1.1
5 -15 0 4.8 1.32
-5 15 -1 1.99 0.97
-5 -15 -1 1.34 0.93
5 -16 -7 3.84 1.05
5 -16 -6 -0.68 0.96
5 16 -5 3.22 1.08
-5 16 5 2.12 0.92
5 -16 -5 2.79 1.01
-5 16 5 1.39 0.85
-5 -16 5 3.19 1.01
5 16 -4 2.36 0.98
-5 16 4 1.94 0.87
-5 -16 4 1.13 0.88
5 -16 -4 2.51 1.1
-5 16 4 1.05 0.82
-5 16 3 28.84 1.91
5 -16 -3 25.26 1.99
-5 16 3 24.85 1.68
-5 -16 3 27.98 1.84
-5 16 2 -0.27 0.79
-5 -16 2 0.79 0.81
5 -16 -2 0.82 0.97
-5 16 2 2.11 0.93
-5 16 1 -0.68 0.89
-5 -16 1 -0.73 0.92
5 -16 -1 -0.19 0.97
-5 16 1 1.04 0.91
5 -16 0 5.12 1.32
-5 16 0 3.33 0.99
-5 -16 0 3.98 1.06
-5 16 -1 23.06 1.72
-5 -16 -1 25.01 1.77
5 -17 -6 2.58 1.05
5 -17 -5 1.69 1.04
-5 17 5 -0.26 0.75
-5 -17 5 0.57 0.86
-5 17 4 12.98 1.34
-5 -17 4 15.78 1.47
5 17 -4 12.84 1.45
5 -17 -4 13.72 1.56
5 -17 -3 1.06 1.1
-5 17 3 1.28 0.89
-5 -17 3 0.14 0.88
5 -17 -2 16.51 1.74
-5 17 2 15.57 1.43
-5 -17 2 13.84 1.41
-5 17 1 1.61 0.9
-5 -17 1 1.86 0.97
-5 17 0 4.6 1.08
-5 -17 0 6.66 1.16
-5 -17 -1 0.86 0.89
-5 17 -1 0.41 0.87
-5 -18 5 1.18 0.89
-5 18 4 0.63 0.78
-5 -18 4 1.94 0.91
-5 18 3 8.49 1.14
-5 -18 3 8.72 1.23
-5 -18 2 11.1 1.3
-5 18 2 10.88 1.24
-5 18 1 0.72 0.84
-5 -18 1 1.47 0.95
-5 18 0 5.85 1.13
-5 -18 0 4.77 1.11
-5 18 -1 5.83 1.15
-5 -18 -1 5.17 1.12
-5 -19 4 0.54 0.81
-5 19 3 0.38 0.8
-5 -19 3 -0.07 0.77
-5 19 2 1.79 0.87
-5 -19 2 2.2 0.94
-5 19 1 19.75 1.57
-5 -19 1 22.74 1.7
-5 19 0 -1.51 0.95
-5 -19 0 0.76 0.95
-5 -20 4 8.63 1.19
-5 -20 3 1.07 0.83
-5 -20 2 6.92 1.17
-5 -20 1 0.07 0.89
-5 -20 0 12.08 1.33
-5 -21 3 -0.45 0.8
-5 -21 2 1.63 0.85
-5 -21 1 8.41 1.17
-5 -21 0 2.13 0.89
6 3 0 10.25 1.35
6 3 1 1.96 0.96
6 4 1 8.47 1.26
6 5 2 1.06 0.91
loop_
_geom_angle_atom_site_label_1
_geom_angle_atom_site_label_2
_geom_angle_atom_site_label_3
_geom_angle
_geom_angle_site_symmetry_1
_geom_angle_site_symmetry_3
_geom_angle_publ_flag
O13 N12 O14 122.8(3) . . ?
C4 N12 O14 118.5(3) . . ?
C4 N12 O13 118.7(3) . . ?
C4 C5 H5 120.90(16) . . ?
C6 C5 H5 120.90(16) . . ?
C6 C5 C4 118.2(2) . . ?
C5 C4 N12 119.2(3) . . ?
C3 C4 N12 117.7(3) . . ?
C3 C4 C5 123.0(3) . . ?
C2 C1 C6 120.4(2) . . ?
C7 C1 C6 121.0(2) . . ?
C7 C1 C2 118.6(2) . . ?
C1 C6 C5 120.0(3) . . ?
H6 C6 C5 119.99(16) . . ?
H6 C6 C1 119.99(16) . . ?
C7 C8 C9 178.0(3) . . ?
H3 C3 C4 120.84(17) . . ?
C2 C3 C4 118.3(3) . . ?
C2 C3 H3 120.84(17) . . ?
C8 C9 I10 178.7(3) . . ?
C3 C2 C1 120.0(2) . . ?
H2 C2 C1 120.00(15) . . ?
H2 C2 C3 120.00(17) . . ?
C1 C7 O11 121.2(3) . . ?
C8 C7 O11 120.8(3) . . ?
C8 C7 C1 118.0(2) . . ?
loop_
_geom_bond_atom_site_label_1
_geom_bond_atom_site_label_2
_geom_bond_distance
_geom_bond_site_symmetry_2
_geom_bond_publ_flag
I10 C9 1.991(3) . ?
O11 C7 1.224(4) . ?
O14 N12 1.218(4) . ?
N12 O13 1.218(4) . ?
N12 C4 1.473(4) . ?
C5 H5 0.9300 . ?
C5 C4 1.369(4) . ?
C5 C6 1.388(4) . ?
C4 C3 1.395(4) . ?
C1 C6 1.393(3) . ?
C1 C2 1.395(4) . ?
C1 C7 1.486(4) . ?
C6 H6 0.9300 . ?
C8 C9 1.192(4) . ?
C8 C7 1.450(4) . ?
C3 H3 0.9300 . ?
C3 C2 1.372(4) . ?
C2 H2 0.9300 . ?
loop_
_geom_torsion_atom_site_label_1
_geom_torsion_atom_site_label_2
_geom_torsion_atom_site_label_3
_geom_torsion_atom_site_label_4
_geom_torsion
_geom_torsion_site_symmetry_1
_geom_torsion_site_symmetry_2
_geom_torsion_site_symmetry_3
_geom_torsion_site_symmetry_4
_geom_torsion_publ_flag
O11 C7 C1 C6 172.6(3) . . . . ?
O11 C7 C1 C2 -7.7(4) . . . . ?
O14 N12 C4 C5 7.4(3) . . . . ?
O14 N12 C4 C3 -171.9(3) . . . . ?
N12 C4 C5 C6 -179.2(3) . . . . ?
N12 C4 C3 C2 179.8(3) . . . . ?
C5 C4 C3 C2 0.6(4) . . . . ?
C5 C6 C1 C2 1.0(3) . . . . ?
C5 C6 C1 C7 -179.2(3) . . . . ?
C4 C3 C2 C1 -0.4(4) . . . . ?
