#------------------------------------------------------------------------------
#$Date: 2022-02-04 21:20:46 +0200 (Fri, 04 Feb 2022) $
#$Revision: 272618 $
#$URL: file:///home/coder/svn-repositories/cod/cif/7/24/41/7244138.cif $
#------------------------------------------------------------------------------
#
# This file is available in the Crystallography Open Database (COD),
# http://www.crystallography.net/
#
# All data on this site have been placed in the public domain by the
# contributors.
#
data_7244138
loop_
_publ_author_name
'Park, Jiwon'
'Koo, Jin Young'
'Choi, Hee Cheul'
_publ_section_title
;
 The solvent influenced coordination variation of flexible ligands to
 Y(iii) towards MOF structural diversity
;
_journal_issue                   4
_journal_name_full               CrystEngComm
_journal_page_first              846
_journal_page_last               853
_journal_paper_doi               10.1039/D1CE01429C
_journal_volume                  24
_journal_year                    2022
_chemical_formula_sum            'C9 H8 O7 Y'
_chemical_formula_weight         317.06
_space_group_crystal_system      triclinic
_space_group_IT_number           2
_space_group_name_Hall           '-P 1'
_space_group_name_H-M_alt        'P -1'
_atom_sites_solution_hydrogens   geom
_audit_creation_method           SHELXL-2018/3
_audit_update_record
;
2021-12-10 deposited with the CCDC.	2021-12-20 downloaded from the CCDC.
;
_cell_angle_alpha                71.83(3)
_cell_angle_beta                 83.47(3)
_cell_angle_gamma                84.80(3)
_cell_formula_units_Z            2
_cell_length_a                   7.1900(14)
_cell_length_b                   7.5780(15)
_cell_length_c                   9.979(2)
_cell_measurement_reflns_used    7312
_cell_measurement_temperature    100(2)
_cell_measurement_theta_max      33.749
_cell_measurement_theta_min      0.401
_cell_volume                     512.4(2)
_computing_cell_refinement       'HKL3000sm (Otwinowski & Minor, 1997)'
_computing_data_collection       'PAL BL2D-SMDC Program (Shin et. al, 2016)'
_computing_data_reduction        'HKL3000sm (Otwinowski & Minor, 1997)'
_computing_structure_refinement  'SHELXL-2018/3 (Sheldrick, 2018)'
_computing_structure_solution    'SHELXT 2014/5 (Sheldrick, 2014)'
_diffrn_ambient_temperature      100(2)
_diffrn_measured_fraction_theta_full 0.890
_diffrn_measured_fraction_theta_max 0.702
_diffrn_measurement_device_type  'Rayonix MX225HS CCD area detector'
_diffrn_measurement_method       'omega scan'
_diffrn_radiation_type           synchrotron
_diffrn_radiation_wavelength     0.700
_diffrn_reflns_av_R_equivalents  0.0317
_diffrn_reflns_av_unetI/netI     0.0545
_diffrn_reflns_Laue_measured_fraction_full 0.890
_diffrn_reflns_Laue_measured_fraction_max 0.702
_diffrn_reflns_limit_h_max       9
_diffrn_reflns_limit_h_min       -9
_diffrn_reflns_limit_k_max       11
_diffrn_reflns_limit_k_min       -11
_diffrn_reflns_limit_l_max       14
_diffrn_reflns_limit_l_min       -14
_diffrn_reflns_number            4832
_diffrn_reflns_point_group_measured_fraction_full 0.890
_diffrn_reflns_point_group_measured_fraction_max 0.702
_diffrn_reflns_theta_full        24.835
_diffrn_reflns_theta_max         32.283
_diffrn_reflns_theta_min         2.791
_diffrn_source                   'PLSII 2D bending magnet'
_exptl_absorpt_coefficient_mu    5.550
_exptl_absorpt_correction_T_max  1.000
_exptl_absorpt_correction_T_min  0.907
_exptl_absorpt_correction_type   empirical
_exptl_absorpt_process_details   'HKL3000sm Scalepack(Otwinowski et.al,2003)'
_exptl_crystal_colour            colorless
_exptl_crystal_density_diffrn    2.055
_exptl_crystal_description       'blunt rod'
_exptl_crystal_F_000             314
_exptl_crystal_size_max          0.030
_exptl_crystal_size_mid          0.015
_exptl_crystal_size_min          0.011
_refine_diff_density_max         1.792
_refine_diff_density_min         -2.432
_refine_diff_density_rms         0.203
_refine_ls_extinction_method     none
_refine_ls_goodness_of_fit_ref   1.140
_refine_ls_hydrogen_treatment    constr
_refine_ls_matrix_type           full
_refine_ls_number_parameters     154
_refine_ls_number_reflns         2670
_refine_ls_number_restraints     0
_refine_ls_restrained_S_all      1.140
_refine_ls_R_factor_all          0.0731
_refine_ls_R_factor_gt           0.0611
_refine_ls_shift/su_max          0.000
_refine_ls_shift/su_mean         0.000
_refine_ls_structure_factor_coef Fsqd
_refine_ls_weighting_details
'w=1/[\s^2^(Fo^2^)+(0.1140P)^2^] where P=(Fo^2^+2Fc^2^)/3'
_refine_ls_weighting_scheme      calc
_refine_ls_wR_factor_gt          0.1613
_refine_ls_wR_factor_ref         0.1699
_reflns_Friedel_coverage         0.000
_reflns_number_gt                2210
_reflns_number_total             2670
_reflns_threshold_expression     'I > 2\s(I)'
_cod_data_source_file            d1ce01429c2.cif
_cod_data_source_block           1
_cod_depositor_comments
'Adding full bibliography for 7244137--7244142.cif.'
_cod_database_code               7244138
_shelx_shelxl_version_number     2018/3
_shelx_space_group_comment
;
The symmetry employed for this shelxl refinement is uniquely defined
by the following loop, which should always be used as a source of
symmetry information in preference to the above space-group names.
They are only intended as comments.
;
_shelx_estimated_absorpt_t_min   0.851
_shelx_estimated_absorpt_t_max   0.941
_shelx_res_file
;
TITL p-1_a_a.res in P-1
    p-1_a_a.res
    created by SHELXL-2018/3 at 22:47:49 on 09-Nov-2021
REM Old TITL p-1_a.res in P-1
REM SHELXT solution in P-1
REM R1 0.138, Rweak 0.008, Alpha 0.057, Orientation as input
REM Formula found by SHELXT: C9 O7 Y
REM #####
CELL 0.7 7.19 7.578 9.979 71.832 83.468 84.799
ZERR 2 0.0014 0.0015 0.002 0.03 0.03 0.03
LATT 1
SFAC C H O Y
DISP C 0.0033 0.0016 10.9795
DISP H -0 0 0.6661
DISP O 0.011 0.006 30.8165
DISP Y -2.2915 3.4598 13899.7376
UNIT 18 16 14 2
L.S. 10
PLAN  5
SIZE 0.03 0.015 0.011
TEMP -173.15
CONF
BOND $H
LIST 6
MORE -1
fmap 2
acta
REM <olex2.extras>
REM <HklSrc "%.\\p-1_a_a.hkl">
REM </olex2.extras>

WGHT    0.114000
FVAR       0.98034
Y1    4    0.186852    0.759169    0.026948    11.00000    0.03449    0.00919 =
         0.01613   -0.00356    0.00240    0.01002
O1A   3    0.443390    0.636558    0.144603    11.00000    0.03995    0.01251 =
         0.02327   -0.00563    0.00172    0.01082
O2A   3    0.670569    0.448420    0.082736    11.00000    0.03680    0.01445 =
         0.02456   -0.00607    0.00174    0.00933
O3A   3    0.094315    0.107441    0.883527    11.00000    0.04023    0.01418 =
         0.01869   -0.00403    0.00361    0.00936
O4A   3    0.361405   -0.031055    0.833147    11.00000    0.03759    0.01169 =
         0.02354   -0.00622    0.00328    0.01164
C1A   1    0.547987    0.487670    0.170413    11.00000    0.03722    0.01364 =
         0.01711   -0.00427    0.00194    0.01053
C2A   1    0.525162    0.347539    0.315038    11.00000    0.04584    0.01259 =
         0.02281   -0.00300    0.00238    0.01004
AFIX  43
H2A   2    0.597825    0.232931    0.331524    11.00000   -1.20000
AFIX   0
C3A   1    0.409737    0.374822    0.420487    11.00000    0.04268    0.01410 =
         0.02040   -0.00409    0.00265    0.00713
AFIX  43
H3A   2    0.336702    0.489167    0.404611    11.00000   -1.20000
AFIX   0
C4A   1    0.389455    0.237579    0.559861    11.00000    0.04718    0.01620 =
         0.02154   -0.00311    0.00347    0.00753
AFIX  43
H4A   2    0.469639    0.127638    0.576479    11.00000   -1.20000
AFIX   0
C5A   1    0.266035    0.255409    0.665980    11.00000    0.04307    0.01698 =
         0.01879   -0.00455    0.00208    0.01144
AFIX  43
H5A   2    0.191629    0.368523    0.653850    11.00000   -1.20000
AFIX   0
C6A   1    0.241199    0.105028    0.801806    11.00000    0.03524    0.01574 =
         0.01948   -0.00678    0.00017    0.00726
O1B   3    0.059004    0.507698    0.189841    11.00000    0.04309    0.01216 =
         0.02118   -0.00536    0.00214    0.00797
O2B   3    0.021995    0.251860    0.130181    11.00000    0.03610    0.01394 =
         0.02027   -0.00677    0.00074    0.01186
C1B   1    0.029079    0.338156    0.219550    11.00000    0.04105    0.01120 =
         0.02057   -0.00272    0.00314    0.01189
C2B   1    0.002032    0.234776    0.373195    11.00000    0.04521    0.01418 =
         0.02019   -0.00482    0.00262    0.00989
AFIX  43
H2B   2   -0.020742    0.304543    0.438287    11.00000   -1.20000
AFIX   0
C3B   1    0.007979    0.049104    0.424831    11.00000    0.04401    0.01480 =
         0.02277   -0.00683   -0.00136    0.00711
AFIX  43
H3B   2    0.023329   -0.021374    0.360126    11.00000   -1.20000
AFIX   0
O1SA  3    0.273188    0.956319    0.147863    11.00000    0.04315    0.01676 =
         0.02839   -0.01032   -0.00129    0.01503
HKLF 4




REM  p-1_a_a.res in P-1
REM wR2 = 0.1699, GooF = S = 1.140, Restrained GooF = 1.140 for all data
REM R1 = 0.0611 for 2210 Fo > 4sig(Fo) and 0.0731 for all 2670 data
REM 154 parameters refined using 0 restraints

END

WGHT      0.1170      0.0000

REM Highest difference peak  1.792,  deepest hole -2.432,  1-sigma level  0.203
Q1    1   0.1952  0.8275 -0.0439  11.00000  0.05    1.79
Q2    1   0.1845  0.8426  0.1018  11.00000  0.05    1.54
Q3    1   0.2010  0.6720 -0.0460  11.00000  0.05    1.48
Q4    1   0.1857  0.6778  0.1113  11.00000  0.05    1.19
Q5    1   0.2475  0.6024  0.0567  11.00000  0.05    1.06
;
_shelx_res_checksum              69607
_shelx_hkl_file
;
   0   0   3  223.23   17.34
   0   0  -3  245.35   11.79
   0   0   4  527.42   29.80
   0   0  -4  543.99   21.09
   0   0   5 1643.67   80.79
   0   0  -5 1604.22   53.46
   0   0   6 1061.85   59.61
   0   0  -6 1052.11   54.57
   0   0  -7  666.71   37.58
   0   0  -8   20.50   14.86
   0   0   9   38.17   17.42
   0   0  -9   32.88   10.93
   0   0  10   11.70   18.36
   0   0 -10   31.09   13.66
   0   0 -11  101.54   26.90
   0   0  12   63.54   32.20
   0   0 -12   42.96   29.89
   0   0  13   83.43   37.32
   0   1 -12  569.27   51.58
   0  -1  12  562.27   32.45
   0   1 -11  388.31   42.19
   0  -1  11  362.26   33.99
   0   1 -10  851.43   49.28
   0  -1  10  836.31   44.58
   0   1  -8  485.07   27.84
   0   1  -7  730.50   26.05
   0  -1   7  726.57   38.26
   0   1  -6  519.14   29.29
   0   1  -5  729.31   27.24
   0   1  -4 1167.49   43.21
   0  -1   4 1109.76   59.35
   0   1  -3  984.65   36.47
   0   1  -2  444.50   19.39
   0  -1   2  447.15   27.58
   0   1  -1    4.53    2.90
   0   1   0    6.49    2.73
   0  -1   0    5.98    2.82
   0   1   1   42.02    3.07
   0  -1  -1   51.84    4.44
   0   1   2 1408.82   42.27
   0  -1  -2 1426.07   61.57
   0   1   3  265.08   16.99
   0  -1  -3  239.89   16.31
   0   1   4  417.26   17.76
   0  -1  -4  397.53   22.63
   0   1   5 1089.35   39.11
   0   1   6 1201.90   42.27
   0  -1  -6 1292.60   58.84
   0   1   7 2576.48   73.70
   0   1   8 1482.52   47.82
   0  -1  -8 1562.03   70.11
   0   1   9  994.21   54.83
   0   1  10  479.00   22.80
   0   1  11  292.32   19.39
   0   1  12  308.29   24.25
   0  -1 -12  394.12   28.78
   0   1  13   96.07   35.10
   0  -1 -13  117.00   35.18
   0  -2  12  123.83   24.85
   0   2 -11   38.77   26.64
   0  -2  11   43.13   24.59
   0   2 -10   -7.52   13.75
   0  -2  10   -8.03   15.63
   0   2  -9   80.53   23.31
   0  -2   9   47.99   17.76
   0   2  -8  125.88   12.90
   0  -2   8  116.31   11.96
   0   2  -7  127.76   11.19
   0  -2   7  121.01   10.67
   0   2  -6  326.14   22.89
   0  -2   6  271.23   20.58
   0   2  -5  612.22   25.45
   0  -2   5  637.33   26.30
   0   2  -4 1881.85   62.68
   0  -2   4 1797.39   61.57
   0   2  -3 6839.42  192.57
   0  -2   3 7472.99  289.33
   0   2  -2 4726.48  198.21
   0  -2   2 4301.19  183.01
   0   2  -1 2137.28   66.10
   0  -2   1 2265.20  100.43
   0   2   0 1406.77   46.12
   0  -2   0 1393.88   44.92
   0   2   1   70.28    5.12
   0  -2  -1   76.18    5.12
   0   2   2 2588.61   74.38
   0  -2  -2 2594.93   73.10
   0   2   3 5521.29  149.19
   0  -2  -3 5436.40  202.57
   0   2   4 1287.98   62.60
   0  -2  -4 1304.21   58.50
   0   2   5    9.22    7.52
   0  -2  -5   13.32    6.83
   0   2   6  150.22    9.31
   0  -2  -6  164.31   13.75
   0   2   7  154.83   11.19
   0  -2  -7  170.54   14.94
   0  -2  -8  669.53   34.59
   0   2   9  395.31   19.39
   0  -2  -9  469.86   27.84
   0   2  10  264.65   17.85
   0  -2 -10  196.93   19.90
   0   2  11  449.54   23.91
   0  -2 -11  395.91   30.57
   0   2  12  406.75   25.36
   0  -2 -12  346.89   35.01
   0   2  13  119.90   19.64
   0  -2 -13   98.55   33.31
   0   3 -11   27.93   19.13
   0  -3  11    1.62   20.15
   0   3 -10  373.53   37.75
   0  -3  10  336.47   29.55
   0   3  -9  281.22   19.64
   0  -3   9  288.73   24.17
   0   3  -8  576.01   43.47
   0  -3   8  678.07   42.02
   0   3  -7 1847.94   83.01
   0   3  -6  969.36   34.24
   0  -3   6  963.38   35.44
   0   3  -5 1463.56   66.78
   0  -3   5 1475.95   73.87
   0   3  -4  325.80   14.94
   0  -3   4  316.66   14.69
   0   3  -3  213.41   12.04
   0  -3   3  218.96   17.85
   0   3  -2  592.84   25.62
   0  -3   2  598.90   24.77
   0   3  -1  423.07   18.70
   0  -3   1  403.85   18.19
   0   3   0   45.43    7.94
   0  -3   0   42.36    4.95
   0   3   1  162.77    8.88
   0  -3  -1  167.98    8.80
   0   3   2   14.60    3.59
   0  -3  -2   16.65    3.84
   0   3   3 1185.59   36.29
   0  -3  -3 1206.60   37.32
   0   3   4 2093.38   60.63
   0  -3  -4 2065.20   82.32
   0   3   5 4260.03  164.48
   0   3   6 1324.79   59.44
   0  -3  -6 1258.52   40.56
   0   3   7  758.51   44.32
   0  -3  -7  875.85   48.08
   0   3   8  711.37   44.41
   0  -3  -8  705.99   42.53
   0   3   9  196.84   22.72
   0  -3  -9  173.53   19.90
   0   3  10  950.66   38.17
   0  -3 -10  922.90   37.66
   0   3  11  445.10   37.49
   0  -3 -11  420.42   22.80
   0   3  12  297.70   23.06
   0  -3 -12  339.29   28.78
   0   3  13  160.81   23.06
   0  -3 -13  218.28   27.41
   0   3  14   14.77   17.08
   0  -3 -14   59.95   36.55
   0   4 -10   14.18   21.52
   0  -4  10   15.03   27.50
   0   4  -9   -2.90   14.60
   0  -4   9    4.10   14.77
   0   4  -8  104.78   27.67
   0  -4   8   87.96   19.81
   0   4  -7  425.88   21.78
   0  -4   7  453.04   22.97
   0   4  -6  992.93   34.93
   0  -4   6  972.61   39.20
   0   4  -5 1383.12   69.00
   0  -4   5 1492.60   70.37
   0   4  -4  321.36   16.57
   0  -4   4  321.61   15.54
   0   4  -3  593.95   36.04
   0  -4   3  577.47   35.01
   0   4  -2  660.56   26.64
   0  -4   2  596.60   24.68
   0   4  -1 1836.76   60.29
   0  -4   1 1822.84   59.10
   0   4   0 3867.20  112.73
   0  -4   0 3758.66  109.91
   0   4   1 1993.38   63.02
   0  -4  -1 1981.25   61.49
   0   4   2 2535.15   73.27
   0  -4  -2 2695.36  106.49
   0   4   3 1351.09   40.14
   0  -4  -3 1421.63   44.24
   0   4   4  708.64   23.23
   0  -4  -4  695.91   22.80
   0   4   5  301.46   13.49
   0  -4  -5  293.00   12.81
   0   4   6  526.65   18.62
   0  -4  -6  513.42   24.25
   0   4   7    7.69    7.34
   0  -4  -7   -2.39    7.86
   0   4   8   54.74   16.31
   0  -4  -8   45.09   10.25
   0   4   9   85.83   11.44
   0  -4  -9   36.38   11.79
   0   4  10  441.60   21.61
   0  -4 -10  401.12   21.44
   0   4  11   -2.90   15.20
   0  -4 -11    4.44   16.74
   0   4  12  125.96   18.62
   0  -4 -12   96.24   20.07
   0   4  13  110.42   20.75
   0  -4 -13  160.21   26.82
   0  -4 -14  125.02   46.20
   0   5  -9  349.54   26.47
   0  -5   9  404.28   28.35
   0   5  -8  201.63   21.18
   0  -5   8  182.67   21.01
   0   5  -7  529.30   26.99
   0  -5   7  519.31   42.70
   0   5  -6  591.47   25.45
   0  -5   6  604.54   38.51
   0   5  -5  525.97   24.08
   0  -5   5  545.61   25.88
   0   5  -4  228.44   14.26
   0  -5   4  225.79   13.83
   0   5  -3  154.32   11.53
   0  -5   3  158.76   11.36
   0   5  -2  528.62   21.35
   0  -5   2  496.68   21.01
   0   5  -1    0.68    6.58
   0  -5   1    4.18    6.66
   0   5   0    4.18    6.06
   0  -5   0   10.59    6.32
   0   5   1   18.36    5.38
   0  -5  -1   20.24    7.34
   0   5   2  185.23    9.82
   0  -5  -2  178.74   10.16
   0   5   3  477.72   17.08
   0  -5  -3  481.22   18.36
   0   5   4  854.93   26.22
   0  -5  -4  878.50   27.33
   0   5   5 1485.68   63.71
   0  -5  -5 1566.56   64.56
   0   5   6 1083.54   50.56
   0  -5  -6 1101.64   46.20
   0   5   7 2246.41   68.15
   0  -5  -7 2269.39   68.92
   0   5   8  873.71   45.26
   0  -5  -8  875.00   46.54
   0   5   9  371.31   30.57
   0  -5  -9  379.17   28.27
   0   5  10  522.73   24.42
   0  -5 -10  525.89   25.62
   0   5  11  227.16   19.30
   0  -5 -11  261.66   21.26
   0   5  12  234.76   21.95
   0  -5 -12  241.08   31.60
   0   5  13  230.49   23.57
   0  -5 -13  180.53   24.17
   0   6  -8  223.06   30.32
   0  -6   8  274.64   25.71
   0   6  -7  298.47   41.08
   0  -6   7  298.21   28.18
   0   6  -6  100.43   12.47
   0  -6   6  103.33   21.78
   0   6  -5  266.36   18.10
   0  -6   5  291.72   18.36
   0   6  -4  644.25   28.52
   0  -6   4  678.49   41.08
   0   6  -3 1363.56   45.52
   0  -6   3 1356.05   45.26
   0   6  -2 2797.41   79.76
   0  -6   2 2648.98  113.15
   0   6  -1  680.63   26.73
   0  -6   1  703.52   38.09
   0   6   0 1194.90   38.43
   0  -6   0 1120.00   36.81
   0   6   1 1036.31   36.98
   0  -6  -1 1021.71   38.51
   0   6   2  738.10   25.71
   0  -6  -2  706.42   25.62
   0   6   3  718.03   26.64
   0  -6  -3  699.93   24.59
   0   6   4   13.49    7.34
   0  -6  -4   11.87    7.60
   0   6   5   24.59    8.03
   0  -6  -5   39.37    8.28
   0   6   6   16.74    9.65
   0  -6  -6   23.91    8.97
   0   6   7   21.95   11.19
   0  -6  -7   27.16   14.01
   0   6   8   18.79   11.87
   0  -6  -8    9.22   11.27
   0   6   9   53.46   21.01
   0  -6  -9   75.49   14.60
   0   6  10  101.03   24.42
   0  -6 -10   72.93   30.32
   0   6  11   63.11   17.08
   0  -6 -11   58.07   19.30
   0   6  12   90.10   22.97
   0  -6 -12  123.15   36.04
   0   6  13  165.76   41.42
   0  -6 -13  171.91   38.26
   0   7  -7  171.99   25.11
   0  -7   7  226.05   24.94
   0   7  -6   72.67   19.64
   0  -7   6  101.28   21.44
   0   7  -5   18.70   16.14
   0  -7   5   49.36   18.53
   0   7  -4   84.97   15.80
   0  -7   4   61.49   17.25
   0   7  -3   96.33   14.09
   0  -7   3   86.00   14.69
   0   7  -2   46.46   12.21
   0  -7   2   46.03   12.38
   0   7  -1   30.74    9.74
   0  -7   1   28.44   14.18
   0   7   0  806.68   30.32
   0  -7   0  801.38   32.45
   0   7   1  553.30   25.36
   0  -7  -1  538.18   26.22
   0   7   2  352.95   17.08
   0  -7  -2  350.31   17.51
   0   7   3  339.72   17.85
   0  -7  -3  346.63   18.10
   0   7   4  560.56   22.72
   0  -7  -4  521.62   21.86
   0   7   5 2020.11   56.19
   0  -7  -5 1948.03   55.85
   0   7   6 1435.72   42.19
   0  -7  -6 1473.90   41.67
   0   7   7 1817.37   53.55
   0  -7  -7 1887.65   56.79
   0   7   8  232.20   18.45
   0  -7  -8  244.16   17.93
   0   7   9  175.92   31.09
   0  -7  -9  140.82   19.04
   0   7  10  371.74   39.54
   0  -7 -10  403.08   26.47
   0   7  11   81.39   36.21
   0  -7 -11   75.58   33.48
   0  -7 -12  195.48   46.71
   0  -7 -13   73.53   35.44
   0   8  -5  402.40   29.46
   0  -8   5  421.27   38.17
   0   8  -4   58.75   19.13
   0  -8   4   38.60   25.53
   0   8  -3  455.86   26.39
   0  -8   3  477.29   28.95
   0   8  -2  578.24   28.86
   0  -8   2  559.79   29.29
   0   8  -1  544.67   35.27
   0  -8   1  596.94   37.32
   0   8   1  435.53   23.57
   0  -8  -1  443.56   22.03
   0   8   2   78.05   12.81
   0  -8  -2  110.42   14.01
   0   8   3   61.06   11.70
   0  -8  -3   48.25   11.87
   0   8   4  138.60   14.26
   0  -8  -4  137.49   14.69
   0   8   5  149.53   14.86
   0  -8  -5  131.86   15.29
   0   8   6  200.17   16.65
   0  -8  -6  205.30   17.59
   0   8   7    5.64   14.77
   0  -8  -7   10.76   15.46
   0   8   8   78.57   18.10
   0  -8  -8   92.66   18.36
   0   8   9   35.27   27.24
   0  -8  -9   23.83   18.10
   0   8  10  205.90   33.56
   0  -8 -10  112.38   21.78
   0   8  11  143.47   39.20
   0  -8 -11  118.62   23.66
   0   8  12  348.60   42.53
   0  -8 -12  329.55   35.18
   0   9  -3   45.60   25.62
   0  -9   3   12.55   33.99
   0   9  -2   22.29   18.87
   0  -9   2   13.75   19.13
   0   9  -1  161.57   19.90
   0  -9   1  139.46   29.72
   0   9   0  179.76   19.73
   0  -9   0  203.76   20.67
   0   9   1  152.10   18.96
   0  -9  -1  171.31   18.70
   0   9   2  341.77   22.46
   0  -9  -2  314.87   21.52
   0   9   3  597.11   28.44
   0  -9  -3  578.58   28.18
   0   9   4  702.83   29.46
   0  -9  -4  749.12   31.17
   0   9   5  371.40   24.59
   0  -9  -5  361.24   26.13
   0   9   6  315.80   20.75
   0  -9  -6  321.53   20.92
   0   9   7  261.49   19.90
   0  -9  -7  249.54   33.13
   0   9   8  523.84   32.96
   0  -9  -8  578.41   30.83
   0   9   9  796.77   40.05
   0  -9  -9  696.26   56.88
   0   9  10  322.89   56.45
   0  -9 -10  297.02   52.35
   0  -9 -11   55.59   42.53
   0  10  -1  116.83   22.72
   0 -10   1   96.24   40.82
   0  10   0  585.92   35.36
   0 -10   0  601.89   60.46
   0  10   1  242.19   24.25
   0 -10  -1  241.59   36.12
   0  10   2  206.84   23.14
   0 -10  -2  245.09   36.81
   0  10   3   61.74   18.19
   0 -10  -3   50.56   27.33
   0  10   4    9.82   18.53
   0  10   5   35.27   18.70
   0 -10  -5   38.69   20.15
   0  10   6    2.05   20.24
   0 -10  -6   26.13   28.35
   0  10   7   29.21   24.51
   0 -10  -7    7.52   25.62
   0  10   8   27.41   24.17
   0 -10  -8   39.80   24.42
   0  10   9    7.69   27.33
   0 -10  -9    8.71   26.39
   1 -10  -8  293.34   57.47
  -1  10   8  315.21   41.16
   1 -10  -7  248.34   35.27
  -1  10   7  263.80   34.59
   1 -10  -6  420.85   39.03
  -1  10   6  430.15   31.00
   1 -10  -5  730.42   65.67
  -1  10   5  663.98   32.28
   1 -10  -4  132.11   25.71
  -1  10   4   93.34   22.55
   1 -10  -3  483.44   30.57
  -1  10   3  459.96   27.24
   1 -10  -2  430.41   37.58
  -1  10   2  381.31   31.00
   1 -10  -1  339.89   31.34
  -1  10   1  312.73   27.67
   1 -10   0  241.42   28.52
  -1  10   0  221.52   26.73
   1  -9 -10   79.85   28.35
  -1   9  10   81.47   27.33
   1  -9  -9  216.91   27.75
  -1   9   9  263.80   28.78
   1  -9  -8  484.55   32.37
  -1   9   8  472.43   31.43
   1  -9  -7  250.56   24.68
  -1   9   7  256.45   36.81
   1  -9  -6  130.23   21.26
  -1   9   6  129.38   18.87
   1  -9  -5   40.31   17.93
  -1   9   5   66.44   16.74
   1  -9  -4   27.41   16.48
  -1   9   4   10.76   15.88
   1  -9  -3   75.75   18.28
  -1   9   3   81.21   17.76
   1  -9  -2  198.64   23.14
  -1   9   2  194.28   20.32
   1  -9  -1  508.55   37.83
  -1   9   1  468.50   39.97
   1  -9   0  222.81   22.29
  -1   9   0  232.97   21.52
   1  -9   1  185.14   24.34
  -1   9  -1  193.34   23.31
   1  -9   2  171.31   22.80
  -1   9  -2  159.52   21.35
   1  -8 -11   82.24   38.34
  -1   8  11   40.74   39.63
   1  -8 -10  125.79   24.34
  -1   8  10  134.67   38.43
   1  -8  -9  328.44   26.99
  -1   8   9  331.69   26.64
   1  -8  -8  721.96   47.74
  -1   8   8  794.89   52.61
   1  -8  -7   95.48   17.42
  -1   8   7   85.57   16.65
   1  -8  -6 1094.73   39.28
  -1   8   6 1042.12   41.67
   1  -8  -5  710.18   26.64
  -1   8   5  694.98   27.75
   1  -8  -4  672.77   37.83
  -1   8   4  666.88   28.18
   1  -8  -3 1266.04   52.18
  -1   8   3 1279.02   46.37
   1  -8  -2  811.20   33.22
  -1   8   2  842.46   34.76
   1  -8  -1  643.05   31.77
  -1   8   1  658.17   31.34
   1  -8   0  253.12   23.31
  -1   8   0  246.97   18.02
   1  -8   1  551.68   48.68
  -1   8  -1  572.17   27.67
   1  -8   2  137.24   17.76
  -1   8  -2  127.33   17.25
   1  -8   3  175.84   27.75
  -1   8  -3  187.02   16.05
   1  -8   4   30.57   19.81
  -1   8  -4   32.62   20.58
   1  -8   5   12.21   19.73
  -1   8  -5   59.78   21.78
   1  -7 -12  255.60   39.45
  -1   7  12  217.43   40.65
   1  -7 -11  482.76   28.69
  -1   7  11  480.54   27.67
   1  -7 -10  752.53   51.84
  -1   7  10  779.86   49.70
   1  -7  -9  210.93   21.09
  -1   7   9  220.16   21.01
   1  -7  -8   78.57   15.80
  -1   7   8   69.86   15.54
   1  -7  -7   14.52   13.24
  -1   7   7    5.64   12.72
   1  -7  -6   75.92   13.07
  -1   7   6   87.62   12.90
   1  -7  -5  282.50   16.40
  -1   7   5  271.06   22.29
   1  -7  -4   85.91   16.40
  -1   7   4  109.74   12.64
   1  -7  -3  233.91   14.69
  -1   7   3  226.90   14.60
   1  -7  -2  274.81   17.42
  -1   7   2  277.97   17.34
   1  -7  -1  147.91   12.98
  -1   7   1  168.06   12.90
   1  -7   0   27.67   12.21
  -1   7   0   43.13   11.61
   1  -7   1  318.20   17.76
  -1   7  -1  336.90   24.25
   1  -7   2  863.81   34.33
  -1   7  -2  904.71   35.87
   1  -7   3 1203.70   62.77
   1  -7   4  945.54   37.92
  -1   7  -4 1082.43   54.23
   1  -7   5  681.57   39.11
  -1   7  -5  650.23   34.59
   1  -7   6  523.84   32.37
  -1   7  -6  542.20   29.63
   1  -7   7  353.29   29.80
  -1   7  -7  346.89   30.40
   1  -6 -12    7.94   28.52
  -1   6  12   10.16   30.40
   1  -6 -11   41.76   31.77
  -1   6  11   -1.79   20.41
   1  -6 -10   68.83   22.20
  -1   6  10   71.65   25.88
   1  -6  -9  465.25   34.42
  -1   6   9  452.53   21.18
   1  -6  -8 1861.44   80.02
  -1   6   8 1902.26   59.52
   1  -6  -7 1741.96   68.58
  -1   6   7 1685.77   52.61
   1  -6  -6 2289.54   90.61
  -1   6   6 2321.65   66.95
   1  -6  -5  661.50   22.89
  -1   6   5  668.16   22.37
   1  -6  -4  164.14   10.50
  -1   6   4  150.81   10.16
   1  -6  -3  805.74   29.12
  -1   6   3  788.57   28.27
   1  -6  -2 1133.92   38.09
  -1   6   2 1099.08   38.09
   1  -6  -1 1494.99   49.53
  -1   6   1 1479.02   49.79
   1  -6   0 1392.94   48.08
  -1   6   0 1437.86   49.28
   1  -6   1  677.38   43.13
  -1   6  -1  757.40   48.16
   1  -6   2    3.59   14.43
  -1   6  -2    0.51    7.77
   1  -6   3   23.74   11.96
  -1   6  -3   21.26   11.19
   1  -6   4  119.05   14.86
  -1   6  -4  136.21   13.92
   1  -6   5   43.13   15.46
  -1   6  -5   29.46   13.92
   1  -6   6   90.86   18.19
  -1   6  -6   69.60   16.74
   1  -6   7   20.32   19.90
  -1   6  -7   20.32   18.79
   1  -6   8   59.27   23.31
  -1   6  -8   73.44   20.58
   1  -5 -13  291.81   38.86
  -1   5  13  316.83   45.18
   1  -5 -12  162.94   30.15
  -1   5  12  226.90   33.90
   1  -5 -11  304.79   30.57
  -1   5  11  314.69   20.75
   1  -5 -10   75.58   20.67
  -1   5  10  133.48   23.57
   1  -5  -9  284.63   24.68
  -1   5   9  347.49   18.10
   1  -5  -8  141.59   20.75
  -1   5   8  173.36   19.39
   1  -5  -7   66.95   13.66
  -1   5   7   63.28   10.50
   1  -5  -6  223.23   16.14
  -1   5   6  200.17   12.55
   1  -5  -5   37.23   11.27
  -1   5   5   39.03    7.43
   1  -5  -4   -0.51    8.20
  -1   5   4   -0.77    5.72
   1  -5  -3    5.21    8.20
  -1   5   3    1.62    5.64
   1  -5  -2    7.86    5.12
  -1   5   2   29.63    5.72
   1  -5  -1 1537.86   80.10
  -1   5   1 1630.26   56.62
   1  -5   0 2893.05  130.40
  -1   5   0 2975.89   90.78
  -1   5  -1 2877.26  122.89
  -1   5  -2 2499.79   76.52
   1  -5   3  111.45   15.97
  -1   5  -3  111.79   10.76
  -1   5  -4  582.68   29.72
  -1   5  -5 1009.93   31.94
   1  -5   6  828.54   47.82
  -1   5  -6  833.75   32.28
   1  -5   7  758.34   33.90
  -1   5  -7  783.19   31.77
   1  -5   8  201.97   24.77
  -1   5  -8  209.23   21.01
   1  -5   9  187.28   30.23
  -1   5  -9  176.43   19.56
   1  -4 -13  -12.38   29.80
   1  -4 -12   37.58   20.67
  -1   4  12   74.55   33.39
   1  -4 -11  581.74   38.51
  -1   4  11  527.00   38.94
   1  -4 -10  545.78   36.04
  -1   4  10  559.53   41.67
   1  -4  -9  867.14   47.57
  -1   4   9  882.77   50.56
   1  -4  -8  848.18   31.17
  -1   4   8  843.40   44.41
   1  -4  -7  693.86   25.36
  -1   4   7  702.92   37.06
   1  -4  -6  968.34   32.54
  -1   4   6  965.86   48.34
   1  -4  -5  782.25   25.02
  -1   4   5  765.77   36.04
   1  -4  -4 1425.13   43.72
  -1   4   4 1328.55   56.79
   1  -4  -3 1652.04   49.79
  -1   4   3 1674.93   70.80
   1  -4  -2 1838.72   79.85
  -1   4   2 1814.55   80.79
   1  -4  -1  709.41   40.99
  -1   4   1  715.56   39.63
   1  -4   0 1663.91   78.82
  -1   4   0 1681.50   55.59
   1  -4   1  642.88   35.70
  -1   4  -1  611.46   25.79
   1  -4   2  103.50   11.79
  -1   4  -2   90.18    8.37
  -1   4  -3  268.41   14.94
   1  -4   4  126.65   16.05
  -1   4  -4  127.07   10.67
   1  -4   5    5.38   14.86
  -1   4  -5    2.73    8.20
   1  -4   6  175.75   20.41
  -1   4  -6  214.35   13.75
   1  -4   7  263.11   26.39
  -1   4  -7  308.37   17.85
   1  -4   8  247.23   33.22
  -1   4  -8  297.61   28.18
  -1   4  -9  355.09   36.98
  -1   4 -10  124.00   22.03
   1  -3 -13  509.83   47.05
  -1   3  13  556.03   31.17
   1  -3 -12  428.70   28.18
  -1   3  12  385.58   30.91
   1  -3 -11  235.10   18.45
  -1   3  11  221.44   16.82
   1  -3 -10   53.46   20.58
  -1   3  10   60.29   21.35
   1  -3  -9   54.40   16.31
  -1   3   9   69.86   11.61
   1  -3  -8  100.43   15.97
  -1   3   8  138.69   18.96
   1  -3  -7  592.41   34.59
   1  -3  -6  822.99   29.12
  -1   3   6  900.53   43.38
   1  -3  -5  106.24    9.48
  -1   3   5   84.63   10.42
   1  -3  -4 1481.50   44.75
  -1   3   4 1503.10   66.95
   1  -3  -3 3871.47  105.30
  -1   3   3 4103.92  160.38
   1  -3  -2 3712.54  107.94
  -1   3   2 3731.93  149.87
   1  -3  -1 2771.87   87.62
  -1   3   1 2552.06  107.43
   1  -3   0   83.01    7.17
  -1   3   0  109.31   11.10
   1  -3   1   75.41    6.92
  -1   3  -1   80.36   10.08
   1  -3   2 1543.24   76.09
  -1   3  -2 1406.01   66.44
   1  -3   3  928.20   38.00
  -1   3  -3 1013.94   58.07
   1  -3   4 2943.78  129.04
   1  -3   5 2035.91   88.13
  -1   3  -5 2013.87   85.74
   1  -3   6  584.38   22.20
  -1   3  -6  549.28   31.77
   1  -3   7  679.52   27.67
  -1   3  -7  698.82   33.73
   1  -3   8  558.68   24.51
  -1   3  -8  616.15   36.98
   1  -3   9  236.81   18.10
  -1   3  -9  244.41   24.77
   1  -3  10  161.92   20.32
  -1   3 -10  149.11   19.64
   1  -3  11   20.15   34.76
  -1   3 -11   -5.98   26.05
   1  -2 -13  347.66   38.51
  -1   2  13  312.22   19.21
   1  -2 -12  251.67   22.72
  -1   2  12  189.07   19.73
   1  -2 -11  170.37   26.64
  -1   2  11  141.93   15.80
   1  -2 -10   74.89   14.43
  -1   2  10   45.77   11.87
   1  -2  -9   38.94   11.61
  -1   2   9   29.38   12.64
   1  -2  -8 1959.99   63.02
  -1   2   8 1840.51   55.51
   1  -2  -7 1596.87   53.46
  -1   2   7 1528.04   50.56
   1  -2  -6 3161.89  129.38
  -1   2   6 2935.92  121.78
   1  -2  -5 3840.21  109.65
  -1   2   5 3671.46  105.64
   1  -2  -4 1657.59   52.69
  -1   2   4 1627.19   52.61
   1  -2  -3 2126.00   87.45
  -1   2   3 2256.75   66.95
   1  -2  -2  419.14   16.31
  -1   2   2  393.26   15.20
   1  -2  -1  927.35   31.60
  -1   2   1  939.30   32.79
  -1   2   0 1007.71   37.40
   1  -2   1 1615.49   51.07
  -1   2  -1 1630.35   52.61
   1  -2   2  425.97   19.98
  -1   2  -2  433.91   20.50
   1  -2   3   85.91    7.00
  -1   2  -3  137.75   13.15
   1  -2   4  578.32   24.00
  -1   2  -4  674.48   34.67
   1  -2   5  536.65   30.32
  -1   2  -5  544.50   28.52
   1  -2   6  212.73   12.21
  -1   2  -6  230.58   16.99
   1  -2   7  279.42   15.71
  -1   2  -7  285.57   20.07
   1  -2   8  196.25   15.29
  -1   2  -8  217.00   20.32
   1  -2   9  420.25   24.51
  -1   2  -9  427.59   32.79
   1  -2  10  526.31   38.34
   1  -2  11  401.03   30.23
  -1   2 -11  407.78   30.74
   1  -2  12    5.55   27.41
   1  -1 -13  312.05   25.62
  -1   1  13  287.45   23.57
   1  -1 -12  278.74   25.88
  -1   1  12  317.09   22.20
   1  -1 -11   58.58   17.68
  -1   1  11   58.93   15.29
   1  -1 -10   91.97   14.60
  -1   1  10  132.54   14.35
   1  -1  -9  190.10   21.61
  -1   1   9  234.42   14.86
   1  -1  -8   17.68   15.03
  -1   1   8   18.62    8.97
   1  -1  -7  114.01   16.23
  -1   1   7  122.46    9.82
  -1   1   6  368.24   24.77
   1  -1  -5  311.79   22.46
  -1   1   5  272.42   21.69
   1  -1  -4   29.63    5.89
  -1   1   4   24.17    7.43
   1  -1  -3  407.44   23.83
  -1   1   3  402.40   25.02
   1  -1  -2  807.96   27.84
  -1   1   2  832.98   42.36
   1  -1  -1 9999.00  259.01
  -1   1   1 9936.66  252.01
   1  -1   0  234.93   11.36
  -1   1   0  223.32   10.76
   1  -1   1 3044.12   83.01
  -1   1  -1 3167.61   87.62
   1  -1   2 1495.76   67.98
  -1   1  -2 1448.28   46.20
   1  -1   3 1664.42   56.45
  -1   1  -3 1745.72   80.87
  -1   1  -4 8918.71  340.57
   1  -1   6 1297.55   41.25
  -1   1  -6 1285.17   57.90
   1  -1   7  310.00   14.77
  -1   1  -7  287.54   14.94
   1  -1   8  294.03   20.67
  -1   1  -8  324.09   26.22
   1  -1   9   17.25   19.64
  -1   1  -9   14.69   11.19
   1  -1  10   18.36   15.20
  -1   1 -10   32.88   13.92
   1  -1  11   -2.65   18.53
  -1   1 -11   10.08   16.05
   1  -1  12   32.96   21.09
  -1   1 -12   21.69   19.04
   1   0 -13   28.78   33.90
  -1   0  13   15.88   30.57
   1   0 -11  374.39   32.88
  -1   0  11  332.12   20.84
  -1   0  10 1012.15   52.01
   1   0  -9 1633.08   74.21
  -1   0   8 2680.58  113.92
   1   0  -7  428.45   20.58
  -1   0   7  417.51   20.92
   1   0  -6  745.96   43.55
  -1   0   6  774.91   31.00
   1   0  -5 2077.92   93.60
  -1   0   5 2079.29   65.24
   1   0  -4  835.20   29.04
  -1   0   4  887.72   34.16
  -1   0   3 1267.49   61.06
   1   0  -2 1210.02   52.26
  -1   0   2 1260.91   55.08
   1   0  -1  421.53   22.29
  -1   0   1  404.45   20.67
   1   0   0  627.68   23.40
  -1   0   0  643.05   17.34
  -1   0  -1 1326.07   37.23
   1   0   2    5.12    3.42
  -1   0  -2    2.13    3.42
   1   0   3   11.53    3.59
  -1   0  -3   11.44    5.89
   1   0   4    8.03    4.87
  -1   0  -4   11.10    5.12
   1   0   5  143.04   14.18
  -1   0  -5   84.20   11.79
   1   0   6  790.37   29.55
  -1   0  -6  799.33   29.38
   1   0   7  851.08   31.09
  -1   0  -7  886.44   43.21
   1   0   8  558.08   32.96
  -1   0  -8  539.63   35.36
   1   0   9  632.46   26.39
  -1   0  -9  599.67   24.94
   1   0  10  424.94   23.48
  -1   0 -10  462.43   32.96
   1   0  11  496.08   27.93
  -1   0 -11  489.08   26.90
   1   0  12  624.95   32.96
  -1   0 -12  579.35   56.96
   1   0  13  262.17   38.34
  -1   0 -13  322.04   42.87
   1   1 -12  232.97   24.85
  -1  -1  12  174.38   21.44
  -1  -1  11  384.04   27.16
   1   1 -10  180.28   20.75
  -1  -1  10  174.64   15.20
   1   1  -9   28.01   10.76
  -1  -1   9   15.20   11.19
   1   1  -8    3.25   15.12
  -1  -1   8  -14.43   11.44
  -1  -1   6   22.97    7.94
   1   1  -5   10.85    7.17
  -1  -1   5   15.63    9.14
   1   1  -4   97.35   11.70
  -1  -1   4  129.29   12.72
   1   1  -3 3047.20  137.07
  -1  -1   3 3271.71  101.80
   1   1  -2 4904.45  188.90
   1   1  -1 4682.76  180.79
  -1  -1   1 4664.31  174.47
   1   1   0 3754.04  131.09
  -1  -1   0 3398.44  121.61
   1   1   1 3107.41  109.65
  -1  -1  -1 3111.59   77.54
   1   1   2 4230.57  161.57
  -1  -1  -2 4347.82  111.36
   1   1   3 1217.79   38.86
   1   1   4  797.54   28.52
  -1  -1  -4  820.51   30.40
   1   1   5  710.09   26.90
  -1  -1  -5  721.96   37.15
   1   1   6  872.43   47.31
  -1  -1  -6  842.97   40.39
   1   1   7 1662.88   50.21
  -1  -1  -7 1657.59   68.49
   1   1   8  412.56   19.47
  -1  -1  -8  377.04   22.46
  -1  -1  -9   37.32   16.14
   1   1  10    2.31   12.81
  -1  -1 -10    6.75   11.19
   1   1  11   11.96   14.01
  -1  -1 -11   -1.62   14.18
   1   1  12   29.97   30.91
   1   1  13   53.55   21.44
  -1  -1 -13   26.99   23.74
   1   2 -12   17.42   30.66
  -1  -2  12   97.87   21.44
   1   2 -11  672.86   52.01
  -1  -2  11  636.90   35.18
   1   2 -10  308.89   19.81
  -1  -2  10  277.20   24.17
   1   2  -9  767.56   37.92
  -1  -2   9  766.71   32.71
   1   2  -7  446.64   29.12
  -1  -2   7  424.09   19.98
   1   2  -6 1149.13   56.28
  -1  -2   6 1120.26   41.50
   1   2  -5  510.17   33.82
  -1  -2   5  484.30   28.61
   1   2  -4  365.17   17.68
  -1  -2   4  374.90   16.14
   1   2  -3  410.43   18.62
  -1  -2   3  393.69   26.64
   1   2  -2 4859.28  190.52
  -1  -2   2 5022.22  197.70
   1   2  -1 3017.65   86.51
  -1  -2   1 3054.97  125.88
   1   2   0 1416.68   42.53
  -1  -2   0 1451.78   44.32
   1   2   1 1338.54   39.71
  -1  -2  -1 1376.54   41.85
   1   2   2 3552.59   93.85
  -1  -2  -2 3509.04   93.00
   1   2   3  425.97   16.14
  -1  -2  -3  419.73   16.31
   1   2   4 1370.05   59.01
  -1  -2  -4 1273.55   41.59
   1   2   5  757.49   28.01
  -1  -2  -5  773.37   30.06
  -1  -2  -6  598.90   29.72
   1   2   7  569.10   36.47
  -1  -2  -7  615.04   33.65
   1   2   8  252.35   14.35
  -1  -2  -8  205.55   12.21
   1   2   9 1321.29   44.58
  -1  -2  -9 1174.06   52.69
   1   2  10  370.72   25.71
  -1  -2 -10  393.60   30.23
   1   2  11  620.68   37.06
  -1  -2 -11  627.85   39.45
   1   2  12  438.61   27.50
  -1  -2 -12  442.02   27.67
   1   2  13   92.32   19.90
  -1  -2 -13  105.64   22.89
   1   3 -11   22.63   22.03
  -1  -3  11   82.32   21.01
  -1  -3  10   19.90   21.01
   1   3  -9   32.45   13.75
  -1  -3   9   38.94   14.77
   1   3  -8    9.65   11.44
  -1  -3   8   -9.48   11.79
   1   3  -7   42.87   12.55
  -1  -3   7   65.84   10.76
   1   3  -6  254.49   13.92
  -1  -3   6  246.89   14.43
   1   3  -5  183.95   14.86
  -1  -3   5  192.23   11.10
   1   3  -4  489.42   18.96
  -1  -3   4  470.63   19.90
   1   3  -3  993.96   35.36
  -1  -3   3  937.34   34.33
   1   3  -2  919.32   34.42
  -1  -3   2  840.32   31.17
   1   3  -1 3691.36  106.32
  -1  -3   1 3397.93   98.64
   1   3   0 2192.70   66.78
  -1  -3   0 2170.75   64.99
   1   3   1 1406.69   42.36
  -1  -3  -1 1395.84   42.61
   1   3   2 1566.04   46.97
  -1  -3  -2 1549.39   47.48
   1   3   3 1086.53   45.43
  -1  -3  -3 1016.67   31.00
   1   3   4 1317.87   41.08
  -1  -3  -4 1325.82   39.45
   1   3   5 2286.13   93.51
  -1  -3  -5 2070.32   84.54
   1   3   6 1017.01   49.53
  -1  -3  -6 1035.80   50.04
   1   3   7  489.68   19.47
  -1  -3  -7  552.53   22.29
   1   3   8  306.67   26.13
  -1  -3  -8  335.62   24.94
   1   3   9   33.31   18.96
  -1  -3  -9   44.92   11.61
   1   3  10  141.33   14.60
  -1  -3 -10  231.00   26.64
   1   3  11   32.37   14.43
  -1  -3 -11   18.53   19.98
   1   3  12  235.62   34.59
  -1  -3 -12  149.45   21.86
   1   3  13  119.81   21.95
  -1  -3 -13  110.51   23.48
   1   3  14   49.28   19.56
  -1  -3 -14   45.26   33.73
   1   4 -10  370.29   48.51
  -1  -4  10  293.00   32.37
   1   4  -9  274.04   21.95
  -1  -4   9  265.42   23.40
   1   4  -8  765.51   36.21
  -1  -4   8  746.47   55.08
   1   4  -7 1090.71   57.90
  -1  -4   7 1112.06   42.96
   1   4  -5 1201.90   56.53
   1   4  -4  115.89    9.56
  -1  -4   4  133.05    9.65
   1   4  -3  301.97   13.75
  -1  -4   3  285.83   12.55
   1   4  -2  671.23   26.47
  -1  -4   2  619.82   23.66
   1   4  -1  126.30    8.80
  -1  -4   1  123.57    8.28
   1   4   0  352.78   15.37
  -1  -4   0  356.88   15.29
   1   4   1  114.09   11.79
  -1  -4  -1  108.80    7.09
   1   4   2  880.46   29.29
  -1  -4  -2  907.70   30.23
   1   4   3  354.06   13.66
  -1  -4  -3  346.63   13.92
   1   4   4  628.36   19.73
  -1  -4  -4  604.79   19.04
   1   4   5  490.87   18.87
  -1  -4  -5  485.75   17.93
   1   4   6  283.95   11.96
  -1  -4  -6  254.92   16.74
   1   4   7   65.93   13.32
  -1  -4  -7   68.66   14.01
   1   4   8  459.02   19.73
  -1  -4  -8  422.04   20.50
   1   4   9  914.02   49.87
  -1  -4  -9  907.96   46.80
   1   4  10  991.82   56.36
  -1  -4 -10 1036.74   56.36
   1   4  11 1171.84   41.33
  -1  -4 -11 1105.15   39.45
   1   4  12  413.59   25.62
  -1  -4 -12  444.50   29.29
   1   4  13   75.49   20.75
  -1  -4 -13  120.16   24.00
  -1  -4 -14   26.73   35.01
   1   5  -9  138.00   19.30
  -1  -5   9  123.83   29.29
   1   5  -8   28.27   16.99
  -1  -5   8   15.46   17.25
   1   5  -7   -0.09   12.30
  -1  -5   7   -3.25   13.66
   1   5  -6   12.47   11.02
  -1  -5   6   26.56   11.61
   1   5  -5  254.83   14.43
  -1  -5   5  210.85   20.75
   1   5  -4  543.90   22.20
  -1  -5   4  540.83   27.41
   1   5  -3 1442.81   66.95
  -1  -5   3 1491.49   44.92
   1   5  -2  453.55   18.45
  -1  -5   2  451.59   25.02
   1   5  -1 1826.85   55.17
  -1  -5   1 1774.59   77.80
   1   5   0 1115.31   38.00
  -1  -5   0 1011.72   34.93
   1   5   1 1479.88   45.86
  -1  -5  -1 1387.90   43.21
   1   5   2 2712.18   75.49
  -1  -5  -2 2758.81   77.46
   1   5   3  492.84   17.85
  -1  -5  -3  480.03   16.99
   1   5   4  774.91   24.08
  -1  -5  -4  761.50   23.74
   1   5   5  763.64   24.00
  -1  -5  -5  756.97   33.22
   1   5   6  825.98   28.61
  -1  -5  -6  840.84   28.10
   1   5   7  297.02   15.46
  -1  -5  -7  306.84   15.20
   1   5   8   84.72   16.40
  -1  -5  -8   83.35   11.19
   1   5   9   38.34   24.25
  -1  -5  -9   28.86   12.64
   1   5  10  156.19   14.94
  -1  -5 -10  131.17   16.14
   1   5  11   10.76   15.29
  -1  -5 -11   10.42   15.97
   1   5  12   30.83   29.04
  -1  -5 -12   39.97   27.67
   1   5  13   12.47   18.87
  -1  -5 -13    1.88   30.23
   1   5  14  -17.17   33.56
  -1  -5 -14   -0.17   31.09
   1   6  -8  686.26   51.24
  -1  -6   8  802.66   37.32
   1   6  -7  714.70   33.65
  -1  -6   7  735.88   31.17
   1   6  -6  331.18   19.04
  -1  -6   6  397.70   34.24
   1   6  -5  224.34   15.29
  -1  -6   5  216.32   16.82
   1   6  -4  237.49   16.05
  -1  -6   4  208.29   19.47
   1   6  -3  252.95   14.01
  -1  -6   3  275.75   20.32
   1   6  -2  153.03   11.70
  -1  -6   2  135.27   11.79
   1   6  -1   53.12    8.37
  -1  -6   1   52.18    9.74
   1   6   0   -4.01   10.85
  -1  -6   0    4.61    7.86
   1   6   1   37.92    7.52
  -1  -6  -1   49.10   10.08
   1   6   2   46.37    7.09
  -1  -6  -2   51.75    7.17
   1   6   3   12.38    7.34
  -1  -6  -3   20.32    7.34
   1   6   4  927.94   45.35
  -1  -6  -4  989.86   42.96
   1   6   5 1185.85   33.82
  -1  -6  -5 1277.48   36.29
   1   6   6 1110.53   33.99
  -1  -6  -6 1128.72   32.96
   1   6   7  684.56   24.68
  -1  -6  -7  664.83   35.53
   1   6   8  860.48   45.94
  -1  -6  -8  874.57   31.26
   1   6   9  732.47   43.89
  -1  -6  -9  719.40   29.12
   1   6  10  389.50   32.62
  -1  -6 -10  369.61   30.66
   1   6  11  358.59   36.21
  -1  -6 -11  368.41   22.46
   1   6  12  144.75   40.22
  -1  -6 -12  145.78   28.78
   1   6  13  187.88   26.05
  -1  -6 -13  187.02   40.22
   1   7  -7   13.75   21.69
  -1  -7   7    4.01   25.71
   1   7  -6   47.40   17.85
  -1  -7   6   24.59   20.67
   1   7  -5  128.27   18.19
  -1  -7   5  126.65   20.41
   1   7  -4  723.75   42.96
  -1  -7   4  741.35   52.26
   1   7  -3  910.27   53.12
  -1  -7   3 1008.99   50.90
   1   7  -2 1182.26   59.86
  -1  -7   2 1128.46   65.33
   1   7  -1  979.27   51.84
  -1  -7   1 1042.29   35.36
   1   7   0  133.48   11.19
  -1  -7   0  154.74   18.36
   1   7   1  240.74   14.69
  -1  -7  -1  263.97   16.23
   1   7   2  470.80   20.15
  -1  -7  -2  460.21   19.30
   1   7   3  879.09   28.27
  -1  -7  -3  898.57   30.83
   1   7   4 1370.48   40.91
  -1  -7  -4 1410.28   43.98
   1   7   5 1260.66   38.17
  -1  -7  -5 1230.43   49.87
   1   7   6   56.19   13.24
  -1  -7  -6   48.16   11.96
   1   7   7   43.64   13.15
  -1  -7  -7   54.74   13.49
   1   7   8   66.01   20.50
  -1  -7  -8   25.96   19.47
   1   7   9   29.89   28.86
  -1  -7  -9   10.76   27.33
   1   7  10   56.53   33.13
  -1  -7 -10   74.81   20.67
   1   7  11    1.71   30.23
  -1  -7 -11   -5.47   19.13
  -1  -7 -12   76.35   25.53
  -1  -7 -13   19.98   32.02
   1   8  -6  151.07   30.23
   1   8  -5  226.56   21.95
  -1  -8   5  225.88   25.28
   1   8  -4  176.78   23.74
  -1  -8   4  119.56   22.20
   1   8  -3   55.34   16.82
  -1  -8   3   68.06   17.76
   1   8  -2   26.56   14.77
  -1  -8   2   33.73   15.12
   1   8  -1   93.08   19.30
  -1  -8   1   77.63   19.39
   1   8   0   18.70   12.55
  -1  -8   0   -1.88   13.49
   1   8   1   16.82   10.59
  -1  -8  -1   12.47   12.13
   1   8   2  274.81   16.91
  -1  -8  -2  288.99   17.51
   1   8   3  668.50   30.15
  -1  -8  -3  649.71   27.24
   1   8   4  813.25   34.50
  -1  -8  -4  810.61   33.99
   1   8   5  676.53   25.79
  -1  -8  -5  656.29   25.36
   1   8   6  243.30   25.79
  -1  -8  -6  220.84   27.84
   1   8   7  605.73   39.71
  -1  -8  -7  611.03   43.04
   1   8   8  315.46   21.78
  -1  -8  -8  286.26   32.79
   1   8   9  210.34   22.37
  -1  -8  -9  203.59   22.89
   1   8  10  265.85   35.53
   1   8  11  161.15   43.13
  -1  -8 -11   68.32   34.33
   1   8  12  299.84   64.13
  -1  -8 -12  336.30   61.40
   1   9  -4   89.50   38.43
  -1  -9   4  187.36   33.56
   1   9  -3  116.91   37.49
  -1  -9   3   79.51   34.76
   1   9  -2  125.02   18.45
  -1  -9   2   99.57   22.55
   1   9  -1  500.27   31.09
  -1  -9   1  504.79   30.91
   1   9   0  563.46   28.61
  -1  -9   0  596.08   27.07
   1   9   1  973.63   69.77
   1   9   2  364.40   23.06
  -1  -9  -2  397.10   25.96
   1   9   3  105.47   15.46
  -1  -9  -3  131.68   17.25
   1   9   4   95.65   15.46
  -1  -9  -4   96.76   16.57
   1   9   5  303.17   20.75
  -1  -9  -5  265.33   20.92
   1   9   6  269.86   21.09
  -1  -9  -6  278.74   21.86
   1   9   7  142.87   19.30
  -1  -9  -7  127.41   19.73
   1   9   8   76.94   20.24
  -1  -9  -8   67.04   19.73
   1   9   9  238.86   24.59
  -1  -9  -9  228.36   25.28
   1   9  10   65.67   20.67
  -1  -9 -10   49.87   24.51
   1   9  11   27.84   22.46
  -1  -9 -11   19.90   30.57
   1  10  -1  -20.24   38.17
  -1 -10   1    5.04   28.95
   1  10   0   25.88   19.47
  -1 -10   0   35.44   27.24
   1  10   1   31.68   18.28
  -1 -10  -1   55.08   21.61
   1  10   2  209.91   20.92
  -1 -10  -2  243.98   23.31
   1  10   3   95.39   19.98
  -1 -10  -3   89.75   21.61
   1  10   4  128.10   23.40
  -1 -10  -4  123.49   23.31
   1  10   5   61.49   19.13
  -1 -10  -5   37.83   19.73
   1  10   6  256.88   26.82
  -1 -10  -6  231.26   28.01
   1  10   7  256.45   25.88
  -1 -10  -7  266.96   28.01
   1  10   8  309.23   27.24
  -1 -10  -8  299.32   25.45
   1  10   9  272.51   33.90
  -1 -10  -9  327.08   32.28
   1  11   5   35.10   31.60
  -1 -11  -5   73.53   35.61
   2 -10  -6   94.02   27.50
  -2  10   6  154.49   25.96
   2 -10  -5  154.32   27.41
  -2  10   5  160.89   28.69
   2 -10  -4  205.98   25.45
  -2  10   4  172.93   26.39
   2 -10  -3   98.55   25.02
  -2  10   3   98.12   22.89
   2 -10  -2   -0.85   22.03
  -2  10   2    4.61   21.01
   2 -10  -1    7.17   23.74
  -2  10   1    8.03   20.67
   2  -9  -9  143.30   40.65
  -2   9   9  142.87   39.80
   2  -9  -8  -17.42   32.20
  -2   9   8   31.68   31.26
   2  -9  -7  176.01   41.08
  -2   9   7  170.03   23.31
   2  -9  -6   65.42   33.73
  -2   9   6   66.35   20.92
   2  -9  -5  329.64   36.89
  -2   9   5  314.61   23.06
   2  -9  -4  872.26   60.38
  -2   9   4  802.24   33.82
   2  -9  -3  702.15   56.19
  -2   9   3  596.25   33.90
   2  -9  -2  929.65   77.37
  -2   9   2  842.54   52.78
   2  -9  -1  687.72   49.62
  -2   9   1  673.45   35.87
   2  -9   0  459.36   40.65
  -2   9   0  435.79   26.82
  -2   9  -1   97.95   18.70
   2  -9   2   -6.58   26.22
  -2   9  -2  372.59   41.33
   2  -8 -11  505.56   49.79
  -2   8  11  562.27   56.28
   2  -8 -10   69.60   33.99
  -2   8  10   66.78   34.59
   2  -8  -9  135.95   24.94
  -2   8   9  144.84   40.22
   2  -8  -8  413.42   26.47
  -2   8   8  422.47   38.00
   2  -8  -7 1599.01   57.22
  -2   8   7 1592.86   78.23
   2  -8  -6 1235.72   43.04
  -2   8   6 1135.38   56.02
   2  -8  -5  321.78   22.80
  -2   8   5  340.66   32.11
   2  -8  -4   -2.31   15.29
  -2   8   4   21.35   19.13
   2  -8  -3  357.31   24.34
  -2   8   3  359.53   21.18
   2  -8  -2   42.27   14.09
  -2   8   2   44.07   14.69
   2  -8  -1   -0.43   14.52
  -2   8   1   11.87   15.63
   2  -8   0   11.79   23.14
  -2   8   0   14.69   13.41
   2  -8   1   41.33   28.35
  -2   8  -1   86.42   16.99
   2  -8   2  126.82   30.74
  -2   8  -2  103.50   18.87
  -2   8  -3  241.76   20.32
   2  -8   4  476.61   53.97
  -2   8  -4  570.29   43.55
  -2   8  -5  210.68   43.72
   2  -7 -12   11.27   33.99
  -2   7  12    7.69   38.69
   2  -7 -11   16.57   34.93
  -2   7  11   54.83   35.78
   2  -7 -10   31.00   22.46
  -2   7  10  -16.14   31.00
   2  -7  -9   80.27   19.13
  -2   7   9   71.39   18.36
   2  -7  -8   81.47   17.25
  -2   7   8   97.18   16.57
   2  -7  -7  360.98   30.32
  -2   7   7  322.89   29.12
   2  -7  -6  645.70   36.04
  -2   7   6  714.36   41.33
   2  -7  -5  671.83   27.75
  -2   7   5  730.24   41.42
   2  -7  -4 1695.17   54.48
  -2   7   4 1761.09   77.29
   2  -7  -3 1645.81   50.90
  -2   7   3 1580.73   84.20
   2  -7  -2 1501.65   44.92
  -2   7   2 1447.94   74.47
   2  -7  -1  888.74   52.52
   2  -7   0  435.88   22.12
  -2   7   0  461.67   27.07
   2  -7   1  430.07   23.66
  -2   7  -1  412.73   33.82
   2  -7   2  632.98   27.50
  -2   7  -2  603.17   42.87
   2  -7   3  212.05   20.15
  -2   7  -3  142.45   22.46
   2  -7   4  125.88   26.13
  -2   7  -4   90.86   17.51
   2  -7   5  179.85   24.34
  -2   7  -5  101.71   28.35
   2  -7   6  -23.57   35.78
  -2   7  -6    7.00   22.80
   2  -6 -12  144.15   29.46
   2  -6 -11  316.06   36.29
  -2   6  11  296.42   38.26
   2  -6 -10  767.99   33.99
   2  -6  -9  849.29   38.00
  -2   6   9  810.43   31.26
   2  -6  -8 1242.55   46.46
  -2   6   8 1279.96   45.35
   2  -6  -7  355.43   18.96
  -2   6   7  350.90   24.08
   2  -6  -6  119.22   12.64
  -2   6   6  106.07   11.44
   2  -6  -5  133.99   12.38
  -2   6   5  152.95   17.93
   2  -6  -4   67.72    9.74
  -2   6   4   60.97    8.88
   2  -6  -3  626.74   24.25
  -2   6   3  597.96   23.14
   2  -6  -2   48.08    9.31
  -2   6   2   54.23    8.54
   2  -6  -1  172.76   14.09
  -2   6   1  157.73   11.02
   2  -6   0  462.01   20.41
  -2   6   0  469.35   20.67
   2  -6   1  407.61   17.51
  -2   6  -1  403.77   17.68
   2  -6   2   52.95   20.92
  -2   6  -2   14.18   15.88
   2  -6   3 1110.01   40.91
  -2   6  -3 1078.84   37.06
   2  -6   4 1494.99   56.19
  -2   6  -4 1516.68   72.33
   2  -6   6 1238.97   51.67
   2  -6   7  178.65   24.08
  -2   6  -7  133.48   22.63
   2  -6   8  -30.57   28.95
  -2   6  -8  173.19   29.55
   2  -5 -13   23.91   33.31
  -2   5  13   31.77   31.00
   2  -5 -12    9.99   21.18
  -2   5  12   18.53   17.68
   2  -5 -11   -7.34   17.59
  -2   5  11   18.28   14.69
   2  -5 -10   97.70   16.82
  -2   5  10   69.94   13.92
   2  -5  -9  832.47   34.50
  -2   5   9  774.40   30.15
   2  -5  -8 1156.30   43.89
  -2   5   8 1049.55   38.00
   2  -5  -7  993.61   49.87
  -2   5   7  899.85   47.31
   2  -5  -6  923.16   31.94
  -2   5   6  916.59   30.74
   2  -5  -5  360.90   15.54
  -2   5   5  345.61   16.14
   2  -5  -4  976.88   29.63
  -2   5   4  985.33   29.80
   2  -5  -3 1862.29   56.88
  -2   5   3 1814.64   54.14
   2  -5  -2 1275.77   40.22
  -2   5   2 1339.14   43.55
   2  -5  -1 1993.12   95.90
  -2   5   1 1963.23   93.26
   2  -5   0 1019.41   55.85
  -2   5   0 1073.55   37.06
   2  -5   1  422.55   29.12
  -2   5  -1  483.95   33.48
   2  -5   2  418.20   19.90
  -2   5  -2  420.85   19.73
   2  -5   3  106.92   13.58
  -2   5  -3  134.84   17.08
   2  -5   4  736.82   29.04
  -2   5  -4  711.29   27.93
   2  -5   5  359.61   20.32
  -2   5  -5  335.28   20.32
   2  -5   6   13.75   21.61
  -2   5  -6   37.75   10.33
   2  -5   7   -3.42   19.39
  -2   5  -7   15.88   20.75
   2  -5   8  248.94   26.73
  -2   5  -8  239.29   22.97
   2  -5   9   90.27   25.96
  -2   5  -9   87.11   22.97
   2  -4 -13  213.58   36.47
  -2   4  13  188.82   20.58
   2  -4 -12  395.91   26.64
  -2   4  12  392.92   24.77
   2  -4 -11  688.57   31.60
  -2   4  11  664.06   32.54
   2  -4 -10  452.36   25.79
  -2   4  10  480.54   25.96
   2  -4  -9  474.65   36.04
  -2   4   9  533.23   23.83
   2  -4  -8  858.26   30.40
  -2   4   8  838.79   28.78
   2  -4  -7  620.59   25.45
  -2   4   7  539.04   30.66
   2  -4  -6  349.37   16.31
  -2   4   6  361.32   16.82
   2  -4  -5  272.08   12.30
  -2   4   5  255.17   11.87
   2  -4  -4   80.62    6.92
  -2   4   4   68.66    6.75
   2  -4  -3   78.14    6.58
  -2   4   3   97.44    6.92
   2  -4  -2   29.97    5.29
  -2   4   2   36.29    5.55
   2  -4  -1   15.71    5.89
  -2   4   1   20.92    5.81
   2  -4   0  150.99    9.56
  -2   4   0  162.43   10.25
   2  -4   1 1253.91   45.94
  -2   4  -1 1270.48   43.98
   2  -4   2 2507.31   71.82
  -2   4  -2 2446.33   71.31
   2  -4   3 3634.40  101.54
  -2   4  -3 3631.33  101.71
   2  -4   4  833.49   30.66
  -2   4  -4  828.71   30.32
   2  -4   5  171.14   12.98
  -2   4  -5  137.92   17.68
   2  -4   6  442.02   21.52
  -2   4  -6  414.78   19.64
   2  -4   7  669.44   38.77
  -2   4  -7  648.95   36.81
   2  -4   8  824.01   36.81
  -2   4  -8  787.97   36.04
   2  -4   9  668.33   34.59
  -2   4  -9  679.60   33.56
   2  -4  10  103.76   26.64
  -2   4 -10   88.99   23.48
   2  -3 -13   26.05   21.44
  -2   3  13   -0.26   17.08
   2  -3 -12  -31.26   29.97
  -2   3  12   14.26   16.91
   2  -3 -11   97.18   16.23
  -2   3  11   55.08   14.35
   2  -3 -10  199.92   22.63
  -2   3  10  219.99   26.99
   2  -3  -9 1424.54   50.64
  -2   3   9 1340.59   60.46
   2  -3  -8  216.83   19.21
  -2   3   8  226.31   21.01
   2  -3  -7  505.22   20.41
  -2   3   7  477.46   28.52
   2  -3  -6  408.38   18.02
  -2   3   6  392.83   16.99
   2  -3  -5  270.63   12.55
  -2   3   5  270.29   13.41
   2  -3  -4 3116.29   84.89
  -2   3   4 3133.45  117.25
   2  -3  -3 2175.28   64.99
  -2   3   3 2244.54   65.16
   2  -3  -2 2637.54  114.09
  -2   3   2 2741.98   81.30
   2  -3  -1 2656.50  110.34
   2  -3   0 4711.96  133.22
  -2   3   0 4814.95  138.18
   2  -3   1 1637.44   55.51
  -2   3  -1 1628.30   57.73
  -2   3  -2  870.38   28.95
   2  -3   3  171.05   10.67
  -2   3  -3  182.67   11.02
   2  -3   4   86.85   12.98
  -2   3  -4   81.81    7.52
   2  -3   5   36.81    8.80
  -2   3  -5   31.09    8.20
   2  -3   6   19.81    9.74
  -2   3  -6   14.09    8.80
   2  -3   7   -8.11   12.04
  -2   3  -7    9.14   13.92
   2  -3   8   41.08   16.82
  -2   3  -8   51.24   18.62
   2  -3   9  222.98   28.18
  -2   3  -9  188.05   28.44
   2  -3  11  347.49   44.24
  -2   3 -11  324.09   45.69
   2  -2 -13  431.52   34.16
  -2   2  13  488.22   31.77
   2  -2 -12  173.79   30.91
  -2   2  12  206.92   18.79
   2  -2 -11  340.06   26.64
  -2   2  11  355.69   22.20
   2  -2 -10  555.26   28.69
  -2   2  10  532.55   24.94
   2  -2  -9  684.90   28.86
  -2   2   9  699.76   37.66
   2  -2  -8 1021.63   36.81
  -2   2   8 1045.37   35.36
   2  -2  -7  101.37   10.59
  -2   2   7  147.48   13.66
   2  -2  -6    7.86    6.49
  -2   2   6   32.28    6.49
   2  -2  -5   27.41    5.89
  -2   2   5   12.64    5.55
   2  -2  -4  133.56    8.37
  -2   2   4  137.32   11.27
   2  -2  -3   11.96    3.84
  -2   2   3    4.61    3.93
   2  -2  -2  395.91   16.31
  -2   2   2  400.09   15.46
   2  -2  -1  244.24   11.70
  -2   2   1  256.88   11.96
   2  -2   0  444.76   18.02
  -2   2   0  494.63   20.24
   2  -2   1  324.34   15.54
  -2   2  -1  334.59   23.48
   2  -2   2 1627.10   73.87
  -2   2  -2 1641.11   52.01
   2  -2   3 3051.64   94.71
  -2   2  -3 3233.37   96.93
   2  -2   4 1851.70   57.56
  -2   2  -4 1915.15   59.18
   2  -2   5 1913.19   79.68
   2  -2   6  773.03   38.69
  -2   2  -6  737.33   37.23
   2  -2   7  750.40   38.09
  -2   2  -7  741.01   27.84
   2  -2   8  337.58   19.73
  -2   2  -8  364.74   19.13
   2  -2   9  769.36   31.68
  -2   2  -9  736.14   29.89
   2  -2  10  515.21   28.44
  -2   2 -10  509.75   27.33
   2  -2  11  102.48   28.78
   2  -2  12  160.55   44.49
  -2   2 -12   88.47   28.10
   2  -1 -13   11.36   22.37
  -2   1  13   -0.85   20.32
   2  -1 -12   39.37   21.26
  -2   1  12   24.25   15.88
   2  -1 -11  306.67   24.17
  -2   1  11  289.33   21.52
   2  -1 -10  270.63   18.45
  -2   1  10  273.53   22.89
   2  -1  -9  175.32   14.35
  -2   1   9  139.46   11.44
   2  -1  -8   33.65   12.04
  -2   1   8   17.08    6.83
   2  -1  -7 1046.39   51.50
   2  -1  -6 2833.19   83.95
  -2   1   6 2626.10  108.97
   2  -1  -5 2935.41  126.99
  -2   1   5 2950.61  128.10
   2  -1  -3 1101.39   36.21
  -2   1   3 1120.18   57.05
  -2   1   1 5859.72  214.18
   2  -1   0 3151.56   86.08
  -2   1   0 3146.69   87.11
   2  -1   1  218.88   14.18
  -2   1  -1  209.82   10.42
   2  -1   2   19.90    4.95
  -2   1  -2   15.97    3.84
   2  -1   3   15.63    4.70
  -2   1  -3   13.92    4.01
   2  -1   4   46.46    6.49
  -2   1  -4   40.82    5.55
   2  -1   5  602.23   22.46
  -2   1  -5  622.47   24.08
   2  -1   6    9.48    7.17
  -2   1  -6    8.88    7.34
   2  -1   7   25.96   12.64
  -2   1  -7   27.24   14.09
   2  -1   8  121.27   17.34
  -2   1  -8  143.73   20.84
   2  -1   9  261.92   18.53
  -2   1  -9  250.56   17.51
   2  -1  10  547.92   34.50
  -2   1 -10  481.39   35.10
   2  -1  11  456.37   38.86
  -2   1 -11  401.63   39.97
   2  -1  12  219.90   24.08
  -2   1 -12  161.06   38.69
   2   0 -13   94.11   49.45
  -2   0  13  233.74   48.68
   2   0 -12  236.21   31.85
  -2   0  12  258.84   22.97
   2   0 -11  122.72   18.96
  -2   0  11  143.56   15.54
  -2   0  10  174.81   23.83
   2   0  -9  170.97   21.78
  -2   0   9  207.18   14.43
   2   0  -8  243.47   21.69
  -2   0   8  239.03   15.03
   2   0  -7  998.65   51.41
  -2   0   7 1042.89   37.75
  -2   0   6  203.76   11.87
   2   0  -5  186.94   11.27
  -2   0   5  180.19   11.70
  -2   0   4  441.51   20.15
  -2   0   3 1009.50   52.01
   2   0  -2  438.10   21.52
   2   0  -1  526.65   17.34
  -2   0   1  538.95   25.71
   2   0   0   32.96    2.56
  -2   0   0   35.61    2.13
   2   0   1 5507.79  190.01
   2   0   2 3460.79   93.77
  -2   0  -2 3350.36   85.83
   2   0   5 1244.43   40.22
  -2   0  -5 1263.90   39.97
   2   0   6 1977.66   82.07
  -2   0  -6 1981.85   82.15
   2   0   8  358.93   25.45
   2   0   9  121.44   13.66
  -2   0  -9  112.04   12.04
   2   0  10   83.18   24.59
  -2   0 -10   57.39   13.83
   2   0  11   64.99   24.59
  -2   0 -11   67.47   29.04
   2   0  12   98.46   21.61
  -2   0 -12  125.28   19.90
   2   0  13   17.68   21.26
  -2   0 -13   35.27   38.26
   2   1 -12   22.89   27.33
  -2  -1  12   26.64   22.80
   2   1 -11   97.61   19.90
  -2  -1  11   63.37   27.33
  -2  -1  10  444.67   21.95
   2   1  -8  748.78   30.57
  -2  -1   8  705.82   29.38
   2   1  -7  980.98   48.16
  -2  -1   7  963.21   33.39
  -2  -1   5  717.18   26.47
   2   1  -4 1857.59   89.24
  -2  -1   4 1763.06   78.74
  -2  -1   1  424.43   20.41
  -2  -1   0   78.65    4.10
   2   1   1 1130.00   38.17
  -2  -1  -1 1198.57   39.88
   2   1   6 1557.33   69.94
   2   1   7  462.35   26.47
  -2  -1  -7  408.72   24.68
   2   1   8  582.85   22.80
  -2  -1  -8  593.86   23.31
   2   1   9  251.24   22.80
  -2  -1  -9  257.82   24.08
   2   1  10  618.46   36.81
   2   1  11  192.83   25.62
  -2  -1 -11  183.69   29.12
  -2  -1 -12  131.86   33.65
   2   1  13  252.27   32.79
   2   2 -11  234.08   26.13
  -2  -2  11  287.88   22.37
   2   2 -10  788.40   40.39
  -2  -2  10  776.96   40.91
   2   2  -9  337.24   20.58
  -2  -2   9  307.61   21.18
   2   2  -8  263.37   17.17
  -2  -2   8  266.70   17.76
   2   2  -7   97.44   11.02
  -2  -2   7   76.26    9.99
   2   2  -6   73.44   14.94
  -2  -2   6   39.71   10.25
   2   2  -5   11.19    6.49
  -2  -2   5    4.87    6.32
   2   2  -4  126.30   11.02
  -2  -2   4  124.34   11.70
   2   2  -3  770.04   27.41
  -2  -2   3  749.72   39.37
   2   2  -2 2153.59   91.46
  -2  -2   2 2110.29   94.02
   2   2  -1 1198.74   50.73
  -2  -2   1 1221.29   37.32
   2   2   0  360.64   13.66
  -2  -2   0  358.67   12.98
   2   2   1  339.89   11.70
   2   2   2   43.64    3.16
  -2  -2  -2   42.96    3.93
   2   2   6  940.58   45.09
  -2  -2  -6  895.49   44.66
   2   2   7  177.46   11.44
  -2  -2  -7  209.23   17.51
   2   2   8   11.79   14.01
  -2  -2  -8   25.02   12.90
   2   2   9  373.36   18.79
  -2  -2  -9  377.04   26.47
   2   2  10  642.37   28.61
  -2  -2 -10  651.25   28.35
   2   2  11  184.97   19.56
  -2  -2 -11  222.04   21.35
   2   2  12   75.32   20.58
  -2  -2 -12  109.99   29.38
   2   2  13   22.20   31.17
  -2  -2 -13  -23.06   29.29
  -2  -2 -14    7.69   30.40
   2   3 -11  142.02   44.75
  -2  -3  11  288.90   30.83
   2   3 -10   92.83   16.31
  -2  -3  10  102.22   19.56
   2   3  -9  370.29   21.69
  -2  -3   9  387.11   22.63
   2   3  -8  419.91   27.50
  -2  -3   8  473.54   29.63
  -2  -3   7  622.22   33.22
   2   3  -5  463.63   20.24
  -2  -3   5  474.30   19.30
   2   3  -4  756.80   35.70
  -2  -3   4  784.22   39.54
   2   3  -3  956.55   45.43
  -2  -3   3  952.88   32.20
   2   3  -2 1540.59   59.18
  -2  -3   2 1542.39   63.28
   2   3  -1 3547.72   94.37
  -2  -3   1 3318.94   90.69
   2   3   0 1988.77   57.64
  -2  -3   0 1935.05   79.25
   2   3   1  644.50   21.44
  -2  -3  -1  626.74   21.44
   2   3   2    1.79    2.73
  -2  -3  -2    6.15    3.07
   2   3   3 1076.37   32.62
  -2  -3  -3 1040.67   29.97
   2   3   4  780.37   26.05
  -2  -3  -4  764.92   24.51
  -2  -3  -5    4.10    7.26
   2   3   6   12.04    8.80
  -2  -3  -6    9.14    6.06
   2   3   7   98.55    9.14
  -2  -3  -7   72.93   12.55
   2   3   8  246.20   13.15
  -2  -3  -8  245.35   19.39
   2   3   9  866.80   41.33
  -2  -3  -9  885.33   31.51
   2   3  10  475.24   21.61
  -2  -3 -10  461.84   21.86
   2   3  11  133.22   21.95
   2   3  12  219.56   30.40
  -2  -3 -12  176.78   23.40
   2   3  13  161.32   21.95
  -2  -3 -13  208.89   42.36
   2   4 -10  255.60   29.55
  -2  -4  10  391.55   28.61
  -2  -4   9    0.77   19.64
   2   4  -8  114.52   19.56
  -2  -4   8  116.91   22.03
  -2  -4   7    8.11   16.57
   2   4  -6   63.02   13.58
  -2  -4   6   57.30   12.55
   2   4  -5    1.96    9.65
  -2  -4   5    7.17    8.63
   2   4  -4  381.65   15.46
  -2  -4   4  407.44   23.57
   2   4  -3   28.95    6.40
  -2  -4   3   20.50    6.23
   2   4  -2   29.63    5.72
  -2  -4   2   21.78    7.26
   2   4  -1   21.01    5.21
  -2  -4   1   17.42    4.78
   2   4   0 1701.74   51.50
  -2  -4   0 1561.26   48.42
   2   4   1 4932.12  129.04
  -2  -4  -1 4721.95  173.02
   2   4   2 2600.05   69.00
  -2  -4  -2 2636.09   96.84
   2   4   3 2662.73  100.51
  -2  -4  -3 2681.61   99.49
   2   4   4  262.43   10.67
  -2  -4  -4  272.00   14.60
   2   4   5  484.30   17.17
  -2  -4  -5  498.99   26.22
   2   4   6  776.70   35.95
  -2  -4  -6  787.21   25.36
   2   4   7 1514.21   46.46
  -2  -4  -7 1564.93   47.91
   2   4   8  470.46   25.02
  -2  -4  -8  511.54   21.61
   2   4   9  138.77   23.83
  -2  -4  -9  153.97   13.15
   2   4  10   99.15   13.92
  -2  -4 -10   92.74   18.28
   2   4  11   65.07   16.40
  -2  -4 -11   40.22   15.80
   2   4  12   39.45   16.65
  -2  -4 -12   30.23   18.02
   2   4  13    8.37   22.37
   2   5  -9  868.76   49.70
  -2  -5   9  854.59   38.69
   2   5  -8  568.41   40.22
  -2  -5   8  534.08   53.29
   2   5  -7  313.58   19.64
  -2  -5   7  324.09   21.18
   2   5  -6  266.53   21.61
  -2  -5   6  274.64   17.42
   2   5  -5  291.98   16.57
  -2  -5   5  274.98   15.80
   2   5  -4  775.42   28.61
   2   5  -3 1791.32   74.64
   2   5  -2  756.97   26.56
  -2  -5   2  762.87   26.39
   2   5  -1  232.97   15.97
  -2  -5   1  256.62   18.87
   2   5   0   77.54   10.16
  -2  -5   0   97.53   10.67
   2   5   1   41.33    6.23
  -2  -5  -1   35.95    6.32
   2   5   2   -3.42    4.61
  -2  -5  -2    2.56    4.61
   2   5   3   37.83    5.21
  -2  -5  -3   35.61    5.47
   2   5   4    5.12    5.29
  -2  -5  -4   -0.85    6.23
   2   5   5   31.00    5.81
  -2  -5  -5   38.43    6.40
   2   5   6   11.87    6.58
  -2  -5  -6    5.29    8.03
   2   5   7  172.51   18.70
  -2  -5  -7  158.76   10.67
   2   5   8  517.60   32.28
  -2  -5  -8  497.28   20.58
   2   5   9  769.61   27.50
  -2  -5  -9  743.57   29.89
   2   5  10  597.79   42.78
  -2  -5 -10  629.13   25.88
   2   5  11  390.36   23.06
  -2  -5 -11  350.99   23.31
   2   5  12  476.10   42.27
  -2  -5 -12  546.04   41.93
   2   5  13  142.79   38.17
  -2  -5 -13   76.09   32.37
   2   6  -8  146.72   43.55
  -2  -6   8  187.02   33.56
   2   6  -7   64.99   17.59
  -2  -6   7   48.68   19.39
   2   6  -6   -9.05   16.40
  -2  -6   6   -5.47   19.73
   2   6  -5   27.84   12.38
  -2  -6   5   37.15   13.07
   2   6  -4  159.61   13.49
  -2  -6   4  174.64   14.09
   2   6  -3  288.56   20.15
  -2  -6   3  287.11   16.23
   2   6  -2  331.77   15.29
  -2  -6   2  338.09   17.34
   2   6  -1  921.97   33.73
  -2  -6   1  897.54   31.68
   2   6   0 1224.45   37.23
  -2  -6   0 1137.00   36.89
   2   6   1  434.08   25.79
  -2  -6  -1  422.21   25.96
   2   6   2  566.02   19.98
  -2  -6  -2  600.18   20.67
   2   6   3  846.30   26.13
  -2  -6  -3  863.38   28.18
   2   6   4 1201.65   34.59
  -2  -6  -4 1230.00   34.07
   2   6   5  809.24   33.90
  -2  -6  -5  819.40   33.82
   2   6   6  327.16   14.18
  -2  -6  -6  312.73   13.83
   2   6   7  152.61   19.04
  -2  -6  -7  157.48   20.32
   2   6   8   13.49   15.37
  -2  -6  -8   10.59   11.10
   2   6   9  420.93   29.63
  -2  -6  -9  448.60   22.46
   2   6  10  155.77   28.78
  -2  -6 -10  188.73   23.06
   2   6  11   12.81   30.66
  -2  -6 -11   19.98   22.72
   2   6  12   -0.43   29.72
  -2  -6 -12    2.56   27.41
   2   6  13   39.54   37.32
  -2  -6 -13  -15.20   28.86
   2   7  -7  415.47   29.89
  -2  -7   7  400.35   28.86
   2   7  -6  456.37   45.60
  -2  -7   6  621.11   39.20
   2   7  -5  582.93   38.60
  -2  -7   5  518.03   39.37
   2   7  -4  302.40   18.79
  -2  -7   4  253.72   33.90
   2   7  -3  155.60   15.54
  -2  -7   3  142.87   21.61
   2   7  -2  133.56   13.92
  -2  -7   2  130.57   14.09
   2   7  -1  166.19   13.75
  -2  -7   1  155.85   12.64
   2   7   0  744.42   28.27
  -2  -7   0  683.02   27.84
   2   7   1   -0.94    8.80
  -2  -7  -1   -6.75    9.14
   2   7   2   11.87   12.38
  -2  -7  -2   13.15    9.22
   2   7   3   16.05    8.63
  -2  -7  -3   22.72    9.56
   2   7   4  129.12   11.02
  -2  -7  -4  132.20   10.93
   2   7   5    7.86    8.71
  -2  -7  -5    6.92    9.48
   2   7   6  433.83   19.21
  -2  -7  -6  463.80   20.32
   2   7   7  429.81   21.61
  -2  -7  -7  424.09   20.84
   2   7   8  603.68   24.85
  -2  -7  -8  619.23   25.28
   2   7   9  363.80   32.45
  -2  -7  -9  382.42   23.14
   2   7  10  287.88   31.60
  -2  -7 -10  276.44   33.31
   2   7  11  348.51   36.98
  -2  -7 -11  360.38   25.53
   2   8  -6   41.67   18.53
  -2  -8   6    6.40   32.20
   2   8  -5   75.92   22.97
  -2  -8   5  100.17   24.68
   2   8  -4  326.39   26.64
  -2  -8   4  338.69   26.73
  -2  -8   3  217.00   31.43
   2   8  -2  227.59   18.87
  -2  -8   2  233.05   20.24
   2   8  -1  162.26   16.31
  -2  -8   1  187.19   17.76
   2   8   0  167.72   15.37
  -2  -8   0  176.35   19.81
   2   8   1  180.96   14.77
  -2  -8  -1  182.41   16.31
   2   8   2  692.41   28.27
  -2  -8  -2  671.41   27.41
   2   8   3  968.42   35.95
  -2  -8  -3  957.32   37.40
   2   8   4  802.07   29.21
  -2  -8  -4  827.43   31.68
   2   8   5  603.00   24.17
  -2  -8  -5  591.64   25.02
   2   8   6  178.23   23.74
  -2  -8  -6  173.36   24.85
   2   8   7  242.87   17.59
  -2  -8  -7  255.60   17.93
   2   8   8   65.93   16.05
  -2  -8  -8   64.05   17.25
   2   8   9  141.16   30.57
  -2  -8  -9  107.77   33.13
   2   8  10  -13.15   31.51
  -2  -8 -10    8.80   27.93
   2   8  11   -3.84   28.52
  -2  -8 -11    9.82   22.55
   2   8  12    4.44   18.28
  -2  -8 -12   10.59   23.91
   2   9  -4   96.67   41.93
  -2  -9   4  156.45   40.31
   2   9  -3  461.07   33.65
  -2  -9   3  466.28   39.45
   2   9  -2   33.39   33.99
  -2  -9   2   29.63   29.97
   2   9  -1   39.97   16.91
  -2  -9   1   38.43   18.45
   2   9   0    1.62   14.60
  -2  -9   0    6.66   18.96
   2   9   1   64.13   14.18
  -2  -9  -1   46.54   24.85
   2   9   2   37.83   13.83
  -2  -9  -2   38.51   16.23
   2   9   3   -0.77   12.81
  -2  -9  -3    1.71   14.01
   2   9   4   75.32   15.54
  -2  -9  -4   90.44   16.99
   2   9   5  238.95   19.30
  -2  -9  -5  232.46   19.56
   2   9   6  199.32   18.79
  -2  -9  -6  192.75   21.01
   2   9   7  224.85   19.30
  -2  -9  -7  187.79   27.33
   2   9   8  133.82   20.15
  -2  -9  -8  101.97   29.72
   2   9   9  115.72   21.35
  -2  -9  -9  101.54   22.20
   2   9  10  314.44   52.95
  -2  -9 -10  308.80   33.65
   2   9  11   47.65   34.84
  -2  -9 -11   73.53   25.45
  -2 -10   1  219.90   35.95
   2  10   0   80.02   23.91
  -2 -10   0  127.07   33.73
   2  10   1  259.44   25.53
  -2 -10  -1  312.64   27.41
   2  10   2  303.85   20.75
  -2 -10  -2  285.49   22.63
   2  10   3  439.89   25.28
  -2 -10  -3  452.19   29.12
   2  10   4  352.10   25.28
  -2 -10  -4  385.15   24.94
   2  10   5  173.53   20.58
  -2 -10  -5  211.70   21.78
   2  10   6  104.36   21.69
  -2 -10  -6   85.83   22.46
   2  10   7   46.54   19.21
  -2 -10  -7   30.06   20.58
   2  10   8   22.55   22.80
  -2 -10  -8    1.79   24.00
   2  10   9   13.07   20.67
  -2 -10  -9  -13.75   21.01
  -2 -10 -10    6.83   30.57
   2  11   4   13.41   19.98
  -2 -11  -4   33.90   28.01
   2  11   5   -4.18   31.94
  -2 -11  -5    4.36   28.27
  -2 -11  -6   29.89   29.38
   3  -9  -8  339.20   34.07
  -3   9   8  334.85   35.01
   3  -9  -7  443.56   37.06
  -3   9   7  401.63   34.07
   3  -9  -6  758.85   40.99
  -3   9   6  798.91   43.55
   3  -9  -5  318.96   26.56
  -3   9   5  288.82   26.22
   3  -9  -4  248.51   24.42
  -3   9   4  229.12   23.48
   3  -9  -3  575.67   53.55
  -3   9   3  494.80   46.20
   3  -9  -2   18.53   21.26
  -3   9   2   64.05   28.35
   3  -9  -1   88.39   33.82
  -3   9   1  133.48   21.18
   3  -9   0   45.35   34.42
  -3   9   0   34.76   17.17
  -3   9  -1   -0.77   21.18
  -3   9  -2   48.34   26.13
   3  -8 -10    6.83   26.47
  -3   8  10   25.53   19.04
   3  -8  -9    8.88   32.88
  -3   8   9   -5.72   23.57
   3  -8  -8   39.63   30.23
  -3   8   8   21.78   21.44
   3  -8  -7  113.32   21.95
  -3   8   7  117.42   20.75
   3  -8  -6   -2.31   17.51
  -3   8   6    5.81   16.14
   3  -8  -5  361.66   25.11
  -3   8   5  347.91   29.29
   3  -8  -4  563.55   31.85
  -3   8   4  583.96   30.32
   3  -8  -3  642.63   30.49
  -3   8   3  664.40   29.63
   3  -8  -2  666.02   43.47
  -3   8   2  632.72   31.09
   3  -8  -1  418.80   26.73
  -3   8   1  448.77   23.31
   3  -8   0  609.83   32.62
  -3   8   0  575.84   30.57
   3  -8   2  815.22   65.42
   3  -8   3  429.81   31.51
  -3   8  -3  370.63   25.79
   3  -8   4  357.99   41.76
  -3   8  -4  338.52   43.38
   3  -7 -11  316.40   31.94
  -3   7  11  327.25   26.90
   3  -7 -10  376.27   33.99
  -3   7  10  380.71   28.10
   3  -7  -9  909.58   38.94
  -3   7   9  923.08   63.96
   3  -7  -8  752.36   32.37
  -3   7   8  769.96   35.78
   3  -7  -7  520.76   25.28
  -3   7   7  529.98   42.96
   3  -7  -6  875.94   35.18
  -3   7   6  883.45   31.34
   3  -7  -5   87.19   21.01
  -3   7   5   81.73   12.98
   3  -7  -4  810.78   30.40
  -3   7   4  822.05   28.61
   3  -7  -3  402.14   20.15
  -3   7   3  413.16   26.90
   3  -7  -2   20.84   12.21
  -3   7   2   24.85   10.85
   3  -7  -1   78.82   13.83
  -3   7   1   92.49   13.32
   3  -7   0    7.26   13.75
  -3   7   0   22.29   11.79
   3  -7   1   -1.54   14.43
  -3   7  -1   -2.31   12.38
   3  -7   2  122.12   19.04
  -3   7  -2  100.60   16.40
   3  -7   3   58.16   20.41
  -3   7  -3   63.79   22.89
   3  -7   4  470.29   29.38
  -3   7  -4  426.65   35.70
   3  -7   5  239.12   26.22
  -3   7  -5  224.09   23.23
   3  -7   6   18.96   24.08
  -3   7  -6   48.16   21.78
   3  -6 -12   15.88   34.33
  -3   6  12   13.83   35.95
   3  -6 -11    8.71   23.57
  -3   6  11    7.00   19.04
   3  -6 -10   10.76   19.47
  -3   6  10    1.62   14.35
   3  -6  -9    4.36   21.44
  -3   6   9   15.88   27.24
   3  -6  -8   65.24   17.17
  -3   6   8   71.56   16.65
   3  -6  -7   19.39   12.47
  -3   6   7    1.62   11.70
   3  -6  -6  156.54   23.14
  -3   6   6  170.20   18.53
   3  -6  -5 2385.27   70.20
  -3   6   5 2372.72   64.82
   3  -6  -4 2123.53   64.65
  -3   6   4 2167.68   65.84
   3  -6  -3  925.81   31.77
  -3   6   3  943.57   33.82
   3  -6  -2 1249.38   56.96
  -3   6   2 1184.99   37.23
   3  -6  -1  740.49   28.44
  -3   6   1  755.95   31.43
   3  -6   0  728.37   34.67
  -3   6   0  750.48   30.23
   3  -6   1  931.02   46.12
   3  -6   2  392.49   21.61
  -3   6  -2  371.57   21.44
   3  -6   3  389.25   31.00
  -3   6  -3  362.35   26.47
   3  -6   4  882.94   39.28
  -3   6  -4  898.22   35.27
   3  -6   5  472.08   29.21
  -3   6  -5  493.60   27.67
   3  -6   6  128.78   23.91
  -3   6  -6  136.55   21.01
   3  -6   7   61.66   24.68
  -3   6  -7   41.25   20.67
   3  -6   8   12.13   25.02
  -3   6  -8    2.99   20.67
   3  -5 -12  460.56   29.21
  -3   5  12  395.14   27.16
   3  -5 -11  423.32   51.92
  -3   5  11  385.06   56.02
   3  -5 -10  526.40   41.67
  -3   5  10  567.65   43.89
   3  -5  -9  500.95   24.59
  -3   5   9  511.97   22.12
   3  -5  -8  474.30   31.26
  -3   5   8  470.46   33.22
   3  -5  -7  567.90   22.55
  -3   5   7  570.21   22.97
   3  -5  -6  982.09   34.67
  -3   5   6  974.06   32.37
   3  -5  -5  781.57   25.71
  -3   5   5  822.99   27.33
   3  -5  -4  933.58   31.43
  -3   5   4  978.16   33.13
   3  -5  -3  590.28   24.00
  -3   5   3  581.99   22.12
   3  -5  -2   52.35    8.80
  -3   5   2   51.84    7.26
   3  -5  -1   52.78    8.37
  -3   5   1   39.28    8.80
   3  -5   0  102.65   10.42
  -3   5   0  105.30    9.39
   3  -5   1  369.69   17.34
  -3   5  -1  368.24   16.57
   3  -5   2  314.27   17.93
  -3   5  -2  296.16   16.31
   3  -5   3  194.11   14.94
  -3   5  -3  225.97   14.52
   3  -5   4  262.60   18.28
  -3   5  -4  256.88   16.14
   3  -5   5  362.26   22.63
  -3   5  -5  383.10   22.63
   3  -5   6  863.98   33.99
  -3   5  -6  817.27   48.85
   3  -5   7 1176.28   43.47
  -3   5  -7 1114.97   40.65
   3  -5   8  439.29   28.78
  -3   5  -8  419.39   36.12
   3  -5   9   45.86   36.72
  -3   5  -9  121.69   24.51
   3  -4 -13   33.73   33.65
   3  -4 -12   12.47   29.46
  -3   4  12   -4.18   16.91
   3  -4 -11   51.92   18.70
  -3   4  11   75.66   15.97
   3  -4 -10   25.96   15.54
  -3   4  10    8.54   12.98
   3  -4  -9   53.12   13.75
  -3   4   9   21.61   11.02
  -3   4   8  309.06   26.30
   3  -4  -7  257.56   14.60
  -3   4   7  277.55   24.08
   3  -4  -6  413.59   25.36
  -3   4   6  438.95   24.17
   3  -4  -5 1271.25   41.76
  -3   4   5 1299.17   40.31
   3  -4  -4  431.09   17.17
  -3   4   4  472.68   18.10
   3  -4  -3 1889.11   58.75
  -3   4   3 1816.94   52.09
   3  -4  -2 1761.78   53.20
  -3   4   2 1835.90   77.20
  -3   4   1 1487.05   64.65
   3  -4   0  122.12    9.91
  -3   4   0  123.32    9.65
   3  -4   1  616.32   26.13
  -3   4  -1  630.93   25.96
   3  -4   2 1435.04   70.97
  -3   4  -2 1451.95   48.76
   3  -4   3 1681.59   54.40
  -3   4  -3 1765.62   53.80
   3  -4   4 4357.47  164.56
   3  -4   5  233.31   21.09
  -3   4  -5  220.84   16.82
   3  -4   6   46.80   14.43
  -3   4  -6   32.37   12.55
   3  -4   7   25.62   22.46
  -3   4  -7    7.43   10.85
   3  -4   8  150.73   27.33
  -3   4  -8  101.45   28.95
   3  -4   9    6.15   21.86
  -3   4  -9  -14.18   19.13
   3  -4  10   28.52   42.96
  -3   4 -10   18.28   25.53
   3  -3 -13   60.04   27.58
   3  -3 -12  445.53   30.49
  -3   3  12  384.81   26.90
   3  -3 -11  420.33   26.13
  -3   3  11  438.52   28.01
   3  -3 -10  786.52   45.60
  -3   3  10  767.39   48.16
   3  -3  -9 1654.26   59.86
  -3   3   9 1668.27   82.24
   3  -3  -8 1128.46   55.08
  -3   3   8 1098.40   55.68
   3  -3  -7  490.19   21.69
  -3   3   7  493.78   20.58
   3  -3  -6  335.70   16.14
  -3   3   6  311.36   24.25
   3  -3  -5  260.55   12.47
  -3   3   5  261.41   11.87
   3  -3  -4  262.94   12.04
  -3   3   4  250.47   11.96
   3  -3  -3  169.77    9.48
  -3   3   3  166.61    8.11
   3  -3  -2   -1.54    5.12
  -3   3   2    3.67    3.93
   3  -3  -1   25.79    5.12
  -3   3   1   25.88    7.09
   3  -3   0   24.42    5.64
  -3   3   0   19.30    4.87
   3  -3   1  229.30   12.81
  -3   3  -1  207.86   11.44
   3  -3   2  343.05   15.97
  -3   3  -2  343.05   15.20
   3  -3   3  941.44   29.55
  -3   3  -3 1030.17   49.02
   3  -3   4 1097.72   49.36
  -3   3  -4 1068.59   46.03
   3  -3   5  410.77   18.02
  -3   3  -5  433.57   18.10
   3  -3   6  642.20   38.43
  -3   3  -6  664.91   36.47
   3  -3   7  296.76   19.21
  -3   3  -7  305.47   24.08
   3  -3   8  599.41   27.50
  -3   3  -8  535.19   34.07
   3  -3   9  786.61   50.81
  -3   3  -9  785.16   32.02
   3  -3  10  479.09   44.41
  -3   3 -10  436.39   25.71
   3  -3  11  239.03   43.55
  -3   3 -11  281.30   44.66
   3  -2 -13   20.15   24.08
  -3   2  13   36.72   19.64
   3  -2 -12   27.33   28.86
  -3   2  12   24.85   16.23
   3  -2 -11    2.39   16.40
  -3   2  11    3.59   13.24
   3  -2 -10   -7.77   13.49
  -3   2  10    4.78   11.10
   3  -2  -9    2.73   13.66
  -3   2   9   24.59   15.37
   3  -2  -8   32.45    9.99
  -3   2   8   36.12    9.48
   3  -2  -7  577.72   23.66
  -3   2   7  572.34   23.48
   3  -2  -6 1286.36   43.55
  -3   2   6 1267.92   58.24
   3  -2  -5 1278.08   41.67
  -3   2   5 1255.02   39.71
   3  -2  -4  525.12   20.15
  -3   2   4  509.75   19.98
   3  -2  -3  962.70   43.55
  -3   2   3  956.64   32.11
  -3   2   2 2063.75   83.43
  -3   2   1 3194.43  127.59
   3  -2   0 3563.09  100.94
  -3   2   0 3527.65  145.26
   3  -2   1 5089.60  136.47
  -3   2  -1 4919.91  183.78
   3  -2   2 1781.67   55.00
  -3   2  -2 1803.54   54.83
   3  -2   3  457.99   25.88
  -3   2  -3  517.26   26.39
   3  -2   4  200.26   13.15
  -3   2  -4  218.62   10.67
   3  -2   5  116.91   13.41
  -3   2  -5  110.16    7.94
   3  -2   6   38.69    9.48
  -3   2  -6   50.64    9.05
   3  -2   7  170.03   18.62
  -3   2  -7  165.59   16.91
   3  -2   8   13.58   12.47
  -3   2  -8   12.64   15.88
   3  -2   9   16.99   15.20
  -3   2  -9   22.97   14.18
   3  -2  10   38.86   31.60
  -3   2 -10   65.76   22.97
   3  -1 -12  270.20   28.69
  -3   1  12  250.90   24.25
   3  -1 -11  581.22   39.80
  -3   1  11  641.26   29.04
   3  -1 -10  897.11   55.85
  -3   1  10  938.62   38.60
   3  -1  -9  924.10   35.61
   3  -1  -8  603.60   38.94
  -3   1   8  670.04   39.45
   3  -1  -7   25.79    8.37
  -3   1   7   17.08    7.77
   3  -1  -6  223.49   16.23
  -3   1   6  241.00   18.96
   3  -1  -5   -0.34    9.05
  -3   1   5   11.61    7.09
   3  -1  -4   49.28    6.66
  -3   1   4   56.36    8.63
   3  -1  -2  820.77   36.55
  -3   1   2  878.41   37.58
  -3   1   1 1422.49   57.99
   3  -1   0  733.49   24.08
  -3   1   0  773.46   38.77
   3  -1   1 2703.21   75.32
  -3   1  -1 2603.81  103.67
   3  -1   2 4516.06  118.36
  -3   1  -2 4608.29  123.57
   3  -1   3 1428.38   45.09
  -3   1  -3 1546.66   45.43
   3  -1   4   73.70    9.39
  -3   1  -4  103.08    8.97
   3  -1   5  583.96   29.21
  -3   1  -5  599.07   30.74
   3  -1   6  616.41   30.49
  -3   1  -6  629.47   21.35
   3  -1   7 1256.13   40.39
  -3   1  -7 1252.54   55.42
   3  -1   8  974.66   49.45
  -3   1  -8 1004.89   32.71
   3  -1   9  732.55   30.06
  -3   1  -9  739.13   32.37
   3  -1  10  269.35   29.72
   3  -1  11  135.36   29.97
   3  -1  12   59.78   22.97
  -3   1 -12   45.26   24.17
   3   0 -12   13.15   20.92
  -3   0  12   10.93   18.02
   3   0 -11  -17.17   15.97
  -3   0  11   -4.95   13.41
   3   0 -10   20.07   17.08
  -3   0  10    7.52   11.36
   3   0  -9  214.95   16.74
  -3   0   9  191.29   24.42
   3   0  -8  373.11   17.93
  -3   0   8  330.41   16.14
   3   0  -7  436.73   17.34
  -3   0   7  358.16   16.40
   3   0  -6  344.33   19.13
  -3   0   6  355.52   21.69
   3   0  -5  491.64   24.08
  -3   0   5  486.77   18.70
   3   0  -4 2813.29  104.19
  -3   0   4 2920.47  119.73
  -3   0   3 3898.28  150.81
   3   0  -1 1158.35   45.01
  -3   0   1 1138.54   45.52
   3   0   0   47.23    4.36
  -3   0   0   47.91    2.99
   3   0   1 2045.47   77.71
  -3   0  -1 2028.48   52.35
   3   0   2  649.20   20.67
   3   0   3 1130.42   48.51
  -3   0  -3 1122.82   47.57
   3   0   4  765.17   32.96
  -3   0  -4  733.66   27.50
   3   0   5   77.37    9.99
  -3   0  -5   72.33    9.74
   3   0   6  575.59   21.44
  -3   0  -6  605.48   20.92
   3   0   7    8.80    8.37
  -3   0  -7    4.78   10.59
   3   0   8   72.67   11.53
  -3   0  -8   75.66   10.76
   3   0   9  154.14   23.14
  -3   0  -9  213.84   19.04
   3   0  10   32.54   15.12
  -3   0 -10   55.25   18.53
   3   0  11  108.46   23.48
  -3   0 -11  114.43   31.85
   3   0  12   67.72   33.13
  -3   0 -12  109.23   35.95
   3   1 -12  379.43   38.34
  -3  -1  12  397.87   30.40
  -3  -1  11  350.31   39.20
  -3  -1  10  157.56   15.80
  -3  -1   9  243.22   15.63
  -3  -1   8  206.32   17.76
   3   1  -7  393.09   25.53
  -3  -1   7  343.30   25.71
  -3  -1   4   78.82    9.14
   3   1  -3   13.07    8.03
  -3  -1   3   21.61    4.61
  -3  -1   2  804.29   36.89
   3   1   5 1177.48   36.81
   3   1   6  309.14   22.55
  -3  -1  -6  277.89   16.05
   3   1   8  643.82   25.71
  -3  -1  -8  636.39   34.93
   3   1  10  399.67   29.80
  -3  -1 -10  394.37   30.83
   3   1  11  326.22   32.96
  -3  -1 -11  315.72   35.87
   3   1  12    9.39   18.79
  -3  -1 -12   24.68   32.79
   3   2 -11   68.40   20.92
  -3  -2  11   65.76   17.93
   3   2 -10  102.05   36.55
  -3  -2  10   95.65   21.01
   3   2  -9   -0.85   11.36
  -3  -2   9    3.59   11.61
   3   2  -7  310.51   26.82
  -3  -2   7  311.88   15.71
  -3  -2   6  415.72   18.96
   3   2  -3 1064.58   49.53
  -3  -2   3 1021.28   46.54
  -3  -2   2  378.66   23.31
   3   2  -1  648.09   28.10
  -3  -2   1  638.53   29.12
  -3  -2   0 1042.21   39.11
   3   2   1 1531.03   38.17
  -3  -2  -2 2511.58   86.17
  -3  -2  -3  836.82   33.56
  -3  -2  -5  122.03   10.59
   3   2   6  114.61   11.44
  -3  -2  -6   79.51   11.53
   3   2   8  414.53   19.04
  -3  -2  -8  415.29   28.44
   3   2   9   24.51   14.60
  -3  -2  -9   31.34   17.17
   3   2  10   31.00   21.44
  -3  -2 -10    9.74   18.70
   3   2  11  192.15   23.48
  -3  -2 -11  144.92   19.13
   3   2  12  100.09   32.37
  -3  -2 -12  117.08   30.66
  -3  -2 -13  123.74   36.04
   3   3 -11  346.29   59.61
  -3  -3  11  331.52   32.88
   3   3 -10   89.33   33.73
  -3  -3  10  189.33   23.23
   3   3  -9  444.59   37.92
  -3  -3   9  564.23   36.38
  -3  -3   8  333.91   27.75
   3   3  -7  202.74   14.86
  -3  -3   7  206.49   15.29
   3   3  -5  116.91   13.49
  -3  -3   5  108.88   10.59
   3   3  -4    0.43    7.00
  -3  -3   4    4.27    8.28
   3   3  -3   10.67    9.82
  -3  -3   3   18.62    6.49
   3   3  -2    2.48    5.89
  -3  -3   2    6.92    6.23
   3   3  -1  186.43   11.61
  -3  -3   1  189.76   13.24
   3   3   0  477.46   22.72
  -3  -3   0  481.39   17.08
   3   3   1  727.43   33.13
  -3  -3  -1  636.48   26.39
   3   3   2  762.95   22.89
  -3  -3  -2  729.31   21.69
   3   3   3   23.83    3.50
  -3  -3  -3   25.71    4.44
  -3  -3  -6 1564.76   67.21
   3   3   8  444.16   18.96
  -3  -3  -8  474.22   27.58
   3   3   9  428.79   26.82
  -3  -3  -9  438.61   26.90
   3   3  10   99.83   13.58
  -3  -3 -10  110.16   18.96
   3   3  11  369.69   22.72
  -3  -3 -11  415.04   26.56
   3   3  12   34.24   17.17
  -3  -3 -12   52.18   28.78
   3   4 -10   20.75   34.50
  -3  -4  10    0.60   26.99
   3   4  -9   79.34   20.58
  -3  -4   9  101.97   34.59
  -3  -4   8  406.24   38.77
   3   4  -7  284.21   25.19
  -3  -4   7  268.15   17.85
   3   4  -6  304.11   21.61
  -3  -4   6  299.92   24.68
   3   4  -5  670.72   37.49
   3   4  -4 1132.56   55.59
   3   4  -3  962.36   45.77
  -3  -4   3 1036.14   43.81
   3   4  -2  991.22   32.88
  -3  -4   2  982.85   30.06
   3   4  -1  933.07   32.20
  -3  -4   1  940.58   41.93
   3   4   0   76.18    6.23
  -3  -4   0   72.42    8.80
   3   4   1  656.63   21.35
  -3  -4  -1  651.51   21.61
   3   4   2  398.21   14.60
  -3  -4  -2  412.73   21.69
   3   4   3  112.56    6.49
  -3  -4  -3  131.68    9.91
   3   4   4  494.12   17.34
  -3  -4  -4  483.19   15.97
  -3  -4  -5   14.52    6.32
   3   4   6   56.96    9.48
  -3  -4  -6   36.38    8.03
   3   4   7   91.72   11.53
  -3  -4  -7   88.73    9.74
   3   4   8  105.04   15.80
  -3  -4  -8   98.81   13.32
   3   4   9  106.49   22.37
  -3  -4  -9  135.02   18.70
   3   4  10   68.23   20.50
  -3  -4 -10   44.92   17.25
   3   4  11  125.79   25.45
  -3  -4 -11  112.13   26.22
   3   4  12  109.99   24.17
  -3  -5   9  103.50   33.05
   3   5  -8  102.73   34.76
  -3  -5   8  148.76   25.71
   3   5  -7    1.11   16.91
  -3  -5   7   23.57   20.41
   3   5  -6   -8.54   15.12
  -3  -5   6  -11.79   21.26
   3   5  -5   26.39   13.15
  -3  -5   5   25.36   18.36
  -3  -5   4   67.38   13.83
   3   5  -3  114.52   13.49
  -3  -5   3  100.34   16.82
   3   5  -2   82.58   10.85
  -3  -5   2   90.10    8.97
   3   5  -1  164.05   13.49
  -3  -5   1  191.89   10.59
   3   5   0  275.84   16.65
  -3  -5   0  297.61   13.32
   3   5   1  812.83   26.22
  -3  -5  -1  806.85   35.70
   3   5   2  716.67   23.06
  -3  -5  -2  717.44   23.48
   3   5   3 1633.00   46.20
   3   5   4 1520.10   60.29
  -3  -5  -4 1616.77   59.52
   3   5   5  434.42   15.03
  -3  -5  -5  505.22   23.57
   3   5   6  227.84   15.88
  -3  -5  -6  229.81   11.02
   3   5   7  421.44   25.45
  -3  -5  -7  408.12   17.08
   3   5   8  623.92   36.64
  -3  -5  -8  697.20   36.38
   3   5   9  352.78   27.84
  -3  -5  -9  329.38   26.82
   3   5  10  148.68   22.80
  -3  -5 -10  148.59   21.69
   3   5  11   -0.60   21.26
   3   5  12   -2.99   14.26
  -3  -5 -12    4.36   31.17
   3   5  13   33.65   17.68
  -3  -5 -13   21.61   29.89
   3   5  14    2.82   21.86
  -3  -5 -14   16.99   30.57
   3   6  -8  383.78   33.65
  -3  -6   8  321.36   35.95
   3   6  -7  133.31   22.55
  -3  -6   7  179.76   28.95
   3   6  -6  379.26   20.84
  -3  -6   6  403.25   23.91
   3   6  -5  357.05   21.26
  -3  -6   5  464.57   31.34
   3   6  -4  258.08   22.46
  -3  -6   4  256.62   17.85
   3   6  -3  438.35   34.07
  -3  -6   3  459.79   29.29
   3   6  -2  385.32   19.98
  -3  -6   2  390.27   26.22
   3   6  -1  668.76   35.10
  -3  -6   1  661.76   26.99
   3   6   0   87.53    9.31
  -3  -6   0  101.80    9.39
   3   6   1  340.48   14.77
  -3  -6  -1  366.02   19.56
   3   6   2   97.53    8.37
  -3  -6  -2   85.23   10.93
   3   6   3   32.79    6.83
  -3  -6  -3   39.80   10.08
   3   6   4  419.39   16.57
  -3  -6  -4  464.14   17.08
   3   6   5   11.96    6.58
  -3  -6  -5    1.62    7.60
   3   6   6   28.35    8.80
  -3  -6  -6   31.94    9.31
   3   6   7  118.70   14.69
  -3  -6  -7  101.80   10.93
   3   6   8  113.32   18.45
  -3  -6  -8  107.77   16.82
   3   6   9  193.09   24.00
  -3  -6  -9  181.73   16.91
   3   6  10  174.56   22.72
  -3  -6 -10  126.13   24.08
   3   6  11  128.70   30.40
  -3  -6 -11  123.40   25.11
   3   6  12  258.67   23.57
  -3  -6 -12  218.36   28.44
   3   6  13   19.56   39.88
  -3  -6 -13   54.83   28.69
   3   7  -7   -2.39   14.43
  -3  -7   7   16.40   28.10
   3   7  -6   25.28   17.68
  -3  -7   6   40.31   21.18
   3   7  -5    4.78   15.88
  -3  -7   5    3.16   22.97
   3   7  -4   12.98   14.09
  -3  -7   4   -4.78   15.37
   3   7  -3   14.43   12.72
  -3  -7   3    7.52   15.03
   3   7  -2   68.06   13.66
  -3  -7   2   73.53   13.24
   3   7  -1  186.77   13.58
  -3  -7   1  172.93   18.62
   3   7   0  337.67   17.42
  -3  -7   0  356.11   24.42
   3   7   1  665.17   26.13
  -3  -7  -1  648.52   24.94
   3   7   2  753.22   28.95
  -3  -7  -2  701.38   25.53
   3   7   3  391.72   15.63
  -3  -7  -3  380.45   16.23
   3   7   4  226.48   11.79
  -3  -7  -4  224.51   12.90
   3   7   5  100.69   11.53
  -3  -7  -5  101.45   12.72
   3   7   6  466.79   19.81
  -3  -7  -6  423.92   19.47
   3   7   7  552.10   23.31
  -3  -7  -7  550.22   24.00
   3   7   8  408.21   29.97
  -3  -7  -8  406.16   21.09
   3   7   9  278.66   28.35
  -3  -7  -9  290.87   20.07
   3   7  10  143.81   24.34
  -3  -7 -10  159.87   30.74
   3   7  11  132.37   31.26
  -3  -7 -11  106.41   31.00
   3   7  12    8.71   26.30
  -3  -7 -12    4.61   23.23
   3   8  -6  240.57   41.16
   3   8  -5  308.97   26.47
  -3  -8   5  280.79   27.93
   3   8  -4  372.77   30.06
  -3  -8   4  353.81   26.56
   3   8  -3  194.20   22.12
  -3  -8   3  186.43   23.14
   3   8  -2  199.24   32.96
  -3  -8   2  210.85   30.66
   3   8  -1  178.65   28.27
  -3  -8   1  152.61   20.15
   3   8   0  236.73   17.42
   3   8   1  362.52   19.39
  -3  -8  -1  426.14   32.62
   3   8   2   39.97   10.42
  -3  -8  -2   23.48   11.79
   3   8   3   -9.22    9.82
  -3  -8  -3   -2.39   11.19
   3   8   4   10.25   10.93
  -3  -8  -4    1.54   10.50
   3   8   5   56.19   12.21
  -3  -8  -5   38.60   12.90
   3   8   6   14.09   12.30
  -3  -8  -6   52.09   14.52
   3   8   7   16.05   14.52
  -3  -8  -7   -9.56   14.94
   3   8   8   99.49   18.02
  -3  -8  -8   84.29   17.34
   3   8   9  403.51   36.98
  -3  -8  -9  368.67   23.06
   3   8  10   67.98   28.18
  -3  -8 -10  108.97   22.72
  -3  -8 -11  245.69   48.16
   3   9  -3   43.64   21.26
  -3  -9   3   27.93   23.06
   3   9  -2   37.58   20.41
  -3  -9   2   31.94   24.85
   3   9  -1   23.48   19.81
  -3  -9   1   23.31   28.78
   3   9   0  134.93   23.31
  -3  -9   0   95.31   21.61
   3   9   1  173.36   17.59
  -3  -9  -1  189.59   27.75
   3   9   2  610.77   33.99
  -3  -9  -2  622.90   28.18
   3   9   3  267.30   18.62
  -3  -9  -3  292.15   21.69
   3   9   4  311.53   20.58
  -3  -9  -4  298.90   20.50
   3   9   5  263.37   19.56
  -3  -9  -5  249.79   20.41
   3   9   6  263.80   21.52
  -3  -9  -6  261.32   21.09
   3   9   7  371.06   22.80
  -3  -9  -7  348.26   23.91
   3   9   8  153.21   29.89
  -3  -9  -8  119.90   32.79
   3   9   9  233.05   32.28
  -3  -9  -9  238.60   22.89
   3   9  10    9.22   29.04
  -3  -9 -10   39.03   29.89
   3   9  11    3.50   29.04
  -3  -9 -11   14.69   32.62
   3  10   0    1.79   17.51
  -3 -10   0    2.39   19.90
   3  10   1   -9.22   15.12
  -3 -10  -1    5.81   16.74
   3  10   2   13.83   15.20
  -3 -10  -2    4.27   28.27
   3  10   3   99.92   25.45
  -3 -10  -3   70.80   19.98
   3  10   4   91.04   26.73
  -3 -10  -4   92.32   21.95
   3  10   5   12.47   15.29
  -3 -10  -5   13.07   15.71
   3  10   6   55.08   19.39
  -3 -10  -6   95.99   20.24
   3  10   7  165.25   22.89
  -3 -10  -7   32.88   29.80
   3  10   8   91.38   30.74
  -3 -10  -8   93.60   29.72
   3  11   4  236.21   45.01
  -3 -11  -4  197.10   45.69
   3  11   5  229.55   46.20
  -3 -11  -5  168.75   49.10
   3  11   6  107.09   32.37
   4  -9  -7   28.78   26.99
  -4   9   7   17.17   22.97
   4  -9  -6   36.55   34.24
  -4   9   6   31.34   23.74
   4  -9  -5   41.42   23.91
  -4   9   5   41.93   21.44
   4  -9  -4  106.07   25.19
  -4   9   4   84.20   23.06
   4  -9  -3   89.33   24.17
  -4   9   3   99.75   22.37
   4  -9  -2   33.31   21.86
  -4   9   2   35.27   29.55
   4  -9  -1  211.11   32.02
  -4   9   1  207.69   47.23
   4  -9   0  327.76   29.72
  -4   9   0  320.42   27.67
   4  -8  -9  418.80   30.66
  -4   8   9  383.87   32.54
   4  -8  -8  594.55   36.12
  -4   8   8  516.49   42.27
   4  -8  -7  928.20   46.80
  -4   8   7  932.90   42.44
   4  -8  -6  522.04   31.60
  -4   8   6  616.32   29.29
   4  -8  -5 1118.98   58.93
  -4   8   5 1118.64   58.24
   4  -8  -4  676.44   31.85
  -4   8   4  658.42   32.37
   4  -8  -3  295.39   25.28
  -4   8   3  262.09   23.40
   4  -8  -2  202.48   22.55
  -4   8   2  185.66   20.15
   4  -8  -1   55.77   22.29
  -4   8   1   40.48   17.25
   4  -8   0  176.86   25.36
  -4   8   0  165.33   21.78
   4  -8   1  121.61   36.04
  -4   8  -1  176.69   22.63
  -4   8  -2   23.31   19.56
   4  -8   3   36.81   38.77
  -4   8  -3   50.64   24.94
   4  -7 -10   70.11   26.13
  -4   7  10   67.55   19.47
   4  -7  -9  565.68   36.64
  -4   7   9  556.03   35.53
   4  -7  -8   66.53   20.15
  -4   7   8   84.72   19.90
   4  -7  -7   82.67   26.73
  -4   7   7   59.44   18.70
  -4   7   6  469.35   39.37
   4  -7  -5  101.45   16.05
  -4   7   5  118.02   15.46
   4  -7  -4   38.86   14.09
  -4   7   4   25.96   12.30
   4  -7  -3   11.87   13.49
  -4   7   3   14.60   12.04
   4  -7  -2  102.65   16.05
  -4   7   2  108.80   14.69
   4  -7  -1 1215.99   59.69
  -4   7   1 1215.57   44.66
   4  -7   0 1357.76   67.81
   4  -7   1 1040.33   60.89
   4  -7   4  262.26   26.47
  -4   7  -4  212.98   24.51
   4  -7   5   74.04   36.64
  -4   7  -5   90.52   20.15
   4  -7   6   39.28   40.91
   4  -6 -11  149.36   42.87
  -4   6  11  197.70   25.02
   4  -6 -10  402.48   29.80
  -4   6  10  382.76   23.91
   4  -6  -9  678.58   36.38
  -4   6   9  644.93   51.58
   4  -6  -8  640.15   29.12
  -4   6   8  653.90   34.33
   4  -6  -7  852.28   51.15
  -4   6   7  864.66   36.72
   4  -6  -6  514.53   24.08
  -4   6   6  547.75   24.68
   4  -6  -5  305.81   16.99
  -4   6   5  280.53   16.57
   4  -6  -4 1040.16   32.96
  -4   6   4  979.61   46.12
   4  -6  -3  584.38   23.91
  -4   6   3  560.56   24.51
   4  -6  -2 1160.83   37.32
  -4   6   2 1131.96   33.73
   4  -6  -1  715.64   26.47
  -4   6   1  726.91   26.56
   4  -6   0  105.98   14.86
  -4   6   0   88.99   17.42
   4  -6   1   -0.68   12.38
  -4   6  -1   -7.86   10.93
   4  -6   2  104.10   15.88
  -4   6  -2   86.77   13.66
   4  -6   3    4.95   15.37
  -4   6  -3    8.54   13.07
   4  -6   4  -13.75   24.34
  -4   6  -4   22.20   31.17
   4  -6   5   59.35   21.01
  -4   6  -5   62.08   20.75
   4  -6   6  231.69   25.62
  -4   6  -6  225.79   21.78
   4  -6   7  218.88   26.64
  -4   6  -7  259.70   30.15
   4  -5 -12  223.66   33.48
  -4   5  12  266.96   28.95
   4  -5 -11   63.02   35.27
  -4   5  11  112.81   37.49
   4  -5 -10   50.56   31.60
  -4   5  10   53.37   26.90
   4  -5  -9    7.52   25.02
  -4   5   9    0.85   20.67
   4  -5  -8   -0.85   13.32
  -4   5   8   -5.12   17.51
   4  -5  -7   25.96   13.92
  -4   5   7   27.33   16.40
   4  -5  -6   -4.36   14.01
  -4   5   6   -9.65   11.79
   4  -5  -5   38.77   13.66
  -4   5   5   37.06   10.08
   4  -5  -4 1233.76   54.14
  -4   5   4 1224.79   35.61
   4  -5  -3  892.25   30.91
  -4   5   3  864.75   27.67
   4  -5  -2 1390.89   44.83
  -4   5   2 1403.87   42.53
   4  -5  -1  404.53   18.02
  -4   5   1  449.03   17.68
   4  -5   0  290.87   17.76
  -4   5   0  279.94   20.24
   4  -5   1  734.94   38.34
   4  -5   2 1185.59   42.61
   4  -5   3 2101.92   62.94
  -4   5  -3 2123.70   99.23
   4  -5   4  165.25   26.73
  -4   5  -4  153.63   16.82
   4  -5   5  474.48   29.38
  -4   5  -5  483.95   26.30
   4  -5   6  271.48   22.80
  -4   5  -6  254.32   26.13
   4  -5   7  195.39   24.17
  -4   5  -7  150.90   26.30
   4  -5   8  290.78   38.17
  -4   5  -8  293.69   25.53
   4  -5   9   19.64   32.20
  -4   5  -9   -0.60   39.45
   4  -4 -12   98.46   24.85
  -4   4  12   57.05   20.75
   4  -4 -11  473.54   31.77
  -4   4  11  518.46   46.03
   4  -4 -10  618.37   31.68
  -4   4  10  576.10   26.64
   4  -4  -9  189.50   19.81
  -4   4   9  179.00   17.93
   4  -4  -8   75.75   19.73
  -4   4   8   88.64   21.26
   4  -4  -7  679.35   27.93
  -4   4   7  677.81   43.72
   4  -4  -6 1799.27   55.77
  -4   4   6 1835.13   53.80
   4  -4  -5 3101.60  123.40
  -4   4   4 3626.29  134.76
   4  -4  -3  203.93   15.37
  -4   4   3  195.90   10.85
   4  -4  -2   22.37   10.50
  -4   4   2   20.50    6.23
   4  -4  -1   12.55    6.66
  -4   4   1   11.19    7.17
   4  -4   0   10.16    7.86
  -4   4   0    8.80    6.75
   4  -4   1  143.98   11.02
  -4   4  -1  140.22   16.31
   4  -4   2  115.37   15.63
  -4   4  -2   82.84   10.25
   4  -4   3   43.89   14.60
  -4   4  -3   61.74   11.87
   4  -4   4  309.31   27.33
  -4   4  -4  292.41   15.80
   4  -4   5  503.60   32.45
  -4   4  -5  480.62   20.15
   4  -4   6  257.14   19.98
  -4   4  -6  279.42   25.62
   4  -4   7  206.07   20.50
  -4   4  -7  221.95   18.45
   4  -4   8  217.17   23.48
  -4   4  -8  219.82   21.52
   4  -4   9  242.62   36.04
  -4   4  -9  218.62   23.91
   4  -4  10  156.02   39.37
  -4   4 -10  200.86   40.74
   4  -3 -12   24.42   31.68
  -4   3  12   10.33   18.36
   4  -3 -11   74.55   29.80
  -4   3  11   53.20   19.56
   4  -3 -10    6.32   18.79
  -4   3  10   21.52   22.89
   4  -3  -9  165.76   17.42
  -4   3   9  167.47   20.84
   4  -3  -8  -16.65   18.53
  -4   3   8    1.71   17.42
   4  -3  -7   69.09   10.76
  -4   3   7   64.99    9.31
   4  -3  -6  250.13   13.92
  -4   3   6  221.95   17.25
   4  -3  -5  397.87   22.37
  -4   3   5  410.17   16.14
   4  -3  -4  346.72   20.07
  -4   3   4  353.04   13.49
   4  -3  -3  382.84   14.35
  -4   3   3  410.94   15.71
   4  -3  -2  762.44   36.29
  -4   3   2  771.15   34.24
   4  -3  -1 1120.69   54.14
  -4   3   1 1189.01   35.18
   4  -3   1 1786.63   53.12
   4  -3   2 1492.94   48.85
  -4   3  -2 1420.01   46.12
   4  -3   3 1356.05   40.56
  -4   3  -3 1443.84   43.64
   4  -3   4  846.73   43.21
  -4   3  -4  782.94   26.22
   4  -3   5  918.72   32.71
  -4   3  -5  924.53   30.49
   4  -3   6  346.29   19.47
  -4   3  -6  348.34   17.93
   4  -3   7    7.00   15.63
  -4   3  -7   22.37   17.08
   4  -3   8    6.83   17.59
  -4   3  -8   18.53   14.77
   4  -3   9   -9.74   18.53
  -4   3  -9    1.88   16.57
   4  -2 -12  247.49   26.64
  -4   2  12  168.58   23.91
   4  -2 -11  570.21   42.10
  -4   2  11  527.42   30.32
  -4   2  10  398.39   28.27
   4  -2  -9  583.96   37.49
  -4   2   9  578.66   28.18
   4  -2  -8  531.44   24.42
  -4   2   8  494.54   29.12
  -4   2   7 1761.61   75.92
   4  -2  -6  514.02   19.30
  -4   2   6  526.23   27.93
   4  -2  -5  369.52   21.26
  -4   2   5  442.71   24.94
   4  -2  -4  366.19   14.26
  -4   2   4  362.60   21.01
   4  -2  -3   22.55    7.26
  -4   2   3   25.71    5.21
  -4   2   2 1409.17   55.34
   4  -2  -1  194.03    9.82
  -4   2   1  192.15    9.91
   4  -2   0   63.62    5.81
  -4   2   0   60.12    5.29
   4  -2   1  403.77   15.97
  -4   2  -1  384.72   14.94
   4  -2   2   25.45    5.98
  -4   2  -2   25.45    7.17
   4  -2   3   68.06    7.26
  -4   2  -3   57.81    8.97
   4  -2   4   14.35    9.74
  -4   2  -4    7.43    6.83
   4  -2   5   95.39   12.98
  -4   2  -5   91.72    9.14
   4  -2   6 1593.63   68.06
   4  -2   7  920.43   47.99
  -4   2  -7  972.52   32.71
   4  -2   8  860.31   44.75
   4  -2   9  264.57   23.83
  -4   2  -9  271.74   20.41
   4  -2  10   94.28   28.78
   4  -2  11  112.90   37.32
  -4   2 -11  127.93   37.49
   4  -1 -12   49.79   34.93
  -4   1  12  152.86   18.79
   4  -1 -11  353.47   45.94
  -4   1  11  345.44   23.83
   4  -1 -10    8.11   20.58
  -4   1  10   35.61   13.07
   4  -1  -9   -0.94   14.60
  -4   1   9   16.40   18.28
   4  -1  -8   43.04   17.93
  -4   1   8   59.35   12.98
   4  -1  -7  101.71   11.10
  -4   1   7   90.52   10.59
   4  -1  -6  139.37   13.49
  -4   1   6  117.00    9.22
   4  -1  -5  433.40   23.23
  -4   1   5  378.83   21.95
   4  -1  -4  774.40   35.53
  -4   1   4  727.51   34.33
   4  -1  -3 1199.94   47.74
   4  -1  -2 1053.22   42.87
  -4   1   2 1094.39   46.12
   4  -1  -1  816.84   35.61
  -4   1   1  827.68   25.62
   4  -1   0 2644.03   71.99
  -4   1   0 2732.33  106.58
   4  -1   1 2913.55   78.82
  -4   1  -1 2855.99  105.72
  -4   1  -2 1619.76   47.05
   4  -1   3  767.82   24.34
  -4   1  -3  741.94   24.94
   4  -1   4  190.87    9.14
  -4   1  -4  209.23    9.99
   4  -1   5  282.41   19.47
  -4   1  -5  299.07   17.85
   4  -1   6  236.38   20.41
  -4   1  -6  223.49   12.55
   4  -1   7  160.04   13.58
  -4   1  -7  186.08   13.15
   4  -1   8   69.86   14.18
  -4   1  -8   64.99   12.64
   4  -1   9   32.96   19.30
  -4   1  -9   47.31   21.52
   4  -1  10    6.49   28.61
  -4   1 -10   -6.23   17.17
   4   0 -11  302.48   24.25
  -4   0  11  342.02   22.63
   4   0 -10  346.63   21.18
  -4   0  10  347.66   22.29
   4   0  -9  420.42   31.00
  -4   0   9  407.86   22.12
   4   0  -8  334.34   25.45
  -4   0   8  388.05   19.39
   4   0  -7  258.08   19.21
  -4   0   7  317.43   15.71
   4   0  -6  109.91   13.75
  -4   0   6  112.98    9.22
   4   0  -5  366.19   20.58
  -4   0   5  355.26   14.77
   4   0  -4 1113.86   49.62
  -4   0   4 1118.64   48.34
   4   0  -3  780.80   33.48
  -4   0   3  843.06   39.80
   4   0  -2  816.67   35.70
  -4   0   2  922.39   40.22
   4   0  -1   19.90    3.59
  -4   0   1   19.90    3.93
  -4   0   0  275.07   13.58
   4   0   1    8.20    3.50
  -4   0  -1   12.64    2.31
   4   0   2   17.42    5.21
  -4   0  -2    7.43    4.53
   4   0   3 1013.26   40.48
  -4   0  -3 1004.63   41.85
   4   0   4  712.82   31.43
  -4   0  -4  773.97   23.57
   4   0   5  802.24   34.93
  -4   0  -5  751.77   33.56
   4   0   6  590.36   27.93
   4   0   7  171.14   12.04
  -4   0  -7  178.40   12.47
   4   0   8  550.05   21.78
  -4   0  -8  534.17   22.72
   4   0   9  550.99   26.22
  -4   0  -9  538.27   24.59
   4   0  10  293.43   28.52
   4   0  12   71.48   28.44
  -4   0 -12   28.69   19.47
   4   1 -12   20.75   33.82
  -4  -1  12   35.10   35.44
   4   1 -11  -19.04   33.82
  -4  -1  11   33.31   17.68
   4   1 -10   17.59   16.91
  -4  -1  10   48.25   15.20
   4   1  -9   -8.88   12.98
  -4  -1   9   -2.73   11.10
   4   1  -8  102.65   12.98
  -4  -1   8   84.63   11.02
  -4  -1   7  330.15   17.34
   4   1  -5   66.78   13.75
  -4  -1   5   56.62    8.88
  -4  -1   4  223.66   11.02
  -4  -1   3   73.44    9.14
   4   1  -2  531.18   25.88
   4   1   3 1893.63   70.28
   4   1   4  616.32   26.82
   4   1   5  249.36   11.36
  -4  -1  -5  264.22   16.14
   4   1   6  262.43   12.98
  -4  -1  -6  259.27   17.85
   4   1   7  -12.55   15.12
   4   1   8  101.80   11.02
   4   1  11   43.64   18.36
  -4  -1 -11   40.74   26.99
   4   2 -11  121.27   34.59
  -4  -2  11    7.09   34.84
   4   2 -10  100.69   32.96
  -4  -2  10  181.81   17.42
  -4  -2   9  332.20   31.85
  -4  -2   8  349.54   21.44
   4   2  -6  399.07   18.96
  -4  -2   6  375.16   17.25
   4   2  -5  311.02   23.40
  -4  -2   5  382.67   23.06
   4   2  -3  105.21    7.69
  -4  -2   3   94.79    9.82
  -4  -2   2    5.72    4.95
   4   2   4   39.88    6.06
  -4  -2  -4   78.05    7.34
   4   2   5  205.30   12.98
  -4  -2  -5  200.35   13.32
   4   2   6  380.20   14.60
  -4  -2  -6  373.62   21.69
   4   2   7  230.58   14.77
  -4  -2  -7  212.98   11.53
   4   2   9  412.65   25.45
  -4  -2  -9  405.90   18.45
   4   2  10  434.42   29.46
  -4  -2 -10  388.39   22.12
   4   2  11  180.62   23.74
  -4  -2 -11  200.52   29.46
   4   2  12  158.67   21.26
  -4  -2 -12  219.65   22.03
  -4  -2 -13   45.52   23.57
   4   3 -11   -1.02   34.50
  -4  -3  10   70.03   36.12
   4   3  -9   19.64   17.08
  -4  -3   9   48.34   28.95
   4   3  -8   21.52   27.84
  -4  -3   8    7.86   15.12
   4   3  -7   15.54   19.56
  -4  -3   7    0.68   12.81
   4   3  -6   50.39   11.53
  -4  -3   6   74.13   10.85
   4   3  -4 1143.92   49.10
   4   3  -3  603.60   33.99
  -4  -3   3  575.25   27.33
  -4  -3   2  369.44   19.64
   4   3  -1  405.90   14.01
  -4  -3   1  395.82   22.37
  -4  -3   0 1716.77   60.72
   4   3   2 1645.46   61.57
   4   3   3 1021.11   39.80
  -4  -3  -3 1133.50   41.76
  -4  -3  -4   53.12    6.32
   4   3   5    6.49    7.43
  -4  -3  -5   12.38    7.26
   4   3   6   85.83   11.19
  -4  -3  -6   85.57    8.45
   4   3   7   71.39   11.87
  -4  -3  -7  114.01   13.32
   4   3   8   82.92   10.93
  -4  -3  -8   91.63   14.77
   4   3   9   13.92   10.85
  -4  -3  -9    2.73   18.87
   4   3  10  124.34   23.48
  -4  -3 -10   85.65   19.56
   4   3  11  118.79   19.21
  -4  -3 -11  112.30   24.00
   4   3  12    6.92   16.05
  -4  -3 -12   30.74   28.18
   4   4 -10   55.59   36.64
  -4  -4  10   65.16   31.00
  -4  -4   9  284.12   40.91
   4   4  -8   34.93   32.96
  -4  -4   8   36.98   21.69
   4   4  -7  237.66   22.29
  -4  -4   7  218.79   18.70
  -4  -4   6  265.93   23.48
   4   4  -5  182.16   15.80
  -4  -4   5  124.00   18.36
   4   4  -4  460.30   28.10
   4   4  -3    2.90    6.75
  -4  -4   3    0.85   10.76
   4   4  -2   19.90    6.92
  -4  -4   2   17.25    6.92
   4   4  -1   39.20    5.72
  -4  -4   1   39.80    5.98
   4   4   0   24.51    6.75
  -4  -4   0   33.65    6.58
   4   4   1    2.73    3.50
  -4  -4  -1    3.50    5.04
   4   4   2  107.18    9.74
  -4  -4  -2  122.03    7.52
   4   4   3  138.26    7.09
  -4  -4  -3  143.47   10.33
   4   4   4  289.76   14.52
  -4  -4  -4  311.96   15.20
   4   4   5  486.52   22.72
  -4  -4  -5  467.90   20.92
  -4  -4  -6 1019.58   42.19
   4   4   7  931.36   43.64
  -4  -4  -7  927.00   30.91
   4   4   8  731.95   36.81
   4   4   9  326.82   26.56
  -4  -4  -9  283.52   24.42
   4   4  10   46.46   18.10
  -4  -4 -10   55.77   14.43
   4   4  11  114.43   26.82
  -4  -4 -11   81.21   21.52
   4   4  12   43.30   21.44
   4   5  -8    0.60   27.84
  -4  -5   8    7.26   23.31
   4   5  -6  338.09   20.67
  -4  -5   6  294.63   32.54
  -4  -5   5  315.29   22.97
   4   5  -4  452.19   20.84
  -4  -5   4  400.26   18.70
   4   5  -3  149.02   11.27
  -4  -5   3  177.37   16.65
   4   5  -2  843.23   44.92
  -4  -5   2  779.52   37.49
   4   5  -1  620.51   31.00
  -4  -5   1  612.74   20.84
  -4  -5   0  427.42   24.08
   4   5   1   56.88    9.91
  -4  -5  -1   48.59    6.06
   4   5   2  116.40    7.17
  -4  -5  -2  123.66   11.79
   4   5   3  851.85   38.17
  -4  -5  -3  798.05   35.61
   4   5   4  479.77   15.97
  -4  -5  -4  467.56   22.72
  -4  -5  -5  651.25   21.09
   4   5   6   -0.68    9.99
  -4  -5  -6    3.25    7.86
   4   5   7   58.93   13.49
  -4  -5  -7   65.76   12.98
   4   5   8   40.74   14.01
  -4  -5  -8   37.75   12.72
   4   5   9   17.42   16.14
  -4  -5  -9   13.15   13.92
   4   5  10   -5.29   13.58
  -4  -5 -10   16.48   20.15
   4   5  11   10.08   17.42
  -4  -5 -11   -8.03   16.99
   4   5  12   -0.60   16.57
  -4  -5 -13  174.04   42.61
  -4  -5 -14   49.70   31.34
   4   6  -8   38.69   23.48
  -4  -6   8   19.64   28.01
   4   6  -7  269.43   30.06
  -4  -6   7  240.57   33.82
   4   6  -6  156.28   20.50
  -4  -6   6  133.22   20.41
   4   6  -5  147.48   16.05
  -4  -6   5  144.58   24.77
   4   6  -4   79.25   14.18
  -4  -6   4   95.22   14.94
   4   6  -3   -6.92   10.76
  -4  -6   3    1.71   11.44
   4   6  -2   10.25    8.80
  -4  -6   2    2.99   11.61
   4   6  -1   -0.09   10.42
  -4  -6   1   -2.48   12.72
   4   6   0   75.75    9.39
  -4  -6   0   73.53    9.74
   4   6   1  278.74   12.98
  -4  -6  -1  290.87   13.24
   4   6   2   59.01    7.00
  -4  -6  -2   57.99    7.86
   4   6   3  242.28   11.87
  -4  -6  -3  251.93   12.13
   4   6   4  304.11   12.72
  -4  -6  -4  350.13   20.15
   4   6   5  678.15   21.78
  -4  -6  -5  669.53   32.28
   4   6   6  915.22   40.31
  -4  -6  -6  953.22   41.42
   4   6   7  386.51   23.40
  -4  -6  -7  375.75   24.51
   4   6   8  157.05   20.07
  -4  -6  -8  173.70   20.32
   4   6   9   61.57   18.19
  -4  -6  -9   32.54   16.74
  -4  -6 -10  139.80   25.96
   4   6  11  152.18   29.63
  -4  -6 -11  129.21   18.87
   4   6  12  107.52   34.07
   4   7  -5  170.88   22.37
  -4  -7   5  125.71   20.58
   4   7  -4  151.41   19.81
  -4  -7   4  171.91   28.69
   4   7  -3  156.96   15.46
  -4  -7   3  167.98   17.25
   4   7  -2  209.91   20.67
  -4  -7   2  159.52   16.65
   4   7  -1  275.41   21.18
  -4  -7   1  262.60   24.17
   4   7   0  286.51   16.57
  -4  -7   0  236.73   25.53
   4   7   1  652.96   37.15
  -4  -7  -1  769.53   40.39
   4   7   2  649.71   35.95
  -4  -7  -2  669.95   24.42
   4   7   3  213.07   18.02
  -4  -7  -3  242.70   18.62
   4   7   4   27.75    8.11
  -4  -7  -4   17.51    8.71
   4   7   5   15.37    9.05
  -4  -7  -5   26.30    9.99
   4   7   6    5.38   11.02
  -4  -7  -6   14.60   16.14
   4   7   7   -0.94   14.09
  -4  -7  -7    6.83   15.80
   4   7   8   -9.39   18.36
   4   7   9  -32.45   21.35
  -4  -7  -9    9.65   15.80
  -4  -7 -10  163.54   28.01
  -4  -7 -11   39.11   19.04
   4   8  -5    4.01   18.10
  -4  -8   5   11.10   26.05
   4   8  -4   48.68   20.41
   4   8  -3   10.59   16.65
  -4  -8   3    8.20   25.79
   4   8  -2    4.36   13.49
  -4  -8   2    8.54   24.17
   4   8  -1   23.83   13.49
  -4  -8   1   17.76   17.51
   4   8   0  111.62   14.69
  -4  -8   0  131.09   15.88
   4   8   1  283.35   18.62
  -4  -8  -1  298.04   25.96
   4   8   2   43.81   14.52
  -4  -8  -2   42.78   16.99
   4   8   3  287.79   21.86
  -4  -8  -3  253.89   16.05
   4   8   4  130.83   19.39
  -4  -8  -4  154.49   20.58
   4   8   5  114.09   12.47
  -4  -8  -5  109.82   14.26
   4   8   6  397.45   20.50
  -4  -8  -6  417.34   33.56
   4   8   7  216.83   16.48
  -4  -8  -7  195.65   21.86
  -4  -8  -8  454.41   24.08
   4   8   9  233.65   33.05
  -4  -8  -9  223.83   31.43
   4   8  10  131.43   28.01
  -4  -8 -10  115.20   21.78
  -4  -8 -11   22.55   31.43
  -4  -8 -12  -14.52   28.86
  -4  -9   3   47.82   28.61
   4   9  -2  259.61   35.10
  -4  -9   2  226.65   29.63
   4   9  -1  252.18   26.13
  -4  -9   1  217.77   25.19
   4   9   0  153.12   19.39
  -4  -9   0  189.76   20.67
   4   9   1  109.74   15.46
  -4  -9  -1  133.99   17.59
   4   9   2   34.50   12.38
  -4  -9  -2   15.29   13.49
   4   9   3   27.41   17.68
  -4  -9  -3   25.19   16.14
   4   9   4    9.31   12.21
  -4  -9  -4    6.75   16.05
   4   9   5   -0.26   12.38
  -4  -9  -5   15.63   13.32
   4   9   6    7.26   13.41
  -4  -9  -6   15.20   14.77
   4   9   7   31.09   16.57
  -4  -9  -7   16.91   16.91
   4   9   8   12.21   25.79
  -4  -9  -8    8.71   17.51
  -4  -9  -9   16.99   25.96
   4   9  10   16.14   25.45
  -4  -9 -10   10.67   33.22
  -4 -10   1   -3.33   37.58
   4  10   0   62.08   22.20
   4  10   3  220.16   34.24
  -4 -10  -3  209.23   28.27
   4  10   5  146.37   26.47
  -4 -10  -5  123.32   31.51
   4  10   6   88.22   26.22
  -4 -10  -6  124.17   19.81
   4  10   7  123.91   33.13
  -4 -11  -3    9.14   30.32
  -4 -11  -4   -0.51   24.85
   4  11   5   11.79   27.75
   5  -9  -4  690.62   70.80
  -5   9   4  591.98   56.36
   5  -9  -3  341.08   32.28
  -5   9   3  326.56   46.12
   5  -9  -2  205.81   40.31
   5  -8  -8   98.21   41.33
  -5   8   8  150.81   27.16
   5  -8  -7   77.71   27.16
  -5   8   7   66.53   23.31
   5  -8  -6   -4.70   22.03
  -5   8   6  -20.07   20.24
   5  -8  -5   27.07   20.50
  -5   8   5   21.26   18.10
   5  -8  -4   47.23   23.74
  -5   8   4   63.71   19.47
   5  -8  -3   18.45   20.58
  -5   8   3    1.02   18.53
   5  -8  -2  107.26   23.48
  -5   8   2  100.34   21.69
   5  -8  -1   52.18   23.14
  -5   8   1   47.99   22.03
   5  -8   0  394.80   30.57
  -5   8   0  355.09   26.47
  -5   8  -1  242.11   32.20
  -5   8  -2  171.65   28.44
   5  -7  -9  317.09   33.22
  -5   7   9  349.28   27.93
   5  -7  -8  402.66   51.41
  -5   7   8  607.01   48.51
   5  -7  -7  913.94   77.29
  -5   7   7  951.68   62.51
   5  -7  -6  785.84   43.64
  -5   7   6  835.71   38.86
   5  -7  -5 1136.32   68.75
  -5   7   5 1203.61   76.60
   5  -7  -4   75.92   17.59
  -5   7   4   98.29   16.57
   5  -7  -3  403.08   24.08
  -5   7   3  392.15   21.52
   5  -7  -2  600.10   32.28
  -5   7   2  651.76   29.12
   5  -7  -1  371.83   24.68
  -5   7   1  419.82   22.89
   5  -7   0  608.12   32.71
  -5   7   0  637.25   28.44
   5  -7   1  115.46   28.86
  -5   7  -1   83.86   18.96
   5  -7   2   62.68   22.03
  -5   7  -2   70.37   25.28
   5  -7   3   42.87   34.24
  -5   7  -3   67.04   24.51
   5  -7   4   59.86   26.56
  -5   7  -4   39.54   29.63
  -5   7  -5   29.46   27.58
   5  -6 -10  400.35   47.48
   5  -6  -9  173.87   39.97
  -5   6   9  187.88   36.21
   5  -6  -8   34.93   28.78
  -5   6   8   36.12   33.13
   5  -6  -7   74.38   16.31
  -5   6   7   76.43   17.85
   5  -6  -6   70.03   15.46
  -5   6   6   66.18   14.60
   5  -6  -5   18.96   18.96
  -5   6   5    0.77   13.58
   5  -6  -4   15.46   11.87
  -5   6   4   27.07   12.81
   5  -6  -3  333.48   18.62
  -5   6   3  315.29   16.99
   5  -6  -2  151.24   15.80
  -5   6   2  146.72   13.49
   5  -6  -1  259.53   17.76
  -5   6   1  276.86   16.23
   5  -6   0  755.52   29.97
  -5   6   0  755.35   28.95
   5  -6   1  505.30   39.97
  -5   6  -1  485.24   31.00
   5  -6   2  641.17   52.61
   5  -6   3  256.03   24.25
  -5   6  -3  221.52   25.71
   5  -6   4  272.25   40.91
  -5   6  -4  295.91   36.72
   5  -6   5  191.46   27.16
  -5   6  -5  237.41   22.55
   5  -6   6  305.90   30.40
  -5   6  -6  289.93   29.46
   5  -6   7  163.11   51.41
  -5   6  -7  177.20   28.27
   5  -5 -11   44.07   32.79
  -5   5  11   22.12   18.87
   5  -5 -10  151.41   36.89
   5  -5  -9  255.26   24.59
  -5   5   9  204.62   21.01
   5  -5  -8  379.85   30.06
   5  -5  -7  926.15   37.49
  -5   5   7  999.93   59.44
   5  -5  -6  969.53   39.11
  -5   5   6  970.64   40.74
   5  -5  -5  820.26   31.09
  -5   5   5  843.14   28.86
   5  -5  -4  169.35   13.92
  -5   5   4  190.35   12.04
   5  -5  -3  979.87   33.99
  -5   5   3 1006.68   31.60
   5  -5  -2 1074.83   36.04
  -5   5   2 1028.46   31.00
   5  -5  -1  611.88   24.85
  -5   5   1  623.75   21.44
   5  -5   0 1062.70   48.25
  -5   5   0  999.51   44.24
   5  -5   1  294.63   26.82
  -5   5  -1  290.19   16.31
   5  -5   2   43.64   21.61
  -5   5  -2   32.54   17.51
   5  -5   3   12.64   25.36
  -5   5  -3   11.96   22.29
   5  -5   4   70.88   23.23
   5  -5   5  184.97   22.63
  -5   5  -5  234.85   20.15
   5  -5   6   34.33   26.90
  -5   5  -6    1.79   28.10
   5  -5   7   27.93   31.51
  -5   5  -7   22.46   33.31
   5  -5   8   40.22   25.53
  -5   5  -8   37.40   21.09
   5  -4 -11   10.08   29.89
  -5   4  11   12.38   17.17
   5  -4 -10  295.91   37.75
   5  -4  -9  147.31   22.89
  -5   4   9  171.99   15.54
   5  -4  -8   58.75   21.35
  -5   4   8   52.18   22.97
   5  -4  -7    6.66   11.87
  -5   4   7    2.65   18.02
   5  -4  -6    4.44   12.13
  -5   4   6   21.09   15.37
   5  -4  -5   22.97   10.42
  -5   4   5   22.03    8.88
   5  -4  -4   26.13    8.80
  -5   4   4   25.88    7.09
   5  -4  -3    6.92    6.92
  -5   4   3   10.50    6.40
   5  -4  -2  201.71   16.74
  -5   4   2  217.08   11.10
   5  -4  -1  303.17   21.44
  -5   4   1  333.74   19.56
  -5   4   0  867.40   39.63
   5  -4   1  557.23   32.11
   5  -4   2  638.53   26.56
  -5   4  -2  628.88   34.24
   5  -4   3  816.41   34.16
  -5   4  -3  805.14   45.18
   5  -4   4  584.81   42.53
  -5   4  -4  525.89   21.35
   5  -4   5  674.82   42.70
  -5   4  -5  737.42   29.72
   5  -4   6  322.64   23.74
  -5   4  -6  314.27   25.45
   5  -4   7  193.68   23.14
  -5   4  -7  203.33   20.50
   5  -4   8  206.58   25.11
  -5   4  -8  164.22   20.84
   5  -4   9  111.96   33.73
  -5   4  -9   90.78   24.85
   5  -3 -11   44.58   32.71
  -5   3  11   48.16   16.31
   5  -3 -10  172.25   24.51
  -5   3  10  152.10   17.93
   5  -3  -9  114.61   24.94
  -5   3   9  120.41   31.34
   5  -3  -8  643.99   49.36
  -5   3   8  621.87   39.45
   5  -3  -7  850.66   34.33
  -5   3   7  851.08   47.31
   5  -3  -6 1173.21   38.09
  -5   3   6 1127.01   54.91
   5  -3  -5 1009.07   45.43
  -5   3   5  948.69   47.99
   5  -3  -4  655.95   23.14
  -5   3   4  703.43   25.88
   5  -3  -3 1292.00   50.13
  -5   3   3 1317.53   53.63
   5  -3  -2  156.71    9.99
  -5   3   2  163.88   13.15
   5  -3  -1  169.86   10.16
  -5   3   1  175.67    8.97
   5  -3   0  138.26   14.01
  -5   3   0  148.00    8.97
   5  -3   1  349.37   15.20
  -5   3  -1  320.50   18.19
   5  -3   2  112.13   13.15
  -5   3  -2  114.26    9.22
  -5   3  -3   17.51    9.14
   5  -3   4   36.64   14.01
  -5   3  -4   48.08   10.59
   5  -3   5  511.88   21.69
  -5   3  -5  519.65   21.35
   5  -3   6    8.63   18.10
  -5   3  -6  -13.58   22.46
   5  -3   7   42.10   21.95
  -5   3  -7   62.51   14.60
   5  -3   8   49.02   27.07
  -5   3  -8   36.98   16.23
   5  -3   9   85.40   32.02
  -5   3  -9   52.78   17.93
  -5   3 -10  165.50   30.57
  -5   2  12  182.67   58.41
   5  -2 -11   13.49   32.62
  -5   2  11   50.30   17.51
   5  -2 -10  106.15   25.28
  -5   2  10  130.66   18.19
   5  -2  -9   19.73   14.94
  -5   2   9    1.88   11.27
  -5   2   8   19.64   22.72
   5  -2  -7  142.27   16.74
  -5   2   7  161.57   20.24
  -5   2   6  185.83   21.09
   5  -2  -5    5.04    9.22
  -5   2   5   -0.94   12.21
   5  -2  -4  128.70    8.71
  -5   2   4  147.06   12.64
   5  -2  -3  368.67   19.47
  -5   2   3  404.45   15.12
   5  -2  -2  950.06   42.44
  -5   2   2 1012.15   39.28
   5  -2  -1  731.70   23.91
  -5   2   1  731.01   23.14
   5  -2   0 1144.43   44.66
  -5   2   0 1171.16   33.39
   5  -2   1 1189.60   36.47
  -5   2  -1 1228.29   50.73
   5  -2   2  985.07   39.88
  -5   2  -2 1015.65   30.23
   5  -2   3  528.96   19.04
  -5   2  -3  505.65   25.96
   5  -2   4  353.98   14.52
  -5   2  -4  385.06   15.54
   5  -2   5  521.79   21.61
  -5   2  -5  509.06   25.79
   5  -2   6  352.53   18.10
  -5   2  -6  371.57   17.25
   5  -2   7  301.29   28.95
  -5   2  -7  313.16   22.89
   5  -2   8  264.57   29.72
  -5   2  -8  229.81   25.19
   5  -2   9   44.58   23.91
  -5   2  -9   42.44   15.46
   5  -2  10   27.93   30.83
  -5   2 -10   -3.93   20.24
   5  -1 -11   44.15   21.01
  -5   1  11   48.76   15.63
   5  -1 -10  129.21   31.68
  -5   1  10  144.24   31.60
   5  -1  -9  327.08   30.06
  -5   1   9  346.72   22.29
   5  -1  -8  380.96   29.80
  -5   1   8  373.70   37.06
   5  -1  -7  501.63   31.60
  -5   1   7  479.09   30.23
  -5   1   6  284.89   13.83
   5  -1  -5  714.62   36.81
  -5   1   5  736.74   41.93
   5  -1  -4  690.62   35.10
   5  -1  -3  491.98   23.14
  -5   1   3  539.46   28.01
   5  -1  -2  264.22   16.99
  -5   1   1   80.87    5.64
  -5   1   0  470.21   22.89
   5  -1   1  351.76   17.59
  -5   1  -1  360.64   13.32
   5  -1   2   53.37    5.98
   5  -1   3   32.20    8.88
  -5   1  -3   44.92    8.37
   5  -1   4   13.92    7.52
  -5   1  -4   20.41    7.77
  -5   1  -5   38.09    7.34
   5  -1   6   65.76   12.98
  -5   1  -6   73.61    9.22
  -5   1  -7  786.44   39.54
  -5   1  -8  666.20   40.05
   5  -1   9  212.73   26.73
  -5   1  -9  200.09   16.82
   5  -1  10   80.96   28.78
   5  -1  11    9.91   25.71
   5   0 -12   89.50   40.82
  -5   0  11   96.59   25.28
   5   0 -10   95.31   27.93
  -5   0  10   58.93   27.24
   5   0  -9   17.08   14.35
  -5   0   9   23.83   25.96
   5   0  -8    1.37   20.07
  -5   0   8   -2.73   12.04
   5   0  -7    6.58   14.52
  -5   0   7   -1.45    9.39
   5   0  -6   -5.29   12.98
  -5   0   6   12.98    8.11
  -5   0   5  175.32   10.59
  -5   0   4   13.49    6.15
   5   0  -3  495.83   24.85
  -5   0   3  502.66   24.94
  -5   0   1  810.86   31.68
  -5   0   0 1225.13   47.57
  -5   0  -1   69.86    3.84
   5   0   2  293.00   14.09
  -5   0  -2  281.99    9.65
  -5   0  -3  370.03   18.10
   5   0   4 1290.38   50.21
  -5   0  -4 1323.77   52.35
  -5   0  -5 1393.02   38.00
   5   0   6  321.95   19.98
  -5   0  -6  274.90   14.43
   5   0   7  392.32   25.96
  -5   0  -7  416.15   24.00
   5   0   8   59.18   19.64
   5   0   9   19.90   18.19
   5   1 -11   72.50   31.43
  -5  -1  11   63.71   32.54
   5   1 -10  102.56   30.91
  -5  -1  10  133.65   38.00
   5   1  -9  152.01   30.06
  -5  -1   9  203.59   32.20
   5   1  -8  287.45   28.95
  -5  -1   8  283.44   29.80
   5   1  -7  364.74   26.64
  -5  -1   7  336.47   19.30
   5   1  -6  394.20   28.01
   5   1  -5  689.17   34.50
  -5  -1   5  656.03   33.22
  -5  -1   4  380.28   14.86
   5   1  -3  164.31   13.49
  -5  -1   3  157.73   11.96
   5   1  -2  233.82   13.66
  -5  -1   2  280.62   16.23
  -5  -1   1  167.81    8.28
   5   1   4  204.19   13.32
   5   1   5  511.97   25.02
   5   1   6  333.31   19.04
   5   1   7  298.64   21.26
  -5  -1  -7  303.25   22.55
   5   1   8   31.17   10.67
  -5  -1  -8   40.14   18.87
   5   1  10  189.41   27.07
  -5  -1 -10  139.03   30.15
   5   1  11  249.88   22.12
   5   1  12  108.37   28.61
  -5  -1 -13   55.85   31.77
   5   2  -9   -0.85   29.46
  -5  -2   9    3.07   18.70
   5   2  -8    9.14   13.66
  -5  -2   8    8.88   12.98
   5   2  -7    7.17   12.38
  -5  -2   7   -0.43   11.44
  -5  -2   6   97.53   12.64
  -5  -2   5  176.26   11.96
  -5  -2   4   -3.76    8.54
  -5  -2   3   28.10    8.45
  -5  -2   2  136.21    9.91
  -5  -2  -4  429.13   18.70
  -5  -2  -5  149.36   11.10
  -5  -2  -6  282.67   16.91
  -5  -2  -7  331.95   19.64
   5   2   8  116.48   11.79
  -5  -2  -8   99.66   14.18
   5   2   9    4.87   11.36
  -5  -2  -9    3.42   15.37
   5   2  10   -9.82   17.59
   5   2  11    4.36   16.57
  -5  -2 -11    5.21   22.63
   5   2  12    4.78   27.50
  -5  -2 -12   45.69   35.61
  -5  -3  10   63.71   24.94
  -5  -3   9  174.47   21.18
   5   3  -8  599.24   36.64
  -5  -3   8  474.39   32.79
  -5  -3   7  362.18   27.75
  -5  -3   6  228.01   19.56
  -5  -3   5  277.72   15.46
  -5  -3   4   12.21   10.85
  -5  -3   3  245.78   11.36
  -5  -3   2  330.32   17.51
  -5  -3   1  293.52   14.77
   5   3   4    2.22    4.01
  -5  -3  -4   -1.88    4.70
   5   3   5  131.00   10.25
  -5  -3  -5  153.55   11.10
   5   3   6   47.14    6.49
  -5  -3  -6   59.78    8.88
   5   3   7  137.75   12.72
  -5  -3  -7  128.70    9.48
   5   3   8  375.41   26.30
  -5  -3  -8  382.16   24.68
   5   3   9  259.53   22.37
  -5  -3  -9  225.97   20.07
   5   3  10  388.82   34.24
  -5  -3 -10  432.89   31.94
  -5  -3 -11  131.43   25.28
   5   4  -9   13.24   34.76
  -5  -4   9   23.40   18.45
   5   4  -8   16.40   32.37
  -5  -4   8   10.25   14.77
  -5  -4   6    8.45   14.86
  -5  -4   5    9.56   15.29
   5   4  -4    5.38   16.74
  -5  -4   3  504.37   27.07
  -5  -4   2 1014.20   46.54
  -5  -4   1  930.42   41.08
   5   4   0  751.77   29.46
  -5  -4   0  720.77   28.18
   5   4   3  395.14   18.02
   5   4   4  383.36   18.36
  -5  -4  -4  388.91   17.93
   5   4   5   46.29    8.63
  -5  -4  -5   39.45    7.94
   5   4   6  257.56   16.99
  -5  -4  -6  204.70   14.01
   5   4   7  215.80   17.25
  -5  -4  -7  184.29   14.60
   5   4   8  148.59   17.08
  -5  -4  -8  135.53   15.54
  -5  -4  -9   53.89   17.25
   5   4  10   11.27   14.69
  -5  -4 -10    7.94   13.58
   5   4  11   18.02   16.74
  -5  -5   7   96.24   29.04
   5   5  -6  242.19   33.65
  -5  -5   6  324.17   31.43
  -5  -5   4  159.52   20.32
  -5  -5   3  143.90   16.82
   5   5  -2   42.27   10.76
  -5  -5   2   40.56   12.38
   5   5  -1    7.00    7.09
  -5  -5   1   15.54    8.97
   5   5   0    7.69    9.56
  -5  -5   0   11.36    7.77
   5   5   1   83.09    6.58
  -5  -5  -1   98.38    9.05
   5   5   2    4.01    5.72
   5   5   3    7.86    4.87
  -5  -5  -3    1.28    7.17
   5   5   4  249.96   14.26
  -5  -5  -4  241.76   15.12
   5   5   5 1117.36   44.07
  -5  -5  -6  269.95   18.53
   5   5   7  167.47   16.40
  -5  -5  -7  178.31   16.40
   5   5   8  118.28   16.99
  -5  -5  -8  109.74   16.74
   5   5   9  134.16   20.41
  -5  -5  -9  115.72   18.19
   5   5  10  182.50   19.30
  -5  -5 -10  181.98   16.23
  -5  -5 -11  207.95   26.56
   5   5  12   38.00   28.18
  -5  -5 -12   45.52   25.28
  -5  -6   6   12.13   23.40
  -5  -6   5  131.17   31.09
   5   6  -4  174.47   26.82
  -5  -6   4  223.23   24.17
   5   6  -3  191.21   17.17
  -5  -6   3  175.67   17.08
   5   6  -2  240.06   13.83
  -5  -6   2  216.49   15.37
   5   6  -1   45.18   15.80
  -5  -6   1   46.20    9.99
   5   6   0  317.94   22.29
  -5  -6   0  321.95   22.03
   5   6   1  350.48   15.54
  -5  -6  -1  298.55   20.41
   5   6   2  354.23   23.31
  -5  -6  -2  386.17   20.75
   5   6   3  270.97   12.47
  -5  -6  -3  276.52   13.58
   5   6   4  108.03    8.45
   5   6   5  389.67   21.86
  -5  -6  -5  354.49   21.78
   5   6   6  343.64   21.52
  -5  -6  -6  327.16   22.12
   5   6   7  122.21   15.80
  -5  -6  -7  139.11   17.42
   5   6   8    7.17   15.97
  -5  -6  -8  -10.42   16.40
   5   6   9   12.81   18.02
  -5  -6  -9    4.78   18.45
   5   6  10   -7.17   20.32
  -5  -6 -10   -0.26   21.52
  -5  -6 -11    3.50   25.02
   5   6  12   17.68   18.96
  -5  -6 -12    9.82   33.13
   5   7  -5   42.78   18.45
   5   7  -4   24.85   17.08
  -5  -7   4    6.75   22.20
   5   7  -3   28.86   13.83
  -5  -7   3   21.01   21.18
   5   7  -2    1.20   11.19
  -5  -7   2    0.00   18.19
   5   7  -1   11.87    9.56
  -5  -7   1   14.52   15.71
   5   7   0    0.77   15.63
  -5  -7   0    5.64   11.10
   5   7   1    5.38    9.22
  -5  -7  -1    7.86   10.16
   5   7   2   63.96    8.97
  -5  -7  -2   54.83   15.20
   5   7   3   30.40    8.37
  -5  -7  -3   29.63   14.18
   5   7   4   85.83   13.49
   5   7   5  318.37   15.54
  -5  -7  -5  361.92   22.63
   5   7   6   47.48   14.09
  -5  -7  -6   62.60   18.96
   5   7   7  313.33   24.51
  -5  -7  -7  276.09   24.94
   5   7   8  207.86   24.59
  -5  -7  -8  205.04   23.40
   5   7   9   88.90   22.29
  -5  -7  -9   79.76   25.28
   5   7  10   42.19   19.04
   5   7  11   30.23   18.10
   5   8  -2  116.83   18.53
  -5  -8   2   76.26   23.57
   5   8  -1   97.01   15.12
  -5  -8   1  155.60   17.85
   5   8   0  205.30   20.15
  -5  -8   0  163.97   16.91
   5   8   1  183.18   15.88
  -5  -8  -1  175.24   22.89
   5   8   2  189.67   13.49
  -5  -8  -2  203.16   18.96
   5   8   3  110.93   17.59
  -5  -8  -3  107.77   12.81
   5   8   4  181.81   12.64
  -5  -8  -4  195.56   20.41
   5   8   5   98.81   12.13
  -5  -8  -5  101.71   21.18
   5   8   6   31.43   12.47
  -5  -8  -6   42.36   20.41
   5   8   7    9.39   17.51
  -5  -8  -7    3.25   14.77
   5   8   8   14.01   19.81
  -5  -8  -8    2.65   24.08
   5   8   9    2.48   23.40
  -5  -8  -9    1.96   15.80
   5   9  -1   -5.04   10.67
  -5  -9   0   -7.77   22.72
   5   9   1   16.23   19.39
  -5  -9  -1    5.47   16.82
   5   9   2   -8.37   13.49
  -5  -9  -2   17.08   18.28
   5   9   3    1.79   14.01
  -5  -9  -3   24.00   23.06
   5   9   4   77.37   16.91
   5   9   5  163.88   15.29
  -5  -9  -5  141.68   30.06
   5   9   6  152.78   20.32
  -5  -9  -6  182.24   33.90
   5   9   7  136.64   29.04
  -5  -9  -7  138.43   35.36
   5  10   4   38.94   17.76
   5  10   6   13.24   22.37
   6  -8  -6  259.19   31.34
  -6   8   6  218.36   24.68
   6  -8  -5  123.15   25.96
  -6   8   5   70.28   21.69
   6  -8  -4  477.81   34.24
  -6   8   4  516.83   45.94
   6  -8  -3  639.38   37.23
  -6   8   3  627.94   33.99
   6  -8  -2  540.06   39.54
  -6   8   2  701.12   34.24
   6  -8  -1  591.98   48.34
  -6   8   1  525.97   53.03
   6  -8   0   37.49   37.15
  -6   8   0   32.02   22.37
   6  -8   1   77.37   45.18
  -6   8  -1   58.16   22.55
   6  -7  -8  460.30   50.04
   6  -7  -7  360.47   57.22
  -6   7   7  436.81   51.41
   6  -7  -6  414.01   28.52
  -6   7   6  381.65   42.96
   6  -7  -5  214.69   44.66
  -6   7   5  408.04   26.05
   6  -7  -4   55.68   26.13
  -6   7   4   28.95   22.03
   6  -7  -3   22.97   18.45
  -6   7   3    7.86   15.88
   6  -7  -2   -3.50   19.13
  -6   7   2    7.60   16.99
   6  -7  -1   44.58   19.39
  -6   7   1   37.40   20.07
   6  -7   0   70.20   30.57
  -6   7   0   56.02   18.96
   6  -7   1  222.63   34.33
  -6   7  -1  201.63   22.89
   6  -7   2   61.23   25.45
  -6   7  -2   82.50   25.88
  -6   7  -3   64.90   33.31
   6  -6  -9   97.27   26.64
  -6   6   9   81.39   38.86
   6  -6  -8  525.29   36.89
  -6   6   8  364.23   52.61
   6  -6  -7  155.08   25.19
  -6   6   7  160.12   20.58
   6  -6  -6  207.52   21.86
  -6   6   6  179.34   22.55
   6  -6  -5  404.70   38.77
  -6   6   5  417.26   38.34
  -6   6   4  783.11   32.20
   6  -6  -3  807.96   33.13
  -6   6   3  797.11   29.72
   6  -6  -2  722.05   30.74
  -6   6   2  746.90   27.84
   6  -6  -1  580.11   28.10
  -6   6   1  593.44   25.88
   6  -6   0  273.70   22.29
  -6   6   0  268.84   26.22
   6  -6   1  516.75   28.18
  -6   6  -1  505.90   26.30
   6  -6   2  249.71   33.48
  -6   6  -2  252.01   26.13
   6  -6   3   59.86   21.78
  -6   6  -3   73.53   23.83
   6  -6   4   31.60   28.95
  -6   6  -4   47.31   20.92
   6  -6   5   75.92   37.40
  -6   6  -5   83.52   27.84
  -6   6  -6   18.28   23.06
   6  -5 -10  368.50   48.51
  -6   5  10  304.02   44.75
   6  -5  -9  144.32   42.87
  -6   5   9  364.57   46.97
   6  -5  -8  275.41   40.74
  -6   5   8  277.89   38.86
   6  -5  -7  136.38   19.81
  -6   5   7  163.20   32.45
   6  -5  -6  185.23   27.33
  -6   5   6  193.43   17.25
   6  -5  -5  253.72   19.47
  -6   5   5  248.00   18.28
   6  -5  -4   58.50   12.13
  -6   5   4   64.73   13.24
   6  -5  -3  273.53   26.13
  -6   5   3  284.04   25.36
   6  -5  -2   68.83   16.48
  -6   5   2   67.64   11.53
   6  -5  -1  315.72   19.81
  -6   5   1  296.85   16.05
   6  -5   0   70.37   14.09
  -6   5   0   70.88   12.90
   6  -5   1   10.08   16.05
  -6   5  -1   21.95   17.17
   6  -5   2   83.26   22.72
  -6   5  -2   88.30   16.57
   6  -5   3  137.66   20.41
  -6   5  -3  166.02   16.40
   6  -5   5  512.99   29.46
  -6   5  -5  488.40   26.90
   6  -5   6  224.43   28.52
  -6   5  -6  220.67   22.37
   6  -5   7   40.22   36.64
  -6   5  -7   76.43   24.34
  -6   4  10   13.66   19.73
   6  -4  -9  112.13   33.05
  -6   4   9  133.48   37.92
   6  -4  -8  346.21   36.47
  -6   4   8  323.66   38.26
   6  -4  -7  404.11   34.67
  -6   4   7  410.85   18.53
   6  -4  -6  503.17   24.51
  -6   4   6  470.63   38.00
   6  -4  -5  600.27   38.51
  -6   4   5  542.88   22.46
   6  -4  -4  658.00   35.36
  -6   4   4  592.92   24.00
   6  -4  -3  566.02   26.90
  -6   4   3  572.34   23.40
   6  -4  -2 1028.97   33.56
  -6   4   2 1001.98   34.07
   6  -4  -1  696.68   34.24
  -6   4   1  676.79   35.78
   6  -4   0 1044.34   46.88
  -6   4   0  977.56   31.77
   6  -4   1  545.44   31.85
  -6   4  -1  473.88   28.27
   6  -4   2  127.07   19.21
  -6   4  -2  129.04   14.01
   6  -4   3   21.61   14.94
  -6   4  -3   33.48   11.96
   6  -4   4  -12.38   21.61
  -6   4  -4    5.38   23.40
   6  -4   5   47.31   22.89
  -6   4  -5   60.63   15.37
   6  -4   6   32.28   25.36
  -6   4  -6   31.85   12.38
  -6   4  -7  -11.36   19.30
  -6   4  -8   -1.02   19.90
   6  -3 -10   15.37   26.64
  -6   3  10   29.29   16.65
   6  -3  -9  133.91   28.69
  -6   3   9  140.65   15.71
   6  -3  -8  498.39   36.47
  -6   3   8  458.08   43.55
   6  -3  -7  307.86   21.35
  -6   3   7  327.59   34.42
   6  -3  -6   17.25   18.79
   6  -3  -5   17.34   11.96
  -6   3   5   38.94   18.28
   6  -3  -4  108.11   17.17
  -6   3   4   86.59    9.56
   6  -3  -3   -1.45   12.38
  -6   3   3    7.09    8.03
   6  -3  -2  557.74   20.84
  -6   3   2  521.02   29.29
   6  -3  -1    5.89    6.58
  -6   3   1    6.49    5.81
   6  -3   0  307.09   13.15
  -6   3   0  283.78   12.64
   6  -3   1  548.60   28.10
  -6   3  -1  517.35   18.02
   6  -3   2 1049.55   47.57
  -6   3  -2  850.40   40.82
   6  -3   3  497.02   24.00
  -6   3  -3  488.82   26.13
   6  -3   4  302.06   16.57
  -6   3  -4  271.57   16.23
   6  -3   5  281.73   18.70
  -6   3  -5  264.91   16.74
   6  -3   6  386.00   31.26
  -6   3  -6  425.97   22.03
   6  -3   7  245.09   23.91
  -6   3  -7  248.94   17.93
   6  -3   8  107.77   32.96
  -6   3  -8  156.11   18.87
   6  -3   9   71.31   36.72
  -6   2  11    2.05   18.96
   6  -2 -10   93.17   35.61
  -6   2  10  141.08   24.42
   6  -2  -9  152.86   26.47
  -6   2   9  124.60   18.10
   6  -2  -8  432.12   37.06
  -6   2   8  410.17   26.56
   6  -2  -7  288.05   25.19
  -6   2   7  237.24   30.91
   6  -2  -6  517.94   30.32
  -6   2   6  554.24   39.97
   6  -2  -5  310.77   25.96
   6  -2  -4  293.17   20.24
  -6   2   4  299.84   23.48
   6  -2  -3  533.23   26.47
  -6   2   3  579.00   27.50
   6  -2  -2  416.49   20.07
  -6   2   2  444.24   25.28
  -6   2   1 1349.90   52.09
   6  -2   0 1010.78   44.24
  -6   2   0 1011.04   39.20
   6  -2   1  390.70   19.98
  -6   2  -1  343.30   12.98
   6  -2   2   21.61    8.03
  -6   2  -2   24.68   10.08
   6  -2   3   -2.82   12.13
   6  -2   4   14.86   15.63
  -6   2  -4   11.10   15.20
   6  -2   5   69.86   17.76
  -6   2  -5   55.68   18.79
   6  -2   6   11.61   16.99
  -6   2  -6   24.00   11.53
   6  -2   7   -6.75   22.72
  -6   2  -7   -2.13   16.14
  -6   2  -8   27.75   18.79
  -6   1  11   53.46   28.27
  -6   1  10   79.76   19.56
   6  -1  -9   82.84   27.50
  -6   1   8   69.94   13.15
   6  -1  -7   70.28   16.74
  -6   1   7   79.59   23.23
   6  -1  -6   50.30   16.48
  -6   1   6   26.22   10.67
   6  -1  -5  239.89   19.21
   6  -1  -4   24.25   11.44
  -6   1   4   33.73   12.21
   6  -1  -3  129.04   12.30
  -6   1   3  140.48   14.26
  -6   1   2  491.64   22.63
   6  -1  -1 1826.85   73.70
  -6   1   1 1952.73   74.13
  -6   1   0  158.24   11.36
   6  -1   1   43.04    7.94
  -6   1  -1   41.85    5.04
   6  -1   2  195.90   12.81
  -6   1  -2  176.43    8.28
   6  -1   3  779.26   34.76
  -6   1  -3  740.83   33.13
   6  -1   4  932.30   42.19
  -6   1  -4  884.22   38.69
   6  -1   5  521.10   27.58
  -6   1  -5  481.31   18.87
   6  -1   6  294.11   22.03
   6  -1   7   34.42   20.24
  -6   1  -7   20.07   16.74
   6  -1   8  262.00   27.84
   6  -1   9  161.32   28.10
  -6   1  -9  138.60   29.46
  -6   0  10   67.47   19.21
   6   0  -9   33.90   25.11
  -6   0   9   17.85   13.58
  -6   0   8  100.51   28.35
   6   0  -7  127.24   15.97
  -6   0   7  130.92   13.66
  -6   0   6  244.50   12.90
   6   0  -5  270.12   20.92
   6   0  -4  557.82   32.96
  -6   0   2  724.18   31.94
  -6   0  -1   95.39    6.15
   6   0   2  321.61   13.75
  -6   0  -2  282.50   12.30
   6   0   3  280.36   15.29
  -6   0  -3  218.88    8.88
   6   0   4    0.51    7.86
  -6   0  -4    2.73    8.03
   6   0   5   18.45   10.08
  -6   0  -5   11.61   10.25
   6   0   6  105.13   14.26
  -6   0  -6   96.50   14.09
   6   0   8    3.93   17.25
  -6   0  -8   -0.09   20.58
   6   0   9   42.70   20.58
  -6   0  -9   52.86   21.09
   6   0  10  146.80   29.12
  -6   0 -10   82.92   20.92
   6   0  11   72.16   25.88
  -6  -1   9   59.44   17.17
  -6  -1   8  141.51   18.02
   6   1  -6   12.98   14.77
   6   1  -5   11.19   12.21
   6   1  -4  102.65   13.83
  -6  -1   4   96.50   14.86
  -6  -1   3  269.26   17.34
  -6  -1   2  129.55    9.48
   6   1   4  401.97   20.50
   6   1   5  845.87   35.36
   6   1   6  545.95   30.57
  -6  -1  -6  583.36   29.63
   6   1   7  405.99   24.85
   6   1   8  168.24   21.01
   6   1   9   11.70   15.46
  -6  -1  -9    2.90   13.41
   6   1  10   -0.34   18.19
   6   1  11   31.43   28.35
  -6  -2   9   57.05   17.76
   6   2  -8  112.30   24.85
  -6  -2   8  147.40   17.93
   6   2  -7  176.35   27.84
  -6  -2   7  136.64   13.41
   6   2  -6  216.40   17.68
  -6  -2   6  245.09   20.67
  -6  -2   5  232.54   12.98
  -6  -2   2  360.72   17.76
   6   2   5   27.33    6.92
  -6  -2  -5   11.02    6.49
   6   2   6    6.06    8.71
  -6  -2  -6   -2.22    7.94
   6   2   7   70.28   12.47
  -6  -2  -7   43.04   11.44
   6   2   8   19.56   11.96
  -6  -2  -8   29.55   11.87
   6   2   9  252.69   21.95
  -6  -2  -9  235.87   18.10
   6   2  10   69.17   19.39
  -6  -2 -10  105.89   18.10
   6   2  11   49.53   25.28
  -6  -2 -11   46.12   26.82
  -6  -3   9    9.48   18.70
  -6  -3   8   -2.90   22.63
  -6  -3   7   -1.37   19.21
  -6  -3   6   -0.17   16.57
  -6  -3   5   24.51   10.67
   6   3  -4   -0.85   10.76
  -6  -3   4    4.36   10.59
  -6  -3   3  121.52   12.55
  -6  -3   2  167.72   11.61
   6   3   5  659.96   25.45
  -6  -3  -5  677.04   25.36
  -6  -3  -6  272.00   15.37
  -6  -3  -7  134.25   13.92
   6   3   8   69.00   18.02
  -6  -3  -8   74.21   13.24
   6   3   9    3.59   22.03
  -6  -3  -9    1.02   16.74
  -6  -3 -10   27.67   19.56
   6   3  11   -3.42   25.62
   6   4  -6  110.93   17.68
  -6  -4   5   43.04   12.55
  -6  -4   3   98.81   12.72
  -6  -4   2  451.16   23.31
  -6  -4  -5   11.19    6.23
   6   4   6  110.59   11.10
  -6  -4  -6  105.47   11.61
   6   4   7   82.15    8.54
  -6  -4  -7   83.09   11.27
   6   4   8   85.31   16.14
  -6  -4  -8   86.42   12.81
   6   4   9  175.75   20.75
   6   4  10   93.00   13.32
  -6  -5   6   -1.28   20.58
  -6  -5   5   10.67   17.34
  -6  -5   4   20.07   12.38
  -6  -5   3  113.07   16.05
  -6  -5   2    8.03   11.44
   6   5  -1  185.23   14.69
  -6  -5   1  207.95   15.12
   6   5   4  197.01   11.10
   6   5   6  395.57   21.26
   6   5   7   78.05   11.53
  -6  -5  -7   66.01   14.18
   6   5   8   47.57   11.70
  -6  -5  -8   54.57   16.40
  -6  -5  -9   40.05   14.77
   6   5  11   26.47   20.58
  -6  -5 -11    2.82   21.86
   6   6  -4  112.81   17.59
  -6  -6   4  126.73   21.09
  -6  -6   3  136.38   19.30
   6   6  -2  145.86   13.92
   6   6  -1   30.91   10.50
   6   6   0   71.39    7.09
  -6  -6   0   62.68   12.47
   6   6   1   24.85    5.98
  -6  -6  -1   41.08    9.65
   6   6   2    0.68    5.12
   6   6   4  132.62   10.85
   6   6   5   32.02    8.80
   6   6   6   39.28   11.27
  -6  -6  -6   49.53   12.55
   6   6   7    5.47   10.85
  -6  -6  -7   -4.18   13.92
   6   6   8   19.21   15.97
   6   6   9   62.51   12.98
   6   6  10   51.32   18.96
   6   7  -3   36.21   16.05
  -6  -7   2   11.02   19.90
   6   7  -1   99.66   13.15
  -6  -7   1   72.67   18.36
   6   7   0   55.25    9.14
  -6  -7   0   59.69   13.15
   6   7   1   51.07   12.04
  -6  -7  -1   41.93   12.98
   6   7   2  122.97   12.13
  -6  -7  -2  120.41   17.68
   6   7   3  357.05   19.98
   6   7   4  170.54   14.35
   6   7   5  147.31   16.82
   6   7   6   42.61   11.27
  -6  -7  -6   37.58   14.60
   6   7   8   69.34   19.81
   6   7   9   34.59   17.25
  -6  -7  -9   20.67   19.73
   6   8   0    9.65   12.81
   6   8   1    1.62   12.13
  -6  -8  -1    3.33   11.70
   6   8   2    7.09   11.53
  -6  -8  -2   12.72   15.29
   6   8   3    5.55   13.49
  -6  -8  -3    6.66   15.80
   6   8   4   -1.79    9.48
   6   8   5    3.33   11.02
  -6  -8  -5    8.97   18.36
   6   8   6   -0.94   13.49
  -6  -8  -6    5.81   16.05
   6   8   7   56.28   15.80
   6   9   5   70.71   15.20
   7  -7  -6   15.71   21.78
  -7   7   6   42.10   21.78
   7  -7  -5   45.86   21.69
  -7   7   5   73.70   23.23
   7  -7  -4  348.94   28.44
  -7   7   4  355.34   28.01
   7  -7  -3  415.64   42.36
  -7   7   3  410.26   29.55
   7  -7  -2  319.05   40.31
   7  -7  -1  348.17   43.04
   7  -7   0  101.11   40.14
  -7   7   0  349.96   26.82
   7  -7   1   67.47   35.61
   7  -6  -7  430.32   52.35
   7  -6  -6  314.18   27.41
  -7   6   6  269.18   29.38
   7  -6  -5  450.31   46.46
  -7   6   5  518.20   43.98
   7  -6  -4  285.74   24.68
  -7   6   4  241.85   23.57
   7  -6  -3  504.96   27.16
  -7   6   3  460.38   44.32
   7  -6  -2   16.14   22.55
  -7   6   2   22.63   24.17
   7  -6  -1   32.37   17.17
  -7   6   1   22.63   15.20
  -7   6   0   12.30   17.42
   7  -6   1   62.34   26.47
  -7   6  -1   50.64   18.36
   7  -6   2  -14.69   29.04
  -7   6  -2   25.62   16.82
   7  -6   3   20.07   26.47
  -7   6  -3   42.27   18.79
   7  -6   4   75.07   32.71
  -7   6  -4   60.21   25.45
   7  -5  -8   -2.82   20.32
  -7   5   8   11.96   24.85
   7  -5  -7    8.71   18.79
  -7   5   7    9.82   11.79
   7  -5  -6  106.83   30.40
  -7   5   6  108.54   26.22
   7  -5  -5  329.21   37.23
  -7   5   5  343.39   23.14
   7  -5  -4  670.12   47.48
  -7   5   4  677.13   31.85
   7  -5  -3  730.84   42.36
  -7   5   3  759.96   43.89
   7  -5  -2  528.70   43.38
  -7   5   2  551.42   42.44
  -7   5   1  584.90   24.34
   7  -5   0  275.07   20.67
  -7   5   0  242.62   23.83
   7  -5   1  218.19   19.81
  -7   5  -1  211.79   18.10
   7  -5   2  284.72   22.55
  -7   5  -2  301.29   20.67
   7  -5   3  196.08   27.07
  -7   5  -3  194.11   17.68
   7  -5   4  199.75   23.91
  -7   5  -4  232.97   20.32
   7  -5   5    9.91   22.89
  -7   5  -5   39.11   17.17
   7  -5   6  -19.39   31.43
  -7   5  -6    9.48   21.26
  -7   4  10  102.65   42.61
  -7   4   9  263.03   40.48
   7  -4  -8  354.23   36.12
  -7   4   8  426.48   24.00
   7  -4  -7  329.81   43.98
  -7   4   7  281.90   45.18
   7  -4  -6   97.01   25.96
  -7   4   6   81.47   25.53
   7  -4  -5   60.80   22.55
  -7   4   5   68.92   19.90
   7  -4  -4   56.28   17.25
  -7   4   4   53.63   13.24
   7  -4  -3  121.18   14.43
  -7   4   3  105.38   12.64
   7  -4  -2    9.31   15.71
  -7   4   2    6.49   10.42
  -7   4   1   18.19   11.53
   7  -4   0   11.87   19.30
  -7   4   0    0.60   11.87
   7  -4   1   55.77   21.44
  -7   4  -1   50.81   12.21
   7  -4   2   13.58   13.58
  -7   4  -2   13.83   20.84
   7  -4   3   87.19   24.68
  -7   4  -3  125.62   16.40
   7  -4   4  201.03   33.82
  -7   4  -4  203.93   29.29
   7  -4   5   95.22   21.86
  -7   4  -5   74.47   20.24
   7  -4   6   73.19   30.74
  -7   4  -6  100.86   18.45
   7  -4   7   67.64   31.68
  -7   4  -7  190.78   33.48
  -7   3   9   69.00   28.44
   7  -3  -8   27.84   24.17
  -7   3   8   17.25   28.78
   7  -3  -7   72.33   20.07
  -7   3   7   85.57   12.90
   7  -3  -6  158.41   30.40
  -7   3   6  198.47   32.37
  -7   3   5  260.98   25.71
  -7   3   4  475.24   32.62
   7  -3  -3  589.68   23.83
  -7   3   3  588.82   23.66
   7  -3  -2 1124.02   47.31
  -7   3   2 1093.87   46.46
   7  -3  -1  439.63   20.07
   7  -3   0  442.11   25.96
  -7   3   0  482.25   18.36
  -7   3  -1  145.60   11.36
   7  -3   2  112.81   13.24
  -7   3  -2  146.37   17.76
   7  -3   3  204.02   16.82
  -7   3  -3  186.68   14.18
   7  -3   4  188.82   18.62
  -7   3  -4  185.32   18.36
   7  -3   5  212.56   29.46
  -7   3  -5  174.98   15.29
   7  -3   6   15.80   22.20
  -7   3  -6    5.64   14.35
   7  -3   7   10.08   25.19
  -7   3  -7    1.54   14.35
  -7   3  -8    6.66   17.42
  -7   2  10  100.94   40.31
   7  -2  -9  225.88   36.12
  -7   2   9  210.00   25.02
   7  -2  -8  120.75   26.90
  -7   2   8  165.16   16.65
   7  -2  -7   42.27   22.55
  -7   2   7   59.61   24.68
   7  -2  -6   88.39   22.97
  -7   2   5  123.06   21.01
  -7   2   4  129.04   16.14
   7  -2  -2    4.87   12.21
  -7   2   2   -1.88    7.17
   7  -2  -1   62.60   12.21
  -7   2   1   78.05    8.45
  -7   2   0    1.96    9.82
   7  -2   1  155.68   13.58
  -7   2  -1  146.12    9.48
   7  -2   2  410.60   19.64
  -7   2  -2  428.10   15.80
   7  -2   3  427.16   26.13
  -7   2  -3  431.26   17.59
   7  -2   4  234.25   16.91
  -7   2  -4  234.33   21.26
   7  -2   5   93.34   21.95
  -7   2  -5   86.08   11.79
   7  -2   6   92.15   25.71
  -7   2  -6   85.06   12.98
   7  -2   7  256.03   30.83
  -7   2  -7  310.34   26.22
   7  -2   8   59.86   26.30
  -7   1   9   35.10   15.20
  -7   1   8   24.68   13.15
   7  -1  -7   49.02   24.68
  -7   1   7   80.70   25.53
  -7   1   6  241.93   25.53
   7  -1  -5  187.71   19.81
  -7   1   5  207.60   26.30
  -7   1   4  144.07   16.14
   7  -1  -3  346.04   22.12
  -7   1   3  359.96   23.40
   7  -1  -2  411.96   22.63
  -7   1   0  794.72   36.64
   7  -1   1  510.17   24.94
  -7   1  -1  492.49   23.14
   7  -1   2  351.16   18.79
  -7   1  -2  360.38   17.76
   7  -1   3  204.79   15.71
  -7   1  -3  230.83   15.03
   7  -1   4  117.85   14.26
  -7   1  -4  122.80    9.31
   7  -1   5   22.97   16.57
  -7   1  -5   12.81   13.07
   7  -1   6    6.32   18.02
  -7   1  -6   13.49   12.21
   7  -1   7   13.24   19.56
  -7   1  -7   15.12   20.50
   7  -1   8  -10.08   26.05
  -7   0   8   59.01   26.22
  -7   0   7  123.23   12.55
   7   0  -6   53.03   20.41
  -7   0   6   59.27   18.53
   7   0  -5   12.13   16.48
  -7   0   5   41.42   14.94
   7   0  -4    5.47   11.61
  -7   0   4   17.25   13.15
  -7   0   3    5.04    9.82
  -7   0  -2  202.14    9.65
   7   0   3  201.97   12.21
  -7   0  -3  199.75   11.27
   7   0   4  228.87   16.82
  -7   0  -4  231.69   15.54
   7   0   5  165.33   16.91
   7   0   6  204.02   18.10
  -7   0  -6  236.98   19.73
   7   0   7   77.46   18.10
  -7   0  -7   72.67   16.91
   7   0   8   31.34   19.98
   7   0   9  105.81   22.46
  -7   0  -9  112.98   28.78
  -7  -1   7   23.40   14.94
  -7  -1   6   68.15   19.56
   7   1  -5  142.62   19.98
  -7  -1   5  175.67   21.61
   7   1  -4  147.83   16.23
   7   1   4   71.31    5.04
  -7  -1  -4   63.54    3.42
  -7  -1  -5    3.07    6.83
   7   1   6   -2.99   11.79
   7   1   7   10.08    8.97
   7   1   8   22.37   16.65
  -7  -1  -9   -8.97   20.15
   7   1  10   19.47   23.57
  -7  -2   7   30.66   17.08
  -7  -2   5   11.44   16.65
   7   2   6  112.98   11.10
  -7  -2  -6   94.88   10.42
   7   2   7  149.45   11.96
  -7  -2  -7  122.46   15.80
   7   2   8  101.45   18.19
  -7  -2  -8  109.31   15.88
   7   2   9  144.58   26.39
  -7  -2  -9  130.92   21.09
  -7  -2 -10   36.72   23.91
  -7  -3  -6   33.31    7.00
   7   3   7    7.43    6.83
  -7  -3  -7    0.17    9.48
   7   3   8   28.27    9.05
  -7  -3  -8   24.00   12.64
  -7  -3  -9   45.94   19.90
  -7  -4   4   -4.10   12.98
  -7  -4   3   18.19   11.02
   7   4   7   82.41   10.59
  -7  -4  -7  120.75   13.24
   7   4   8   16.40    9.22
  -7  -5   3   77.37   16.65
   7   7   8    6.06   13.15
  -8   7   3   42.10   26.30
  -8   6   5   42.96   31.26
   8  -6  -4  113.24   24.77
  -8   6   4   65.67   19.81
   8  -6  -3   29.63   35.78
  -8   6   3   50.39   19.21
   8  -6  -2   83.52   23.66
  -8   6   2   48.59   24.25
   8  -6  -1   49.45   26.56
  -8   6   1   77.71   19.64
  -8   6   0   85.83   30.32
  -8   6  -1  135.53   35.95
   8  -6   2  176.86   41.59
  -8   6  -2  159.35   26.30
  -8   6  -3  164.82   34.59
   8  -5  -6   90.18   40.05
  -8   5   6  260.04   40.82
   8  -5  -5  177.29   21.09
  -8   5   5  205.30   34.76
   8  -5  -4  235.44   23.40
  -8   5   4  227.67   22.37
   8  -5  -3  203.76   21.35
  -8   5   3  183.95   26.05
   8  -5  -2  114.69   18.45
  -8   5   2   83.69   14.35
   8  -5  -1   41.67   26.56
  -8   5   1   75.41   15.12
   8  -5   0    8.37   20.75
  -8   5   0    1.20   14.26
   8  -5   1    4.53   27.41
   8  -5   2    4.10   19.56
  -8   5  -2    4.53   15.80
  -8   5  -4    3.93   15.03
   8  -4  -6   -4.01   27.50
  -8   4   6   -0.09   22.46
   8  -4  -5  197.70   28.27
  -8   4   5  117.51   28.27
  -8   4   4  219.73   26.39
  -8   4   3  196.67   16.14
   8  -4  -2  134.33   22.80
  -8   4   2   88.56   13.32
  -8   4   1  550.57   24.08
   8  -4   0  190.18   18.87
  -8   4   0  232.63   22.80
   8  -4   1  292.06   28.01
  -8   4  -1  309.31   19.64
   8  -4   2  291.04   22.55
  -8   4  -2  327.25   18.96
   8  -4   3   53.63   17.68
  -8   4  -3   68.66   14.60
   8  -4   4   95.90   28.44
   8  -4   5   -5.04   28.44
  -8   4  -5    6.83   28.27
  -8   3   7   32.28   31.26
  -8   3   6  238.86   37.23
  -8   3   5  325.63   36.89
   8  -3  -4  188.05   23.23
   8  -3  -3  107.77   21.26
  -8   3   2   79.16   12.38
   8  -3  -1   62.34   14.94
  -8   3   1   83.01   11.19
   8  -3   0   22.63   11.53
  -8   3   0   30.40   14.35
   8  -3   1    4.70   15.97
  -8   3  -1   16.99   15.63
  -8   3  -2    7.77   11.10
   8  -3   3    9.82   20.24
  -8   3  -3    8.71   10.67
   8  -3   4  -12.98   23.83
  -8   3  -4   13.92   15.20
   8  -3   5   24.08   23.48
  -8   3  -5    5.72   13.49
  -8   2   6   16.57   20.41
   8  -2  -5   41.25   21.52
  -8   2   5   55.08   20.07
  -8   2   4  118.96   19.39
   8  -2  -2  527.76   33.90
  -8   2   2  446.38   31.26
  -8   2   1  444.24   26.22
  -8   2   0   36.89   11.44
  -8   2  -1   96.67    8.45
  -8   2  -2  181.22   11.61
   8  -2   3  179.76   20.24
  -8   2  -3  170.88   12.13
  -8   2  -4  337.92   21.69
   8  -2   5  142.96   28.52
  -8   2  -5  123.57   18.19
   8  -2   6   40.31   20.07
  -8   2  -6   30.91   15.63
  -8   1   8   87.19   21.61
  -8   1   7   14.69   12.98
  -8   1   5   64.31   18.28
  -8   1   4  188.56   19.98
  -8   1  -1   15.03    7.77
  -8   1  -2    4.27    7.60
   8  -1   3    0.34   11.02
  -8   1  -3   12.04    9.74
   8  -1   4   25.28   13.41
  -8   1  -4   25.45   12.04
   8  -1   5  110.85   22.89
   8  -1   6   91.63   23.23
  -8   0   3   73.87   10.42
  -8   0  -4   80.62    8.63
   8   0   5   32.20   12.47
  -8   0  -5   26.05   12.30
   8   0   6   19.13   12.90
  -8   0  -6   15.80   14.26
  -8  -1  -6   25.02    9.48
  -8  -1  -9  119.47   21.86
   8   1  10   16.31   16.74
   8   2   9   -6.32   17.68
   9  -4  -1   71.56   22.20
  -9   4   1   75.07   23.06
   9  -4   1   40.56   25.96
  -9   4  -2   -6.40   15.54
  -9   3   4    4.95   14.77
  -9   3   3   27.41   16.48
  -9   3   1   80.10   18.53
   9  -3   0  141.85   24.25
  -9   3   0  192.49   25.11
  -9   3  -1  124.60   22.20
  -9   2   3  107.60   19.04
  -9   2  -1   14.69   12.38
  -9   2  -2   18.53   12.21
   9  -2   3    7.94   14.60
  -9   2  -3   12.04   14.77
  -9   1   5    4.53   15.37
  -9   1  -3   70.88   10.25
   0   0   0    0.00    0.00


_computing_structure_solution     'SHELXT 2018/2 (Sheldrick, 2018)'
_computing_structure_solution     'SHELXT 2014/5 (Sheldrick, 2014)'
;
_shelx_hkl_checksum              12219
loop_
_space_group_symop_operation_xyz
'x, y, z'
'-x, -y, -z'
loop_
_atom_site_label
_atom_site_type_symbol
_atom_site_fract_x
_atom_site_fract_y
_atom_site_fract_z
_atom_site_U_iso_or_equiv
_atom_site_adp_type
_atom_site_occupancy
_atom_site_site_symmetry_order
_atom_site_calc_flag
_atom_site_refinement_flags_posn
_atom_site_refinement_flags_adp
_atom_site_refinement_flags_occupancy
_atom_site_disorder_assembly
_atom_site_disorder_group
Y1 Y 0.18685(7) 0.75917(5) 0.02695(4) 0.02111(18) Uani 1 1 d . . . . .
O1A O 0.4434(6) 0.6366(5) 0.1446(4) 0.0264(8) Uani 1 1 d . . . . .
O2A O 0.6706(6) 0.4484(5) 0.0827(4) 0.0263(8) Uani 1 1 d . . . . .
O3A O 0.0943(6) 0.1074(5) 0.8835(4) 0.0258(8) Uani 1 1 d . . . . .
O4A O 0.3614(6) -0.0311(4) 0.8331(4) 0.0254(8) Uani 1 1 d . . . . .
C1A C 0.5480(8) 0.4877(6) 0.1704(5) 0.0239(11) Uani 1 1 d . . . . .
C2A C 0.5252(9) 0.3475(6) 0.3150(6) 0.0288(12) Uani 1 1 d . . . . .
H2A H 0.597825 0.232931 0.331524 0.035 Uiso 1 1 calc R U . . .
C3A C 0.4097(8) 0.3748(6) 0.4205(6) 0.0270(11) Uani 1 1 d . . . . .
H3A H 0.336702 0.489167 0.404611 0.032 Uiso 1 1 calc R U . . .
C4A C 0.3895(9) 0.2376(7) 0.5599(6) 0.0300(12) Uani 1 1 d . . . . .
H4A H 0.469639 0.127638 0.576479 0.036 Uiso 1 1 calc R U . . .
C5A C 0.2660(9) 0.2554(7) 0.6660(6) 0.0277(12) Uani 1 1 d . . . . .
H5A H 0.191629 0.368523 0.653850 0.033 Uiso 1 1 calc R U . . .
C6A C 0.2412(8) 0.1050(6) 0.8018(5) 0.0239(10) Uani 1 1 d . . . . .
O1B O 0.0590(6) 0.5077(5) 0.1898(4) 0.0264(8) Uani 1 1 d . . . . .
O2B O 0.0220(6) 0.2519(4) 0.1302(4) 0.0242(8) Uani 1 1 d . . . . .
C1B C 0.0291(8) 0.3382(6) 0.2195(5) 0.0261(11) Uani 1 1 d . . . . .
C2B C 0.0020(9) 0.2348(7) 0.3732(6) 0.0278(12) Uani 1 1 d . . . . .
H2B H -0.020742 0.304543 0.438287 0.033 Uiso 1 1 calc R U . . .
C3B C 0.0080(9) 0.0491(7) 0.4248(6) 0.0276(12) Uani 1 1 d . . . . .
H3B H 0.023329 -0.021374 0.360126 0.033 Uiso 1 1 calc R U . . .
O1SA O 0.2732(6) 0.9563(5) 0.1479(4) 0.0299(9) Uani 1 1 d . . . . .
loop_
_atom_site_aniso_label
_atom_site_aniso_U_11
_atom_site_aniso_U_22
_atom_site_aniso_U_33
_atom_site_aniso_U_23
_atom_site_aniso_U_13
_atom_site_aniso_U_12
Y1 0.0345(3) 0.0092(2) 0.0161(2) -0.00356(15) 0.00240(16) 0.01002(16)
O1A 0.040(2) 0.0125(14) 0.0233(18) -0.0056(13) 0.0017(15) 0.0108(14)
O2A 0.037(2) 0.0144(14) 0.0246(18) -0.0061(13) 0.0017(15) 0.0093(14)
O3A 0.040(2) 0.0142(14) 0.0187(17) -0.0040(13) 0.0036(14) 0.0094(14)
O4A 0.038(2) 0.0117(14) 0.0235(18) -0.0062(13) 0.0033(15) 0.0116(13)
C1A 0.037(3) 0.0136(19) 0.017(2) -0.0043(16) 0.0019(19) 0.0105(18)
C2A 0.046(4) 0.0126(19) 0.023(2) -0.0030(18) 0.002(2) 0.0100(19)
C3A 0.043(3) 0.0141(19) 0.020(2) -0.0041(17) 0.003(2) 0.0071(19)
C4A 0.047(4) 0.016(2) 0.022(2) -0.0031(18) 0.003(2) 0.008(2)
C5A 0.043(3) 0.017(2) 0.019(2) -0.0045(18) 0.002(2) 0.011(2)
C6A 0.035(3) 0.0157(19) 0.019(2) -0.0068(17) 0.0002(19) 0.0073(18)
O1B 0.043(2) 0.0122(14) 0.0212(18) -0.0054(13) 0.0021(15) 0.0080(14)
O2B 0.036(2) 0.0139(14) 0.0203(17) -0.0068(12) 0.0007(14) 0.0119(13)
C1B 0.041(3) 0.0112(18) 0.021(2) -0.0027(17) 0.003(2) 0.0119(18)
C2B 0.045(3) 0.014(2) 0.020(2) -0.0048(17) 0.003(2) 0.010(2)
C3B 0.044(3) 0.015(2) 0.023(3) -0.0068(18) -0.001(2) 0.007(2)
O1SA 0.043(3) 0.0168(15) 0.028(2) -0.0103(14) -0.0013(16) 0.0150(15)
loop_
_atom_type_symbol
_atom_type_description
_atom_type_scat_dispersion_real
_atom_type_scat_dispersion_imag
_atom_type_scat_source
C C 0.0033 0.0016 'International Tables Vol C Tables 4.2.6.8 and 6.1.1.4'
H H 0.0000 0.0000 'International Tables Vol C Tables 4.2.6.8 and 6.1.1.4'
O O 0.0110 0.0060 'International Tables Vol C Tables 4.2.6.8 and 6.1.1.4'
Y Y -2.2915 3.4598 'International Tables Vol C Tables 4.2.6.8 and 6.1.1.4'
loop_
_geom_angle_atom_site_label_1
_geom_angle_atom_site_label_2
_geom_angle_atom_site_label_3
_geom_angle
_geom_angle_site_symmetry_1
_geom_angle_site_symmetry_3
_geom_angle_publ_flag
O1A Y1 O1B 81.16(15) . . ?
O1A Y1 O2A 74.76(14) . 2_665 ?
O1B Y1 O2A 85.73(13) . 2_665 ?
O1A Y1 O2B 149.52(12) . 2_565 ?
O1B Y1 O2B 89.64(14) . 2_565 ?
O2A Y1 O2B 75.63(13) 2_665 2_565 ?
O1A Y1 O1SA 69.09(13) . . ?
O1B Y1 O1SA 108.08(14) . . ?
O2A Y1 O1SA 138.26(15) 2_665 . ?
O2B Y1 O1SA 141.04(12) 2_565 . ?
O1A Y1 O3A 126.94(13) . 2_566 ?
O1B Y1 O3A 77.61(13) . 2_566 ?
O2A Y1 O3A 149.03(15) 2_665 2_566 ?
O2B Y1 O3A 78.31(13) 2_565 2_566 ?
O1SA Y1 O3A 72.38(14) . 2_566 ?
O1A Y1 O4A 93.89(14) . 1_564 ?
O1B Y1 O4A 166.28(12) . 1_564 ?
O2A Y1 O4A 80.61(12) 2_665 1_564 ?
O2B Y1 O4A 88.26(14) 2_565 1_564 ?
O1SA Y1 O4A 81.71(14) . 1_564 ?
O3A Y1 O4A 115.16(11) 2_566 1_564 ?
O1A Y1 O3A 130.17(14) . 1_564 ?
O1B Y1 O3A 140.43(13) . 1_564 ?
O2A Y1 O3A 121.98(12) 2_665 1_564 ?
O2B Y1 O3A 73.12(12) 2_565 1_564 ?
O1SA Y1 O3A 71.30(13) . 1_564 ?
O3A Y1 O3A 64.31(14) 2_566 1_564 ?
O4A Y1 O3A 51.15(11) 1_564 1_564 ?
O1A Y1 C6A 114.81(16) . 1_564 ?
O1B Y1 C6A 163.87(16) . 1_564 ?
O2A Y1 C6A 100.23(13) 2_665 1_564 ?
O2B Y1 C6A 77.52(15) 2_565 1_564 ?
O1SA Y1 C6A 77.43(14) . 1_564 ?
O3A Y1 C6A 90.11(13) 2_566 1_564 ?
O4A Y1 C6A 25.55(13) 1_564 1_564 ?
O3A Y1 C6A 25.81(13) 1_564 1_564 ?
C1A O1A Y1 138.3(4) . . ?
C1A O2A Y1 150.3(4) . 2_665 ?
C6A O3A Y1 156.1(3) . 2_566 ?
C6A O3A Y1 88.2(3) . 1_546 ?
Y1 O3A Y1 115.69(15) 2_566 1_546 ?
C6A O4A Y1 99.9(3) . 1_546 ?
O2A C1A O1A 124.3(5) . . ?
O2A C1A C2A 117.0(4) . . ?
O1A C1A C2A 118.7(4) . . ?
C3A C2A C1A 123.7(4) . . ?
C3A C2A H2A 118.2 . . ?
C1A C2A H2A 118.2 . . ?
C2A C3A C4A 122.9(4) . . ?
C2A C3A H3A 118.5 . . ?
C4A C3A H3A 118.5 . . ?
C5A C4A C3A 124.5(5) . . ?
C5A C4A H4A 117.7 . . ?
C3A C4A H4A 117.7 . . ?
C4A C5A C6A 122.2(4) . . ?
C4A C5A H5A 118.9 . . ?
C6A C5A H5A 118.9 . . ?
O3A C6A O4A 119.8(5) . . ?
O3A C6A C5A 119.6(4) . . ?
O4A C6A C5A 120.5(5) . . ?
O3A C6A Y1 66.0(3) . 1_546 ?
O4A C6A Y1 54.6(3) . 1_546 ?
C5A C6A Y1 167.1(4) . 1_546 ?
C1B O1B Y1 146.1(3) . . ?
C1B O2B Y1 136.4(3) . 2_565 ?
O1B C1B O2B 125.3(5) . . ?
O1B C1B C2B 115.6(5) . . ?
O2B C1B C2B 119.0(4) . . ?
C3B C2B C1B 123.7(5) . . ?
C3B C2B H2B 118.2 . . ?
C1B C2B H2B 118.2 . . ?
C2B C3B C3B 122.8(6) . 2_556 ?
C2B C3B H3B 118.6 . . ?
C3B C3B H3B 118.6 2_556 . ?
loop_
_geom_bond_atom_site_label_1
_geom_bond_atom_site_label_2
_geom_bond_distance
_geom_bond_site_symmetry_2
_geom_bond_publ_flag
Y1 O1A 2.268(4) . ?
Y1 O1B 2.273(4) . ?
Y1 O2A 2.291(3) 2_665 ?
Y1 O2B 2.315(4) 2_565 ?
Y1 O1SA 2.353(4) . ?
Y1 O3A 2.385(4) 2_566 ?
Y1 O4A 2.395(4) 1_564 ?
Y1 O3A 2.646(3) 1_564 ?
Y1 C6A 2.895(5) 1_564 ?
O1A C1A 1.270(5) . ?
O2A C1A 1.253(6) . ?
O3A C6A 1.261(6) . ?
O4A C6A 1.268(6) . ?
C1A C2A 1.503(7) . ?
C2A C3A 1.321(7) . ?
C2A H2A 0.9500 . ?
C3A C4A 1.455(7) . ?
C3A H3A 0.9500 . ?
C4A C5A 1.334(7) . ?
C4A H4A 0.9500 . ?
C5A C6A 1.479(7) . ?
C5A H5A 0.9500 . ?
O1B C1B 1.258(6) . ?
O2B C1B 1.267(6) . ?
C1B C2B 1.488(7) . ?
C2B C3B 1.338(7) . ?
C2B H2B 0.9500 . ?
C3B C3B 1.448(10) 2_556 ?
C3B H3B 0.9500 . ?
loop_
_geom_torsion_atom_site_label_1
_geom_torsion_atom_site_label_2
_geom_torsion_atom_site_label_3
_geom_torsion_atom_site_label_4
_geom_torsion
_geom_torsion_site_symmetry_1
_geom_torsion_site_symmetry_2
_geom_torsion_site_symmetry_3
_geom_torsion_site_symmetry_4
_geom_torsion_publ_flag
Y1 O2A C1A O1A -133.6(6) 2_665 . . . ?
Y1 O2A C1A C2A 46.3(10) 2_665 . . . ?
Y1 O1A C1A O2A 76.4(8) . . . . ?
Y1 O1A C1A C2A -103.6(6) . . . . ?
O2A C1A C2A C3A 175.8(6) . . . . ?
O1A C1A C2A C3A -4.2(10) . . . . ?
C1A C2A C3A C4A -180.0(6) . . . . ?
C2A C3A C4A C5A -175.6(7) . . . . ?
C3A C4A C5A C6A 175.1(6) . . . . ?
Y1 O3A C6A O4A 168.1(6) 2_566 . . . ?
Y1 O3A C6A O4A -9.3(5) 1_546 . . . ?
Y1 O3A C6A C5A -15.6(12) 2_566 . . . ?
Y1 O3A C6A C5A 166.9(5) 1_546 . . . ?
Y1 O3A C6A Y1 177.5(9) 2_566 . . 1_546 ?
Y1 O4A C6A O3A 10.5(6) 1_546 . . . ?
Y1 O4A C6A C5A -165.7(4) 1_546 . . . ?
C4A C5A C6A O3A -161.9(6) . . . . ?
C4A C5A C6A O4A 14.4(10) . . . . ?
C4A C5A C6A Y1 -50(2) . . . 1_546 ?
Y1 O1B C1B O2B -24.1(11) . . . . ?
Y1 O1B C1B C2B 155.3(5) . . . . ?
Y1 O2B C1B O1B -73.4(8) 2_565 . . . ?
Y1 O2B C1B C2B 107.2(5) 2_565 . . . ?
O1B C1B C2B C3B -165.5(6) . . . . ?
O2B C1B C2B C3B 14.0(9) . . . . ?
C1B C2B C3B C3B 176.4(7) . . . 2_556 ?
