#------------------------------------------------------------------------------
#$Date: 2022-02-04 22:04:33 +0200 (Fri, 04 Feb 2022) $
#$Revision: 272787 $
#$URL: file:///home/coder/svn-repositories/cod/cif/7/24/41/7244101.cif $
#------------------------------------------------------------------------------
#
# This file is available in the Crystallography Open Database (COD),
# http://www.crystallography.net/
#
# All data on this site have been placed in the public domain by the
# contributors.
#
data_7244101
loop_
_publ_author_name
'Delledonne, Andrea'
'Orlandini, Martina'
'Mazzeo, Paolo P.'
'Sissa, Cristina'
'Bacchi, Alessia'
'Terenziani, Francesca'
'Pelagatti, Paolo'
_publ_section_title
;
 Bis-isonicotinoyl linkers containing polyaromatic scaffolds: synthesis,
 structure and spectroscopic properties.
;
_journal_issue                   2
_journal_name_full               'Physical chemistry chemical physics : PCCP'
_journal_page_first              1191
_journal_page_last               1201
_journal_paper_doi               10.1039/d1cp04438a
_journal_volume                  24
_journal_year                    2022
_chemical_formula_moiety         'C2 H6 O S, C11 H8 N2 O'
_chemical_formula_sum            'C13 H14 N2 O2 S'
_chemical_formula_weight         262.32
_space_group_crystal_system      triclinic
_space_group_IT_number           2
_space_group_name_Hall           '-P 1'
_space_group_name_H-M_alt        'P -1'
_atom_sites_solution_hydrogens   geom
_audit_creation_date             2021-04-15
_audit_creation_method
;
Olex2 1.2
(compiled 2018.05.29 svn.r3508 for OlexSys, GUI svn.r5506)
;
_audit_update_record
;
2021-07-22 deposited with the CCDC.	2021-12-02 downloaded from the CCDC.
;
_cell_angle_alpha                96.092(2)
_cell_angle_beta                 103.963(2)
_cell_angle_gamma                111.340(3)
_cell_formula_units_Z            2
_cell_length_a                   7.6003(5)
_cell_length_b                   9.7756(7)
_cell_length_c                   9.7883(7)
_cell_measurement_reflns_used    2640
_cell_measurement_temperature    297(2)
_cell_measurement_theta_max      26.467
_cell_measurement_theta_min      2.195
_cell_volume                     642.06(8)
_computing_molecular_graphics    'Olex2 (Dolomanov et al., 2009)'
_computing_publication_material  'Olex2 (Dolomanov et al., 2009)'
_computing_structure_refinement  'ShelXL (Sheldrick, 2015)'
_diffrn_ambient_temperature      297.0
_diffrn_measured_fraction_theta_full 0.993
_diffrn_measured_fraction_theta_max 0.991
_diffrn_measurement_device_type  'Bruker D8 Venture, Photon II'
_diffrn_radiation_type           MoK\a
_diffrn_radiation_wavelength     0.71073
_diffrn_reflns_av_R_equivalents  0.0378
_diffrn_reflns_av_unetI/netI     0.0500
_diffrn_reflns_Laue_measured_fraction_full 0.993
_diffrn_reflns_Laue_measured_fraction_max 0.991
_diffrn_reflns_limit_h_max       9
_diffrn_reflns_limit_h_min       -9
_diffrn_reflns_limit_k_max       9
_diffrn_reflns_limit_k_min       -12
_diffrn_reflns_limit_l_max       12
_diffrn_reflns_limit_l_min       -12
_diffrn_reflns_number            6838
_diffrn_reflns_point_group_measured_fraction_full 0.993
_diffrn_reflns_point_group_measured_fraction_max 0.991
_diffrn_reflns_theta_full        25.242
_diffrn_reflns_theta_max         26.467
_diffrn_reflns_theta_min         2.195
_exptl_absorpt_coefficient_mu    0.247
_exptl_crystal_density_diffrn    1.357
_exptl_crystal_description       prism
_exptl_crystal_F_000             276
_exptl_crystal_size_max          0.07
_exptl_crystal_size_mid          0.06
_exptl_crystal_size_min          0.03
_refine_diff_density_max         0.186
_refine_diff_density_min         -0.239
_refine_diff_density_rms         0.042
_refine_ls_extinction_method     none
_refine_ls_goodness_of_fit_ref   1.030
_refine_ls_hydrogen_treatment    constr
_refine_ls_matrix_type           full
_refine_ls_number_parameters     165
_refine_ls_number_reflns         2640
_refine_ls_number_restraints     0
_refine_ls_restrained_S_all      1.030
_refine_ls_R_factor_all          0.0679
_refine_ls_R_factor_gt           0.0447
_refine_ls_shift/su_max          0.000
_refine_ls_shift/su_mean         0.000
_refine_ls_structure_factor_coef Fsqd
_refine_ls_weighting_details
'w=1/[\s^2^(Fo^2^)+(0.0368P)^2^+0.2336P] where P=(Fo^2^+2Fc^2^)/3'
_refine_ls_weighting_scheme      calc
_refine_ls_wR_factor_gt          0.0947
_refine_ls_wR_factor_ref         0.1073
_reflns_Friedel_coverage         0.000
_reflns_number_gt                1981
_reflns_number_total             2640
_reflns_threshold_expression     'I > 2\s(I)'
_cod_data_source_file            d1cp04438a2.cif
_cod_data_source_block           4
_cod_depositor_comments
'Adding full bibliography for 7244101--7244105.cif.'
_cod_database_code               7244101
_shelx_shelxl_version_number     2014/7
_shelx_space_group_comment
;
The symmetry employed for this shelxl refinement is uniquely defined
by the following loop, which should always be used as a source of
symmetry information in preference to the above space-group names.
They are only intended as comments.
;
_olex2_refinement_description
;
1. Fixed Uiso
 At 1.2 times of:
  All C(H) groups, All N(H) groups
 At 1.5 times of:
  All C(H,H,H) groups
2.a Aromatic/amide H refined with riding coordinates:
 N003(H003), C007(H007), C00A(H00A), C00B(H00B), C00C(H00C), C00E(H00E),
 C00G(H00G), C00H(H00H)
2.b Idealised Me refined as rotating group:
 C00F(H00D,H00F,H00I), C00I(H00J,H00K,H00L)
;
_shelx_res_file
;
    ad_x3_0m_a.res created by SHELXL-2014/7

TITL AD_X3_0m_a.res in P-1
REM Old TITL AD_X3_0m in P-1
REM SHELXT solution in P-1
REM R1 0.150, Rweak 0.011, Alpha 0.054, Orientation as input
REM Formula found by SHELXT: C14 N O2 S
CELL 0.71073 7.6003 9.7756 9.7883 96.092 103.963 111.34
ZERR 2 0.0005 0.0007 0.0007 0.002 0.002 0.003
LATT 1
SFAC C H N O S
UNIT 26 28 4 4 2

L.S. 10
PLAN  20
TEMP 23.85
BOND $H
LIST 6
fmap 2
ACTA
REM <olex2.extras>
REM <HklSrc "%.\\AD_X3_0m_a.hkl">
REM </olex2.extras>

WGHT    0.036800    0.233600
FVAR       1.62303
S001  5    0.321338    0.528326    0.671747    11.00000    0.04720    0.04191 =
         0.03895    0.00425    0.00812    0.01785
O002  4    0.265002    0.455249    0.515327    11.00000    0.07185    0.05220 =
         0.04015    0.00320    0.02188    0.02710
N003  3    0.274563    0.166254    0.413833    11.00000    0.04923    0.03241 =
         0.02761    0.00081    0.00247    0.01369
AFIX  43
H003  2    0.324540    0.261114    0.450312    11.00000   -1.20000
AFIX   0
O004  4    0.242042   -0.060042    0.470827    11.00000    0.11230    0.03575 =
         0.04058    0.00583    0.00291    0.01970
N005  3    0.603011    0.296226    0.950916    11.00000    0.06309    0.05810 =
         0.03304    0.00986    0.00514    0.02121
C006  1    0.030884   -0.052081    0.032585    11.00000    0.03513    0.03284 =
         0.03191    0.00382    0.00747    0.01372
C007  1    0.117531    0.226361    0.199208    11.00000    0.04857    0.03240 =
         0.03384    0.00052    0.00853    0.01631
AFIX  43
H007  2    0.148229    0.319894    0.254864    11.00000   -1.20000
AFIX   0
C008  1    0.175478    0.120907    0.264114    11.00000    0.03612    0.03665 =
         0.02893    0.00499    0.00617    0.01298
C009  1    0.406725    0.156601    0.660255    11.00000    0.04446    0.03691 =
         0.03107    0.00679    0.00613    0.01869
C00A  1    0.017200    0.192792    0.056053    11.00000    0.05209    0.03462 =
         0.03502    0.00721    0.00681    0.02150
AFIX  43
H00A  2   -0.020431    0.263656    0.015773    11.00000   -1.20000
AFIX   0
C00B  1    0.560590    0.297468    0.700213    11.00000    0.04772    0.04372 =
         0.03273    0.01078    0.00673    0.01350
AFIX  43
H00B  2    0.601135    0.348753    0.631049    11.00000   -1.20000
AFIX   0
C00C  1    0.134724   -0.015855    0.181299    11.00000    0.04468    0.03539 =
         0.03294    0.00695    0.00604    0.01754
AFIX  43
H00C  2    0.175473   -0.084683    0.223090    11.00000   -1.20000
AFIX   0
C00D  1    0.298990    0.075683    0.505918    11.00000    0.04907    0.03717 =
         0.03334    0.00590    0.00710    0.01384
C00E  1    0.354357    0.086733    0.768778    11.00000    0.05065    0.04263 =
         0.04102    0.01436    0.01270    0.01294
AFIX  43
H00E  2    0.253259   -0.008883    0.746578    11.00000   -1.20000
AFIX   0
C00F  1    0.256989    0.685192    0.674732    11.00000    0.07780    0.05570 =
         0.04574    0.00803    0.01863    0.03722
AFIX 137
H00D  2    0.340916    0.759022    0.635137    11.00000   -1.50000
H00F  2    0.273949    0.728142    0.772331    11.00000   -1.50000
H00I  2    0.121211    0.653466    0.618346    11.00000   -1.50000
AFIX   0
C00G  1    0.652715    0.360254    0.845409    11.00000    0.05507    0.04461 =
         0.04026    0.00786    0.00107    0.01009
AFIX  43
H00G  2    0.757358    0.454432    0.870955    11.00000   -1.20000
AFIX   0
C00H  1    0.454144    0.160860    0.910184    11.00000    0.06134    0.06460 =
         0.03638    0.02046    0.01657    0.02352
AFIX  43
H00H  2    0.414997    0.113282    0.981770    11.00000   -1.20000
AFIX   0
C00I  1    0.136171    0.412662    0.739583    11.00000    0.09810    0.06176 =
         0.06008    0.01123    0.04073    0.01101
AFIX 137
H00J  2    0.007905    0.399915    0.680959    11.00000   -1.50000
H00K  2    0.157716    0.459259    0.836993    11.00000   -1.50000
H00L  2    0.142768    0.316271    0.737478    11.00000   -1.50000
AFIX   0
HKLF 4

REM  AD_X3_0m_a.res in P-1
REM R1 =  0.0447 for    1981 Fo > 4sig(Fo)  and  0.0679 for all    2640 data
REM    165 parameters refined using      0 restraints

END

WGHT      0.0362      0.2341

REM Highest difference peak  0.186,  deepest hole -0.239,  1-sigma level  0.042
Q1    1   0.1464 -0.0300  0.4781  11.00000  0.05    0.19
Q2    1   0.3271  0.1239  0.5898  11.00000  0.05    0.17
Q3    1   0.2855  0.6002  0.6750  11.00000  0.05    0.16
Q4    1   0.3309  0.1440  0.7193  11.00000  0.05    0.16
Q5    1   0.0516  0.0189 -0.0006  11.00000  0.05    0.16
Q6    1   0.2050  0.0741  0.2257  11.00000  0.05    0.15
Q7    1   0.1635  0.2381  0.1087  11.00000  0.05    0.15
Q8    1   0.1849  0.1891  0.2225  11.00000  0.05    0.15
Q9    1   0.3211  0.3994  0.4849  11.00000  0.05    0.15
Q10   1  -0.1115  0.2542  0.0335  11.00000  0.05    0.15
Q11   1   0.4148  0.2266  0.6809  11.00000  0.05    0.14
Q12   1   0.2069  0.1369  0.3369  11.00000  0.05    0.14
Q13   1   0.0204  0.3293  0.6709  11.00000  0.05    0.14
Q14   1   0.4228  0.1164  0.7016  11.00000  0.05    0.14
Q15   1   0.4664  0.5488  0.7455  11.00000  0.05    0.14
Q16   1   0.5028  0.5463  0.6503  11.00000  0.05    0.14
Q17   1   0.3411 -0.0020  0.4373  11.00000  0.05    0.13
Q18   1   0.2242  0.2674  0.6315  11.00000  0.05    0.13
Q19   1   0.2011  0.4583  0.7002  11.00000  0.05    0.13
Q20   1  -0.0296  0.2377  0.2652  11.00000  0.05    0.13
;
_shelx_res_checksum              67036
_shelx_hkl_file
;
  -1   0   0  927.11   28.90
  -1   0   0  919.81   26.90
   1   0   0  867.61   28.30
   1   0   0  907.81   27.10
  -2   0   0 4429.26  122.69
  -2   0   0 4471.15  118.39
   2   0   0 4570.44  122.09
   2   0   0 4227.18  118.59
  -3   0   0 1962.10   59.99
  -3   0   0 1927.01   53.29
  -3   0   0 1873.11   65.29
   3   0   0 1846.22   63.59
   3   0   0 1852.81   60.89
  -4   0   0   12.30    3.60
  -4   0   0   14.60    5.70
   4   0   0   15.30    6.90
   4   0   0    5.60    5.10
  -5   0   0   93.49   17.50
  -5   0   0   75.29    7.40
  -5   0   0   75.99   12.80
   5   0   0   80.39   15.20
   5   0   0   62.79   13.30
  -6   0   0   74.29    8.80
  -6   0   0  102.59   20.00
   6   0   0   90.59   18.00
  -7   0   0  127.09   11.30
  -7   0   0  124.09   26.20
  -7   0   0  143.29   10.20
   7   0   0  125.29   22.10
  -8   0   0   14.30    7.20
  -8   0   0   14.60   12.70
  -8   0   0    9.70    4.90
   8   0   0   17.70   11.10
   8  -1   0   64.59   17.10
  -8   1   0   70.39    6.40
  -8   1   0   37.40   16.90
  -7   1   0   13.00    3.20
  -7   1   0   -0.70    7.30
   6  -1   0  110.49   18.40
  -6   1   0  112.59   20.10
  -6   1   0  126.09    8.00
   5  -1   0  241.58   19.70
  -5   1   0  238.38   17.60
  -5   1   0  276.17   23.10
  -5   1   0  235.38   10.80
   4  -1   0   43.60    9.40
   4  -1   0   35.50    9.20
  -4   1   0   53.49    9.30
  -4   1   0   31.90    9.40
  -4   1   0   40.20    3.70
   3  -1   0  533.65   23.40
   3  -1   0  488.35   24.70
  -3   1   0  509.45   22.10
  -3   1   0  490.15   25.20
  -3   1   0  497.55   15.40
   2  -1   0 4177.68  108.79
   2  -1   0 3993.20  111.19
  -2   1   0 4134.19  108.29
  -2   1   0 4009.70  111.59
  -2   1   0 4041.10  101.69
   0  -1   0  282.07   10.20
   0  -1   0  298.27   11.70
   0   1   0  287.17   10.30
   0   1   0  290.77   10.50
  -1  -1   0  278.47   12.50
  -1  -1   0  269.07   14.00
   1   1   0  299.37   13.20
   1   1   0  247.98   13.30
  -2  -1   0   63.19    9.70
   2   1   0   69.59   10.00
   2   1   0   64.49    9.10
  -3  -1   0  511.65   24.20
  -3  -1   0  483.05   28.10
   3   1   0  458.55   25.90
   3   1   0  486.35   25.00
  -4  -1   0   55.39   10.30
  -4  -1   0   23.40    8.20
   4   1   0   34.70    9.90
   4   1   0   61.99   11.90
  -5  -1   0  211.38   22.80
  -5  -1   0  230.08   14.90
   5   1   0  220.68   20.90
  -6  -1   0    4.90    5.60
  -6  -1   0    3.30    8.00
   6   1   0    0.00    8.50
  -7  -1   0    3.80   11.40
  -7  -1   0   11.00    4.80
   7   1   0   21.80   11.40
  -8  -1   0    4.70    5.20
  -8  -1   0  -15.10    9.80
   8   1   0    3.00   10.30
   8  -2   0   32.80   13.70
   7  -2   0   10.40    8.20
  -7   2   0    7.60    1.60
   6  -2   0  201.68   20.30
   6  -2   0  243.08   21.00
  -6   2   0  198.98    7.70
  -6   2   0  203.08    7.70
   5  -2   0  632.34   35.40
   5  -2   0  645.64   33.30
  -5   2   0  682.43   19.10
  -5   2   0  710.93   32.40
   4  -2   0   50.19   10.00
   4  -2   0   43.70    8.90
  -4   2   0   57.99    9.30
  -4   2   0   42.70    2.50
   3  -2   0 2099.09   63.29
   3  -2   0 2059.19   53.19
   3  -2   0 2124.19   70.89
  -3   2   0 2096.29   52.89
  -3   2   0 2110.99   62.39
   0  -2   0 1007.30   32.10
   0  -2   0 1022.80   31.10
   0   2   0  961.80   31.40
   0   2   0  985.60   31.30
  -1  -2   0 2072.89   64.09
  -1  -2   0 2037.90   59.89
   1   2   0 2046.70   62.89
   1   2   0 2078.79   61.39
  -2  -2   0  114.79   12.10
  -2  -2   0  150.18   11.70
   2   2   0  140.59   12.60
   2   2   0  132.29   11.90
  -3  -2   0   19.30    6.50
   3   2   0   34.50    8.70
   3   2   0   25.70    7.70
  -4  -2   0   -5.00    3.90
  -4  -2   0   -7.00    3.10
   4   2   0    1.70    3.70
   4   2   0    0.90    5.10
  -5  -2   0  111.19   10.90
  -5  -2   0   84.09   18.60
   5   2   0   74.79   16.10
  -6  -2   0  279.37   19.30
   6   2   0  264.87   26.10
  -7  -2   0   59.79   16.60
  -7  -2   0   27.40    7.60
   7   2   0   43.80   14.90
   9  -3   0   -2.20    9.30
   8  -3   0   99.39   19.70
   7  -3   0   83.99   17.30
   6  -3   0  109.29   17.70
   6  -3   0   98.19   16.20
   5  -3   0  226.98   18.80
   5  -3   0  203.28   16.50
   4  -3   0  954.50   40.50
   4  -3   0  965.10   37.60
   4  -3   0  977.50   25.20
  -4   3   0  964.90   36.10
   3  -3   0  453.75   20.50
   3  -3   0  492.75   14.70
  -3   3   0  497.55   20.50
   2  -3   0   95.49    6.80
   2  -3   0  105.09    5.80
   1  -3   0  877.51   29.80
  -1   3   0  884.91   29.80
   0  -3   0  834.82   28.50
   0  -3   0  763.02   29.60
   0   3   0  763.12   28.80
   0   3   0  779.92   28.80
  -1  -3   0    1.60    3.30
  -1  -3   0    6.40    4.50
   1   3   0    3.70    4.10
   1   3   0   -2.70    3.80
  -2  -3   0  693.93   34.70
  -2  -3   0  729.93   30.30
   2   3   0  679.13   31.80
   2   3   0  666.73   32.50
  -3  -3   0  320.67   20.20
  -3  -3   0  297.57   24.30
   3   3   0  321.07   24.80
  -4  -3   0   40.50   10.10
  -4  -3   0   54.39   14.20
   4   3   0   43.30   11.20
  -5  -3   0   50.39   13.70
   5   3   0   34.00   12.90
  -6  -3   0    6.40    9.80
   6   3   0   33.30   13.10
  -7  -3   0    4.60    5.30
  -7  -3   0   -2.80   10.00
   7   3   0   14.60   12.00
   9  -4   0   -3.80    9.10
   8  -4   0   78.19   16.40
   7  -4   0  242.08   22.70
   6  -4   0    8.10    5.40
   6  -4   0    7.80    7.60
   5  -4   0 2606.14   83.99
   5  -4   0 2535.55   88.09
  -5   4   0 2732.53   82.89
   4  -4   0  499.55   15.90
   4  -4   0  502.35   27.10
   4  -4   0  548.75   24.90
  -4   4   0  502.15   23.20
   3  -4   0   19.20    3.20
   3  -4   0   14.90    4.50
   2  -4   0  386.26   18.10
   2  -4   0  374.06   15.20
   2  -4   0  408.46   16.10
   1  -4   0 1354.86   44.90
   0  -4   0   85.79    8.90
   0  -4   0  107.09   10.70
   0   4   0   91.19    9.40
  -1  -4   0 2192.88   66.49
  -1  -4   0 2176.18   72.49
   1   4   0 2072.79   69.59
   1   4   0 1996.20   68.29
  -2  -4   0   57.09   12.10
  -2  -4   0   60.09   10.30
   2   4   0   74.59   12.80
   2   4   0   57.09   11.10
  -3  -4   0  283.97   25.00
  -3  -4   0  269.07   19.80
   3   4   0  234.58   20.10
   3   4   0  239.98   20.90
  -4  -4   0  196.78   28.50
   4   4   0  196.48   25.20
  -5  -4   0   49.99   15.30
   5   4   0   35.20   11.90
  -6  -4   0    6.40   10.70
   6   4   0  -14.40    5.50
   9  -5   0    8.30   10.60
   8  -5   0    3.80    7.20
   7  -5   0   79.09   15.70
   6  -5   0    7.10    7.10
   6  -5   0   15.20    7.80
   5  -5   0   24.80    9.50
   5  -5   0   18.00    2.60
   5  -5   0   22.00    6.50
  -5   5   0   23.30    6.60
   4  -5   0    1.00    2.90
   4  -5   0    1.40    1.70
   3  -5   0  607.54   21.80
   3  -5   0  601.84   26.10
   3  -5   0  616.74   24.20
   2  -5   0 1562.74   51.79
   1  -5   0  228.08   15.70
   1  -5   0  219.28   14.70
  -1   5   0  223.38   15.20
   0  -5   0  791.72   35.10
   0  -5   0  721.13   30.80
   0   5   0  740.93   32.80
  -1  -5   0 2220.38   77.09
  -1  -5   0 2219.18   69.49
   1   5   0 2099.19   72.69
   1   5   0 2019.70   72.59
  -2  -5   0   74.19   12.00
  -2  -5   0   75.89   15.60
   2   5   0   95.39   15.70
   2   5   0   96.39   17.10
  -3  -5   0  132.09   17.80
  -3  -5   0  108.69   20.30
   3   5   0   82.99   15.60
  -4  -5   0    0.80    6.90
   4   5   0   -1.10    6.10
  -5  -5   0   14.90   11.20
  -6  -5   0   -5.90    9.50
  -6  -5   0   -9.20    7.00
   6   5   0   14.80   11.20
   9  -6   0   -5.30    6.70
   8  -6   0   33.00   11.80
   7  -6   0   89.09   15.80
   6  -6   0  137.29   14.70
   6  -6   0   98.19   15.90
   5  -6   0   66.19   10.90
   5  -6   0   58.09    5.20
   4  -6   0  244.18   12.40
   4  -6   0  248.98   15.70
   3  -6   0  336.07   16.60
   3  -6   0  332.57   15.80
   3  -6   0  334.87   19.40
   2  -6   0  338.07   20.20
   1  -6   0  271.97   19.30
   1  -6   0  253.77   16.80
  -1   6   0  275.77   18.40
   0  -6   0  214.28   15.90
   0  -6   0  214.78   18.60
   0   6   0  194.98   16.70
  -1  -6   0  161.38   14.60
  -1  -6   0  175.48   18.30
   1   6   0  131.29   17.90
   1   6   0  133.69   18.30
  -2  -6   0  222.68   22.30
  -2  -6   0  182.08   16.80
   2   6   0  184.38   19.40
  -3  -6   0    2.90    7.40
   3   6   0    1.10    7.90
  -4  -6   0   33.30   14.60
   4   6   0   52.79   15.40
  -5  -6   0    2.60    9.80
   5   6   0    2.10    9.60
   9  -7   0    7.80    9.70
   8  -7   0   15.20    9.40
   7  -7   0   34.50   10.30
   6  -7   0   88.29   14.40
   6  -7   0  109.19   17.10
   6  -7   0   95.99    6.70
   5  -7   0  660.33   24.20
   4  -7   0  150.28   12.40
   4  -7   0  181.38   11.30
   3  -7   0  638.14   29.50
   3  -7   0  625.84   30.90
   3  -7   0  678.43   26.50
   2  -7   0  103.89   16.50
   2  -7   0  101.49   10.90
   1  -7   0  992.10   44.10
   1  -7   0  910.61   38.50
  -1   7   0  893.01   40.70
   0  -7   0   24.40    6.90
   0  -7   0   13.30    7.30
   0   7   0   33.30    9.10
  -1  -7   0  151.68   22.30
  -1  -7   0  138.69   17.50
  -2  -7   0    3.80    7.70
  -2  -7   0   -3.20    6.30
   2   7   0   15.60    8.30
  -3  -7   0  108.49   21.50
   3   7   0   81.09   18.40
  -4  -7   0   20.00   12.30
   4   7   0    2.80    8.80
   8  -8   0   60.29   14.40
   7  -8   0    5.00    2.50
   7  -8   0   37.70    9.20
   7  -8   0   10.30    2.50
   6  -8   0   26.80    8.50
   6  -8   0   25.00    4.80
   5  -8   0   65.29    8.30
   5  -8   0   65.09   11.00
   5  -8   0   60.99   11.40
   4  -8   0  172.18   16.30
   4  -8   0  152.08   11.90
   3  -8   0  290.97   16.10
   3  -8   0  264.17   20.30
   3  -8   0  294.87   17.50
   2  -8   0  215.88   15.80
   2  -8   0  225.58   17.30
   2  -8   0  249.48   20.50
   1  -8   0   42.00    9.20
   1  -8   0   43.30   10.90
  -1   8   0   56.49   11.00
   0  -8   0  226.88   22.70
   0  -8   0  217.78   18.10
  -1  -8   0   21.40    9.70
  -2  -8   0   65.19   17.70
   2   8   0   97.79   18.10
  -3  -8   0   11.00   11.00
   3   8   0    2.10    9.30
   8  -9   0   18.00    9.70
   7  -9   0  200.78   20.70
   7  -9   0  205.38   19.30
   7  -9   0  221.58   11.50
   6  -9   0   43.30   10.50
   6  -9   0   52.79   11.00
   5  -9   0  157.18   16.40
   5  -9   0  110.09   10.10
   5  -9   0  121.89   12.60
   4  -9   0  900.61   36.00
   4  -9   0  936.41   36.10
   4  -9   0  900.31   43.10
   3  -9   0   66.29   13.90
   3  -9   0   70.29   10.70
   3  -9   0  101.39    9.90
   3  -9   0   64.59   12.30
   2  -9   0   13.40    7.90
   2  -9   0    8.50    4.40
   2  -9   0   -7.10    5.40
   1  -9   0    5.40    7.00
   1  -9   0   22.00    9.60
   1  -9   0    9.70    5.60
   0  -9   0   35.60   10.80
   0  -9   0   53.39   14.70
  -1  -9   0  197.98   28.40
  -2  -9   0   26.80   13.60
  -2  -9   0   30.00    9.80
   7 -10   0   57.29   13.40
   7 -10   0   69.39   14.00
   6 -10   0    4.40    6.10
   6 -10   0   -1.20    3.50
   6 -10   0   -3.30    6.00
   5 -10   0   43.50    9.40
   5 -10   0   43.90    9.10
   5 -10   0   34.90   11.00
   4 -10   0   -7.30    4.00
   4 -10   0    1.70    4.10
   4 -10   0    4.10    4.40
   3 -10   0    4.30    7.30
   3 -10   0   19.20    6.10
   3 -10   0   16.10    5.00
   3 -10   0   11.10    7.70
   2 -10   0   34.10   10.60
   2 -10   0   22.00    8.50
   1 -10   0   53.79   15.90
   1 -10   0   71.49   12.30
   1 -10   0   53.99   11.70
   0 -10   0    9.40    5.10
   0 -10   0    7.30    8.20
   0 -10   0   20.80   10.80
  -1 -10   0    3.60    6.80
  -1 -10   0    5.10   10.00
   7 -11   0  -11.20    4.30
   7 -11   0   -9.30    7.80
   6 -11   0  193.68   14.90
   6 -11   0  166.28   17.20
   5 -11   0    4.10    4.90
   5 -11   0   -9.30    4.80
   5 -11   0   -0.20    6.30
   4 -11   0   36.40    6.60
   4 -11   0    9.20    9.20
   4 -11   0   13.90    7.60
   4 -11   0   22.30    8.80
   3 -11   0   27.20   11.20
   3 -11   0   64.79   14.00
   3 -11   0   39.20    7.80
   3 -11   0   44.30    9.80
   2 -11   0   74.89   12.30
   2 -11   0   76.39   13.90
   1 -11   0  225.98   20.70
   1 -11   0  188.28   27.70
   1 -11   0  187.08   19.50
   0 -11   0   13.20   10.80
   0 -11   0    1.50    6.20
   5 -12   0   11.90    7.30
   5 -12   0   -7.00    4.70
   4 -12   0   29.70    6.80
   4 -12   0   24.30    7.50
   4 -12   0    8.10    8.90
   3 -12   0   49.00    8.70
   3 -12   0   49.70   16.20
   3 -12   0   53.69   12.50
   2 -12   1   15.00   12.60
   2 -12   1   24.50    5.80
   2 -12   1   14.00    7.30
   3 -12   1    4.70    5.30
   3 -12   1   -1.90    4.20
   3 -12   1    3.50    8.70
   4 -12   1   15.60   10.70
   4 -12   1    9.30    6.50
   5 -12   1   69.29   11.70
   5 -12   1   73.69   17.60
   5 -12   1   65.49   10.90
   0 -11   1    2.00   10.10
   1 -11   1   -3.90    6.10
   1 -11   1    3.60    7.80
   2 -11   1   48.30   10.80
   2 -11   1   45.80    7.20
   2 -11   1   60.89   14.90
   2 -11   1   59.19    9.40
   3 -11   1   52.39   15.60
   3 -11   1   24.50    6.00
   3 -11   1   39.60    9.20
   4 -11   1   58.09   12.10
   4 -11   1   51.99    9.40
   4 -11   1   50.59   12.90
   5 -11   1   -5.20    4.40
   5 -11   1   -0.70    8.40
   5 -11   1   -0.90    4.30
   6 -11   1    5.40    5.20
   6 -11   1   16.30    9.20
  -2 -10   1   13.70   10.40
  -1 -10   1   -4.30   12.90
  -1 -10   1   16.90   12.00
   0 -10   1   -6.20    6.90
   0 -10   1    7.80    7.40
   1 -10   1   -6.50    5.90
   1 -10   1   -5.80    4.70
   2 -10   1    0.50    5.90
   2 -10   1   -1.10    4.80
   2 -10   1   -0.20    3.10
   3 -10   1  142.59   20.50
   3 -10   1  169.88   14.90
   3 -10   1  183.48   12.20
   3 -10   1  177.28   15.30
   4 -10   1   47.20   12.30
   4 -10   1   39.30    7.40
   4 -10   1   37.40    7.50
   5 -10   1  131.69   12.00
   5 -10   1  118.59   18.40
   5 -10   1  146.29   13.60
   6 -10   1   57.79    8.30
   6 -10   1   53.99   11.30
   7 -10   1   23.70    5.40
   7 -10   1   37.40    5.50
   7 -10   1   16.00    9.10
   3   9  -1   35.80   12.70
  -3  -9   1   25.60   13.60
  -2  -9   1  -11.00    7.10
  -2  -9   1    1.10    8.00
  -1  -9   1    7.80    8.90
  -1  -9   1   22.90    8.60
   0  -9   1  152.08   23.90
   0  -9   1  133.79   13.10
   1  -9   1   89.99   11.90
   1  -9   1   62.19   15.00
   2  -9   1  733.03   27.40
   2  -9   1  815.22   42.90
   2  -9   1  780.82   32.80
   3  -9   1   18.00    5.80
   3  -9   1    9.90    3.70
   3  -9   1   17.20    6.00
   3  -9   1    5.80    6.40
   4  -9   1    0.30    3.30
   4  -9   1    4.90    2.70
   4  -9   1    2.50    6.10
   5  -9   1   83.69   15.40
   5  -9   1  100.59   13.30
   5  -9   1  110.99    9.40
   6  -9   1   30.80    9.30
   6  -9   1   17.40    5.50
   6  -9   1   25.60    8.90
   6  -9   1   12.80    4.50
   7  -9   1   20.20    8.30
   7  -9   1   10.50    2.40
   7  -9   1   10.00    2.90
   8  -9   1   88.99   17.40
   4   8  -1   39.00   16.60
  -4  -8   1   55.69   19.40
   3   8  -1    0.80    8.20
  -3  -8   1   -8.70    7.50
   2   8  -1   48.60   12.10
  -2  -8   1   42.80   14.00
  -2  -8   1   60.29   11.50
  -1  -8   1   49.60   10.30
  -1  -8   1   46.20   12.30
   0  -8   1  189.38   13.90
   0  -8   1  176.28   23.80
  -1   8  -1  260.77   24.10
   1  -8   1  250.57   16.20
   1  -8   1  231.68   21.70
   2  -8   1  573.34   27.10
   2  -8   1  671.03   35.80
   2  -8   1  622.64   23.10
   3  -8   1  100.29    8.70
   3  -8   1  108.59   16.50
   4  -8   1   95.59    9.70
   4  -8   1   95.49    8.70
   4  -8   1   91.49   15.10
   5  -8   1   81.99    7.70
   5  -8   1   87.79   14.70
   5  -8   1   60.99   10.50
   6  -8   1  160.48   16.50
   6  -8   1  152.68    8.60
   7  -8   1   21.90    8.20
   8  -8   1   13.40   10.40
   5   7  -1   27.10   12.10
  -5  -7   1   27.80   15.60
   4   7  -1   11.10    9.10
  -4  -7   1    5.70   10.50
   3   7  -1  111.89   19.00
  -3  -7   1  101.29   15.80
  -3  -7   1   94.89   21.10
   2   7  -1  201.48   19.80
  -2  -7   1  240.78   24.90
  -2  -7   1  288.87   19.30
  -1  -7   1  116.89   18.70
  -1  -7   1   99.49   12.90
   0   7  -1  128.29   18.20
   0  -7   1  121.89   18.20
   0  -7   1  122.19   10.70
   1  -7   1  307.17   22.20
   1  -7   1  233.68   14.90
   2  -7   1  514.15   19.60
   2  -7   1  510.85   28.70
   3  -7   1  471.65   27.00
   3  -7   1  512.95   21.20
   4  -7   1    9.10    4.50
   4  -7   1   17.40    6.20
   4  -7   1   12.70    3.80
   5  -7   1  237.68   11.80
   5  -7   1  272.67   18.70
   6  -7   1   88.49   14.70
   6  -7   1   80.49    4.20
   7  -7   1    5.40    7.10
   8  -7   1  111.89   19.60
  -5  -6   1    8.40   11.60
   4   6  -1   61.09   15.10
  -4  -6   1   60.69   17.40
   3   6  -1   17.00    9.90
  -3  -6   1   48.60   10.80
  -3  -6   1   34.30   13.60
   2   6  -1  275.37   21.90
  -2  -6   1  314.17   19.20
  -2  -6   1  263.87   24.60
   1   6  -1   18.70    7.20
   1   6  -1   24.30    7.40
  -1  -6   1   19.20    8.80
  -1  -6   1   24.70    6.60
   0   6  -1  137.69   13.60
   0  -6   1  157.58   15.50
   0  -6   1  151.88   11.00
  -1   6  -1   54.29   10.20
   1  -6   1  106.99   14.60
   1  -6   1   73.29    7.70
   2  -6   1  584.34   21.10
   2  -6   1  605.64   29.40
   3  -6   1  760.92   28.00
   3  -6   1  763.72   34.00
   4  -6   1   39.30    5.30
   4  -6   1   57.49    9.10
  -5   6  -1  525.65   25.70
   5  -6   1  511.45   16.70
   5  -6   1  493.15   17.20
   5  -6   1  544.85   27.90
   6  -6   1  127.59   17.90
   7  -6   1   21.80    9.10
   8  -6   1   26.70   12.20
   6   5  -1    7.30   11.20
  -6  -5   1   19.00   13.20
   5   5  -1   79.69   17.80
  -5  -5   1   60.59   18.20
   4   5  -1  113.39   18.50
  -4  -5   1  142.69   25.00
   3   5  -1  247.98   21.40
  -3  -5   1  269.77   25.30
  -3  -5   1  240.18   18.30
   2   5  -1   11.90    5.50
   2   5  -1   12.20    6.40
  -2  -5   1    9.30    7.10
  -2  -5   1   17.90    6.20
   1   5  -1   37.60    8.60
   1   5  -1   32.90    7.50
  -1  -5   1   37.60    9.50
  -1  -5   1   30.60    6.30
   0   5  -1  937.31   39.30
   0  -5   1  990.50   33.30
   0  -5   1 1020.10   41.70
  -1   5  -1  511.85   25.80
   1  -5   1  575.14   22.00
   1  -5   1  574.74   27.30
   2  -5   1    6.30    2.80
   2  -5   1    6.90    4.50
   3  -5   1  881.41   31.30
  -4   5  -1  985.20   36.10
   4  -5   1  971.60   28.70
   4  -5   1 1005.20   37.70
  -5   5  -1  324.87   19.70
   5  -5   1  329.47   28.80
   5  -5   1  325.17   21.00
   6  -5   1  256.67   21.50
   6  -5   1  249.38   27.90
   7  -5   1    7.60    8.10
   8  -5   1   44.70   11.80
   9  -5   1   -4.90    9.70
   6   4  -1   86.09   19.00
  -6  -4   1   63.09   18.60
   5   4  -1   58.89   15.70
  -5  -4   1   53.79   16.50
   4   4  -1   -0.30    5.70
  -4  -4   1   -7.30    5.40
  -4  -4   1   10.10    7.60
   3   4  -1  239.88   20.40
  -3  -4   1  206.18   15.70
  -3  -4   1  207.68   20.70
   2   4  -1  300.77   21.70
   2   4  -1  340.77   20.60
  -2  -4   1  383.36   19.00
  -2  -4   1  314.87   23.30
   1   4  -1   10.10    5.40
   1   4  -1    4.80    4.00
  -1  -4   1   14.20    3.80
  -1  -4   1    8.10    5.20
   0   4  -1 1078.09   40.10
   0  -4   1 1104.09   34.00
   0  -4   1 1101.69   41.60
   1  -4   1 3435.16   98.29
   2  -4   1    3.50    2.40
  -3   4  -1 9999.00  256.37
   3  -4   1 9977.10  257.57
  -4   4  -1  133.59   11.10
   4  -4   1  136.09   11.90
   5  -4   1  319.77   25.00
   5  -4   1  346.77   22.40
   6  -4   1  287.57   23.10
   7  -4   1    3.40    7.40
   8  -4   1   11.60    9.00
   7   3  -1   55.29   17.20
  -7  -3   1   55.79   17.30
   6   3  -1   -6.60    6.90
  -6  -3   1    0.60   10.00
   5   3  -1   43.90   12.20
  -5  -3   1   33.60   12.60
  -5  -3   1   38.80    9.30
   4   3  -1  123.39   20.40
   4   3  -1  133.19   18.30
  -4  -3   1  136.29   21.70
  -4  -3   1  128.99   14.70
  -4  -3   1  105.59   14.20
   3   3  -1 1277.37   50.09
   3   3  -1 1267.97   52.89
  -3  -3   1 1463.25   58.09
  -3  -3   1 1317.97   47.20
   2   3  -1 2147.29   72.19
   2   3  -1 2147.99   68.19
  -2  -3   1 2280.07   75.59
  -2  -3   1 2203.58   65.69
   1   3  -1   30.90    6.90
   1   3  -1   30.10    6.00
  -1  -3   1   33.80    7.60
  -1  -3   1   36.80    5.50
   0   3  -1    3.50    3.00
   0  -3   1    0.30    3.10
   0  -3   1   -1.30    1.40
   1  -3   1 4748.43  127.89
  -2   3  -1   83.69    6.10
   2  -3   1   85.89    6.60
  -3   3  -1   10.60    3.90
   3  -3   1   11.80    1.20
   3  -3   1   14.10    1.30
   3  -3   1   27.80    6.20
  -4   3  -1  317.87   18.40
   4  -3   1  327.17   22.70
   4  -3   1  329.67   19.80
  -5   3  -1   -1.20    4.50
   5  -3   1    2.90    4.10
   6  -3   1  131.49   18.60
   7  -3   1   53.49   14.90
   8  -3   1   99.79   20.70
   7   2  -1    6.50    8.10
  -7  -2   1   12.10    8.80
   6   2  -1    3.30    8.90
  -6  -2   1   39.40    9.40
  -6  -2   1  -11.00    7.60
   5   2  -1  215.58   20.70
  -5  -2   1  215.28   23.40
  -5  -2   1  202.68   15.40
   4   2  -1   92.19   15.30
   4   2  -1  106.99   15.30
  -4  -2   1  104.59   16.70
  -4  -2   1   86.29   11.40
  -4  -2   1  104.39   13.60
   3   2  -1 1609.94   56.19
   3   2  -1 1624.24   59.99
  -3  -2   1 1631.84   53.89
  -3  -2   1 1699.03   62.59
   2   2  -1 2121.89   65.79
   2   2  -1 2249.68   70.69
  -2  -2   1 2305.97   71.99
  -2  -2   1 2182.38   67.59
   1   2  -1   57.79    8.20
   1   2  -1   55.09    5.60
  -1  -2   1   48.90    4.60
  -1  -2   1   48.30    7.40
   0   2  -1 2306.77   59.69
   0   2  -1 2353.36   65.69
   0  -2   1 2423.86   59.19
   0  -2   1 2275.77   65.89
  -2   2  -1   68.69    6.50
   2  -2   1   71.09    2.90
   2  -2   1   65.79    6.60
  -3   2  -1  541.15   23.30
   3  -2   1  543.15   27.20
   3  -2   1  523.35   24.00
  -4   2  -1    5.40    3.70
   4  -2   1    5.10    4.80
   4  -2   1   13.10    5.90
  -5   2  -1    0.60    4.10
   5  -2   1   10.70    6.00
   5  -2   1   -5.10    2.10
   6  -2   1   22.40   10.50
   7  -2   1   38.40   16.10
   8  -2   1   56.79   16.40
   8   1  -1   19.70   13.60
  -8  -1   1   -4.00    9.20
  -8  -1   1    6.40   12.60
   7   1  -1   59.59   16.40
  -7  -1   1   32.20    9.30
  -7  -1   1   27.90   14.20
   6   1  -1   -4.60    6.60
  -6  -1   1   -1.40    6.10
  -6  -1   1    2.00    3.90
   5   1  -1  531.15   33.20
   5   1  -1  576.04   32.90
  -5  -1   1  565.54   30.10
  -5  -1   1  623.84   38.20
  -5  -1   1  574.84   25.30
   4   1  -1 1067.39   46.60
   4   1  -1 1141.89   45.40
  -4  -1   1 1187.98   38.90
  -4  -1   1 1073.79   42.10
  -4  -1   1 1091.49   49.70
   3   1  -1  134.59   11.70
   3   1  -1  107.89   11.30
  -3  -1   1  133.99   10.70
  -3  -1   1  106.39    8.40
  -3  -1   1  112.19   15.00
   2   1  -1   11.20    3.90
   2   1  -1   14.20    4.80
  -2  -1   1   10.70    4.90
  -2  -1   1   11.60    3.20
  -2  -1   1   14.80    3.90
   0   1  -1  346.67   12.00
   0   1  -1  377.66   13.40
   0  -1   1  345.57   11.90
   0  -1   1  358.96   13.20
  -1   1  -1   34.50    2.30
  -1   1  -1   46.30    4.50
   1  -1   1   39.90    2.30
   1  -1   1   35.50    4.80
  -2   1  -1  653.23   17.20
  -2   1  -1  622.94   23.90
   2  -1   1  649.93   25.00
   2  -1   1  614.84   27.00
  -3   1  -1  726.53   20.60
  -3   1  -1  735.73   34.50
  -3   1  -1  734.53   29.80
   3  -1   1  738.83   33.70
   3  -1   1  709.13   30.70
  -4   1  -1   40.70    3.40
  -4   1  -1   51.39    9.40
  -4   1  -1   41.30    3.80
  -4   1  -1   37.20   12.40
   4  -1   1   61.29   11.40
   4  -1   1   50.69   11.40
  -5   1  -1   10.60    5.30
  -5   1  -1   -1.20    1.70
  -5   1  -1    5.20    2.30
  -5   1  -1    2.30    6.30
   5  -1   1    0.40    5.30
   5  -1   1    1.60    5.70
  -6   1  -1  306.57   12.80
  -6   1  -1  326.87   13.70
  -6   1  -1  347.97   30.50
   6  -1   1  339.37   28.10
  -7   1  -1    4.30    3.40
  -7   1  -1    5.40    2.70
   7  -1   1    1.50    6.70
  -8   1  -1   12.50    2.80
  -8   1  -1   17.50    3.80
   8  -1   1    9.10   10.20
   8   0  -1   46.30   16.10
  -8   0   1   54.59    9.10
  -8   0   1   42.70   15.50
   7   0  -1   50.59   17.40
  -7   0   1   65.79   18.60
  -7   0   1   39.50    7.00
   6   0  -1   25.90    9.80
  -6   0   1   49.50   15.00
  -6   0   1   31.30    6.20
   5   0  -1  638.54   39.20
   5   0  -1  647.64   33.70
  -5   0   1  623.04   24.40
  -5   0   1  618.44   31.00
  -5   0   1  638.64   37.40
   4   0  -1 1860.21   65.69
   4   0  -1 1876.21   63.69
  -4   0   1 1827.02   67.89
  -4   0   1 1904.41   61.49
   3   0  -1    5.00    4.20
   3   0  -1   15.70    5.80
  -3   0   1    2.30    4.10
  -3   0   1    9.80    4.30
  -3   0   1    5.00    2.40
   1   0  -1  262.27    9.30
   1   0  -1  248.68    9.90
   1   0  -1  258.17    9.70
  -1   0   1  249.08    9.00
  -1   0   1  245.38    9.60
  -1   0   1  250.77   10.00
   0   0  -1 1546.45   41.80
   0   0  -1 1548.84   43.70
   0   0   1 1606.94   41.60
  -1   0  -1 2552.74   74.69
  -1   0  -1 2578.84   67.89
  -1   0  -1 2804.62   73.69
   1   0   1 2640.64   75.09
   1   0   1 2640.64   73.69
   1   0   1 2657.43   67.99
  -2   0  -1 2288.97   62.79
  -2   0  -1 2413.06   74.89
  -2   0  -1 2435.86   70.99
   2   0   1 2390.66   74.49
   2   0   1 2430.36   71.99
  -3   0  -1  491.75   17.40
  -3   0  -1  497.95   28.30
  -3   0  -1  528.95   25.20
   3   0   1  536.25   26.80
   3   0   1  507.15   27.70
  -4   0  -1   22.70    7.70
  -4   0  -1   25.20    8.10
  -4   0  -1   25.00    4.20
   4   0   1   39.60   10.00
   4   0   1    7.10    5.20
  -5   0  -1  215.98   11.40
  -5   0  -1  212.98   22.60
  -5   0  -1  239.08   13.10
   5   0   1  200.28   19.80
  -6   0  -1   35.30   14.20
  -6   0  -1   14.10    4.50
  -6   0  -1   19.30    4.00
   6   0   1   15.60    9.60
  -7   0  -1    0.10    4.70
  -7   0  -1   11.40    4.10
  -7   0  -1    6.50    9.60
   7   0   1    0.50    8.60
  -8   0  -1   -3.50    3.60
  -8   0  -1   11.30   11.30
   8   0   1  -13.50    8.40
   8  -1  -1   15.90   10.40
  -8   1   1   18.70    9.70
  -8   1   1   13.00    4.90
   7  -1  -1  159.28   23.40
  -7   1   1  166.88   25.90
  -7   1   1  159.88    9.70
   6  -1  -1   79.99   15.00
   6  -1  -1  120.89   18.70
  -6   1   1   82.99   17.20
  -6   1   1   91.69    7.20
   5  -1  -1    8.60    5.20
   5  -1  -1    1.90    4.30
  -5   1   1    0.60    4.50
  -5   1   1    9.80    2.70
  -5   1   1    4.50    3.90
   4  -1  -1   -0.60    2.80
   4  -1  -1    3.10    3.60
  -4   1   1    8.20    5.60
  -4   1   1    0.60    3.60
  -4   1   1    1.10    1.60
   3  -1  -1    1.40    2.80
   3  -1  -1    3.80    1.90
   3  -1  -1    3.00    3.70
  -3   1   1    3.00    1.50
  -3   1   1    1.60    2.30
  -3   1   1    1.80    3.50
   1  -1  -1   11.40    2.10
   1  -1  -1   10.50    1.30
  -1   1   1   13.00    2.10
   0  -1  -1 1294.87   35.30
   0  -1  -1 1326.97   39.90
   0  -1  -1 1314.27   37.00
   0   1   1 1199.08   39.30
   0   1   1 1286.07   36.70
   0   1   1 1238.88   35.10
  -1  -1  -1 3629.84   95.89
  -1  -1  -1 3696.13  101.89
  -1  -1  -1 3766.02  103.59
   1   1   1 3699.23  102.59
   1   1   1 3654.73  102.69
  -2  -1  -1    2.50    4.00
  -2  -1  -1    0.60    2.80
   2   1   1    1.20    3.80
   2   1   1    3.80    3.90
  -3  -1  -1  538.85   26.60
  -3  -1  -1  481.35   29.30
   3   1   1  499.45   27.50
   3   1   1  472.45   27.60
  -4  -1  -1  179.38   19.00
  -4  -1  -1  199.78   17.10
   4   1   1  193.28   18.80
   4   1   1  201.08   18.60
  -5  -1  -1  141.59   23.60
  -5  -1  -1  152.48   10.60
   5   1   1   98.09   18.30
  -6  -1  -1  143.39   11.30
  -6  -1  -1  146.89   13.80
  -6  -1  -1  114.79   23.70
   6   1   1  146.89   24.00
  -7  -1  -1   93.49   10.60
  -7  -1  -1   80.99   21.40
  -7  -1  -1   60.29   12.50
   7   1   1   99.89   21.90
   9  -2  -1   18.60   11.30
   8  -2  -1    4.90    7.60
  -8   2   1    6.70    2.80
   7  -2  -1  198.88   21.30
  -7   2   1  179.48   26.30
  -7   2   1  185.78    9.20
   6  -2  -1   46.10   12.00
   6  -2  -1   41.20   10.50
  -6   2   1   37.00   11.50
  -6   2   1   30.90    4.20
   5  -2  -1  213.28   17.60
   5  -2  -1  220.58   17.40
  -5   2   1  211.38   18.10
  -5   2   1  201.48   18.20
  -5   2   1  210.88    9.20
   4  -2  -1 1434.86   50.19
   4  -2  -1 1389.16   51.29
   4  -2  -1 1436.46   40.90
  -4   2   1 1537.05   49.60
  -4   2   1 1452.75   40.00
  -4   2   1 1442.56   52.89
   3  -2  -1   17.00    2.80
   3  -2  -1   20.10    4.90
   3  -2  -1   13.30    4.70
  -3   2   1   12.10    2.20
  -3   2   1   10.00    3.50
   2  -2  -1 2841.72   73.89
   2  -2  -1 2840.22   77.49
  -2   2   1 2828.92   73.89
   1  -2  -1 2279.67   61.29
   1  -2  -1 2361.56   62.29
  -1   2   1 2325.97   62.09
  -1   2   1 2329.77   61.09
   0  -2  -1 3457.45   92.49
   0  -2  -1 3538.25   98.19
   0  -2  -1 3612.24   95.59
   0   2   1 3379.96   98.19
   0   2   1 3537.75   94.79
  -1  -2  -1  553.94   25.20
   1   2   1  489.15   24.20
  -2  -2  -1   23.50    7.00
  -2  -2  -1   19.50    7.40
   2   2   1   17.70    7.50
   2   2   1   22.40    6.10
  -3  -2  -1   -0.60    4.50
  -3  -2  -1    2.80    5.10
   3   2   1   -6.20    3.10
   3   2   1    3.40    3.90
  -4  -2  -1  490.45   33.70
  -4  -2  -1  452.65   27.70
   4   2   1  424.46   29.90
   4   2   1  426.36   29.40
  -5  -2  -1   24.20    6.60
  -5  -2  -1   44.60   14.80
   5   2   1   23.20   10.60
  -6  -2  -1  101.19   14.00
  -6  -2  -1  162.28   28.70
  -6  -2  -1  114.39   10.90
   6   2   1  131.19   24.20
  -7  -2  -1   44.70   17.40
  -7  -2  -1   17.60    6.50
   7   2   1   35.20   12.90
   9  -3  -1   27.10   10.60
   8  -3  -1    8.40    9.20
   7  -3  -1   48.10   13.40
  -7   3   1   49.90    3.00
   6  -3  -1   44.00   13.40
   6  -3  -1   53.59   11.20
  -6   3   1   47.80    3.50
   5  -3  -1  766.72   34.50
   5  -3  -1  712.73   34.80
   5  -3  -1  741.43   23.00
  -5   3   1  727.63   22.00
   4  -3  -1  659.83   29.60
   4  -3  -1  650.73   20.70
   4  -3  -1  658.23   28.50
  -4   3   1  677.23   20.50
  -4   3   1  636.74   27.50
   3  -3  -1 3351.16   95.59
   3  -3  -1 3470.05   89.19
   3  -3  -1 3371.36   94.99
  -3   3   1 3444.66   89.09
   1  -3  -1  579.24   21.30
   1  -3  -1  588.74   20.70
  -1   3   1  592.94   21.20
   0  -3  -1 3168.48   92.69
   0  -3  -1 3247.68   86.99
   0  -3  -1 3297.77   91.39
   0   3   1 3178.08   89.89
   0   3   1 2957.20   92.79
  -1  -3  -1  157.48   13.10
  -1  -3  -1  146.39   13.40
   1   3   1  122.19   12.90
   1   3   1  132.79   12.00
  -2  -3  -1  451.05   27.90
  -2  -3  -1  498.55   25.90
   2   3   1  440.66   26.80
   2   3   1  441.66   26.60
  -3  -3  -1    3.10    5.10
  -3  -3  -1    4.50    6.40
   3   3   1   -2.70    4.40
   3   3   1    5.10    5.50
  -4  -3  -1  103.89   19.70
   4   3   1  119.49   19.70
  -5  -3  -1   34.10    7.70
  -5  -3  -1   36.20   13.10
   5   3   1   17.50   10.50
  -6  -3  -1    0.00   10.40
  -6  -3  -1   -6.10    4.10
   6   3   1   -8.50    7.70
  -7  -3  -1   -1.60    6.00
   7   3   1   13.30   12.10
   9  -4  -1   46.40   16.40
   8  -4  -1   12.10    7.60
   7  -4  -1  467.05   30.70
   7  -4  -1  480.05   32.60
   6  -4  -1    6.30    6.10
   6  -4  -1    7.10    5.90
   5  -4  -1  271.27   11.00
   5  -4  -1  240.48   18.70
   5  -4  -1  289.17   19.40
  -5   4   1  299.97   21.10
   4  -4  -1 1749.92   56.69
   4  -4  -1 1733.83   48.50
   4  -4  -1 1709.73   57.79
   3  -4  -1   94.69    8.60
   3  -4  -1   77.69    6.00
   2  -4  -1 1242.68   39.70
   2  -4  -1 1265.47   38.70
   1  -4  -1   84.39    7.30
   1  -4  -1   73.99    8.00
  -1   4   1   76.29    7.40
   0  -4  -1  891.71   35.90
   0  -4  -1  844.12   35.90
   0   4   1  889.31   34.60
  -1  -4  -1   38.40    9.00
  -1  -4  -1   47.20   10.10
   1   4   1   32.60    7.90
   1   4   1   31.70    7.90
  -2  -4  -1  239.08   18.50
  -2  -4  -1  220.78   20.60
   2   4   1  225.98   18.90
   2   4   1  234.58   20.90
  -3  -4  -1  139.89   21.50
  -3  -4  -1  132.59   18.20
   3   4   1  108.59   18.80
  -4  -4  -1  136.59   24.80
   4   4   1  127.29   21.80
  -5  -4  -1   74.79   19.30
  -5  -4  -1   85.59   13.20
  -6  -4  -1   16.60   15.80
  -6  -4  -1   27.80    8.50
   6   4   1   58.09   19.80
   9  -5  -1   11.10    8.90
   8  -5  -1   25.00   10.30
   7  -5  -1   39.30   10.50
   7  -5  -1   21.70    8.70
   6  -5  -1   -5.70    4.40
   6  -5  -1    6.90    6.10
   6  -5  -1   11.40    2.50
   5  -5  -1  503.35   18.10
   5  -5  -1  499.35   27.30
   5  -5  -1  484.95   25.80
   4  -5  -1 2746.23   76.19
   4  -5  -1 2806.72   83.19
   3  -5  -1  845.02   31.10
   3  -5  -1  814.92   30.60
   3  -5  -1  836.72   28.90
   2  -5  -1 1063.09   37.90
   2  -5  -1 1095.49   36.20
   1  -5  -1 3572.54  100.79
   1  -5  -1 3341.57   95.59
   1  -5  -1 3235.78  101.79
  -1   5   1 3444.86   98.79
   0  -5  -1  113.29   15.10
   0  -5  -1   85.59   12.50
   0   5   1   90.09   12.50
  -1  -5  -1    2.50    5.10
  -1  -5  -1   -3.30    3.90
   1   5   1    2.60    4.70
   1   5   1    5.30    6.00
  -2  -5  -1   64.19   14.50
   2   5   1   59.29   13.30
   2   5   1   77.19   14.90
  -3  -5  -1    5.10    6.20
   3   5   1   -5.30    5.40
  -4  -5  -1   50.39   10.20
   4   5   1   53.09   15.00
  -5  -5  -1  134.39   27.30
   5   5   1   97.69   21.40
   9  -6  -1    8.50   10.80
   8  -6  -1   -6.00    5.90
   7  -6  -1  237.18   21.00
   7  -6  -1  187.08   20.10
   6  -6  -1  519.05   30.90
   6  -6  -1  497.95   28.90
   6  -6  -1  525.05   18.80
   5  -6  -1   38.10    8.30
   5  -6  -1   32.50    5.30
   4  -6  -1   82.79   11.10
   4  -6  -1   85.89    7.30
   3  -6  -1   18.10    4.70
   3  -6  -1   26.70    6.50
   2  -6  -1  175.28   14.00
  -2   6   1  181.18   13.60
   1  -6  -1   32.00    6.60
   1  -6  -1   29.60    7.30
   1  -6  -1   43.40    9.80
  -1   6   1   29.60    7.10
   0  -6  -1  310.77   22.80
   0  -6  -1  317.47   18.60
   0  -6  -1  287.67   21.30
   0   6   1  293.57   20.70
  -1  -6  -1    7.40    5.70
  -1  -6  -1    4.00    5.10
   1   6   1    6.40    5.60
   1   6   1   22.00    7.60
  -2  -6  -1  408.56   31.90
  -2  -6  -1  397.76   27.30
   2   6   1  424.76   30.80
  -3  -6  -1   38.60   13.90
  -3  -6  -1   11.80    7.00
   3   6   1   28.90   11.10
  -4  -6  -1   15.10   11.20
  -4  -6  -1   47.00   11.10
   4   6   1   23.70   15.00
  -5  -6  -1   14.10    9.10
  -5  -6  -1   16.50   10.90
   5   6   1   15.20   13.70
   9  -7  -1   33.60   12.80
   8  -7  -1   29.30   11.70
   7  -7  -1  244.38   23.30
   7  -7  -1  244.18   10.70
   7  -7  -1  246.88   21.30
   6  -7  -1  137.09   14.40
   6  -7  -1  123.19   17.80
   6  -7  -1  117.79    8.50
   5  -7  -1    5.80    4.80
   5  -7  -1    2.70    4.00
   5  -7  -1    6.00    3.30
   4  -7  -1   26.00    6.20
   4  -7  -1   20.50    6.00
   4  -7  -1   22.30    6.40
   3  -7  -1 1005.40   40.60
   3  -7  -1 1027.60   37.40
   2  -7  -1    8.80    4.10
   2  -7  -1   -2.60    4.80
   2  -7  -1    7.30    5.00
  -2   7   1    3.90    4.30
   1  -7  -1    2.20    5.50
   1  -7  -1    6.70    4.10
   1  -7  -1    2.60    4.50
  -1   7   1    2.90    4.50
   0  -7  -1   60.69   10.40
   0  -7  -1   47.30   12.50
   0  -7  -1   45.50   11.30
   0   7   1   51.19   11.90
  -1  -7  -1   14.20    8.60
  -1  -7  -1   13.30    7.50
  -1  -7  -1   19.70    6.70
  -2  -7  -1  109.49   21.30
  -2  -7  -1   86.69   13.90
   2   7   1   68.19   15.90
  -3  -7  -1  151.58   18.20
  -3  -7  -1  159.78   26.70
   3   7   1  130.49   23.90
  -4  -7  -1   13.70   12.20
  -4  -7  -1   15.20    7.90
   4   7   1    2.10   12.00
   8  -8  -1   27.80   10.50
   7  -8  -1   27.20   10.80
   7  -8  -1   10.60    3.50
   7  -8  -1   12.70    8.00
   6  -8  -1   14.20    5.30
   6  -8  -1   11.00    6.70
   6  -8  -1   10.20    4.40
   5  -8  -1  313.07   20.00
   5  -8  -1  274.47   15.90
   4  -8  -1  183.48   14.40
   4  -8  -1  218.78   14.50
   3  -8  -1  112.79   11.00
   3  -8  -1  109.79   12.30
   2  -8  -1   68.49   10.60
   2  -8  -1   64.39   12.40
   2  -8  -1   81.19   14.30
  -2   8   1   68.29   13.80
   1  -8  -1   53.59    9.80
   1  -8  -1   47.50   11.10
   1  -8  -1   46.50   12.70
  -1   8   1   46.40   11.10
   0  -8  -1  585.14   30.40
   0  -8  -1  557.54   36.70
   0  -8  -1  509.95   31.20
  -1  -8  -1   12.50    9.40
  -1  -8  -1   17.70    9.70
  -1  -8  -1   23.40    8.30
  -2  -8  -1  281.57   29.20
  -2  -8  -1  285.47   22.30
  -3  -8  -1    1.30    6.40
  -3  -8  -1   -0.10   11.50
   3   8   1    2.20   12.10
   8  -9  -1   35.50   11.40
   8  -9  -1   32.50    4.60
   7  -9  -1   32.80    9.60
   7  -9  -1   62.49    8.10
   7  -9  -1   33.50   10.80
   6  -9  -1  259.37   20.70
   6  -9  -1  286.47   16.60
   6  -9  -1  297.57   21.50
   5  -9  -1  131.89   13.00
   5  -9  -1  155.28   15.40
   5  -9  -1  110.89   11.10
   4  -9  -1    6.90    4.50
   4  -9  -1    5.20    5.50
   4  -9  -1    2.70    4.60
   3  -9  -1    0.40    5.10
   3  -9  -1    1.10    6.30
   3  -9  -1    7.70    5.30
   2  -9  -1    4.80    4.20
   2  -9  -1   10.40    5.50
   2  -9  -1   -8.10    7.10
  -2   9   1   -1.10    6.60
   1  -9  -1   57.99   14.60
   1  -9  -1   70.09   12.40
   1  -9  -1   65.79   13.70
   0  -9  -1   43.80   10.30
   0  -9  -1   42.80   12.60
   0  -9  -1   64.79   16.30
  -1  -9  -1   -8.60    8.20
  -1  -9  -1    1.20    5.20
  -2  -9  -1   18.40   10.90
  -2  -9  -1   -2.60    5.80
   7 -10  -1   -4.60    6.90
   7 -10  -1   -1.90    6.30
   7 -10  -1   -1.60    3.80
   6 -10  -1   -4.40    5.90
   6 -10  -1    2.10    6.50
   6 -10  -1    1.40    3.70
   5 -10  -1   16.10    6.90
   5 -10  -1   21.70    9.20
   5 -10  -1   20.80    6.10
   4 -10  -1    3.70    4.90
   4 -10  -1    6.00    4.80
   4 -10  -1    2.40    5.10
   3 -10  -1  223.88   22.10
   3 -10  -1  194.88   20.10
   3 -10  -1  196.28   17.10
   2 -10  -1  115.59   17.60
   2 -10  -1  154.28   18.60
   2 -10  -1  129.49   20.40
   1 -10  -1    1.00    7.70
   1 -10  -1   10.10    5.50
   1 -10  -1    2.00    9.30
   0 -10  -1   45.80   15.40
   0 -10  -1   58.19   11.80
  -1 -10  -1    5.90    4.90
  -1 -10  -1    6.90   10.40
   6 -11  -1   49.30    9.60
   6 -11  -1   20.70    8.90
   6 -11  -1   24.60    9.70
   5 -11  -1   74.29   14.80
   5 -11  -1   74.09   11.20
   5 -11  -1   82.49   13.10
   4 -11  -1   28.60    7.70
   4 -11  -1   28.20   10.50
   4 -11  -1   25.10    8.20
   3 -11  -1  139.39   17.40
   3 -11  -1  169.38   23.60
   2 -11  -1    0.70    7.20
   2 -11  -1    3.20    6.10
   1 -11  -1   29.00    9.40
   1 -11  -1   19.80   11.40
   4 -12  -1   -9.50    8.20
   4 -12  -1    6.20    6.90
   2 -12   2  -22.10   10.80
   3 -12   2   41.90   10.20
   3 -12   2   42.50   14.60
   4 -12   2   70.39   17.80
   4 -12   2   82.09   13.60
   4 -12   2   69.79    7.50
   0 -11   2   15.70   13.30
   1 -11   2   40.80    4.70
   1 -11   2   39.80    4.20
   1 -11   2   34.20   12.60
   2 -11   2   19.30    9.80
   2 -11   2   17.40    3.50
   3 -11   2   36.40    6.40
   3 -11   2   33.90   11.90
   3 -11   2   26.00    4.40
   4 -11   2  106.39   18.40
   4 -11   2  116.09    9.90
   4 -11   2  142.29   13.60
   4 -11   2  108.99   11.60
   5 -11   2   25.00   11.00
   5 -11   2   17.90    6.80
   6 -11   2   32.70    9.40
   6 -11   2   37.70    8.30
   6 -11   2   45.80   13.10
   6 -11   2   29.40    8.70
  -2 -10   2    0.10   10.20
  -1 -10   2   -5.30    7.10
  -1 -10   2   -6.30    4.60
   0 -10   2   11.10    9.80
   1 -10   2  192.38   10.20
   1 -10   2  193.78    9.30
   2 -10   2   17.70    4.30
   2 -10   2    8.40    9.70
   2 -10   2   11.00    3.10
   3 -10   2  317.07   26.80
   3 -10   2  324.57   14.90
   4 -10   2  164.78   12.20
   4 -10   2  183.88   20.80
   4 -10   2  149.59   13.80
   5 -10   2   35.60    7.90
   5 -10   2   19.60    8.90
   5 -10   2   31.50    8.00
   5 -10   2   30.60    6.80
   6 -10   2  199.18   18.00
   6 -10   2  190.58   14.30
   7 -10   2   56.69   13.40
   7 -10   2   27.40   11.10
   7 -10   2   36.10    4.50
   3   9  -2   40.50   12.30
  -3  -9   2   37.20   14.00
  -2  -9   2  117.59   22.90
  -2  -9   2   87.29   12.60
  -1  -9   2    7.10   10.20
  -1  -9   2   25.60    6.00
   0  -9   2  634.44   41.80
   1  -9   2   15.70    4.50
   1  -9   2   12.00    2.90
   1  -9   2   26.10    9.40
   2  -9   2   17.80    3.50
   2  -9   2   14.50    8.70
   2  -9   2   12.50    4.30
   3  -9   2   17.70    4.00
   3  -9   2    8.20    6.60
   4  -9   2   36.00   10.90
   4  -9   2   28.10    7.00
   5  -9   2   10.40    4.80
   5  -9   2   10.70    6.10
   5  -9   2   16.90    8.10
   5  -9   2   10.70    5.60
   6  -9   2   51.59    6.60
   6  -9   2   68.19    6.40
   6  -9   2   70.19   16.40
   6  -9   2   38.20    9.60
   7  -9   2   14.60    8.50
   4   8  -2   -9.70    9.80
  -4  -8   2   11.00   10.70
   3   8  -2   -3.90    7.00
  -3  -8   2   28.70   11.40
  -3  -8   2   12.80    7.20
  -2  -8   2   46.10   14.40
  -2  -8   2   31.00    7.70
  -1  -8   2   16.10    5.60
  -1  -8   2   12.30    7.80
   0  -8   2  195.08   21.40
   0  -8   2  191.08   11.10
   1  -8   2  957.20   29.10
   1  -8   2 1028.90   31.50
   1  -8   2 1006.80   49.00
   2  -8   2  166.08    8.50
   2  -8   2  143.19   16.20
   2  -8   2  147.79   10.20
   3  -8   2  188.08   11.20
   3  -8   2  228.68   20.10
   4  -8   2  413.46   27.80
   4  -8   2  467.15   22.30
   4  -8   2  467.45   22.20
   5  -8   2    8.50    6.00
   5  -8   2   -0.10    3.30
   5  -8   2   -0.70    4.60
   5  -8   2    3.10    3.00
   6  -8   2   44.00    4.10
   6  -8   2   30.40    8.80
   6  -8   2   44.80    4.00
   7  -8   2  145.49   19.70
   8  -8   2   36.30   13.00
  -5  -7   2   49.60   17.80
   4   7  -2  104.79   18.40
  -4  -7   2   81.09   21.40
   3   7  -2   -5.40    5.30
  -3  -7   2   -0.40    7.40
  -3  -7   2   10.80    5.40
   2   7  -2  147.29   15.60
  -2  -7   2  188.18   26.10
  -2  -7   2  170.38   13.20
  -1  -7   2  619.24   24.60
  -1  -7   2  622.74   38.00
   0   7  -2  617.14   34.20
   0  -7   2  674.23   23.00
   0  -7   2  641.24   36.80
  -1   7  -2  392.16   24.90
   1  -7   2  318.57   23.70
   1  -7   2  346.97   12.30
   1  -7   2  364.36   14.10
   2  -7   2   58.39   12.00
   2  -7   2   58.69    5.10
   3  -7   2   59.39    7.60
   3  -7   2   71.89   12.80
   4  -7   2   43.20    8.20
   4  -7   2   37.20    6.10
   5  -7   2   38.10    4.80
   5  -7   2   34.00    4.70
   5  -7   2   33.90    8.40
   6  -7   2  271.27   21.60
   7  -7   2   17.20    9.30
   8  -7   2   -8.10    9.20
   5   6  -2    6.80   10.10
  -5  -6   2   26.90   10.60
   4   6  -2   53.99   12.00
  -4  -6   2   12.70   10.70
   3   6  -2    1.60    5.30
  -3  -6   2    9.00    5.30
  -3  -6   2    1.60    6.30
   2   6  -2  127.69   13.10
  -2  -6   2  133.39   11.10
  -2  -6   2  110.29   19.70
   1   6  -2  557.64   31.60
   1   6  -2  565.74   25.70
  -1  -6   2  545.55   21.70
  -1  -6   2  597.54   34.70
   0   6  -2   67.19   11.90
   0  -6   2   72.49   13.40
   0  -6   2   77.19    5.70
   1  -6   2  630.04   18.90
   1  -6   2  594.94   31.50
   1  -6   2  631.14   20.10
   2  -6   2  216.48   16.80
   2  -6   2  205.58    9.80
   3  -6   2  211.18   12.30
   3  -6   2  188.58   11.70
   3  -6   2  184.98   15.80
  -4   6  -2  486.45   22.30
   4  -6   2  520.45   24.40
   4  -6   2  485.55   18.90
  -5   6  -2   13.30    5.40
   5  -6   2   16.70    2.10
   5  -6   2   14.00    7.30
   6  -6   2  125.39   18.10
   7  -6   2   40.10   10.60
   8  -6   2   -1.70    7.10
   6   5  -2   28.10   13.40
  -6  -5   2   16.90   11.00
   5   5  -2   22.10   10.50
  -5  -5   2   19.20   12.20
   4   5  -2    3.20    6.70
  -4  -5   2   -5.10    5.50
  -4  -5   2    4.10    6.10
   3   5  -2  183.48   18.30
  -3  -5   2  196.08   21.20
  -3  -5   2  169.58   14.00
   2   5  -2  323.37   23.00
   2   5  -2  341.07   20.40
  -2  -5   2  339.67   17.30
  -2  -5   2  367.86   27.00
   1   5  -2  322.37   17.20
   1   5  -2  337.77   22.40
  -1  -5   2  356.96   24.40
  -1  -5   2  357.06   15.10
   0   5  -2   23.40    7.20
   0  -5   2   48.20   10.30
   0  -5   2   29.10    3.10
   1  -5   2  126.69    6.20
   1  -5   2  130.29    5.60
   1  -5   2  149.49   13.40
   2  -5   2 1523.05   43.90
   2  -5   2 1511.65   53.99
  -3   5  -2 1007.00   32.60
   3  -5   2  905.11   30.30
   3  -5   2  915.31   33.20
  -4   5  -2 1084.49   38.60
   4  -5   2 1081.59   30.00
   4  -5   2  996.10   39.80
   4  -5   2 1079.99   30.40
   5  -5   2   36.70    9.80
   5  -5   2   21.50    9.50
   6  -5   2   74.69   14.20
   7  -5   2   17.40    9.90
   8  -5   2   -0.90    8.70
   7   4  -2   41.90   13.10
  -7  -4   2   21.50   13.60
   6   4  -2   12.10   11.10
  -6  -4   2  -17.50    7.90
   5   4  -2   -2.40    6.80
  -5  -4   2    6.40    8.90
   4   4  -2  389.06   26.00
  -4  -4   2  356.66   29.90
  -4  -4   2  419.76   24.80
  -4  -4   2  403.76   23.30
   3   4  -2  138.69   18.70
   3   4  -2  133.49   12.90
  -3  -4   2  124.59   12.20
  -3  -4   2  105.79   17.40
  -3  -4   2  125.79   11.20
   2   4  -2  608.04   26.70
   2   4  -2  611.14   31.70
  -2  -4   2  593.04   32.70
  -2  -4   2  587.94   27.40
  -2  -4   2  629.24   24.20
   1   4  -2  858.41   30.40
   1   4  -2  919.31   37.80
  -1  -4   2  915.21   28.20
  -1  -4   2  931.81   39.60
   0   4  -2   14.30    5.40
   0  -4   2   26.40    7.20
   0  -4   2   23.20    1.70
   1  -4   2 4628.44  115.09
   1  -4   2 4539.35  127.79
   1  -4   2 4515.55  122.29
  -2   4  -2    4.50    2.40
   2  -4   2    8.30    2.60
   2  -4   2    7.20    3.20
  -3   4  -2  190.68   11.60
   3  -4   2  163.48    7.90
   3  -4   2  181.08   12.70
  -4   4  -2  241.58   15.40
   4  -4   2  221.88   16.30
  -5   4  -2    3.20    4.70
   5  -4   2   -1.20    5.70
   5  -4   2    2.40    5.30
   6  -4   2   11.60    7.60
   7  -4   2  183.78   26.00
   8  -4   2   37.40   15.80
   7   3  -2   -6.60    7.60
  -7  -3   2   62.09   18.30
   6   3  -2   34.00   11.80
  -6  -3   2   38.60   16.60
   5   3  -2  136.19   19.40
  -5  -3   2  124.69   15.00
  -5  -3   2  129.49   21.40
   4   3  -2  498.55   28.60
   4   3  -2  451.15   29.50
  -4  -3   2  491.95   25.10
  -4  -3   2  477.65   32.90
   3   3  -2    8.10    5.20
   3   3  -2   15.10    6.60
  -3  -3   2   10.20    4.00
  -3  -3   2   13.80    5.30
  -3  -3   2   20.20    7.80
   2   3  -2  512.15   26.00
   2   3  -2  467.35   21.20
  -2  -3   2  519.05   27.30
  -2  -3   2  450.35   21.80
  -2  -3   2  469.65   21.40
   1   3  -2    9.00    3.00
   1   3  -2   15.50    5.50
  -1  -3   2   13.20    3.60
  -1  -3   2   17.90    6.00
  -1  -3   2   11.70    2.60
   0   3  -2  815.32   31.20
   0  -3   2  829.32   31.10
   0  -3   2  832.72   31.90
  -1   3  -2  268.57    9.60
   1  -3   2  270.87   12.30
   1  -3   2  280.07   10.70
  -2   3  -2 1566.44   46.30
   2  -3   2 1559.34   43.30
   2  -3   2 1571.44   47.60
  -3   3  -2    0.30    3.00
   3  -3   2   -1.90    3.20
   3  -3   2    0.30    0.90
  -4   3  -2  194.98   14.70
   4  -3   2  191.98   17.60
   4  -3   2  182.78   17.90
  -5   3  -2    5.10    5.00
   5  -3   2   13.30    7.20
   5  -3   2    2.80    6.70
   6  -3   2  136.69   20.50
   7  -3   2    4.30    9.60
   8  -3   2   25.70   12.70
   8   2  -2    9.30    9.60
  -8  -2   2    2.60   11.20
   7   2  -2  109.29   21.40
  -7  -2   2   87.09   21.50
   6   2  -2   72.19   15.70
  -6  -2   2   72.69   11.20
  -6  -2   2   78.99   19.10
   5   2  -2    4.10    5.60
  -5  -2   2    7.20    4.30
  -5  -2   2    6.10    6.70
  -5  -2   2   11.60    5.80
   4   2  -2  350.46   22.10
   4   2  -2  320.27   23.60
  -4  -2   2  389.16   27.00
  -4  -2   2  397.46   20.60
  -4  -2   2  381.36   20.90
   3   2  -2   71.69   10.40
   3   2  -2   57.99   11.10
  -3  -2   2   71.99    9.40
  -3  -2   2   56.69   11.40
  -3  -2   2   80.49    9.90
   2   2  -2 1713.13   53.09
   2   2  -2 1763.92   58.29
  -2  -2   2 1853.41   54.99
  -2  -2   2 1833.82   60.09
  -2  -2   2 1802.62   52.29
   1   2  -2 2716.33   71.29
   1   2  -2 2639.04   77.59
  -1  -2   2 2716.93   78.79
  -1  -2   2 2728.73   75.69
  -1  -2   2 2697.13   70.69
   0   2  -2  595.84   21.40
   0   2  -2  604.54   18.00
   0  -2   2  634.44   23.80
   0  -2   2  620.74   21.20
  -1   2  -2 2476.85   65.79
  -1   2  -2 2415.86   64.99
   1  -2   2 2417.26   66.79
   1  -2   2 2401.36   64.49
  -2   2  -2    2.80    2.90
  -2   2  -2    0.40    1.20
   2  -2   2   -1.30    3.10
   2  -2   2    0.80    1.10
  -3   2  -2  519.55   24.10
   3  -2   2  491.95   28.00
   3  -2   2  526.65   25.60
  -4   2  -2   46.30    9.30
   4  -2   2   42.20   10.20
   4  -2   2   36.20   11.00
  -5   2  -2   98.09   14.60
   5  -2   2   99.39   16.60
   5  -2   2   81.59   16.50
   6  -2   2   19.20   10.90
   7  -2   2  202.28   28.00
   8  -2   2   20.60   14.50
   8   1  -2    5.10   10.40
  -8  -1   2    4.90   11.30
   7   1  -2   36.90   12.90
  -7  -1   2   28.30    7.70
  -7  -1   2   48.00   18.10
   6   1  -2  186.38   19.70
  -6  -1   2  187.58   14.00
  -6  -1   2  221.68   23.80
   5   1  -2  109.09   16.00
   5   1  -2   91.29   15.30
  -5  -1   2   74.69   15.20
  -5  -1   2   98.79   11.70
  -5  -1   2   82.19   13.30
   4   1  -2  404.46   24.70
   4   1  -2  437.66   26.80
  -4  -1   2  462.05   28.00
  -4  -1   2  437.86   22.20
  -4  -1   2  385.76   18.80
   3   1  -2 2966.60   89.29
   3   1  -2 2929.51   85.69
  -3  -1   2 3038.60   84.49
  -3  -1   2 2894.91   90.79
  -3  -1   2 2923.81   82.79
   2   1  -2 8845.81  229.78
  -2  -1   2 8828.22  230.98
   1   1  -2  236.28   11.90
   1   1  -2  245.88   11.20
   1   1  -2  243.38    9.80
  -1  -1   2  241.58   12.20
  -1  -1   2  260.47   11.40
   0   1  -2  112.39    6.50
   0   1  -2  104.09    7.50
   0  -1   2  127.19    6.50
   1  -1   2 5804.72  153.18
  -2   1  -2 1058.49   37.50
  -2   1  -2 1047.40   29.60
   2  -1   2 1025.90   29.40
   2  -1   2 1099.19   41.60
   2  -1   2 1067.39   38.90
  -3   1  -2  707.13   21.40
  -3   1  -2  742.73   31.50
   3  -1   2  706.63   32.90
   3  -1   2  688.13   34.90
  -4   1  -2 1413.46   39.50
  -4   1  -2 1447.76   54.09
   4  -1   2 1372.96   55.89
   4  -1   2 1397.96   60.49
  -5   1  -2   16.60    3.20
   5  -1   2   18.30    8.60
  -6   1  -2   68.09    5.40
  -6   1  -2   57.99    6.50
   6  -1   2   64.79   15.40
  -7   1  -2  180.18    8.80
  -7   1  -2  187.08    9.50
   7  -1   2  170.78   26.70
   8  -1   2   49.80   15.60
   8   0  -2    6.20    9.90
  -8   0   2   22.50   13.70
   7   0  -2   39.50   12.90
  -7   0   2   47.30   15.30
  -7   0   2   35.90    7.30
   6   0  -2  123.29   18.90
  -6   0   2  142.99   11.00
  -6   0   2  116.29   20.10
   5   0  -2  135.39   17.20
   5   0  -2   96.09   15.30
  -5   0   2  127.99    9.40
  -5   0   2  118.39   11.70
  -5   0   2  100.39   16.50
   4   0  -2 5205.08  146.19
   4   0  -2 5134.59  148.19
  -4   0   2 5250.77  151.68
  -4   0   2 5268.27  138.59
  -4   0   2 5295.57  144.39
   3   0  -2 2049.29   62.49
   3   0  -2 2142.59   59.89
  -3   0   2 2116.99   61.89
  -3   0   2 2029.50   65.29
  -3   0   2 1982.20   58.19
   2   0  -2   52.09    5.80
   2   0  -2   56.39    5.50
   2   0  -2   47.70    6.30
  -2   0   2   51.39    4.80
  -2   0   2   53.59    6.00
  -2   0   2   52.39    5.40
   1   0  -2 3530.75   93.89
   1   0  -2 3651.93   95.09
  -1   0   2 3764.12   95.19
  -1   0   2 3622.14   94.39
   0   0  -2  340.57   15.90
   0   0  -2  294.37   11.50
   0   0   2  295.47   15.20
   0   0   2  316.57   11.60
  -1   0  -2 2290.07   68.69
  -1   0  -2 2297.37   61.39
   1   0   2 2332.07   69.79
   1   0   2 2268.57   69.39
   1   0   2 2335.27   61.49
  -2   0  -2  344.37   21.20
  -2   0  -2  350.46   19.40
  -2   0  -2  332.27   12.80
   2   0   2  286.87   19.10
   2   0   2  372.36   21.40
  -3   0  -2  124.09   17.20
  -3   0  -2  116.89   12.20
  -3   0  -2   94.59    6.60
   3   0   2  126.49   17.10
   3   0   2   88.79   14.20
  -4   0  -2  253.17   12.10
  -4   0  -2  264.47   19.90
  -4   0  -2  287.67   24.50
   4   0   2  201.38   19.80
   4   0   2  232.28   21.10
  -5   0  -2  469.55   35.30
  -5   0  -2  468.65   18.90
   5   0   2  450.25   31.60
  -6   0  -2   75.59   19.20
  -6   0  -2  131.09   10.50
  -6   0  -2  131.69    9.10
   6   0   2   96.89   20.10
  -7   0  -2   11.90   11.10
  -7   0  -2    8.70    5.30
  -7   0  -2   -4.80    3.10
   7   0   2    2.60    8.00
   9  -1  -2   14.10   13.10
  -9   1   2   13.80   13.00
   8  -1  -2   -6.50    8.10
  -8   1   2   -4.60    4.80
   7  -1  -2   16.70    9.80
  -7   1   2   36.50   12.50
  -7   1   2   15.80    4.30
   6  -1  -2   69.59   13.40
   6  -1  -2   65.19   13.10
  -6   1   2   60.99    7.20
  -6   1   2   62.29   14.20
   5  -1  -2    5.40    5.30
   5  -1  -2    5.60    4.70
  -5   1   2   12.10    5.10
  -5   1   2    9.20    2.90
  -5   1   2    5.90    4.20
   4  -1  -2   70.59   10.60
   4  -1  -2   61.59    9.60
   4  -1  -2   59.99    7.30
  -4   1   2   78.09   10.90
  -4   1   2   55.39    5.60
  -4   1   2   55.29    9.90
   3  -1  -2 1535.55   49.10
   3  -1  -2 1605.94   50.29
   3  -1  -2 1638.04   46.40
  -3   1   2 1594.94   45.60
  -3   1   2 1597.74   50.79
  -3   1   2 1599.74   50.09
   2  -1  -2  327.67   12.00
   2  -1  -2  309.67   14.10
   2  -1  -2  318.67   12.70
  -2   1   2  333.77   12.80
  -2   1   2  302.27   12.20
   0  -1  -2 4437.06  122.49
   0  -1  -2 4450.95  117.69
   0   1   2 4494.45  117.69
   0   1   2 4505.65  114.69
   0   1   2 4209.98  122.19
  -1  -1  -2  948.81   36.20
  -1  -1  -2  932.81   35.90
  -1  -1  -2  905.31   28.90
   1   1   2  976.50   35.90
   1   1   2  874.31   36.20
   1   1   2  914.11   28.90
  -2  -1  -2 1314.97   48.90
  -2  -1  -2 1354.06   51.99
  -2  -1  -2 1303.77   39.90
   2   1   2 1363.66   50.69
   2   1   2 1265.97   50.19
  -3  -1  -2  670.03   32.70
  -3  -1  -2  710.73   37.80
  -3  -1  -2  639.14   24.10
   3   1   2  662.53   35.90
   3   1   2  648.74   34.60
  -4  -1  -2  490.45   20.10
  -4  -1  -2  463.85   28.20
  -4  -1  -2  443.86   32.80
   4   1   2  434.16   30.20
   4   1   2  397.96   29.20
  -5  -1  -2  720.23   27.60
  -5  -1  -2  715.93   46.00
   5   1   2  607.94   40.70
  -6  -1  -2   55.79   16.10
  -6  -1  -2   56.49    8.20
   6   1   2   42.30   12.60
  -7  -1  -2    1.50    4.60
  -7  -1  -2   14.50   13.50
   7   1   2    9.20   10.00
   9  -2  -2   27.40   12.60
   8  -2  -2  -14.10    5.30
  -8   2   2   -0.50    3.30
  -8   2   2    7.80    9.50
   7  -2  -2  203.68   20.00
  -7   2   2  163.78    9.90
  -7   2   2  168.18   23.80
   6  -2  -2 1196.28   50.59
   6  -2  -2 1174.38   50.39
  -6   2   2 1186.88   36.70
  -6   2   2 1173.88   53.09
   5  -2  -2   54.69   10.00
   5  -2  -2   72.29   11.80
   5  -2  -2   64.89    6.20
  -5   2   2   75.29   12.80
  -5   2   2   63.99   12.40
  -5   2   2   63.19    7.70
   4  -2  -2 2553.14   70.49
   4  -2  -2 2521.45   77.79
  -4   2   2 2520.35   78.19
  -4   2   2 2578.14   69.69
  -4   2   2 2607.84   77.39
   3  -2  -2  923.31   28.90
   3  -2  -2  925.21   33.00
   3  -2  -2  917.61   30.40
  -3   2   2  928.01   28.60
   2  -2  -2   32.60    4.50
   2  -2  -2   30.70    2.40
  -2   2   2   38.80    4.80
   1  -2  -2   26.00    4.20
   1  -2  -2   31.30    4.40
  -1   2   2   28.90    4.60
  -1   2   2   23.80    3.20
   0  -2  -2  131.49    8.20
   0  -2  -2  127.19    9.90
   0   2   2  122.59    9.10
   0   2   2  133.79   12.50
  -1  -2  -2  242.48   17.10
  -1  -2  -2  212.68   11.60
  -1  -2  -2  228.18   16.30
   1   2   2  173.48   15.70
   1   2   2  246.88   16.10
  -2  -2  -2   19.80    7.80
  -2  -2  -2   17.80    6.90
  -2  -2  -2   14.10    3.80
   2   2   2   26.30    8.20
   2   2   2   27.00    7.60
  -3  -2  -2  395.76   18.50
  -3  -2  -2  406.16   28.30
  -3  -2  -2  412.26   29.10
   3   2   2  373.96   29.00
   3   2   2  358.66   26.30
  -4  -2  -2   57.99    8.60
  -4  -2  -2   40.00   13.20
   4   2   2   59.79   15.10
  -5  -2  -2   -0.30    7.80
  -5  -2  -2    5.30    3.90
   5   2   2    1.40    8.60
  -6  -2  -2    4.50    9.60
  -6  -2  -2    1.90    4.50
   6   2   2    0.80    8.60
  -7  -2  -2  -17.30    8.70
  -7  -2  -2   -2.40    5.60
   7   2   2    7.80   11.20
   9  -3  -2   25.00   11.90
   8  -3  -2   46.20   13.30
  -8   3   2   55.09    5.40
   7  -3  -2  216.78   20.60
   7  -3  -2  232.48   21.70
  -7   3   2  220.18   11.40
   6  -3  -2   24.20    4.80
   6  -3  -2   39.20   10.40
   6  -3  -2   37.50   10.50
  -6   3   2   36.50    5.10
   5  -3  -2   -0.20    3.60
   5  -3  -2    1.10    1.80
   5  -3  -2   -3.40    3.00
  -5   3   2    0.50    1.80
   4  -3  -2  494.75   23.80
   4  -3  -2  497.15   18.50
   4  -3  -2  477.15   22.10
  -4   3   2  502.25   18.10
   3  -3  -2   74.89    9.40
   3  -3  -2   62.49    5.50
   3  -3  -2   54.19    5.30
  -3   3   2   54.19    6.10
   2  -3  -2   41.20    5.40
   2  -3  -2   32.30    3.40
  -2   3   2   26.10    4.50
   1  -3  -2   45.30    5.90
   1  -3  -2   42.30    5.90
  -1   3   2   44.90    4.90
  -1   3   2   52.29    6.50
   0  -3  -2  408.16   17.70
   0  -3  -2  405.26   20.70
   0  -3  -2  393.66   23.20
   0   3   2  412.36   20.20
  -1  -3  -2    7.30    5.00
  -1  -3  -2    3.90    2.50
  -1  -3  -2    6.70    5.60
   1   3   2    1.80    3.00
   1   3   2   -4.10    3.70
  -2  -3  -2   -1.60    1.80
  -2  -3  -2   -1.50    4.30
  -2  -3  -2   -0.30    3.60
   2   3   2    0.10    4.10
   2   3   2   -1.80    4.30
  -3  -3  -2  358.66   25.20
  -3  -3  -2  312.27   26.70
  -3  -3  -2  340.87   18.50
   3   3   2  337.47   27.00
   3   3   2  325.07   25.20
  -4  -3  -2  191.78   14.20
  -4  -3  -2  168.48   26.80
   4   3   2  223.38   28.80
  -5  -3  -2    5.20   11.70
  -5  -3  -2   20.40    6.10
  -6  -3  -2  220.48   17.30
  -6  -3  -2  224.48   37.20
   6   3   2  251.47   35.20
   9  -4  -2   86.99   18.50
   8  -4  -2   55.99   14.10
  -8   4   2   49.99    4.00
   7  -4  -2   17.30    7.20
   7  -4  -2   12.80    8.20
  -7   4   2    6.20    2.50
   6  -4  -2  657.13   23.50
   6  -4  -2  663.93   34.00
   6  -4  -2  655.23   33.40
  -6   4   2  673.83   22.80
   5  -4  -2  399.46   23.00
   5  -4  -2  401.56   16.50
   5  -4  -2  404.26   22.10
   4  -4  -2   63.59    5.90
   4  -4  -2   93.49   11.80
   4  -4  -2   66.59    7.40
  -4   4   2   72.29    6.10
   3  -4  -2   18.20    3.90
   3  -4  -2   19.40    3.60
  -3   4   2   17.70    3.60
   2  -4  -2 1338.47   42.60
   2  -4  -2 1370.66   41.50
  -2   4   2 1370.46   42.90
   1  -4  -2  590.64   23.30
   1  -4  -2  553.94   24.00
   1  -4  -2  546.35   28.80
  -1   4   2  595.64   23.50
   0  -4  -2    1.90    4.10
   0  -4  -2    4.20    3.80
   0  -4  -2    3.60    1.90
   0   4   2    4.70    4.40
  -1  -4  -2  332.77   23.10
  -1  -4  -2  330.07   17.70
  -1  -4  -2  324.57   22.70
   1   4   2  296.37   23.70
   1   4   2  355.76   22.10
  -2  -4  -2   11.50    6.50
  -2  -4  -2    2.90    2.60
  -2  -4  -2   14.00    8.20
   2   4   2   11.50    6.60
   2   4   2   10.10    6.70
  -3  -4  -2   62.89   15.00
  -3  -4  -2   94.79   12.10
   3   4   2   83.19   17.40
  -4  -4  -2   16.90    5.70
  -4  -4  -2    6.00    9.60
   4   4   2   26.40   12.00
  -5  -4  -2  355.26   23.10
  -5  -4  -2  442.46   39.70
   5   4   2  399.16   35.50
  -6  -4  -2   35.50   16.70
  -6  -4  -2   52.99   10.60
   6   4   2   34.70   15.50
   9  -5  -2    5.20    7.50
   8  -5  -2   48.70   12.90
   7  -5  -2   -4.50    6.40
   7  -5  -2    6.80    2.80
   7  -5  -2   -2.90    5.00
   6  -5  -2  164.88    9.80
   6  -5  -2  157.48   15.30
   6  -5  -2  149.88   15.10
  -6   5   2  177.08    9.80
   5  -5  -2   13.10    5.20
   5  -5  -2   10.60    3.30
   5  -5  -2   19.30    5.50
  -5   5   2    8.90    3.30
   4  -5  -2  111.09   10.70
   4  -5  -2  111.99    8.30
   4  -5  -2  127.99    9.40
  -4   5   2  124.39    9.10
   3  -5  -2  976.10   33.20
   3  -5  -2 1006.20   34.30
   2  -5  -2  235.68   14.20
   2  -5  -2  223.28   13.60
  -2   5   2  248.48   13.90
   1  -5  -2  132.59   10.70
   1  -5  -2  127.29   17.30
   1  -5  -2  121.79   11.60
  -1   5   2  139.69   11.30
   0  -5  -2   29.10    8.30
   0  -5  -2   33.00    6.80
   0  -5  -2   33.20    9.00
   0   5   2   37.90    8.70
  -1  -5  -2   14.40    7.30
  -1  -5  -2   22.50    8.70
  -1  -5  -2   22.00    6.00
   1   5   2   25.30    8.60
   1   5   2   11.30    7.40
  -2  -5  -2   -0.70    2.90
  -2  -5  -2   15.90    7.30
  -2  -5  -2    3.50    7.80
   2   5   2    4.10    4.90
  -3  -5  -2  158.08   26.00
  -3  -5  -2  107.99   14.20
   3   5   2  104.19   20.30
  -4  -5  -2   16.80   10.10
  -4  -5  -2   11.40    6.30
  -5  -5  -2   14.60   11.80
  -5  -5  -2   14.50    7.20
   5   5   2   28.80   13.90
   9  -6  -2   18.80    9.40
   8  -6  -2   62.09   13.40
   7  -6  -2    8.90    3.20
   7  -6  -2   27.20    8.30
   7  -6  -2   10.40    7.40
   6  -6  -2   28.40    8.40
   6  -6  -2   26.70    5.10
   6  -6  -2   41.30   10.10
   5  -6  -2   96.29    8.30
   5  -6  -2   65.09   11.10
   5  -6  -2   93.89   12.60
   4  -6  -2  341.67   19.80
   4  -6  -2  313.47   16.70
   4  -6  -2  318.47   16.50
   3  -6  -2   17.10    4.70
   3  -6  -2   25.50    5.80
   2  -6  -2  459.85   23.30
   2  -6  -2  468.45   22.10
  -2   6   2  437.36   21.90
   1  -6  -2    3.40    2.80
   1  -6  -2    0.00    3.70
   1  -6  -2   -1.30    4.80
  -1   6   2    3.70    3.90
   0  -6  -2  419.36   22.70
   0  -6  -2  457.95   28.70
   0  -6  -2  456.55   29.10
   0   6   2  482.15   27.20
  -1  -6  -2   91.39   16.10
  -1  -6  -2   87.69   11.80
  -1  -6  -2   70.09   13.80
   1   6   2   48.80   13.80
   1   6   2   72.89   14.40
  -2  -6  -2  226.78   24.20
  -2  -6  -2  196.68   16.00
   2   6   2  200.18   27.90
  -3  -6  -2  235.38   18.80
   3   6   2  149.79   25.50
  -4  -6  -2   -5.40    5.80
  -4  -6  -2   -3.80    7.30
   4   6   2   -0.10   11.60
   9  -7  -2   12.00    8.60
   8  -7  -2   18.40    9.90
   8  -7  -2   -3.10    2.40
   8  -7  -2   -8.20    7.60
   7  -7  -2   58.09   13.00
   7  -7  -2   58.39   13.20
   7  -7  -2   61.59    7.60
   6  -7  -2    8.80    5.30
   6  -7  -2    1.30    3.00
   6  -7  -2    2.70    5.70
   5  -7  -2  617.44   25.70
   5  -7  -2  559.24   28.90
   5  -7  -2  592.14   26.60
   4  -7  -2  148.99   13.00
   4  -7  -2  157.98   11.80
   4  -7  -2  146.69   12.10
   3  -7  -2   98.89   11.70
   3  -7  -2   93.09   10.50
   2  -7  -2  152.98   12.80
   2  -7  -2  146.59   13.90
   2  -7  -2  156.18   16.90
  -2   7   2  191.58   15.20
   1  -7  -2    5.60    4.10
   1  -7  -2    2.40    6.90
   1  -7  -2   13.90    6.30
  -1   7   2   10.20    5.50
   0  -7  -2   71.69   14.10
   0  -7  -2   80.49   15.80
   0  -7  -2   81.09   11.60
   0   7   2   64.29   12.20
  -1  -7  -2  331.17   29.00
  -1  -7  -2  397.46   24.00
  -2  -7  -2   77.99   18.30
  -2  -7  -2   98.49   15.10
   2   7   2  104.79   21.40
  -3  -7  -2   77.59   13.70
  -3  -7  -2   98.29   22.40
   3   7   2   89.99   22.20
  -4  -7  -2   -7.50    8.60
  -4  -7  -2   -4.60    6.20
   4   7   2    9.50   11.90
   8  -8  -2   -8.90    9.10
   8  -8  -2   19.20    9.00
   8  -8  -2    5.80    3.30
   7  -8  -2   21.20   10.50
   7  -8  -2   56.19   10.50
   7  -8  -2   28.40    9.90
   7  -8  -2   60.19    7.80
   6  -8  -2  313.07   23.00
   6  -8  -2  328.77   23.00
   6  -8  -2  340.57   18.10
   6  -8  -2  371.36   21.70
   5  -8  -2   29.50    8.50
   5  -8  -2   23.50    6.20
   5  -8  -2   23.60    6.00
   4  -8  -2   71.29   10.30
   4  -8  -2   79.29   11.30
   4  -8  -2   72.89   11.60
   3  -8  -2  165.38   14.00
   3  -8  -2  147.79   14.10
   2  -8  -2  335.17   24.10
   2  -8  -2  284.37   24.50
   2  -8  -2  339.77   20.90
  -2   8   2  362.36   23.20
   1  -8  -2   13.20    8.50
   1  -8  -2    2.30    4.50
   1  -8  -2   -0.20    6.00
  -1   8   2    3.60    6.40
   0  -8  -2  503.85   27.70
   0  -8  -2  416.66   32.00
  -1  -8  -2   21.00    9.90
  -1  -8  -2   21.90    7.30
  -2  -8  -2   25.70    8.80
  -2  -8  -2    1.20    9.10
  -3  -8  -2   93.69   15.50
  -3  -8  -2  128.59   27.30
   3   8   2   92.29   22.00
   8  -9  -2   92.59   17.70
   8  -9  -2  125.19    9.70
   8  -9  -2   84.19   14.00
   8  -9  -2   75.99   18.10
   7  -9  -2   -3.20    3.20
   7  -9  -2    1.20    4.60
   6  -9  -2    5.90    5.40
   6  -9  -2   -6.20    2.90
   6  -9  -2    9.20    5.90
   5  -9  -2  163.48   15.70
   5  -9  -2  152.78   26.50
   4  -9  -2   36.00    8.20
   4  -9  -2   26.30    6.50
   4  -9  -2   15.20    6.40
   3  -9  -2   40.90   12.20
   3  -9  -2   30.40    8.40
   3  -9  -2   26.20    8.30
   2  -9  -2    4.70    8.50
   2  -9  -2   28.80    8.80
   2  -9  -2    5.80    5.60
  -2   9   2   11.60    8.40
   1  -9  -2   38.60   10.40
   1  -9  -2   59.19   14.10
   0  -9  -2   -4.50    4.30
   0  -9  -2   -3.00    5.90
  -1  -9  -2  223.38   31.40
  -1  -9  -2  216.08   19.60
  -2  -9  -2   -1.20    9.60
  -2  -9  -2    3.20    6.60
   7 -10  -2   81.99   14.90
   7 -10  -2   71.69   10.30
   7 -10  -2   41.30   13.70
   7 -10  -2   74.79   13.00
   6 -10  -2    0.60    5.20
   6 -10  -2   -3.30    5.00
   6 -10  -2   -3.80    3.90
   5 -10  -2  291.57   21.80
   5 -10  -2  257.27   20.10
   5 -10  -2  275.57   19.10
   4 -10  -2   62.59   12.30
   4 -10  -2   79.79   13.10
   4 -10  -2   49.99   10.10
   3 -10  -2   83.19   15.40
   3 -10  -2   69.89   12.70
   2 -10  -2  224.28   23.20
   2 -10  -2  192.88   17.80
   1 -10  -2   18.40   10.00
   1 -10  -2   30.90    8.70
   0 -10  -2  165.88   27.20
   0 -10  -2  153.48   20.70
   6 -11  -2   -6.10    4.90
   6 -11  -2   -9.70    4.80
   6 -11  -2   15.80    8.00
   5 -11  -2   50.49   12.10
   5 -11  -2   60.29   11.20
   5 -11  -2   53.59   12.60
   4 -11  -2   14.70    9.80
   4 -11  -2    1.10    5.20
   4 -11  -2    0.60    5.90
   3 -11  -2   -1.20    8.00
   3 -11  -2   -1.00    5.50
   2 -11  -2  110.69   17.10
   2 -11  -2  165.78   25.00
   1 -11  -2   10.50    6.50
   1 -11  -2   -0.30   12.40
   2 -12   3    4.70    9.80
   3 -12   3    8.00   11.90
   4 -12   3   69.69   17.80
   4 -12   3   85.99   13.90
   0 -11   3    1.50    9.50
   1 -11   3   52.89   16.90
   2 -11   3  336.27   31.50
   3 -11   3    9.10    8.40
   4 -11   3   15.90    9.20
   4 -11   3    6.10    3.80
   5 -11   3   11.70    8.80
   5 -11   3    5.00    5.80
   5 -11   3    4.00    4.30
   6 -11   3   -3.00    8.40
   6 -11   3    2.30    4.40
   6 -11   3   17.20    7.80
  -2 -10   3   -9.80    7.60
  -1 -10   3   73.99   18.70
  -1 -10   3   80.59    5.90
   0 -10   3   16.20    9.90
   1 -10   3   17.20   10.00
   3 -10   3   46.00   13.00
   4 -10   3  223.68   13.30
   4 -10   3  232.38   32.60
   5 -10   3   44.60    7.50
   5 -10   3   32.30    7.90
   5 -10   3   48.20    9.00
   5 -10   3   32.40   10.90
   6 -10   3   97.79    9.50
   6 -10   3  125.59    9.20
   6 -10   3   53.29   13.60
   6 -10   3  107.29   15.30
   7 -10   3   59.59   17.10
   7 -10   3   62.79   15.00
   3   9  -3    3.30    7.60
  -3  -9   3   -4.50   10.50
  -3  -9   3  -11.40    9.80
  -2  -9   3  128.59   24.20
  -2  -9   3   91.39    9.20
  -1  -9   3   67.69    5.90
  -1  -9   3   62.19   15.10
   0  -9   3  221.38   24.30
   1  -9   3   16.50    9.10
   2  -9   3   15.50    7.80
   3  -9   3   13.90    6.70
   3  -9   3    6.50    3.00
   3  -9   3    5.20    2.90
   3  -9   3   13.00    8.20
   4  -9   3   18.40    7.60
   4  -9   3   13.60    5.30
   4  -9   3   16.40    4.90
   5  -9   3    7.60    7.00
   5  -9   3    0.90    3.10
   5  -9   3   -1.40    4.00
   5  -9   3   -8.00    6.50
   6  -9   3    3.90    2.50
   6  -9   3   -3.70    4.30
   6  -9   3    0.90    5.60
   7  -9   3  138.69   21.90
   4   8  -3   20.30   10.00
  -4  -8   3   -3.30   11.10
   3   8  -3    0.30    6.00
  -3  -8   3    0.30    5.20
  -3  -8   3  -21.30    7.30
   2   8  -3  151.28   14.70
  -2  -8   3  163.78   11.00
  -2  -8   3  160.28   26.10
  -1  -8   3  579.04   39.60
  -1  -8   3  596.24   20.60
   0  -8   3   -2.60    5.80
   1  -8   3 1028.80   49.90
   2  -8   3  591.54   35.10
   2  -8   3  525.65   27.60
   3  -8   3   72.09   14.70
   3  -8   3   56.69    7.00
   3  -8   3   50.29    9.00
   4  -8   3  335.47   18.10
   4  -8   3  316.67   17.80
   4  -8   3  306.87   24.90
   5  -8   3  299.67   15.10
   5  -8   3  345.97   15.10
   5  -8   3  341.77   21.50
   6  -8   3   33.70   10.70
   7  -8   3    5.10    9.40
   8  -8   3    9.50    9.80
   5   7  -3   15.00   10.10
  -5  -7   3   -9.70    7.20
   4   7  -3   75.19   14.10
  -4  -7   3   40.40   16.90
   3   7  -3   90.79   14.10
  -3  -7   3   90.29   11.90
  -3  -7   3   77.59   18.90
   2   7  -3  130.69   12.90
  -2  -7   3  168.48   24.80
  -2  -7   3  144.79   10.30
  -1  -7   3   36.60   11.20
  -1  -7   3   38.70    5.00
   0  -7   3  123.79   17.60
   0  -7   3  117.89   18.50
   1  -7   3  288.97   18.80
   1  -7   3  276.57   22.40
   2  -7   3   44.80   10.20
   2  -7   3   30.60    7.40
   3  -7   3   67.19    9.40
   3  -7   3   84.19   14.30
   3  -7   3   68.59    8.20
   4  -7   3  298.57   15.10
   4  -7   3  305.57   18.10
  -5   7  -3   56.69    9.10
   5  -7   3   31.40    8.70
   5  -7   3   35.90    4.40
   5  -7   3   36.00    4.60
   6  -7   3   -4.40    4.20
   7  -7   3    5.00    7.50
   8  -7   3   -3.30    8.30
   6   6  -3   15.60   12.00
  -6  -6   3   40.30   16.60
   5   6  -3   -2.30    8.10
  -5  -6   3   11.70    9.50
   4   6  -3   11.50    7.00
  -4  -6   3   -7.00    5.50
  -4  -6   3    1.20    8.50
   3   6  -3   48.90   10.20
  -3  -6   3   61.39   15.50
  -3  -6   3   59.39    9.30
   2   6  -3   27.20    6.60
  -2  -6   3   32.20   11.00
  -2  -6   3   23.80    5.00
   1   6  -3 1339.67   54.39
   1   6  -3 1278.27   41.20
  -1  -6   3 1314.97   37.50
  -1  -6   3 1342.37   57.69
  -1  -6   3 1300.37   49.80
   0   6  -3  908.71   42.10
   0  -6   3 1024.90   45.70
   1  -6   3  393.16   25.20
   1  -6   3  378.36   20.40
   2  -6   3 1858.31   65.79
   2  -6   3 1743.93   56.89
   2  -6   3 1819.72   50.59
   3  -6   3  160.28   10.70
   3  -6   3  183.48   12.00
  -4   6  -3   47.50    7.70
   4  -6   3   61.79   10.60
   4  -6   3   47.00    5.60
  -5   6  -3   29.60    8.80
   5  -6   3   22.20    8.10
   6  -6   3    5.50    7.20
   7  -6   3   75.49   17.70
   8  -6   3   54.99   16.20
  -6  -5   3   -4.70    7.30
   5   5  -3   15.60    9.30
  -5  -5   3   21.30   12.50
   4   5  -3  125.69   17.60
  -4  -5   3  145.69   13.40
  -4  -5   3  119.19   21.30
   3   5  -3   63.99   10.70
  -3  -5   3   62.19   15.10
  -3  -5   3   75.99   10.00
   2   5  -3    0.10    4.90
   2   5  -3   -1.00    3.70
  -2  -5   3    4.00    5.60
  -2  -5   3   13.40    5.50
  -2  -5   3    0.40    2.30
   1   5  -3  701.53   24.50
   1   5  -3  697.33   34.00
  -1  -5   3  695.73   31.00
  -1  -5   3  712.33   21.70
  -1  -5   3  726.23   36.60
   0   5  -3 1055.69   43.50
   0  -5   3 1079.29   45.30
   0  -5   3 1049.40   39.30
   1  -5   3 1159.48   50.39
   1  -5   3 1118.29   39.50
  -2   5  -3  853.81   25.70
   2  -5   3  753.72   28.70
   2  -5   3  821.92   27.70
  -3   5  -3  138.99    9.60
   3  -5   3  139.19    8.60
   3  -5   3  124.99   10.80
  -4   5  -3  324.97   18.00
   4  -5   3  293.47   19.70
   4  -5   3  310.27   11.50
  -5   5  -3  176.48   15.00
   5  -5   3  169.28   16.90
   6  -5   3   16.20    7.70
   8  -5   3   17.50    9.50
   7   4  -3   22.40   13.30
  -7  -4   3    3.00   12.40
   6   4  -3  228.08   23.70
  -6  -4   3  212.28   31.40
   5   4  -3    4.50    7.10
  -5  -4   3   14.30    9.10
   4   4  -3  304.27   21.90
  -4  -4   3  305.37   18.80
  -4  -4   3  335.07   27.90
   3   4  -3  913.21   37.40
   3   4  -3  935.51   44.10
  -3  -4   3  992.00   47.40
  -3  -4   3  954.50   34.50
  -3  -4   3  909.21   38.60
   2   4  -3   25.20    6.90
   2   4  -3   29.40    6.00
  -2  -4   3   41.40    7.80
  -2  -4   3   39.20    9.40
  -2  -4   3   31.30    5.20
   1   4  -3 2831.22   89.29
   1   4  -3 2854.21   77.19
  -1  -4   3 2970.10   92.19
  -1  -4   3 2920.11   85.79
   0   4  -3  105.99   10.80
   0  -4   3   92.99   13.30
   0  -4   3  101.49    9.10
  -1   4  -3  578.24   17.00
   1  -4   3  605.84   23.20
   1  -4   3  564.54   27.60
  -2   4  -3   86.79    6.90
   2  -4   3   92.59    6.90
   2  -4   3   88.89    8.10
  -3   4  -3   -0.20    2.70
   3  -4   3   -0.30    1.30
  -4   4  -3   94.59   12.40
   4  -4   3  127.39    4.70
  -5   4  -3  628.64   32.10
   5  -4   3  669.43   35.70
   6  -4   3    2.80    8.90
   7  -4   3  106.59   20.30
   8  -4   3  238.98   33.10
   7   3  -3   31.60   11.10
  -7  -3   3   12.00   12.30
   6   3  -3   75.09   15.70
  -6  -3   3  133.69   23.60
   5   3  -3   -7.90    3.90
  -5  -3   3   17.50   10.20
  -5  -3   3   -7.20    4.90
   4   3  -3   58.89   10.80
   4   3  -3   68.99   13.90
  -4  -3   3   53.09    9.70
  -4  -3   3   51.89    9.40
  -4  -3   3   60.99   13.40
   3   3  -3  516.35   29.00
   3   3  -3  560.14   25.50
  -3  -3   3  548.45   26.10
  -3  -3   3  587.64   32.60
  -3  -3   3  562.64   23.50
   2   3  -3    7.70    3.40
   2   3  -3   11.20    5.50
  -2  -3   3   11.10    3.30
  -2  -3   3    6.00    5.30
  -2  -3   3   20.40    5.30
   1   3  -3  161.38    8.00
   1   3  -3  179.98   13.20
  -1  -3   3  189.18   11.80
  -1  -3   3  156.98   13.30
   0   3  -3  863.61   30.90
   0   3  -3  860.21   24.60
   0  -3   3  855.11   33.80
   0  -3   3  871.71   30.10
  -1   3  -3   18.30    4.40
  -1   3  -3   14.70    3.50
   1  -3   3   14.80    4.10
   1  -3   3    9.60    3.30
  -2   3  -3 1130.39   37.10
  -2   3  -3 1097.19   33.90
   2  -3   3 1085.19   38.90
   2  -3   3 1118.19   33.00
  -3   3  -3  300.47   17.60
  -3   3  -3  302.37   11.80
   3  -3   3  305.77   10.90
   3  -3   3  297.17   19.00
  -4   3  -3  201.38   15.90
   4  -3   3  187.88   16.90
   4  -3   3  165.68   18.00
  -5   3  -3   36.30   11.40
   5  -3   3   19.70    8.90
   6  -3   3  359.96   29.20
   7  -3   3  112.09   20.70
   8  -3   3   39.60   15.70
   8   2  -3   44.20   12.80
  -8  -2   3   29.60   15.70
   7   2  -3   12.80    9.60
  -7  -2   3   -7.20    7.20
   6   2  -3  124.69   19.70
  -6  -2   3  162.88   26.60
  -6  -2   3  142.69   13.90
   5   2  -3  332.67   25.60
   5   2  -3  364.86   24.60
  -5  -2   3  363.26   28.70
  -5  -2   3  391.06   22.60
  -5  -2   3  374.06   21.00
   4   2  -3    4.70    4.90
  -4  -2   3    3.10    3.10
  -4  -2   3    3.10    3.20
  -4  -2   3   -1.80    3.90
   3   2  -3 3548.24  102.09
   3   2  -3 3470.85  107.19
  -3  -2   3 3651.13  100.59
  -3  -2   3 3764.52  102.89
  -3  -2   3 3614.74  110.59
   2   2  -3  160.88   12.70
   2   2  -3  178.88   10.50
   2   2  -3  143.99   11.20
  -2  -2   3  158.08   13.30
  -2  -2   3  180.38    9.80
  -2  -2   3  189.08   11.80
   1   2  -3  874.01   32.30
   1   2  -3  890.31   31.10
   1   2  -3  882.51   26.40
  -1  -2   3  814.72   29.80
  -1  -2   3  911.61   33.50
   0   2  -3 1136.89   36.00
   0   2  -3 1140.69   36.40
   0  -2   3 1195.78   36.20
   0  -2   3 1181.88   39.60
  -1   2  -3  501.65   18.50
  -1   2  -3  485.25   20.40
   1  -2   3  511.55   18.00
   1  -2   3  518.15   22.10
  -2   2  -3  349.96   13.60
  -2   2  -3  370.86   19.00
   2  -2   3  367.96   20.40
   2  -2   3  372.76   13.50
  -3   2  -3 1185.08   34.60
  -3   2  -3 1280.97   46.10
   3  -2   3 1239.08   51.99
   3  -2   3 1212.38   47.90
   3  -2   3 1212.98   34.50
  -4   2  -3  239.68    9.20
   4  -2   3  229.98   19.70
   4  -2   3  201.78   20.80
  -5   2  -3   69.39    4.10
   5  -2   3   74.39   15.40
   6  -2   3  171.18   24.60
   7  -2   3   97.79   21.10
   8  -2   3   18.10   11.80
   8   1  -3   52.59   15.10
  -8  -1   3   44.70   16.70
  -7  -1   3    4.20    5.40
  -7  -1   3   -5.60    8.30
   6   1  -3  156.38   21.20
  -6  -1   3  169.78   25.10
  -6  -1   3  143.59   14.30
   5   1  -3  748.13   38.20
   5   1  -3  741.33   36.00
  -5  -1   3  768.62   41.10
  -5  -1   3  793.42   34.40
  -5  -1   3  746.73   30.70
   4   1  -3 1416.56   53.09
   4   1  -3 1393.86   50.29
  -4  -1   3 1438.26   48.70
  -4  -1   3 1447.96   55.89
  -4  -1   3 1367.06   46.40
   3   1  -3  105.79   10.60
   3   1  -3  102.49    9.60
   3   1  -3   98.79    9.10
  -3  -1   3   82.49   12.00
  -3  -1   3  110.09    8.90
  -3  -1   3  111.89    9.20
   2   1  -3   74.99    7.30
   2   1  -3   71.99    7.30
   2   1  -3   64.99    6.20
  -2  -1   3   62.29    8.70
  -2  -1   3   75.19    6.60
   1   1  -3 2722.63   76.69
   1   1  -3 2831.62   76.69
  -1  -1   3 2707.13   77.49
  -1  -1   3 2787.12   78.79
   0   1  -3 2588.74   71.49
   0   1  -3 2565.04   75.59
   0  -1   3 2691.93   71.39
  -1   1  -3   18.00    5.80
  -1   1  -3   16.10    3.10
   1  -1   3   10.10    4.60
   1  -1   3   11.50    2.80
  -2   1  -3 1854.01   51.39
  -2   1  -3 1873.91   60.99
   2  -1   3 1873.71   65.19
   2  -1   3 1818.42   62.79
   2  -1   3 1814.42   50.99
  -3   1  -3  217.98   16.70
  -3   1  -3  195.98    9.40
   3  -1   3  175.88   18.50
   3  -1   3  170.98   17.20
  -4   1  -3    8.00    6.10
  -4   1  -3    7.40    2.30
   4  -1   3    4.00    6.30
   4  -1   3    4.30    5.80
  -5   1  -3   14.70    3.50
   5  -1   3    4.90    6.80
  -6   1  -3   25.60    4.10
  -7   1  -3    1.20    2.70
  -7   1  -3   -1.90    3.20
   7  -1   3   -7.30    6.80
   8   0  -3   59.19   15.40
  -8   0   3   33.70   13.40
  -8   0   3   37.00    9.70
   7   0  -3    3.10    7.50
  -7   0   3    9.60    9.50
   6   0  -3  227.48   20.70
   6   0  -3  289.87   22.10
  -6   0   3  259.17   23.80
  -6   0   3  234.88   14.90
   5   0  -3  104.29   15.00
   5   0  -3  115.99   12.50
  -5   0   3  113.59    9.30
  -5   0   3  129.59   21.10
  -5   0   3  111.39   11.60
   4   0  -3  534.35   25.50
   4   0  -3  488.85   22.20
   4   0  -3  508.05   25.30
  -4   0   3  515.55   21.30
  -4   0   3  519.85   27.10
  -4   0   3  531.85   24.40
   3   0  -3  399.06   19.10
   3   0  -3  446.06   18.70
   3   0  -3  377.86   18.60
  -3   0   3  393.26   19.80
  -3   0   3  412.56   17.40
   2   0  -3  403.66   16.50
   2   0  -3  408.56   17.30
   2   0  -3  433.76   17.70
  -2   0   3  405.16   16.70
  -2   0   3  412.56   17.20
   1   0  -3   60.99    5.70
  -1   0   3   65.19    5.60
  -1   0   3   62.59    5.40
   0   0  -3  447.36   22.20
   0   0  -3  451.55   16.90
   0   0   3  429.56   16.50
  -1   0  -3 2402.56   73.79
  -1   0  -3 2285.97   63.99
   1   0   3 2326.17   73.39
   1   0   3 2344.47   63.89
   1   0   3 2275.37   74.39
  -2   0  -3 2582.84   80.99
  -2   0  -3 2463.95   69.19
   2   0   3 2504.35   83.29
   2   0   3 2594.54   72.09
   2   0   3 2458.75   82.69
  -3   0  -3 1026.30   44.20
  -3   0  -3 1120.09   50.49
  -3   0  -3 1061.79   33.50
   3   0   3 1071.09   48.60
   3   0   3  986.70   46.40
  -4   0  -3  313.97   14.30
  -4   0  -3  288.07   26.10
  -4   0  -3  281.67   22.20
   4   0   3  301.47   25.50
   4   0   3  277.77   24.30
  -5   0  -3   22.00    9.00
  -5   0  -3   23.40    4.70
   5   0   3   17.40   11.20
  -6   0  -3   10.00    3.40
   6   0   3    7.60    7.80
  -7   0  -3   15.70    7.50
  -7   0  -3   -1.20    3.70
   7   0   3   17.70   11.40
   9  -1  -3    6.00    9.50
  -9   1   3   12.10   10.90
   8  -1  -3   40.10   14.00
  -8   1   3   36.40   13.60
  -8   1   3   17.30    6.10
   7  -1  -3   28.10   10.90
  -7   1   3   42.50   14.70
  -7   1   3   37.80    6.50
   6  -1  -3    1.10    6.20
   6  -1  -3    5.00    4.90
  -6   1   3    5.40    3.50
  -6   1   3    3.30    6.20
   5  -1  -3  954.20   40.00
   5  -1  -3  886.61   38.60
   5  -1  -3  961.00   34.30
  -5   1   3  889.21   31.80
  -5   1   3  985.70   42.40
  -5   1   3  927.51   38.20
   4  -1  -3  177.18   12.80
   4  -1  -3  182.88   13.70
   4  -1  -3  162.38   10.90
  -4   1   3  174.88   10.50
  -4   1   3  171.68   13.40
   3  -1  -3 1818.92   53.29
   3  -1  -3 1779.12   52.49
   3  -1  -3 1747.93   55.69
  -3   1   3 1823.42   52.59
  -3   1   3 1823.02   53.89
   2  -1  -3  602.84   18.60
   2  -1  -3  616.94   22.30
  -2   1   3  610.14   23.70
  -2   1   3  616.24   20.00
   1  -1  -3  493.95   18.80
   0  -1  -3 1146.09   35.40
   0  -1  -3 1146.89   43.90
   0   1   3 1115.29   38.80
   0   1   3 1171.48   35.60
  -1  -1  -3  282.17   19.40
  -1  -1  -3  288.37   13.50
  -1  -1  -3  291.87   18.60
   1   1   3  275.07   19.90
   1   1   3  303.57   13.60
   1   1   3  265.47   17.70
  -2  -1  -3 1112.09   45.10
  -2  -1  -3 1008.80   34.10
  -2  -1  -3 1075.09   46.40
   2   1   3 1043.40   45.20
   2   1   3 1043.20   46.90
  -3  -1  -3  111.39   16.60
  -3  -1  -3  103.49    8.30
  -3  -1  -3  125.29   18.90
   3   1   3   94.49   16.00
   3   1   3  118.99   18.80
  -4  -1  -3   12.00    7.70
  -4  -1  -3   22.10    5.10
   4   1   3   28.40   11.60
  -5  -1  -3  192.38   29.50
  -5  -1  -3  183.28   12.60
   5   1   3  178.18   26.20
  -6  -1  -3  206.48   32.30
  -6  -1  -3  209.68   13.80
   6   1   3  229.08   32.00
  -7  -1  -3   -2.30    4.70
   7   1   3   -3.30    8.50
   9  -2  -3    6.30    6.90
  -9   2   3    5.50    9.50
   8  -2  -3  145.99   21.90
  -8   2   3  167.88   11.60
  -8   2   3  128.89   22.20
   7  -2  -3    3.50    6.20
   7  -2  -3   20.50    8.50
  -7   2   3   20.80    4.90
  -7   2   3   16.50    8.00
   6  -2  -3  215.58   19.10
   6  -2  -3  255.37   19.70
   6  -2  -3  243.48   14.70
  -6   2   3  269.07   13.80
   5  -2  -3   24.70    6.70
   5  -2  -3   23.90    5.10
   5  -2  -3   11.70    5.00
  -5   2   3   19.10    6.60
  -5   2   3   22.80    4.60
   4  -2  -3 1043.70   36.00
   4  -2  -3 1044.80   34.90
   4  -2  -3 1062.39   40.40
  -4   2   3 1071.49   37.70
  -4   2   3 1071.59   34.30
   3  -2  -3   98.59    7.70
   3  -2  -3   99.89    9.40
   3  -2  -3  104.79    6.00
  -3   2   3  109.89    7.70
   2  -2  -3  486.15   19.00
  -2   2   3  469.45   18.60
   1  -2  -3 2410.76   67.69
   1  -2  -3 2491.65   69.49
  -1   2   3 2467.85   67.29
  -1   2   3 2503.95   69.39
   0  -2  -3  428.56   18.20
   0  -2  -3  439.06   21.10
   0  -2  -3  424.26   25.00
   0   2   3  448.06   18.40
   0   2   3  423.26   20.40
  -1  -2  -3  151.58   10.40
  -1  -2  -3  184.58   16.50
  -1  -2  -3  154.28   14.20
   1   2   3  174.78   14.50
   1   2   3  156.88   16.40
   1   2   3  177.28   10.90
  -2  -2  -3  214.18   22.50
  -2  -2  -3  165.28   16.30
  -2  -2  -3  191.18   11.90
   2   2   3  172.68   22.20
   2   2   3  133.49   15.10
  -3  -2  -3   42.80   12.60
  -3  -2  -3   32.90   11.00
  -3  -2  -3   29.90    7.00
   3   2   3   27.40    8.80
   3   2   3   29.20    9.30
  -4  -2  -3    0.50    7.40
  -4  -2  -3    5.30    3.80
   4   2   3   -5.30    6.30
  -5  -2  -3  109.69   10.60
  -5  -2  -3   69.49   23.00
   5   2   3   94.49   21.80
  -6  -2  -3  148.19   12.60
  -6  -2  -3  107.99   25.00
   6   2   3  144.49   27.20
   9  -3  -3   10.60    8.20
  -9   3   3   15.40    5.30
   8  -3  -3   -6.20    6.70
  -8   3   3    0.80    3.90
   7  -3  -3   32.90   10.30
   7  -3  -3   51.19    7.60
  -7   3   3   48.70    6.30
   6  -3  -3  162.88   11.10
   6  -3  -3  154.18   14.10
   6  -3  -3  182.08   16.90
  -6   3   3  156.48    9.70
   5  -3  -3  158.88   14.10
   5  -3  -3  144.69    9.80
   5  -3  -3  135.69   11.40
  -5   3   3  148.49    9.30
   4  -3  -3    0.70    2.30
   4  -3  -3    5.10    2.50
   4  -3  -3   -2.00    2.90
  -4   3   3    5.40    2.50
   3  -3  -3   90.59    7.60
  -3   3   3  105.89    7.90
   2  -3  -3  581.54   22.60
   2  -3  -3  573.44   17.00
  -2   3   3  600.14   22.80
   1  -3  -3  244.58   18.80
   1  -3  -3  251.17   13.70
   1  -3  -3  264.17   14.00
  -1   3   3  277.87   13.20
  -1   3   3  286.27   14.20
   0  -3  -3  238.38   19.40
   0  -3  -3  250.77   13.90
   0  -3  -3  246.78   16.50
   0   3   3  236.58   13.80
   0   3   3  250.17   15.80
  -1  -3  -3  124.59   17.10
  -1  -3  -3   93.09    8.80
  -1  -3  -3  135.69   13.80
   1   3   3  136.99   23.10
   1   3   3  107.69   11.80
  -2  -3  -3   12.60    7.90
  -2  -3  -3    5.90    4.30
  -2  -3  -3   11.30    4.30
   2   3   3    1.30    6.60
   2   3   3    2.50    6.00
  -3  -3  -3  652.23   29.10
  -3  -3  -3  737.03   44.00
   3   3   3  688.73   42.90
  -4  -3  -3 1565.84   73.69
  -4  -3  -3 1441.26   51.29
   4   3   3 1319.27   68.39
  -5  -3  -3   98.49   13.30
  -5  -3  -3  103.49   23.70
   5   3   3   89.49   19.50
  -6  -3  -3   69.79   21.20
  -6  -3  -3   93.29   12.80
   6   3   3   78.59   21.50
   9  -4  -3    9.80   10.10
   8  -4  -3  123.39   19.20
   8  -4  -3  119.99   20.10
  -8   4   3  122.69    9.10
   7  -4  -3   41.70    9.20
   7  -4  -3   62.29    8.00
   7  -4  -3   45.20   12.00
  -7   4   3   59.29    6.90
   6  -4  -3   78.09   11.30
   6  -4  -3   83.59    7.80
   6  -4  -3  106.49   15.30
  -6   4   3   81.49    7.20
   5  -4  -3  161.98   10.30
   5  -4  -3  130.29   10.60
   5  -4  -3  165.88   14.30
  -5   4   3  144.19    9.60
   4  -4  -3  281.07   14.60
   4  -4  -3  266.77   12.40
   4  -4  -3  285.37   17.70
  -4   4   3  280.37   14.10
   3  -4  -3  571.74   23.20
  -3   4   3  596.54   23.50
   2  -4  -3   18.20    3.80
   2  -4  -3   24.70    5.40
  -2   4   3   17.20    4.70
  -2   4   3   36.30    4.70
   1  -4  -3  159.48   12.00
   1  -4  -3  179.88   17.00
   1  -4  -3  161.28   11.40
  -1   4   3  165.68   11.30
  -1   4   3  152.98   11.10
   0  -4  -3  514.15   30.80
   0  -4  -3  510.75   27.30
   0  -4  -3  547.45   24.00
   0   4   3  516.25   25.70
  -1  -4  -3  182.68   13.20
  -1  -4  -3  136.29   15.60
   1   4   3  138.99   14.90
   1   4   3  143.39   20.90
  -2  -4  -3  126.69   11.80
  -2  -4  -3  108.29   17.80
  -2  -4  -3  143.69   21.70
   2   4   3  119.99   20.50
   2   4   3  108.29   17.20
  -3  -4  -3 1217.08   61.69
  -3  -4  -3 1140.79   44.20
   3   4   3 1070.19   58.99
  -4  -4  -3   13.70   10.90
  -4  -4  -3   31.50    8.30
  -5  -4  -3   13.90   12.40
  -5  -4  -3    9.80    7.20
   5   4   3   32.00   12.50
   9  -5  -3   -2.10    7.80
   8  -5  -3   59.19    7.60
   8  -5  -3   43.90   10.90
   8  -5  -3   51.59   12.50
  -8   5   3   49.30    6.30
   7  -5  -3   10.00    4.40
   7  -5  -3    9.20    6.20
   7  -5  -3   16.80    7.40
  -7   5   3   20.10    4.60
   6  -5  -3   37.60    8.50
   6  -5  -3   47.20   10.20
   6  -5  -3   37.80    6.20
  -6   5   3   57.69    7.00
   5  -5  -3  135.09   10.40
   5  -5  -3  172.18   11.10
   5  -5  -3  146.69   13.60
  -5   5   3  142.99   10.30
   4  -5  -3    0.10    1.90
   4  -5  -3    2.60    2.00
   4  -5  -3   -2.10    2.30
   4  -5  -3    3.90    2.50
  -4   5   3    3.70    3.60
   3  -5  -3    0.40    2.10
   3  -5  -3   -0.20    2.80
  -3   5   3    3.40    3.10
   2  -5  -3  979.10   35.40
   2  -5  -3 1018.70   36.90
  -2   5   3 1035.30   34.40
   1  -5  -3  114.19   10.40
   1  -5  -3  113.29   11.10
   1  -5  -3   94.29   16.10
  -1   5   3   99.89    9.80
   0  -5  -3  147.19   15.40
   0  -5  -3  176.18   18.10
   0  -5  -3  153.58   12.50
   0   5   3  149.39   14.50
  -1  -5  -3  936.11   47.20
  -1  -5  -3  955.00   38.20
  -1  -5  -3  957.80   47.20
   1   5   3  874.01   42.80
   1   5   3  948.31   50.19
  -2  -5  -3  527.45   36.80
  -2  -5  -3  500.55   26.40
   2   5   3  500.25   37.40
  -3  -5  -3  116.39   15.00
  -3  -5  -3   95.89   21.00
   3   5   3  104.19   21.50
  -4  -5  -3  484.05   41.50
   4   5   3  441.76   39.20
  -5  -5  -3   14.50    8.20
  -5  -5  -3   12.40   12.50
   5   5   3   27.60   12.50
   9  -6  -3    2.30    8.10
   8  -6  -3   19.10    9.50
   8  -6  -3   -9.20   13.30
   8  -6  -3   12.40    3.90
   7  -6  -3   15.10    4.20
   7  -6  -3    3.60    6.50
   7  -6  -3   11.30    7.00
   6  -6  -3  246.48   19.70
   6  -6  -3  221.68   15.70
   6  -6  -3  245.58   14.30
  -6   6   3  221.78   13.70
   5  -6  -3   64.89   11.80
   5  -6  -3   94.99    8.90
   5  -6  -3   82.59    7.50
   5  -6  -3   78.09    9.60
  -5   6   3   87.99   10.40
   4  -6  -3  606.04   25.80
   4  -6  -3  574.64   22.40
   3  -6  -3  102.69    9.70
   3  -6  -3   85.59    8.50
   2  -6  -3 1244.98   44.10
   2  -6  -3 1190.68   43.10
   2  -6  -3 1019.90   50.09
  -2   6   3 1199.08   41.80
   1  -6  -3  331.77   19.80
   1  -6  -3  343.97   22.50
  -1   6   3  328.47   20.20
   0  -6  -3  252.07   23.00
   0  -6  -3  261.47   17.90
   0  -6  -3  309.27   23.30
   0   6   3  209.18   18.70
  -1  -6  -3  836.42   37.20
  -1  -6  -3  849.52   46.90
  -2  -6  -3   66.49   18.80
  -2  -6  -3   37.80    9.10
   2   6   3   31.00   12.40
  -3  -6  -3  280.67   29.70
  -3  -6  -3  277.47   21.30
   3   6   3  250.87   34.30
  -4  -6  -3   58.09   19.00
  -4  -6  -3   23.80    7.80
   4   6   3   69.39   19.50
   9  -7  -3   -2.10    3.10
   9  -7  -3    0.50    8.30
   8  -7  -3   -1.50    3.60
   8  -7  -3    0.20    6.90
   8  -7  -3   -5.70    5.60
   7  -7  -3  327.17   21.40
   7  -7  -3  312.37   24.70
   7  -7  -3  374.56   20.80
   6  -7  -3  109.39   15.70
   6  -7  -3   88.59   10.80
   6  -7  -3   95.09   12.40
   6  -7  -3   79.69    8.80
   5  -7  -3    4.20    3.00
   5  -7  -3    2.60    3.00
   5  -7  -3    3.40    5.60
   4  -7  -3  391.86   20.60
   4  -7  -3  336.27   17.90
   3  -7  -3  101.09   10.30
   3  -7  -3   85.59   11.70
   2  -7  -3  203.68   15.80
   2  -7  -3  238.38   17.70
   2  -7  -3  189.98   20.40
  -2   7   3  217.28   16.10
   1  -7  -3  876.01   38.00
   1  -7  -3  843.62   45.90
   1  -7  -3  899.71   43.00
  -1   7   3  911.11   40.30
   0  -7  -3   94.89   13.50
   0  -7  -3   95.19   17.40
   0   7   3   83.99   14.60
  -1  -7  -3    3.00    8.00
  -1  -7  -3    1.70    4.60
  -2  -7  -3  117.79   17.00
   2   7   3  119.39   24.50
  -3  -7  -3    2.90   11.00
  -3  -7  -3    6.40    5.70
   3   7   3   12.50    8.80
   8  -8  -3   72.19    9.80
   8  -8  -3   63.39   14.00
   8  -8  -3   66.99   11.50
   8  -8  -3   50.79   13.30
   7  -8  -3   20.60    6.50
   7  -8  -3   18.10    5.60
   7  -8  -3   21.30    7.60
   7  -8  -3    8.80    8.50
   6  -8  -3  144.89   13.90
   6  -8  -3  148.49   12.30
   6  -8  -3  131.59   17.40
   6  -8  -3  158.88   12.60
   5  -8  -3   53.69   11.30
   5  -8  -3   28.20    6.80
   5  -8  -3   37.30    7.40
   4  -8  -3  235.38   16.10
   4  -8  -3  243.68   16.90
   3  -8  -3   -6.70    3.10
   3  -8  -3    2.70    4.40
   2  -8  -3  210.28   16.90
   2  -8  -3  253.47   20.20
  -2   8   3  196.48   17.40
   1  -8  -3    9.70    5.60
   1  -8  -3   20.80    8.10
  -1   8   3   23.20    9.60
   0  -8  -3   28.00   11.40
   0  -8  -3   25.50    7.30
  -1  -8  -3  167.28   20.30
  -1  -8  -3  159.18   25.00
  -2  -8  -3   33.10   10.50
   8  -9  -3    6.90    4.60
   8  -9  -3   14.30    7.10
   8  -9  -3   29.40   10.50
   8  -9  -3   18.60   10.90
   7  -9  -3   92.49   16.00
   7  -9  -3  109.09   14.20
   7  -9  -3   87.89   11.70
   7  -9  -3  107.19   11.70
   6  -9  -3   73.69   12.80
   6  -9  -3   98.29   12.90
   6  -9  -3   85.09   11.80
   6  -9  -3  110.09   10.90
   5  -9  -3   10.00    5.80
   5  -9  -3   13.50    6.00
   5  -9  -3   10.60    5.60
   4  -9  -3   70.59   11.40
   4  -9  -3   73.99   11.60
   3  -9  -3   98.09   13.40
   3  -9  -3  119.99   16.90
   2  -9  -3   35.40    9.50
   2  -9  -3   45.20   11.20
  -2   9   3   47.20   11.70
   1  -9  -3  109.89   19.10
   1  -9  -3  110.49   16.00
   0  -9  -3   13.40    5.40
   0  -9  -3    9.80   10.60
  -1  -9  -3   39.40   10.20
  -1  -9  -3   32.30   14.90
   7 -10  -3   88.19   18.10
   7 -10  -3   67.99   11.30
   7 -10  -3  115.19   15.20
   7 -10  -3  109.79   16.60
   6 -10  -3   27.00    8.10
   6 -10  -3   39.50    8.50
   5 -10  -3   81.39   14.00
   5 -10  -3   53.89   10.40
   4 -10  -3  168.88   15.90
   4 -10  -3  186.28   17.50
   3 -10  -3  -10.90    6.60
   3 -10  -3    2.40    4.60
   2 -10  -3  185.48   26.00
   2 -10  -3  168.38   20.10
   1 -10  -3   19.10   11.00
   1 -10  -3   30.00    9.60
   0 -10  -3    7.60   12.20
   0 -10  -3    2.50    7.80
   6 -11  -3   10.00    5.70
   6 -11  -3    5.90    6.90
   6 -11  -3   17.90    9.80
   5 -11  -3   22.70   10.10
   5 -11  -3   19.10    9.00
   5 -11  -3    1.90    6.80
   4 -11  -3   40.80   10.20
   4 -11  -3   45.20   11.50
   3 -11  -3   -2.90    4.50
   3 -11  -3  -10.00    7.10
   2 -11  -3   21.90   11.10
   2 -11  -3   18.60    9.50
   0 -11   4   29.10   14.10
   1 -11   4   23.30   14.20
   2 -11   4    4.50    8.20
   3 -11   4   46.90   14.30
   4 -11   4    2.10    9.70
   5 -11   4   32.00   12.10
   5 -11   4   34.30    7.50
   5 -11   4   35.80    7.10
  -2 -10   4   72.49   21.00
  -1 -10   4   10.00   10.80
   0 -10   4   21.50   10.00
   1 -10   4  132.69   22.60
   2 -10   4  450.15   34.20
   3 -10   4  188.78   26.30
   4 -10   4   90.89    7.50
   4 -10   4  118.79   20.50
   5 -10   4   88.39   19.00
   5 -10   4  104.39   11.90
   5 -10   4   71.59   10.80
   6 -10   4   31.30   10.40
   6 -10   4    3.90    4.30
   6 -10   4   19.00    7.10
   6 -10   4   19.20    5.10
  -3  -9   4    3.50   12.30
  -3  -9   4    3.10    5.90
  -2  -9   4   80.39   20.30
  -1  -9   4   64.39   17.60
   0  -9   4  113.39   25.10
   1  -9   4  111.79   19.80
   2  -9   4   23.70   10.10
   3  -9   4   38.80   12.40
   4  -9   4   72.29    9.70
   4  -9   4   73.09   16.40
   4  -9   4   76.69   10.50
   5  -9   4  156.78   23.40
   5  -9   4  127.19   11.00
   6  -9   4   27.20    9.20
   6  -9   4   13.00    3.20
   7  -9   4   23.00   10.50
   4   8  -4    2.70    8.10
  -4  -8   4    4.90    7.20
  -4  -8   4  -10.70    7.90
   3   8  -4  544.85   29.40
  -3  -8   4  549.54   24.20
  -3  -8   4  585.84   44.40
  -2  -8   4   17.00    4.10
  -2  -8   4   21.40   10.30
  -1  -8   4  743.23   45.80
   0  -8   4 1128.19   55.99
   1  -8   4   -2.90    5.90
   2  -8   4  347.27   21.30
   2  -8   4  418.56   29.60
   3  -8   4  174.38   19.10
   3  -8   4  194.88   10.80
   4  -8   4   60.29    8.60
   4  -8   4   77.09   11.00
   4  -8   4   57.49   13.50
  -5   8  -4    1.30    4.80
   5  -8   4    8.50    6.00
   5  -8   4    0.40    2.80
   6  -8   4   15.70    8.10
   7  -8   4    3.30    8.60
   5   7  -4   32.90   11.50
  -5  -7   4   58.89   16.30
   4   7  -4   82.89   13.20
  -4  -7   4  125.19   24.80
  -4  -7   4   75.69   11.40
   3   7  -4   26.40    7.90
  -3  -7   4   34.80    6.40
  -3  -7   4   39.60   14.00
   2   7  -4   99.19   10.10
  -2  -7   4  123.09   22.20
  -2  -7   4   92.19    7.20
  -1  -7   4  190.38   21.10
   0  -7   4   26.80    9.20
   1  -7   4   11.40    6.20
   1  -7   4   16.20    6.60
   2  -7   4   53.19   11.50
   2  -7   4   62.69    9.80
   3  -7   4   -1.70    3.20
   3  -7   4    3.40    4.90
   3  -7   4   -0.30    3.60
  -4   7  -4    9.60    4.60
   4  -7   4    8.20    6.10
   4  -7   4    8.00    3.40
   5  -7   4   44.70    9.80
   5  -7   4   50.39    4.70
   6  -7   4  104.39   16.80
   7  -7   4   -0.60    9.40
   6   6  -4    1.00   11.80
  -6  -6   4   14.00   13.60
   5   6  -4  106.29   18.30
  -5  -6   4  149.39   29.00
   4   6  -4   -0.20    5.00
  -4  -6   4    3.50    6.80
   3   6  -4  376.26   22.20
  -3  -6   4  349.67   17.80
  -3  -6   4  385.86   31.30
   2   6  -4 1092.19   38.80
  -2  -6   4 1119.19   54.79
  -2  -6   4 1147.89   35.10
   1   6  -4    5.60    5.70
  -1  -6   4    7.10    5.10
  -1  -6   4   23.70    7.80
   0  -6   4 1392.56   56.69
   0  -6   4 1273.97   48.40
   1  -6   4   10.10    4.80
   1  -6   4   15.10    6.90
   2  -6   4   69.89   13.60
   2  -6   4   53.19    6.50
   2  -6   4   57.19    8.50
  -3   6  -4   40.70    6.50
   3  -6   4   29.00    5.80
   3  -6   4   40.80    7.70
  -4   6  -4   -2.40    3.90
   4  -6   4    4.00    2.80
   4  -6   4    0.80    4.30
  -5   6  -4  215.48   16.80
   5  -6   4  190.08    6.80
   5  -6   4  192.98   18.30
   6  -6   4  160.78   21.60
   7  -6   4   15.20    8.20
   6   5  -4   53.99   14.20
  -6  -5   4   48.60   14.40
   5   5  -4   70.79   15.10
  -5  -5   4   64.99   19.30
   4   5  -4   47.90   11.40
  -4  -5   4   29.50   11.20
  -4  -5   4   43.80    7.70
   3   5  -4   34.70    8.00
  -3  -5   4   51.19   14.00
  -3  -5   4   31.30    6.30
   2   5  -4    8.40    5.80
   2   5  -4   23.90    5.10
  -2  -5   4    4.30    5.10
  -2  -5   4   17.20    6.80
   1   5  -4  632.94   32.80
  -1  -5   4  620.24   33.90
  -1  -5   4  607.64   31.90
   0  -5   4   42.80    9.90
   0  -5   4   54.69    9.10
   1  -5   4   46.90    7.50
   1  -5   4   53.99   11.00
  -2   5  -4  770.92   24.90
   2  -5   4  735.83   27.60
   2  -5   4  696.43   27.80
  -3   5  -4  602.14   24.20
   3  -5   4  542.15   20.80
   3  -5   4  525.45   26.10
  -4   5  -4   50.19    9.00
   4  -5   4   46.60   12.10
   4  -5   4   44.40    4.30
  -5   5  -4  179.08   16.50
   5  -5   4  146.99   20.40
   6  -5   4  111.59   18.60
   7  -5   4   27.70   10.30
   7   4  -4  -15.30    7.90
  -7  -4   4    6.20   10.20
   6   4  -4   41.20   13.60
  -6  -4   4   52.39   17.20
   5   4  -4  167.58   17.80
  -5  -4   4  178.38   27.10
   4   4  -4   22.40    7.60
  -4  -4   4   36.90    7.30
  -4  -4   4   27.30   11.50
   3   4  -4  150.18   15.90
   3   4  -4  150.58   12.30
  -3  -4   4  161.78   13.80
  -3  -4   4  178.78   18.70
  -3  -4   4  159.28   11.10
   2   4  -4   28.30    5.20
   2   4  -4   29.70    8.40
  -2  -4   4   36.30   10.10
  -2  -4   4   39.70    9.60
   1   4  -4   94.99    5.60
   1   4  -4   74.39   12.30
  -1  -4   4   99.59   11.70
   0   4  -4    4.40    1.10
   0   4  -4    5.80    1.60
   0  -4   4   -0.20    2.60
   0  -4   4    8.40    4.70
  -1   4  -4    3.30    2.70
  -1   4  -4    0.00    1.80
   1  -4   4    4.80    2.90
   1  -4   4   -1.40    3.40
  -2   4  -4  121.19    9.10
  -2   4  -4  108.69    9.80
   2  -4   4  106.79   10.30
   2  -4   4   98.39    7.50
  -3   4  -4  308.87   17.10
   3  -4   4  239.48   11.30
   3  -4   4  246.18   17.70
  -4   4  -4  246.88   17.70
   4  -4   4  237.38   20.10
   4  -4   4  258.97   10.00
   5  -4   4  404.46   29.30
   6  -4   4  670.33   41.40
   7  -4   4    9.60    9.40
   7   3  -4   17.00   12.40
  -7  -3   4   12.90   14.10
   6   3  -4    8.90    7.90
  -6  -3   4    0.20    8.80
   5   3  -4   14.20    7.40
  -5  -3   4   -8.10    4.80
  -5  -3   4  -10.60    5.00
   4   3  -4   67.99   11.00
   4   3  -4   77.49   14.10
  -4  -3   4   67.59   15.00
  -4  -3   4   68.39   11.20
  -4  -3   4   73.79   10.50
   3   3  -4  410.66   25.30
   3   3  -4  438.86   21.10
  -3  -3   4  447.16   23.30
  -3  -3   4  436.76   27.70
  -3  -3   4  456.55   20.00
   2   3  -4 1340.97   42.40
   2   3  -4 1362.36   50.49
  -2  -3   4 1421.46   53.09
  -2  -3   4 1401.46   47.60
   1   3  -4 2021.60   63.59
   1   3  -4 2076.79   55.49
   1   3  -4 1977.50   65.59
  -1  -3   4 2012.00   62.29
  -1  -3   4 2042.60   67.49
   0   3  -4 3465.15   93.89
   0   3  -4 3370.56   97.39
   0  -3   4 3557.94  103.39
   0  -3   4 3470.15   96.29
  -1   3  -4  496.65   20.50
  -1   3  -4  489.75   20.30
   1  -3   4  456.95   19.00
   1  -3   4  457.95   21.90
  -2   3  -4    9.90    3.30
  -2   3  -4   17.60    4.90
   2  -3   4   12.50    4.90
  -3   3  -4   20.30    6.40
  -3   3  -4   21.10    4.00
   3  -3   4   28.80    8.80
   3  -3   4   24.20    3.60
  -4   3  -4   93.09   14.10
  -4   3  -4   77.99    5.50
   4  -3   4   62.39    4.80
   4  -3   4   91.69   15.10
   5  -3   4  408.86   30.10
   6  -3   4   30.00    9.90
   7  -3   4   -0.90    8.20
   8   2  -4   24.00   12.10
  -8  -2   4   25.70   14.60
   7   2  -4   76.49   16.90
  -7  -2   4   67.79   18.30
   6   2  -4    6.00    6.50
  -6  -2   4   19.20    8.70
   5   2  -4  558.44   33.60
   5   2  -4  676.13   33.60
  -5  -2   4  658.33   30.00
  -5  -2   4  614.94   30.00
  -5  -2   4  706.73   40.10
   4   2  -4   35.30    8.10
  -4  -2   4   31.90    6.80
  -4  -2   4   34.00    9.70
  -4  -2   4   33.90    7.00
   3   2  -4  274.87   18.30
   3   2  -4  285.27   15.90
  -3  -2   4  257.87   19.00
  -3  -2   4  276.17   16.20
   2   2  -4  169.28   10.40
   2   2  -4  181.08   12.90
   2   2  -4  161.08   12.60
  -2  -2   4  163.08   13.70
  -2  -2   4  177.78   12.00
   1   2  -4  330.77   17.00
  -1  -2   4  347.97   16.50
  -1  -2   4  338.37   18.90
   0   2  -4  101.79    9.40
   0   2  -4   88.49    8.00
   0  -2   4   96.19    7.80
  -1   2  -4  137.09    8.90
   1  -2   4  131.69   12.40
   1  -2   4  138.59    8.80
  -2   2  -4  282.77   18.00
  -2   2  -4  287.67   13.20
   2  -2   4  271.47   19.60
  -3   2  -4    4.40    4.70
  -3   2  -4    1.00    2.10
   3  -2   4    5.90    5.60
   3  -2   4    0.90    1.80
  -4   2  -4   81.29   13.90
  -4   2  -4   73.69    5.80
   4  -2   4   75.79   14.40
  -5   2  -4   31.40    4.20
   5  -2   4   35.40   13.40
  -6   2  -4   26.50    3.10
   6  -2   4   25.60   12.40
   7  -2   4   59.69   18.40
   8   1  -4   27.90   11.70
  -8  -1   4   17.70   13.00
   7   1  -4    2.90    7.00
  -7  -1   4    7.40    9.10
   6   1  -4  691.93   36.80
  -6  -1   4  626.14   29.00
  -6  -1   4  663.43   41.10
   5   1  -4    4.30    4.60
   5   1  -4   -2.50    4.60
  -5  -1   4    7.00    3.80
  -5  -1   4    6.20    6.10
  -5  -1   4   -0.60    3.90
   4   1  -4  768.22   34.30
  -4  -1   4  764.52   36.40
  -4  -1   4  769.02   30.50
   3   1  -4 1365.36   47.40
   3   1  -4 1413.16   47.10
   3   1  -4 1366.76   45.40
  -3  -1   4 1383.76   49.40
  -3  -1   4 1307.97   44.60
   2   1  -4 4020.50  109.29
   2   1  -4 4018.30  106.59
  -2  -1   4 3805.42  107.29
  -2  -1   4 3856.21  109.99
   1   1  -4  145.99    9.90
  -1  -1   4  148.79    9.60
  -1  -1   4  134.39   10.50
   0   1  -4  115.19    8.50
   0   1  -4  119.49   11.40
   0  -1   4  109.09    7.80
  -1   1  -4 1103.79   35.30
   1  -1   4 1082.79   43.90
   1  -1   4 1127.39   34.90
  -2   1  -4    4.70    5.20
  -2   1  -4    6.60    2.40
   2  -1   4    8.40    3.00
   2  -1   4    5.40    5.10
   2  -1   4    3.40    4.80
  -3   1  -4  698.43   34.90
  -3   1  -4  717.03   24.70
   3  -1   4  683.93   37.50
   3  -1   4  664.13   38.20
   3  -1   4  696.33   24.50
  -4   1  -4  112.39    7.90
   4  -1   4   80.59   16.80
  -5   1  -4   15.30    3.80
   5  -1   4   12.60    7.50
  -6   1  -4  246.68   12.10
   6  -1   4  277.57   28.60
  -7   1  -4  196.78    9.80
   7  -1   4  161.28   29.60
   8   0  -4   29.40   12.30
  -8   0   4   30.90   15.40
   7   0  -4   13.70    8.90
  -7   0   4   -6.90    4.70
  -7   0   4    7.30    7.00
   6   0  -4  264.07   20.90
   6   0  -4  273.77   21.90
  -6   0   4  261.97   19.30
  -6   0   4  305.27   25.30
   5   0  -4  296.07   18.40
   5   0  -4  280.57   19.70
   5   0  -4  350.26   22.00
  -5   0   4  289.97   16.50
  -5   0   4  297.17   19.20
  -5   0   4  329.47   22.80
   4   0  -4  135.19   11.20
   4   0  -4  137.89   12.00
  -4   0   4  139.89   13.20
  -4   0   4  129.29   10.10
   3   0  -4   58.09    8.90
   3   0  -4   71.29    9.20
   3   0  -4   77.89    9.30
  -3   0   4   64.19    8.20
  -3   0   4   66.49    9.10
   2   0  -4  139.99   10.10
  -2   0   4  137.29    9.50
  -2   0   4  137.29    9.50
   1   0  -4  823.42   29.50
  -1   0   4  874.31   29.70
   0   0  -4 1712.73   51.79
   0   0  -4 1782.12   60.99
   0   0   4 1730.33   51.29
  -1   0  -4 5299.97  148.89
  -1   0  -4 5108.29  136.09
   1   0   4 5021.80  146.99
   1   0   4 5204.58  135.79
   1   0   4 5096.19  150.08
  -2   0  -4  250.17   13.20
  -2   0  -4  267.07   20.20
   2   0   4  280.77   13.60
   2   0   4  281.67   21.80
  -3   0  -4  381.26   17.10
  -3   0  -4  388.36   26.10
   3   0   4  371.46   27.70
   3   0   4  360.16   27.10
  -4   0  -4  364.36   16.80
   4   0   4  309.57   28.00
  -5   0  -4   32.90    5.90
   5   0   4   13.80    9.60
  -6   0  -4  118.99   10.70
   6   0   4  144.49   25.80
  -7   0  -4   -1.80    8.00
   7   0   4   20.40   13.60
   9  -1  -4    4.50    9.80
  -9   1   4   -1.10   11.60
   8  -1  -4   81.59   17.10
  -8   1   4   91.99   11.80
  -8   1   4  115.79   22.90
   7  -1  -4  291.87   23.90
   7  -1  -4  329.37   26.10
  -7   1   4  294.07   25.90
   6  -1  -4   22.60    7.90
   6  -1  -4   26.10    7.70
   6  -1  -4   26.30    7.10
  -6   1   4   31.30    5.90
  -6   1   4   41.70   10.50
   5  -1  -4  663.43   28.30
   5  -1  -4  681.73   32.40
   5  -1  -4  654.93   29.90
  -5   1   4  705.83   27.20
  -5   1   4  645.44   32.20
   4  -1  -4  570.24   26.60
   4  -1  -4  537.45   23.60
   4  -1  -4  532.35   23.00
  -4   1   4  564.84   25.00
  -4   1   4  534.35   22.60
   3  -1  -4    5.80    2.60
   3  -1  -4    5.30    3.10
   3  -1  -4    6.00    4.30
  -3   1   4    6.80    3.10
  -3   1   4    3.00    2.20
   2  -1  -4    0.00    2.20
  -2   1   4   -0.50    1.80
  -2   1   4    1.40    1.80
   1  -1  -4    4.50    3.00
  -1   1   4   13.30    3.90
  -1   1   4   11.70    3.70
   0  -1  -4 1794.82   65.69
   0  -1  -4 1827.52   55.19
   0   1   4 1869.91   55.09
   0   1   4 1913.31   65.69
  -1  -1  -4 1275.57   40.30
  -1  -1  -4 1261.47   51.39
   1   1   4 1249.77   40.10
   1   1   4 1216.08   52.49
   1   1   4 1175.88   47.90
  -2  -1  -4  155.38   16.30
  -2  -1  -4  115.49    9.30
  -2  -1  -4  132.29   14.40
   2   1   4  118.29   18.80
   2   1   4  132.09    9.60
   2   1   4  114.49   16.60
  -3  -1  -4  102.89    9.20
  -3  -1  -4  102.49   17.10
  -3  -1  -4  134.19   21.10
   3   1   4  119.49   21.10
   3   1   4  140.69   21.10
  -4  -1  -4  897.71   52.49
  -4  -1  -4  959.40   34.40
   4   1   4  829.52   49.90
  -5  -1  -4  207.28   13.40
  -5  -1  -4  249.08   34.90
   5   1   4  176.98   27.10
  -6  -1  -4   -6.50    3.90
   6   1   4    3.10    8.70
   9  -2  -4   -9.40    7.50
  -9   2   4   -0.30    9.10
   8  -2  -4    4.40    9.20
  -8   2   4   12.30    5.40
  -8   2   4   14.90    8.80
   7  -2  -4   25.00    8.30
   7  -2  -4    9.40    8.20
   7  -2  -4   10.80    4.60
  -7   2   4   23.20    5.90
  -7   2   4    9.30    6.00
   6  -2  -4    0.90    3.10
   6  -2  -4    5.80    4.40
   6  -2  -4   -2.90    4.00
  -6   2   4    2.90    3.70
  -6   2   4   -4.30    3.90
   5  -2  -4   64.29   10.90
   5  -2  -4   52.19    8.20
   5  -2  -4   50.79    8.40
  -5   2   4   46.50    8.50
  -5   2   4   44.30    6.90
   4  -2  -4  169.68   11.50
   4  -2  -4  150.98    9.30
   4  -2  -4  163.78   13.30
  -4   2   4  172.58   10.60
  -4   2   4  158.28   10.70
   3  -2  -4  123.69    9.80
  -3   2   4  145.99    5.40
  -3   2   4  140.49    9.90
   2  -2  -4  102.49    8.50
  -2   2   4   98.59    4.60
  -2   2   4   99.89    4.40
  -2   2   4   94.69    8.10
   1  -2  -4 2255.27   79.69
   1  -2  -4 2371.56   69.49
  -1   2   4 2450.25   68.79
  -1   2   4 2460.75   69.59
   0  -2  -4 1297.37   47.10
   0  -2  -4 1305.67   42.40
   0  -2  -4 1279.07   53.19
   0   2   4 1272.17   42.20
   0   2   4 1307.97   46.40
  -1  -2  -4  391.16   24.50
  -1  -2  -4  330.67   24.80
  -1  -2  -4  400.16   18.80
   1   2   4  351.36   22.90
   1   2   4  376.56   18.20
   1   2   4  382.86   27.70
  -2  -2  -4 1017.60   48.90
  -2  -2  -4 1100.09   50.89
  -2  -2  -4 1123.89   38.70
   2   2   4 1041.30   52.29
   2   2   4 1072.79   49.50
  -3  -2  -4   93.09   11.00
  -3  -2  -4   97.19   18.40
   3   2   4  113.49   20.30
  -4  -2  -4  169.08   26.40
  -4  -2  -4  211.58   14.60
   4   2   4  208.98   29.40
  -5  -2  -4   42.40   16.30
  -5  -2  -4   40.10    8.70
   5   2   4   37.30   15.70
  -6  -2  -4   22.70   13.60
  -6  -2  -4   23.50    6.80
   6   2   4   15.00   11.20
   9  -3  -4   88.29   17.20
  -9   3   4   48.70    9.20
   8  -3  -4   -3.40    7.30
   8  -3  -4    5.90    7.30
  -8   3   4   -1.00    4.10
   7  -3  -4  142.59   19.80
   7  -3  -4  140.79   15.20
  -7   3   4  133.19   10.60
   6  -3  -4  262.57   20.40
   6  -3  -4  236.78   14.80
   6  -3  -4  228.18   15.60
  -6   3   4  212.98   13.40
   5  -3  -4   -0.70    2.90
   5  -3  -4   -0.70    2.10
   5  -3  -4    0.80    2.40
  -5   3   4    0.60    2.50
   4  -3  -4  744.33   21.90
   4  -3  -4  794.62   29.80
   4  -3  -4  835.72   34.20
  -4   3   4  773.42   29.10
   3  -3  -4  338.27   16.90
  -3   3   4  324.07   16.40
   2  -3  -4  408.46   19.10
  -2   3   4  398.26   12.80
  -2   3   4  405.36   18.90
   1  -3  -4 1984.90   76.19
   1  -3  -4 2218.18   65.69
   1  -3  -4 2202.68   65.79
  -1   3   4 2250.37   64.59
  -1   3   4 2190.68   65.59
   0  -3  -4  371.36   18.80
   0  -3  -4  375.66   26.50
   0  -3  -4  397.66   22.60
   0   3   4  384.46   21.20
   0   3   4  342.77   18.20
  -1  -3  -4  757.62   40.80
  -1  -3  -4  736.33   30.40
  -1  -3  -4  843.92   40.70
   1   3   4  779.02   37.20
   1   3   4  703.93   41.60
  -2  -3  -4 2220.48   84.29
  -2  -3  -4 2256.97   68.79
   2   3   4 2023.90   85.29
   2   3   4 2144.59   80.29
  -3  -3  -4   -0.20    3.60
  -3  -3  -4   -5.20    6.50
   3   3   4   -8.70    7.00
  -4  -3  -4    4.20    4.70
   4   3   4   -1.60    5.60
  -5  -3  -4   61.99   18.30
  -5  -3  -4   42.80    9.10
   5   3   4   52.59   18.30
   9  -4  -4   22.30   11.00
  -9   4   4   14.50    6.00
   8  -4  -4    0.10    7.30
   8  -4  -4    8.10    7.80
  -8   4   4    1.70    4.10
   7  -4  -4   28.80    8.20
   7  -4  -4   21.30    8.50
  -7   4   4   30.60    6.20
   6  -4  -4   34.50    7.70
   6  -4  -4   27.00    6.90
   6  -4  -4   59.39   12.50
  -6   4   4   35.90    6.20
   5  -4  -4  386.96   23.20
   5  -4  -4  376.76   19.00
   5  -4  -4  357.26   14.50
  -5   4   4  365.86   18.00
   4  -4  -4   68.49    8.50
  -4   4   4   48.80    7.50
  -3   4   4 1301.47   44.00
   2  -4  -4   17.80    4.00
   2  -4  -4   18.90    5.10
  -2   4   4   24.30    6.20
  -2   4   4   26.40    4.10
   1  -4  -4  655.33   27.20
   1  -4  -4  596.14   27.30
   1  -4  -4  635.14   35.70
  -1   4   4  610.24   26.80
   0  -4  -4    7.70    3.90
   0  -4  -4    4.40    4.50
   0  -4  -4    7.90    6.70
   0   4   4   12.30    4.50
  -1  -4  -4  102.09   12.30
  -1  -4  -4   83.39   16.10
  -1  -4  -4  101.59   18.00
   1   4   4  102.69   19.70
   1   4   4   87.49   14.70
  -2  -4  -4  700.73   42.50
  -2  -4  -4  688.13   31.00
   2   4   4  608.64   42.40
  -3  -4  -4   96.99   13.60
  -3  -4  -4  102.19   20.50
   3   4   4   72.49   19.90
  -4  -4  -4   97.39   23.80
  -4  -4  -4  104.49   14.50
   4   4   4   55.39   18.50
  -5  -4  -4   11.30   11.70
  -5  -4  -4   -1.80    5.70
   5   4   4    7.30   11.70
   9  -5  -4   18.60   11.00
  -9   5   4   10.40    6.40
   8  -5  -4   13.90    7.70
   8  -5  -4   15.70    9.50
  -8   5   4    9.60    4.70
   7  -5  -4    2.80    3.80
   7  -5  -4    2.60    4.20
   7  -5  -4    1.40    6.30
  -7   5   4   -0.10    3.30
   6  -5  -4   90.99   14.60
   6  -5  -4   57.49    9.00
   6  -5  -4   73.39    7.20
  -6   5   4   71.49    9.50
   5  -5  -4   92.89    4.90
   5  -5  -4   92.19   10.80
   5  -5  -4   91.69   13.90
  -5   5   4   88.39   10.50
   4  -5  -4  557.34   24.80
  -4   5   4  522.05   23.90
   3  -5  -4 1120.59   41.30
  -3   5   4 1195.38   45.70
   2  -5  -4   17.60    5.90
   2  -5  -4   26.10    6.00
  -2   5   4   33.00    7.00
  -2   5   4   24.60    5.00
   1  -5  -4  996.50   40.60
   1  -5  -4  873.91   47.20
   1  -5  -4 1008.40   38.40
  -1   5   4  995.70   38.00
   0  -5  -4  800.72   33.90
   0  -5  -4  804.32   44.10
   0   5   4  762.52   36.40
  -1  -5  -4  119.99   14.10
  -1  -5  -4  130.19   19.40
   1   5   4  163.78   17.30
  -2  -5  -4  593.94   30.20
  -2  -5  -4  582.94   40.60
   2   5   4  580.24   42.80
  -3  -5  -4   26.10    7.60
   3   5   4   32.80   14.10
  -4  -5  -4  117.89   16.60
  -4  -5  -4  100.09   24.20
   4   5   4  116.79   24.90
   9  -6  -4   20.70    9.50
   9  -6  -4    0.10    4.20
   9  -6  -4    0.90    8.20
   8  -6  -4   41.50    7.50
   8  -6  -4   42.10   10.90
   8  -6  -4   38.30    9.30
  -8   6   4   62.79    8.60
   7  -6  -4  169.58   12.60
   7  -6  -4  168.08   24.00
   7  -6  -4  163.88   12.60
  -7   6   4  190.68   12.70
   6  -6  -4  137.49   11.40
   6  -6  -4  105.49    8.00
   6  -6  -4  122.39    7.90
   6  -6  -4  122.49   17.20
   5  -6  -4  152.48   15.10
   5  -6  -4  163.68   12.60
  -5   6   4  143.69   11.70
   4  -6  -4  123.49   11.30
  -4   6   4   96.69   11.80
   3  -6  -4  381.26   21.00
   3  -6  -4  397.56   17.60
  -3   6   4  359.86   20.70
   2  -6  -4   59.29    9.30
   2  -6  -4   59.89   14.40
   2  -6  -4   66.79   10.50
  -2   6   4   56.69    8.70
   1  -6  -4  312.17   30.70
   1  -6  -4  330.27   22.80
   1  -6  -4  311.97   19.80
  -1   6   4  334.37   20.80
   0  -6  -4  388.96   23.10
   0  -6  -4  410.96   29.10
   0   6   4  329.27   26.60
  -1  -6  -4  682.83   41.90
  -1  -6  -4  663.93   33.00
  -2  -6  -4   40.50   11.40
  -2  -6  -4   23.40   11.80
  -3  -6  -4   36.90    9.60
  -3  -6  -4   37.60   13.50
   3   6   4   27.20   14.20
   9  -7  -4   76.39   17.80
   8  -7  -4   61.69    8.60
   8  -7  -4   44.30    8.40
   8  -7  -4   53.79   13.20
   7  -7  -4   10.50    5.00
   7  -7  -4   15.00    4.40
   7  -7  -4   13.80    7.70
   6  -7  -4  107.99    7.80
   6  -7  -4  122.29   17.50
   6  -7  -4  123.69    7.90
   6  -7  -4  137.99   12.10
   5  -7  -4   87.39   11.70
   5  -7  -4   80.09    5.60
   5  -7  -4   72.29   13.20
   5  -7  -4   79.49    6.10
   4  -7  -4   15.90    4.20
   4  -7  -4   19.00    5.50
   3  -7  -4  469.45   22.60
   3  -7  -4  458.85   24.70
   2  -7  -4   24.70    7.80
   2  -7  -4   21.00    6.50
  -2   7   4   25.70    6.50
   1  -7  -4    2.40    4.00
   1  -7  -4    2.80    5.30
  -1   7   4    1.30    5.30
   0  -7  -4  185.48   20.70
   0  -7  -4  180.98   16.50
   0   7   4  173.88   24.80
  -1  -7  -4   31.00    8.50
  -1  -7  -4   11.80    7.90
  -2  -7  -4  113.79   17.10
  -2  -7  -4  118.09   23.90
  -3  -7  -4   21.50    9.20
  -3  -7  -4    4.50   11.20
   3   7   4   -6.50   11.00
   8  -8  -4  109.69   19.30
   8  -8  -4  101.09   12.20
   8  -8  -4   98.49   10.10
   8  -8  -4   81.09   10.40
   7  -8  -4   31.00   10.40
   7  -8  -4   18.80    6.30
   7  -8  -4   15.50    4.50
   7  -8  -4   18.00    4.60
   6  -8  -4   48.80    6.50
   6  -8  -4   51.19    9.10
   6  -8  -4   47.90    5.80
   6  -8  -4   48.30   10.80
   5  -8  -4    0.50    3.20
   5  -8  -4   11.50    6.10
   5  -8  -4    4.50    3.30
   4  -8  -4  103.59   13.40
   4  -8  -4   99.79    9.80
   3  -8  -4    5.60    4.60
   3  -8  -4    4.50    4.90
   2  -8  -4   82.39   14.20
   2  -8  -4   76.39   12.50
  -2   8   4   82.99   13.60
   1  -8  -4  653.93   38.10
   1  -8  -4  652.83   33.80
  -1   8   4  656.43   35.80
   0  -8  -4   96.49   19.70
   0  -8  -4   69.29   13.10
  -1  -8  -4   20.20    6.70
  -2  -8  -4   71.59   13.80
  -2  -8  -4   80.49   22.50
   8  -9  -4   29.60    5.80
   8  -9  -4   20.00    8.70
   7  -9  -4   10.40    4.40
   7  -9  -4    5.30    4.40
   7  -9  -4   22.90    6.90
   7  -9  -4    4.30    6.40
   6  -9  -4  103.89   16.20
   6  -9  -4   97.99    8.90
   6  -9  -4   85.69    8.10
   6  -9  -4   86.19   12.40
   5  -9  -4   76.09   14.10
   5  -9  -4   43.40    9.90
   5  -9  -4   77.39    8.60
   4  -9  -4   48.60    9.10
   4  -9  -4   42.10    9.50
   3  -9  -4  227.08   18.30
   2  -9  -4   -3.80    6.30
   2  -9  -4   12.20    5.00
  -2   9   4   -7.80    8.20
   1  -9  -4   73.59   15.60
   1  -9  -4  119.59   17.00
   0  -9  -4   30.70    9.70
   0  -9  -4   37.30   13.70
   7 -10  -4   15.70    5.00
   7 -10  -4   14.40    7.10
   7 -10  -4   12.90    8.70
   6 -10  -4   94.69   13.70
   6 -10  -4  106.59   17.90
   6 -10  -4   82.49    9.10
   5 -10  -4   -1.20    4.60
   5 -10  -4   -2.60    4.70
   5 -10  -4    8.60    7.00
   4 -10  -4  340.27   23.20
   3 -10  -4  132.29   18.80
   3 -10  -4  159.18   18.90
   2 -10  -4   -6.60    7.30
   2 -10  -4   -6.50    4.30
   1 -10  -4  -14.50    8.70
   1 -10  -4    4.00    5.90
   5 -11  -4   30.70   11.60
   5 -11  -4   34.00    9.60
   4 -11  -4    3.20    7.60
   4 -11  -4   -4.30    4.60
   0 -11   5    5.10    9.00
   1 -11   5   93.99   21.40
   2 -11   5   70.29   16.60
   3 -11   5   18.70   11.10
   4 -11   5   40.70   13.10
  -2 -10   5   62.69   18.70
  -1 -10   5    2.10    7.30
   0 -10   5   78.49   18.10
   1 -10   5   16.10   10.60
   2 -10   5   42.70   12.10
   3 -10   5   28.50   10.70
   4 -10   5   26.00   11.50
   5 -10   5    5.50    6.10
   5 -10   5    6.20    8.70
   5 -10   5   -0.30    5.00
   6 -10   5   35.00    5.70
   6 -10   5   25.00   11.10
  -3  -9   5    6.90   12.80
  -2  -9   5   30.70   13.70
  -1  -9   5   77.29   19.00
   0  -9   5   20.20    9.50
   1  -9   5  -15.10    6.10
   2  -9   5   20.70    9.60
   3  -9   5  185.58   25.40
   4  -9   5   -9.00    4.60
   4  -9   5    5.50    4.80
   4  -9   5    1.50    7.20
   5  -9   5   -0.60    7.20
   5  -9   5    9.50    5.00
   6  -9   5   20.60    3.40
   6  -9   5   19.90    8.80
   6  -9   5   18.70    3.30
   4   8  -5    1.10    7.80
  -4  -8   5   -6.70    8.20
   3   8  -5   73.09   11.70
  -3  -8   5   97.49   22.60
  -2  -8   5   70.39   17.40
  -1  -8   5   56.39   15.70
   0  -8   5  305.47   27.30
   1  -8   5   79.89   17.20
   2  -8   5  141.99   21.10
   3  -8   5   -3.10    4.00
   3  -8   5   -0.30    2.90
   3  -8   5    2.00    6.70
   4  -8   5   -1.80    3.80
   4  -8   5    5.10    7.80
   4  -8   5    0.90    4.80
  -5   8  -5   19.30    7.30
   5  -8   5   14.40    4.20
   5  -8   5   31.60    8.00
   6  -8   5   12.00    8.30
   5   7  -5   13.90    9.30
  -5  -7   5    4.50    8.90
   4   7  -5   23.60    8.90
  -4  -7   5   11.60   12.80
   3   7  -5   58.19    9.60
  -3  -7   5   49.90   14.30
   2   7  -5    8.30    3.50
  -2  -7   5    2.80    7.90
  -1  -7   5   -2.50    5.90
   0  -7   5  212.08   20.70
   1  -7   5  240.68   17.10
   1  -7   5  255.27   22.80
   2  -7   5   21.20    6.40
   2  -7   5   13.60    8.20
   3  -7   5  257.87   15.40
   3  -7   5  233.68   22.30
   3  -7   5  257.27   16.10
  -4   7  -5  160.78   12.40
   4  -7   5  109.99   14.60
   4  -7   5  142.09   10.10
  -5   7  -5    2.10    5.40
   5  -7   5    7.80    7.70
   6  -7   5   40.40   10.90
   7  -7   5   99.49   19.40
   5   6  -5  106.39   17.40
  -5  -6   5   82.69   21.40
   4   6  -5   67.59   11.10
  -4  -6   5   70.49   17.00
  -4  -6   5   58.79    9.60
   3   6  -5  258.67   16.80
  -3  -6   5  276.17   27.40
   2   6  -5  852.61   29.50
  -2  -6   5  829.42   46.50
  -1  -6   5   41.20   11.90
   0  -6   5  120.49   14.40
   0  -6   5  143.49   20.00
   1  -6   5  347.27   24.80
  -2   6  -5   52.39    4.80
   2  -6   5   47.50    7.40
   2  -6   5   52.09   11.60
   2  -6   5   45.30    7.50
  -3   6  -5   94.19    8.40
   3  -6   5   94.89   12.60
   3  -6   5   80.19    9.40
  -4   6  -5  169.88   13.40
   4  -6   5  168.08    9.90
   4  -6   5  188.68   17.40
  -5   6  -5   23.10    8.00
   5  -6   5   27.70    3.50
   5  -6   5   25.50    9.70
   6  -6   5   40.70   12.20
   7  -6   5   25.10   10.50
   6   5  -5   -3.20    8.50
  -6  -5   5   13.90   10.10
   5   5  -5    5.40    8.10
  -5  -5   5   24.60   12.80
   4   5  -5   32.30    8.60
  -4  -5   5   40.50   13.40
   3   5  -5  454.75   22.50
  -3  -5   5  463.85   33.00
   2   5  -5    3.50    6.00
   2   5  -5   15.20    4.20
  -2  -5   5    7.10    6.60
   1   5  -5  265.17   10.70
   1   5  -5  275.37   20.60
  -1  -5   5  288.27   22.30
  -1  -5   5  259.87   17.60
   0  -5   5  231.08   15.60
   0  -5   5  241.58   19.90
  -1   5  -5  640.44   19.80
   1  -5   5  611.34   32.90
   1  -5   5  564.14   25.70
  -2   5  -5   51.59   10.70
   2  -5   5   60.29    9.50
   2  -5   5   62.49    8.10
  -3   5  -5   54.89    8.80
   3  -5   5   62.29   11.60
   3  -5   5   56.29    7.10
  -4   5  -5   26.40    8.10
   4  -5   5   22.10    6.40
   4  -5   5   16.90    7.40
   5  -5   5  411.56   30.10
   5  -5   5  455.15   13.80
   6  -5   5   57.39   15.10
   7  -5   5   85.59   20.70
   7   4  -5   39.50   14.90
  -7  -4   5   33.70   14.80
   6   4  -5   -1.20    7.70
  -6  -4   5    0.60    9.70
   5   4  -5  404.96   26.10
  -5  -4   5  447.66   34.90
  -5  -4   5  389.96   22.80
   4   4  -5  193.88   15.70
  -4  -4   5  192.18   21.50
   3   4  -5  494.65   22.30
   3   4  -5  440.36   28.10
  -3  -4   5  446.76   30.40
   2   4  -5  137.59    9.20
   2   4  -5  145.29   20.30
  -2  -4   5  180.78   17.00
  -2  -4   5  146.69   12.60
   1   4  -5  456.55   16.10
   1   4  -5  418.86   23.20
  -1  -4   5  453.15   27.00
  -1  -4   5  443.56   22.50
   0   4  -5  404.76   16.10
   0  -4   5  343.47   18.80
   0  -4   5  364.66   23.30
  -1   4  -5    3.60    3.00
  -1   4  -5    2.90    2.90
   1  -4   5    2.20    1.90
  -2   4  -5  399.96   19.00
  -2   4  -5  417.86   20.10
   2  -4   5  359.36   17.20
   2  -4   5  368.36   22.10
  -3   4  -5  505.55   21.20
  -3   4  -5  555.94   26.60
   3  -4   5  532.35   29.80
   3  -4   5  482.35   19.60
  -4   4  -5 2003.60   56.69
  -4   4  -5 1984.50   68.59
   4  -4   5 1856.31   73.09
   4  -4   5 1935.01   56.39
   5  -4   5   28.10   11.10
   6  -4   5   60.49   18.40
   7  -4   5   65.29   19.20
   7   3  -5   26.20   11.30
  -7  -3   5   50.79   16.80
   6   3  -5    4.40    6.30
  -6  -3   5    7.20    9.20
   5   3  -5  376.46   24.20
  -5  -3   5  371.46   30.10
  -5  -3   5  365.46   22.10
   4   3  -5  407.76   22.80
   4   3  -5  386.76   26.10
  -4  -3   5  370.76   27.60
   3   3  -5   33.80    8.10
   3   3  -5   39.20    7.10
   3   3  -5   30.30    8.30
  -3  -3   5   28.30    7.10
  -3  -3   5   37.40    9.40
   2   3  -5  818.42   36.10
   2   3  -5  884.41   36.10
   2   3  -5  825.72   29.00
  -2  -3   5  828.52   42.90
  -2  -3   5  830.22   33.50
  -1  -3   5  324.77   21.10
  -1  -3   5  367.76   18.70
   0   3  -5  103.39    9.40
   0   3  -5   80.19    8.80
   0  -3   5   82.59    8.00
   0  -3   5   87.99   12.70
  -1   3  -5    1.70    3.50
  -1   3  -5   -2.60    1.20
   1  -3   5   -2.70    2.00
   1  -3   5   -4.30    2.90
  -2   3  -5   91.99    7.70
  -2   3  -5   95.89   10.30
   2  -3   5   75.49   13.10
   2  -3   5   65.39    6.60
  -3   3  -5  127.09    9.10
  -3   3  -5  130.39   13.80
   3  -3   5  114.09    7.90
   3  -3   5  116.99   18.40
   3  -3   5  109.89   16.80
  -4   3  -5    4.10    2.60
  -4   3  -5   -2.40    6.30
   4  -3   5    6.90    7.10
   4  -3   5    3.80    4.20
  -5   3  -5  122.69    7.40
   5  -3   5   89.99   17.90
   6  -3   5   35.40   14.00
   7  -3   5   49.40   15.50
   8   2  -5   25.70   13.50
  -8  -2   5    0.90   12.00
   7   2  -5  348.47   32.60
  -7  -2   5  381.06   40.30
  -6  -2   5   91.59   19.40
   5   2  -5  150.88   15.00
   5   2  -5  174.38   17.30
  -5  -2   5  171.88   18.70
   4   2  -5    4.30    4.40
   4   2  -5   13.40    5.60
   4   2  -5   -0.60    3.90
  -4  -2   5    7.00    4.40
  -4  -2   5   13.50    7.30
   3   2  -5  458.35   21.40
   3   2  -5  480.55   24.70
   3   2  -5  426.36   23.80
  -3  -2   5  461.05   22.50
  -3  -2   5  479.65   26.90
   2   2  -5  257.67   13.80
   2   2  -5  273.67   17.20
   2   2  -5  289.97   19.90
  -2  -2   5  287.27   18.70
  -2  -2   5  261.97   15.60
   1   2  -5   -2.60    2.50
  -1  -2   5   -0.60    2.20
  -1  -2   5    3.70    3.80
   0   2  -5   18.40    5.10
   0   2  -5    9.20    4.80
   0  -2   5   23.20    5.20
  -1   2  -5   33.80    6.20
  -1   2  -5   46.60    9.90
   1  -2   5   34.40    8.70
   1  -2   5   35.70    6.10
  -2   2  -5 1131.29   37.70
  -2   2  -5 1250.87   47.30
   2  -2   5 1127.79   36.80
   2  -2   5 1075.59   48.30
  -3   2  -5  372.46   27.60
  -3   2  -5  353.66   16.50
   3  -2   5  422.76   30.80
   3  -2   5  390.36   16.50
   3  -2   5  348.07   26.40
  -4   2  -5  106.79    8.20
   4  -2   5   82.29   17.10
   4  -2   5  107.19    8.10
  -5   2  -5  257.97   12.50
   5  -2   5  247.08   32.00
  -6   2  -5   -2.60    2.20
   6  -2   5   -1.70    8.00
   7  -2   5   69.09   20.10
   8   1  -5   43.40   12.80
  -8  -1   5   36.10   15.20
   7   1  -5   11.30   10.00
  -7  -1   5   12.90   10.00
   6   1  -5  273.97   26.00
   6   1  -5  270.57   22.00
  -6  -1   5  262.77   25.00
   5   1  -5   42.10    9.30
   5   1  -5   29.80    7.90
   5   1  -5   46.00   10.10
  -5  -1   5   46.60    8.90
  -5  -1   5   35.00   10.70
   4   1  -5  264.57   18.00
   4   1  -5  288.57   18.50
   4   1  -5  265.87   17.30
  -4  -1   5  312.87   20.90
  -4  -1   5  232.08   17.90
   3   1  -5  302.17   17.50
   3   1  -5  312.87   18.10
   3   1  -5  298.77   16.70
  -3  -1   5  306.77   17.20
  -3  -1   5  327.47   19.70
   2   1  -5  273.27   16.30
  -2  -1   5  278.57   16.70
  -2  -1   5  283.77   15.50
   1   1  -5   16.20    4.40
  -1  -1   5   15.80    5.00
  -1  -1   5   17.20    4.60
   0   1  -5  832.22   30.10
   0   1  -5  718.83   34.80
   0  -1   5  796.12   29.00
  -1   1  -5  439.56   25.70
  -1   1  -5  437.26   19.50
   1  -1   5  440.16   19.00
   1  -1   5  453.25   27.30
  -2   1  -5  537.15   30.10
  -2   1  -5  481.85   21.00
   2  -1   5  533.15   21.00
   2  -1   5  527.55   32.00
   2  -1   5  475.95   30.80
  -3   1  -5  109.59    8.70
  -3   1  -5   94.09   16.30
   3  -1   5   97.49    8.00
   3  -1   5   94.69   18.40
   3  -1   5   96.69   18.30
  -4   1  -5  113.19    9.20
   4  -1   5  126.59   22.50
  -5   1  -5  128.79    9.80
   5  -1   5  121.29   23.40
  -6   1  -5   10.60    4.60
   6  -1   5   18.70   13.00
   8   0  -5  180.28   26.30
  -8   0   5  178.88   28.40
   7   0  -5    5.40    7.60
  -7   0   5    1.30    7.50
   6   0  -5   23.40    9.80
   6   0  -5    5.80    6.50
   6   0  -5   14.40    6.30
  -6   0   5   15.40    5.90
  -6   0   5   14.50    8.40
   5   0  -5  113.29   13.80
   5   0  -5   92.19   13.50
   5   0  -5  102.29   11.30
  -5   0   5  119.69   13.60
  -5   0   5   86.49   11.80
   4   0  -5  107.49   10.70
   4   0  -5  124.79   11.00
   4   0  -5  117.79   11.40
  -4   0   5  126.49   10.60
  -4   0   5  125.19   12.00
   3   0  -5  148.69   12.00
   3   0  -5  149.39   11.90
   3   0  -5  155.48   12.10
  -3   0   5  139.99   10.90
  -3   0   5  150.48   11.50
   2   0  -5   34.00    6.80
  -2   0   5   33.20    6.20
  -2   0   5   40.10    6.60
   1   0  -5 3667.93   98.69
   1   0  -5 3184.08  105.59
  -1   0   5 3575.34   97.59
   0   0  -5 1140.89   48.30
   0   0  -5 1143.89   39.20
   0   0   5 1174.68   38.70
  -1   0  -5    2.00    2.50
  -1   0  -5   -4.90    4.30
   1   0   5    3.00    2.50
   1   0   5    1.80    5.90
   1   0   5   -0.10    4.70
  -2   0  -5  604.84   24.60
  -2   0  -5  628.04   38.10
   2   0   5  596.54   35.30
   2   0   5  639.84   37.60
   2   0   5  577.54   24.00
  -3   0  -5   28.30    5.90
   3   0   5   17.40    9.90
   3   0   5   21.60    5.10
   4   0   5  167.78   27.00
  -5   0  -5    2.50    3.60
   5   0   5    3.30    8.40
  -6   0  -5   12.10    5.10
   6   0   5   34.20   12.10
   9  -1  -5   36.50   14.10
  -9   1   5    8.70   12.10
   8  -1  -5   45.20   12.30
  -8   1   5   41.30   13.90
   7  -1  -5   74.59   13.40
   7  -1  -5   47.40    9.20
   7  -1  -5   57.69   12.90
  -7   1   5   60.19    9.90
  -7   1   5   62.59   13.70
   6  -1  -5    0.80    5.70
   6  -1  -5   14.50    7.20
   6  -1  -5    3.00    4.90
  -6   1   5   17.00    5.60
  -6   1   5    8.60    5.50
   5  -1  -5    3.60    4.40
   5  -1  -5    0.70    3.00
   5  -1  -5    3.80    4.90
  -5   1   5    0.70    2.90
  -5   1   5    5.70    2.80
   4  -1  -5  199.78   11.90
   4  -1  -5  188.68   13.50
   4  -1  -5  189.78   14.80
  -4   1   5  190.28   12.80
  -4   1   5  206.58   13.30
   3  -1  -5   81.69    9.90
  -3   1   5   79.19    9.40
  -3   1   5   65.79    6.20
   2  -1  -5    0.30    2.20
  -2   1   5    1.80    2.60
  -2   1   5    1.80    2.00
   1  -1  -5   44.60    7.00
   1  -1  -5   71.59   13.70
  -1   1   5   49.90    7.50
  -1   1   5   63.09    9.00
   0  -1  -5  952.00   34.60
   0  -1  -5  967.60   45.20
   0   1   5  977.20   39.70
   0   1   5  943.31   34.00
  -1  -1  -5  242.58   21.50
  -1  -1  -5  259.07   15.00
   1   1   5  264.87   20.10
   1   1   5  223.88   13.90
   1   1   5  262.77   23.50
  -2  -1  -5  643.24   37.30
  -2  -1  -5  627.74   26.70
   2   1   5  681.03   38.20
   2   1   5  711.03   41.70
   2   1   5  644.14   26.90
  -3  -1  -5  137.19   10.80
   3   1   5  111.79   21.70
  -4  -1  -5   19.60    5.30
   4   1   5    3.50    7.80
  -5  -1  -5  242.28   16.00
   5   1   5  292.57   38.60
  -6  -1  -5    4.20    5.00
   6   1   5   27.40   15.10
   9  -2  -5  -11.70    6.80
  -9   2   5   -5.30    9.70
   8  -2  -5   -5.20    7.90
  -8   2   5    0.30    5.90
  -8   2   5   -1.70    8.80
   7  -2  -5    7.10    5.50
   7  -2  -5   13.10    7.30
   7  -2  -5   15.50    7.30
  -7   2   5   13.40    5.40
  -7   2   5    9.10    6.90
   6  -2  -5    4.50    4.50
   6  -2  -5   -3.40    4.10
   6  -2  -5    1.00    3.70
  -6   2   5    2.50    5.10
   5  -2  -5   80.49    7.70
   5  -2  -5   64.19   11.30
   5  -2  -5   79.89   10.30
  -5   2   5   83.99   10.20
  -5   2   5   77.49    8.60
   4  -2  -5  322.87   18.00
   4  -2  -5  310.07   19.60
   4  -2  -5  319.97   12.70
  -4   2   5  332.77   17.40
  -4   2   5  331.87   13.90
  -3   2   5  913.41   33.70
  -2   2   5 1636.74   53.39
  -2   2   5 1726.03   48.50
   1  -2  -5    1.50    3.30
   1  -2  -5    0.80    5.40
  -1   2   5    1.00    3.00
  -1   2   5   11.90    3.80
   0  -2  -5 1193.58   41.80
   0  -2  -5 1183.68   53.69
   0   2   5 1186.38   41.70
   0   2   5 1240.38   46.70
  -1  -2  -5   15.20    6.50
  -1  -2  -5    9.70    4.20
   1   2   5   11.80    6.90
   1   2   5   17.00    5.00
   1   2   5    7.40    5.30
  -2  -2  -5  516.35   33.90
  -2  -2  -5  540.15   24.80
   2   2   5  486.15   32.40
   2   2   5  565.54   38.30
  -3  -2  -5   20.70   10.10
  -3  -2  -5    8.10    4.30
   3   2   5    6.00    7.40
  -4  -2  -5  118.49   11.60
   4   2   5  105.59   22.00
  -5  -2  -5   61.09   10.20
   5   2   5   74.59   20.40
   9  -3  -5   52.29   13.90
  -9   3   5   37.40    9.50
   8  -3  -5   42.30    8.50
   8  -3  -5   31.70    9.60
   8  -3  -5   21.70    8.60
  -8   3   5   37.20    8.30
   7  -3  -5   29.40    9.50
   7  -3  -5   26.70    6.90
   7  -3  -5   16.60    6.50
  -7   3   5   20.70    6.10
   6  -3  -5  691.53   29.80
   6  -3  -5  646.34   34.40
   6  -3  -5  664.43   29.60
   5  -3  -5    3.10    3.70
   5  -3  -5    2.30    3.90
   5  -3  -5   -2.50    1.90
  -5   3   5    4.00    3.10
   4  -3  -5   18.20    4.90
  -4   3   5    9.70    4.50
   3  -3  -5  209.88   14.10
  -3   3   5  228.98   14.20
   2  -3  -5   70.49    9.60
  -2   3   5   65.69    5.10
  -2   3   5   66.69    9.20
   1  -3  -5  328.67   26.10
   1  -3  -5  368.36   19.40
  -1   3   5  376.46   19.10
  -1   3   5  390.66   20.10
   0  -3  -5  946.01   40.80
   0  -3  -5  910.01   35.40
   0  -3  -5  897.31   46.80
   0   3   5  866.31   34.70
   0   3   5  915.31   38.80
  -1  -3  -5  487.15   24.00
  -1  -3  -5  514.35   31.50
   1   3   5  479.55   35.10
   1   3   5  460.75   23.70
   1   3   5  455.55   28.60
  -2  -3  -5   11.20    7.20
  -2  -3  -5   11.50    5.70
   2   3   5    7.80    8.20
  -3  -3  -5  312.27   29.50
  -3  -3  -5  317.87   19.90
   3   3   5  309.97   32.00
  -4  -3  -5   30.90   12.40
  -4  -3  -5   14.80    7.00
   4   3   5   22.40   14.40
  -5  -3  -5   42.00   15.30
  -5  -3  -5   47.80    9.80
   5   3   5   58.09   17.10
   9  -4  -5    8.90    4.80
   9  -4  -5   -5.90    4.90
  -9   4   5   -8.40    7.00
   8  -4  -5   15.50    7.10
   8  -4  -5   -4.50    6.40
   8  -4  -5    3.00    4.90
  -8   4   5    5.80    5.60
   7  -4  -5   30.00    6.90
   7  -4  -5   21.00    5.60
   7  -4  -5   22.90    8.30
  -7   4   5   47.90    8.40
   6  -4  -5   36.90    7.20
   6  -4  -5   49.30    5.30
   6  -4  -5   53.69   11.80
  -6   4   5   63.69    9.30
   5  -4  -5  755.02   35.90
   5  -4  -5  727.83   30.80
  -5   4   5  719.93   33.00
   4  -4  -5    0.80    2.60
   3  -4  -5   72.59   10.10
  -3   4   5   74.49   10.20
   2  -4  -5    0.40    5.70
   2  -4  -5    6.30    3.50
  -2   4   5    3.90    3.10
  -2   4   5    1.30    2.10
   1  -4  -5  398.26   22.10
   1  -4  -5  421.36   21.80
   1  -4  -5  380.06   29.30
  -1   4   5  393.26   20.80
  -1   4   5  415.06   21.60
   0  -4  -5   78.89   13.80
   0  -4  -5   70.79   10.60
   0   4   5   88.69   13.20
   0   4   5   89.59   13.50
  -1  -4  -5  111.89   13.60
  -1  -4  -5   85.59   15.40
   1   4   5   90.69   14.80
  -2  -4  -5  675.33   32.00
  -2  -4  -5  752.72   45.20
   2   4   5  607.44   44.80
  -3  -4  -5  120.29   23.60
  -3  -4  -5   70.09   12.00
   3   4   5  104.69   22.50
  -4  -4  -5    8.00    7.60
  -4  -4  -5    3.50   10.50
   4   4   5    4.50   10.60
   9  -5  -5   -2.10    8.50
   9  -5  -5    6.00    4.50
  -9   5   5   -8.70   11.30
   8  -5  -5  165.88   13.30
   8  -5  -5  162.18   22.70
   8  -5  -5  141.09   13.30
  -8   5   5  125.39   13.60
   7  -5  -5   95.99   12.10
   7  -5  -5  109.59    8.70
  -7   5   5  113.49   12.50
   6  -5  -5  136.69   18.30
   6  -5  -5  132.09   12.20
  -6   5   5  109.99   11.00
   5  -5  -5  203.98   14.90
   5  -5  -5  202.88   17.80
  -5   5   5  201.48   14.40
   4  -5  -5    4.20    3.80
  -4   5   5    3.50    3.90
   3  -5  -5 1121.89   41.80
  -3   5   5 1049.59   40.80
   2  -5  -5  857.81   35.50
   2  -5  -5  762.42   44.40
   2  -5  -5  861.11   32.10
  -2   5   5  849.12   30.30
   1  -5  -5  453.85   25.80
   1  -5  -5  496.45   25.50
  -1   5   5  464.85   24.40
   0  -5  -5 2326.27   75.89
   0  -5  -5 2319.77   83.59
   0   5   5 2341.87   79.99
  -1  -5  -5   14.50    5.10
  -1  -5  -5   18.10    9.10
  -2  -5  -5  117.99   21.10
  -2  -5  -5  131.59   15.80
   2   5   5  120.09   24.70
  -3  -5  -5   33.90    9.10
  -3  -5  -5   47.70   15.40
   3   5   5   25.60   14.30
  -4  -5  -5   -8.80    5.50
  -4  -5  -5   -4.30   12.40
   4   5   5    5.10   12.70
   9  -6  -5   63.99    9.90
   9  -6  -5   60.49   15.10
   8  -6  -5   13.60    8.30
   8  -6  -5   11.30    5.20
  -8   6   5   -2.80    5.70
   7  -6  -5   37.00   10.30
   7  -6  -5   39.90    8.10
  -7   6   5   32.50    7.90
   6  -6  -5   49.90   11.50
   6  -6  -5   51.49    9.20
  -6   6   5   38.60    9.50
   5  -6  -5   54.29   11.60
   5  -6  -5   33.20    7.70
   4  -6  -5   39.20    8.10
   3  -6  -5  528.25   19.60
   3  -6  -5  516.15   26.80
   2  -6  -5    1.10    3.90
   2  -6  -5    2.90    3.10
  -2   6   5    7.50    4.40
   1  -6  -5  341.97   23.90
   1  -6  -5  339.07   21.70
  -1   6   5  337.57   21.70
   0  -6  -5  145.39   14.00
   0  -6  -5  157.98   21.70
   0   6   5  135.29   18.30
  -1  -6  -5   35.30   12.20
  -1  -6  -5   28.20    9.00
  -2  -6  -5   13.80    6.90
  -3  -6  -5   65.79   13.20
  -3  -6  -5   91.29   23.10
   3   6   5   37.60   19.00
   8  -7  -5   67.29   10.20
   8  -7  -5   75.09   15.80
   7  -7  -5    2.30    6.50
   7  -7  -5    3.70    4.00
   6  -7  -5   78.89   14.90
   6  -7  -5   98.89   12.70
   5  -7  -5  308.37   20.00
   4  -7  -5   85.79   12.90
   3  -7  -5  104.69    9.70
   3  -7  -5  117.39   14.90
   2  -7  -5 1243.88   49.30
   2  -7  -5 1229.38   49.70
  -2   7   5 1330.87   47.40
   1  -7  -5   22.30    7.70
  -1   7   5   17.60    7.10
   0  -7  -5   40.70   12.70
   0  -7  -5   62.29   11.90
  -1  -7  -5   83.19   14.80
  -1  -7  -5   65.39   17.10
  -2  -7  -5   -4.50    5.60
  -2  -7  -5   -1.40    8.90
   8  -8  -5   48.60    9.50
   8  -8  -5   42.80   12.50
   7  -8  -5   -1.20    5.10
   7  -8  -5    3.70    6.70
   6  -8  -5   73.89   14.10
   6  -8  -5   66.99   11.10
   5  -8  -5   60.89   10.60
   4  -8  -5    7.30    4.70
   4  -8  -5    5.70    3.40
   3  -8  -5  388.16   21.70
   2  -8  -5   18.70    7.20
   2  -8  -5   25.80    9.00
  -2   8   5   32.70    9.30
   1  -8  -5    0.00    7.20
   1  -8  -5    4.30    4.60
  -1   8   5   31.00    9.80
   0  -8  -5   -6.80    4.70
   0  -8  -5  -16.30    7.60
  -1  -8  -5   81.59   14.70
  -1  -8  -5  116.69   23.20
   7  -9  -5   58.29   12.10
   7  -9  -5   68.89   14.30
   6  -9  -5   19.60    8.60
   5  -9  -5  265.67   20.30
   4  -9  -5   28.90    8.70
   4  -9  -5   18.30    5.80
   3  -9  -5   -6.10    2.70
   3  -9  -5   -7.30    4.60
   2  -9  -5   19.40    8.50
   2  -9  -5    2.10    4.10
  -2   9   5    2.70    8.40
   1  -9  -5   21.10   11.00
   0  -9  -5   -0.40    5.80
   6 -10  -5   34.80   10.00
   6 -10  -5   42.80    9.50
   5 -10  -5   38.30    9.90
   5 -10  -5   39.40    5.50
   4 -10  -5   -4.50    5.90
   4 -10  -5   -2.90    7.10
   3 -10  -5   -5.50    5.50
   3 -10  -5   13.20    7.60
   2 -10  -5    8.00    6.70
   2 -10  -5  -10.60    7.00
   1 -11   6   22.30   12.00
   2 -11   6   47.60   14.40
   3 -11   6    1.70    9.30
  -1 -10   6   11.10   11.10
   0 -10   6   38.30   13.80
   1 -10   6    3.70    7.80
   2 -10   6   29.20   11.90
   3 -10   6  -10.90    6.70
   4 -10   6   59.39   16.60
   5 -10   6   48.30   15.40
   5 -10   6   25.10    7.70
  -3  -9   6   -3.50   11.60
  -2  -9   6   61.99   17.90
  -1  -9   6   31.00   13.50
   0  -9   6   -3.80    6.10
   1  -9   6  251.97   26.10
   2  -9   6    5.90    7.40
   3  -9   6    9.50    7.50
   4  -9   6   31.60   10.30
   4  -9   6   48.70    9.30
   4  -9   6   56.69    8.70
   5  -9   6    1.30    8.00
   5  -9   6   -5.20    6.60
   5  -9   6    9.70    5.20
   4   8  -6   70.79   12.50
  -4  -8   6  140.69   29.50
   3   8  -6   -1.90    4.30
  -3  -8   6   -0.20    8.40
  -2  -8   6  136.19   23.10
  -1  -8   6   62.89   15.80
   1  -8   6    1.40    6.80
   2  -8   6   93.39   17.40
   3  -8   6   52.89   14.50
   3  -8   6   36.60    8.00
  -4   8  -6   33.70    7.10
   4  -8   6   42.90    9.10
   4  -8   6   27.70    6.90
   4  -8   6   51.09   13.60
  -5   8  -6   78.59   12.00
   5  -8   6   67.59    7.80
   5  -8   6  106.89   16.90
   6  -8   6  180.78   23.90
   5   7  -6   13.50   11.00
  -5  -7   6    6.80   14.90
  -4  -7   6  105.99   24.10
   3   7  -6   70.79    9.20
  -3  -7   6  102.29   22.00
  -2  -7   6    9.60   11.20
  -1  -7   6  164.48   23.40
   0  -7   6   60.89   14.80
   1  -7   6  205.18   20.90
   2  -7   6  274.97   17.50
   2  -7   6  273.57   23.90
  -3   7  -6   10.10    4.10
   3  -7   6   21.90    8.70
   3  -7   6   14.10    5.40
   3  -7   6    5.20    4.30
  -4   7  -6   68.89    9.70
   4  -7   6   68.59    8.50
  -5   7  -6  108.09   14.60
   5  -7   6  113.59   17.80
   5  -7   6   96.89    7.60
   6  -7   6    6.00    9.90
   5   6  -6    3.00    6.60
  -5  -6   6   18.80   12.40
   4   6  -6  254.57   21.10
  -4  -6   6  338.47   32.90
   3   6  -6   10.50    4.90
  -3  -6   6   24.40   10.90
   2   6  -6   32.70    5.00
  -2  -6   6   47.40   12.80
  -1  -6   6   -2.60    5.00
   0  -6   6  244.08   22.10
   1  -6   6    1.70    5.20
   1  -6   6   -0.50    4.10
  -2   6  -6  106.49    8.20
   2  -6   6  110.39   14.10
   2  -6   6  110.99   17.50
  -3   6  -6   47.00    7.60
   3  -6   6   39.20    9.50
   3  -6   6   40.60    7.10
  -4   6  -6  152.38   18.20
   4  -6   6  146.79   19.90
   4  -6   6  134.89    9.50
   5  -6   6    0.30    7.50
   6  -6   6    2.00    9.80
   6   5  -6    3.90    9.60
  -6  -5   6    4.40   11.30
   5   5  -6    4.30    5.90
  -5  -5   6   10.30   11.60
   4   5  -6   27.10    7.90
  -4  -5   6   64.79   16.00
   3   5  -6   44.90    7.80
  -3  -5   6   46.10   13.60
   2   5  -6    0.60    2.30
  -2  -5   6    9.40    6.30
   1   5  -6   57.39    4.70
   1   5  -6   54.29    6.30
  -1  -5   6   47.10   11.30
  -1  -5   6   52.79   13.00
   0   5  -6  120.29    7.30
   0   5  -6  112.09   14.20
   0  -5   6  119.79   17.60
   0  -5   6  109.09   13.20
  -1   5  -6    4.80    4.20
  -1   5  -6    0.70    2.80
   1  -5   6   -2.30    4.10
   1  -5   6   -3.70    3.10
  -2   5  -6   30.90    7.00
  -2   5  -6   40.60    7.70
   2  -5   6   33.90    7.20
   2  -5   6   47.20    9.90
  -3   5  -6 1076.59   41.60
  -3   5  -6 1111.29   39.70
   3  -5   6 1029.40   47.50
   3  -5   6 1104.59   37.20
  -4   5  -6  142.99   14.50
   4  -5   6  115.89   17.90
   4  -5   6  140.39    9.20
   5  -5   6  163.58    8.50
   5  -5   6  178.58   24.90
   6  -5   6   19.00   11.60
   7   4  -6   28.10   12.70
  -7  -4   6    6.60   12.30
   6   4  -6  102.09   17.30
  -6  -4   6  119.49   23.70
   5   4  -6  122.99   16.30
  -5  -4   6  112.49   21.10
   4   4  -6   61.09   10.90
  -4  -4   6   73.29   17.30
   3   4  -6    0.80    3.40
   3   4  -6   -8.70    4.10
  -3  -4   6    1.40    5.50
   2   4  -6  117.89   14.90
   2   4  -6  102.29    8.30
   2   4  -6  114.39   16.30
  -2  -4   6  101.69   16.40
  -2  -4   6   89.09   14.60
   1   4  -6    0.60    3.20
   1   4  -6    1.30    2.20
   1   4  -6   -1.60    2.60
  -1  -4   6    0.00    3.00
  -1  -4   6    3.50    4.70
   0   4  -6  168.38   13.80
   0   4  -6  168.98   12.20
   0  -4   6  189.38   17.10
   0  -4   6  213.38   14.40
  -1   4  -6  240.68   15.40
  -1   4  -6  259.47   16.60
   1  -4   6  244.68   14.70
  -2   4  -6  891.71   35.70
  -2   4  -6  845.12   33.10
   2  -4   6  863.41   31.70
   2  -4   6  760.62   38.00
  -3   4  -6  186.68   12.60
  -3   4  -6  213.08   17.50
   3  -4   6  151.38   20.60
   3  -4   6  205.98   11.90
  -4   4  -6   65.19    8.20
   4  -4   6   41.70   12.10
   4  -4   6   71.19    6.60
  -5   4  -6   70.09    7.00
   5  -4   6   89.19   18.10
   6  -4   6    8.70    7.70
   7   3  -6   22.20   11.10
  -7  -3   6    7.00   12.60
   6   3  -6   13.90    8.50
  -6  -3   6   13.80   12.00
   5   3  -6  142.19   14.70
  -5  -3   6  150.88   22.80
   4   3  -6   91.79   15.00
   4   3  -6   90.39   13.50
   4   3  -6  107.09   11.50
  -4  -3   6  103.19   18.30
   3   3  -6   12.40    4.80
   3   3  -6    8.80    5.50
   3   3  -6   13.00    5.90
  -3  -3   6    6.70    4.50
  -3  -3   6   15.90    8.10
   2   3  -6   24.40    7.40
   2   3  -6   17.10    4.80
  -2  -3   6   27.10    8.40
  -2  -3   6   21.50    5.90
   1   3  -6   91.19   12.20
   1   3  -6  100.69   10.50
  -1  -3   6  121.89   15.00
  -1  -3   6   99.09   14.30
   0   3  -6   -0.80    2.50
   0   3  -6   -0.40    3.10
   0  -3   6    2.20    2.70
   0  -3   6    0.30    3.60
  -1   3  -6   53.49    8.40
  -1   3  -6   43.20    8.50
   1  -3   6   51.99    8.00
  -2   3  -6  150.38   11.20
  -2   3  -6  127.59   14.00
   2  -3   6  124.99    9.90
   2  -3   6  143.19   21.70
  -3   3  -6  501.05   29.20
  -3   3  -6  513.35   21.90
   3  -3   6  467.05   32.20
   3  -3   6  473.35   20.40
  -4   3  -6  155.58   10.50
   4  -3   6  155.98   10.10
   4  -3   6  128.29   21.50
  -5   3  -6  204.68   11.50
   5  -3   6  181.48   27.20
  -6   3  -6  118.49    7.20
   6  -3   6   89.49   22.30
   8   2  -6  -17.50    9.80
  -8  -2   6   30.40   13.60
   7   2  -6   65.59   14.70
  -7  -2   6   58.39   16.30
   6   2  -6   21.60    8.70
  -6  -2   6   26.60   10.30
   5   2  -6   13.10    6.80
   5   2  -6    1.40    7.00
   5   2  -6   18.40    7.20
  -5  -2   6   17.40    8.50
   4   2  -6   34.60    9.40
   4   2  -6   20.60    6.90
   4   2  -6   37.10    9.00
  -4  -2   6   27.70    8.70
   3   2  -6  163.68   14.40
   3   2  -6  185.28   15.50
   3   2  -6  175.48   12.80
  -3  -2   6  171.28   13.40
  -3  -2   6  168.28   16.10
   2   2  -6  143.19   12.40
  -2  -2   6  143.39   13.70
   1   2  -6   52.99   10.30
   1   2  -6   55.59    9.20
  -1  -2   6   58.39    8.40
  -1  -2   6   73.49   11.40
   0   2  -6 1040.10   42.00
   0   2  -6 1009.50   42.20
   0  -2   6  926.11   35.40
  -1   2  -6    5.00    3.00
  -1   2  -6    2.10    6.00
   1  -2   6    2.30    3.80
   1  -2   6    4.30    3.70
  -2   2  -6  648.34   26.90
  -2   2  -6  715.23   35.90
   2  -2   6  649.14   26.00
   2  -2   6  684.13   39.80
   2  -2   6  634.24   37.10
  -3   2  -6  456.95   20.40
  -3   2  -6  431.06   29.10
   3  -2   6  379.06   30.90
   3  -2   6  416.26   19.20
  -4   2  -6  108.19    9.10
   4  -2   6  102.59   20.20
   4  -2   6  116.69    9.50
  -5   2  -6  288.87   14.90
   5  -2   6  262.07   39.00
  -6   2  -6   31.70    5.40
   6  -2   6   18.20   10.20
   8   1  -6   29.90   12.80
  -8  -1   6   34.00   14.10
  -7  -1   6  170.68   26.40
   6   1  -6  139.49   19.40
   6   1  -6  126.69   17.40
   6   1  -6  150.08   18.90
  -6  -1   6  133.89   20.20
   5   1  -6   41.40    9.70
   5   1  -6   36.20    9.40
   5   1  -6   33.20    8.40
  -5  -1   6   57.29   12.40
   4   1  -6   -2.30    3.00
   4   1  -6    4.30    4.40
   4   1  -6    4.30    4.20
  -4  -1   6    2.00    3.60
  -4  -1   6    2.70    3.20
   3   1  -6  439.16   22.10
   3   1  -6  454.95   24.20
  -3  -1   6  433.16   22.10
  -3  -1   6  470.35   24.80
   2   1  -6 1171.08   43.10
  -2  -1   6 1070.49   40.60
  -2  -1   6 1205.08   43.80
   1   1  -6  967.30   36.20
   1   1  -6  842.42   40.20
  -1  -1   6  958.80   35.40
  -1  -1   6  945.91   37.20
   0   1  -6  312.07   20.20
   0   1  -6  267.37   20.80
   0  -1   6  296.17   16.30
  -1   1  -6  324.37   23.70
   1  -1   6  319.07   24.10
   1  -1   6  317.47   16.50
   1  -1   6  315.77   24.50
  -2   1  -6  200.38   18.80
   2  -1   6  162.98   23.70
   2  -1   6  168.18   18.70
   2  -1   6  183.08   12.30
   3  -1   6  459.75   20.90
   3  -1   6  441.96   33.50
  -4   1  -6    1.20    2.70
   4  -1   6    6.60    9.00
  -5   1  -6   -0.80    3.30
   5  -1   6   10.70   10.40
   6  -1   6   49.90   17.40
   8   0  -6   -5.70    8.30
  -8   0   6  -13.80    7.50
   7   0  -6   -2.80    4.90
   7   0  -6   -4.50    6.20
  -7   0   6   -2.60    6.70
   6   0  -6    7.50    6.50
   6   0  -6    8.40    6.80
   6   0  -6   -1.80    3.90
  -6   0   6    1.10    4.90
   5   0  -6  129.79   12.60
   5   0  -6  145.69   14.20
   5   0  -6  143.59   13.60
  -5   0   6  132.99   12.10
  -5   0   6  121.79   13.80
   4   0  -6  110.39   10.30
   4   0  -6  107.19   13.60
   4   0  -6  123.79   12.00
  -4   0   6  126.29   10.90
  -4   0   6  105.59   11.50
   3   0  -6 1391.86   49.60
  -3   0   6 1394.56   47.70
   2   0  -6  202.48   14.00
  -2   0   6  205.78   13.40
  -2   0   6  195.88   13.20
   1   0  -6   27.30    6.40
   1   0  -6    7.80    6.40
  -1   0   6   16.40    4.80
   0   0  -6  955.30   36.30
   0   0  -6 1002.90   46.60
   0   0   6  947.01   42.30
   0   0   6  993.80   35.80
  -1   0  -6  222.18   14.40
  -1   0  -6  238.58   24.00
   1   0   6  229.48   20.10
   1   0   6  230.48   14.40
   1   0   6  217.98   21.20
  -2   0  -6  519.35   23.50
  -2   0  -6  491.95   32.70
   2   0   6  442.66   33.30
   2   0   6  488.45   22.60
   2   0   6  556.04   34.80
  -3   0  -6  149.69   11.90
   3   0   6  157.78   25.30
   3   0   6  150.38   11.90
  -4   0  -6  121.99   10.80
   4   0   6  122.79   26.90
  -5   0  -6  109.29   10.00
   5   0   6   67.49   17.40
  -6   0  -6   -0.90    4.90
   6   0   6   17.80   14.10
   8  -1  -6   62.19   15.20
  -8   1   6   52.89   15.20
   7  -1  -6   37.20   12.50
   7  -1  -6    7.40    5.60
   7  -1  -6    5.20    6.50
  -7   1   6   20.40    9.60
   6  -1  -6   26.30    9.10
   6  -1  -6   13.60    6.90
   6  -1  -6   17.30    5.70
  -6   1   6   16.60    7.70
   5  -1  -6  288.27   19.40
   5  -1  -6  303.17   21.10
   5  -1  -6  286.47   16.30
  -5   1   6  302.57   18.90
  -5   1   6  265.67   17.30
   4  -1  -6  195.18   15.60
   4  -1  -6  228.88   15.70
  -4   1   6  200.78   14.30
  -4   1   6  218.68   13.70
   3  -1  -6    1.00    2.80
  -3   1   6    2.30    2.50
   2  -1  -6  761.62   31.30
  -2   1   6  783.32   28.20
  -2   1   6  726.23   30.10
   1  -1  -6  657.53   27.60
   1  -1  -6  560.14   34.00
  -1   1   6  620.64   26.70
  -1   1   6  603.44   28.00
   0  -1  -6 1096.99   39.00
   0   1   6 1004.90   37.50
   0   1   6  966.30   43.00
  -1  -1  -6 1128.09   53.69
  -1  -1  -6 1148.29   41.50
   1   1   6 1083.49   49.90
   1   1   6 1134.49   56.29
  -2  -1  -6   16.60    4.90
   2   1   6   20.10   10.90
   2   1   6   18.00    5.70
   2   1   6   10.80    9.40
  -3  -1  -6  539.85   25.70
   3   1   6  526.85   40.10
  -4  -1  -6    2.30    4.50
   4   1   6    1.10    8.70
  -5  -1  -6   45.50    8.70
   5   1   6   31.80   17.50
   9  -2  -6   -4.10    7.90
  -9   2   6   -1.60   10.90
   8  -2  -6   26.70    9.50
   8  -2  -6   27.80    8.70
   8  -2  -6   30.50   11.90
  -8   2   6   23.90    9.80
   7  -2  -6   64.09   10.80
   7  -2  -6   63.49   11.00
  -7   2   6   53.99   10.60
   6  -2  -6   57.19   11.80
   6  -2  -6   40.30    7.50
   6  -2  -6   50.59   10.00
  -6   2   6   56.29    9.10
  -6   2   6   49.10    8.90
   5  -2  -6  339.37   22.50
   5  -2  -6  360.16   20.50
   5  -2  -6  324.67   14.80
  -5   2   6  273.77   17.80
  -5   2   6  310.97   16.10
   4  -2  -6  161.98   13.20
  -4   2   6  167.98   12.60
  -4   2   6  160.68    8.20
   3  -2  -6  420.76   22.20
  -3   2   6  428.26   15.40
  -3   2   6  411.76   21.40
  -3   2   6  462.95   16.00
   2  -2  -6  825.92   33.20
  -2   2   6  781.82   28.90
  -2   2   6  799.32   32.30
   1  -2  -6    4.80    4.10
   1  -2  -6   -0.20    3.00
  -1   2   6    3.90    3.50
  -1   2   6   10.70    4.10
   0  -2  -6 1009.30   38.30
   0  -2  -6 1002.90   50.49
   0   2   6  990.50   43.10
   0   2   6  948.31   37.60
  -1  -2  -6   17.00    5.20
   1   2   6   27.50    8.60
   1   2   6   24.90    6.10
   1   2   6   15.10    9.90
  -2  -2  -6   -5.10    2.50
   2   2   6   -3.50    8.10
  -3  -2  -6   82.69   11.70
  -4  -2  -6   33.40    7.80
   4   2   6   21.60   15.00
  -5  -2  -6   28.20    8.10
   5   2   6   50.59   18.10
   9  -3  -6    0.10    7.80
   9  -3  -6    4.50    6.60
   8  -3  -6   83.89   17.60
   8  -3  -6   77.09   12.40
   8  -3  -6   96.09   14.40
   7  -3  -6   26.50    7.70
   7  -3  -6   22.20    8.10
   7  -3  -6   22.10    6.30
   6  -3  -6   44.00    5.70
   6  -3  -6   41.40   10.10
   6  -3  -6   45.30    9.00
  -6   3   6   50.09    8.50
   5  -3  -6  316.27   19.30
   5  -3  -6  308.77   22.20
  -5   3   6  300.77   18.30
   4  -3  -6    2.40    3.40
  -4   3   6    5.30    4.30
   3  -3  -6  299.97   18.20
  -3   3   6  282.67   17.40
   2  -3  -6  427.66   22.60
   2  -3  -6  374.46   28.80
  -2   3   6  432.26   18.00
  -2   3   6  442.66   22.30
   1  -3  -6    2.70    3.70
   1  -3  -6   -4.00    5.60
  -1   3   6    1.10    3.20
  -1   3   6   -6.80    2.30
   0  -3  -6   75.29   10.80
   0   3   6   63.79   11.50
  -1  -3  -6  720.83   32.20
   1   3   6  695.53   38.20
  -2  -3  -6   61.69   10.60
   2   3   6   40.10   15.30
  -3  -3  -6   48.20    9.40
   3   3   6   25.80   11.20
  -4  -3  -6   46.60   10.00
   4   3   6   27.20   14.60
   9  -4  -6   -6.40    6.10
   9  -4  -6   -6.80    6.50
   8  -4  -6   -1.80    4.90
   8  -4  -6   -1.10    6.90
   8  -4  -6    2.00    4.70
   7  -4  -6  269.87   22.80
   7  -4  -6  215.78   11.70
   7  -4  -6  262.17   18.80
   6  -4  -6    7.40    5.80
   6  -4  -6   15.80    5.70
   5  -4  -6  439.76   23.30
   5  -4  -6  390.26   25.50
  -5   4   6  379.26   24.00
   4  -4  -6  152.98   13.20
  -4   4   6  124.89   11.80
   3  -4  -6   86.59   12.00
   2  -4  -6  111.99   13.40
  -2   4   6  107.99    8.50
   1  -4  -6  682.23   30.90
  -1   4   6  595.14   28.40
   0  -4  -6  912.31   38.10
   0   4   6  838.32   39.90
  -1  -4  -6   -6.20    7.50
  -1  -4  -6    9.60    4.50
   1   4   6   -5.10    5.80
  -2  -4  -6    0.70    4.70
  -2  -4  -6    6.00    9.30
   2   4   6    2.50    8.40
  -3  -4  -6   12.40    7.10
  -3  -4  -6   13.10   10.40
   3   4   6    3.40   10.50
  -4  -4  -6   80.79   12.70
   4   4   6   66.69   21.50
   9  -5  -6   20.80    9.80
   9  -5  -6    6.10    5.90
   8  -5  -6   -0.30    8.00
   8  -5  -6   13.80    6.20
   8  -5  -6    8.30    4.20
   7  -5  -6   86.99   11.90
   7  -5  -6  101.09   16.80
   6  -5  -6   -2.40    3.70
   6  -5  -6    0.60    4.80
   5  -5  -6  544.75   27.60
   4  -5  -6  462.45   25.00
   3  -5  -6   89.19   12.50
   2  -5  -6 1107.39   43.80
  -2   5   6 1064.49   37.40
   1  -5  -6   67.39   11.50
   1  -5  -6   87.39   13.20
  -1   5   6   65.79   10.70
   0  -5  -6  156.18   15.20
   0  -5  -6  170.58   18.40
   0   5   6  146.59   18.90
  -1  -5  -6   10.60    7.90
  -1  -5  -6   -1.90    3.80
  -2  -5  -6    5.30    8.90
  -2  -5  -6   -1.70    4.30
  -3  -5  -6    6.70   10.40
  -3  -5  -6   -1.30    5.70
   3   5   6  -17.80    9.90
   8  -6  -6   35.70    8.70
   8  -6  -6   18.80    7.60
   7  -6  -6  110.19   18.50
   7  -6  -6   78.59   12.40
   6  -6  -6   19.10    9.40
   6  -6  -6   13.00    5.80
   5  -6  -6   47.00    9.40
   4  -6  -6    0.20    4.40
   3  -6  -6   52.09    9.90
   2  -6  -6   39.00    8.10
   2  -6  -6   45.60    9.80
  -2   6   6   20.50    5.90
   1  -6  -6   33.50   10.70
   1  -6  -6   45.80    9.70
  -1   6   6   33.50    9.40
   0  -6  -6    7.80    7.20
   0  -6  -6    7.40    6.00
   0   6   6   -2.80    7.70
  -1  -6  -6  118.49   21.30
  -1  -6  -6  111.79   16.60
  -2  -6  -6   84.79   20.80
  -2  -6  -6   72.69   14.20
   8  -7  -6   41.10    9.50
   8  -7  -6   30.30   12.20
   7  -7  -6   87.99   16.40
   7  -7  -6  102.89   13.90
   6  -7  -6    7.80    4.80
   6  -7  -6    2.90    5.80
   5  -7  -6    3.00    4.90
   4  -7  -6  460.55   26.80
   3  -7  -6   14.40    4.80
   2  -7  -6  159.98   14.60
   2  -7  -6  109.89   15.90
  -2   7   6  126.69   13.20
   1  -7  -6   33.60   11.00
   1  -7  -6   25.60    7.90
  -1   7   6   33.10    9.60
   0  -7  -6   51.19   13.30
   0  -7  -6   45.40   10.40
  -1  -7  -6   41.80   11.10
   8  -8  -6   10.20    6.90
   8  -8  -6  -12.70    5.50
   7  -8  -6   20.50   10.20
   7  -8  -6   29.80   10.00
   6  -8  -6   -1.50    5.30
   5  -8  -6  102.19   14.90
   4  -8  -6   11.00    5.80
   3  -8  -6   20.60    5.10
   3  -8  -6   11.40    5.80
   2  -8  -6    4.40    7.40
   2  -8  -6   15.40    6.80
  -2   8   6   27.50   10.40
   1  -8  -6   21.60    8.70
   1  -8  -6   44.60   13.70
   0  -8  -6   -6.60    4.90
   0  -8  -6   -9.90    9.70
   7  -9  -6   91.69   17.20
   7  -9  -6   67.49   12.10
   6  -9  -6    0.10    5.50
   6  -9  -6    4.20    8.20
   5  -9  -6   23.40    8.30
   4  -9  -6    7.00    5.30
   3  -9  -6    1.90    6.00
   3  -9  -6   -6.40    5.40
   2  -9  -6   16.90    7.40
   2  -9  -6   31.50    9.80
  -2   9   6   -0.10   10.90
   1  -9  -6   -9.70    5.40
  -1 -10   7   22.40   11.70
   0 -10   7   -1.40    8.50
   1 -10   7    9.50    7.80
   2 -10   7   -2.60   10.30
   3 -10   7  133.09   24.40
   4 -10   7   -0.20    8.40
  -2  -9   7    7.50   11.10
  -1  -9   7  159.88   27.30
   0  -9   7   -3.60    6.00
   1  -9   7   18.20   10.40
   2  -9   7    5.10    8.50
   3  -9   7    1.10    6.70
   4  -9   7    1.10    8.50
   5  -9   7    1.30    8.30
   5  -9   7   10.60    8.00
  -3  -8   7   16.60   11.60
  -2  -8   7   -9.50    7.30
  -1  -8   7    6.30   10.40
   0  -8   7   52.79   13.50
   1  -8   7   93.69   18.70
   2  -8   7    7.70    8.20
   3  -8   7   17.00    9.40
  -4   8  -7   96.59   11.10
   4  -8   7   88.59   11.00
   4  -8   7   99.29   14.70
   4  -8   7   70.99   17.80
  -5   8  -7   22.80   10.10
   5  -8   7   26.20    6.30
   5  -8   7   44.50   11.50
   4   7  -7   18.80    7.70
  -4  -7   7   27.40   13.60
   3   7  -7  103.99    9.40
  -3  -7   7  124.39   22.10
  -2  -7   7   33.20   12.60
  -1  -7   7   32.60   11.90
   0  -7   7   63.79   15.00
   1  -7   7   34.40   12.80
  -2   7  -7   54.29    5.10
   2  -7   7   63.29   16.30
  -3   7  -7   -1.70    4.00
   3  -7   7    4.80    4.70
   3  -7   7   -3.50    6.20
  -4   7  -7  128.79   16.00
   4  -7   7  137.79   19.20
   4  -7   7  120.39   11.10
   5  -7   7   83.49    7.60
   5  -7   7   47.30   13.50
   5   6  -7  -10.00    6.00
  -5  -6   7  -14.40   11.30
  -4  -6   7    0.70    9.90
   3   6  -7    3.60    4.10
  -3  -6   7    7.20    8.10
   2   6  -7   24.70    4.80
   2   6  -7   15.00    3.50
  -2  -6   7   -0.60    6.10
  -1  -6   7   57.69   13.80
   0  -6   7   26.60    9.90
  -1   6  -7   48.30    5.20
   1  -6   7   31.30   10.30
  -2   6  -7   59.29    8.30
   2  -6   7   54.29    9.00
   2  -6   7   44.60   11.30
  -3   6  -7  234.98   16.60
   3  -6   7  237.48   22.70
  -4   6  -7   -6.90    6.50
   4  -6   7    3.70    6.40
   4  -6   7    4.00    3.40
   5  -6   7   95.69   19.90
   5  -6   7   80.09    7.60
   6  -6   7   33.30   15.20
   6   5  -7    6.30    9.30
  -6  -5   7   -2.70    9.80
   5   5  -7  115.89   16.20
  -5  -5   7  102.09   22.20
   4   5  -7   20.70    7.40
  -4  -5   7   17.30   10.40
   3   5  -7   33.30    7.00
  -3  -5   7   12.60   10.30
   2   5  -7   17.00    4.70
  -2  -5   7   -1.60    6.00
   1   5  -7    4.70    4.00
   1   5  -7    7.90    3.00
   1   5  -7   -1.50    3.50
  -1  -5   7    3.30    5.90
   0   5  -7   58.49    7.70
   0   5  -7   59.89   11.40
   0  -5   7   49.20   11.50
  -1   5  -7  863.41   36.70
  -1   5  -7  786.12   30.90
   1  -5   7  790.72   33.20
   1  -5   7  764.42   41.60
  -2   5  -7 1084.99   41.10
  -2   5  -7 1092.39   42.20
   2  -5   7 1029.50   39.20
  -3   5  -7  770.62   35.20
  -3   5  -7  797.72   33.10
   3  -5   7  751.92   40.70
   3  -5   7  754.62   30.00
  -4   5  -7  438.36   21.40
   4  -5   7  392.96   18.90
   4  -5   7  493.75   33.80
   5  -5   7   21.70   10.00
   5  -5   7   31.30    5.20
   6  -5   7   95.19   21.40
   6   4  -7   62.59   13.70
  -6  -4   7   78.39   19.70
   5   4  -7   17.60    7.70
  -5  -4   7   23.70   10.60
   4   4  -7    4.50    5.40
  -4  -4   7    2.00    7.10
   3   4  -7   15.70    5.30
   3   4  -7    6.00    5.70
  -3  -4   7    8.00    8.30
   2   4  -7  102.39   15.00
   2   4  -7   82.49    8.10
  -2  -4   7   86.59   15.80
   1   4  -7   49.20    9.90
   1   4  -7   38.00    8.60
  -1  -4   7   59.39   12.10
   0   4  -7 1063.29   43.80
   0   4  -7 1065.99   41.60
   0  -4   7 1189.68   50.29
   0  -4   7 1089.49   41.50
  -1   4  -7   59.09    9.40
  -1   4  -7   64.19   10.90
   1  -4   7   47.70    8.40
  -2   4  -7   30.50    8.70
  -2   4  -7   18.30    5.70
   2  -4   7   21.90    6.10
   2  -4   7   15.40    6.60
  -3   4  -7   79.89   10.70
  -3   4  -7   67.29   13.40
   3  -4   7   69.19   14.90
   3  -4   7   69.39    8.90
  -4   4  -7   69.69    9.40
   4  -4   7   65.39   15.50
   4  -4   7   64.79    8.40
  -5   4  -7   17.20    5.30
   5  -4   7   13.00   11.30
   6  -4   7   34.10   14.50
   7   3  -7    6.20    9.30
  -7  -3   7   12.30   11.40
   6   3  -7   20.80   10.40
  -6  -3   7   -4.40    8.70
   5   3  -7  107.09   15.10
  -5  -3   7  105.69   20.00
   4   3  -7    8.70    6.70
   4   3  -7   17.50    6.80
   4   3  -7    3.20    3.50
  -4  -3   7    2.20    6.20
   3   3  -7   21.50    7.50
   3   3  -7   23.00    6.00
  -3  -3   7   16.10    7.30
   2   3  -7  181.68   16.00
   2   3  -7  214.68   13.30
  -2  -3   7  203.38   18.60
   1   3  -7   91.39   13.60
   1   3  -7  101.79   13.70
  -1  -3   7   92.99   12.00
  -1  -3   7  103.39   15.40
   0   3  -7   53.09    9.90
   0   3  -7   59.59   10.90
   0  -3   7   60.39   12.10
   0  -3   7   56.29    9.00
  -1   3  -7 2476.55   77.69
  -1   3  -7 2475.25   82.99
  -2   3  -7 1037.90   38.80
   2  -3   7 1035.10   36.90
   2  -3   7  916.71   48.10
  -3   3  -7  168.78   12.80
   3  -3   7  158.08   23.90
   3  -3   7  156.88   11.40
   4  -3   7  373.86   32.30
   4  -3   7  348.07   17.80
  -5   3  -7   14.50    5.30
   5  -3   7   17.10   10.30
  -6   3  -7   15.10    4.90
   6  -3   7   11.10   11.70
   7   2  -7   59.89   15.50
  -7  -2   7   71.99   17.90
   6   2  -7    6.20    6.80
  -6  -2   7   -3.60    6.90
   5   2  -7   98.69   15.70
   5   2  -7  100.69   15.60
   5   2  -7  100.59   15.10
  -5  -2   7  123.49   19.70
   4   2  -7  181.68   15.00
   4   2  -7  153.88   18.80
  -4  -2   7  166.38   17.60
   3   2  -7    6.90    5.30
   3   2  -7    2.10    4.20
  -3  -2   7    4.10    5.10
   2   2  -7 1954.10   67.29
  -2  -2   7 1924.81   64.49
  -2  -2   7 2027.20   76.59
   1   2  -7   81.59   13.60
   1   2  -7   76.79   11.30
  -1  -2   7   83.39   11.40
  -1  -2   7   67.99   12.00
   0   2  -7  434.86   23.10
   0  -2   7  433.46   21.90
  -1   2  -7  136.79   18.90
  -1   2  -7  113.59   10.90
  -2   2  -7  151.38   20.20
  -2   2  -7  175.18   13.10
   2  -2   7  145.29   11.80
   2  -2   7  184.08   25.40
  -3   2  -7  140.29   11.60
   3  -2   7  105.69   10.20
   3  -2   7   96.39   20.80
  -4   2  -7   -0.30    3.50
   4  -2   7   -1.10    4.00
   4  -2   7   -7.50    9.10
  -5   2  -7    6.50    3.90
   5  -2   7   10.80   10.90
   8   1  -7    3.50    7.30
  -8  -1   7   14.20   13.90
   7   1  -7   36.00   11.50
  -7  -1   7   34.70   13.80
   6   1  -7    4.90    6.30
   6   1  -7   -7.50    6.10
   6   1  -7    3.00    5.30
  -6  -1   7    3.90    7.50
   5   1  -7   35.00    9.50
   5   1  -7   34.60    8.80
   5   1  -7   32.00    9.20
  -5  -1   7   45.90   11.20
   4   1  -7  642.04   32.20
   4   1  -7  611.24   29.70
   4   1  -7  607.64   29.50
  -4  -1   7  641.14   32.90
   3   1  -7   26.80    7.60
  -3  -1   7   18.00    6.60
  -3  -1   7   25.00    7.90
   2   1  -7  415.16   23.10
  -2  -1   7  378.86   21.30
  -2  -1   7  428.26   23.80
   1   1  -7 1263.37   46.70
   1   1  -7 1206.08   53.19
  -1  -1   7 1305.67   48.20
  -1  -1   7 1273.67   45.60
   0   1  -7   94.29   16.60
   0   1  -7  110.39   13.30
   0  -1   7   74.59   10.10
  -1   1  -7  178.98   13.90
  -1   1  -7  212.58   20.30
   1  -1   7  163.28   12.40
   1  -1   7  160.38   22.20
  -2   1  -7   50.19    8.90
   2  -1   7   46.60    8.30
   2  -1   7   41.50   10.90
  -3   1  -7    3.80    3.20
   3  -1   7   -3.20    7.80
   3  -1   7    5.10    4.60
  -4   1  -7   51.09    8.00
   4  -1   7   66.49   18.50
  -5   1  -7   17.90    5.50
   5  -1   7   26.50   14.60
   8   0  -7    0.00    8.60
  -8   0   7    4.60   10.30
   7   0  -7   35.50   11.60
   7   0  -7   22.10    9.60
   7   0  -7   19.00    8.60
  -7   0   7   42.30   12.10
   6   0  -7   37.00    9.00
   6   0  -7   15.30    7.50
   6   0  -7   28.30    9.40
  -6   0   7   19.40    7.10
   5   0  -7   47.50   10.20
   5   0  -7   34.50    8.10
   5   0  -7   43.80   10.00
  -5   0   7   25.40    8.50
   4   0  -7  200.18   16.50
   4   0  -7  169.08   15.00
  -4   0   7  198.48   15.50
   3   0  -7  229.98   17.00
  -3   0   7  180.78   14.20
  -3   0   7  242.88   15.90
   2   0  -7  391.36   21.90
  -2   0   7  375.46   20.60
  -2   0   7  369.86   20.40
   1   0  -7   26.80    6.60
   1   0  -7   21.20   10.80
  -1   0   7   11.10    4.60
   0   0  -7  393.16   21.40
   0   0  -7  388.06   28.70
   0   0   7  375.36   25.80
   0   0   7  379.16   20.60
  -1   0  -7  166.88   13.40
   1   0   7  143.19   20.30
   1   0   7  148.29   12.00
  -2   0  -7  117.89   11.30
   2   0   7  109.29   12.40
   2   0   7   91.69   19.60
  -3   0  -7  475.25   24.20
   3   0   7  487.95   39.30
   3   0   7  444.46   23.40
  -4   0  -7   73.59   11.20
   4   0   7   88.19   21.30
  -5   0  -7    1.70    5.00
   5   0   7    7.10   10.80
   8  -1  -7    1.60    6.50
   8  -1  -7    0.20    6.20
  -8   1   7   10.50    9.30
   7  -1  -7   56.59   12.00
   7  -1  -7   31.10    8.40
   7  -1  -7   47.20   10.10
  -7   1   7   37.10   11.10
   6  -1  -7   37.20   10.00
   6  -1  -7   40.30    8.70
   6  -1  -7   28.10    9.20
  -6   1   7   36.30    9.20
   5  -1  -7    8.00    4.80
   5  -1  -7   -1.90    4.40
  -5   1   7    8.10    5.10
   4  -1  -7  653.93   31.00
  -4   1   7  635.54   26.60
   3  -1  -7  366.56   21.60
  -3   1   7  300.77   18.90
  -3   1   7  386.66   18.20
   2  -1  -7  221.88   16.00
  -2   1   7  231.18   14.50
  -2   1   7  240.48   16.10
   1  -1  -7  254.37   24.10
   1  -1  -7  290.07   18.40
  -1   1   7  297.27   18.00
  -1   1   7  283.17   19.40
   0  -1  -7    8.90    4.60
   0  -1  -7    9.10    9.70
   0   1   7   -5.90    5.10
   0   1   7    9.50    3.70
  -1  -1  -7  437.86   23.60
   1   1   7  476.55   27.00
   1   1   7  431.46   30.10
  -2  -1  -7   14.90    5.80
   2   1   7   14.60   10.30
  -3  -1  -7  140.79   13.40
   3   1   7  134.49   26.30
  -4  -1  -7   86.09   12.60
   4   1   7   96.69   25.50
   8  -2  -7   27.70    9.90
   8  -2  -7   24.80    7.60
  -8   2   7   29.60    9.50
   7  -2  -7   16.10    8.40
   7  -2  -7   24.20    6.00
   7  -2  -7   28.00    8.30
  -7   2   7   18.30    7.80
   6  -2  -7   51.89   11.30
   6  -2  -7   35.90    8.80
  -6   2   7   59.89    9.10
   5  -2  -7  158.68   14.40
   5  -2  -7  166.28   16.00
  -5   2   7  139.99    9.30
   4  -2  -7  227.88   17.10
   3  -2  -7  442.46   23.90
  -3   2   7  408.66   17.20
  -3   2   7  446.86   17.10
   2  -2  -7  458.85   33.20
   2  -2  -7  556.64   27.40
  -2   2   7  603.94   25.40
   1  -2  -7   47.40    9.00
  -1   2   7   46.40    9.80
   0  -2  -7   35.80    8.00
   0   2   7   34.00    9.30
  -1  -2  -7  283.87   18.80
   1   2   7  248.98   23.30
  -2  -2  -7  245.88   18.20
   2   2   7  242.88   33.60
  -3  -2  -7    0.50    5.10
   3   2   7   -1.30    7.80
  -4  -2  -7   20.20    7.30
   4   2   7    1.50   12.80
   8  -3  -7    7.30    7.50
   8  -3  -7   31.20    9.30
   8  -3  -7    4.10    5.10
   7  -3  -7  116.49   18.00
   7  -3  -7  110.99   15.40
   7  -3  -7   97.69    8.90
   6  -3  -7   92.19   13.60
   6  -3  -7   50.69   12.10
   5  -3  -7   40.80    9.40
   5  -3  -7   51.59   11.30
   4  -3  -7  163.28   14.50
   3  -3  -7   36.60    7.80
   2  -3  -7   48.90    8.80
  -2   3   7   47.90    7.00
   1  -3  -7  960.40   39.20
  -1   3   7  846.92   37.20
   0  -3  -7  203.58   16.20
   0   3   7  157.18   16.60
  -1  -3  -7  117.49   15.20
  -2  -3  -7   36.90    9.00
   2   3   7   17.20   10.10
   3   3   7   12.70   12.40
   8  -4  -7   -0.40    3.30
   8  -4  -7   19.30   10.70
   8  -4  -7   -5.90    5.30
   7  -4  -7   99.19   13.70
   7  -4  -7   89.69   16.60
   6  -4  -7  178.98   15.90
   5  -4  -7  145.09   14.40
   4  -4  -7  573.44   29.40
   3  -4  -7  151.58   14.30
   2  -4  -7 1097.29   44.60
  -2   4   7 1072.69   37.70
   1  -4  -7   44.90    9.40
  -1   4   7   32.60    8.10
   0  -4  -7   79.49   12.70
   0   4   7   79.69   15.30
  -1  -4  -7   16.80    6.90
  -2  -4  -7   40.80   10.20
  -3  -4  -7    5.00    6.40
   3   4   7    2.00   13.70
   8  -5  -7   20.50    9.80
   8  -5  -7   -0.50    5.00
   7  -5  -7   70.49   13.70
   7  -5  -7   82.99   12.80
   6  -5  -7  119.69   15.90
   6  -5  -7   98.39   16.40
   5  -5  -7   93.69   13.70
   4  -5  -7  246.88   18.90
   3  -5  -7   59.09   11.00
   2  -5  -7   23.20    7.90
  -2   5   7   18.20    8.10
   1  -5  -7   70.59   12.20
  -1   5   7   74.19   12.20
   0  -5  -7    9.30    6.10
   0   5   7   -5.90    8.40
  -1  -5  -7   23.30    8.10
  -2  -5  -7   -3.90    5.50
   8  -6  -7    3.40    7.10
   8  -6  -7   -1.80    6.50
   7  -6  -7   50.89   10.80
   7  -6  -7   25.10    9.00
   6  -6  -7   31.20    8.90
   6  -6  -7   42.00   10.90
   5  -6  -7   62.99   11.30
   4  -6  -7   66.49   12.70
   2  -6  -7  121.79   16.60
  -2   6   7  103.89   11.10
   1  -6  -7  222.28   18.60
  -1   6   7  226.78   19.20
   0  -6  -7   72.49   13.40
  -1  -6  -7   81.39   14.90
  -1  -6  -7   83.49   19.60
   8  -7  -7   -4.10    7.30
   8  -7  -7    5.90    7.10
   7  -7  -7   64.59   15.30
   7  -7  -7   37.90   10.10
   6  -7  -7  159.58   22.30
   6  -7  -7  187.98   17.90
   5  -7  -7   69.49   13.00
   4  -7  -7   22.90    8.00
   3  -7  -7   37.70    9.40
   2  -7  -7    9.80    6.60
  -2   7   7   12.80    6.90
   1  -7  -7   57.99   12.00
  -1   7   7   69.19   14.30
   0  -7  -7   18.40   11.20
   0  -7  -7   10.20    6.70
   7  -8  -7   68.99   12.70
   7  -8  -7   49.00   13.30
   6  -8  -7  -12.10    4.20
   6  -8  -7    1.80    6.10
   5  -8  -7    5.60    6.10
   4  -8  -7    4.80    6.60
   3  -8  -7   12.50    5.90
   2  -8  -7   -4.50    5.00
  -2   8   7   -2.80    9.10
   1  -8  -7   -5.60    5.20
   1  -8  -7    4.00    9.20
   5  -9  -7    4.80    6.60
   4  -9  -7   26.60    7.60
   3  -9  -7   12.50    7.60
   1 -10   8    3.70   10.60
   2 -10   8   -4.50    9.50
  -2  -9   8   21.90   15.20
  -1  -9   8   -7.40    8.40
   0  -9   8   19.50   10.50
   1  -9   8   -2.80    7.50
   2  -9   8   13.10    8.20
   3  -9   8   17.10    9.70
   4  -9   8   36.00   13.50
  -3  -8   8   51.59   18.30
  -2  -8   8   26.60   12.10
  -1  -8   8   -2.60    7.10
   0  -8   8   57.49   16.20
   1  -8   8  103.09   20.40
   2  -8   8   44.90   13.80
   3  -8   8  139.29   24.20
  -4   8  -8   -5.70    7.70
   4  -8   8    3.20    7.90
   4   7  -8   58.69    9.00
  -4  -7   8   61.19   19.30
   3   7  -8   17.50    5.20
   3   7  -8   15.50    4.30
  -3  -7   8   22.60   14.00
  -2  -7   8   31.00   13.00
  -1  -7   8   -2.20    6.40
   0  -7   8   35.30   13.10
   1  -7   8  111.79   20.70
   2  -7   8    8.60    7.30
  -3   7  -8   39.00    8.80
   3  -7   8   53.79   15.50
  -4   7  -8  311.57   22.10
   4  -7   8  322.07   18.20
   5  -7   8   32.90   14.10
   5   6  -8   10.70    7.70
  -5  -6   8   10.10   10.10
  -4  -6   8    0.90   10.10
   3   6  -8   -4.00    3.70
  -3  -6   8    1.70    7.40
   2   6  -8   49.30    5.90
   2   6  -8   64.19    8.50
  -2  -6   8   52.49   14.90
   1   6  -8  322.27   12.00
   1   6  -8  323.87   13.10
  -1  -6   8  330.47   28.80
   0   6  -8  190.68    9.20
   0   6  -8  183.58   10.00
   0  -6   8  204.88   21.70
  -1   6  -8  817.12   39.30
   1  -6   8  846.52   46.40
  -2   6  -8  137.99   16.70
  -2   6  -8  108.59   11.70
   2  -6   8  160.38   24.00
   3  -6   8    2.90    4.30
   4  -6   8    4.90    8.50
   4  -6   8    2.90    5.10
   5  -6   8    8.00   11.80
   5  -6   8   -3.80    6.60
   5   5  -8    8.70    6.30
  -5  -5   8   22.00   12.90
   4   5  -8   44.00    9.40
   3   5  -8   -4.40    3.60
  -3  -5   8    1.00    7.30
   2   5  -8   32.90    8.10
   2   5  -8   34.50    6.60
   2   5  -8   33.70    9.00
  -2  -5   8   42.30   13.00
   1   5  -8  738.83   26.40
   1   5  -8  710.93   37.10
   1   5  -8  680.93   29.90
  -1  -5   8  757.12   42.90
   0   5  -8  164.38   13.30
   0   5  -8  178.48   17.10
   0  -5   8  171.28   19.10
  -1   5  -8   88.59   11.70
  -1   5  -8   96.89   14.40
   1  -5   8   97.29   17.30
  -2   5  -8  534.15   27.70
  -2   5  -8  485.45   26.90
   2  -5   8  439.56   26.80
  -3   5  -8    6.00    6.30
  -3   5  -8    0.70    3.50
   3  -5   8   -3.80    6.10
   3  -5   8   -3.20    4.10
  -4   5  -8   81.29   10.80
   4  -5   8   80.49   16.30
   5  -5   8   11.70   10.80
   5  -5   8   10.90    5.00
   6   4  -8    0.60    7.90
  -6  -4   8    1.00   10.60
   5   4  -8   36.50   10.10
  -5  -4   8   46.30   15.00
   4   4  -8  122.79   12.50
   4   4  -8   86.39   15.20
  -4  -4   8  135.99   22.40
   3   4  -8   53.09    8.60
   3   4  -8   61.29   12.90
  -3  -4   8   60.59   14.90
   2   4  -8   31.00    6.60
   2   4  -8   24.30    7.90
   2   4  -8   21.90    6.90
  -2  -4   8   38.20   11.40
   1   4  -8    3.70    5.00
   1   4  -8    5.90    5.80
  -1  -4   8    9.70    7.60
   0   4  -8  637.44   32.60
   0   4  -8  615.14   31.70
   0  -4   8  648.94   37.10
  -1   4  -8   85.69   12.80
  -1   4  -8   70.89   12.30
  -2   4  -8   51.59    9.10
  -2   4  -8   56.09   12.20
   2  -4   8   30.00    7.00
  -3   4  -8   78.79   11.50
   3  -4   8   89.59   17.80
   3  -4   8   63.69   10.00
  -4   4  -8   51.49    8.60
   4  -4   8   52.99   15.20
   5  -4   8   -1.70    4.70
   5  -4   8  -13.80    8.00
   7   3  -8   25.80   12.00
  -7  -3   8   45.10   15.20
   6   3  -8   58.79   12.90
  -6  -3   8   86.19   19.80
   5   3  -8   11.70    8.00
   5   3  -8   10.90    7.20
  -5  -3   8   26.60   10.70
   4   3  -8  100.09   15.20
   4   3  -8  109.59   14.50
  -4  -3   8   73.79   15.50
   3   3  -8  180.18   14.30
   3   3  -8  158.78   20.10
  -3  -3   8  234.98   22.10
   2   3  -8    9.00    5.80
   2   3  -8   -1.70    5.50
  -2  -3   8    0.80    4.60
   1   3  -8  929.11   44.10
   1   3  -8 1055.09   44.10
  -1  -3   8 1075.19   47.70
   0   3  -8  100.99   15.70
   0   3  -8  112.39   14.50
   0  -3   8  125.59   18.40
  -1   3  -8  490.75   33.50
  -1   3  -8  463.35   25.30
   1  -3   8  431.76   23.10
  -2   3  -8  128.99   20.90
  -2   3  -8  134.89   12.80
   2  -3   8  132.79   11.80
  -3   3  -8   12.40    5.50
   3  -3   8   12.20   10.40
   3  -3   8   11.20    5.40
  -4   3  -8  136.59   12.10
   4  -3   8   93.59   10.80
  -5   3  -8   26.10    7.70
   5  -3   8   54.69   18.90
   7   2  -8   53.29   14.60
  -7  -2   8   64.39   17.90
   6   2  -8   83.09   15.50
   6   2  -8  100.99   17.00
  -6  -2   8   75.79   16.80
   5   2  -8   -2.70    5.40
   5   2  -8    8.20    5.80
  -5  -2   8   -9.90    6.20
   4   2  -8  224.08   17.50
   4   2  -8  253.87   20.90
  -4  -2   8  256.37   22.50
   3   2  -8    1.00    3.20
   3   2  -8    0.90    4.80
  -3  -2   8   -2.50    4.40
   2   2  -8   51.29   11.50
   2   2  -8   52.09   10.80
  -2  -2   8   65.89   13.00
   1   2  -8   11.90    5.20
   1   2  -8   25.80    9.80
  -1  -2   8   12.70    7.40
   0   2  -8 1305.37   63.09
   0   2  -8 1392.06   51.49
  -1   2  -8  521.75   33.80
  -1   2  -8  541.65   26.90
   1  -2   8  497.65   25.20
  -2   2  -8    2.80    4.20
   2  -2   8   -2.90    3.20
   2  -2   8    4.70    5.80
  -3   2  -8    4.30    3.30
   3  -2   8    9.60    6.80
   3  -2   8    5.60    4.80
  -4   2  -8   78.49   10.60
   4  -2   8   60.99   18.30
   4  -2   8   60.19    9.80
  -5   2  -8   40.50    8.50
   5  -2   8   30.80   17.40
   7   1  -8    1.10    8.40
   7   1  -8    9.10    6.90
  -7  -1   8   19.40   10.50
   6   1  -8   70.69   13.60
   6   1  -8   84.59   14.40
  -6  -1   8   94.09   15.50
   5   1  -8    7.50    5.40
   5   1  -8    3.40    6.60
  -5  -1   8    4.30    6.40
   4   1  -8   -0.80    3.00
   4   1  -8    1.50    5.00
  -4  -1   8   -2.20    4.70
   3   1  -8  604.74   32.40
  -3  -1   8  690.53   33.30
   2   1  -8   61.09   12.20
   2   1  -8   56.89   10.80
  -2  -1   8   50.89   12.40
   1   1  -8  997.10   40.60
   1   1  -8  892.31   46.40
   0   1  -8  129.49   12.60
   0   1  -8   89.29   16.30
  -1   1  -8   36.70    8.50
  -2   1  -8  484.75   25.40
   2  -1   8  474.45   37.50
  -3   1  -8    3.50    4.20
  -4   1  -8   52.09    9.40
   4  -1   8   72.09   16.40
   8   0  -8   21.70   11.60
   8   0  -8   10.70    8.00
  -8   0   8   19.00   11.60
   7   0  -8   -4.40    7.50
   7   0  -8    0.20    7.40
   7   0  -8   14.50    9.20
  -7   0   8   11.90    9.50
   6   0  -8   -0.80    5.50
   6   0  -8    2.90    5.90
   6   0  -8   17.50    7.10
  -6   0   8    2.60    5.60
   5   0  -8    8.40    6.40
   5   0  -8   26.40    8.90
  -5   0   8   25.90    7.90
   4   0  -8  176.88   16.60
   4   0  -8  128.99   16.80
  -4   0   8  131.29   13.10
   3   0  -8   21.20    7.40
  -3   0   8   20.60    6.60
   2   0  -8  978.10   51.19
   2   0  -8 1037.10   43.70
  -2   0   8 1178.08   43.60
   1   0  -8  997.60   41.30
   0   0  -8  301.07   19.60
   0   0   8  256.77   26.40
  -1   0  -8  394.66   23.10
  -2   0  -8  203.68   15.80
   2   0   8  162.88   27.70
  -3   0  -8   61.89   10.80
   3   0   8   74.59   20.40
  -4   0  -8   -1.40    5.40
   4   0   8    8.20   11.50
   8  -1  -8   13.60    7.60
   8  -1  -8   -5.90    7.30
   8  -1  -8   -7.90    6.30
  -8   1   8    2.10    9.20
   7  -1  -8    6.20    7.10
   7  -1  -8    1.20    6.40
   7  -1  -8    8.40    7.30
  -7   1   8    3.70    7.10
   6  -1  -8  152.08   20.30
   6  -1  -8  107.09   15.60
  -6   1   8  121.79   12.50
   5  -1  -8   30.30    8.80
   5  -1  -8   17.30    7.60
  -5   1   8   15.10    5.70
   4  -1  -8  409.16   24.70
  -4   1   8  403.06   20.40
   3  -1  -8  678.03   33.70
  -3   1   8  749.73   29.90
   2  -1  -8    2.80    3.70
  -2   1   8   11.90    5.70
  -2   1   8   15.00    5.20
   1  -1  -8  135.09   15.80
  -1   1   8  127.59   14.40
   0  -1  -8   32.00    8.30
  -1  -1  -8   43.60    8.60
  -2  -1  -8   39.40    8.90
  -3  -1  -8   20.10    7.50
   3   1   8    7.00    9.50
  -4  -1  -8    3.10    6.00
   4   1   8   -5.00   11.30
   8  -2  -8    9.90    7.20
   8  -2  -8   18.10    8.30
   8  -2  -8    1.30    8.00
   7  -2  -8   65.69   15.80
   7  -2  -8   84.29   16.80
  -7   2   8   73.29   11.00
   6  -2  -8   84.09   13.10
  -6   2   8   61.49    8.30
   5  -2  -8   58.89   11.20
   5  -2  -8   62.19   13.50
  -5   2   8   61.29    8.10
   4  -2  -8  607.14   30.70
  -4   2   8  555.54   18.80
  -4   2   8  512.15   18.80
   3  -2  -8   78.49   12.20
  -3   2   8   93.29    8.20
  -3   2   8   87.89    8.70
   2  -2  -8  200.68   16.70
  -2   2   8  204.18   15.30
   1  -2  -8  105.19   14.40
  -1   2   8  124.89   14.00
   0  -2  -8  243.08   18.40
   0   2   8  275.97   22.60
  -1  -2  -8  119.89   15.90
  -2  -2  -8   37.60    8.50
  -3  -2  -8   16.10    9.00
   3   2   8   -1.50   12.30
   8  -3  -8   29.40   10.60
   8  -3  -8   20.40   10.60
   7  -3  -8   -2.50    5.20
   7  -3  -8   -0.40    6.30
   6  -3  -8  199.18   19.70
   6  -3  -8  188.58   17.00
   5  -3  -8  209.58   18.10
   4  -3  -8   40.00    9.60
   3  -3  -8  536.55   29.40
  -3   3   8  544.85   18.50
  -3   3   8  591.64   23.20
   2  -3  -8  298.27   21.10
  -2   3   8  308.47   17.90
   1  -3  -8   26.00    7.90
  -1   3   8    6.70    7.30
   0  -3  -8    0.90    5.00
   0   3   8    2.20    7.00
  -2  -3  -8   14.40    7.30
  -3  -3  -8   86.29   14.70
   3   3   8  180.78   32.10
   8  -4  -8   22.60   10.50
   8  -4  -8   17.50    8.60
   7  -4  -8   24.60   10.00
   6  -4  -8  240.48   22.20
   6  -4  -8  277.67   20.80
   5  -4  -8  193.48   17.20
   4  -4  -8  455.65   27.00
   3  -4  -8    6.70    4.20
   2  -4  -8   76.89   12.70
  -2   4   8   88.29    9.40
  -1   4   8    3.90    6.30
   0  -4  -8  114.69   15.80
   0   4   8   87.09   16.60
  -1  -4  -8   -5.10    5.00
  -2  -4  -8   98.89   15.60
   8  -5  -8   10.80   10.10
   8  -5  -8   21.30    9.20
   7  -5  -8    0.00    7.40
   7  -5  -8   23.10    6.90
   6  -5  -8    5.50    5.70
   6  -5  -8    4.50    7.00
   5  -5  -8    0.40    5.80
   4  -5  -8    2.00    5.70
   3  -5  -8   -1.10    3.80
   2  -5  -8   -1.60    4.60
  -2   5   8    8.40    5.10
   1  -5  -8   40.10    9.70
  -1   5   8   33.20    9.80
   0  -5  -8   89.89   14.60
  -1  -5  -8   83.19   14.60
   7  -6  -8   38.90    9.90
   7  -6  -8   27.50    9.90
   6  -6  -8   74.59   16.30
   6  -6  -8   65.69   12.30
   5  -6  -8   49.20   10.20
   4  -6  -8   17.10    6.40
   3  -6  -8  112.69   15.80
   2  -6  -8  103.69   15.60
  -2   6   8  110.99   12.50
   1  -6  -8   39.00   10.00
  -1   6   8   18.30   10.80
   0  -6  -8  185.08   22.20
   7  -7  -8   83.89   17.00
   7  -7  -8   54.99   13.20
   6  -7  -8   11.20    7.00
   5  -7  -8    7.90    6.20
   4  -7  -8   16.20    7.20
   3  -7  -8    5.90    6.60
   2  -7  -8   16.00    6.90
  -2   7   8   -2.70    8.20
   1  -7  -8  154.28   19.70
   6  -8  -8    9.50    7.10
   5  -8  -8   28.10   10.10
   4  -8  -8    8.80    5.70
   3  -8  -8    8.20    6.90
   0  -9   9   -1.50    8.20
   1  -9   9    1.30    8.10
   2  -9   9   65.69   18.00
  -2  -8   9    5.70   11.00
  -1  -8   9   70.69   19.60
   0  -8   9   38.30   13.80
   1  -8   9   11.30   10.30
   2  -8   9   -4.10    9.40
   3  -8   9   48.20   15.00
   3   7  -9   31.90    6.80
  -3  -7   9   47.50   17.60
  -2  -7   9   17.20   11.60
  -1  -7   9   -1.70    8.40
   0  -7   9   41.00   13.20
  -1   7  -9   10.10    3.40
   1  -7   9   10.50    8.70
  -2   7  -9  179.28   13.40
   2  -7   9  200.08   29.40
  -3   7  -9    3.70    9.00
   3  -7   9   -6.90    7.80
  -4  -6   9    5.70   10.90
   3   6  -9  135.59   11.40
   3   6  -9  121.69   14.70
  -3  -6   9  179.08   28.20
   2   6  -9   56.29    7.20
  -2  -6   9   34.90   14.00
   1   6  -9  244.78   13.90
   1   6  -9  260.67   22.70
   1   6  -9  249.48   12.30
  -1  -6   9  248.18   25.70
   0   6  -9    3.60    5.40
   0  -6   9   -0.40    8.40
  -1   6  -9   13.40    6.70
  -1   6  -9    7.80    5.60
   1  -6   9    3.20    8.30
  -2   6  -9   44.20    9.60
  -2   6  -9   21.30    7.40
   2  -6   9   26.30   11.50
  -3   6  -9   -6.00    9.80
  -3   6  -9   12.40    6.70
   4  -6   9   50.79   14.90
   5   5  -9   35.80   10.30
  -5  -5   9   41.90   15.80
   4   5  -9   -0.50    4.70
  -4  -5   9    7.80   10.40
   3   5  -9   47.30   11.80
   3   5  -9   22.60    6.20
  -3  -5   9   53.49   15.20
   2   5  -9  182.18   17.60
   2   5  -9  233.58   13.90
   2   5  -9  258.47   22.80
  -2  -5   9  220.48   23.10
   1   5  -9    4.80    6.00
   1   5  -9   27.30    8.20
  -1  -5   9   10.50    7.30
   0   5  -9  309.67   23.30
   0   5  -9  326.27   20.90
   0  -5   9  299.27   26.50
  -1   5  -9   39.70   10.10
  -1   5  -9   65.19   12.60
   1  -5   9   55.29   16.10
  -2   5  -9  409.26   27.00
  -2   5  -9  426.66   25.80
  -3   5  -9   73.79   12.30
  -4   5  -9   86.29   11.90
   4  -5   9   53.39   15.70
   6   4  -9   43.60   12.60
  -6  -4   9   13.90   14.10
   5   4  -9   18.30    7.80
  -5  -4   9   32.40   18.00
   4   4  -9   23.20    8.00
   4   4  -9   20.00    9.70
  -4  -4   9   15.30   11.30
   3   4  -9   14.50    8.00
   3   4  -9   14.30    5.10
  -3  -4   9   11.30    8.60
   2   4  -9  137.79   20.60
   2   4  -9  126.69   17.50
   2   4  -9  114.69   17.20
  -2  -4   9  152.68   22.10
   1   4  -9   82.99   14.90
   1   4  -9   99.79   15.90
  -1  -4   9   98.59   17.50
   0   4  -9   32.50    8.80
   0   4  -9   31.80    8.90
   0  -4   9   36.40   11.50
  -1   4  -9   53.09   10.90
  -1   4  -9   84.49   14.00
  -2   4  -9  128.39   16.50
  -3   4  -9   70.29   11.20
  -4   4  -9    6.90    5.60
   4  -4   9   16.40   11.90
   6   3  -9   22.30    9.70
  -6  -3   9   36.90   13.90
   5   3  -9   14.60    7.10
   5   3  -9   32.80    9.10
  -5  -3   9    3.60    9.00
   4   3  -9  198.88   24.40
   4   3  -9  224.58   17.20
  -4  -3   9  251.27   24.70
   3   3  -9  526.45   27.20
   3   3  -9  615.54   40.60
  -3  -3   9  559.44   35.70
   2   3  -9    1.80    5.70
  -2  -3   9    1.80    5.90
   1   3  -9  841.82   40.20
  -1  -3   9  843.52   43.40
   0   3  -9  560.44   31.60
   0   3  -9  581.24   35.40
   0  -3   9  605.54   35.60
  -1   3  -9   11.00    6.50
  -2   3  -9   77.89   13.10
  -3   3  -9   46.70    9.90
   3  -3   9   18.30    9.40
  -4   3  -9    2.90    6.00
   4  -3   9   10.40   10.70
   7   2  -9    0.40    8.20
  -7  -2   9   14.50   12.40
   6   2  -9  104.39   16.20
   6   2  -9  125.19   20.10
  -6  -2   9  129.39   21.80
   5   2  -9    1.50    6.40
   5   2  -9    8.50    7.00
  -5  -2   9    0.90    7.50
   4   2  -9   54.09   14.20
   4   2  -9   15.40    8.20
  -4  -2   9   21.50    8.80
   3   2  -9   43.70   11.00
  -3  -2   9   40.50   11.80
   2   2  -9    3.20    4.80
   2   2  -9   12.90    8.60
  -2  -2   9   -0.30    5.90
   1   2  -9   69.29   11.30
   1   2  -9   65.39   14.50
  -1  -2   9   73.19   14.00
   0   2  -9   41.20    9.90
  -1   2  -9   81.29   13.20
  -2   2  -9    9.70    6.10
  -3   2  -9   63.19   10.70
   3  -2   9   70.69   19.20
  -4   2  -9   28.20    8.60
   4  -2   9   46.70   14.00
   7   1  -9   12.70    8.70
   7   1  -9    4.50    6.60
  -7  -1   9   16.90   10.80
   6   1  -9   59.49   14.10
  -6  -1   9   56.19   14.10
   5   1  -9  326.07   24.70
   5   1  -9  376.26   25.30
  -5  -1   9  352.66   25.90
   4   1  -9   12.10    6.00
   4   1  -9   -4.10    5.20
  -4  -1   9   -2.70    4.60
   3   1  -9  716.73   37.40
  -3  -1   9  810.72   38.30
   2   1  -9 1002.00   44.80
  -2  -1   9 1082.49   46.20
   1   1  -9   33.00    9.00
  -1  -1   9   42.90   10.80
   0   1  -9  383.96   24.20
  -1   1  -9   25.50    8.40
  -2   1  -9    8.80    6.60
  -3   1  -9   -1.80    5.00
   3  -1   9   13.70   11.10
  -4   1  -9   -5.70    5.40
   4  -1   9   12.30   12.10
   7   0  -9   10.10    8.40
   7   0  -9   14.60    8.20
  -7   0   9   22.40   10.30
   6   0  -9   74.79   14.70
   6   0  -9   79.99   15.00
  -6   0   9   93.89   15.30
   5   0  -9   17.30    7.10
   5   0  -9   10.90    5.80
  -5   0   9   30.30    8.30
   4   0  -9    8.50    6.10
  -4   0   9   19.10    6.90
   3   0  -9   67.29   12.40
  -3   0   9   65.09   11.30
   2   0  -9   98.29   14.90
   1   0  -9  150.88   18.00
   0   0  -9   -0.90    3.90
   0   0   9   11.50    8.30
  -1   0  -9   42.70   10.30
  -2   0  -9  -12.50    4.00
  -3   0  -9   50.79   10.40
   3   0   9   58.79   19.20
   7  -1  -9   21.20    9.80
   7  -1  -9    9.80    6.90
  -7   1   9   13.70    7.80
   6  -1  -9   65.19   14.30
   6  -1  -9   32.20    8.90
  -6   1   9   42.30    8.50
   5  -1  -9  116.19   18.00
   5  -1  -9  117.79   23.80
  -5   1   9  105.69   11.10
   4  -1  -9  200.68   17.70
  -4   1   9  195.48   14.10
   3  -1  -9   91.29   13.80
  -3   1   9   74.89   10.60
   2  -1  -9   10.30    5.50
  -2   1   9   -1.70    4.20
  -2   1   9   -3.10    6.00
   1  -1  -9   -1.90    3.50
  -1   1   9  -12.80    6.20
   0  -1  -9   -0.80    4.90
   0   1   9   -1.70    7.70
  -1  -1  -9   12.40    5.00
  -3  -1  -9   45.70   10.00
   7  -2  -9   13.00    6.60
   7  -2  -9    1.20    6.30
  -7   2   9   -1.10    5.00
   6  -2  -9   15.00    7.00
   6  -2  -9   21.20   10.20
   5  -2  -9   -0.70    4.50
   4  -2  -9   18.90    9.00
  -4   2   9   31.00    5.00
  -4   2   9   25.10    4.40
   3  -2  -9  457.85   27.40
  -3   2   9  442.86   20.80
   2  -2  -9    3.90    4.80
  -2   2   9    8.20    6.00
   1  -2  -9    0.60    3.40
  -1   2   9    6.20    7.90
   0   2   9   17.80   10.70
  -1  -2  -9   87.79   14.10
  -2  -2  -9   15.10    8.30
   7  -3  -9   53.09   11.30
   7  -3  -9   55.79   14.90
   6  -3  -9   11.00    7.70
   6  -3  -9   30.40    9.10
   5  -3  -9  111.09   16.50
   4  -3  -9  418.06   26.90
   3  -3  -9    3.20    5.70
  -3   3   9    6.90    3.20
  -3   3   9    3.90    3.20
   2  -3  -9    7.80    6.20
  -2   3   9   -2.20    5.20
   1  -3  -9    4.20    5.70
  -1   3   9   -6.60    7.40
   0  -3  -9    4.50    5.10
  -1  -3  -9  133.29   17.60
  -2  -3  -9   -4.60    6.10
   7  -4  -9    5.40    6.70
   7  -4  -9    2.00    5.90
   6  -4  -9  153.58   22.70
   6  -4  -9  146.69   19.30
   5  -4  -9   22.40    7.40
   4  -4  -9  227.28   19.60
   3  -4  -9   38.70    9.90
   2  -4  -9  187.38   17.80
  -2   4   9  172.28   14.60
   1  -4  -9   30.70    9.40
  -1   4   9   13.70    8.70
   0  -4  -9   -2.70    5.00
  -1  -4  -9    7.40    6.90
   7  -5  -9    2.40    6.90
   7  -5  -9    2.00    6.50
   6  -5  -9    9.80    6.10
   6  -5  -9    9.40    6.60
   5  -5  -9   68.89   13.30
   4  -5  -9   35.40    8.90
   3  -5  -9    2.40    4.70
   2  -5  -9   50.39   10.90
  -2   5   9   47.20    8.80
   1  -5  -9  138.89   19.00
  -1   5   9  131.49   19.20
   0  -5  -9    7.20    6.70
   6  -6  -9    7.60    6.20
   5  -6  -9   38.80   10.30
   4  -6  -9   75.99   13.70
   3  -6  -9   11.40    7.90
   2  -6  -9   -3.20    5.20
  -2   6   9   -0.10    7.60
   1  -6  -9   55.19   12.60
   5  -7  -9    6.20    6.60
   4  -7  -9   -6.70    5.90
   3  -7  -9  241.38   22.40
   0  -8  10    6.10   10.70
   1  -8  10   18.00   10.60
  -2  -7  10   78.89   20.10
  -1  -7  10   14.80   10.50
   0  -7  10  188.68   29.00
   1  -7  10   36.80   12.70
   2  -7  10   11.20    9.30
   3   6 -10  219.98   28.10
   3   6 -10  197.78   14.40
  -3  -6  10  258.37   28.70
   2   6 -10   -4.30    3.90
   2   6 -10   13.20    8.60
  -2  -6  10    2.70    8.10
   1   6 -10   12.00    9.40
   1   6 -10    1.10    4.00
   1   6 -10    2.00    6.40
  -1  -6  10   -2.10    9.10
   0   6 -10   51.59   13.20
   0   6 -10   25.80    8.10
   0  -6  10   39.40   14.00
  -1   6 -10    0.20    9.00
  -1   6 -10   27.40    9.20
   1  -6  10   31.20   13.90
  -2   6 -10   -4.40    9.90
   2  -6  10    6.40    7.80
  -3   6 -10   73.79   13.60
   4   5 -10    9.20    7.30
  -4  -5  10   11.80   12.00
   3   5 -10    6.40   11.20
   3   5 -10    2.50    6.10
   3   5 -10   -3.20    5.80
  -3  -5  10   14.60   11.40
   2   5 -10  237.28   22.90
   2   5 -10  298.47   22.00
  -2  -5  10  289.17   27.10
   1   5 -10    4.60    6.50
   1   5 -10   19.80    8.60
  -1  -5  10   18.50    9.90
   0   5 -10   83.39   15.50
   0   5 -10   62.69   13.00
   0  -5  10   67.69   15.40
  -1   5 -10   30.60   12.90
   1  -5  10   56.59   15.60
  -2   5 -10    6.70    6.80
  -3   5 -10   16.90    8.40
   5   4 -10   38.20   12.50
   5   4 -10   47.30   11.60
  -5  -4  10   51.59   16.00
   4   4 -10   87.89   18.30
   4   4 -10  103.49   15.00
  -4  -4  10  121.69   24.80
   3   4 -10  127.69   12.70
   3   4 -10   80.99   15.70
   3   4 -10  143.69   21.40
  -3  -4  10   91.79   19.20
   2   4 -10   -0.20    5.90
   2   4 -10    3.90    4.80
   2   4 -10   -7.10   10.30
  -2  -4  10    4.40    8.10
   1   4 -10   -2.50    5.00
   1   4 -10   -5.50    9.30
  -1  -4  10   -1.70    5.60
   0   4 -10   15.00   10.30
   0  -4  10    8.10    8.30
  -1   4 -10   68.29   13.20
  -2   4 -10    8.10    6.30
  -3   4 -10   78.99   12.60
   6   3 -10   25.70   11.20
   5   3 -10  131.69   18.30
   5   3 -10  173.28   23.60
  -5  -3  10  175.28   25.90
   4   3 -10   -5.00    5.10
   4   3 -10   -5.30    5.60
  -4  -3  10    9.90    7.80
   3   3 -10   98.59   17.10
   3   3 -10   90.59   13.50
  -3  -3  10   98.49   18.00
   2   3 -10   22.80   10.20
   2   3 -10    7.40    5.70
  -2  -3  10   24.00    9.30
   1   3 -10   -3.70    4.70
  -1  -3  10    0.60    6.40
   0   3 -10   20.20    8.70
   0  -3  10   13.00    7.90
  -1   3 -10   -2.90    5.70
  -2   3 -10    1.90    6.30
  -3   3 -10   27.90    9.20
   6   2 -10   12.70    9.50
   6   2 -10   17.30   10.20
  -6  -2  10   18.20   11.70
   5   2 -10   18.30    9.20
   5   2 -10   24.50    7.60
  -5  -2  10   26.30   11.60
   4   2 -10    2.60    5.30
   4   2 -10   -2.40    5.60
  -4  -2  10    5.30    6.90
   3   2 -10   -6.00    2.80
  -3  -2  10   -8.60    6.40
   2   2 -10   25.80    9.20
  -2  -2  10   12.10    6.90
  -1  -2  10   56.39   13.30
   0   2 -10   87.09   13.80
  -1   2 -10   64.49   11.40
  -2   2 -10   -2.00    3.90
  -3   2 -10   45.50   11.40
   6   1 -10   18.30    9.90
   6   1 -10    5.20    8.60
  -6  -1  10   -2.30    7.50
   5   1 -10  106.29   16.40
   5   1 -10  118.89   18.60
  -5  -1  10   95.89   15.40
   4   1 -10   41.70   11.60
   4   1 -10   50.59   11.90
  -4  -1  10   39.00   11.60
   3   1 -10    1.60    4.90
  -3  -1  10    1.90    5.40
   2   1 -10  309.47   23.80
  -2  -1  10  309.67   23.30
  -1  -1  10   85.69   15.30
  -2   1 -10   13.30    8.40
  -3   1 -10    7.60    7.70
   7   0 -10   12.20    9.10
   7   0 -10    2.30    8.50
  -7   0  10   10.30    9.40
   6   0 -10   29.40   10.20
   6   0 -10   27.60   11.00
  -6   0  10   30.10    9.20
   5   0 -10   -8.70    4.20
   5   0 -10   -1.20    6.80
   4   0 -10   15.60    6.60
  -4   0  10    4.30    5.80
   3   0 -10   57.09   11.60
  -3   0  10   33.40    9.70
   2   0 -10    9.50    7.00
  -2   0  10   17.60    7.10
   1   0 -10  198.88   18.10
  -1   0  10  215.98   21.80
   0   0 -10   11.60    8.00
  -1   0 -10   99.99   15.40
  -2   0 -10   41.90   10.40
   7  -1 -10   16.60   10.90
   7  -1 -10   12.00    8.20
  -7   1  10   19.70    8.80
   6  -1 -10  -10.30    5.60
   6  -1 -10    2.40    7.30
  -6   1  10    8.30    6.00
   5  -1 -10    1.70    6.10
   5  -1 -10   -4.70    5.30
  -5   1  10   -4.40    5.00
   4  -1 -10   50.59   11.30
  -4   1  10   55.59    9.50
   3  -1 -10   19.50    7.70
  -3   1  10   11.70    5.20
  -3   1  10    5.30    7.50
   2  -1 -10   44.30   10.60
  -2   1  10   67.09   13.70
  -2   1  10   43.40   10.10
   1  -1 -10   37.80   10.40
  -1   1  10   36.90   13.20
   0  -1 -10   -3.70    5.00
  -1  -1 -10   50.09   11.70
  -2  -1 -10   91.09   13.90
   7  -2 -10   22.80    9.00
   7  -2 -10   17.70    8.10
   6  -2 -10    6.00    5.50
   6  -2 -10   13.40    6.80
   5  -2 -10  318.67   24.40
   4  -2 -10   35.40    9.70
  -4   2  10   31.40    5.20
  -4   2  10   34.80    5.50
   3  -2 -10   51.39   11.90
  -3   2  10   46.30    8.20
  -3   2  10   48.90    9.30
   2  -2 -10   27.30    9.10
  -2   2  10   48.70   11.60
  -2   2  10   40.50    8.90
   1  -2 -10   64.29   12.60
  -1   2  10   93.29   16.20
   0  -2 -10   26.20    8.90
  -1  -2 -10   88.89   14.70
   7  -3 -10   67.99   16.70
   7  -3 -10   76.59   13.80
   6  -3 -10   23.50   10.60
   6  -3 -10   36.30   10.60
   5  -3 -10   87.89   15.20
   4  -3 -10   68.89   13.50
   3  -3 -10   13.50    7.90
  -3   3  10    9.90    4.90
  -3   3  10   16.40    4.70
   2  -3 -10   -1.20    5.30
  -2   3  10   -1.50    6.80
   1  -3 -10   34.90    8.30
  -1   3  10   16.80   10.90
   0  -3 -10   17.80    9.20
   6  -4 -10  250.57   24.50
   6  -4 -10  226.78   20.90
   5  -4 -10   13.70    6.40
   4  -4 -10  108.49   17.40
   3  -4 -10   17.50    7.30
   2  -4 -10   11.90    6.00
  -2   4  10   -6.20    7.40
   1  -4 -10   21.10    7.40
  -1   4  10   13.00   13.40
   6  -5 -10   16.10    8.30
   5  -5 -10    5.20    7.50
   4  -5 -10    9.20    8.40
   3  -5 -10   55.19   12.60
   2  -5 -10    6.60    5.80
   4  -6 -10   -2.80    7.40
   2   6 -11   57.29    9.20
   2   6 -11   78.29   17.20
  -2  -6  11   41.00   14.50
   1   6 -11    6.40    6.80
   1   6 -11    2.30    5.10
  -1  -6  11    0.70    9.40
   0   6 -11   10.80    8.20
   0  -6  11   23.70   12.10
  -1   6 -11  127.19   18.60
   1  -6  11  133.19   23.50
   3   5 -11    4.20    6.50
   3   5 -11   16.40    8.20
  -3  -5  11    5.40   10.10
   2   5 -11   36.50    8.60
   2   5 -11   40.30   15.30
   2   5 -11   30.90   12.00
  -2  -5  11   53.59   16.10
   1   5 -11   -7.50    6.40
   1   5 -11    1.60   13.20
  -1  -5  11   14.80   10.90
   0   5 -11   12.70    9.70
   0   5 -11    3.80   12.10
   0  -5  11   -6.90    7.30
  -1   5 -11    7.70    9.00
   1  -5  11   13.20   10.90
   4   4 -11   -0.70    7.50
  -4  -4  11   13.90   10.80
   3   4 -11   29.60   10.50
   3   4 -11   14.00    7.40
  -3  -4  11   25.00   10.30
   2   4 -11   10.50    8.30
  -2  -4  11   34.60   13.20
   1   4 -11   76.29   15.90
  -1  -4  11   96.49   19.80
   0   4 -11   31.90    8.30
   0  -4  11   22.60   10.50
  -1   4 -11   20.90    9.60
   1  -4  11   29.30   12.70
   5   3 -11    6.00    7.80
   5   3 -11    9.80    8.40
  -5  -3  11   14.20   13.50
   4   3 -11   31.10   12.10
   4   3 -11   30.80    8.20
  -4  -3  11   48.90   14.30
   3   3 -11    3.60    6.00
   3   3 -11    0.70    5.70
  -3  -3  11   -1.60    8.50
   2   3 -11   -2.50    4.90
  -2  -3  11    1.00    7.60
   1   3 -11    4.20    7.40
  -1  -3  11   -1.30    7.40
   0   3 -11   17.40    9.00
   0  -3  11   26.80   11.20
  -1   3 -11    5.70    6.40
  -2   3 -11   12.40    6.30
   5   2 -11    6.70    7.70
   5   2 -11   -1.10    7.10
  -5  -2  11    9.40    9.70
   4   2 -11  113.79   17.80
   4   2 -11  117.69   16.60
  -4  -2  11  114.19   19.60
   3   2 -11  111.19   18.40
  -3  -2  11  121.59   19.90
   2   2 -11   11.80    6.80
  -2  -2  11   13.70    9.00
   1   2 -11   67.99   14.10
  -1  -2  11   91.19   17.60
   0   2 -11    5.30    7.10
  -1   2 -11  148.09   19.90
   5   1 -11    1.20    7.10
   5   1 -11   -1.00    6.80
  -5  -1  11    4.60    8.60
   4   1 -11   38.50   11.00
   4   1 -11   26.60   12.00
  -4  -1  11   38.90   11.70
   3   1 -11   39.10    9.90
  -3  -1  11   45.90   11.00
   2   1 -11    0.60    5.50
  -2  -1  11    7.70    8.50
   1   1 -11   59.49   12.90
  -1  -1  11   66.19   13.90
   0   1 -11   23.10    8.30
  -1   1 -11    6.10    6.50
   6   0 -11   21.20   10.70
   6   0 -11    1.80    8.40
  -6   0  11   12.70    9.30
   5   0 -11    5.40    6.20
   5   0 -11   -2.30    6.60
  -5   0  11   -9.80    6.30
   4   0 -11   19.40   10.00
  -4   0  11   12.50    8.60
   3   0 -11  199.68   19.70
  -3   0  11  178.78   17.40
   2   0 -11   18.30    8.50
  -2   0  11   13.70   11.00
  -2   0  11   18.60    9.20
   1   0 -11  142.49   20.00
  -1   0  11  116.99   17.50
   0   0 -11  160.38   20.40
  -1   0 -11   -6.70    4.90
   6  -1 -11   28.90   10.70
   6  -1 -11   37.10   11.30
  -6   1  11   22.50    7.50
   5  -1 -11    7.30    8.00
   5  -1 -11   14.30    7.30
  -5   1  11    3.40    5.90
   4  -1 -11    9.90    6.00
  -4   1  11    2.10    5.40
  -4   1  11    0.70    8.40
   3  -1 -11   27.00   10.00
  -3   1  11   27.10   11.50
   2  -1 -11   40.60   11.40
  -2   1  11   24.60   12.70
  -2   1  11   35.30    9.80
   1  -1 -11   -3.70    5.10
   0  -1 -11   40.70   11.80
   6  -2 -11   11.90   10.20
   6  -2 -11   -1.60    5.20
   5  -2 -11   19.00    8.30
   4  -2 -11    5.10    6.80
  -4   2  11   -4.80    3.40
  -4   2  11   -3.80    4.90
   3  -2 -11   15.70    8.40
  -3   2  11   40.00    8.50
  -3   2  11   31.40    9.30
   2  -2 -11   39.20   11.10
  -2   2  11   33.40    9.50
  -2   2  11   15.00   11.80
   1  -2 -11    7.70    6.70
   0  -2 -11   -9.80    4.60
   5  -3 -11   22.10    9.10
   4  -3 -11    7.70    5.90
   3  -3 -11   17.60    9.30
  -3   3  11   24.40    6.50
   2  -3 -11   20.10    8.60
   1  -3 -11  -12.30    5.50
   4  -4 -11   -9.10    5.90
   3  -4 -11   71.09   14.70
   3   3 -12   -8.70    5.60
   2   3 -12   44.50   13.40
  -2  -3  12   38.90   12.20
   1   3 -12   21.00    9.70
  -1  -3  12   -7.20    7.50
   3   2 -12   33.80   10.90
  -3  -2  12   40.40   14.20
   2   2 -12   53.79   13.60
  -2  -2  12   56.09   16.10
   1   2 -12   -6.70    6.70
  -1  -2  12   19.40    9.60
   4   1 -12   -2.30    7.50
  -4  -1  12   -2.60    8.40
   3   1 -12   43.60   11.70
  -3  -1  12   25.60   10.60
   2   1 -12   66.49   14.20
  -2  -1  12   59.79   16.20
   1   1 -12   63.69   13.90
  -1  -1  12   40.90   13.50
   4   0 -12   24.20    7.70
  -4   0  12   -2.90    9.10
   3   0 -12    0.30    6.30
  -3   0  12   -5.20    5.90
   2   0 -12   32.60   11.70
  -2   0  12   34.10   11.70
   3  -1 -12    5.30    5.70
  -3   1  12    1.50    7.20
   0   0   0    0.00    0.00

_computing_structure_solution     'SHELXT 2014/5 (Sheldrick, 2014)'
;
_shelx_hkl_checksum              60131
_olex2_submission_special_instructions 'No special instructions were received'
loop_
_space_group_symop_operation_xyz
'x, y, z'
'-x, -y, -z'
loop_
_atom_site_label
_atom_site_type_symbol
_atom_site_fract_x
_atom_site_fract_y
_atom_site_fract_z
_atom_site_U_iso_or_equiv
_atom_site_adp_type
_atom_site_occupancy
_atom_site_site_symmetry_order
_atom_site_calc_flag
_atom_site_refinement_flags_posn
_atom_site_refinement_flags_adp
_atom_site_refinement_flags_occupancy
_atom_site_disorder_assembly
_atom_site_disorder_group
S001 S 0.32134(8) 0.52833(6) 0.67175(6) 0.04403(19) Uani 1 1 d . . . . .
O002 O 0.2650(2) 0.45525(18) 0.51533(16) 0.0537(4) Uani 1 1 d . . . . .
N003 N 0.2746(3) 0.16625(19) 0.41383(17) 0.0395(4) Uani 1 1 d . . . . .
H003 H 0.3245 0.2611 0.4503 0.047 Uiso 1 1 calc R . . . .
O004 O 0.2420(3) -0.06004(18) 0.47083(17) 0.0700(6) Uani 1 1 d . . . . .
N005 N 0.6030(3) 0.2962(2) 0.9509(2) 0.0542(5) Uani 1 1 d . . . . .
C006 C 0.0309(3) -0.0521(2) 0.0326(2) 0.0341(4) Uani 1 1 d . . . . .
C007 C 0.1175(3) 0.2264(2) 0.1992(2) 0.0396(5) Uani 1 1 d . . . . .
H007 H 0.1482 0.3199 0.2549 0.047 Uiso 1 1 calc R . . . .
C008 C 0.1755(3) 0.1209(2) 0.2641(2) 0.0353(5) Uani 1 1 d . . . . .
C009 C 0.4067(3) 0.1566(2) 0.6603(2) 0.0378(5) Uani 1 1 d . . . . .
C00A C 0.0172(3) 0.1928(2) 0.0561(2) 0.0406(5) Uani 1 1 d . . . . .
H00A H -0.0204 0.2637 0.0158 0.049 Uiso 1 1 calc R . . . .
C00B C 0.5606(3) 0.2975(2) 0.7002(2) 0.0437(5) Uani 1 1 d . . . . .
H00B H 0.6011 0.3488 0.6310 0.052 Uiso 1 1 calc R . . . .
C00C C 0.1347(3) -0.0159(2) 0.1813(2) 0.0384(5) Uani 1 1 d . . . . .
H00C H 0.1755 -0.0847 0.2231 0.046 Uiso 1 1 calc R . . . .
C00D C 0.2990(3) 0.0757(2) 0.5059(2) 0.0421(5) Uani 1 1 d . . . . .
C00E C 0.3544(3) 0.0867(3) 0.7688(2) 0.0463(5) Uani 1 1 d . . . . .
H00E H 0.2533 -0.0089 0.7466 0.056 Uiso 1 1 calc R . . . .
C00F C 0.2570(4) 0.6852(3) 0.6747(3) 0.0569(6) Uani 1 1 d . . . . .
H00D H 0.3409 0.7590 0.6351 0.085 Uiso 1 1 calc GR . . . .
H00F H 0.2739 0.7281 0.7723 0.085 Uiso 1 1 calc GR . . . .
H00I H 0.1212 0.6535 0.6183 0.085 Uiso 1 1 calc GR . . . .
C00G C 0.6527(4) 0.3603(3) 0.8454(2) 0.0523(6) Uani 1 1 d . . . . .
H00G H 0.7574 0.4544 0.8710 0.063 Uiso 1 1 calc R . . . .
C00H C 0.4541(4) 0.1609(3) 0.9102(2) 0.0535(6) Uani 1 1 d . . . . .
H00H H 0.4150 0.1133 0.9818 0.064 Uiso 1 1 calc R . . . .
C00I C 0.1362(5) 0.4127(3) 0.7396(3) 0.0766(9) Uani 1 1 d . . . . .
H00J H 0.0079 0.3999 0.6810 0.115 Uiso 1 1 calc GR . . . .
H00K H 0.1577 0.4593 0.8370 0.115 Uiso 1 1 calc GR . . . .
H00L H 0.1428 0.3163 0.7375 0.115 Uiso 1 1 calc GR . . . .
loop_
_atom_site_aniso_label
_atom_site_aniso_U_11
_atom_site_aniso_U_22
_atom_site_aniso_U_33
_atom_site_aniso_U_23
_atom_site_aniso_U_13
_atom_site_aniso_U_12
S001 0.0472(3) 0.0419(3) 0.0389(3) 0.0043(2) 0.0081(2) 0.0179(3)
O002 0.0718(11) 0.0522(10) 0.0401(9) 0.0032(7) 0.0219(8) 0.0271(9)
N003 0.0492(11) 0.0324(9) 0.0276(9) 0.0008(7) 0.0025(8) 0.0137(8)
O004 0.1123(16) 0.0357(9) 0.0406(10) 0.0058(8) 0.0029(9) 0.0197(10)
N005 0.0631(14) 0.0581(13) 0.0330(11) 0.0099(10) 0.0051(9) 0.0212(11)
C006 0.0351(11) 0.0328(11) 0.0319(11) 0.0038(8) 0.0075(8) 0.0137(9)
C007 0.0486(13) 0.0324(11) 0.0338(11) 0.0005(9) 0.0085(9) 0.0163(10)
C008 0.0361(11) 0.0367(11) 0.0289(10) 0.0050(9) 0.0062(8) 0.0130(9)
C009 0.0445(12) 0.0369(11) 0.0311(11) 0.0068(9) 0.0061(9) 0.0187(10)
C00A 0.0521(13) 0.0346(11) 0.0350(12) 0.0072(9) 0.0068(10) 0.0215(10)
C00B 0.0477(13) 0.0437(13) 0.0327(11) 0.0108(10) 0.0067(10) 0.0135(11)
C00C 0.0447(12) 0.0354(11) 0.0329(11) 0.0069(9) 0.0060(9) 0.0175(10)
C00D 0.0491(13) 0.0372(12) 0.0333(12) 0.0059(9) 0.0071(9) 0.0138(10)
C00E 0.0506(14) 0.0426(13) 0.0410(13) 0.0144(10) 0.0127(10) 0.0129(11)
C00F 0.0778(18) 0.0557(15) 0.0457(14) 0.0080(12) 0.0186(13) 0.0372(14)
C00G 0.0551(15) 0.0446(13) 0.0403(13) 0.0079(11) 0.0011(11) 0.0101(11)
C00H 0.0613(16) 0.0646(17) 0.0364(13) 0.0205(12) 0.0166(11) 0.0235(14)
C00I 0.098(2) 0.0618(18) 0.0601(18) 0.0112(14) 0.0407(17) 0.0110(17)
loop_
_atom_type_symbol
_atom_type_description
_atom_type_scat_dispersion_real
_atom_type_scat_dispersion_imag
_atom_type_scat_source
C C 0.0033 0.0016 'International Tables Vol C Tables 4.2.6.8 and 6.1.1.4'
H H 0.0000 0.0000 'International Tables Vol C Tables 4.2.6.8 and 6.1.1.4'
N N 0.0061 0.0033 'International Tables Vol C Tables 4.2.6.8 and 6.1.1.4'
O O 0.0106 0.0060 'International Tables Vol C Tables 4.2.6.8 and 6.1.1.4'
S S 0.1246 0.1234 'International Tables Vol C Tables 4.2.6.8 and 6.1.1.4'
loop_
_geom_angle_atom_site_label_1
_geom_angle_atom_site_label_2
_geom_angle_atom_site_label_3
_geom_angle
_geom_angle_site_symmetry_1
_geom_angle_site_symmetry_3
_geom_angle_publ_flag
O002 S001 C00F 106.24(10) . . ?
O002 S001 C00I 105.92(12) . . ?
C00F S001 C00I 98.38(14) . . ?
C008 N003 H003 116.6 . . ?
C00D N003 H003 116.6 . . ?
C00D N003 C008 126.75(18) . . ?
C00G N005 C00H 115.8(2) . . ?
C006 C006 C00A 117.6(2) 2 2 ?
C00C C006 C006 120.5(2) . 2 ?
C00C C006 C00A 121.87(19) . 2 ?
C008 C007 H007 119.6 . . ?
C00A C007 H007 119.6 . . ?
C00A C007 C008 120.84(19) . . ?
C007 C008 N003 116.04(17) . . ?
C00C C008 N003 124.31(19) . . ?
C00C C008 C007 119.65(18) . . ?
C00B C009 C00D 123.10(19) . . ?
C00B C009 C00E 117.73(19) . . ?
C00E C009 C00D 119.15(19) . . ?
C006 C00A H00A 119.4 2 . ?
C007 C00A C006 121.29(19) . 2 ?
C007 C00A H00A 119.4 . . ?
C009 C00B H00B 120.8 . . ?
C00G C00B C009 118.4(2) . . ?
C00G C00B H00B 120.8 . . ?
C006 C00C H00C 120.0 . . ?
C008 C00C C006 120.08(19) . . ?
C008 C00C H00C 120.0 . . ?
N003 C00D C009 114.48(18) . . ?
O004 C00D N003 124.7(2) . . ?
O004 C00D C009 120.81(19) . . ?
C009 C00E H00E 120.5 . . ?
C00H C00E C009 119.0(2) . . ?
C00H C00E H00E 120.5 . . ?
S001 C00F H00D 109.5 . . ?
S001 C00F H00F 109.5 . . ?
S001 C00F H00I 109.5 . . ?
H00D C00F H00F 109.5 . . ?
H00D C00F H00I 109.5 . . ?
H00F C00F H00I 109.5 . . ?
N005 C00G C00B 124.8(2) . . ?
N005 C00G H00G 117.6 . . ?
C00B C00G H00G 117.6 . . ?
N005 C00H C00E 124.2(2) . . ?
N005 C00H H00H 117.9 . . ?
C00E C00H H00H 117.9 . . ?
S001 C00I H00J 109.5 . . ?
S001 C00I H00K 109.5 . . ?
S001 C00I H00L 109.5 . . ?
H00J C00I H00K 109.5 . . ?
H00J C00I H00L 109.5 . . ?
H00K C00I H00L 109.5 . . ?
loop_
_geom_bond_atom_site_label_1
_geom_bond_atom_site_label_2
_geom_bond_distance
_geom_bond_site_symmetry_2
_geom_bond_publ_flag
S001 O002 1.5056(15) . ?
S001 C00F 1.771(2) . ?
S001 C00I 1.775(3) . ?
N003 H003 0.8600 . ?
N003 C008 1.413(2) . ?
N003 C00D 1.356(3) . ?
O004 C00D 1.216(3) . ?
N005 C00G 1.325(3) . ?
N005 C00H 1.331(3) . ?
C006 C006 1.416(4) 2 ?
C006 C00A 1.416(3) 2 ?
C006 C00C 1.414(3) . ?
C007 H007 0.9300 . ?
C007 C008 1.412(3) . ?
C007 C00A 1.363(3) . ?
C008 C00C 1.374(3) . ?
C009 C00B 1.382(3) . ?
C009 C00D 1.502(3) . ?
C009 C00E 1.383(3) . ?
C00A C006 1.416(3) 2 ?
C00A H00A 0.9300 . ?
C00B H00B 0.9300 . ?
C00B C00G 1.382(3) . ?
C00C H00C 0.9300 . ?
C00E H00E 0.9300 . ?
C00E C00H 1.377(3) . ?
C00F H00D 0.9600 . ?
C00F H00F 0.9600 . ?
C00F H00I 0.9600 . ?
C00G H00G 0.9300 . ?
C00H H00H 0.9300 . ?
C00I H00J 0.9600 . ?
C00I H00K 0.9600 . ?
C00I H00L 0.9600 . ?
