#------------------------------------------------------------------------------
#$Date: 2022-04-27 04:09:14 +0300 (Wed, 27 Apr 2022) $
#$Revision: 274712 $
#$URL: file:///home/coder/svn-repositories/cod/cif/7/24/48/7244858.cif $
#------------------------------------------------------------------------------
#
# This file is available in the Crystallography Open Database (COD),
# http://www.crystallography.net/
#
# All data on this site have been placed in the public domain by the
# contributors.
#
data_7244858
loop_
_publ_author_name
'Ferdov, Stanislav'
'Shivachev, Boris'
'Titorenkova, Rositsa'
'Petrova, Nadia'
'Tarassov, Mihail'
'Nikolova, Rositsa'
_publ_section_title
;
 Indium silicate with an imandrite-type structure
;
_journal_issue                   20
_journal_name_full               'RSC Advances'
_journal_page_first              12531
_journal_page_last               12536
_journal_paper_doi               10.1039/D2RA00864E
_journal_volume                  12
_journal_year                    2022
_chemical_formula_sum            'Ca3.16 In1.36 Na12.53 O36 Si12'
_chemical_formula_weight         1483.72
_chemical_name_common            MS-2
_space_group_IT_number           58
_space_group_name_Hall           '-P 2 2n'
_space_group_name_H-M_alt        'P n n m'
_symmetry_cell_setting           orthorhombic
_symmetry_space_group_name_H-M   'P n n m'
_audit_creation_date             2022-02-04T14:15
_audit_creation_method           'created in GSAS-II'
_audit_update_record
;
2022-02-09 deposited with the CCDC.	2022-04-14 downloaded from the CCDC.
;
_cell_angle_alpha                90
_cell_angle_beta                 90
_cell_angle_gamma                90
_cell_formula_units_Z            1
_cell_length_a                   7.459427
_cell_length_b                   10.620756
_cell_length_c                   10.375741
_cell_measurement_temperature    300
_cell_volume                     822.016
_computing_structure_refinement
'GSAS-II (Toby & Von Dreele, J. Appl. Cryst. 46, 544-549, 2013)'
_diffrn_ambient_pressure         100
_diffrn_ambient_temperature      300
_diffrn_measurement_device_type  'Empyrean, Panalytical'
_diffrn_radiation_polarisn_ratio 0.7000
_diffrn_radiation_probe          x-ray
_diffrn_radiation_type           'Cu K\a'
_exptl_crystal_density_diffrn    2.9973
_pd_block_id
2022-02-04T14:15|imandritev2a_OK|noname|Empyrean
_pd_calc_method                  'Rietveld Refinement'
_pd_char_colour                  colourless
_pd_meas_2theta_range_inc        0.01313
_pd_meas_2theta_range_max        99.99343
_pd_meas_2theta_range_min        3.01317
_pd_meas_number_of_points        7387
_pd_phase_name                   'Ca3.25 In1.37 Na12.46 O36 Si12'
_pd_proc_info_datetime           2022-02-04T14:15
_pd_proc_ls_background_function
;
Background function: "chebyschev-1" function with 20 terms:
    57.97(22), -78.2(4), 51.7(4), -26.0(4), 10.2(4), -1.2(4), 
    -1.7(3), 1.3(3), -0.8(3), 0.5(3), 0.1(3), -0.15(31), 0.91(30), 
    -0.97(30), 0.15(29), 0.42(28), -0.38(25), 0.33(24), -0.27(20), 
    -1.18(18), 
;
_pd_proc_ls_pref_orient_corr     none
_pd_proc_ls_profile_function
;
Finger-Cox-Jephcoat function parameters U, V, W, X, Y, SH/L:
  peak variance(Gauss) = Utan(Th)^2^+Vtan(Th)+W:
  peak HW(Lorentz) = X/cos(Th)+Ytan(Th); SH/L = S/L+H/L
  U, V, W in (centideg)^2^, X & Y in centideg
    2.000, -2.000, 5.000, 0.000, 0.000, 0.002, 

;
_pd_proc_ls_prof_R_factor        0.11371
_pd_proc_ls_prof_wR_expected     0.11625
_pd_proc_ls_prof_wR_factor       0.15318
_refine_ls_goodness_of_fit_all   1.320
_refine_ls_matrix_type           full
_refine_ls_number_parameters     21
_refine_ls_R_factor_all          0.0569
_refine_ls_R_Fsqd_factor         0.10910
_refine_ls_shift/su_max          0.0000
_refine_ls_wR_factor_obs         0.15318
_reflns_d_resolution_high        1.006
_reflns_d_resolution_low         7.422
_reflns_limit_h_max              7
_reflns_limit_h_min              0
_reflns_limit_k_max              10
_reflns_limit_k_min              0
_reflns_limit_l_max              10
_reflns_limit_l_min              0
_reflns_number_total             460
_cod_data_source_file            d2ra00864e2.cif
_cod_data_source_block           imandritev2a_OK
_cod_database_code               7244858
_refine_ls_r_f_factor            0.05698
_gsas_proc_ls_prof_r_b_factor    0.12215
_gsas_proc_ls_prof_wr_b_factor   0.15222
_publcif_funding_html
;
;
loop_
_space_group_symop_id
_space_group_symop_operation_xyz
1 x,y,z
2 1/2-x,1/2+y,1/2+z
3 1/2+x,1/2-y,1/2+z
4 -x,-y,z
5 -x,-y,-z
6 1/2+x,1/2-y,1/2-z
7 1/2-x,1/2+y,1/2-z
8 x,y,-z
loop_
_atom_site_label
_atom_site_type_symbol
_atom_site_fract_x
_atom_site_fract_y
_atom_site_fract_z
_atom_site_occupancy
_atom_site_adp_type
_atom_site_U_iso_or_equiv
_atom_site_site_symmetry_multiplicity
Na1 Na 0.52054 0.26263 0.73882 1.0000 Uani 0.0271 8
Na2 Na 0.50000 0.50000 1.00000 0.9673 Uani 0.0453 2
Ca1 Ca 0.50000 1.00000 1.00000 0.7185 Uani 0.0140 2
Na11 Na 0.50000 1.00000 1.00000 0.2559 Uani 0.0148 2
Ca2 Ca 0.26023 0.25289 1.00000 0.4296 Uani 0.0163 4
Na21 Na 0.25970 0.25165 1.00000 0.5207 Uani 0.0122 4
Si1 Si 0.21431 0.50953 0.78097 1.0000 Uani 0.0287 8
Si2 Si 0.24335 0.71446 1.00000 1.0000 Uani 0.0203 4
In In 0.50000 0.50000 0.50000 0.6803 Uani 0.0179 2
O1 O 0.42313 0.79459 1.00000 1.0000 Uani 0.0320 4
O2 O 0.05855 0.78976 1.00000 1.0000 Uani 0.0279 4
O3 O 0.00000 0.50000 0.75110 1.0000 Uani 0.0463 4
O4 O 0.24394 0.62414 0.88415 1.0000 Uani 0.0237 8
O5 O 0.29324 0.55920 0.63863 1.0000 Uani 0.0224 8
O6 O 0.27628 0.38310 0.82737 1.0000 Uani 0.0444 8
loop_
_atom_site_aniso_label
_atom_site_aniso_U_11
_atom_site_aniso_U_22
_atom_site_aniso_U_33
_atom_site_aniso_U_12
_atom_site_aniso_U_13
_atom_site_aniso_U_23
Na1 0.0251 0.0298 0.0263 -0.0150 0.0152 0.0039
Na2 0.0420 0.0660 0.0280 0.0421 0.0000 0.0000
Ca1 0.0143 0.0129 0.0147 -0.0059 0.0000 0.0000
Na11 0.0232 0.0104 0.0108 -0.0034 0.0000 0.0000
Ca2 0.0186 0.0153 0.0149 -0.0030 0.0000 0.0000
Na21 0.0136 0.0120 0.0111 -0.0015 0.0000 0.0000
Si1 0.0120 0.0504 0.0238 0.0050 -0.0046 -0.0043
Si2 0.0113 0.0151 0.0344 -0.0029 0.0000 0.0000
In 0.0184 0.0189 0.0165 -0.0099 0.0000 0.0000
O1 0.0171 0.0306 0.0483 0.0173 0.0000 0.0000
O2 0.0109 0.0314 0.0414 -0.0076 0.0000 0.0000
O3 0.0110 0.0880 0.0400 -0.0010 0.0000 0.0000
O4 0.0237 0.0285 0.0188 0.0055 -0.0019 -0.0030
O5 0.0336 0.0221 0.0114 -0.0004 0.0055 0.0042
O6 0.0785 0.0359 0.0187 0.0182 -0.0012 0.0041
loop_
_atom_type_symbol
_atom_type_number_in_cell
_atom_type_scat_Cromer_Mann_a1
_atom_type_scat_Cromer_Mann_a2
_atom_type_scat_Cromer_Mann_a3
_atom_type_scat_Cromer_Mann_a4
_atom_type_scat_Cromer_Mann_b1
_atom_type_scat_Cromer_Mann_b2
_atom_type_scat_Cromer_Mann_b3
_atom_type_scat_Cromer_Mann_b4
_atom_type_scat_Cromer_Mann_c
_atom_type_scat_length_neutron
_atom_type_scat_source
_atom_type_scat_dispersion_real
_atom_type_scat_dispersion_imag
_atom_type_scat_dispersion_source
Ca 3.155 8.6266 7.3873 1.5899 1.0211 10.4421 0.6599 85.7484 178.437 1.3751 0.47
https://subversion.xray.aps.anl.gov/pyGSAS/trunk/atmdata.py 0.364 1.285
https://subversion.xray.aps.anl.gov/pyGSAS/trunk/atmdata.py
In 1.361 19.1624 18.5596 4.2948 2.0396 0.5476 6.3776 25.8499 92.8029 4.9391
0.4065 https://subversion.xray.aps.anl.gov/pyGSAS/trunk/atmdata.py 0.077 5.044
https://subversion.xray.aps.anl.gov/pyGSAS/trunk/atmdata.py
Na 12.529 4.7626 3.1736 1.2674 1.1128 3.285 8.8422 0.3136 129.424 0.676 0.363
https://subversion.xray.aps.anl.gov/pyGSAS/trunk/atmdata.py 0.135 0.124
https://subversion.xray.aps.anl.gov/pyGSAS/trunk/atmdata.py
O 36 3.0485 2.2868 1.5463 0.867 13.2771 5.7011 0.3239 32.9089 0.2508 0.5805
https://subversion.xray.aps.anl.gov/pyGSAS/trunk/atmdata.py 0.049 0.032
https://subversion.xray.aps.anl.gov/pyGSAS/trunk/atmdata.py
Si 12 6.2915 3.0353 1.9891 1.541 2.4386 32.3337 0.6785 81.6937 1.1407 0.4151
https://subversion.xray.aps.anl.gov/pyGSAS/trunk/atmdata.py 0.254 0.330
https://subversion.xray.aps.anl.gov/pyGSAS/trunk/atmdata.py
loop_
_diffrn_radiation_wavelength
_diffrn_radiation_wavelength_wt
_diffrn_radiation_wavelength_id
1.54051 1.0 1
1.54433 0.5000 2
loop_
_geom_angle_atom_site_label_1
_geom_angle_atom_site_label_2
_geom_angle_atom_site_label_3
_geom_angle
_geom_angle_site_symmetry_1
_geom_angle_site_symmetry_2
_geom_angle_site_symmetry_3
_geom_angle_publ_flag
Ca2 Na1 Na21 0.252 3_554 1_555 3_554 yes
Ca2 Na2 Ca2 180 1_555 1_555 4_665 yes
Ca2 Na2 Na21 0.075 1_555 1_555 1_555 yes
Ca2 Na2 Na21 179.925 4_665 1_555 1_555 yes
Ca2 Na2 Na21 179.925 1_555 1_555 4_665 yes
Ca2 Na2 Na21 0.075 4_665 1_555 4_665 yes
Na21 Na2 Na21 180 1_555 1_555 4_665 yes
Ca2 Ca1 Ca2 180 1_565 1_555 4_665 yes
Ca2 Ca1 Na21 0.189 1_565 1_555 1_565 yes
Ca2 Ca1 Na21 179.811 4_665 1_555 1_565 yes
Ca2 Ca1 Na21 179.811 1_565 1_555 4_665 yes
Ca2 Ca1 Na21 0.189 4_665 1_555 4_665 yes
Na21 Ca1 Na21 180 1_565 1_555 4_665 yes
Ca2 Ca1 O1 131.614 1_565 1_555 1_555 yes
Ca2 Ca1 O1 48.386 4_665 1_555 1_555 yes
Na21 Ca1 O1 131.425 1_565 1_555 1_555 yes
Na21 Ca1 O1 48.575 4_665 1_555 1_555 yes
Ca2 Ca1 O1 48.386 1_565 1_555 4_675 yes
Ca2 Ca1 O1 131.614 4_665 1_555 4_675 yes
Na21 Ca1 O1 48.575 1_565 1_555 4_675 yes
Na21 Ca1 O1 131.425 4_665 1_555 4_675 yes
O1 Ca1 O1 180 1_555 1_555 4_675 yes
Ca2 Na11 Ca2 180 1_565 1_555 4_665 yes
Ca2 Na11 Na21 0.189 1_565 1_555 1_565 yes
Ca2 Na11 Na21 179.811 4_665 1_555 1_565 yes
Ca2 Na11 Na21 179.811 1_565 1_555 4_665 yes
Ca2 Na11 Na21 0.189 4_665 1_555 4_665 yes
Na21 Na11 Na21 180 1_565 1_555 4_665 yes
Ca2 Na11 O1 131.614 1_565 1_555 1_555 yes
Ca2 Na11 O1 48.386 4_665 1_555 1_555 yes
Na21 Na11 O1 131.425 1_565 1_555 1_555 yes
Na21 Na11 O1 48.575 4_665 1_555 1_555 yes
Ca2 Na11 O1 48.386 1_565 1_555 4_675 yes
Ca2 Na11 O1 131.614 4_665 1_555 4_675 yes
Na21 Na11 O1 48.575 1_565 1_555 4_675 yes
Na21 Na11 O1 131.425 4_665 1_555 4_675 yes
O1 Na11 O1 180 1_555 1_555 4_675 yes
Na1 Ca2 Na1 108.145 3_455 1_555 6_567 yes
Na1 Ca2 Na2 111.934 3_455 1_555 1_555 yes
Na1 Ca2 Na2 111.934 6_567 1_555 1_555 yes
Na1 Ca2 Ca1 106.202 3_455 1_555 1_545 yes
Na1 Ca2 Ca1 106.202 6_567 1_555 1_545 yes
Na2 Ca2 Ca1 112.067 1_555 1_555 1_545 yes
Na1 Ca2 O1 124.067 3_455 1_555 4_665 yes
Na1 Ca2 O1 124.067 6_567 1_555 4_665 yes
Na2 Ca2 O1 67.778 1_555 1_555 4_665 yes
Ca1 Ca2 O1 44.288 1_545 1_555 4_665 yes
Na1 Ca2 O2 54.265 3_455 1_555 4_565 yes
Na1 Ca2 O2 54.265 6_567 1_555 4_565 yes
Na2 Ca2 O2 135.058 1_555 1_555 4_565 yes
Ca1 Ca2 O2 112.875 1_545 1_555 4_565 yes
O1 Ca2 O2 157.164 4_665 1_555 4_565 yes
Na1 Ca2 O6 134.731 3_455 1_555 1_555 yes
Na1 Ca2 O6 54.807 6_567 1_555 1_555 yes
Na2 Ca2 O6 57.721 1_555 1_555 1_555 yes
Ca1 Ca2 O6 118.599 1_545 1_555 1_555 yes
O1 Ca2 O6 94.345 4_665 1_555 1_555 yes
O2 Ca2 O6 99.56 4_565 1_555 1_555 yes
Na1 Ca2 O6 54.807 3_455 1_555 8_557 yes
Na1 Ca2 O6 134.731 6_567 1_555 8_557 yes
Na2 Ca2 O6 57.721 1_555 1_555 8_557 yes
Ca1 Ca2 O6 118.599 1_545 1_555 8_557 yes
O1 Ca2 O6 94.345 4_665 1_555 8_557 yes
O2 Ca2 O6 99.56 4_565 1_555 8_557 yes
O6 Ca2 O6 104.451 1_555 1_555 8_557 yes
Na1 Na21 Na1 108.3 3_455 1_555 6_567 yes
Na1 Na21 Na2 111.655 3_455 1_555 1_555 yes
Na1 Na21 Na2 111.655 6_567 1_555 1_555 yes
Na1 Na21 Ca1 106.491 3_455 1_555 1_545 yes
Na1 Na21 Ca1 106.491 6_567 1_555 1_545 yes
Na2 Na21 Ca1 111.952 1_555 1_555 1_545 yes
Na1 Na21 O6 134.468 3_455 1_555 1_555 yes
Na1 Na21 O6 54.817 6_567 1_555 1_555 yes
Na2 Na21 O6 57.434 1_555 1_555 1_555 yes
Ca1 Na21 O6 118.654 1_545 1_555 1_555 yes
Na1 Na21 O6 54.817 3_455 1_555 8_557 yes
Na1 Na21 O6 134.468 6_567 1_555 8_557 yes
Na2 Na21 O6 57.434 1_555 1_555 8_557 yes
Ca1 Na21 O6 118.654 1_545 1_555 8_557 yes
O6 Na21 O6 103.914 1_555 1_555 8_557 yes
O3 Si1 O4 107.625 1_555 1_555 1_555 yes
O3 Si1 O5 101.327 1_555 1_555 1_555 yes
O4 Si1 O5 107.165 1_555 1_555 1_555 yes
O3 Si1 O6 107.908 1_555 1_555 1_555 yes
O4 Si1 O6 114.491 1_555 1_555 1_555 yes
O5 Si1 O6 117.177 1_555 1_555 1_555 yes
O1 Si2 O2 117.479 1_555 1_555 1_555 yes
O1 Si2 O4 109.379 1_555 1_555 1_555 yes
O2 Si2 O4 108.392 1_555 1_555 1_555 yes
O1 Si2 O4 109.379 1_555 1_555 8_557 yes
O2 Si2 O4 108.392 1_555 1_555 8_557 yes
O4 Si2 O4 102.814 1_555 1_555 8_557 yes
Ca1 O1 Ca2 87.325 1_555 1_555 4_665 yes
Ca1 O1 Si2 137.126 1_555 1_555 1_555 yes
Ca2 O1 Si2 135.548 4_665 1_555 1_555 yes
Ca2 O2 Si2 139.094 4_565 1_555 1_555 yes
Si1 O3 Si1 158.098 1_555 1_555 4_565 yes
Si1 O4 Si2 167.204 1_555 1_555 1_555 yes
Ca2 O6 Na21 0.278 1_555 1_555 1_555 yes
Ca2 O6 Si1 141.626 1_555 1_555 1_555 yes
Na21 O6 Si1 141.793 1_555 1_555 1_555 yes
loop_
_geom_bond_atom_site_label_1
_geom_bond_atom_site_label_2
_geom_bond_distance
_geom_bond_site_symmetry_1
_geom_bond_site_symmetry_2
_geom_bond_publ_flag
Na1 Ca2 3.33545 1_555 1_555 yes
Na1 Ca2 3.06003 1_555 3_554 yes
Na1 Na21 3.33819 1_555 1_555 yes
Na1 Na21 3.05704 1_555 3_554 yes
Na1 O2 2.56341 1_555 2_544 yes
Na1 O4 2.609 1_555 4_665 yes
Na1 O5 2.56729 1_555 4_665 yes
Na1 O6 2.40859 1_555 1_555 yes
Na1 O6 2.55069 1_555 6_556 yes
Na2 Ca2 3.176 1_555 1_555 yes
Na2 Ca2 3.176 1_555 4_665 yes
Na2 Na21 3.18914 1_555 1_555 yes
Na2 Na21 3.18914 1_555 4_665 yes
Na2 Si2 2.97544 1_555 1_555 yes
Na2 Si2 2.97544 1_555 4_665 yes
Na2 O4 2.6137 1_555 1_555 yes
Na2 O4 2.6137 1_555 4_665 yes
Na2 O4 2.6137 1_555 5_667 yes
Na2 O4 2.6137 1_555 8_557 yes
Ca1 Ca2 3.22688 1_555 1_565 yes
Ca1 Ca2 3.22688 1_555 4_665 yes
Ca1 Na21 3.2181 1_555 1_565 yes
Ca1 Na21 3.2181 1_555 4_665 yes
Ca1 O1 2.25569 1_555 1_555 yes
Ca1 O1 2.25569 1_555 4_675 yes
Ca1 O3 2.60535 1_555 2_555 yes
Ca1 O3 2.60535 1_555 6_566 yes
Ca1 O5 2.6924 1_555 2_555 yes
Ca1 O5 2.6924 1_555 3_565 yes
Ca1 O5 2.6924 1_555 6_566 yes
Ca1 O5 2.6924 1_555 7_556 yes
Na11 Ca2 3.22688 1_555 1_565 yes
Na11 Ca2 3.22688 1_555 4_665 yes
Na11 Na21 3.2181 1_555 1_565 yes
Na11 Na21 3.2181 1_555 4_665 yes
Na11 O1 2.25569 1_555 1_555 yes
Na11 O1 2.25569 1_555 4_675 yes
Na11 O3 2.60535 1_555 2_555 yes
Na11 O3 2.60535 1_555 6_566 yes
Na11 O5 2.6924 1_555 2_555 yes
Na11 O5 2.6924 1_555 3_565 yes
Na11 O5 2.6924 1_555 6_566 yes
Na11 O5 2.6924 1_555 7_556 yes
Ca2 Na1 3.33545 1_555 1_555 yes
Ca2 Na1 3.06003 1_555 3_455 yes
Ca2 Na1 3.06003 1_555 6_456 yes
Ca2 Na1 3.33545 1_555 8_557 yes
Ca2 Na2 3.176 1_555 1_555 yes
Ca2 Ca1 3.22688 1_555 1_545 yes
Ca2 In 3.31391 1_555 2_545 yes
Ca2 O1 2.41517 1_555 4_665 yes
Ca2 O2 2.42068 1_555 4_565 yes
Ca2 O5 2.54159 1_555 2_545 yes
Ca2 O5 2.54159 1_555 7_546 yes
Ca2 O6 2.26608 1_555 1_555 yes
Ca2 O6 2.26608 1_555 8_557 yes
Na21 Na1 3.33819 1_555 1_555 yes
Na21 Na1 3.05704 1_555 3_455 yes
Na21 Na1 3.05704 1_555 6_456 yes
Na21 Na1 3.33819 1_555 8_557 yes
Na21 Na2 3.18914 1_555 1_555 yes
Na21 Ca1 3.2181 1_555 1_545 yes
Na21 In 3.3009 1_555 2_545 yes
Na21 O1 2.41633 1_555 4_665 yes
Na21 O2 2.41435 1_555 4_565 yes
Na21 O5 2.53029 1_555 2_545 yes
Na21 O5 2.53029 1_555 7_546 yes
Na21 O6 2.27437 1_555 1_555 yes
Na21 O6 2.27437 1_555 8_557 yes
Si1 O3 1.63156 1_555 1_555 yes
Si1 O4 1.63607 1_555 1_555 yes
Si1 O5 1.6752 1_555 1_555 yes
Si1 O6 1.49947 1_555 1_555 yes
Si2 Na2 2.97544 1_555 1_555 yes
Si2 O1 1.58835 1_555 1_555 yes
Si2 O2 1.59368 1_555 1_555 yes
Si2 O4 1.53785 1_555 1_555 yes
Si2 O4 1.53785 1_555 8_557 yes
In Ca2 3.31391 1_555 2_554 yes
In Ca2 3.31391 1_555 3_554 yes
In Na21 3.3009 1_555 2_554 yes
In Na21 3.3009 1_555 3_554 yes
In O2 2.27522 1_555 2_544 yes
In O2 2.27522 1_555 3_564 yes
In O5 2.20067 1_555 1_555 yes
In O5 2.20067 1_555 4_665 yes
In O5 2.20067 1_555 5_666 yes
In O5 2.20067 1_555 8_556 yes
O1 Ca1 2.25569 1_555 1_555 yes
O1 Ca2 2.41517 1_555 4_665 yes
O1 Na21 2.41633 1_555 4_665 yes
O1 Si2 1.58835 1_555 1_555 yes
O2 Na1 2.56341 1_555 2_555 yes
O2 Na1 2.56341 1_555 7_556 yes
O2 Ca2 2.42068 1_555 4_565 yes
O2 Na21 2.41435 1_555 4_565 yes
O2 Si2 1.59368 1_555 1_555 yes
O2 In 2.27522 1_555 2_555 yes
O3 Ca1 2.60535 1_555 2_544 yes
O3 Si1 1.63156 1_555 1_555 yes
O3 Si1 1.63156 1_555 4_565 yes
O4 Na1 2.609 1_555 4_665 yes
O4 Na2 2.6137 1_555 1_555 yes
O4 Si1 1.63607 1_555 1_555 yes
O4 Si2 1.53785 1_555 1_555 yes
O5 Na1 2.56729 1_555 4_665 yes
O5 Ca1 2.6924 1_555 2_544 yes
O5 Ca2 2.54159 1_555 2_554 yes
O5 Na21 2.53029 1_555 2_554 yes
O5 Si1 1.6752 1_555 1_555 yes
O5 In 2.20067 1_555 1_555 yes
O6 Na1 2.40859 1_555 1_555 yes
O6 Na1 2.55069 1_555 6_456 yes
O6 Ca2 2.26608 1_555 1_555 yes
O6 Na21 2.27437 1_555 1_555 yes
O6 Si1 1.49947 1_555 1_555 yes
loop_
_pd_meas_intensity_total
_pd_calc_intensity_total
_pd_proc_intensity_bkg_calc
_pd_proc_ls_weight
399 0 0 0
368 0 0 0
362 0 0 0
353 0 0 0
373 0 0 0
381 0 0 0
404 0 0 0
323 0 0 0
341 0 0 0
378 0 0 0
350 0 0 0
349 0 0 0
390 0 0 0
381 0 0 0
346 0 0 0
337 0 0 0
323 0 0 0
344 0 0 0
350 0 0 0
297 0 0 0
322 0 0 0
335 0 0 0
341 0 0 0
331 0 0 0
314 0 0 0
349 0 0 0
330 0 0 0
325 0 0 0
319 0 0 0
302 0 0 0
339 0 0 0
317 0 0 0
310 0 0 0
309 0 0 0
325 0 0 0
279 0 0 0
307 0 0 0
323 0 0 0
310 0 0 0
293 0 0 0
274 0 0 0
307 0 0 0
305 0 0 0
291 0 0 0
279 0 0 0
246 0 0 0
289 0 0 0
261 0 0 0
304 0 0 0
301 0 0 0
290 0 0 0
289 0 0 0
271 0 0 0
271 0 0 0
292 0 0 0
271 0 0 0
281 0 0 0
270 0 0 0
271 0 0 0
279 0 0 0
257 0 0 0
275 0 0 0
266 0 0 0
290 0 0 0
286 0 0 0
277 0 0 0
245 0 0 0
285 0 0 0
275 0 0 0
239 0 0 0
263 0 0 0
256 0 0 0
280 0 0 0
265 0 0 0
243 0 0 0
264 0 0 0
263 0 0 0
273 0 0 0
277 0 0 0
269 0 0 0
262 0 0 0
272 0 0 0
241 0 0 0
276 0 0 0
249 0 0 0
250 0 0 0
269 0 0 0
279 0 0 0
262 0 0 0
262 0 0 0
234 0 0 0
279 0 0 0
248 0 0 0
241 0 0 0
264 0 0 0
265 0 0 0
246 0 0 0
272 0 0 0
240 0 0 0
270 0 0 0
231 0 0 0
258 0 0 0
262 0 0 0
264 0 0 0
233 0 0 0
245 0 0 0
264 0 0 0
247 0 0 0
229 0 0 0
226 0 0 0
244 0 0 0
280 0 0 0
244 0 0 0
243 0 0 0
233 0 0 0
257 0 0 0
245 0 0 0
213 0 0 0
245 0 0 0
248 0 0 0
247 0 0 0
227 0 0 0
260 0 0 0
214 0 0 0
221 0 0 0
225 0 0 0
229 0 0 0
234 0 0 0
258 0 0 0
224 0 0 0
230 0 0 0
223 0 0 0
202 0 0 0
260 0 0 0
227 0 0 0
249 0 0 0
243 0 0 0
242 0 0 0
230 0 0 0
247 0 0 0
228 0 0 0
225 0 0 0
225 0 0 0
211 0 0 0
207 0 0 0
240 0 0 0
219 0 0 0
223 0 0 0
223 0 0 0
230 0 0 0
257 0 0 0
201 0 0 0
232 223.052296 223.052296 0.0043103
235 222.804885 222.804885 0.0042553
215 222.559989 222.559989 0.0046512
210 222.317559 222.317559 0.0047619
213 222.077549 222.077549 0.0046948
204 221.839912 221.839912 0.004902
206 221.604602 221.604602 0.0048544
240 221.371574 221.371574 0.0041667
232 221.140782 221.140782 0.0043103
221 220.912183 220.912183 0.0045249
235 220.685734 220.685734 0.0042553
221 220.461392 220.461392 0.0045249
214 220.239115 220.239115 0.0046729
214 220.018861 220.018861 0.0046729
203 219.800589 219.800589 0.0049261
220 219.584261 219.584261 0.0045455
219 219.369835 219.369835 0.0045662
223 219.157274 219.157274 0.0044843
260 218.946538 218.946538 0.0038462
211 218.73759 218.73759 0.0047393
223 218.530393 218.530393 0.0044843
237 218.32491 218.32491 0.0042194
245 218.121105 218.121105 0.0040816
210 217.918943 217.918943 0.0047619
212 217.718389 217.718389 0.004717
217 217.519408 217.519408 0.0046083
256 217.321967 217.321967 0.0039062
228 217.126033 217.126033 0.004386
229 216.931572 216.931572 0.0043668
232 216.738553 216.738553 0.0043103
227 216.546943 216.546943 0.0044053
197 216.356712 216.356712 0.0050761
208 216.167829 216.167829 0.0048077
232 215.980264 215.980264 0.0043103
197 215.793987 215.793987 0.0050761
224 215.608968 215.608968 0.0044643
206 215.42518 215.42518 0.0048544
212 215.242594 215.242594 0.004717
222 215.061182 215.061182 0.0045045
206 214.880917 214.880917 0.0048544
207 214.701772 214.701772 0.0048309
216 214.523721 214.523721 0.0046296
240 214.346737 214.346737 0.0041667
213 214.170795 214.170795 0.0046948
224 213.995871 213.995871 0.0044643
210 213.821939 213.821939 0.0047619
195 213.648975 213.648975 0.0051282
214 213.476956 213.476956 0.0046729
217 213.305857 213.305857 0.0046083
201 213.135657 213.135657 0.0049751
222 212.966333 212.966333 0.0045045
181 212.797861 212.797861 0.0055249
207 212.630222 212.630222 0.0048309
215 212.463392 212.463392 0.0046512
221 212.297352 212.297352 0.0045249
225 212.13208 212.13208 0.0044444
199 211.967557 211.967557 0.0050251
233 211.803762 211.803762 0.0042918
212 211.640675 211.640675 0.004717
200 211.478279 211.478279 0.005
193 211.316553 211.316553 0.0051813
230 211.15548 211.15548 0.0043478
212 210.995042 210.995042 0.004717
219 210.835219 210.835219 0.0045662
199 210.675996 210.675996 0.0050251
196 210.517355 210.517355 0.005102
194 210.359279 210.359279 0.0051546
217 210.201752 210.201752 0.0046083
197 210.044757 210.044757 0.0050761
210 209.888279 209.888279 0.0047619
196 209.732303 209.732303 0.005102
190 209.576812 209.576812 0.0052632
191 209.421792 209.421792 0.0052356
203 209.267229 209.267229 0.0049261
201 209.113108 209.113108 0.0049751
217 208.959416 208.959416 0.0046083
188 208.806137 208.806137 0.0053191
231 208.65326 208.65326 0.004329
184 208.50077 208.50077 0.0054348
213 208.348654 208.348654 0.0046948
211 208.196901 208.196901 0.0047393
202 208.045498 208.045498 0.0049505
201 207.894432 207.894432 0.0049751
201 207.743692 207.743692 0.0049751
227 207.593266 207.593266 0.0044053
189 207.443143 207.443143 0.005291
197 207.293311 207.293311 0.0050761
196 207.14376 207.14376 0.005102
201 206.994479 206.994479 0.0049751
201 206.845458 206.845458 0.0049751
196 206.696686 206.696686 0.005102
218 206.548154 206.548154 0.0045872
220 206.399851 206.399851 0.0045455
230 206.251769 206.251769 0.0043478
226 206.103898 206.103898 0.0044248
218 205.956229 205.956229 0.0045872
217 205.808753 205.808753 0.0046083
212 205.661462 205.661462 0.004717
204 205.514346 205.514346 0.004902
218 205.367399 205.367399 0.0045872
173 205.220611 205.220611 0.0057803
199 205.073975 205.073975 0.0050251
203 204.927484 204.927484 0.0049261
195 204.781129 204.781129 0.0051282
197 204.634904 204.634904 0.0050761
193 204.488802 204.488802 0.0051813
205 204.342815 204.342815 0.004878
193 204.196937 204.196937 0.0051813
222 204.051162 204.051162 0.0045045
207 203.905482 203.905482 0.0048309
190 203.759893 203.759893 0.0052632
200 203.614387 203.614387 0.005
218 203.468959 203.468959 0.0045872
201 203.323603 203.323603 0.0049751
209 203.178314 203.178314 0.0047847
211 203.033087 203.033087 0.0047393
199 202.887915 202.887915 0.0050251
203 202.742794 202.742794 0.0049261
186 202.59772 202.59772 0.0053763
194 202.452686 202.452686 0.0051546
207 202.30769 202.30769 0.0048309
190 202.162725 202.162725 0.0052632
198 202.017788 202.017788 0.0050505
216 201.872875 201.872875 0.0046296
188 201.727982 201.727982 0.0053191
215 201.583103 201.583103 0.0046512
219 201.438237 201.438237 0.0045662
231 201.293379 201.293379 0.004329
210 201.148525 201.148525 0.0047619
209 201.003672 201.003672 0.0047847
218 200.858817 200.858817 0.0045872
211 200.713956 200.713956 0.0047393
245 200.569086 200.569086 0.0040816
195 200.424205 200.424205 0.0051282
213 200.27931 200.27931 0.0046948
193 200.134398 200.134398 0.0051813
223 199.989465 199.989465 0.0044843
212 199.844511 199.844511 0.004717
210 199.699531 199.699531 0.0047619
188 199.554524 199.554524 0.0053191
206 199.409489 199.409489 0.0048544
198 199.264421 199.264421 0.0050505
200 199.11932 199.11932 0.005
202 198.974184 198.974184 0.0049505
185 198.829011 198.829011 0.0054054
211 198.683798 198.683798 0.0047393
189 198.538545 198.538545 0.005291
193 198.393249 198.393249 0.0051813
193 198.24791 198.24791 0.0051813
203 198.102526 198.102526 0.0049261
189 197.957095 197.957095 0.005291
195 197.811616 197.811616 0.0051282
201 197.666089 197.666089 0.0049751
196 197.520512 197.520512 0.005102
199 197.374883 197.374883 0.0050251
215 197.229203 197.229203 0.0046512
191 197.08347 197.08347 0.0052356
218 196.937684 196.937684 0.0045872
226 196.791843 196.791843 0.0044248
200 196.645948 196.645948 0.005
213 196.499997 196.499997 0.0046948
184 196.35399 196.35399 0.0054348
226 196.207926 196.207926 0.0044248
217 196.061806 196.061806 0.0046083
193 195.915628 195.915628 0.0051813
215 195.769393 195.769393 0.0046512
195 195.623101 195.623101 0.0051282
179 195.47675 195.47675 0.0055866
204 195.344385 195.330342 0.004902
227 195.197996 195.183875 0.0044053
191 195.05856 195.037351 0.0052356
176 194.912094 194.890768 0.0056818
189 194.765571 194.744128 0.005291
229 194.618992 194.59743 0.0043668
188 194.472356 194.450675 0.0053191
204 194.325664 194.303862 0.004902
202 194.178916 194.156993 0.0049505
208 194.032112 194.010067 0.0048077
185 193.885253 193.863084 0.0054054
202 193.738339 193.716046 0.0049505
219 193.591371 193.568952 0.0045662
198 193.44435 193.421804 0.0050505
177 193.297275 193.274601 0.0056497
197 193.150147 193.127345 0.0050761
206 193.002967 192.980035 0.0048544
194 192.855736 192.832673 0.0051546
165 192.708455 192.685259 0.0060606
174 192.561123 192.537794 0.0057471
164 192.413742 192.390279 0.0060976
202 192.266313 192.242714 0.0049505
204 192.118836 192.0951 0.004902
204 191.971312 191.947438 0.004902
188 191.823743 191.79973 0.0053191
176 191.676128 191.651975 0.0056818
209 191.52847 191.504175 0.0047847
208 191.380768 191.35633 0.0048077
208 191.233024 191.208442 0.0048077
193 191.08524 191.060512 0.0051813
199 190.937415 190.91254 0.0050251
192 190.789551 190.764528 0.0052083
189 190.641649 190.616477 0.005291
199 190.49371 190.468387 0.0050251
195 190.345735 190.320261 0.0051282
218 190.197726 190.172098 0.0045872
211 190.049684 190.0239 0.0047393
177 189.901609 189.875669 0.0056497
181 189.753502 189.727405 0.0055249
191 189.605366 189.57911 0.0052356
198 189.457201 189.430784 0.0050505
183 189.309009 189.28243 0.0054645
162 189.16079 189.134047 0.0061728
187 189.012546 188.985638 0.0053476
190 188.864279 188.837204 0.0052632
177 188.715989 188.688746 0.0056497
167 188.567677 188.540265 0.005988
218 188.419346 188.391762 0.0045872
187 188.270996 188.243239 0.0053476
169 188.122629 188.094697 0.0059172
187 187.974245 187.946138 0.0053476
209 187.825847 187.797562 0.0047847
204 187.677436 187.648971 0.004902
179 187.529013 187.500366 0.0055866
193 187.380579 187.351749 0.0051813
194 187.232136 187.203121 0.0051546
181 187.083685 187.054484 0.0055249
175 186.935227 186.905837 0.0057143
163 186.786764 186.757184 0.006135
178 186.638297 186.608525 0.005618
218 186.489828 186.459862 0.0045872
198 186.341357 186.311195 0.0050505
183 186.192887 186.162527 0.0054645
195 186.044418 186.013859 0.0051282
199 185.895953 185.865192 0.0050251
173 185.747492 185.716527 0.0057803
187 185.599036 185.567866 0.0053476
198 185.450588 185.41921 0.0050505
184 185.302148 185.27056 0.0054348
182 185.153719 185.121918 0.0054945
172 185.0053 184.973286 0.005814
207 184.856894 184.824663 0.0048309
208 184.708502 184.676053 0.0048077
198 184.560126 184.527456 0.0050505
159 184.411766 184.378873 0.0062893
180 184.263424 184.230306 0.0055556
210 184.115102 184.081756 0.0047619
220 183.966801 183.933224 0.0045455
173 183.818521 183.784713 0.0057803
163 183.670265 183.636222 0.006135
181 183.522034 183.487754 0.0055249
173 183.37383 183.339309 0.0057803
193 183.225652 183.190889 0.0051813
192 183.077503 183.042496 0.0052083
174 182.929385 182.89413 0.0057471
173 182.781298 182.745793 0.0057803
171 182.633243 182.597485 0.005848
170 182.485222 182.449209 0.0058824
202 182.337237 182.300966 0.0049505
175 182.189288 182.152756 0.0057143
189 182.041377 182.004581 0.005291
176 181.893505 181.856442 0.0056818
194 181.745673 181.708341 0.0051546
200 181.597883 181.560278 0.005
184 181.450136 181.412255 0.0054348
143 181.302432 181.264273 0.006993
173 181.154774 181.116333 0.0057803
190 181.007162 180.968436 0.0052632
196 180.859597 180.820584 0.005102
186 180.712082 180.672777 0.0053763
230 180.564616 180.525017 0.0043478
172 180.417201 180.377304 0.005814
166 180.269839 180.22964 0.0060241
193 180.122529 180.082026 0.0051813
155 179.975275 179.934464 0.0064516
173 179.828075 179.786953 0.0057803
173 179.680933 179.639495 0.0057803
182 179.533848 179.492092 0.0054945
195 179.386822 179.344743 0.0051282
176 179.239856 179.197451 0.0056818
210 179.092951 179.050216 0.0047619
171 178.946108 178.903039 0.005848
170 178.799329 178.755921 0.0058824
164 178.652613 178.608864 0.0060976
189 178.505962 178.461867 0.005291
176 178.359377 178.314933 0.0056818
167 178.21286 178.168061 0.005988
150 178.06641 178.021253 0.0066667
192 177.92003 177.874509 0.0052083
171 177.773719 177.727832 0.005848
166 177.627479 177.58122 0.0060241
177 177.481312 177.434676 0.0056497
182 177.335216 177.2882 0.0054945
150 177.189195 177.141793 0.0066667
183 177.043248 176.995456 0.0054645
186 176.897376 176.849189 0.0053763
182 176.75158 176.702994 0.0054945
174 176.605862 176.55687 0.0057471
149 176.460221 176.410819 0.0067114
158 176.314659 176.264842 0.0063291
180 176.169177 176.11894 0.0055556
213 176.023775 175.973112 0.0046948
177 175.878454 175.827359 0.0056497
158 175.733215 175.681683 0.0063291
132 175.588058 175.536085 0.0075758
165 175.442985 175.390563 0.0060606
183 175.297996 175.24512 0.0054645
174 175.153092 175.099756 0.0057471
184 175.008273 174.954471 0.0054348
155 174.86354 174.809267 0.0064516
163 174.718895 174.664143 0.006135
181 174.574336 174.5191 0.0055249
177 174.429866 174.374139 0.0056497
183 174.285485 174.22926 0.0054645
202 174.141194 174.084464 0.0049505
176 173.996992 173.939751 0.0056818
156 173.852881 173.795122 0.0064103
173 173.708861 173.650577 0.0057803
173 173.564934 173.506117 0.0057803
188 173.421098 173.361742 0.0053191
172 173.277356 173.217452 0.005814
183 173.133707 173.073249 0.0054645
171 172.990152 172.929131 0.005848
191 172.846692 172.785101 0.0052356
170 172.703327 172.641157 0.0058824
173 172.560057 172.497301 0.0057803
185 172.416884 172.353533 0.0054054
152 172.273807 172.209852 0.0065789
188 172.130827 172.06626 0.0053191
182 171.987944 171.922757 0.0054945
152 171.84516 171.779342 0.0065789
162 171.702474 171.636017 0.0061728
151 171.559886 171.492781 0.0066225
188 171.417398 171.349635 0.0053191
140 171.27501 171.206579 0.0071429
163 171.132721 171.063613 0.006135
156 170.990533 170.920737 0.0064103
188 170.848446 170.777951 0.0053191
164 170.706459 170.635256 0.0060976
175 170.567129 170.492652 0.0057143
171 170.425359 170.350139 0.005848
152 170.283691 170.207717 0.0065789
174 170.143405 170.065385 0.0057471
186 170.001949 169.923145 0.0053763
178 169.860597 169.780997 0.005618
170 169.719348 169.638939 0.0058824
168 169.578204 169.496973 0.0059524
176 169.441527 169.355099 0.0056818
145 169.300613 169.213316 0.0068966
185 169.161978 169.071624 0.0054054
167 169.021285 168.930024 0.005988
178 168.880698 168.788516 0.005618
180 168.740217 168.647098 0.0055556
171 168.599843 168.505772 0.005848
161 168.459574 168.364538 0.0062112
193 168.319413 168.223395 0.0051813
155 168.179358 168.082343 0.0064516
156 168.039411 167.941382 0.0064103
183 167.899571 167.800512 0.0054645
153 167.759838 167.659732 0.0065359
187 167.620214 167.519044 0.0053476
178 167.480698 167.378446 0.005618
151 167.34129 167.237939 0.0066225
183 167.201992 167.097522 0.0054645
159 167.062802 166.957195 0.0062893
157 166.923721 166.816958 0.0063694
161 166.784749 166.676811 0.0062112
148 166.645888 166.536753 0.0067568
153 166.507136 166.396785 0.0065359
168 166.368494 166.256905 0.0059524
178 166.229963 166.117115 0.005618
179 166.091543 165.977413 0.0055866
169 165.953234 165.837799 0.0059172
184 165.815035 165.698273 0.0054348
146 165.676949 165.558835 0.0068493
164 165.538974 165.419485 0.0060976
136 165.401111 165.280222 0.0073529
167 165.26336 165.141045 0.005988
168 165.125723 165.001955 0.0059524
160 164.988198 164.862951 0.00625
173 164.850786 164.724033 0.0057803
166 164.713488 164.5852 0.0060241
183 164.576305 164.446452 0.0054645
172 164.439235 164.30779 0.005814
196 164.302281 164.169211 0.005102
162 164.165441 164.030716 0.0061728
162 164.028717 163.892305 0.0061728
139 163.892109 163.753977 0.0071942
148 163.755618 163.615731 0.0067568
177 163.619243 163.477568 0.0056497
175 163.482986 163.339487 0.0057143
135 163.346847 163.201486 0.0074074
147 163.210826 163.063567 0.0068027
173 163.074924 162.925728 0.0057803
166 162.939142 162.78797 0.0060241
174 162.80348 162.65029 0.0057471
162 162.66794 162.51269 0.0061728
164 162.53252 162.375168 0.0060976
153 162.397223 162.237723 0.0065359
187 162.262049 162.100357 0.0053476
183 162.126999 161.963067 0.0054645
168 161.992074 161.825854 0.0059524
184 161.857274 161.688716 0.0054348
152 161.722601 161.551654 0.0065789
150 161.588055 161.414667 0.0066667
180 161.453638 161.277754 0.0055556
159 161.319351 161.140914 0.0062893
160 161.185194 161.004148 0.00625
149 161.051169 160.867454 0.0067114
134 160.917277 160.730831 0.0074627
169 160.78352 160.594281 0.0059172
180 160.649899 160.457801 0.0055556
166 160.516415 160.321391 0.0060241
158 160.38307 160.18505 0.0063291
166 160.249866 160.048779 0.0060241
159 160.116804 159.912575 0.0062893
142 159.983886 159.77644 0.0070423
162 159.851114 159.640371 0.0061728
162 159.71849 159.504369 0.0061728
150 159.586016 159.368432 0.0066667
167 159.453694 159.232561 0.005988
152 159.321527 159.096754 0.0065789
136 159.189517 158.961011 0.0073529
152 159.057667 158.825331 0.0065789
174 158.925979 158.689713 0.0057471
145 158.794457 158.554157 0.0068966
152 158.663103 158.418663 0.0065789
147 158.53192 158.283229 0.0068027
163 158.400912 158.147854 0.006135
157 158.270083 158.012539 0.0063694
158 158.139436 157.877282 0.0063291
158 158.008975 157.742083 0.0063291
184 157.878705 157.606941 0.0054348
150 157.748629 157.471855 0.0066667
152 157.618752 157.336824 0.0065789
164 157.48908 157.201849 0.0060976
163 157.359618 157.066928 0.006135
163 157.23037 156.93206 0.006135
148 157.101343 156.797245 0.0067568
143 156.972543 156.662483 0.006993
134 156.843976 156.527771 0.0074627
167 156.715649 156.39311 0.005988
147 156.58757 156.258499 0.0068027
165 156.459745 156.123937 0.0060606
153 156.332183 155.989424 0.0065359
157 156.204893 155.854958 0.0063694
174 156.077884 155.72054 0.0057471
171 155.951165 155.586167 0.005848
160 155.824746 155.451841 0.00625
163 155.698639 155.317558 0.006135
170 155.572854 155.18332 0.0058824
158 155.447405 155.049126 0.0063291
161 155.322303 154.914973 0.0062112
159 155.197562 154.780863 0.0062893
146 155.073198 154.646794 0.0068493
150 154.949226 154.512765 0.0066667
145 154.825662 154.378776 0.0068966
148 154.702524 154.244825 0.0067568
152 154.57983 154.110913 0.0065789
153 154.457601 153.977038 0.0065359
152 154.335859 153.843199 0.0065789
143 154.214625 153.709397 0.006993
167 154.093925 153.57563 0.005988
147 153.973784 153.441897 0.0068027
180 153.85423 153.308197 0.0055556
127 153.735294 153.174531 0.007874
161 153.617008 153.040897 0.0062112
154 153.499404 152.907294 0.0064935
163 153.382522 152.773722 0.006135
144 153.266401 152.64018 0.0069444
137 153.151083 152.506667 0.0072993
141 153.036614 152.373182 0.0070922
149 152.923043 152.239725 0.0067114
153 152.810426 152.106296 0.0065359
140 152.698819 151.972892 0.0071429
149 152.588286 151.839514 0.0067114
160 152.478892 151.706161 0.00625
159 152.370713 151.572832 0.0062893
156 152.263827 151.439526 0.0064103
151 152.158323 151.306242 0.0066225
131 152.054294 151.172981 0.0076336
152 151.951841 151.03974 0.0065789
144 151.856863 150.906521 0.0069444
114 151.75794 150.77332 0.0087719
169 151.660965 150.640139 0.0059172
144 151.568974 150.506976 0.0069444
161 151.476362 150.373831 0.0062112
145 151.386182 150.240702 0.0068966
148 151.298634 150.10759 0.0067568
162 151.213929 149.974492 0.0061728
155 151.13231 149.84141 0.0064516
146 151.054042 149.708342 0.0068493
169 150.982174 149.575287 0.0059172
145 150.911536 149.442244 0.0068966
153 150.845239 149.309214 0.0065359
162 150.785064 149.176195 0.0061728
148 150.728729 149.043186 0.0067568
147 150.678123 148.910187 0.0068027
147 150.633818 148.777198 0.0068027
157 150.596484 148.644216 0.0063694
148 150.566867 148.511243 0.0067568
138 150.545809 148.378277 0.0072464
148 150.53429 148.245318 0.0067568
160 150.533426 148.112364 0.00625
156 150.544485 147.979416 0.0064103
141 150.568957 147.846472 0.0070922
168 150.608562 147.713532 0.0059524
134 150.66528 147.580595 0.0074627
161 150.744311 147.447661 0.0062112
142 150.842738 147.314729 0.0070423
144 150.966622 147.181798 0.0069444
143 151.121278 147.048868 0.006993
168 151.308517 146.915938 0.0059524
154 151.535303 146.783007 0.0064935
185 151.808443 146.650076 0.0054054
157 152.136237 146.517142 0.0063694
155 152.528849 146.384207 0.0064516
171 152.999028 146.251268 0.005848
173 153.56275 146.118326 0.0057803
183 154.240185 145.98538 0.0054645
198 155.057387 145.852429 0.0050505
186 156.048183 145.719472 0.0053763
204 157.256962 145.58651 0.004902
205 158.743452 145.453541 0.004878
224 160.589179 145.320566 0.0044643
238 162.908845 145.187583 0.0042017
232 165.875452 145.054591 0.0043103
220 169.780557 144.921591 0.0045455
248 175.18962 144.788582 0.0040323
239 183.300379 144.655563 0.0041841
245 196.584173 144.522534 0.0040816
249 219.541452 144.389494 0.0040161
277 258.875758 144.256443 0.0036101
357 321.947041 144.12338 0.0028011
376 412.709599 143.990304 0.0026596
445 524.776686 143.857216 0.0022472
468 631.204336 143.724114 0.0021368
550 686.867031 143.590999 0.0018182
589 670.946353 143.457869 0.0016978
541 600.40967 143.324725 0.0018484
558 498.828972 143.191565 0.0017921
490 395.36958 143.058389 0.0020408
370 311.670723 142.925198 0.0027027
315 253.153982 142.791989 0.0031746
257 215.98832 142.658764 0.0038911
213 193.678915 142.525521 0.0046948
205 180.394665 142.39226 0.004878
188 172.111813 142.25898 0.0053191
192 166.514565 142.125682 0.0052083
200 162.423509 141.992364 0.005
182 159.263159 141.859027 0.0054945
194 156.736975 141.72567 0.0051546
183 154.672785 141.592292 0.0054645
177 152.958032 141.458894 0.0056497
175 151.513354 141.325474 0.0057143
148 150.280951 141.192033 0.0067568
156 149.217674 141.05857 0.0064103
155 148.290632 140.925084 0.0064516
160 147.474595 140.791576 0.00625
154 146.749917 140.658044 0.0064935
145 146.101012 140.52449 0.0068966
127 145.515522 140.390911 0.007874
120 144.983523 140.257309 0.0083333
148 144.496891 140.123682 0.0067568
119 144.049021 139.99003 0.0084034
136 143.634479 139.856354 0.0073529
155 143.248707 139.722652 0.0064516
140 142.887924 139.588924 0.0071429
122 142.548959 139.455171 0.0081967
140 142.229098 139.321392 0.0071429
113 141.926052 139.187586 0.0088496
153 141.637875 139.053753 0.0065359
139 141.362869 138.919894 0.0071942
129 141.099585 138.786007 0.0077519
126 140.846776 138.652093 0.0079365
131 140.603337 138.518151 0.0076336
129 140.368314 138.384181 0.0077519
133 140.140879 138.250184 0.0075188
130 139.920288 138.116157 0.0076923
138 139.705894 137.982103 0.0072464
120 139.49713 137.848019 0.0083333
123 139.293479 137.713907 0.0081301
141 139.094489 137.579765 0.0070922
128 138.899763 137.445594 0.0078125
121 138.708933 137.311394 0.0082645
130 138.521675 137.177164 0.0076923
152 138.337705 137.042904 0.0065789
148 138.156755 136.908614 0.0067568
160 137.978592 136.774294 0.00625
147 137.802998 136.639944 0.0068027
122 137.629783 136.505564 0.0081967
146 137.45877 136.371153 0.0068493
125 137.289802 136.236711 0.008
121 137.12273 136.102239 0.0082645
128 136.957424 135.967736 0.0078125
132 136.793759 135.833202 0.0075758
144 136.631628 135.698638 0.0069444
144 136.470927 135.564042 0.0069444
127 136.311566 135.429415 0.007874
126 136.153456 135.294757 0.0079365
138 135.996518 135.160068 0.0072464
131 135.84068 135.025347 0.0076336
140 135.685876 134.890595 0.0071429
133 135.532044 134.755812 0.0075188
107 135.379126 134.620998 0.0093458
150 135.22707 134.486152 0.0066667
161 135.075826 134.351275 0.0062112
154 134.925349 134.216367 0.0064935
141 134.775598 134.081427 0.0070922
140 134.626533 133.946456 0.0071429
134 134.478117 133.811453 0.0074627
131 134.330319 133.676419 0.0076336
144 134.183105 133.541354 0.0069444
137 134.036446 133.406258 0.0072993
141 133.890316 133.271131 0.0070922
134 133.74469 133.135973 0.0074627
138 133.599543 133.000783 0.0072464
135 133.454854 132.865563 0.0074074
124 133.310603 132.730312 0.0080645
113 133.166769 132.59503 0.0088496
131 133.023337 132.459717 0.0076336
133 132.880289 132.324374 0.0075188
136 132.73761 132.189 0.0073529
143 132.595286 132.053596 0.006993
131 132.453303 131.918162 0.0076336
118 132.311648 131.782698 0.0084746
160 132.170312 131.647204 0.00625
137 132.029283 131.51168 0.0072993
106 131.88855 131.376127 0.009434
150 131.748106 131.240544 0.0066667
146 131.607942 131.104931 0.0068493
123 131.46805 130.96929 0.0081301
113 131.328424 130.83362 0.0088496
126 131.189057 130.697921 0.0079365
123 131.049943 130.562193 0.0081301
153 130.911077 130.426438 0.0065359
120 130.772455 130.290654 0.0083333
130 130.634072 130.154842 0.0076923
122 130.495926 130.019002 0.0081967
129 130.358014 129.883136 0.0077519
127 130.220331 129.747242 0.007874
122 130.082878 129.611321 0.0081967
118 129.945653 129.475373 0.0084746
109 129.808654 129.339399 0.0091743
132 129.671881 129.203399 0.0075758
114 129.535335 129.067373 0.0087719
135 129.399015 128.931321 0.0074074
134 129.262923 128.795244 0.0074627
121 129.127061 128.659143 0.0082645
127 128.991431 128.523016 0.007874
126 128.856034 128.386865 0.0079365
127 128.720876 128.25069 0.007874
127 128.585958 128.114492 0.007874
115 128.451286 127.97827 0.0086957
134 128.316864 127.842025 0.0074627
143 128.182699 127.705757 0.006993
125 128.048795 127.569467 0.008
105 127.915161 127.433155 0.0095238
147 127.781803 127.296821 0.0068027
135 127.648731 127.160466 0.0074074
146 127.515952 127.024091 0.0068493
115 127.383478 126.887694 0.0086957
146 127.251318 126.751278 0.0068493
129 127.119486 126.614842 0.0077519
111 126.987993 126.478387 0.009009
111 126.856854 126.341913 0.009009
141 126.726084 126.20542 0.0070922
134 126.5957 126.06891 0.0074627
122 126.465718 125.932382 0.0081967
118 126.336159 125.795836 0.0084746
139 126.207042 125.659274 0.0071942
131 126.078391 125.522696 0.0076336
138 125.950231 125.386102 0.0072464
119 125.822587 125.249493 0.0084034
107 125.695487 125.112868 0.0093458
128 125.568965 124.97623 0.0078125
127 125.443052 124.839577 0.007874
111 125.317785 124.702911 0.009009
118 125.193205 124.566232 0.0084746
129 125.069355 124.429541 0.0077519
124 124.94628 124.292838 0.0080645
152 124.824035 124.156123 0.0065789
133 124.702673 124.019398 0.0075188
129 124.582257 123.882662 0.0077519
123 124.462853 123.745916 0.0081301
122 124.344536 123.609161 0.0081967
138 124.227387 123.472397 0.0072464
110 124.111493 123.335625 0.0090909
122 123.996954 123.198845 0.0081967
122 123.883876 123.062058 0.0081967
128 123.77238 122.925265 0.0078125
119 123.662599 122.788466 0.0084034
109 123.554679 122.651661 0.0091743
123 123.448783 122.514851 0.0081301
116 123.345097 122.378037 0.0086207
103 123.243824 122.24122 0.0097087
142 123.145191 122.104399 0.0070423
111 123.04946 121.967576 0.009009
129 122.956919 121.830751 0.0077519
130 122.867897 121.693925 0.0076923
128 122.782771 121.557098 0.0078125
122 122.701964 121.420271 0.0081967
130 122.625961 121.283445 0.0076923
127 122.555327 121.14662 0.007874
114 122.490699 121.009797 0.0087719
135 122.432823 120.872976 0.0074074
117 122.382572 120.736159 0.008547
128 122.340953 120.599345 0.0078125
100 122.309153 120.462536 0.01
120 122.288592 120.325732 0.0083333
119 122.28093 120.188934 0.0084034
120 122.288171 120.052142 0.0083333
118 122.312743 119.915357 0.0084746
132 122.357566 119.778581 0.0075758
123 122.426235 119.641812 0.0081301
115 122.523222 119.505053 0.0086957
124 122.654059 119.368304 0.0080645
134 122.825771 119.231565 0.0074627
132 123.047374 119.094838 0.0075758
145 123.330474 118.958122 0.0068966
145 123.690451 118.82142 0.0068966
135 124.148187 118.68473 0.0074074
142 124.733173 118.548055 0.0070423
157 125.490982 118.411395 0.0063694
147 126.50023 118.27475 0.0068027
170 127.908844 118.138121 0.0058824
152 130.000391 118.00151 0.0065789
178 133.280864 117.864916 0.005618
162 138.532422 117.728341 0.0061728
184 146.737398 117.591785 0.0054348
174 158.774547 117.455249 0.0057471
192 174.823097 117.318734 0.0052083
207 193.326277 117.182241 0.0048309
209 209.652504 117.045769 0.0047847
229 218.010789 116.909321 0.0043668
259 217.999457 116.772896 0.003861
258 213.786341 116.636496 0.003876
233 209.00012 116.500122 0.0042918
214 208.174791 116.363773 0.0046729
190 215.755464 116.227452 0.0052632
239 232.738021 116.091158 0.0041841
228 254.92102 115.954893 0.004386
223 272.153892 115.818657 0.0044843
257 274.76599 115.682451 0.0038911
268 263.498283 115.546276 0.0037313
227 243.271484 115.410132 0.0044053
199 217.325905 115.274021 0.0050251
170 190.925376 115.137944 0.0058824
174 168.838371 115.0019 0.0057471
152 152.553251 114.865891 0.0065789
154 141.448758 114.729918 0.0064935
125 134.212375 114.593982 0.008
143 129.546289 114.458083 0.006993
125 126.451983 114.322222 0.008
128 124.277885 114.1864 0.0078125
121 122.647851 114.050618 0.0082645
117 121.359524 113.914877 0.008547
126 120.303703 113.779177 0.0079365
136 119.417048 113.643519 0.0073529
122 118.659082 113.507905 0.0081967
132 118.001619 113.372335 0.0075758
127 117.423974 113.236809 0.007874
132 116.910643 113.101329 0.0075758
109 116.449729 112.965896 0.0091743
111 116.031939 112.83051 0.009009
113 115.650001 112.695173 0.0088496
128 115.298119 112.559884 0.0078125
131 114.971609 112.424646 0.0076336
124 114.666695 112.289458 0.0080645
105 114.380284 112.154322 0.0095238
107 114.109805 112.019239 0.0093458
122 113.853142 111.884209 0.0081967
112 113.608522 111.749233 0.0089286
114 113.374438 111.614312 0.0087719
103 113.149631 111.479448 0.0097087
115 112.933023 111.34464 0.0086957
125 112.723685 111.20989 0.008
111 112.520828 111.075199 0.009009
110 112.32377 110.940567 0.0090909
120 112.131909 110.805996 0.0083333
118 111.944734 110.671485 0.0084746
105 111.761793 110.537037 0.0095238
119 111.582686 110.402652 0.0084034
113 111.407067 110.268331 0.0088496
113 111.234631 110.134075 0.0088496
113 111.065101 109.999884 0.0088496
96 110.898238 109.86576 0.0104167
91 110.73383 109.731703 0.010989
99 110.571681 109.597715 0.010101
104 110.411622 109.463796 0.0096154
113 110.253502 109.329946 0.0088496
94 110.097181 109.196168 0.0106383
103 109.942537 109.062462 0.0097087
107 109.789459 108.928829 0.0093458
110 109.637847 108.795269 0.0090909
104 109.48761 108.661783 0.0096154
100 109.338669 108.528374 0.01
105 109.190948 108.39504 0.0095238
105 109.04438 108.261784 0.0095238
112 108.898908 108.128606 0.0089286
95 108.754475 107.995507 0.0105263
105 108.611032 107.862487 0.0095238
105 108.468535 107.729549 0.0095238
90 108.326943 107.596692 0.0111111
130 108.18622 107.463918 0.0076923
100 108.046335 107.331228 0.01
116 107.907257 107.198621 0.0086207
87 107.768959 107.0661 0.0114943
117 107.631419 106.933666 0.008547
103 107.494615 106.801318 0.0097087
105 107.358528 106.669058 0.0095238
101 107.223144 106.536888 0.009901
114 107.088448 106.404807 0.0087719
122 106.954428 106.272816 0.0081967
117 106.821074 106.140918 0.008547
109 106.688378 106.009111 0.0091743
95 106.556334 105.877398 0.0105263
116 106.424937 105.74578 0.0086207
119 106.294185 105.614256 0.0084034
113 106.164076 105.482829 0.0088496
118 106.034611 105.351498 0.0084746
93 105.905793 105.220265 0.0107527
99 105.777623 105.089131 0.010101
95 105.650109 104.958097 0.0105263
106 105.523257 104.827163 0.009434
93 105.397075 104.69633 0.0107527
111 105.271574 104.5656 0.009009
116 105.146767 104.434973 0.0086207
90 105.022666 104.30445 0.0111111
116 104.899287 104.174032 0.0086207
89 104.776651 104.043719 0.011236
91 104.654773 103.913514 0.010989
120 104.533678 103.783416 0.0083333
96 104.413391 103.653426 0.0104167
100 104.293936 103.523546 0.01
88 104.175344 103.393776 0.0113636
101 104.057649 103.264117 0.009901
113 103.940883 103.13457 0.0088496
104 103.825086 103.005136 0.0096154
101 103.710302 102.875816 0.009901
98 103.596574 102.746611 0.0102041
98 103.483954 102.617521 0.0102041
110 103.372497 102.488547 0.0090909
102 103.26226 102.35969 0.0098039
105 103.153311 102.230952 0.0095238
97 103.046852 102.102332 0.0103093
95 102.940701 101.973833 0.0105263
93 102.836073 101.845454 0.0107527
89 102.733061 101.717197 0.011236
107 102.631764 101.589062 0.0093458
103 102.532864 101.46105 0.0097087
114 102.435354 101.333162 0.0087719
93 102.339931 101.2054 0.0107527
90 102.246747 101.077763 0.0111111
98 102.15597 100.950253 0.0102041
92 102.067779 100.82287 0.0108696
92 101.98238 100.695616 0.0108696
104 101.900002 100.568491 0.0096154
104 101.82089 100.441496 0.0096154
117 101.74533 100.314632 0.008547
103 101.699159 100.1879 0.0097087
108 101.631791 100.0613 0.0092593
110 101.569041 99.934834 0.0090909
94 101.511361 99.808502 0.0106383
91 101.459252 99.682305 0.010989
91 101.426091 99.556244 0.010989
95 101.387003 99.43032 0.0105263
106 101.355474 99.304533 0.009434
122 101.332372 99.178885 0.0081967
93 101.318702 99.053375 0.0107527
126 101.315603 98.928006 0.0079365
100 101.324427 98.802777 0.01
106 101.346744 98.677691 0.009434
103 101.384412 98.552746 0.0097087
98 101.439594 98.427945 0.0102041
92 101.514903 98.303287 0.0108696
93 101.613433 98.178775 0.0107527
100 101.738929 98.054408 0.01
86 101.895941 97.930188 0.0116279
112 102.090064 97.806114 0.0089286
99 102.328121 97.682189 0.010101
99 102.618699 97.558413 0.010101
115 102.972627 97.434786 0.0086957
116 103.403567 97.311309 0.0086207
118 103.929261 97.187983 0.0084746
106 104.572956 97.06481 0.009434
100 105.365474 96.941789 0.01
111 106.349539 96.818921 0.009009
98 107.587584 96.696207 0.0102041
113 109.178543 96.573649 0.0088496
102 111.29592 96.451246 0.0098039
122 114.260366 96.328999 0.0081967
151 118.653921 96.20691 0.0066225
119 125.4511 96.084978 0.0084034
128 136.069858 95.963206 0.0078125
161 152.197374 95.841592 0.0062112
179 175.282418 95.720139 0.0055866
217 205.558671 95.598846 0.0046083
203 240.201636 95.477716 0.0049261
267 270.839645 95.356747 0.0037453
265 285.999347 95.235942 0.0037736
287 282.834761 95.1153 0.0034843
246 268.103565 94.994823 0.004065
230 246.138337 94.874511 0.0043478
214 219.558866 94.754364 0.0046729
196 194.248496 94.634385 0.005102
204 175.52897 94.514573 0.004902
191 165.534109 94.394928 0.0052356
156 164.261638 94.275453 0.0064103
183 170.456363 94.156146 0.0054645
158 181.354709 94.03701 0.0063291
171 191.789583 93.918045 0.005848
170 195.718989 93.799251 0.0058824
159 191.755633 93.680629 0.0062893
177 182.913142 93.56218 0.0056497
149 170.898661 93.443904 0.0067114
150 156.719684 93.325802 0.0066667
133 142.896321 93.207875 0.0075188
118 131.564043 93.090124 0.0084746
127 123.338235 92.972548 0.007874
107 117.958241 92.855149 0.0093458
134 114.943496 92.737928 0.0074627
130 113.934303 92.620884 0.0076923
140 114.868642 92.504019 0.0071429
139 118.042105 92.387334 0.0071942
132 124.028104 92.270828 0.0075758
148 133.430478 92.154502 0.0067568
149 146.438255 92.038358 0.0067114
128 162.044431 91.922395 0.0078125
145 176.819332 91.806615 0.0068966
160 185.211779 91.691018 0.00625
145 184.593042 91.575604 0.0068966
149 177.707892 91.460374 0.0067114
132 167.110845 91.345329 0.0075758
135 153.620176 91.230469 0.0074074
112 139.336246 91.115795 0.0089286
123 126.797035 91.001308 0.0081301
107 117.087122 90.887007 0.0093458
114 110.107015 90.772895 0.0087719
106 105.304373 90.65897 0.009434
105 102.056161 90.545234 0.0095238
99 99.831471 90.431687 0.010101
97 98.245965 90.31833 0.0103093
93 97.053341 90.205163 0.0107527
89 96.108981 90.092188 0.011236
97 95.331201 89.979404 0.0103093
98 94.672723 89.866811 0.0102041
104 94.104167 89.754411 0.0096154
105 93.605701 89.642205 0.0095238
94 93.167726 89.530191 0.0106383
81 92.77041 89.418372 0.0123457
88 92.410143 89.306748 0.0113636
89 92.080599 89.195318 0.011236
96 91.776748 89.084084 0.0104167
75 91.496872 88.973046 0.0133333
87 91.233177 88.862205 0.0114943
92 90.985314 88.751561 0.0108696
87 90.759716 88.641114 0.0114943
100 90.537436 88.530865 0.01
92 90.325544 88.420815 0.0108696
101 90.122778 88.310963 0.009901
81 89.92809 88.201311 0.0123457
83 89.744881 88.091859 0.0120482
79 89.563771 87.982607 0.0126582
84 89.388396 87.873556 0.0119048
76 89.218178 87.764706 0.0131579
90 89.052612 87.656058 0.0111111
82 88.891271 87.547611 0.0121951
94 88.733769 87.439368 0.0106383
97 88.579767 87.331327 0.0103093
90 88.428975 87.223489 0.0111111
86 88.281128 87.115855 0.0116279
90 88.135989 87.008426 0.0111111
84 87.993354 86.901201 0.0119048
95 87.853037 86.794181 0.0105263
94 87.714869 86.687366 0.0106383
89 87.578702 86.580757 0.011236
85 87.4444 86.474354 0.0117647
90 87.31184 86.368157 0.0111111
87 87.180914 86.262168 0.0114943
81 87.05152 86.156385 0.0123457
88 86.923566 86.05081 0.0113636
86 86.796971 85.945443 0.0116279
80 86.671658 85.840285 0.0125
92 86.547557 85.735335 0.0108696
103 86.424606 85.630594 0.0097087
91 86.302745 85.526062 0.010989
96 86.181922 85.42174 0.0104167
74 86.062086 85.317628 0.0135135
104 85.943193 85.213727 0.0096154
69 85.825199 85.110036 0.0144928
86 85.708067 85.006556 0.0116279
92 85.591762 84.903287 0.0108696
87 85.476248 84.800229 0.0114943
71 85.361495 84.697384 0.0140845
74 85.247475 84.594751 0.0135135
87 85.134161 84.49233 0.0114943
102 85.021527 84.390122 0.0098039
91 84.909552 84.288126 0.010989
79 84.798213 84.186344 0.0126582
113 84.68749 84.084776 0.0088496
86 84.577364 83.983421 0.0116279
84 84.467818 83.88228 0.0119048
75 84.358835 83.781354 0.0133333
88 84.250399 83.680642 0.0113636
84 84.142496 83.580145 0.0119048
93 84.035113 83.479863 0.0107527
91 83.928237 83.379796 0.010989
82 83.821855 83.279944 0.0121951
69 83.715956 83.180308 0.0144928
95 83.610531 83.080888 0.0105263
100 83.505568 82.981684 0.01
95 83.401058 82.882697 0.0105263
93 83.296993 82.783926 0.0107527
93 83.193364 82.685371 0.0107527
72 83.090162 82.587033 0.0138889
74 82.987382 82.488913 0.0135135
83 82.885016 82.39101 0.0120482
75 82.783056 82.293324 0.0133333
101 82.681498 82.195855 0.009901
89 82.580334 82.098605 0.011236
72 82.479559 82.001572 0.0138889
104 82.379169 81.904757 0.0096154
97 82.279158 81.808161 0.0103093
98 82.17952 81.711782 0.0102041
105 82.080253 81.615623 0.0095238
87 81.981352 81.519681 0.0114943
84 81.882811 81.423959 0.0119048
67 81.784629 81.328455 0.0149254
92 81.686801 81.23317 0.0108696
93 81.589324 81.138105 0.0107527
72 81.492194 81.043258 0.0138889
89 81.39541 80.948631 0.011236
95 81.298967 80.854223 0.0105263
89 81.202863 80.760034 0.011236
99 81.107096 80.666065 0.010101
85 81.011663 80.572316 0.0117647
93 80.916563 80.478786 0.0107527
87 80.821792 80.385476 0.0114943
81 80.727349 80.292386 0.0123457
71 80.633232 80.199516 0.0140845
75 80.53944 80.106865 0.0133333
74 80.445971 80.014435 0.0135135
79 80.352823 79.922225 0.0126582
66 80.260063 79.830234 0.0151515
76 80.167553 79.738464 0.0131579
73 80.075361 79.646914 0.0136986
83 79.983486 79.555583 0.0120482
78 79.89196 79.464473 0.0128205
99 79.800714 79.373584 0.010101
95 79.709782 79.282914 0.0105263
76 79.619163 79.192464 0.0131579
72 79.528856 79.102235 0.0138889
82 79.438861 79.012226 0.0121951
110 79.349178 78.922437 0.0090909
83 79.259805 78.832867 0.0120482
76 79.170742 78.743519 0.0131579
76 79.081991 78.65439 0.0131579
94 78.993549 78.565481 0.0106383
87 78.905418 78.476792 0.0114943
74 78.817596 78.388323 0.0135135
82 78.730086 78.300074 0.0121951
92 78.642885 78.212045 0.0108696
74 78.555996 78.124235 0.0135135
88 78.469417 78.036646 0.0113636
84 78.383151 77.949275 0.0119048
79 78.297196 77.862125 0.0126582
78 78.211554 77.775194 0.0128205
81 78.126226 77.688482 0.0123457
80 78.041212 77.60199 0.0125
71 77.956513 77.515717 0.0140845
87 77.87213 77.429663 0.0114943
70 77.788064 77.343828 0.0142857
75 77.704317 77.258212 0.0133333
66 77.620889 77.172815 0.0151515
74 77.537782 77.087636 0.0135135
86 77.454997 77.002676 0.0116279
89 77.36607 76.917935 0.011236
64 77.283959 76.833411 0.015625
72 77.202175 76.749106 0.0138889
97 77.117497 76.665019 0.0103093
76 77.036386 76.58115 0.0131579
81 76.955609 76.497498 0.0123457
82 76.875169 76.414064 0.0121951
86 76.795066 76.330848 0.0116279
77 76.715305 76.247848 0.012987
100 76.635888 76.165066 0.01
87 76.556818 76.082501 0.0114943
74 76.478099 76.000152 0.0135135
92 76.399733 75.91802 0.0108696
78 76.321724 75.836104 0.0128205
68 76.244076 75.754404 0.0147059
71 76.166793 75.672921 0.0140845
78 76.08988 75.591653 0.0128205
84 76.013339 75.5106 0.0119048
72 75.937178 75.429763 0.0138889
65 75.8614 75.349141 0.0153846
86 75.786011 75.268734 0.0116279
69 75.711015 75.188541 0.0144928
87 75.636421 75.108563 0.0114943
78 75.562233 75.028799 0.0128205
80 75.488459 74.949249 0.0125
90 75.415104 74.869913 0.0111111
67 75.342178 74.79079 0.0149254
75 75.269687 74.71188 0.0133333
79 75.197641 74.633183 0.0126582
83 75.126048 74.554699 0.0120482
81 75.054917 74.476427 0.0123457
70 74.984259 74.398368 0.0142857
74 74.914085 74.32052 0.0135135
90 74.844404 74.242884 0.0111111
67 74.775232 74.165459 0.0149254
90 74.706578 74.088245 0.0111111
91 74.638458 74.011242 0.010989
87 74.570886 73.934449 0.0114943
57 74.503877 73.857867 0.0175439
76 74.437448 73.781494 0.0131579
70 74.371617 73.705331 0.0142857
61 74.306402 73.629376 0.0163934
70 74.241824 73.553631 0.0142857
53 74.177905 73.478094 0.0188679
67 74.114667 73.402766 0.0149254
84 74.052135 73.327645 0.0119048
81 73.990337 73.252732 0.0123457
77 73.9293 73.178026 0.012987
67 73.869055 73.103527 0.0149254
82 73.809637 73.029234 0.0121951
65 73.751078 72.955148 0.0153846
76 73.704578 72.881267 0.0131579
83 73.647903 72.807592 0.0120482
66 73.592213 72.734122 0.0151515
80 73.537556 72.660857 0.0125
57 73.483988 72.587796 0.0175439
76 73.437138 72.514939 0.0131579
68 73.385938 72.442285 0.0147059
80 73.336012 72.369835 0.0125
62 73.28743 72.297587 0.016129
67 73.271494 72.225542 0.0149254
53 73.22597 72.153699 0.0188679
69 73.182051 72.082058 0.0144928
85 73.139845 72.010618 0.0117647
72 73.099467 71.939378 0.0138889
74 73.076641 71.868339 0.0135135
84 73.041879 71.797501 0.0119048
72 73.007853 71.726861 0.0138889
87 72.976239 71.656421 0.0114943
75 72.947224 71.586179 0.0133333
70 72.921018 71.516136 0.0142857
69 72.898608 71.446291 0.0144928
80 72.878737 71.376643 0.0125
79 72.862453 71.307192 0.0126582
68 72.850075 71.237938 0.0147059
62 72.841964 71.168879 0.016129
69 72.838534 71.100017 0.0144928
68 72.840241 71.031349 0.0147059
89 72.847608 70.962876 0.011236
68 72.861236 70.894598 0.0147059
66 72.881796 70.826513 0.0151515
58 72.910065 70.758622 0.0172414
77 72.946944 70.690924 0.012987
67 72.993452 70.623418 0.0149254
66 73.077396 70.556104 0.0151515
76 73.147048 70.488981 0.0131579
70 73.23053 70.422049 0.0142857
71 73.329748 70.355308 0.0140845
64 73.446956 70.288757 0.015625
63 73.598141 70.222395 0.015873
78 73.759918 70.156222 0.0128205
85 73.949389 70.090238 0.0117647
66 74.17123 70.024441 0.0151515
72 74.431057 69.958832 0.0138889
85 74.735865 69.89341 0.0117647
70 75.094336 69.828175 0.0142857
97 75.517207 69.763125 0.0103093
66 76.018185 69.698261 0.0151515
88 76.614818 69.633582 0.0113636
91 77.329662 69.569087 0.010989
91 78.192788 69.504775 0.010989
73 79.245326 69.440648 0.0136986
92 80.54604 69.376702 0.0108696
89 82.185808 69.31294 0.011236
71 84.314462 69.249358 0.0140845
79 87.1874 69.185958 0.0126582
102 91.236583 69.122739 0.0098039
85 97.146552 69.059699 0.0117647
127 105.89631 68.996839 0.007874
111 118.689935 68.934158 0.009009
120 136.733525 68.871656 0.0083333
155 160.764543 68.809331 0.0064516
146 190.136031 68.747183 0.0068493
154 221.071436 68.685212 0.0064935
185 245.267294 68.623418 0.0054054
189 254.267731 68.561798 0.005291
175 248.548472 68.500354 0.0057143
173 235.227861 68.439084 0.0057803
161 217.846811 68.377988 0.0062112
177 195.837257 68.317065 0.0056497
171 170.837101 68.256315 0.005848
135 147.064758 68.195737 0.0074074
131 127.374828 68.13533 0.0076336
102 112.364025 68.075095 0.0098039
120 101.476638 68.015029 0.0083333
100 93.809367 67.955133 0.01
101 88.466597 67.895407 0.009901
93 84.7049 67.835848 0.0107527
90 81.980163 67.776458 0.0111111
87 79.928084 67.717235 0.0114943
80 78.322401 67.658179 0.0125
81 77.026408 67.599288 0.0123457
87 75.956265 67.540564 0.0114943
66 75.057712 67.482004 0.0151515
87 74.293828 67.423608 0.0114943
67 73.637476 67.365376 0.0149254
75 73.068165 67.307306 0.0133333
69 72.570255 67.249399 0.0144928
90 72.131443 67.191654 0.0111111
82 71.741921 67.13407 0.0121951
95 71.394031 67.076647 0.0105263
65 71.081329 67.019383 0.0153846
86 70.798698 66.962278 0.0116279
86 70.54191 66.905333 0.0116279
74 70.307463 66.848545 0.0135135
87 70.092427 66.791914 0.0114943
85 69.89438 66.73544 0.0117647
62 69.711267 66.679122 0.016129
78 69.54133 66.622959 0.0128205
79 69.383082 66.566951 0.0126582
77 69.235247 66.511097 0.012987
70 69.096722 66.455397 0.0142857
93 68.96658 66.399849 0.0107527
68 68.844001 66.344453 0.0147059
71 68.72827 66.289209 0.0140845
75 68.618768 66.234116 0.0133333
79 68.514951 66.179173 0.0126582
79 68.416341 66.124379 0.0126582
70 68.322527 66.069734 0.0142857
78 68.233145 66.015237 0.0128205
76 68.147866 65.960888 0.0131579
54 68.066406 65.906685 0.0185185
80 67.98851 65.852629 0.0125
63 67.913953 65.798718 0.015873
70 67.842544 65.744952 0.0142857
74 67.774105 65.69133 0.0135135
86 67.708482 65.637852 0.0116279
76 67.64554 65.584517 0.0131579
72 67.585157 65.531323 0.0138889
62 67.527226 65.478271 0.016129
71 67.472093 65.42536 0.0140845
62 67.418816 65.372589 0.016129
69 67.367755 65.319957 0.0144928
80 67.318856 65.267464 0.0125
71 67.272065 65.215109 0.0140845
73 67.227347 65.162891 0.0136986
70 67.184885 65.11081 0.0142857
73 67.144227 65.058865 0.0136986
81 67.105573 65.007055 0.0123457
68 67.068913 64.95538 0.0147059
70 67.034249 64.903838 0.0142857
72 67.001584 64.85243 0.0138889
63 66.970933 64.801155 0.015873
56 66.942313 64.750011 0.0178571
60 66.91575 64.698998 0.0166667
69 66.89128 64.648116 0.0144928
72 66.868939 64.597363 0.0138889
73 66.848775 64.54674 0.0136986
63 66.830845 64.496245 0.015873
71 66.815205 64.445877 0.0140845
82 66.801926 64.395637 0.0121951
84 66.791085 64.345523 0.0119048
87 66.782772 64.295534 0.0114943
78 66.777076 64.24567 0.0128205
79 66.77411 64.19593 0.0126582
70 66.77398 64.146314 0.0142857
70 66.776816 64.09682 0.0142857
93 66.782759 64.047449 0.0107527
76 66.791957 63.998198 0.0131579
72 66.804577 63.949069 0.0138889
69 66.82081 63.900059 0.0144928
66 66.840837 63.851168 0.0151515
72 66.864884 63.802396 0.0138889
71 66.893187 63.753742 0.0140845
62 66.926011 63.705205 0.016129
61 66.963631 63.656784 0.0163934
80 67.006374 63.608479 0.0125
79 67.054564 63.560289 0.0126582
58 67.108584 63.512213 0.0172414
63 67.168851 63.46425 0.015873
65 67.235827 63.4164 0.0153846
60 67.310006 63.368663 0.0166667
85 67.391954 63.321037 0.0117647
83 67.482308 63.273521 0.0120482
83 67.581724 63.226116 0.0120482
78 67.690988 63.178819 0.0128205
69 67.810966 63.131632 0.0144928
79 67.94261 63.084552 0.0126582
77 68.087009 63.037579 0.012987
81 68.245415 62.990713 0.0123457
72 68.419912 62.943952 0.0138889
79 68.610598 62.897296 0.0126582
77 68.820036 62.850745 0.012987
71 69.050347 62.804297 0.0140845
76 69.303771 62.757952 0.0131579
72 69.583194 62.711709 0.0138889
62 69.892137 62.665568 0.016129
67 70.233686 62.619527 0.0149254
67 70.612738 62.573586 0.0149254
81 71.034685 62.527745 0.0123457
90 71.505976 62.482002 0.0111111
81 72.034704 62.436357 0.0123457
77 72.63068 62.390809 0.012987
92 73.306811 62.345357 0.0108696
80 74.080422 62.300002 0.0125
82 74.976179 62.254741 0.0121951
78 76.031484 62.209575 0.0128205
70 77.304716 62.164502 0.0142857
73 78.88624 62.119522 0.0136986
111 80.904326 62.074634 0.009009
104 83.533308 62.029838 0.0096154
108 86.97409 61.985132 0.0092593
114 91.420178 61.940517 0.0087719
117 96.979161 61.895991 0.008547
120 103.523162 61.851553 0.0083333
127 110.404855 61.807204 0.007874
147 116.33225 61.762941 0.0068027
148 120.172362 61.718765 0.0067568
159 122.253354 61.674675 0.0062893
144 123.871534 61.63067 0.0069444
186 125.782906 61.58675 0.0053763
192 128.051864 61.542913 0.0052083
176 131.053787 61.499159 0.0056818
204 135.945477 61.455488 0.004902
193 144.226909 61.411898 0.0051813
248 157.65352 61.368388 0.0040323
249 178.551523 61.324959 0.0040161
288 210.066162 61.28161 0.0034722
364 256.003507 61.238339 0.0027473
353 320.185977 61.195147 0.0028329
408 405.068318 61.152032 0.002451
504 508.982584 61.108993 0.0019841
554 620.610313 61.066031 0.0018051
543 713.664897 61.023144 0.0018416
632 757.127283 60.980331 0.0015823
653 745.638322 60.937592 0.0015314
593 703.11453 60.894927 0.0016863
588 649.092856 60.852334 0.0017007
459 583.133184 60.809813 0.0021786
420 501.726731 60.767363 0.002381
376 414.214088 60.724984 0.0026596
334 334.302839 60.682674 0.002994
281 269.103952 60.640434 0.0035587
218 219.31078 60.598262 0.0045872
196 182.763483 60.556157 0.005102
143 156.547789 60.51412 0.006993
131 137.869385 60.472149 0.0076336
123 124.42221 60.430244 0.0081301
107 114.498057 60.388403 0.0093458
103 106.927913 60.346627 0.0097087
111 100.961772 60.304915 0.009009
105 96.131983 60.263266 0.0095238
101 92.141769 60.221679 0.009901
78 88.795508 60.180153 0.0128205
89 85.957731 60.138689 0.011236
89 83.528494 60.097285 0.011236
76 81.43211 60.05594 0.0131579
90 79.610375 60.014654 0.0111111
78 78.016883 59.973427 0.0128205
81 76.614674 59.932257 0.0123457
69 75.374296 59.891145 0.0144928
67 74.271489 59.850088 0.0149254
71 73.286395 59.809087 0.0140845
71 72.402886 59.768141 0.0140845
81 71.607294 59.72725 0.0123457
69 70.888224 59.686412 0.0144928
69 70.23624 59.645627 0.0144928
80 69.643203 59.604894 0.0125
72 69.102194 59.564213 0.0138889
67 68.607456 59.523584 0.0149254
91 68.153896 59.483004 0.010989
71 67.737141 59.442474 0.0140845
76 67.353506 59.401994 0.0131579
61 66.999697 59.361562 0.0163934
56 66.672849 59.321177 0.0178571
62 66.371634 59.28084 0.016129
73 66.091707 59.24055 0.0136986
59 65.832239 59.200305 0.0169492
71 65.591555 59.160105 0.0140845
62 65.368222 59.11995 0.016129
65 65.160916 59.07984 0.0153846
62 64.969093 59.039772 0.016129
72 64.790664 58.999747 0.0138889
60 64.625292 58.959765 0.0166667
65 64.47221 58.919824 0.0153846
63 64.330781 58.879923 0.015873
79 64.201021 58.840063 0.0126582
67 64.081248 58.800243 0.0149254
56 63.971651 58.760461 0.0178571
63 63.871885 58.720718 0.015873
69 63.781679 58.681013 0.0144928
70 63.700834 58.641345 0.0142857
66 63.62951 58.601713 0.0151515
44 63.567002 58.562118 0.0227273
63 63.513621 58.522557 0.015873
54 63.469389 58.483032 0.0185185
62 63.434416 58.44354 0.016129
50 63.408887 58.404083 0.02
57 63.393022 58.364658 0.0175439
71 63.387167 58.325265 0.0140845
54 63.391718 58.285904 0.0185185
52 63.407155 58.246574 0.0192308
57 63.434074 58.207275 0.0175439
69 63.473194 58.168006 0.0144928
67 63.525324 58.128766 0.0149254
52 63.591446 58.089555 0.0192308
63 63.672718 58.050372 0.015873
58 63.77045 58.011217 0.0172414
66 63.886213 57.972089 0.0151515
57 64.021844 57.932987 0.0175439
59 64.17945 57.893911 0.0169492
65 64.361558 57.854861 0.0153846
68 64.571141 57.815835 0.0147059
68 64.811669 57.776834 0.0147059
66 65.087325 57.737856 0.0151515
72 65.40311 57.698902 0.0138889
51 65.764947 57.659969 0.0196078
60 66.180104 57.621059 0.0166667
70 66.657464 57.58217 0.0142857
63 67.207789 57.543303 0.015873
51 67.844589 57.504455 0.0196078
69 68.584871 57.465627 0.0144928
72 69.450014 57.426818 0.0138889
93 70.468214 57.388028 0.0107527
69 71.677469 57.349257 0.0144928
79 73.131568 57.310502 0.0126582
83 74.910767 57.271765 0.0120482
70 77.14071 57.233044 0.0142857
87 80.018403 57.19434 0.0114943
99 83.847787 57.15565 0.010101
93 89.067979 57.116976 0.0107527
101 96.257803 57.078316 0.009901
96 106.091654 57.03967 0.0104167
104 119.227234 57.001038 0.0096154
127 136.067096 56.962418 0.007874
138 156.294814 56.92381 0.0072464
158 177.974058 56.885215 0.0063291
165 196.876447 56.84663 0.0060606
202 208.60316 56.808057 0.0049505
221 213.442005 56.769494 0.0045249
228 216.498654 56.73094 0.004386
214 222.254694 56.692396 0.0046729
236 231.828908 56.653861 0.0042373
235 245.025217 56.615334 0.0042553
236 262.582449 56.576815 0.0042373
295 284.032069 56.538303 0.0033898
271 303.81689 56.499798 0.00369
271 312.550329 56.461299 0.00369
261 305.842736 56.422806 0.0038314
238 289.159872 56.384319 0.0042017
256 269.82008 56.345837 0.0039062
205 249.28048 56.307359 0.004878
227 225.068451 56.268885 0.0044053
177 197.212988 56.230414 0.0056497
158 169.430155 56.191947 0.0063291
125 145.155399 56.153482 0.008
135 125.659836 56.115019 0.0074074
114 110.744785 56.076558 0.0087719
83 99.657048 56.038098 0.0120482
80 91.527865 55.999639 0.0125
98 85.566051 55.96118 0.0102041
79 81.130191 55.922721 0.0126582
94 77.746063 55.884262 0.0106383
74 75.086267 55.845802 0.0135135
65 72.936883 55.80734 0.0153846
68 71.159602 55.768876 0.0147059
79 69.664164 55.73041 0.0126582
67 68.389092 55.691941 0.0149254
60 67.290759 55.653469 0.0166667
86 66.336287 55.614993 0.0116279
82 65.500645 55.576513 0.0121951
83 64.764002 55.538029 0.0120482
70 64.110565 55.49954 0.0142857
82 63.52756 55.461046 0.0121951
58 63.004724 55.422546 0.0172414
74 62.533491 55.38404 0.0135135
76 62.106788 55.345527 0.0131579
77 61.718814 55.307008 0.012987
66 61.36461 55.268481 0.0151515
71 61.040018 55.229946 0.0140845
66 60.741499 55.191404 0.0151515
73 60.466085 55.152853 0.0136986
55 60.211153 55.114293 0.0181818
71 59.974519 55.075724 0.0140845
63 59.754237 55.037145 0.015873
73 59.548635 54.998556 0.0136986
71 59.356245 54.959957 0.0140845
61 59.175815 54.921347 0.0163934
67 59.006197 54.882726 0.0149254
59 58.846427 54.844094 0.0169492
54 58.695616 54.805449 0.0185185
54 58.552988 54.766793 0.0185185
46 58.417848 54.728124 0.0217391
61 58.289598 54.689442 0.0163934
55 58.16767 54.650746 0.0181818
72 58.05159 54.612037 0.0138889
55 57.940906 54.573314 0.0181818
60 57.835221 54.534577 0.0166667
42 57.734173 54.495825 0.0238095
57 57.637449 54.457058 0.0175439
63 57.544747 54.418275 0.015873
67 57.455812 54.379477 0.0149254
63 57.370399 54.340663 0.015873
57 57.288289 54.301833 0.0175439
53 57.209283 54.262986 0.0188679
58 57.133208 54.224122 0.0172414
52 57.059894 54.185241 0.0192308
55 56.989197 54.146342 0.0181818
72 56.920981 54.107425 0.0138889
51 56.855123 54.06849 0.0196078
52 56.788862 54.029537 0.0192308
68 56.727405 53.990564 0.0147059
48 56.667999 53.951573 0.0208333
60 56.609243 53.912562 0.0166667
63 56.553714 53.873531 0.015873
59 56.500019 53.834481 0.0169492
45 56.448098 53.79541 0.0222222
47 56.397906 53.756318 0.0212766
69 56.349397 53.717206 0.0144928
49 56.302538 53.678072 0.0204082
57 56.257302 53.638917 0.0175439
61 56.213672 53.599741 0.0163934
53 56.171634 53.560542 0.0188679
56 56.131192 53.521321 0.0178571
50 56.091087 53.482078 0.02
48 56.053877 53.442812 0.0208333
49 56.01833 53.403523 0.0204082
46 55.983865 53.364211 0.0217391
58 55.965301 53.324875 0.0172414
54 55.935189 53.285515 0.0185185
58 55.907096 53.246132 0.0172414
54 55.881189 53.206724 0.0185185
44 55.857702 53.167292 0.0227273
63 55.836941 53.127835 0.015873
47 55.819332 53.088353 0.0212766
40 55.812244 53.048846 0.025
60 55.803131 53.009313 0.0166667
43 55.800187 52.969755 0.0232558
44 55.805731 52.930171 0.0227273
58 55.82332 52.890561 0.0172414
53 55.85811 52.850924 0.0188679
40 55.916926 52.811261 0.025
41 56.007896 52.771572 0.0243902
57 56.139189 52.731855 0.0175439
47 56.316579 52.692112 0.0212766
48 56.538529 52.652341 0.0208333
39 56.784062 52.612542 0.025641
61 57.00619 52.572716 0.0163934
71 57.133447 52.532862 0.0140845
61 57.130552 52.49298 0.0163934
51 57.037111 52.453069 0.0196078
60 56.913187 52.41313 0.0166667
57 56.781223 52.373163 0.0175439
49 56.625636 52.333167 0.0204082
47 56.436222 52.293141 0.0212766
52 56.233168 52.253087 0.0192308
62 56.045853 52.213003 0.016129
60 55.890462 52.17289 0.0166667
59 55.769756 52.132747 0.0169492
55 55.680077 52.092574 0.0181818
53 55.61576 52.052371 0.0188679
54 55.571153 52.012139 0.0185185
60 55.541356 51.971875 0.0166667
55 55.522553 51.931582 0.0181818
45 55.511986 51.891258 0.0222222
48 55.507809 51.850903 0.0208333
48 55.508833 51.810518 0.0208333
55 55.514318 51.770101 0.0181818
48 55.523792 51.729654 0.0208333
57 55.536968 51.689175 0.0175439
52 55.553662 51.648665 0.0192308
53 55.573763 51.608123 0.0188679
48 55.597216 51.56755 0.0208333
52 55.624014 51.526945 0.0192308
48 55.654167 51.486309 0.0208333
53 55.687726 51.44564 0.0188679
47 55.72476 51.40494 0.0212766
45 55.765354 51.364207 0.0222222
53 55.809617 51.323442 0.0188679
52 55.857682 51.282645 0.0192308
62 55.909686 51.241815 0.016129
57 55.965797 51.200953 0.0175439
41 56.026192 51.160058 0.0243902
54 56.091058 51.11913 0.0185185
53 56.17958 51.07817 0.0188679
69 56.254124 51.037176 0.0144928
58 56.333837 50.99615 0.0172414
57 56.419003 50.955091 0.0175439
55 56.509915 50.913999 0.0181818
64 56.606884 50.872873 0.015625
53 56.719726 50.831715 0.0188679
40 56.829925 50.790523 0.025
50 56.947309 50.749298 0.02
50 57.072325 50.708039 0.02
53 57.205469 50.666747 0.0188679
64 57.347224 50.625421 0.015625
56 57.498167 50.584062 0.0178571
55 57.658922 50.542669 0.0181818
60 57.83014 50.501242 0.0166667
48 58.01256 50.459782 0.0208333
54 58.207002 50.418288 0.0185185
59 58.414292 50.376761 0.0169492
61 58.635401 50.335199 0.0163934
50 58.871397 50.293604 0.02
70 59.123412 50.251974 0.0142857
59 59.4789 50.210311 0.0169492
47 59.767253 50.168614 0.0212766
52 60.075848 50.126884 0.0192308
61 60.406442 50.085119 0.0163934
51 60.760985 50.04332 0.0196078
59 61.141594 50.001487 0.0169492
53 61.593684 49.95962 0.0188679
57 62.034167 49.91772 0.0175439
54 62.508826 49.875785 0.0185185
55 63.021133 49.833816 0.0181818
72 63.574998 49.791814 0.0138889
64 64.174827 49.749777 0.015625
50 64.825657 49.707707 0.02
59 65.533374 49.665602 0.0169492
53 66.304456 49.623464 0.0188679
55 67.146707 49.581292 0.0181818
54 68.069062 49.539085 0.0185185
44 69.082044 49.496845 0.0227273
69 70.197872 49.454572 0.0144928
52 71.431304 49.412264 0.0192308
57 72.79934 49.369922 0.0175439
56 74.322924 49.327547 0.0178571
56 76.027149 49.285138 0.0178571
75 77.942733 49.242696 0.0133333
76 80.10728 49.200219 0.0131579
71 82.568269 49.15771 0.0140845
86 85.385593 49.115166 0.0116279
95 88.637999 49.072589 0.0105263
88 92.432993 49.029979 0.0113636
78 96.923666 48.987335 0.0128205
94 102.33599 48.944658 0.0106383
107 109.012147 48.901948 0.0093458
96 117.487965 48.859205 0.0104167
119 128.440802 48.816428 0.0084034
118 142.881864 48.773618 0.0084746
151 162.021453 48.730776 0.0066225
219 187.178485 48.6879 0.0045662
232 219.530312 48.644991 0.0043103
234 259.613396 48.60205 0.0042735
334 306.146223 48.559076 0.002994
359 354.324516 48.516069 0.0027855
405 395.029488 48.47303 0.0024691
404 419.934062 48.429959 0.0024752
464 430.483456 48.386855 0.0021552
452 437.410229 48.343719 0.0022124
452 450.826235 48.30055 0.0022124
493 474.581302 48.25735 0.0020284
539 508.820187 48.214117 0.0018553
555 555.782603 48.170853 0.0018018
588 620.435992 48.127557 0.0017007
729 703.856249 48.084229 0.0013717
780 795.467113 48.04087 0.0012821
873 870.208272 47.997479 0.0011455
897 900.602192 47.954057 0.0011148
970 882.189463 47.910604 0.0010309
865 837.168008 47.86712 0.0011561
831 787.998343 47.823605 0.0012034
794 738.629426 47.780059 0.0012594
712 678.988079 47.736482 0.0014045
622 603.009973 47.692874 0.0016077
528 518.351792 47.649237 0.0018939
485 437.90772 47.605568 0.0020619
386 369.795347 47.56187 0.0025907
339 315.957625 47.518142 0.0029499
289 274.788268 47.474383 0.0034602
240 243.766168 47.430595 0.0041667
202 220.956279 47.386777 0.0049505
196 205.115818 47.34293 0.005102
180 195.352182 47.299054 0.0055556
192 191.082897 47.255148 0.0052083
176 192.187676 47.211213 0.0056818
186 199.161366 47.16725 0.0053763
203 213.181296 47.123257 0.0049261
204 236.103151 47.079236 0.004902
261 270.313384 47.035187 0.0038314
293 318.386832 46.99111 0.003413
380 382.407027 46.947004 0.0026316
475 462.520973 46.902871 0.0021053
550 554.123944 46.85871 0.0018182
689 643.469126 46.814521 0.0014514
767 707.239166 46.770305 0.0013038
795 726.373551 46.726062 0.0012579
823 704.946887 46.681791 0.0012151
804 664.642379 46.637494 0.0012438
737 621.644453 46.59317 0.0013569
738 576.250208 46.54882 0.001355
536 520.494914 46.504444 0.0018657
500 452.739157 46.460041 0.002
427 381.371107 46.415613 0.0023419
363 315.986935 46.371158 0.0027548
317 261.338495 46.326679 0.0031546
231 218.032946 46.282174 0.004329
194 184.769823 46.237644 0.0051546
166 159.653749 46.193089 0.0060241
146 140.800942 46.148509 0.0068493
151 126.575673 46.103905 0.0066225
137 115.673216 46.059276 0.0072993
116 107.12751 46.014623 0.0086207
110 100.260773 45.969947 0.0090909
89 94.616434 45.925247 0.011236
89 89.887162 45.880523 0.011236
79 85.865813 45.835776 0.0126582
80 82.406212 45.791006 0.0125
82 79.402026 45.746214 0.0121951
75 76.77251 45.701399 0.0133333
85 74.455414 45.656561 0.0117647
74 72.400684 45.611701 0.0135135
80 70.568605 45.56682 0.0125
81 68.926441 45.521917 0.0123457
77 67.447511 45.476992 0.012987
72 66.109613 45.432046 0.0138889
75 64.894509 45.387079 0.0133333
80 63.786607 45.342092 0.0125
86 62.77304 45.297084 0.0116279
77 61.84265 45.252055 0.012987
70 60.986035 45.207007 0.0142857
80 60.195049 45.161939 0.0125
86 59.463554 45.116852 0.0116279
70 58.784027 45.071745 0.0142857
45 58.152076 45.026619 0.0222222
61 57.563127 44.981474 0.0163934
59 57.013268 44.936311 0.0169492
56 56.499061 44.89113 0.0178571
73 56.017607 44.84593 0.0136986
43 55.566697 44.800713 0.0232558
59 55.143846 44.755479 0.0169492
48 54.747039 44.710227 0.0208333
45 54.375331 44.664958 0.0222222
64 54.028003 44.619672 0.015625
54 53.705127 44.57437 0.0185185
49 53.407678 44.529052 0.0204082
49 53.137895 44.483718 0.0204082
52 52.899411 44.438368 0.0192308
36 52.696593 44.393003 0.0277778
53 52.534886 44.347622 0.0188679
54 52.419062 44.302227 0.0185185
46 52.350787 44.256818 0.0217391
44 52.323692 44.211394 0.0227273
54 52.314246 44.165956 0.0185185
59 52.27523 44.120504 0.0169492
48 52.153637 44.075039 0.0208333
68 51.935882 44.029561 0.0147059
52 51.661274 43.98407 0.0192308
53 51.378708 43.938566 0.0188679
44 51.102358 43.89305 0.0227273
36 50.819122 43.847522 0.0277778
46 50.513077 43.801982 0.0217391
60 50.191628 43.756431 0.0166667
48 49.877574 43.710869 0.0208333
42 49.58838 43.665295 0.0238095
55 49.331703 43.619711 0.0181818
47 49.103797 43.574117 0.0212766
47 48.902321 43.528513 0.0212766
43 48.722923 43.4829 0.0232558
40 48.56154 43.437277 0.025
52 48.414774 43.391644 0.0192308
56 48.280042 43.346004 0.0178571
56 48.155499 43.300354 0.0178571
49 48.04039 43.254697 0.0204082
51 47.933201 43.209031 0.0196078
45 47.834072 43.163358 0.0222222
54 47.743026 43.117678 0.0185185
58 47.660355 43.071991 0.0172414
49 47.586601 43.026297 0.0204082
47 47.522607 42.980597 0.0212766
37 47.469543 42.934891 0.027027
34 47.429081 42.889179 0.0294118
50 47.403569 42.843462 0.02
41 47.396423 42.797739 0.0243902
41 47.412712 42.752012 0.0243902
42 47.460192 42.706281 0.0238095
58 47.550531 42.660545 0.0172414
47 47.701065 42.614806 0.0212766
42 47.936113 42.569063 0.0238095
50 48.287533 42.523317 0.02
35 48.793348 42.477568 0.0285714
62 49.493837 42.431817 0.016129
63 50.422238 42.386063 0.015873
50 51.587472 42.340308 0.02
50 52.935831 42.294551 0.02
49 54.290265 42.248793 0.0204082
44 55.325311 42.203034 0.0227273
43 55.722405 42.157274 0.0232558
50 55.458832 42.111514 0.02
42 54.826669 42.065754 0.0238095
42 54.12434 42.019995 0.0238095
37 53.432297 41.974236 0.027027
40 52.646242 41.928479 0.025
37 51.66708 41.882723 0.027027
53 50.551085 41.836968 0.0188679
51 49.448241 41.791216 0.0196078
57 48.471887 41.745466 0.0175439
48 47.662663 41.699719 0.0208333
42 47.016155 41.653975 0.0238095
48 46.508454 41.608235 0.0208333
41 46.112452 41.562498 0.0243902
43 45.802942 41.516765 0.0232558
56 45.556575 41.471037 0.0178571
51 45.356839 41.425314 0.0196078
47 45.191125 41.379595 0.0212766
54 45.050502 41.333883 0.0185185
59 44.928967 41.288176 0.0169492
49 44.822457 41.242475 0.0204082
44 44.728565 41.196781 0.0227273
37 44.644658 41.151093 0.027027
45 44.569728 41.105413 0.0222222
50 44.50277 41.05974 0.02
41 44.443079 41.014075 0.0243902
42 44.390114 40.968419 0.0238095
58 44.34354 40.92277 0.0172414
43 44.303138 40.877131 0.0232558
38 44.268835 40.831501 0.0263158
40 44.24065 40.785881 0.025
46 44.218731 40.740271 0.0217391
46 44.203311 40.694671 0.0217391
45 44.194758 40.649081 0.0222222
46 44.19355 40.603503 0.0217391
32 44.200312 40.557936 0.03125
50 44.215835 40.512381 0.02
43 44.241108 40.466838 0.0232558
48 44.277334 40.421307 0.0208333
44 44.326045 40.375789 0.0227273
54 44.389107 40.330284 0.0185185
34 44.468903 40.284792 0.0294118
51 44.568465 40.239315 0.0196078
47 44.69178 40.193851 0.0212766
53 44.844162 40.148402 0.0188679
51 45.033141 40.102968 0.0196078
53 45.269574 40.057549 0.0188679
45 45.569515 40.012146 0.0222222
57 45.956623 39.966759 0.0175439
55 46.464951 39.921388 0.0181818
43 47.140516 39.876033 0.0232558
57 48.042471 39.830696 0.0175439
53 49.239655 39.785376 0.0188679
45 50.80294 39.740074 0.0222222
50 52.788594 39.69479 0.02
57 55.203031 39.649524 0.0175439
70 57.928865 39.604277 0.0142857
62 60.624981 39.559049 0.016129
70 62.722199 39.513841 0.0142857
69 63.741483 39.468652 0.0144928
76 63.728523 39.423484 0.0131579
64 63.163949 39.378336 0.015625
78 62.467134 39.333209 0.0128205
64 61.736816 39.288104 0.015625
62 60.839956 39.24302 0.016129
58 59.67766 39.197958 0.0172414
59 58.383192 39.152918 0.0169492
61 57.221825 39.107901 0.0163934
54 56.412253 39.062907 0.0185185
63 56.100536 39.017937 0.015873
57 56.406282 38.97299 0.0175439
64 57.45063 38.928068 0.015625
79 59.371182 38.88317 0.0126582
70 62.326359 38.838297 0.0142857
75 66.482568 38.793449 0.0133333
66 71.964 38.748626 0.0151515
105 78.76026 38.70383 0.0095238
83 86.501457 38.659059 0.0120482
113 94.170495 38.614316 0.0088496
121 100.039543 38.569599 0.0082645
154 102.594696 38.52491 0.0064935
129 101.941215 38.480248 0.0077519
124 99.698116 38.435615 0.0080645
151 97.449931 38.391009 0.0066225
116 95.710748 38.346433 0.0086207
120 94.077025 38.301886 0.0083333
88 92.147944 38.257368 0.0113636
111 90.331486 38.21288 0.009009
103 89.635232 38.168422 0.0097087
98 90.945544 38.123995 0.0102041
100 94.682059 38.079598 0.01
118 100.725149 38.035233 0.0084746
102 108.218219 37.990899 0.0098039
114 115.296687 37.946598 0.0087719
102 119.449738 37.902328 0.0098039
107 119.186954 37.858091 0.0093458
104 115.409899 37.813888 0.0096154
98 110.332459 37.769717 0.0102041
93 105.436252 37.725581 0.0107527
81 100.68953 37.681478 0.0123457
80 95.161754 37.63741 0.0125
84 88.3304 37.593376 0.0119048
82 80.743858 37.549378 0.0121951
89 73.40342 37.505415 0.011236
80 66.984573 37.461488 0.0125
61 61.705761 37.417597 0.0163934
61 57.512239 37.373742 0.0163934
63 54.245536 37.329925 0.015873
55 51.723755 37.286144 0.0181818
49 49.776947 37.242402 0.0204082
43 48.261593 37.198697 0.0232558
50 47.062232 37.15503 0.02
47 46.094235 37.111402 0.0212766
49 45.296809 37.067812 0.0204082
42 44.627488 37.024262 0.0238095
61 44.056928 36.980752 0.0163934
47 43.564517 36.937281 0.0212766
51 43.135513 36.893851 0.0196078
56 42.75923 36.850462 0.0178571
58 42.426409 36.807113 0.0172414
56 42.130807 36.763806 0.0178571
83 41.867129 36.720541 0.0120482
45 41.631085 36.677317 0.0222222
46 41.419251 36.634136 0.0217391
64 41.228775 36.590997 0.015625
45 41.057393 36.547902 0.0222222
57 40.903231 36.50485 0.0175439
34 40.764792 36.461841 0.0294118
49 40.640868 36.418877 0.0204082
48 40.53056 36.375957 0.0208333
38 40.433175 36.333081 0.0263158
59 40.348276 36.290251 0.0169492
42 40.275624 36.247466 0.0238095
53 40.215206 36.204727 0.0188679
51 40.167211 36.162033 0.0196078
49 40.132085 36.119387 0.0204082
45 40.110547 36.076786 0.0222222
49 40.10361 36.034233 0.0204082
48 40.112672 35.991727 0.0208333
47 40.139588 35.949269 0.0212766
41 40.18674 35.906859 0.0243902
54 40.257322 35.864497 0.0185185
44 40.355533 35.822184 0.0227273
48 40.487807 35.77992 0.0208333
37 40.660716 35.737705 0.027027
51 40.886505 35.69554 0.0196078
49 41.181956 35.653424 0.0204082
60 41.571901 35.611359 0.0166667
45 42.092081 35.569345 0.0222222
42 42.792033 35.527381 0.0238095
45 43.736489 35.485469 0.0222222
55 45.004595 35.443608 0.0181818
55 46.681534 35.401799 0.0181818
51 48.848572 35.360042 0.0196078
50 51.5529 35.318338 0.02
58 54.748924 35.276687 0.0172414
65 58.188345 35.235088 0.0153846
69 61.307855 35.193543 0.0144928
59 63.337264 35.152052 0.0169492
67 63.826963 35.110615 0.0149254
65 63.095926 35.069233 0.0153846
58 61.915025 35.027905 0.0172414
85 60.853886 34.986631 0.0117647
51 59.998388 34.945414 0.0196078
72 59.104997 34.904252 0.0138889
53 57.993047 34.863145 0.0188679
43 56.820431 34.822095 0.0232558
54 55.935406 34.781102 0.0185185
46 55.563855 34.740165 0.0217391
50 55.657515 34.699285 0.02
45 55.881591 34.658463 0.0222222
62 55.753192 34.617699 0.016129
46 54.982626 34.576992 0.0217391
59 53.715735 34.536344 0.0169492
48 52.332179 34.495754 0.0208333
55 51.083963 34.455223 0.0181818
42 49.954029 34.414752 0.0238095
49 48.751034 34.37434 0.0204082
59 47.335299 34.333987 0.0169492
39 45.767556 34.293695 0.025641
43 44.225329 34.253463 0.0232558
40 42.848277 34.213292 0.025
47 41.690752 34.173182 0.0212766
44 40.749845 34.133132 0.0227273
42 39.998127 34.093145 0.0238095
43 39.401685 34.053219 0.0232558
51 38.927502 34.013355 0.0196078
36 38.546941 33.973553 0.0277778
41 38.236718 33.933814 0.0243902
45 37.978954 33.894138 0.0222222
47 37.760514 33.854525 0.0212766
28 37.572033 33.814976 0.0357143
41 37.40687 33.77549 0.0243902
39 37.26032 33.736068 0.025641
38 37.128953 33.696711 0.0263158
46 37.010207 33.657418 0.0217391
48 36.902105 33.61819 0.0208333
51 36.803088 33.579027 0.0196078
44 36.711884 33.539929 0.0227273
36 36.628166 33.500897 0.0277778
47 36.551534 33.46193 0.0212766
37 36.478286 33.42303 0.027027
36 36.409665 33.384196 0.0277778
45 36.345177 33.345429 0.0222222
51 36.284393 33.306729 0.0196078
37 36.226948 33.268096 0.027027
48 36.172531 33.22953 0.0208333
41 36.121224 33.191032 0.0243902
35 36.07302 33.152602 0.0285714
36 36.026225 33.11424 0.0277778
32 35.98158 33.075947 0.03125
35 35.938934 33.037722 0.0285714
32 35.898152 32.999566 0.03125
52 35.859121 32.96148 0.0192308
36 35.821734 32.923462 0.0277778
44 35.785902 32.885515 0.0227273
48 35.751546 32.847637 0.0208333
42 35.718593 32.80983 0.0238095
45 35.686984 32.772092 0.0222222
41 35.656664 32.734426 0.0243902
51 35.627584 32.69683 0.0196078
47 35.599705 32.659306 0.0212766
50 35.572989 32.621853 0.02
41 35.547403 32.584471 0.0243902
48 35.522919 32.547161 0.0208333
51 35.499517 32.509924 0.0196078
40 35.477174 32.472758 0.025
37 35.455873 32.435665 0.027027
49 35.435603 32.398645 0.0204082
41 35.41635 32.361698 0.0243902
37 35.398106 32.324823 0.027027
38 35.380867 32.288023 0.0263158
40 35.364627 32.251295 0.025
32 35.350747 32.214642 0.03125
37 35.336511 32.178063 0.027027
51 35.323275 32.141558 0.0196078
30 35.311046 32.105127 0.0333333
39 35.299314 32.068771 0.025641
27 35.289119 32.03249 0.037037
48 35.279957 31.996285 0.0208333
36 35.271837 31.960154 0.0277778
34 35.265191 31.924099 0.0294118
43 35.259198 31.88812 0.0232558
30 35.254292 31.852216 0.0333333
39 35.250493 31.816389 0.025641
26 35.247821 31.780638 0.0384615
43 35.246298 31.744964 0.0232558
41 35.245944 31.709366 0.0243902
42 35.246788 31.673845 0.0238095
44 35.248859 31.638402 0.0227273
42 35.252185 31.603035 0.0238095
37 35.2568 31.567747 0.027027
41 35.262736 31.532536 0.0243902
45 35.270031 31.497402 0.0222222
46 35.27872 31.462347 0.0217391
43 35.288847 31.42737 0.0232558
32 35.300455 31.392472 0.03125
28 35.313594 31.357652 0.0357143
35 35.316666 31.322911 0.0285714
39 35.333045 31.288249 0.025641
36 35.351111 31.253666 0.0277778
41 35.370922 31.219163 0.0243902
39 35.386716 31.184738 0.025641
39 35.41061 31.150394 0.025641
54 35.436078 31.11613 0.0185185
42 35.463574 31.081945 0.0238095
49 35.493172 31.047841 0.0204082
42 35.524964 31.013817 0.0238095
48 35.559042 30.979873 0.0208333
45 35.595505 30.946011 0.0222222
36 35.634461 30.912229 0.0277778
39 35.676812 30.878528 0.025641
27 35.721091 30.844908 0.037037
41 35.768221 30.81137 0.0243902
44 35.818342 30.777913 0.0227273
38 35.871601 30.744537 0.0263158
38 35.928156 30.711244 0.0263158
41 35.988186 30.678032 0.0243902
25 36.051855 30.644902 0.04
41 36.119674 30.611855 0.0243902
32 36.191255 30.57889 0.03125
34 36.26713 30.546008 0.0294118
39 36.34755 30.513208 0.025641
40 36.432791 30.480491 0.025
34 36.523124 30.447857 0.0294118
34 36.61888 30.415305 0.0294118
42 36.720409 30.382838 0.0238095
37 36.828084 30.350453 0.027027
40 36.942325 30.318152 0.025
48 37.063591 30.285935 0.0208333
50 37.192344 30.253801 0.02
48 37.329147 30.221751 0.0208333
50 37.474595 30.189785 0.02
41 37.62935 30.157903 0.0243902
38 37.794141 30.126105 0.0263158
54 37.969793 30.094392 0.0185185
45 38.157148 30.062763 0.0222222
33 38.35723 30.031219 0.030303
42 38.571152 29.999759 0.0238095
50 38.800152 29.968385 0.02
49 39.04563 29.937095 0.0204082
49 39.309181 29.90589 0.0204082
40 39.5925 29.87477 0.025
44 39.897626 29.843736 0.0227273
44 40.226834 29.812786 0.0227273
36 40.582717 29.781923 0.0277778
32 40.968243 29.751144 0.03125
44 41.386873 29.720452 0.0227273
38 41.842406 29.689845 0.0263158
38 42.339452 29.659324 0.0263158
42 42.887929 29.628889 0.0238095
42 43.484784 29.59854 0.0238095
42 44.141896 29.568277 0.0238095
61 44.867857 29.5381 0.0163934
36 45.672935 29.50801 0.0277778
60 46.569118 29.478006 0.0166667
58 47.571166 29.448088 0.0172414
63 48.696843 29.418257 0.015873
49 49.967849 29.388513 0.0204082
58 51.413276 29.358855 0.0172414
68 53.062344 29.329284 0.0147059
68 54.959492 29.2998 0.0147059
79 57.160711 29.270403 0.0126582
70 59.740808 29.241093 0.0142857
64 62.803266 29.21187 0.015625
73 66.49473 29.182734 0.0136986
79 71.026428 29.153685 0.0126582
78 76.696596 29.124724 0.0128205
106 83.923312 29.09585 0.009434
91 93.264407 29.067063 0.010989
102 105.425442 29.038364 0.0098039
124 121.23862 29.009752 0.0080645
155 141.601044 28.981228 0.0064516
197 167.316149 28.952791 0.0050761
203 198.812869 28.924443 0.0049261
234 235.494946 28.896181 0.0042735
244 274.61579 28.868008 0.0040984
309 310.151192 28.839923 0.0032362
307 333.792963 28.811925 0.0032573
305 339.975529 28.784015 0.0032787
316 330.889943 28.756194 0.0031646
278 314.42856 28.72846 0.0035971
257 297.636875 28.700814 0.0038911
265 282.824531 28.673257 0.0037736
270 267.782795 28.645787 0.0037037
245 248.810033 28.618406 0.0040816
225 224.640956 28.591113 0.0044444
162 197.628563 28.563908 0.0061728
158 171.316867 28.536792 0.0063291
181 148.092273 28.509763 0.0055249
130 128.810893 28.482823 0.0076923
119 113.402631 28.455971 0.0084034
119 101.39125 28.429208 0.0084034
107 92.197514 28.402533 0.0093458
91 85.266942 28.375947 0.010989
90 80.07732 28.349448 0.0111111
87 76.199661 28.323039 0.0114943
72 73.251383 28.296717 0.0138889
65 70.897095 28.270485 0.0153846
61 68.891633 28.24434 0.0163934
62 67.126967 28.218284 0.016129
59 65.606285 28.192317 0.0169492
56 64.357036 28.166438 0.0178571
71 63.376367 28.140648 0.0140845
71 62.601843 28.114946 0.0140845
56 61.967764 28.089332 0.0178571
60 61.431755 28.063807 0.0166667
51 61.000262 28.038371 0.0196078
49 60.704035 28.013023 0.0204082
58 60.567383 27.987763 0.0172414
52 60.598228 27.962592 0.0192308
46 60.793701 27.93751 0.0217391
49 61.147818 27.912516 0.0204082
50 61.654553 27.88761 0.02
49 62.309448 27.862793 0.0204082
54 63.111178 27.838064 0.0185185
41 64.061296 27.813424 0.0243902
36 65.164547 27.788872 0.0277778
49 66.42919 27.764408 0.0204082
48 67.867203 27.740033 0.0208333
59 69.493669 27.715746 0.0169492
47 71.328831 27.691547 0.0212766
58 73.397765 27.667437 0.0172414
69 75.731427 27.643414 0.0144928
56 78.366301 27.61948 0.0178571
56 81.35489 27.595634 0.0178571
72 84.755012 27.571877 0.0138889
72 88.64541 27.548207 0.0138889
70 93.129668 27.524625 0.0142857
65 98.347387 27.501132 0.0153846
75 104.49647 27.477726 0.0133333
85 111.851513 27.454409 0.0117647
104 120.802239 27.431179 0.0096154
93 131.881867 27.408037 0.0107527
130 145.806441 27.384983 0.0076923
113 163.483805 27.362016 0.0088496
177 185.994016 27.339138 0.0056497
148 214.535342 27.316347 0.0067568
233 250.257107 27.293643 0.0042918
263 293.923527 27.271028 0.0038023
323 345.25477 27.248499 0.003096
425 401.614317 27.226058 0.0023529
451 456.372063 27.203705 0.0022173
474 498.997678 27.181438 0.0021097
481 520.063832 27.159259 0.002079
504 518.878814 27.137167 0.0019841
494 504.346109 27.115163 0.0020243
481 487.359077 27.093245 0.002079
463 473.888158 27.071414 0.0021598
465 463.378775 27.049671 0.0021505
465 451.246632 27.028014 0.0021505
379 433.848874 27.006443 0.0026385
415 412.339464 26.98496 0.0024096
374 391.595337 26.963563 0.0026738
368 376.534063 26.942253 0.0027174
318 370.334114 26.921029 0.0031447
370 374.869166 26.899891 0.0027027
324 391.645618 26.87884 0.0030864
396 422.551839 26.857875 0.0025253
468 470.22853 26.836996 0.0021368
549 538.207544 26.816203 0.0018215
629 630.806692 26.795496 0.0015898
802 752.770412 26.774875 0.0012469
930 908.297876 26.75434 0.0010753
1152 1099.290097 26.73389 0.0008681
1395 1321.387466 26.713526 0.0007168
1565 1557.353871 26.693248 0.000639
1807 1770.859584 26.673054 0.0005534
1910 1912.694308 26.652946 0.0005236
1946 1949.678336 26.632924 0.0005139
1940 1893.462232 26.612986 0.0005155
1857 1790.220678 26.593133 0.0005385
1684 1683.648278 26.573365 0.0005938
1696 1591.18883 26.553682 0.0005896
1598 1502.827369 26.534084 0.0006258
1507 1395.733886 26.51457 0.0006636
1330 1256.57404 26.49514 0.0007519
1110 1093.983977 26.475795 0.0009009
962 928.720472 26.456534 0.0010395
754 777.863682 26.437358 0.0013263
611 649.361715 26.418265 0.0016367
580 544.328117 26.399256 0.0017241
487 460.592629 26.38033 0.0020534
360 394.872085 26.361489 0.0027778
269 343.779878 26.342731 0.0037175
239 304.24245 26.324056 0.0041841
222 273.685399 26.305464 0.0045045
224 250.056552 26.286956 0.0044643
175 231.809309 26.26853 0.0057143
150 217.835438 26.250188 0.0066667
157 207.387751 26.231928 0.0063694
173 200.005882 26.213751 0.0057803
154 195.465741 26.195656 0.0064935
145 193.755475 26.177643 0.0068966
145 195.080479 26.159713 0.0068966
160 199.879157 26.141865 0.00625
176 208.852257 26.124099 0.0056818
174 222.985611 26.106414 0.0057471
191 243.521245 26.088811 0.0052356
244 271.917594 26.07129 0.0040984
306 309.68504 26.05385 0.003268
432 358.074604 26.036491 0.0023148
462 417.408475 26.019213 0.0021645
553 485.752489 26.002016 0.0018083
595 556.738254 25.9849 0.0016807
624 618.136406 25.967864 0.0016026
688 654.937209 25.950909 0.0014535
653 658.98445 25.934035 0.0015314
713 636.197518 25.91724 0.0014025
713 601.394181 25.900525 0.0014025
644 567.136129 25.883891 0.0015528
656 537.583323 25.867335 0.0015244
544 508.912494 25.85086 0.0018382
496 473.97689 25.834464 0.0020161
404 429.079159 25.818146 0.0024752
379 377.219819 25.801908 0.0026385
363 324.807653 25.785749 0.0027548
287 276.962052 25.769669 0.0034843
272 236.015916 25.753667 0.0036765
223 202.268225 25.737743 0.0044843
169 175.052058 25.721898 0.0059172
149 153.351893 25.706131 0.0067114
125 136.127936 25.690441 0.008
95 122.431796 25.674829 0.0105263
81 111.461007 25.659295 0.0123457
84 102.569921 25.643838 0.0119048
76 95.26107 25.628458 0.0131579
69 89.166202 25.613155 0.0144928
66 84.015035 25.597929 0.0151515
58 79.612331 25.58278 0.0172414
45 75.814006 25.567707 0.0222222
49 72.507614 25.55271 0.0204082
50 69.596716 25.537789 0.02
57 66.992725 25.522945 0.0175439
56 64.618562 25.508175 0.0178571
50 62.424795 25.493482 0.02
52 60.396049 25.478864 0.0192308
50 58.533245 25.46432 0.02
55 56.833927 25.449852 0.0181818
69 55.282578 25.435459 0.0144928
59 53.853223 25.42114 0.0169492
50 52.518424 25.406895 0.02
50 51.261594 25.392725 0.02
58 50.080031 25.378629 0.0172414
59 48.976978 25.364606 0.0169492
50 47.953617 25.350657 0.02
37 47.006706 25.336781 0.027027
32 46.130643 25.322979 0.03125
48 45.318667 25.30925 0.0208333
45 44.564258 25.295593 0.0222222
48 43.862013 25.282009 0.0208333
42 43.205338 25.268497 0.0238095
48 42.590109 25.255058 0.0208333
43 42.012334 25.24169 0.0232558
50 41.468486 25.228394 0.02
47 40.955604 25.21517 0.0212766
40 40.471091 25.202017 0.025
33 40.012712 25.188935 0.030303
32 39.578476 25.175924 0.03125
27 39.167025 25.162984 0.037037
28 38.776182 25.150114 0.0357143
41 38.404902 25.137315 0.0243902
29 38.05192 25.124585 0.0344828
40 37.716164 25.111926 0.025
37 37.396582 25.099336 0.027027
31 37.092351 25.086816 0.0322581
31 36.802606 25.074364 0.0322581
34 36.52665 25.061982 0.0294118
31 36.263803 25.049669 0.0322581
37 36.013508 25.037424 0.027027
31 35.775222 25.025247 0.0322581
41 35.548517 25.013138 0.0243902
42 35.334414 25.001098 0.0238095
40 35.129742 24.989125 0.025
36 34.935633 24.977219 0.0277778
38 34.751892 24.965381 0.0263158
37 34.57835 24.953609 0.027027
26 34.414941 24.941904 0.0384615
40 34.261634 24.930266 0.025
35 34.11851 24.918694 0.0285714
25 33.986285 24.907188 0.04
38 33.86476 24.895748 0.0263158
33 33.753449 24.884374 0.030303
37 33.653565 24.873065 0.027027
21 33.566501 24.861821 0.047619
34 33.4916 24.850641 0.0294118
30 33.430683 24.839527 0.0333333
27 33.385143 24.828477 0.037037
27 33.356741 24.817491 0.037037
33 33.348084 24.806569 0.030303
35 33.361599 24.795711 0.0285714
31 33.401651 24.784916 0.0322581
34 33.473829 24.774184 0.0294118
40 33.586248 24.763516 0.025
43 33.748927 24.75291 0.0232558
41 33.97709 24.742367 0.0243902
31 34.290548 24.731885 0.0322581
36 34.7151 24.721466 0.0277778
38 35.282513 24.711109 0.0263158
37 36.029792 24.700813 0.027027
45 36.996693 24.690579 0.0222222
36 38.220406 24.680405 0.0277778
36 39.722996 24.670293 0.0277778
55 41.488032 24.660241 0.0181818
45 43.41669 24.650249 0.0222222
42 45.277488 24.640317 0.0238095
41 46.722608 24.630445 0.0243902
43 47.451473 24.620633 0.0232558
44 47.448801 24.610879 0.0227273
42 47.015364 24.601185 0.0238095
45 46.538165 24.59155 0.0222222
40 46.264035 24.581973 0.025
44 46.224734 24.572455 0.0227273
51 46.274969 24.562994 0.0196078
47 46.204254 24.553592 0.0212766
33 45.87145 24.544246 0.030303
46 45.224218 24.534959 0.0217391
36 44.287918 24.525728 0.0277778
38 43.150357 24.516554 0.0263158
36 41.971626 24.507436 0.0277778
48 40.917249 24.498375 0.0208333
32 40.082685 24.489369 0.03125
42 39.470543 24.48042 0.0238095
35 39.011681 24.471526 0.0285714
40 38.621969 24.462687 0.025
36 38.260855 24.453903 0.0277778
31 37.970981 24.445173 0.0322581
36 37.835672 24.436499 0.0277778
37 37.936513 24.427878 0.027027
35 38.339084 24.419311 0.0285714
31 39.099333 24.410798 0.0322581
36 40.270372 24.402338 0.0277778
34 41.903723 24.393932 0.0294118
35 44.038836 24.385578 0.0285714
36 46.673741 24.377277 0.0277778
40 49.713399 24.369028 0.025
40 52.890149 24.360831 0.025
41 55.730245 24.352686 0.0243902
46 57.712869 24.344593 0.0217391
35 58.628749 24.336551 0.0285714
49 58.791941 24.328559 0.0204082
55 58.809059 24.320619 0.0181818
56 59.167848 24.312729 0.0178571
51 60.002244 24.304889 0.0196078
57 61.043419 24.2971 0.0175439
48 61.718707 24.289359 0.0208333
55 61.426692 24.281669 0.0181818
57 59.910701 24.274027 0.0175439
54 57.433021 24.266434 0.0185185
65 54.570951 24.25889 0.0153846
64 51.851545 24.251394 0.015625
50 49.537158 24.243947 0.02
59 47.61154 24.236547 0.0169492
43 45.871444 24.229194 0.0232558
42 44.090223 24.221889 0.0238095
41 42.1819 24.214631 0.0243902
48 40.233976 24.207419 0.0208333
42 38.394854 24.200254 0.0238095
30 36.768257 24.193135 0.0333333
42 35.39093 24.186062 0.0238095
36 34.254599 24.179035 0.0277778
30 33.331252 24.172053 0.0333333
42 32.587693 24.165116 0.0238095
38 31.991975 24.158223 0.0263158
41 31.515954 24.151376 0.0243902
32 31.136308 24.144572 0.03125
34 30.834348 24.137813 0.0294118
39 30.595863 24.131097 0.025641
25 30.410482 24.124425 0.04
32 30.271113 24.117795 0.03125
58 30.173307 24.111209 0.0172414
37 30.114922 24.104665 0.027027
37 30.095845 24.098164 0.027027
30 30.118123 24.091705 0.0333333
38 30.186225 24.085287 0.0263158
36 30.307572 24.078911 0.0277778
37 30.493189 24.072576 0.027027
39 30.758436 24.066283 0.025641
37 31.123268 24.06003 0.027027
34 31.607478 24.053817 0.0294118
36 32.250017 24.047644 0.0277778
35 33.07655 24.041512 0.0285714
45 34.11526 24.035418 0.0222222
37 35.382265 24.029365 0.027027
50 36.858501 24.02335 0.02
50 38.467125 24.017374 0.02
54 40.021163 24.011436 0.0185185
41 41.247539 24.005537 0.0243902
59 41.912519 23.999676 0.0169492
47 42.002357 23.993852 0.0212766
41 41.753808 23.988066 0.0243902
50 41.485316 23.982316 0.02
47 41.422243 23.976604 0.0212766
58 41.620284 23.970928 0.0172414
40 42.046023 23.965288 0.025
50 42.57215 23.959685 0.02
54 43.140751 23.954117 0.0185185
43 43.779636 23.948585 0.0232558
45 44.497789 23.943087 0.0222222
53 45.18769 23.937625 0.0188679
49 45.567281 23.932197 0.0204082
50 45.374413 23.926804 0.02
38 44.579703 23.921445 0.0263158
43 43.421695 23.916119 0.0232558
47 42.214419 23.910827 0.0212766
57 41.157504 23.905569 0.0175439
44 40.273023 23.900343 0.0227273
60 39.43919 23.89515 0.0166667
55 38.484429 23.889989 0.0181818
59 37.320025 23.884861 0.0169492
40 36.001218 23.879764 0.025
40 34.662525 23.874699 0.025
41 33.419135 23.869666 0.0243902
42 32.330599 23.864663 0.0238095
41 31.412125 23.859691 0.0243902
36 30.654735 23.85475 0.0277778
32 30.038941 23.849839 0.03125
49 29.54219 23.844958 0.0204082
29 29.14268 23.840106 0.0344828
39 28.820912 23.835284 0.025641
31 28.560627 23.830492 0.0322581
32 28.348772 23.825728 0.03125
23 28.175244 23.820992 0.0434783
44 28.032463 23.816285 0.0227273
38 27.91485 23.811606 0.0263158
33 27.818338 23.806955 0.030303
30 27.740042 23.802331 0.0333333
24 27.665893 23.797735 0.0416667
35 27.618801 23.793165 0.0285714
30 27.586011 23.788623 0.0333333
25 27.567447 23.784106 0.04
26 27.563608 23.779616 0.0384615
34 27.569515 23.775152 0.0294118
26 27.598891 23.770713 0.0384615
27 27.647769 23.766299 0.037037
31 27.718532 23.761911 0.0322581
40 27.813526 23.757548 0.025
31 27.935247 23.753209 0.0322581
36 28.08119 23.748894 0.0277778
34 28.246658 23.744603 0.0294118
22 28.417775 23.740336 0.0454545
30 28.571771 23.736093 0.0333333
34 28.685228 23.731873 0.0294118
41 28.749814 23.727675 0.0243902
31 28.780024 23.723501 0.0322581
32 28.802615 23.719349 0.03125
26 28.839944 23.715219 0.0384615
32 28.902117 23.71111 0.03125
35 28.985023 23.707024 0.0285714
32 29.079023 23.702958 0.03125
30 29.175715 23.698914 0.0333333
22 29.277956 23.694891 0.0454545
31 29.398258 23.690888 0.0322581
36 29.551672 23.686906 0.0277778
43 29.750747 23.682943 0.0232558
39 30.005223 23.679 0.025641
30 30.324462 23.675077 0.0333333
26 30.719595 23.671173 0.0384615
29 31.20581 23.667288 0.0344828
22 31.803719 23.663422 0.0454545
31 32.54208 23.659574 0.0322581
34 33.460082 23.655745 0.0294118
45 34.603423 23.651933 0.0222222
44 36.033173 23.648139 0.0227273
38 37.818845 23.644363 0.0263158
47 40.036057 23.640604 0.0212766
40 42.758266 23.636861 0.025
49 46.035302 23.633136 0.0204082
42 49.855335 23.629426 0.0238095
46 54.071629 23.625733 0.0217391
61 58.322147 23.622056 0.0163934
76 62.039102 23.618394 0.0131579
59 64.687742 23.614748 0.0169492
82 66.163431 23.611117 0.0121951
70 66.918739 23.607501 0.0142857
66 67.631069 23.603899 0.0151515
79 68.761231 23.600312 0.0126582
64 70.310891 23.596739 0.015625
61 71.800287 23.59318 0.0163934
75 72.485099 23.589634 0.0133333
88 71.838999 23.586102 0.0113636
94 69.984415 23.582583 0.0106383
87 67.606355 23.579077 0.0114943
67 65.476851 23.575584 0.0149254
78 64.096751 23.572103 0.0128205
65 63.621836 23.568634 0.0153846
68 63.938637 23.565177 0.0147059
71 64.812712 23.561731 0.0140845
67 66.025559 23.558297 0.0149254
65 67.382754 23.554874 0.0153846
81 68.554181 23.551462 0.0123457
70 69.006444 23.548061 0.0142857
70 68.265873 23.54467 0.0142857
64 66.3213 23.54129 0.015625
51 63.679713 23.537919 0.0196078
51 60.995049 23.534558 0.0196078
78 58.696573 23.531207 0.0128205
52 56.857538 23.527864 0.0192308
39 55.244798 23.524531 0.025641
58 53.493635 23.521207 0.0172414
44 51.377924 23.517891 0.0227273
45 48.928264 23.514583 0.0222222
46 46.424657 23.511283 0.0217391
40 44.147231 23.507991 0.025
48 42.27606 23.504707 0.0208333
47 40.890735 23.50143 0.0212766
37 40.013703 23.498161 0.027027
41 39.642871 23.494898 0.0243902
37 39.767729 23.491641 0.027027
34 40.374397 23.488392 0.0294118
39 41.409375 23.485148 0.025641
51 42.781193 23.48191 0.0196078
47 44.290655 23.478678 0.0212766
37 45.610505 23.475452 0.027027
35 46.360198 23.472231 0.0285714
32 46.309714 23.469015 0.03125
42 45.573937 23.465804 0.0238095
29 44.441267 23.462597 0.0344828
39 43.283892 23.459395 0.025641
39 42.293413 23.456196 0.025641
43 41.468063 23.453002 0.0232558
39 40.659314 23.449812 0.025641
25 39.680084 23.446625 0.04
35 38.442419 23.443441 0.0285714
33 37.015248 23.44026 0.030303
22 35.552343 23.437083 0.0454545
29 34.200359 23.433907 0.0344828
40 33.007394 23.430735 0.025
42 32.005593 23.427564 0.0238095
33 31.185664 23.424395 0.030303
41 30.526589 23.421228 0.0243902
30 30.004461 23.418063 0.0333333
29 29.59658 23.414899 0.0344828
38 29.283239 23.411736 0.0263158
26 29.048486 23.408574 0.0384615
27 28.879775 23.405413 0.037037
22 28.768553 23.402252 0.0454545
34 28.709615 23.399091 0.0294118
26 28.701021 23.395931 0.0384615
19 28.744077 23.39277 0.0526316
32 28.84355 23.389609 0.03125
27 29.007789 23.386448 0.037037
31 29.249439 23.383285 0.0322581
31 29.58565 23.380122 0.0322581
27 30.038284 23.376958 0.037037
38 30.63327 23.373792 0.0263158
35 31.399792 23.370624 0.0285714
47 32.366488 23.367455 0.0212766
27 33.555996 23.364284 0.037037
50 34.971221 23.361111 0.02
36 36.570803 23.357935 0.0277778
44 38.231477 23.354757 0.0227273
44 39.724636 23.351576 0.0227273
42 40.758738 23.348392 0.0238095
35 41.131913 23.345205 0.0285714
46 40.883334 23.342015 0.0217391
50 40.270064 23.338821 0.02
54 39.592919 23.335624 0.0185185
47 39.045944 23.332422 0.0212766
52 38.672045 23.329217 0.0192308
49 38.386647 23.326007 0.0204082
52 38.051669 23.322792 0.0192308
55 37.584629 23.319573 0.0181818
37 37.027859 23.31635 0.027027
44 36.515087 23.313121 0.0227273
55 36.183056 23.309887 0.0181818
50 36.112823 23.306647 0.02
44 36.315994 23.303402 0.0227273
39 36.729625 23.300151 0.025641
57 37.209362 23.296895 0.0175439
49 37.548273 23.293632 0.0204082
68 37.558908 23.290363 0.0147059
50 37.188966 23.287087 0.02
48 36.552934 23.283805 0.0208333
45 35.839802 23.280516 0.0222222
47 35.196892 23.27722 0.0212766
50 34.675426 23.273917 0.02
50 34.233557 23.270606 0.02
41 33.772086 23.267288 0.0243902
40 33.200191 23.263962 0.025
40 32.498138 23.260629 0.025
38 31.722948 23.257287 0.0263158
37 30.957377 23.253937 0.027027
32 30.262961 23.250579 0.03125
29 29.6689 23.247212 0.0344828
27 29.180107 23.243837 0.037037
48 28.793405 23.240453 0.0208333
26 28.488779 23.237059 0.0384615
31 28.257665 23.233657 0.0322581
27 28.08834 23.230245 0.037037
21 27.970905 23.226824 0.047619
20 27.897052 23.223393 0.05
37 27.860584 23.219953 0.027027
27 27.857017 23.216502 0.037037
34 27.883393 23.213041 0.0294118
26 27.938055 23.20957 0.0384615
27 28.022575 23.206089 0.037037
33 28.133372 23.202597 0.030303
32 28.273898 23.199094 0.03125
20 28.447121 23.195581 0.05
36 28.655303 23.192056 0.0277778
32 28.903491 23.18852 0.03125
24 29.198107 23.184973 0.0416667
32 29.546697 23.181415 0.03125
27 29.960235 23.177845 0.037037
20 30.453159 23.174263 0.05
35 31.04497 23.170669 0.0285714
38 31.761733 23.167063 0.0263158
37 32.638431 23.163445 0.027027
39 33.721181 23.159815 0.025641
36 35.067636 23.156172 0.0277778
32 36.750087 23.152517 0.03125
50 38.853783 23.148848 0.02
41 41.472469 23.145168 0.0243902
48 44.701842 23.141474 0.0208333
52 48.619851 23.137766 0.0192308
63 53.248825 23.134046 0.015873
64 58.492389 23.130312 0.015625
77 64.045678 23.126565 0.012987
101 69.335219 23.122804 0.009901
88 73.581945 23.11903 0.0113636
64 76.047573 23.115241 0.015625
79 76.402944 23.111438 0.0126582
88 74.969132 23.107621 0.0113636
68 72.548533 23.10379 0.0147059
78 69.962679 23.099945 0.0128205
85 67.670248 23.096085 0.0117647
68 65.681628 23.09221 0.0147059
82 63.685078 23.088321 0.0121951
68 61.285578 23.084417 0.0147059
70 58.25597 23.080497 0.0142857
39 54.685881 23.076563 0.025641
50 50.904232 23.072613 0.02
45 47.268657 23.068648 0.0222222
51 44.015288 23.064668 0.0196078
39 41.239945 23.060672 0.025641
39 38.944339 23.05666 0.025641
42 37.085225 23.052633 0.0238095
34 35.602353 23.048589 0.0294118
45 34.435251 23.04453 0.0222222
29 33.529222 23.040454 0.0344828
34 32.838109 23.036363 0.0294118
35 32.332774 23.032255 0.0285714
40 31.970438 23.02813 0.025
44 31.740069 23.023989 0.0227273
34 31.631191 23.019832 0.0294118
38 31.641351 23.015657 0.0263158
31 31.775891 23.011466 0.0322581
30 32.047003 23.007258 0.0333333
27 32.478489 23.003033 0.037037
28 33.099627 22.998791 0.0357143
29 33.948586 22.994531 0.0344828
39 35.074898 22.990255 0.025641
24 36.520572 22.98596 0.0416667
46 38.33661 22.981649 0.0217391
41 40.556486 22.97732 0.0243902
32 43.170848 22.972973 0.03125
54 46.080157 22.968608 0.0185185
53 49.033755 22.964226 0.0188679
56 51.597253 22.959826 0.0178571
44 53.255025 22.955407 0.0227273
50 53.68127 22.950971 0.02
43 52.978435 22.946516 0.0232558
48 51.611474 22.942043 0.0208333
50 50.10321 22.937552 0.02
49 48.789264 22.933042 0.0204082
52 47.740983 22.928514 0.0192308
59 46.806064 22.923968 0.0169492
44 45.712229 22.919402 0.0227273
47 44.249014 22.914818 0.0212766
44 42.407882 22.910216 0.0227273
49 40.365727 22.905594 0.0204082
37 38.34432 22.900953 0.027027
35 36.504433 22.896294 0.0285714
34 34.917936 22.891615 0.0294118
33 33.597398 22.886917 0.030303
35 32.526976 22.8822 0.0285714
31 31.670999 22.877464 0.0322581
37 30.999992 22.872708 0.027027
25 30.484594 22.867933 0.04
33 30.099663 22.863139 0.030303
35 29.825581 22.858325 0.0285714
22 29.648205 22.853491 0.0454545
36 29.558938 22.848638 0.0277778
30 29.554355 22.843765 0.0333333
23 29.636011 22.838872 0.0434783
31 29.809594 22.83396 0.0322581
27 30.08591 22.829028 0.037037
27 30.474805 22.824075 0.037037
37 30.990824 22.819103 0.027027
26 31.645842 22.814111 0.0384615
36 32.443644 22.809098 0.0277778
30 33.369071 22.804066 0.0333333
39 34.371607 22.799013 0.025641
31 35.354764 22.79394 0.0322581
36 36.194101 22.788847 0.0277778
30 36.802122 22.783734 0.0333333
43 37.20007 22.7786 0.0232558
40 37.517967 22.773446 0.025
36 37.921634 22.768271 0.0277778
33 38.5328 22.763076 0.030303
32 39.390471 22.75786 0.03125
39 40.43471 22.752624 0.025641
37 41.505135 22.747367 0.027027
45 42.364721 22.74209 0.0222222
53 42.771285 22.736792 0.0188679
38 42.591693 22.731473 0.0263158
54 41.883942 22.726134 0.0185185
47 40.870359 22.720773 0.0212766
45 39.806224 22.715392 0.0222222
52 38.872522 22.70999 0.0192308
38 38.129596 22.704568 0.0263158
50 37.530356 22.699124 0.02
41 36.958907 22.69366 0.0243902
35 36.298296 22.688174 0.0285714
50 35.502937 22.682668 0.02
49 34.618526 22.67714 0.0204082
39 33.735747 22.671592 0.025641
27 32.932229 22.666022 0.037037
34 32.25129 22.660432 0.0294118
42 31.704408 22.65482 0.0238095
33 31.287667 22.649188 0.030303
32 30.989234 22.643534 0.03125
36 30.79587 22.637859 0.0277778
29 30.694805 22.632163 0.0344828
32 30.675352 22.626446 0.03125
29 30.729314 22.620708 0.0344828
27 30.850789 22.614948 0.037037
29 31.036665 22.609168 0.0344828
33 31.286194 22.603366 0.030303
21 31.601092 22.597543 0.047619
25 31.985474 22.591699 0.04
37 32.44597 22.585833 0.027027
35 32.992251 22.579947 0.0285714
38 33.637697 22.574039 0.0263158
28 34.400015 22.56811 0.0357143
35 35.303526 22.56216 0.0285714
33 36.380763 22.556188 0.030303
44 37.675536 22.550195 0.0227273
44 39.246014 22.544181 0.0227273
37 41.166801 22.538146 0.027027
45 43.5343 22.53209 0.0222222
37 46.466678 22.526012 0.027027
36 50.104032 22.519913 0.0277778
48 54.603462 22.513793 0.0208333
63 60.13151 22.507652 0.015873
70 66.837873 22.501489 0.0142857
79 74.810238 22.495306 0.0126582
76 83.978976 22.489101 0.0131579
107 93.959348 22.482875 0.0093458
88 103.859438 22.476627 0.0113636
100 112.235203 22.470359 0.01
93 117.474073 22.46407 0.0107527
95 118.678637 22.457759 0.0105263
100 116.308614 22.451427 0.01
94 111.887542 22.445075 0.0106383
102 107.06204 22.438701 0.0098039
98 102.888911 22.432306 0.0102041
93 99.617631 22.42589 0.0107527
91 96.785116 22.419453 0.010989
81 93.538486 22.412995 0.0123457
65 89.141769 22.406516 0.0153846
84 83.450995 22.400017 0.0119048
67 76.946694 22.393496 0.0149254
68 70.344931 22.386954 0.0147059
46 64.209282 22.380392 0.0217391
47 58.833368 22.373809 0.0212766
54 54.296773 22.367204 0.0185185
55 50.563277 22.36058 0.0181818
47 47.542757 22.353934 0.0212766
49 45.129466 22.347268 0.0204082
40 43.224151 22.340581 0.025
39 41.737424 22.333873 0.025641
41 40.594195 22.327145 0.0243902
38 39.731414 22.320396 0.0263158
27 39.101242 22.313626 0.037037
32 38.66738 22.306836 0.03125
42 38.403178 22.300026 0.0238095
38 38.290423 22.293195 0.0263158
28 38.317698 22.286344 0.0357143
41 38.478933 22.279472 0.0243902
20 38.773226 22.27258 0.05
31 39.203642 22.265668 0.0322581
26 39.777609 22.258736 0.0384615
41 40.507434 22.251783 0.0243902
36 41.410262 22.24481 0.0277778
42 42.509613 22.237817 0.0238095
26 43.838301 22.230804 0.0384615
32 45.440203 22.223771 0.03125
34 47.374496 22.216719 0.0294118
50 49.720382 22.209646 0.02
35 52.583167 22.202553 0.0285714
46 56.101322 22.195441 0.0217391
46 60.447108 22.188309 0.0217391
58 65.838815 22.181157 0.0172414
59 72.535485 22.173985 0.0169492
60 80.833044 22.166794 0.0166667
83 91.052758 22.159583 0.0120482
97 103.491701 22.152353 0.0103093
114 118.369872 22.145104 0.0087719
157 135.668381 22.137835 0.0063694
169 154.868994 22.130547 0.0059172
180 174.591878 22.123239 0.0055556
188 192.363282 22.115912 0.0053191
187 205.022656 22.108567 0.0053476
198 210.144271 22.101202 0.0050505
194 207.619368 22.093818 0.0051546
179 199.806504 22.086415 0.0055866
181 190.022196 22.078994 0.0055249
201 180.877838 22.071553 0.0049751
174 173.511392 22.064094 0.0057471
155 167.603395 22.056616 0.0064516
131 161.741773 22.04912 0.0076336
126 154.241875 22.041605 0.0079365
132 144.167364 22.034071 0.0075758
118 131.879925 22.026519 0.0084746
95 118.644519 22.018949 0.0105263
83 105.775978 22.01136 0.0120482
81 94.137322 22.003754 0.0123457
62 84.095004 21.996129 0.016129
77 75.679475 21.988486 0.012987
52 68.74318 21.980826 0.0192308
57 63.0582 21.973147 0.0175439
49 58.374448 21.96545 0.0204082
50 54.458695 21.957736 0.02
28 51.132418 21.950004 0.0357143
31 48.283144 21.942255 0.0322581
19 45.844576 21.934488 0.0526316
28 43.769322 21.926704 0.0357143
42 42.007496 21.918902 0.0238095
32 40.503043 21.911083 0.03125
33 39.194371 21.903247 0.030303
30 38.02179 21.895394 0.0333333
32 36.940509 21.887524 0.03125
33 35.930166 21.879637 0.030303
30 34.991738 21.871733 0.0333333
35 34.133255 21.863812 0.0285714
33 33.359714 21.855875 0.030303
37 32.670068 21.847921 0.027027
27 32.058732 21.83995 0.037037
34 31.518149 21.831963 0.0294118
39 31.040456 21.82396 0.025641
32 30.618057 21.815941 0.03125
27 30.24422 21.807905 0.037037
29 29.913093 21.799854 0.0344828
19 29.619698 21.791786 0.0526316
35 29.35982 21.783703 0.0285714
30 29.130133 21.775604 0.0333333
31 28.9278 21.767489 0.0322581
21 28.750606 21.759359 0.047619
29 28.596816 21.751213 0.0344828
27 28.465122 21.743052 0.037037
31 28.354581 21.734876 0.0322581
36 28.264584 21.726684 0.0277778
28 28.194832 21.718477 0.0357143
27 28.145342 21.710255 0.037037
35 28.116454 21.702019 0.0285714
26 28.10885 21.693767 0.0384615
34 28.123605 21.685501 0.0294118
44 28.162211 21.677221 0.0227273
32 28.226721 21.668925 0.03125
36 28.319733 21.660616 0.0277778
32 28.444562 21.652292 0.03125
40 28.605365 21.643954 0.025
35 28.807402 21.635602 0.0285714
28 29.056898 21.627236 0.0357143
25 29.361805 21.618856 0.04
37 29.731676 21.610462 0.027027
39 30.177857 21.602054 0.025641
37 30.7134 21.593634 0.027027
32 31.353137 21.585199 0.03125
30 32.115025 21.576751 0.0333333
44 33.024199 21.56829 0.0227273
40 34.118699 21.559816 0.025
54 35.452686 21.551329 0.0185185
39 37.092277 21.542829 0.025641
48 39.108842 21.534317 0.0208333
62 41.565362 21.525791 0.016129
72 44.505432 21.517253 0.0138889
79 47.924152 21.508703 0.0126582
80 51.721563 21.50014 0.0125
109 55.638737 21.491565 0.0091743
90 59.214508 21.482978 0.0111111
88 61.852121 21.474379 0.0113636
84 63.06519 21.465767 0.0119048
80 62.779451 21.457145 0.0125
89 61.399546 21.44851 0.011236
97 59.558529 21.439864 0.0103093
92 57.797745 21.431207 0.0108696
81 56.397398 21.422538 0.0123457
66 55.358139 21.413858 0.0151515
65 54.454899 21.405167 0.0153846
63 53.362706 21.396465 0.015873
70 51.841088 21.387753 0.0142857
83 49.881323 21.379029 0.0120482
73 47.691037 21.370295 0.0136986
54 45.549576 21.36155 0.0185185
39 43.680609 21.352796 0.025641
64 42.215922 21.34403 0.015625
54 41.217864 21.335255 0.0185185
58 40.706264 21.32647 0.0172414
56 40.691252 21.317675 0.0178571
61 41.180699 21.30887 0.0163934
64 42.180821 21.300056 0.015625
61 43.692126 21.291232 0.0163934
72 45.690914 21.282398 0.0138889
75 48.096978 21.273556 0.0133333
83 50.732589 21.264704 0.0120482
75 53.30169 21.255843 0.0133333
90 55.444532 21.246974 0.0111111
80 56.906841 21.238096 0.0125
87 57.697235 21.229209 0.0114943
94 58.081748 21.220313 0.0106383
95 58.382042 21.211409 0.0105263
104 58.762979 21.202497 0.0096154
104 59.136591 21.193577 0.0096154
113 59.219142 21.184649 0.0088496
88 58.694755 21.175713 0.0113636
94 57.402614 21.166769 0.0106383
85 55.425936 21.157818 0.0117647
86 53.040113 21.148859 0.0116279
90 50.574542 21.139893 0.0111111
68 48.270293 21.13092 0.0147059
72 46.212886 21.121939 0.0138889
82 44.344713 21.112952 0.0121951
65 42.539435 21.103958 0.0153846
75 40.703566 21.094957 0.0133333
75 38.836905 21.085949 0.0133333
51 37.015405 21.076935 0.0196078
45 35.32762 21.067915 0.0222222
42 33.831669 21.058889 0.0238095
40 32.547738 21.049856 0.025
42 31.468963 21.040818 0.0238095
42 30.576371 21.031774 0.0238095
44 29.846826 21.022724 0.0227273
30 29.258066 21.013669 0.0333333
30 28.79074 21.004609 0.0333333
30 28.429468 20.995543 0.0333333
35 28.16236 20.986472 0.0285714
25 27.981209 20.977396 0.04
24 27.881071 20.968316 0.0416667
33 27.85924 20.95923 0.030303
36 27.914782 20.95014 0.0277778
18 28.046245 20.941046 0.0555556
27 28.249061 20.931947 0.037037
25 28.510866 20.922845 0.04
39 28.805555 20.913738 0.025641
36 29.090711 20.904627 0.0277778
28 29.316127 20.895513 0.0357143
34 29.447131 20.886395 0.0294118
32 29.488693 20.877273 0.03125
34 29.486632 20.868148 0.0294118
30 29.503836 20.85902 0.0333333
42 29.59506 20.849889 0.0238095
32 29.792767 20.840755 0.03125
39 30.106435 20.831618 0.025641
41 30.525033 20.822479 0.0243902
33 31.024211 20.813337 0.030303
33 31.576177 20.804193 0.030303
29 32.154335 20.795046 0.0344828
42 32.723178 20.785897 0.0238095
33 33.220387 20.776747 0.030303
39 33.556081 20.767594 0.025641
46 33.649412 20.75844 0.0217391
28 33.48475 20.749284 0.0357143
33 33.126427 20.740127 0.030303
34 32.705949 20.730969 0.0294118
36 32.32392 20.721809 0.0277778
42 32.041653 20.712649 0.0238095
31 31.868192 20.703487 0.0322581
53 31.769977 20.694325 0.0188679
32 31.688726 20.685162 0.03125
31 31.566953 20.675999 0.0322581
37 31.389027 20.666836 0.027027
37 31.168123 20.657672 0.027027
26 30.935795 20.648509 0.0384615
30 30.71473 20.639345 0.0333333
30 30.517103 20.630182 0.0333333
41 30.361568 20.621019 0.0243902
26 30.27219 20.611857 0.0384615
24 30.291818 20.602695 0.0416667
34 30.448084 20.593534 0.0294118
23 30.768919 20.584375 0.0434783
33 31.267961 20.575216 0.030303
35 31.948484 20.566058 0.0285714
51 32.803903 20.556902 0.0196078
40 33.817429 20.547747 0.025
29 34.955571 20.538594 0.0344828
38 36.147695 20.529443 0.0263158
33 37.267873 20.520294 0.030303
39 38.142051 20.511147 0.025641
34 38.607904 20.502002 0.0294118
35 38.618418 20.492859 0.0285714
38 38.270673 20.483719 0.0263158
25 37.757948 20.474581 0.04
36 37.266261 20.465446 0.0277778
27 36.903527 20.456315 0.037037
35 36.695767 20.447186 0.0285714
28 36.591099 20.43806 0.0357143
28 36.492203 20.428938 0.0357143
38 36.307434 20.419819 0.0263158
32 36.006538 20.410703 0.03125
24 35.639192 20.401592 0.0416667
35 35.304249 20.392484 0.0285714
32 35.103104 20.38338 0.03125
35 35.112904 20.374281 0.0285714
33 35.385483 20.365185 0.030303
35 35.958651 20.356094 0.0285714
31 36.862427 20.347008 0.0322581
48 38.130845 20.337927 0.0208333
38 39.796905 20.32885 0.0263158
36 41.88451 20.319778 0.0277778
45 44.390831 20.310711 0.0222222
53 47.249598 20.30165 0.0188679
37 50.296595 20.292594 0.027027
47 53.234185 20.283543 0.0212766
47 55.668853 20.274498 0.0212766
62 57.270845 20.265459 0.016129
57 57.967537 20.256426 0.0175439
50 58.014355 20.247399 0.02
30 57.856761 20.238378 0.0333333
58 57.912369 20.229363 0.0172414
59 58.428591 20.220355 0.0169492
56 59.434705 20.211354 0.0178571
54 60.746912 20.202359 0.0185185
58 62.018928 20.193371 0.0172414
54 62.874882 20.184391 0.0185185
50 63.0873 20.175417 0.02
59 62.665444 20.16645 0.0169492
49 61.761849 20.157492 0.0204082
58 60.509549 20.14854 0.0172414
60 58.966511 20.139596 0.0166667
49 57.180023 20.13066 0.0204082
59 55.255353 20.121732 0.0169492
57 53.327831 20.112813 0.0175439
42 51.496476 20.103901 0.0238095
45 49.806043 20.094998 0.0222222
49 48.264815 20.086103 0.0204082
39 46.856829 20.077217 0.025641
46 45.532085 20.068339 0.0217391
47 44.223438 20.059471 0.0212766
47 42.896046 20.050611 0.0212766
37 41.582178 20.041761 0.027027
33 40.365679 20.03292 0.030303
30 39.334999 20.024088 0.0333333
44 38.554401 20.015266 0.0227273
35 38.049884 20.006453 0.0285714
41 37.851083 19.997651 0.0243902
44 37.954219 19.988858 0.0227273
49 38.359424 19.980075 0.0204082
36 39.065844 19.971302 0.0277778
28 40.064991 19.96254 0.0357143
39 41.331422 19.953788 0.025641
35 42.827133 19.945047 0.0285714
54 44.475192 19.936317 0.0185185
48 46.202965 19.927597 0.0208333
65 47.987393 19.918888 0.0153846
51 49.908559 19.910191 0.0196078
51 52.144715 19.901504 0.0196078
52 54.918782 19.892829 0.0192308
72 58.439234 19.884165 0.0138889
65 62.864771 19.875513 0.0153846
63 68.279504 19.866873 0.015873
61 74.657371 19.858244 0.0163934
95 81.808507 19.849627 0.0105263
85 89.300267 19.841023 0.0117647
90 96.37259 19.832431 0.0111111
106 101.991605 19.823851 0.009434
83 105.13123 19.815283 0.0120482
104 105.294948 19.806728 0.0096154
98 102.857904 19.798186 0.0102041
109 98.872761 19.789656 0.0091743
101 94.51552 19.78114 0.009901
92 90.633011 19.772636 0.0108696
79 87.57379 19.764146 0.0126582
99 85.210324 19.755669 0.010101
98 83.010456 19.747205 0.0102041
75 80.42024 19.738755 0.0133333
65 76.947918 19.730319 0.0153846
58 72.557938 19.721896 0.0172414
54 67.610693 19.713487 0.0185185
62 62.611842 19.705092 0.016129
52 57.978952 19.696712 0.0192308
55 53.936 19.688345 0.0181818
44 50.614883 19.679993 0.0227273
41 47.990414 19.671656 0.0243902
37 45.998574 19.663333 0.027027
39 44.531796 19.655024 0.025641
52 43.443344 19.646731 0.0192308
35 42.54894 19.638452 0.0285714
42 41.661505 19.630189 0.0238095
38 40.649829 19.621941 0.0263158
31 39.48943 19.613708 0.0322581
42 38.253742 19.60549 0.0238095
33 37.053835 19.597288 0.030303
32 35.978107 19.589101 0.03125
36 35.064973 19.58093 0.0277778
28 34.299604 19.572775 0.0357143
21 33.624554 19.564636 0.047619
33 32.959226 19.556513 0.030303
34 32.234857 19.548406 0.0294118
34 31.426546 19.540315 0.0294118
27 30.55992 19.532241 0.037037
26 29.687285 19.524183 0.0384615
32 28.857425 19.516142 0.03125
34 28.100716 19.508117 0.0294118
16 27.429017 19.50011 0.0625
32 26.842308 19.492119 0.03125
27 26.333832 19.484145 0.037037
33 25.895218 19.476188 0.030303
23 25.515481 19.468248 0.0434783
38 25.186354 19.460326 0.0263158
29 24.899867 19.452421 0.0344828
31 24.649064 19.444534 0.0322581
20 24.428075 19.436664 0.05
38 24.232086 19.428812 0.0263158
22 24.057115 19.420978 0.0454545
35 23.899963 19.413162 0.0285714
38 23.75802 19.405364 0.0263158
30 23.62924 19.397583 0.0333333
24 23.511922 19.389822 0.0416667
16 23.405047 19.382078 0.0625
24 23.30675 19.374353 0.0416667
41 23.204127 19.366646 0.0243902
31 23.121025 19.358958 0.0322581
25 23.044413 19.351289 0.04
13 22.97387 19.343638 0.0769231
28 22.908539 19.336006 0.0357143
22 22.84846 19.328393 0.0454545
30 22.786444 19.3208 0.0333333
27 22.734794 19.313225 0.037037
28 22.687027 19.30567 0.0357143
26 22.642879 19.298134 0.0384615
24 22.602101 19.290617 0.0416667
26 22.564484 19.28312 0.0384615
23 22.529835 19.275643 0.0434783
29 22.497977 19.268185 0.0344828
28 22.468769 19.260747 0.0357143
24 22.44215 19.253329 0.0416667
24 22.41783 19.245931 0.0416667
16 22.395941 19.238553 0.0625
25 22.376071 19.231196 0.04
18 22.358286 19.223858 0.0555556
27 22.342506 19.21654 0.037037
15 22.328667 19.209244 0.0666667
33 22.316704 19.201967 0.030303
33 22.306562 19.194711 0.030303
23 22.298193 19.187476 0.0434783
22 22.291553 19.180261 0.0454545
26 22.286615 19.173067 0.0384615
31 22.283339 19.165894 0.0322581
22 22.281707 19.158742 0.0454545
31 22.281698 19.151611 0.0322581
28 22.283297 19.144501 0.0357143
27 22.286498 19.137413 0.037037
33 22.291287 19.130345 0.030303
19 22.29767 19.123299 0.0526316
23 22.305628 19.116275 0.0434783
26 22.315212 19.109271 0.0384615
33 22.326414 19.10229 0.030303
27 22.33925 19.09533 0.037037
27 22.35375 19.088391 0.037037
35 22.369935 19.081475 0.0285714
27 22.387838 19.07458 0.037037
13 22.407489 19.067707 0.0769231
25 22.428955 19.060857 0.04
24 22.452278 19.054028 0.0416667
15 22.477511 19.047221 0.0666667
20 22.504717 19.040437 0.05
32 22.534099 19.033675 0.03125
25 22.565481 19.026935 0.04
26 22.59908 19.020217 0.0384615
27 22.634994 19.013522 0.037037
22 22.673341 19.00685 0.0454545
25 22.714237 19.0002 0.04
22 22.757823 18.993573 0.0454545
20 22.804251 18.986968 0.05
29 22.853695 18.980387 0.0344828
24 22.906345 18.973828 0.0416667
37 22.962417 18.967292 0.027027
25 23.022137 18.960778 0.04
24 23.085782 18.954288 0.0416667
17 23.153725 18.947821 0.0588235
19 23.226165 18.941377 0.0526316
20 23.303558 18.934957 0.05
19 23.386349 18.928559 0.0526316
33 23.47503 18.922185 0.030303
20 23.57018 18.915834 0.05
18 23.672457 18.909506 0.0555556
19 23.782625 18.903202 0.0526316
24 23.901577 18.896922 0.0416667
18 24.030365 18.890665 0.0555556
29 24.170169 18.884431 0.0344828
21 24.322477 18.878221 0.047619
23 24.489029 18.872035 0.0434783
26 24.67197 18.865873 0.0384615
31 24.874018 18.859734 0.0322581
28 25.098264 18.85362 0.0357143
23 25.348944 18.847529 0.0434783
20 25.631283 18.841462 0.05
26 25.951914 18.835419 0.0384615
27 26.319215 18.8294 0.037037
33 26.743671 18.823405 0.030303
32 27.238262 18.817435 0.03125
27 27.818278 18.811488 0.037037
35 28.502111 18.805566 0.0285714
26 29.310585 18.799667 0.0384615
34 30.266386 18.793794 0.0294118
32 31.39245 18.787944 0.03125
39 32.708598 18.782119 0.025641
30 34.224554 18.776318 0.0333333
42 35.927854 18.770541 0.0238095
41 37.764715 18.764789 0.0243902
43 39.618465 18.759062 0.0232558
38 41.30245 18.753359 0.0263158
33 42.595 18.74768 0.030303
40 43.328154 18.742026 0.025
42 43.48472 18.736397 0.0238095
45 43.21521 18.730792 0.0222222
45 42.759472 18.725212 0.0222222
44 42.341375 18.719657 0.0227273
47 42.105073 18.714126 0.0212766
46 42.098987 18.708621 0.0217391
47 42.284358 18.70314 0.0212766
45 42.557163 18.697683 0.0222222
35 42.787392 18.692252 0.0285714
55 42.87399 18.686846 0.0181818
45 42.783074 18.681464 0.0222222
41 42.542839 18.676107 0.0243902
37 42.213876 18.670776 0.027027
34 41.870243 18.665469 0.0294118
48 41.599131 18.660187 0.0208333
29 41.502501 18.65493 0.0344828
49 41.652906 18.649698 0.0204082
39 42.12555 18.644491 0.025641
44 42.964131 18.63931 0.0227273
48 44.189463 18.634153 0.0208333
28 45.800328 18.629021 0.0357143
41 47.775417 18.623915 0.0243902
58 50.05514 18.618834 0.0172414
43 52.547215 18.613777 0.0232558
46 55.082796 18.608746 0.0217391
56 57.392979 18.60374 0.0178571
57 59.137295 18.598759 0.0175439
56 60.024014 18.593804 0.0178571
47 59.972898 18.588873 0.0212766
41 59.163476 18.583968 0.0243902
46 57.959922 18.579088 0.0217391
49 56.726506 18.574233 0.0204082
56 55.712548 18.569403 0.0178571
40 55.016519 18.564599 0.025
44 54.595793 18.55982 0.0227273
50 54.293081 18.555066 0.02
37 53.902322 18.550337 0.027027
46 53.259976 18.545634 0.0217391
35 52.322539 18.540955 0.0285714
49 51.179442 18.536302 0.0204082
35 49.989965 18.531674 0.0285714
42 48.903799 18.527072 0.0238095
38 48.021812 18.522495 0.0263158
35 47.393778 18.517942 0.0285714
35 47.035636 18.513416 0.0285714
38 46.943326 18.508914 0.0263158
32 47.105756 18.504437 0.03125
27 47.511303 18.499986 0.037037
36 48.149102 18.49556 0.0277778
31 49.014163 18.49116 0.0322581
37 50.106479 18.486784 0.027027
40 51.431381 18.482434 0.025
37 53.001542 18.478108 0.027027
40 54.837037 18.473808 0.025
39 56.971169 18.469533 0.025641
45 59.434935 18.465284 0.0222222
32 62.284719 18.461059 0.03125
60 65.587711 18.45686 0.0166667
54 69.42943 18.452685 0.0185185
57 73.917866 18.448536 0.0175439
56 79.187527 18.444412 0.0178571
78 85.406068 18.440313 0.0128205
72 92.777667 18.436239 0.0138889
97 101.541738 18.43219 0.0103093
103 111.969119 18.428166 0.0097087
132 124.347674 18.424167 0.0075758
139 138.961297 18.420192 0.0071942
154 156.020902 18.416243 0.0064935
187 175.584408 18.412319 0.0053476
263 197.382055 18.40842 0.0038023
291 220.566635 18.404545 0.0034364
290 243.485255 18.400696 0.0034483
322 263.690818 18.396871 0.0031056
351 278.535512 18.393071 0.002849
345 286.322867 18.389296 0.0028986
428 287.312402 18.385546 0.0023364
413 283.689108 18.38182 0.0024213
395 278.492142 18.378119 0.0025316
309 274.421891 18.374443 0.0032362
301 273.227673 18.370791 0.0033223
261 275.559758 18.367164 0.0038314
319 281.106037 18.363562 0.0031348
278 288.92237 18.359984 0.0035971
306 297.920405 18.356431 0.003268
322 307.559177 18.352902 0.0031056
405 318.331993 18.349397 0.0024691
426 331.628644 18.345917 0.0023474
447 349.044069 18.342462 0.0022371
475 371.700768 18.33903 0.0021053
559 399.649074 18.335623 0.0017889
529 431.417708 18.33224 0.0018904
623 463.664089 18.328882 0.0016051
586 491.305499 18.325548 0.0017065
602 508.732297 18.322237 0.0016611
544 512.121059 18.318951 0.0018382
564 501.51913 18.315689 0.001773
600 480.844726 18.312451 0.0016667
589 455.777429 18.309237 0.0016978
555 431.382938 18.306047 0.0018018
542 410.729556 18.30288 0.001845
533 394.663511 18.299738 0.0018762
470 381.968721 18.296619 0.0021277
430 369.965601 18.293524 0.0023256
390 355.481845 18.290453 0.0025641
364 336.232809 18.287405 0.0027473
361 311.887277 18.284381 0.0027701
300 284.009127 18.281381 0.0033333
292 255.005049 18.278404 0.0034247
258 227.013032 18.27545 0.003876
195 201.413815 18.27252 0.0051282
207 178.807905 18.269613 0.0048309
198 159.280749 18.26673 0.0050505
158 142.634218 18.263869 0.0063291
145 128.535402 18.261032 0.0068966
111 116.618398 18.258218 0.009009
104 106.535996 18.255427 0.0096154
72 97.986913 18.252659 0.0138889
87 90.721919 18.249914 0.0114943
95 84.537342 18.247192 0.0105263
64 79.264767 18.244493 0.015625
70 74.762142 18.241816 0.0142857
65 70.913087 18.239162 0.0153846
62 67.616851 18.236531 0.016129
59 64.789823 18.233922 0.0169492
58 62.367408 18.231336 0.0172414
65 60.297928 18.228772 0.0153846
48 58.551668 18.226231 0.0208333
53 57.112023 18.223712 0.0188679
49 55.968497 18.221215 0.0204082
59 55.106537 18.218741 0.0169492
59 54.499199 18.216288 0.0169492
61 54.093815 18.213858 0.0163934
50 53.810365 18.211449 0.02
42 53.547485 18.209063 0.0238095
51 53.209739 18.206698 0.0196078
38 52.747646 18.204355 0.0263158
52 52.177531 18.202034 0.0192308
67 51.557877 18.199734 0.0149254
46 50.941233 18.197456 0.0217391
48 50.343346 18.195199 0.0208333
47 49.741529 18.192964 0.0212766
45 49.100691 18.19075 0.0222222
33 48.398835 18.188558 0.030303
49 47.633943 18.186386 0.0204082
51 46.816762 18.184236 0.0196078
42 45.972074 18.182107 0.0238095
37 45.1387 18.179998 0.027027
45 44.359697 18.177911 0.0222222
37 43.666 18.175844 0.027027
38 43.066243 18.173798 0.0263158
39 42.551028 18.171772 0.025641
27 42.110698 18.169768 0.037037
44 41.750371 18.167783 0.0227273
37 41.492091 18.165819 0.027027
41 41.36519 18.163875 0.0243902
40 41.393072 18.161952 0.025
32 41.586039 18.160048 0.03125
38 41.937617 18.158165 0.0263158
42 42.42402 18.156302 0.0238095
39 43.008821 18.154458 0.025641
45 43.656146 18.152634 0.0222222
31 44.354792 18.15083 0.0322581
45 45.133797 18.149046 0.0222222
35 46.064551 18.147281 0.0285714
50 47.241597 18.145535 0.02
41 48.763422 18.143809 0.0243902
48 50.721502 18.142102 0.0208333
45 53.198112 18.140414 0.0222222
55 56.265939 18.138745 0.0181818
71 59.988151 18.137095 0.0140845
63 64.417043 18.135465 0.015873
67 69.585804 18.133852 0.0149254
52 75.482513 18.132259 0.0192308
74 81.992491 18.130684 0.0135135
104 88.812487 18.129128 0.0096154
100 95.368715 18.127589 0.01
87 100.854872 18.12607 0.0114943
98 104.434714 18.124568 0.0102041
75 105.610317 18.123085 0.0133333
85 104.50459 18.121619 0.0117647
79 101.811188 18.120172 0.0126582
91 98.453857 18.118742 0.010989
92 95.230641 18.11733 0.0108696
102 92.628494 18.115936 0.0098039
79 90.794286 18.114559 0.0126582
95 89.575502 18.113199 0.0105263
83 88.584565 18.111857 0.0120482
79 87.350603 18.110532 0.0126582
80 85.506564 18.109224 0.0125
91 82.959843 18.107933 0.010989
74 79.89444 18.106659 0.0135135
78 76.611289 18.105402 0.0128205
89 73.348463 18.104161 0.011236
59 70.205059 18.102937 0.0169492
55 67.177903 18.10173 0.0181818
64 64.242583 18.100538 0.015625
68 61.406793 18.099363 0.0147059
76 58.715882 18.098205 0.0131579
74 56.234933 18.097062 0.0135135
62 54.030315 18.095935 0.016129
58 52.14897 18.094824 0.0172414
71 50.599338 18.093728 0.0140845
56 49.342226 18.092648 0.0178571
57 48.301631 18.091584 0.0175439
57 47.392868 18.090535 0.0175439
50 46.553555 18.089501 0.02
48 45.761293 18.088483 0.0208333
50 45.029408 18.087479 0.02
55 44.393124 18.08649 0.0181818
48 43.894468 18.085517 0.0208333
42 43.568057 18.084557 0.0238095
42 43.42539 18.083613 0.0238095
63 43.442252 18.082682 0.015873
38 43.554455 18.081767 0.0263158
42 43.668005 18.080865 0.0238095
43 43.689337 18.079977 0.0232558
52 43.567855 18.079104 0.0192308
45 43.321569 18.078244 0.0222222
40 43.026845 18.077398 0.025
31 42.779327 18.076566 0.0322581
39 42.659628 18.075747 0.025641
41 42.716179 18.074941 0.0243902
40 42.962953 18.074149 0.025
38 43.385408 18.07337 0.0263158
35 43.949304 18.072604 0.0285714
43 44.61611 18.071851 0.0232558
31 45.368021 18.071111 0.0322581
30 46.225177 18.070383 0.0333333
25 47.247822 18.069668 0.04
44 48.521428 18.068965 0.0227273
44 50.140586 18.068275 0.0227273
41 52.20081 18.067597 0.0243902
49 54.800513 18.06693 0.0204082
46 58.044149 18.066276 0.0217391
47 62.049571 18.065633 0.0212766
68 66.945297 18.065003 0.0147059
56 72.872806 18.064383 0.0178571
67 79.968962 18.063775 0.0149254
101 88.362782 18.063179 0.009901
112 98.134947 18.062593 0.0089286
121 109.260323 18.062019 0.0082645
129 121.506345 18.061455 0.0077519
136 134.295075 18.060903 0.0073529
148 146.585493 18.060361 0.0067568
124 156.91688 18.059829 0.0080645
134 163.759328 18.059308 0.0074627
116 166.143777 18.058797 0.0086207
141 164.181067 18.058296 0.0070922
149 159.03066 18.057805 0.0067114
149 152.348756 18.057324 0.0067114
130 145.632916 18.056853 0.0076923
134 139.856742 18.056392 0.0074627
131 135.375528 18.05594 0.0076336
113 131.977839 18.055497 0.0088496
105 129.003349 18.055063 0.0095238
116 125.559877 18.054639 0.0086207
83 120.863486 18.054223 0.0120482
103 114.584759 18.053817 0.0097087
92 106.966273 18.053419 0.0108696
85 98.634915 18.053029 0.0117647
85 90.273205 18.052648 0.0117647
93 82.409445 18.052276 0.0107527
88 75.337134 18.051911 0.0113636
71 69.169557 18.051555 0.0140845
52 63.902896 18.051206 0.0192308
54 59.47478 18.050865 0.0185185
50 55.799721 18.050532 0.02
49 52.787785 18.050206 0.0204082
46 50.355538 18.049887 0.0217391
57 48.431245 18.049576 0.0175439
52 46.956622 18.049272 0.0192308
52 45.887628 18.048974 0.0192308
56 45.194625 18.048684 0.0178571
34 44.861562 18.0484 0.0294118
42 44.887304 18.048123 0.0238095
38 45.281857 18.047852 0.0263158
50 46.067399 18.047587 0.02
53 47.275133 18.047328 0.0188679
63 48.943465 18.047076 0.015873
63 51.113232 18.046829 0.015873
67 53.814132 18.046588 0.0149254
80 57.052749 18.046352 0.0125
80 60.779874 18.046122 0.0125
65 64.848651 18.045897 0.0153846
76 68.968814 18.045677 0.0131579
96 72.690589 18.045462 0.0104167
93 75.471409 18.045252 0.0107527
82 76.855048 18.045047 0.0121951
100 76.684459 18.044847 0.01
98 75.195486 18.04465 0.0102041
96 72.900805 18.044458 0.0104167
93 70.366151 18.044271 0.0107527
70 68.034133 18.044087 0.0142857
87 66.139388 18.043907 0.0114943
91 64.713084 18.043731 0.010989
81 63.608623 18.043558 0.0123457
81 62.554167 18.043389 0.0123457
72 61.243383 18.043223 0.0138889
84 59.459428 18.043061 0.0119048
80 57.169784 18.042901 0.0125
55 54.524258 18.042744 0.0181818
59 51.76328 18.04259 0.0169492
62 49.118208 18.042439 0.016129
62 46.746491 18.04229 0.016129
59 44.735812 18.042143 0.0169492
55 43.115984 18.041999 0.0181818
43 41.881528 18.041857 0.0232558
58 41.004607 18.041716 0.0172414
43 40.440346 18.041577 0.0232558
51 40.126917 18.04144 0.0196078
60 39.98794 18.041304 0.0166667
35 39.942925 18.04117 0.0285714
44 39.930297 18.041037 0.0227273
39 39.932569 18.040904 0.025641
47 39.984808 18.040773 0.0212766
38 40.158736 18.040642 0.0263158
36 40.535235 18.040512 0.0277778
42 41.178317 18.040383 0.0238095
54 42.1256 18.040254 0.0185185
52 43.378518 18.040125 0.0192308
47 44.894886 18.039996 0.0212766
56 46.581561 18.039866 0.0178571
44 48.289657 18.039737 0.0227273
62 49.828139 18.039607 0.016129
49 50.98497 18.039477 0.0204082
52 51.571137 18.039346 0.0192308
47 51.479157 18.039214 0.0212766
55 50.738054 18.039081 0.0181818
65 49.519128 18.038947 0.0153846
46 48.065967 18.038812 0.0217391
52 46.614145 18.038675 0.0192308
52 45.322419 18.038537 0.0192308
45 44.254659 18.038397 0.0222222
47 43.387915 18.038256 0.0212766
46 42.635446 18.038112 0.0217391
47 41.874186 18.037966 0.0212766
53 40.982828 18.037818 0.0188679
49 39.88823 18.037667 0.0204082
31 38.592934 18.037514 0.0322581
34 37.168636 18.037359 0.0294118
35 35.717275 18.0372 0.0285714
41 34.33103 18.037039 0.0243902
32 33.072145 18.036874 0.03125
36 31.970362 18.036706 0.0277778
24 31.034618 18.036535 0.0416667
36 30.260375 18.03636 0.0277778
27 29.637447 18.036181 0.037037
29 29.153772 18.035999 0.0344828
35 28.797876 18.035812 0.0285714
29 28.560229 18.035622 0.0344828
21 28.432653 18.035427 0.047619
17 28.408448 18.035228 0.0588235
26 28.481021 18.035024 0.0384615
18 28.642259 18.034816 0.0555556
23 28.880062 18.034603 0.0434783
31 29.175865 18.034384 0.0322581
28 29.5048 18.034161 0.0357143
26 29.840073 18.033932 0.0384615
24 30.159078 18.033698 0.0416667
21 30.449434 18.033459 0.047619
35 30.708139 18.033214 0.0285714
35 30.93672 18.032963 0.0285714
34 31.140116 18.032706 0.0294118
26 31.331365 18.032442 0.0384615
29 31.534726 18.032173 0.0344828
27 31.781345 18.031897 0.037037
35 32.098921 18.031615 0.0285714
29 32.504406 18.031326 0.0344828
44 33.002613 18.031031 0.0227273
34 33.589171 18.030728 0.0294118
34 34.253442 18.030418 0.0294118
33 34.980829 18.030101 0.030303
30 35.757866 18.029777 0.0333333
40 36.586271 18.029445 0.025
35 37.495552 18.029106 0.0285714
40 38.544545 18.028759 0.025
44 39.807569 18.028403 0.0227273
54 41.355134 18.02804 0.0185185
42 43.237885 18.027669 0.0238095
55 45.47806 18.027289 0.0181818
77 48.063702 18.026901 0.012987
64 50.942082 18.026504 0.015625
65 54.006687 18.026099 0.0153846
77 57.075934 18.025684 0.012987
61 59.873202 18.025261 0.0163934
69 62.058386 18.024829 0.0144928
56 63.317767 18.024387 0.0178571
70 63.502265 18.023936 0.0142857
53 62.715992 18.023475 0.0188679
67 61.275834 18.023004 0.0149254
66 59.576743 18.022524 0.0151515
53 57.957847 18.022034 0.0188679
68 56.63559 18.021533 0.0147059
75 55.691912 18.021023 0.0133333
64 55.091037 18.020502 0.015625
55 54.698179 18.019971 0.0181818
63 54.322001 18.019429 0.015873
71 53.777582 18.018876 0.0140845
65 52.965155 18.018312 0.0153846
66 51.903397 18.017737 0.0151515
52 50.692665 18.017151 0.0192308
40 49.43644 18.016554 0.025
47 48.182871 18.015946 0.0212766
58 46.915048 18.015326 0.0172414
66 45.591028 18.014694 0.0151515
60 44.196489 18.01405 0.0166667
41 42.774247 18.013395 0.0243902
46 41.408355 18.012727 0.0217391
61 40.190887 18.012047 0.0163934
50 39.189872 18.011355 0.02
37 38.439688 18.010651 0.027027
56 37.939969 18.009933 0.0178571
30 37.660472 18.009203 0.0333333
52 37.551314 18.008461 0.0192308
46 37.55607 18.007705 0.0217391
63 37.634441 18.006936 0.015873
48 37.781552 18.006154 0.0208333
43 38.033203 18.005359 0.0232558
48 38.449792 18.00455 0.0208333
58 39.094715 18.003727 0.0172414
54 40.019599 18.002891 0.0185185
63 41.249623 18.002041 0.015873
57 42.775926 18.001177 0.0175439
76 44.538071 18.000299 0.0131579
63 46.406296 17.999407 0.015873
58 48.168362 17.9985 0.0172414
70 49.555961 17.997579 0.0142857
63 50.314029 17.996644 0.015873
64 50.306907 17.995693 0.015625
51 49.583167 17.994728 0.0196078
52 48.356174 17.993748 0.0192308
57 46.902118 17.992752 0.0175439
45 45.471368 17.991742 0.0222222
67 44.226611 17.990716 0.0149254
76 43.232029 17.989675 0.0131579
60 42.459441 17.988618 0.0166667
62 41.804869 17.987546 0.016129
60 41.119263 17.986458 0.0166667
42 40.25388 17.985354 0.0238095
47 39.119764 17.984234 0.0212766
41 37.722126 17.983097 0.0243902
24 36.146299 17.981945 0.0416667
43 34.51048 17.980776 0.0232558
47 32.919965 17.979591 0.0212766
36 31.445213 17.978389 0.0277778
42 30.122322 17.97717 0.0238095
29 28.959409 17.975935 0.0344828
39 27.951762 17.974683 0.025641
42 27.08608 17.973413 0.0238095
22 26.346744 17.972127 0.0454545
30 25.717665 17.970823 0.0333333
29 25.183796 17.969502 0.0344828
28 24.732143 17.968163 0.0357143
23 24.35104 17.966806 0.0434783
27 24.030682 17.965432 0.037037
29 23.762678 17.964041 0.0344828
25 23.539682 17.962631 0.04
25 23.354898 17.961203 0.04
29 23.201632 17.959757 0.0344828
23 23.072913 17.958293 0.0434783
30 22.961377 17.95681 0.0333333
22 22.859438 17.955309 0.0454545
21 22.759478 17.95379 0.047619
24 22.654757 17.952251 0.0416667
29 22.544687 17.950694 0.0344828
39 22.421865 17.949118 0.025641
22 22.29376 17.947524 0.0454545
32 22.16581 17.94591 0.03125
36 22.044903 17.944276 0.0277778
24 21.934013 17.942624 0.0416667
23 21.834164 17.940952 0.0434783
30 21.744178 17.939261 0.0333333
30 21.66135 17.93755 0.0333333
25 21.582175 17.935819 0.04
23 21.503081 17.934069 0.0434783
25 21.421172 17.932298 0.04
22 21.336425 17.930508 0.0454545
21 21.25001 17.928698 0.047619
26 21.164487 17.926867 0.0384615
22 21.084587 17.925017 0.0454545
24 21.008507 17.923145 0.0416667
19 20.939252 17.921254 0.0526316
19 20.877138 17.919342 0.0526316
34 20.82199 17.917409 0.0294118
30 20.773364 17.915455 0.0333333
29 20.730712 17.913481 0.0344828
28 20.69349 17.911486 0.0357143
24 20.661165 17.909469 0.0416667
20 20.633277 17.907432 0.05
22 20.609416 17.905373 0.0454545
35 20.589242 17.903293 0.0285714
17 20.572468 17.901192 0.0588235
25 20.559559 17.899069 0.04
32 20.548959 17.896925 0.03125
28 20.541295 17.894759 0.0357143
23 20.536352 17.892572 0.0434783
27 20.534253 17.890362 0.037037
16 20.534749 17.888131 0.0625
20 20.53798 17.885878 0.05
28 20.543989 17.883603 0.0357143
20 20.552863 17.881305 0.05
22 20.564715 17.878986 0.0454545
32 20.579703 17.876644 0.03125
18 20.598017 17.874279 0.0555556
30 20.61991 17.871893 0.0333333
25 20.647612 17.869483 0.04
26 20.67767 17.867052 0.0384615
22 20.712813 17.864597 0.0454545
24 20.752953 17.86212 0.0416667
25 20.799232 17.85962 0.04
24 20.852358 17.857097 0.0416667
20 20.913374 17.85455 0.05
21 20.98378 17.851981 0.047619
16 21.064991 17.849389 0.0625
14 21.158806 17.846774 0.0714286
13 21.267216 17.844135 0.0769231
40 21.39252 17.841473 0.025
33 21.537172 17.838787 0.030303
27 21.703655 17.836078 0.037037
30 21.894117 17.833346 0.0333333
12 22.111065 17.830589 0.0833333
20 22.352114 17.82781 0.05
25 22.614625 17.825006 0.04
25 22.88971 17.822178 0.04
17 23.162897 17.819327 0.0588235
23 23.413027 17.816452 0.0434783
22 23.618244 17.813552 0.0454545
24 23.762691 17.810629 0.0416667
22 23.845425 17.807681 0.0454545
27 23.880976 17.804709 0.037037
21 23.89365 17.801713 0.047619
29 23.908678 17.798693 0.0344828
18 23.946396 17.795648 0.0555556
22 24.018732 17.792579 0.0454545
20 24.13002 17.789485 0.05
20 24.277893 17.786367 0.05
19 24.45484 17.783224 0.0526316
23 24.651484 17.780056 0.0434783
15 24.86113 17.776863 0.0666667
19 25.084361 17.773646 0.0526316
20 25.331355 17.770404 0.05
37 25.619452 17.767137 0.027027
25 25.970125 17.763845 0.04
23 26.405094 17.760528 0.0434783
31 26.945826 17.757187 0.0322581
22 27.612742 17.753819 0.0454545
25 28.427189 17.750427 0.04
35 29.411228 17.74701 0.0285714
25 30.587523 17.743567 0.04
38 31.97825 17.740099 0.0263158
55 33.602472 17.736606 0.0181818
38 35.471213 17.733087 0.0263158
44 37.578677 17.729543 0.0227273
47 39.887299 17.725974 0.0212766
37 42.307832 17.722379 0.027027
49 44.681565 17.718758 0.0204082
46 46.781885 17.715112 0.0217391
47 48.353195 17.71144 0.0212766
46 49.197311 17.707743 0.0217391
53 49.259365 17.704019 0.0188679
39 48.657785 17.70027 0.025641
57 47.631668 17.696496 0.0175439
57 46.445001 17.692695 0.0175439
54 45.308308 17.688868 0.0185185
53 44.344521 17.685016 0.0188679
44 43.587955 17.681138 0.0227273
50 42.997185 17.677233 0.02
50 42.471799 17.673303 0.02
34 41.876917 17.669347 0.0294118
39 41.085458 17.665365 0.025641
44 40.023559 17.661356 0.0227273
40 38.70165 17.657321 0.025
44 37.202308 17.653261 0.0227273
32 35.637797 17.649174 0.03125
39 34.108311 17.645061 0.025641
30 32.680803 17.640921 0.0333333
38 31.388709 17.636756 0.0263158
33 30.242171 17.632564 0.030303
32 29.239196 17.628346 0.03125
23 28.372824 17.624101 0.0434783
27 27.634321 17.619831 0.037037
28 27.012252 17.615533 0.0357143
29 26.50062 17.61121 0.0344828
28 26.088099 17.60686 0.0357143
22 25.765215 17.602483 0.0454545
34 25.524348 17.59808 0.0294118
31 25.35914 17.593651 0.0322581
31 25.264582 17.589195 0.0322581
21 25.236698 17.584713 0.047619
27 25.270821 17.580204 0.037037
36 25.364653 17.575669 0.0277778
27 25.510234 17.571107 0.037037
36 25.695819 17.566519 0.0277778
33 25.902576 17.561904 0.030303
32 26.103471 17.557262 0.03125
22 26.266985 17.552594 0.0454545
26 26.36497 17.5479 0.0384615
23 26.383656 17.543178 0.0434783
22 26.330191 17.538431 0.0454545
25 26.229346 17.533656 0.04
19 26.113749 17.528855 0.0526316
27 26.013021 17.524027 0.037037
25 25.94782 17.519173 0.04
33 25.928085 17.514292 0.030303
26 25.95357 17.509385 0.0384615
14 26.015086 17.504451 0.0714286
27 26.096886 17.49949 0.037037
23 26.180023 17.494502 0.0434783
28 26.247858 17.489488 0.0357143
29 26.29049 17.484448 0.0344828
17 26.30574 17.479381 0.0588235
29 26.29684 17.474287 0.0344828
14 26.269803 17.469166 0.0714286
27 26.233098 17.464019 0.037037
24 26.197656 17.458846 0.0416667
29 26.175983 17.453645 0.0344828
27 26.179909 17.448419 0.037037
27 26.21857 17.443165 0.037037
23 26.297538 17.437885 0.0434783
26 26.419018 17.432579 0.0384615
18 26.582344 17.427246 0.0555556
13 26.784636 17.421886 0.0769231
19 27.021827 17.4165 0.0526316
19 27.290169 17.411088 0.0526316
28 27.588045 17.405649 0.0357143
21 27.917665 17.400183 0.047619
23 28.285189 17.394692 0.0434783
29 28.699454 17.389173 0.0344828
28 29.170428 17.383629 0.0357143
23 29.708179 17.378057 0.0434783
21 30.322575 17.37246 0.047619
23 31.023563 17.366836 0.0434783
20 31.821362 17.361186 0.05
23 32.72667 17.355509 0.0434783
35 33.749679 17.349807 0.0285714
30 34.900188 17.344078 0.0333333
32 36.185746 17.338323 0.03125
35 37.611469 17.332541 0.0285714
23 39.182837 17.326733 0.0434783
28 40.910838 17.3209 0.0357143
31 42.820676 17.31504 0.0322581
49 44.960848 17.309154 0.0204082
44 47.397875 17.303242 0.0227273
48 50.219692 17.297304 0.0208333
55 53.520797 17.29134 0.0181818
55 57.396972 17.28535 0.0181818
77 61.930383 17.279334 0.012987
66 67.20427 17.273292 0.0151515
73 73.256944 17.267224 0.0136986
69 80.074778 17.261131 0.0144928
91 87.557436 17.255012 0.010989
105 95.475184 17.248867 0.0095238
112 103.444372 17.242696 0.0089286
126 110.939936 17.2365 0.0079365
115 117.368103 17.230278 0.0086957
109 122.1964 17.22403 0.0091743
112 125.065586 17.217757 0.0089286
135 125.882516 17.211458 0.0074074
114 124.862712 17.205134 0.0087719
114 122.50117 17.198785 0.0087719
115 119.45571 17.19241 0.0086957
115 116.381248 17.186009 0.0086957
107 113.760656 17.179584 0.0093458
122 111.834563 17.173133 0.0081967
98 110.597752 17.166657 0.0102041
118 109.854494 17.160157 0.0084746
101 109.316556 17.15363 0.009901
126 108.696354 17.147079 0.0079365
99 107.786444 17.140503 0.010101
97 106.497456 17.133902 0.0103093
93 104.861446 17.127277 0.0107527
94 102.989466 17.120626 0.0106383
112 100.985379 17.113951 0.0089286
93 98.866655 17.107251 0.0107527
85 96.537159 17.100526 0.0117647
102 93.856023 17.093777 0.0098039
94 90.751744 17.087003 0.0106383
97 87.305769 17.080205 0.0103093
64 83.73982 17.073382 0.015625
98 80.340593 17.066535 0.0102041
75 77.363753 17.059664 0.0133333
80 74.983434 17.052768 0.0125
74 73.277655 17.045849 0.0135135
77 72.234322 17.038905 0.012987
77 71.766257 17.031938 0.012987
69 71.731986 17.024946 0.0144928
84 71.971162 17.01793 0.0119048
74 72.358312 17.010891 0.0135135
83 72.850666 17.003828 0.0120482
94 73.505451 16.996741 0.0106383
81 74.441185 16.989631 0.0123457
73 75.781771 16.982497 0.0136986
80 77.565668 16.97534 0.0125
87 79.743523 16.968159 0.0114943
95 82.140319 16.960955 0.0105263
93 84.480809 16.953728 0.0107527
91 86.440846 16.946477 0.010989
84 87.717409 16.939204 0.0119048
72 88.093821 16.931907 0.0138889
88 87.486893 16.924588 0.0113636
71 85.978472 16.917246 0.0140845
95 83.804711 16.909881 0.0105263
77 81.300742 16.902493 0.012987
71 78.803382 16.895082 0.0140845
80 76.564168 16.887649 0.0125
84 74.706026 16.880194 0.0119048
86 73.220555 16.872716 0.0116279
69 72.002085 16.865216 0.0144928
69 70.883846 16.857694 0.0144928
61 69.70703 16.85015 0.0163934
82 68.350171 16.842584 0.0121951
70 66.759905 16.834995 0.0142857
73 64.965996 16.827385 0.0136986
65 63.072798 16.819753 0.0153846
67 61.226035 16.8121 0.0149254
85 59.562222 16.804425 0.0117647
72 58.16909 16.796728 0.0138889
68 57.067998 16.78901 0.0147059
67 56.221833 16.781271 0.0149254
64 55.559095 16.77351 0.015625
50 55.004966 16.765729 0.02
63 54.504138 16.757926 0.015873
45 54.024266 16.750102 0.0222222
56 53.546192 16.742258 0.0178571
47 53.054249 16.734393 0.0212766
59 52.538882 16.726507 0.0169492
65 52.006794 16.718601 0.0153846
54 51.489415 16.710674 0.0185185
63 51.036862 16.702727 0.015873
66 50.702891 16.69476 0.0151515
60 50.527326 16.686772 0.0166667
69 50.528582 16.678765 0.0144928
49 50.707294 16.670737 0.0204082
61 51.05 16.66269 0.0163934
71 51.528828 16.654623 0.0140845
57 52.094023 16.646536 0.0175439
56 52.675771 16.63843 0.0178571
67 53.200356 16.630305 0.0149254
46 53.615936 16.62216 0.0217391
58 53.911884 16.613996 0.0172414
51 54.117905 16.605813 0.0196078
61 54.278376 16.597611 0.0163934
63 54.42736 16.58939 0.015873
65 54.583089 16.581151 0.0153846
64 54.757731 16.572892 0.015625
62 54.963036 16.564616 0.016129
49 55.201235 16.55632 0.0204082
61 55.43874 16.548007 0.0163934
75 55.598815 16.539675 0.0133333
64 55.581301 16.531325 0.015625
59 55.299904 16.522958 0.0169492
59 54.715534 16.514572 0.0169492
44 53.839023 16.506169 0.0227273
47 52.714471 16.497748 0.0212766
50 51.402276 16.48931 0.02
53 49.970124 16.480854 0.0188679
42 48.49127 16.472381 0.0238095
49 47.034173 16.463891 0.0204082
37 45.646096 16.455384 0.027027
48 44.338149 16.44686 0.0208333
52 43.086575 16.438319 0.0192308
56 41.84845 16.429762 0.0178571
42 40.57792 16.421188 0.0238095
36 39.256926 16.412598 0.0277778
38 37.8893 16.403992 0.0263158
29 36.496171 16.395369 0.0344828
30 35.107494 16.38673 0.0333333
39 33.756965 16.378076 0.025641
34 32.47664 16.369406 0.0294118
26 31.290943 16.36072 0.0384615
37 30.213158 16.352018 0.027027
38 29.244709 16.343301 0.0263158
30 28.377981 16.334569 0.0333333
31 27.600729 16.325822 0.0322581
42 26.901006 16.31706 0.0238095
20 26.269866 16.308283 0.05
30 25.701709 16.299492 0.0333333
39 25.193452 16.290685 0.025641
29 24.740867 16.281865 0.0344828
22 24.340988 16.27303 0.0454545
35 23.989801 16.264181 0.0285714
30 23.683021 16.255317 0.0333333
21 23.41662 16.24644 0.047619
36 23.18655 16.237549 0.0277778
33 22.989663 16.228645 0.030303
31 22.822503 16.219727 0.0322581
26 22.684305 16.210795 0.0384615
19 22.57261 16.201851 0.0526316
28 22.486398 16.192893 0.0357143
23 22.425049 16.183923 0.0434783
16 22.388349 16.174939 0.0625
22 22.376469 16.165943 0.0454545
27 22.389906 16.156935 0.037037
24 22.429296 16.147914 0.0416667
27 22.495111 16.13888 0.037037
26 22.587932 16.129835 0.0384615
24 22.707256 16.120778 0.0416667
27 22.851901 16.111709 0.037037
27 23.020216 16.102628 0.037037
34 23.210951 16.093536 0.0294118
14 23.425411 16.084433 0.0714286
38 23.668904 16.075318 0.0263158
26 23.951386 16.066192 0.0384615
24 24.286199 16.057055 0.0416667
25 24.688309 16.047908 0.04
25 25.172333 16.03875 0.04
24 25.751072 16.029581 0.0416667
33 26.43402 16.020402 0.030303
30 27.224488 16.011213 0.0333333
27 28.117147 16.002014 0.037037
34 29.091833 15.992805 0.0294118
30 30.107514 15.983586 0.0333333
36 31.098395 15.974358 0.0277778
25 31.974313 15.96512 0.04
30 32.638452 15.955873 0.0333333
23 33.013546 15.946617 0.0434783
27 33.072535 15.937352 0.037037
37 32.852789 15.928078 0.027027
29 32.442727 15.918796 0.0344828
27 31.950309 15.909505 0.037037
29 31.474047 15.900205 0.0344828
41 31.083508 15.890898 0.0243902
22 30.815768 15.881582 0.0454545
26 30.676736 15.872259 0.0384615
32 30.645507 15.862928 0.03125
29 30.680304 15.853589 0.0344828
36 30.729051 15.844243 0.0277778
36 30.744714 15.834889 0.0277778
29 30.702543 15.825529 0.0344828
27 30.608802 15.816162 0.037037
25 30.495033 15.806788 0.04
30 30.401399 15.797407 0.0333333
27 30.357867 15.78802 0.037037
38 30.371009 15.778626 0.0263158
34 30.420147 15.769227 0.0294118
20 30.460471 15.759821 0.05
21 30.435727 15.75041 0.047619
22 30.294854 15.740993 0.0454545
21 30.009688 15.731571 0.047619
28 29.585641 15.722143 0.0357143
24 29.059859 15.71271 0.0416667
25 28.487146 15.703272 0.04
30 27.922958 15.693829 0.0333333
28 27.409883 15.684382 0.0357143
23 26.971942 15.67493 0.0434783
31 26.612681 15.665474 0.0322581
31 26.318124 15.656014 0.0322581
23 26.060953 15.64655 0.0434783
22 25.806462 15.637082 0.0454545
15 25.521238 15.62761 0.0666667
17 25.182039 15.618135 0.0588235
22 24.782407 15.608656 0.0454545
27 24.3328 15.599174 0.037037
28 23.855554 15.58969 0.0357143
30 23.375718 15.580202 0.0333333
22 22.914964 15.570712 0.0454545
18 22.487913 15.561219 0.0555556
20 22.102256 15.551724 0.05
30 21.760367 15.542227 0.0333333
26 21.461177 15.532728 0.0384615
15 21.201781 15.523227 0.0666667
24 20.978509 15.513724 0.0416667
28 20.787405 15.50422 0.0357143
24 20.624744 15.494715 0.0416667
20 20.487051 15.485209 0.05
17 20.371409 15.475701 0.0588235
26 20.275145 15.466193 0.0384615
17 20.196174 15.456684 0.0588235
16 20.132719 15.447175 0.0625
18 20.083398 15.437666 0.0555556
19 20.047216 15.428156 0.0526316
23 20.023468 15.418647 0.0434783
17 20.011892 15.409137 0.0588235
20 20.012126 15.399629 0.05
23 20.024487 15.39012 0.0434783
25 20.049796 15.380613 0.04
11 20.087996 15.371106 0.0909091
21 20.140559 15.361601 0.047619
27 20.207993 15.352097 0.037037
30 20.292334 15.342594 0.0333333
24 20.394603 15.333093 0.0416667
27 20.51597 15.323594 0.037037
19 20.657081 15.314097 0.0526316
21 20.817543 15.304602 0.047619
21 20.99507 15.295109 0.047619
18 21.184411 15.285619 0.0555556
24 21.376388 15.276131 0.0416667
28 21.557591 15.266646 0.0357143
28 21.712349 15.257165 0.0357143
26 21.82611 15.247686 0.0384615
19 21.890591 15.238211 0.0526316
20 21.907742 15.22874 0.05
25 21.888728 15.219272 0.04
24 21.849854 15.209808 0.0416667
24 21.808044 15.200349 0.0416667
19 21.776289 15.190893 0.0526316
14 21.762775 15.181442 0.0714286
31 21.77046 15.171996 0.0322581
26 21.797688 15.162554 0.0384615
26 21.838898 15.153117 0.0384615
24 21.885784 15.143686 0.0416667
19 21.929372 15.13426 0.0526316
23 21.962674 15.124839 0.0434783
23 21.983202 15.115424 0.0434783
23 21.993685 15.106015 0.0434783
22 22.000734 15.096612 0.0454545
20 22.012657 15.087215 0.05
27 22.035965 15.077825 0.037037
22 22.076389 15.068441 0.0454545
17 22.137605 15.059064 0.0588235
22 22.221884 15.049693 0.0454545
19 22.329973 15.04033 0.0526316
16 22.464102 15.030974 0.0625
20 22.624353 15.021626 0.05
17 22.811266 15.012285 0.0588235
18 23.025079 15.002952 0.0555556
17 23.265382 14.993627 0.0588235
22 23.530598 14.98431 0.0454545
21 23.817148 14.975001 0.047619
20 24.118747 14.965701 0.05
15 24.425945 14.95641 0.0666667
22 24.728175 14.947128 0.0454545
28 25.014166 14.937854 0.0357143
28 25.27775 14.92859 0.0357143
25 25.518726 14.919335 0.04
18 25.745076 14.91009 0.0555556
21 25.969651 14.900855 0.047619
21 26.206578 14.891629 0.047619
26 26.467829 14.882414 0.0384615
34 26.762927 14.873208 0.0294118
36 27.09693 14.864014 0.0277778
32 27.471498 14.85483 0.03125
27 27.885717 14.845656 0.037037
21 28.336882 14.836494 0.047619
22 28.821187 14.827343 0.0454545
27 29.336296 14.818203 0.037037
14 29.883066 14.809075 0.0714286
15 30.466569 14.799958 0.0666667
25 31.096463 14.790854 0.04
40 31.784498 14.781761 0.025
27 32.543359 14.772681 0.037037
35 33.386167 14.763613 0.0285714
23 34.325671 14.754557 0.0434783
29 35.375091 14.745515 0.0344828
19 36.549575 14.736485 0.0526316
28 37.86628 14.727468 0.0357143
35 39.345559 14.718465 0.0285714
31 41.011795 14.709475 0.0322581
26 42.894218 14.700499 0.0384615
45 45.027976 14.691536 0.0222222
27 47.45532 14.682587 0.037037
43 50.226425 14.673653 0.0232558
34 53.400386 14.664733 0.0294118
50 57.046183 14.655827 0.02
66 61.244526 14.646936 0.0151515
58 66.082983 14.63806 0.0172414
52 71.662128 14.629199 0.0192308
95 78.088138 14.620353 0.0105263
99 85.467862 14.611523 0.010101
134 93.896638 14.602708 0.0074627
130 103.437632 14.593908 0.0076923
134 114.087206 14.585125 0.0074627
161 125.726926 14.576358 0.0062112
181 138.062841 14.567606 0.0055249
164 150.575005 14.558872 0.0060976
187 162.517119 14.550153 0.0053476
195 173.01933 14.541452 0.0051282
182 181.30026 14.532767 0.0054945
176 186.943034 14.5241 0.0056818
206 190.039702 14.51545 0.0048544
193 191.118953 14.506817 0.0051813
207 190.885096 14.498201 0.0048309
225 189.926472 14.489604 0.0044444
192 188.568137 14.481024 0.0052083
217 186.878559 14.472463 0.0046083
213 184.802708 14.463919 0.0046948
196 182.284928 14.455395 0.005102
192 179.291702 14.446888 0.0052083
182 175.77933 14.438401 0.0054945
206 171.670904 14.429932 0.0048544
185 166.891705 14.421483 0.0054054
180 161.473068 14.413052 0.0055556
177 155.599742 14.404642 0.0056497
145 149.562247 14.39625 0.0068966
155 143.639079 14.387879 0.0064516
138 137.983331 14.379527 0.0072464
144 132.596723 14.371196 0.0069444
136 127.363095 14.362885 0.0073529
138 122.138149 14.354594 0.0072464
119 116.820366 14.346324 0.0084034
94 111.38304 14.338074 0.0106383
114 105.874019 14.329846 0.0087719
105 100.403866 14.321638 0.0095238
91 95.125172 14.313452 0.010989
94 90.20529 14.305287 0.0106383
98 85.794882 14.297143 0.0102041
78 82.003801 14.289022 0.0128205
92 78.893949 14.280922 0.0108696
87 76.484459 14.272844 0.0114943
80 74.755705 14.264789 0.0125
69 73.658347 14.256756 0.0144928
67 73.124877 14.248745 0.0149254
69 73.077119 14.240757 0.0144928
82 73.44489 14.232792 0.0121951
78 74.187557 14.224849 0.0128205
82 75.306542 14.21693 0.0121951
95 76.842928 14.209035 0.0105263
97 78.855316 14.201162 0.0103093
92 81.378975 14.193314 0.0108696
65 84.396641 14.185489 0.0153846
88 87.799227 14.177688 0.0113636
82 91.361219 14.169911 0.0121951
101 94.738326 14.162158 0.009901
94 97.506661 14.15443 0.0106383
90 99.258143 14.146726 0.0111111
90 99.730142 14.139047 0.0111111
100 98.90839 14.131392 0.01
85 97.035968 14.123763 0.0117647
101 94.52417 14.116159 0.009901
104 91.820925 14.10858 0.0096154
77 89.308107 14.101027 0.012987
86 87.242619 14.093499 0.0116279
82 85.748251 14.085997 0.0121951
80 84.827223 14.07852 0.0125
73 84.374227 14.07107 0.0136986
87 84.199361 14.063646 0.0114943
86 84.067309 14.056248 0.0116279
79 83.757466 14.048877 0.0126582
75 83.136548 14.041533 0.0133333
79 82.205865 14.034215 0.0126582
72 81.099454 14.026924 0.0138889
85 80.034351 14.01966 0.0117647
93 79.250575 14.012423 0.0107527
69 78.962915 14.005214 0.0144928
62 79.339134 13.998032 0.016129
80 80.508881 13.990878 0.0125
65 82.5704 13.983751 0.0153846
101 85.601441 13.976653 0.009901
80 89.663522 13.969582 0.0125
108 94.798342 13.96254 0.0092593
113 101.012252 13.955526 0.0088496
126 108.249534 13.94854 0.0079365
132 116.349965 13.941583 0.0075758
146 124.995622 13.934655 0.0068493
145 133.6678 13.927756 0.0068966
151 141.643541 13.920885 0.0066225
145 148.068675 13.914044 0.0068966
137 152.167383 13.907232 0.0072993
150 153.48002 13.900449 0.0066667
132 152.045774 13.893696 0.0075758
145 148.397964 13.886973 0.0068966
161 143.374594 13.880279 0.0062112
143 137.861514 13.873616 0.006993
146 132.595466 13.866982 0.0068493
137 128.067381 13.860379 0.0072993
139 124.499482 13.853806 0.0071942
131 121.873497 13.847263 0.0076336
108 119.955063 13.840751 0.0092593
109 118.338395 13.83427 0.0091743
114 116.531537 13.827819 0.0087719
112 114.063582 13.8214 0.0089286
110 110.628028 13.815011 0.0090909
111 106.168106 13.808654 0.009009
110 100.86475 13.802328 0.0090909
93 95.038161 13.796034 0.0107527
109 89.024795 13.789771 0.0091743
73 83.09485 13.78354 0.0136986
90 77.426779 13.77734 0.0111111
76 72.129517 13.771173 0.0131579
81 67.259813 13.765037 0.0123457
64 62.846203 13.758934 0.015625
52 58.898891 13.752863 0.0192308
55 55.409896 13.746825 0.0181818
65 52.357905 13.740819 0.0153846
40 49.71118 13.734845 0.025
52 47.430468 13.728905 0.0192308
55 45.469919 13.722997 0.0181818
55 43.779342 13.717122 0.0181818
35 42.305796 13.71128 0.0285714
32 40.999473 13.705472 0.03125
30 39.821063 13.699697 0.0333333
36 38.745844 13.693955 0.0277778
36 37.766375 13.688247 0.0277778
40 36.888995 13.682572 0.025
43 36.126862 13.676931 0.0232558
28 35.494366 13.671324 0.0357143
42 35.003733 13.665751 0.0238095
27 34.665129 13.660212 0.037037
37 34.486796 13.654707 0.027027
31 34.47643 13.649237 0.0322581
38 34.642173 13.643801 0.0263158
32 34.991972 13.638399 0.03125
42 35.534637 13.633032 0.0238095
33 36.276866 13.6277 0.030303
26 37.22106 13.622402 0.0384615
48 38.360222 13.617139 0.0208333
48 39.671592 13.611911 0.0208333
45 41.108195 13.606719 0.0222222
46 42.59439 13.601561 0.0217391
48 44.022597 13.596439 0.0208333
33 45.2728 13.591352 0.030303
44 46.238035 13.586301 0.0227273
40 46.857014 13.581285 0.025
44 47.137604 13.576304 0.0227273
49 47.146292 13.57136 0.0204082
64 46.975275 13.566451 0.015625
49 46.704198 13.561578 0.0204082
49 46.376534 13.556741 0.0204082
47 45.998663 13.551941 0.0212766
44 45.556168 13.547176 0.0227273
59 45.032551 13.542448 0.0169492
45 44.421431 13.537756 0.0222222
58 43.720085 13.5331 0.0172414
41 42.924141 13.528481 0.0243902
50 42.026408 13.523899 0.02
53 41.026039 13.519353 0.0188679
51 39.939291 13.514844 0.0196078
37 38.799053 13.510371 0.027027
49 37.644671 13.505936 0.0204082
24 36.506716 13.501538 0.0416667
47 35.398301 13.497177 0.0212766
41 34.313406 13.492852 0.0243902
30 33.241862 13.488566 0.0333333
36 32.176466 13.484316 0.0277778
33 31.123225 13.480104 0.030303
37 30.099229 13.475929 0.027027
25 29.127544 13.471792 0.04
26 28.229122 13.467692 0.0384615
31 27.418271 13.46363 0.0322581
20 26.702903 13.459605 0.05
33 26.08284 13.455619 0.030303
15 25.555919 13.45167 0.0666667
22 25.117334 13.447759 0.0454545
23 24.762173 13.443886 0.0434783
29 24.485887 13.440051 0.0344828
18 24.284473 13.436255 0.0555556
25 24.154834 13.432496 0.04
25 24.094127 13.428776 0.04
25 24.099543 13.425094 0.04
30 24.166389 13.42145 0.0333333
27 24.288687 13.417845 0.037037
28 24.456719 13.414278 0.0357143
27 24.655806 13.41075 0.037037
27 24.866164 13.40726 0.037037
18 25.064178 13.403809 0.0555556
25 25.226756 13.400396 0.04
20 25.337172 13.397023 0.05
25 25.391953 13.393688 0.04
23 25.401376 13.390392 0.0434783
31 25.388029 13.387135 0.0322581
25 25.379227 13.383916 0.04
20 25.400792 13.380737 0.05
26 25.473384 13.377597 0.0384615
26 25.611001 13.374496 0.0384615
25 25.821067 13.371433 0.04
21 26.105418 13.36841 0.047619
31 26.46101 13.365427 0.0322581
20 26.881363 13.362482 0.05
32 27.358538 13.359577 0.03125
27 27.886374 13.356711 0.037037
26 28.46296 13.353885 0.0384615
26 29.094308 13.351097 0.0384615
30 29.791813 13.34835 0.0333333
23 30.571879 13.345641 0.0434783
30 31.457453 13.342973 0.0333333
31 32.476294 13.340343 0.0322581
37 33.661117 13.337754 0.027027
20 35.046928 13.335204 0.05
35 36.667331 13.332693 0.0285714
36 38.54918 13.330222 0.0277778
45 40.7056 13.327791 0.0222222
35 43.128035 13.3254 0.0285714
51 45.774144 13.323048 0.0196078
40 48.554475 13.320736 0.025
44 51.323036 13.318464 0.0227273
40 53.87528 13.316232 0.025
41 55.978938 13.314039 0.0243902
49 57.42407 13.311887 0.0204082
44 58.08965 13.309774 0.0227273
44 57.991224 13.307701 0.0227273
54 57.280031 13.305668 0.0185185
46 56.193361 13.303675 0.0217391
55 54.986483 13.301722 0.0181818
58 53.87867 13.299808 0.0172414
47 53.023342 13.297935 0.0212766
45 52.501345 13.296102 0.0222222
57 52.323313 13.294309 0.0175439
41 52.435182 13.292555 0.0243902
56 52.726679 13.290842 0.0178571
39 53.043085 13.289169 0.025641
45 53.214489 13.287535 0.0222222
61 53.094479 13.285942 0.0163934
52 52.599615 13.284389 0.0192308
48 51.727263 13.282876 0.0208333
62 50.544674 13.281403 0.016129
55 49.151175 13.279969 0.0181818
63 47.643942 13.278576 0.015873
53 46.091689 13.277223 0.0188679
51 44.53223 13.27591 0.0196078
51 42.9875 13.274637 0.0196078
45 41.475257 13.273404 0.0222222
49 40.017191 13.272211 0.0204082
39 38.637406 13.271058 0.025641
38 37.355956 13.269945 0.0263158
48 36.18193 13.268872 0.0208333
40 35.112997 13.26784 0.025
47 34.140999 13.266847 0.0212766
32 33.25386 13.265894 0.03125
38 32.44083 13.264981 0.0263158
42 31.690347 13.264107 0.0238095
38 30.988715 13.263274 0.0263158
33 30.320385 13.262481 0.030303
35 29.672011 13.261728 0.0285714
36 29.037484 13.261014 0.0277778
38 28.420438 13.260341 0.0263158
22 27.833342 13.259707 0.0454545
30 27.291359 13.259113 0.0333333
33 26.807747 13.258559 0.030303
33 26.387939 13.258044 0.030303
29 26.027588 13.25757 0.0344828
28 25.713248 13.257135 0.0357143
37 25.425904 13.256739 0.027027
21 25.147175 13.256384 0.047619
17 24.863336 13.256068 0.0588235
25 24.572303 13.255792 0.04
20 24.281166 13.255555 0.05
25 24.003046 13.255358 0.04
22 23.751808 13.2552 0.0454545
24 23.537264 13.255082 0.0416667
26 23.363769 13.255003 0.0384615
24 23.2304 13.254963 0.0416667
27 23.13174 13.254963 0.037037
27 23.059741 13.255003 0.037037
26 23.005009 13.255081 0.0384615
25 22.958404 13.255199 0.04
25 22.913169 13.255356 0.04
15 22.867268 13.255552 0.0666667
20 22.824398 13.255788 0.05
20 22.793722 13.256062 0.05
26 22.787348 13.256376 0.0384615
32 22.817007 13.256728 0.03125
30 22.889874 13.257119 0.0333333
27 23.007099 13.257549 0.037037
24 23.161755 13.258018 0.0416667
29 23.337995 13.258526 0.0344828
22 23.511617 13.259073 0.0454545
21 23.652681 13.259658 0.047619
20 23.730731 13.260282 0.05
23 23.72332 13.260944 0.0434783
22 23.623259 13.261645 0.0454545
26 23.441609 13.262385 0.0384615
23 23.204319 13.263162 0.0434783
25 22.943999 13.263978 0.04
23 22.692944 13.264833 0.0434783
23 22.469148 13.265725 0.0434783
24 22.300298 13.266656 0.0416667
25 22.18886 13.267624 0.04
16 22.134643 13.268631 0.0625
29 22.131282 13.269676 0.0344828
21 22.167095 13.270758 0.047619
21 22.227841 13.271879 0.047619
21 22.29974 13.273037 0.047619
18 22.374608 13.274232 0.0555556
31 22.449934 13.275466 0.0322581
28 22.539899 13.276737 0.0357143
25 22.656556 13.278045 0.04
28 22.816112 13.27939 0.0357143
24 23.033677 13.280773 0.0416667
30 23.311414 13.282193 0.0333333
23 23.649012 13.283651 0.0434783
36 24.033054 13.285145 0.0277778
22 24.438079 13.286676 0.0454545
29 24.825915 13.288244 0.0344828
28 25.152215 13.289849 0.0357143
34 25.37371 13.291491 0.0294118
13 25.461495 13.293169 0.0769231
34 25.410062 13.294884 0.0294118
26 25.239434 13.296635 0.0384615
25 24.988313 13.298423 0.04
29 24.690943 13.300247 0.0344828
29 24.410171 13.302107 0.0344828
35 24.165931 13.304003 0.0285714
30 23.977294 13.305936 0.0333333
32 23.851972 13.307904 0.03125
25 23.787392 13.309908 0.04
12 23.772938 13.311948 0.0833333
38 23.787292 13.314023 0.0263158
32 23.808959 13.316134 0.03125
45 23.816607 13.31828 0.0222222
28 23.794138 13.320462 0.0357143
21 23.74756 13.322679 0.047619
31 23.684546 13.32493 0.0322581
31 23.622988 13.327217 0.0322581
23 23.580952 13.329539 0.0434783
28 23.572477 13.331896 0.0357143
26 23.605125 13.334287 0.0384615
34 23.680357 13.336714 0.0294118
25 23.795087 13.339174 0.04
30 23.94285 13.341669 0.0333333
35 24.113716 13.344198 0.0285714
28 24.294064 13.346761 0.0357143
31 24.467232 13.349359 0.0322581
34 24.615823 13.35199 0.0294118
28 24.726952 13.354655 0.0357143
27 24.797201 13.357354 0.037037
32 24.834728 13.360086 0.03125
34 24.858358 13.362852 0.0294118
30 24.892839 13.365651 0.0333333
31 24.96451 13.368484 0.0322581
23 25.093345 13.371349 0.0434783
22 25.297288 13.374248 0.0454545
39 25.588521 13.377179 0.025641
27 25.974183 13.380144 0.037037
29 26.4573 13.38314 0.0344828
27 27.037796 13.38617 0.037037
32 27.71135 13.389231 0.03125
34 28.470224 13.392325 0.0294118
41 29.303222 13.395451 0.0243902
43 30.194127 13.398609 0.0232558
37 31.118456 13.401799 0.027027
40 32.037542 13.40502 0.025
31 32.894844 13.408273 0.0322581
56 33.618098 13.411558 0.0178571
40 34.131652 13.414874 0.025
26 34.377537 13.418221 0.0384615
35 34.336403 13.421599 0.0285714
35 34.03743 13.425008 0.0285714
41 33.550456 13.428448 0.0243902
39 32.965366 13.431918 0.025641
28 32.370669 13.435419 0.0357143
28 31.83722 13.43895 0.0357143
30 31.413082 13.442512 0.0333333
41 31.1225 13.446103 0.0243902
32 30.964222 13.449725 0.03125
38 30.921022 13.453376 0.0263158
29 30.958399 13.457057 0.0344828
30 31.031488 13.460767 0.0333333
35 31.095539 13.464507 0.0285714
39 31.116565 13.468276 0.025641
38 31.083962 13.472073 0.0263158
40 31.012953 13.4759 0.025
35 30.939906 13.479756 0.0285714
45 30.911939 13.48364 0.0222222
38 30.974576 13.487552 0.0263158
31 31.165042 13.491493 0.0322581
36 31.508254 13.495462 0.0277778
43 32.016732 13.499459 0.0232558
37 32.691781 13.503484 0.027027
52 33.525017 13.507536 0.0192308
40 34.501767 13.511616 0.025
34 35.600056 13.515723 0.0294118
52 36.793019 13.519857 0.0192308
42 38.039679 13.524019 0.0238095
45 39.281055 13.528207 0.0222222
42 40.431799 13.532422 0.0238095
48 41.384804 13.536663 0.0208333
64 42.029302 13.540931 0.015625
54 42.281386 13.545225 0.0185185
61 42.113399 13.549545 0.0163934
57 41.565798 13.553891 0.0175439
52 40.734261 13.558262 0.0192308
51 39.73978 13.562659 0.0196078
49 38.699464 13.567082 0.0204082
45 37.703853 13.571529 0.0222222
50 36.811105 13.576002 0.02
42 36.048702 13.580499 0.0238095
33 35.416425 13.585022 0.030303
41 34.888827 13.589568 0.0243902
42 34.418592 13.594139 0.0238095
55 33.942322 13.598734 0.0181818
51 33.392236 13.603353 0.0196078
39 32.713844 13.607996 0.025641
44 31.881263 13.612662 0.0227273
34 30.903765 13.617352 0.0294118
34 29.820656 13.622065 0.0294118
46 28.685078 13.626802 0.0217391
24 27.550627 13.631561 0.0416667
32 26.459544 13.636342 0.03125
24 25.440161 13.641147 0.0416667
25 24.507839 13.645973 0.04
26 23.667573 13.650822 0.0384615
30 22.918111 13.655693 0.0333333
24 22.254224 13.660585 0.0416667
25 21.668737 13.6655 0.04
26 21.151943 13.670435 0.0384615
19 20.699706 13.675392 0.0526316
23 20.302827 13.68037 0.0434783
20 19.954544 13.685368 0.05
24 19.648775 13.690388 0.0416667
28 19.380371 13.695428 0.0357143
22 19.145187 13.700488 0.0454545
23 18.938114 13.705568 0.0434783
15 18.756371 13.710668 0.0666667
23 18.597057 13.715788 0.0434783
24 18.456855 13.720927 0.0416667
18 18.335683 13.726085 0.0555556
12 18.230817 13.731263 0.0833333
28 18.141011 13.73646 0.0357143
23 18.065255 13.741675 0.0434783
20 18.002618 13.746909 0.05
19 17.952499 13.752161 0.0526316
20 17.914475 13.757431 0.05
11 17.888108 13.762719 0.0909091
31 17.873114 13.768025 0.0322581
14 17.869302 13.773349 0.0714286
20 17.875681 13.778689 0.05
15 17.892207 13.784047 0.0666667
14 17.917443 13.789422 0.0714286
23 17.949707 13.794813 0.0434783
35 17.986613 13.800221 0.0285714
27 18.026066 13.805646 0.037037
20 18.064956 13.811086 0.05
23 18.10198 13.816542 0.0434783
18 18.137106 13.822014 0.0555556
27 18.171985 13.827502 0.037037
18 18.209574 13.833004 0.0555556
12 18.253936 13.838522 0.0833333
21 18.30876 13.844055 0.047619
15 18.37751 13.849602 0.0666667
28 18.462767 13.855164 0.0357143
23 18.566892 13.860739 0.0434783
16 18.691395 13.866329 0.0625
21 18.837191 13.871933 0.047619
18 19.004498 13.87755 0.0555556
14 19.192654 13.883181 0.0714286
18 19.399733 13.888824 0.0555556
30 19.62245 13.894481 0.0333333
27 19.855798 13.900151 0.037037
37 20.092242 13.905832 0.027027
26 20.321571 13.911527 0.0384615
19 20.531207 13.917233 0.0526316
17 20.708068 13.922951 0.0588235
27 20.841548 13.928681 0.037037
27 20.927579 13.934422 0.037037
16 20.969243 13.940175 0.0625
21 20.976887 13.945938 0.047619
22 20.965212 13.951712 0.0454545
23 20.950532 13.957497 0.0434783
25 20.94623 13.963292 0.04
18 20.964128 13.969097 0.0555556
14 21.011807 13.974912 0.0714286
15 21.093185 13.980737 0.0666667
22 21.208575 13.986571 0.0454545
23 21.35528 13.992414 0.0434783
19 21.528146 13.998267 0.0526316
19 21.721029 14.004128 0.0526316
23 21.928747 14.009997 0.0434783
18 22.147787 14.015875 0.0555556
24 22.379049 14.021761 0.0416667
27 22.626214 14.027655 0.037037
27 22.894224 14.033557 0.037037
16 23.186727 14.039466 0.0625
25 23.503831 14.045382 0.04
22 23.840259 14.051305 0.0454545
31 24.18527 14.057235 0.0322581
23 24.523934 14.063172 0.0434783
28 24.841554 14.069115 0.0357143
31 25.128712 14.075063 0.0322581
24 25.384956 14.081018 0.0416667
15 25.621738 14.086978 0.0666667
28 25.859451 14.092944 0.0357143
32 26.122951 14.098915 0.03125
30 26.436598 14.10489 0.0333333
29 26.820398 14.110871 0.0344828
26 27.288869 14.116855 0.0384615
34 27.849471 14.122844 0.0294118
28 28.502304 14.128837 0.0357143
36 29.238968 14.134834 0.0277778
20 30.043738 14.140834 0.05
39 30.89429 14.146838 0.025641
33 31.763244 14.152845 0.030303
35 32.638503 14.158854 0.0285714
24 33.510974 14.164866 0.0416667
36 34.3932 14.17088 0.0277778
36 35.314233 14.176897 0.0277778
34 36.315101 14.182915 0.0294118
40 37.438158 14.188936 0.025
42 38.717505 14.194957 0.0238095
48 40.170215 14.20098 0.0208333
49 41.788313 14.207003 0.0204082
58 43.531947 14.213028 0.0172414
55 45.322027 14.219053 0.0181818
43 47.046915 14.225078 0.0232558
57 48.561733 14.231103 0.0175439
61 49.719145 14.237128 0.0163934
62 50.401295 14.243153 0.016129
48 50.553895 14.249176 0.0208333
54 50.203032 14.255199 0.0185185
50 49.446725 14.261221 0.02
41 48.426579 14.267241 0.0243902
42 47.293694 14.27326 0.0238095
50 46.181039 14.279277 0.02
50 45.18763 14.285291 0.02
56 44.373094 14.291304 0.0178571
44 43.75828 14.297314 0.0227273
42 43.328875 14.30332 0.0238095
50 43.039868 14.309324 0.02
53 42.821983 14.315325 0.0188679
41 42.59662 14.321322 0.0243902
43 42.289525 14.327315 0.0232558
47 41.850456 14.333305 0.0212766
36 41.265526 14.33929 0.0277778
28 40.558414 14.34527 0.0357143
48 39.780466 14.351246 0.0208333
39 38.995338 14.357217 0.025641
38 38.265116 14.363183 0.0263158
44 37.641868 14.369143 0.0227273
40 37.164911 14.375097 0.025
29 36.862276 14.381046 0.0344828
41 36.752453 14.386988 0.0243902
35 36.850241 14.392925 0.0285714
38 37.167464 14.398854 0.0263158
23 37.715966 14.404777 0.0434783
36 38.509119 14.410692 0.0277778
32 39.562524 14.4166 0.03125
32 40.894364 14.422501 0.03125
40 42.524975 14.428394 0.025
41 44.475965 14.434278 0.0243902
44 46.767991 14.440155 0.0227273
46 49.417076 14.446023 0.0217391
53 52.428737 14.451882 0.0188679
62 55.789812 14.457732 0.016129
58 59.451838 14.463572 0.0172414
62 63.321696 14.469404 0.016129
61 67.248066 14.475225 0.0163934
72 71.008829 14.481037 0.0138889
75 74.329956 14.486838 0.0133333
60 76.923627 14.492629 0.0166667
75 78.553445 14.49841 0.0133333
63 79.102482 14.504179 0.015873
61 78.614729 14.509937 0.0163934
80 77.284093 14.515684 0.0125
58 75.398846 14.52142 0.0172414
72 73.266407 14.527143 0.0138889
55 71.163858 14.532854 0.0181818
65 69.291817 14.538553 0.0153846
79 67.772421 14.54424 0.0126582
64 66.650522 14.549913 0.015625
60 65.900604 14.555574 0.0166667
61 65.434731 14.561221 0.0163934
66 65.113351 14.566855 0.0151515
68 64.764144 14.572475 0.0147059
61 64.212761 14.578081 0.0163934
62 63.32006 14.583672 0.016129
51 62.017312 14.58925 0.0196078
61 60.319114 14.594812 0.0163934
71 58.311578 14.60036 0.0140845
53 56.121883 14.605892 0.0188679
57 53.885655 14.611409 0.0175439
50 51.723152 14.616911 0.02
53 49.728111 14.622397 0.0188679
52 47.965522 14.627866 0.0192308
37 46.474742 14.633319 0.027027
40 45.275242 14.638756 0.025
36 44.371317 14.644176 0.0277778
33 43.756203 14.649578 0.030303
42 43.413164 14.654964 0.0238095
39 43.31599 14.660332 0.025641
43 43.429712 14.665682 0.0232558
44 43.707826 14.671015 0.0227273
40 44.094254 14.676329 0.025
45 44.528075 14.681625 0.0222222
38 44.951505 14.686902 0.0263158
39 45.322087 14.69216 0.025641
43 45.622865 14.697399 0.0232558
34 45.868139 14.702619 0.0294118
37 46.099553 14.707819 0.027027
49 46.374255 14.713 0.0204082
43 46.754746 14.71816 0.0232558
53 47.29848 14.7233 0.0188679
50 48.053562 14.72842 0.02
56 49.05002 14.733519 0.0178571
37 50.298276 14.738597 0.027027
69 51.78381 14.743654 0.0144928
55 53.455245 14.74869 0.0181818
49 55.220628 14.753704 0.0204082
67 56.946536 14.758696 0.0149254
65 58.466235 14.763666 0.0153846
59 59.604467 14.768614 0.0169492
46 60.21328 14.773539 0.0217391
58 60.209067 14.778442 0.0172414
67 59.597257 14.783321 0.0149254
58 58.468923 14.788178 0.0172414
47 56.974091 14.793011 0.0212766
55 55.281763 14.79782 0.0181818
59 53.550806 14.802606 0.0169492
55 51.905779 14.807368 0.0181818
54 50.432208 14.812105 0.0185185
51 49.176352 14.816818 0.0196078
42 48.146115 14.821506 0.0238095
50 47.316106 14.826169 0.02
49 46.630948 14.830807 0.0204082
49 46.011059 14.83542 0.0204082
48 45.368972 14.840007 0.0208333
48 44.626987 14.844569 0.0208333
39 43.732175 14.849104 0.025641
37 42.673909 14.853613 0.027027
35 41.479475 14.858096 0.0285714
37 40.200553 14.862552 0.027027
38 38.896342 14.866981 0.0263158
36 37.618782 14.871383 0.0277778
49 36.404783 14.875758 0.0204082
43 35.27278 14.880106 0.0232558
40 34.225553 14.884425 0.025
41 33.254721 14.888717 0.0243902
38 32.345314 14.892981 0.0263158
25 31.484092 14.897216 0.04
30 30.66313 14.901423 0.0333333
28 29.882204 14.905601 0.0357143
30 29.147718 14.90975 0.0333333
30 28.468784 14.91387 0.0333333
26 27.854237 14.91796 0.0384615
25 27.309317 14.922021 0.04
18 26.834867 14.926052 0.0555556
21 26.427077 14.930054 0.047619
36 26.078595 14.934025 0.0277778
24 25.777338 14.937965 0.0416667
24 25.510713 14.941875 0.0416667
22 25.264979 14.945755 0.0454545
20 25.027639 14.949603 0.05
17 24.788609 14.95342 0.0588235
27 24.541883 14.957206 0.037037
26 24.285581 14.96096 0.0384615
19 24.02165 14.964683 0.0526316
19 23.753995 14.968373 0.0526316
25 23.486922 14.972031 0.04
17 23.223568 14.975657 0.0588235
29 22.966689 14.979251 0.0344828
24 22.718506 14.982811 0.0416667
12 22.481374 14.986339 0.0833333
19 22.257883 14.989834 0.0526316
23 22.049644 14.993295 0.0434783
19 21.85886 14.996723 0.0526316
13 21.686969 15.000117 0.0769231
23 21.535024 15.003477 0.0434783
14 21.403933 15.006803 0.0714286
21 21.293781 15.010095 0.047619
18 21.203406 15.013352 0.0555556
21 21.130049 15.016575 0.047619
22 21.068905 15.019763 0.0454545
18 21.013878 15.022916 0.0555556
16 20.958235 15.026034 0.0625
15 20.896214 15.029116 0.0666667
19 20.824362 15.032163 0.0526316
18 20.74236 15.035174 0.0555556
24 20.652901 15.038149 0.0416667
23 20.560908 15.041089 0.0434783
25 20.470931 15.043992 0.04
25 20.386354 15.046858 0.04
24 20.311236 15.049688 0.0416667
24 20.244874 15.052481 0.0416667
15 20.18596 15.055237 0.0666667
19 20.131824 15.057957 0.0526316
30 20.080184 15.060638 0.0333333
23 20.029122 15.063283 0.0434783
20 19.977608 15.065889 0.05
26 19.925462 15.068458 0.0384615
26 19.874151 15.070989 0.0384615
21 19.822841 15.073482 0.047619
34 19.773838 15.075936 0.0294118
31 19.730646 15.078352 0.0322581
17 19.694702 15.08073 0.0588235
16 19.668866 15.083068 0.0625
20 19.655145 15.085368 0.05
17 19.654751 15.087629 0.0588235
19 19.668201 15.08985 0.0526316
19 19.695466 15.092032 0.0526316
29 19.736441 15.094174 0.0344828
22 19.790823 15.096276 0.0454545
27 19.859124 15.098339 0.037037
28 19.942034 15.100361 0.0357143
12 20.039948 15.102344 0.0833333
22 20.15327 15.104286 0.0454545
23 20.280006 15.106187 0.0434783
21 20.416076 15.108048 0.047619
25 20.554593 15.109868 0.04
16 20.685687 15.111647 0.0625
20 20.797802 15.113385 0.05
22 20.88023 15.115081 0.0454545
15 20.922825 15.116737 0.0666667
26 20.923091 15.11835 0.0384615
13 20.884246 15.119922 0.0769231
33 20.814894 15.121453 0.030303
24 20.726983 15.122941 0.0416667
14 20.632838 15.124387 0.0714286
19 20.543098 15.125791 0.0526316
24 20.465478 15.127152 0.0416667
17 20.404629 15.128471 0.0588235
14 20.362805 15.129747 0.0714286
15 20.3376 15.130981 0.0666667
22 20.326123 15.132171 0.0454545
26 20.322857 15.133319 0.0384615
26 20.321004 15.134423 0.0384615
15 20.313581 15.135484 0.0666667
20 20.294877 15.136502 0.05
17 20.261779 15.137476 0.0588235
21 20.215407 15.138406 0.047619
23 20.156998 15.139293 0.0434783
15 20.092572 15.140135 0.0666667
20 20.02775 15.140934 0.05
10 19.966725 15.141688 0.1
28 19.914514 15.142398 0.0357143
25 19.87309 15.143064 0.04
19 19.8439 15.143685 0.0526316
23 19.827572 15.144261 0.0434783
20 19.824207 15.144793 0.05
23 19.833609 15.145279 0.0434783
20 19.855448 15.145721 0.05
16 19.889397 15.146118 0.0625
22 19.935186 15.146469 0.0454545
17 19.993051 15.146775 0.0588235
20 20.061862 15.147036 0.05
17 20.142744 15.147251 0.0588235
13 20.235586 15.14742 0.0769231
24 20.340722 15.147544 0.0416667
19 20.458791 15.147621 0.0526316
10 20.590104 15.147653 0.1
21 20.73609 15.147639 0.047619
20 20.896748 15.147579 0.05
13 21.073682 15.147472 0.0769231
19 21.268224 15.147319 0.0526316
14 21.481947 15.14712 0.0714286
10 21.716527 15.146874 0.1
24 21.973859 15.146581 0.0416667
13 22.25596 15.146242 0.0769231
16 22.56508 15.145856 0.0625
18 22.903495 15.145423 0.0555556
15 23.273486 15.144943 0.0666667
23 23.677389 15.144416 0.0434783
19 24.1177 15.143841 0.0526316
25 24.597285 15.14322 0.04
30 25.119953 15.142551 0.0333333
21 25.690862 15.141835 0.047619
26 26.316979 15.141071 0.0384615
27 27.007263 15.14026 0.037037
24 27.771485 15.139401 0.0416667
27 28.620703 15.138494 0.037037
29 29.565636 15.13754 0.0344828
25 30.616161 15.136538 0.04
36 31.780765 15.135488 0.0277778
28 33.066598 15.134389 0.0357143
42 34.479851 15.133243 0.0238095
35 36.026335 15.132049 0.0285714
32 37.712053 15.130806 0.03125
42 39.541995 15.129515 0.0238095
47 41.517069 15.128176 0.0212766
65 43.628622 15.126788 0.0153846
49 45.851363 15.125352 0.0204082
52 48.136026 15.123868 0.0192308
66 50.409541 15.122335 0.0151515
81 52.577523 15.120753 0.0123457
64 54.537489 15.119123 0.015625
78 56.19876 15.117443 0.0128205
68 57.501096 15.115716 0.0147059
58 58.423868 15.113939 0.0172414
62 58.981193 15.112113 0.016129
58 59.206622 15.110239 0.0172414
79 59.138965 15.108315 0.0126582
43 58.816802 15.106342 0.0232558
65 58.281412 15.104321 0.0153846
65 57.585415 15.10225 0.0153846
68 56.789323 15.10013 0.0147059
75 55.955508 15.097961 0.0133333
73 55.133652 15.095743 0.0136986
76 54.351374 15.093475 0.0131579
59 53.609085 15.091158 0.0169492
56 52.884415 15.088792 0.0178571
59 52.143167 15.086377 0.0169492
56 51.352426 15.083912 0.0178571
54 50.491201 15.081397 0.0185185
44 49.553475 15.078833 0.0227273
57 48.544276 15.07622 0.0175439
44 47.473555 15.073557 0.0227273
57 46.350722 15.070845 0.0175439
50 45.185808 15.068083 0.02
40 43.993974 15.065272 0.025
51 42.796652 15.062411 0.0196078
36 41.621963 15.0595 0.0277778
37 40.50044 15.05654 0.027027
35 39.460414 15.05353 0.0285714
31 38.524318 15.050471 0.0322581
44 37.708115 15.047362 0.0227273
44 37.02143 15.044203 0.0227273
30 36.468817 15.040994 0.0333333
30 36.05214 15.037736 0.0333333
31 35.770493 15.034428 0.0322581
31 35.622437 15.031071 0.0322581
36 35.606286 15.027664 0.0277778
41 35.720974 15.024207 0.0243902
32 35.965523 15.0207 0.03125
34 36.339543 15.017144 0.0294118
30 36.843116 15.013538 0.0333333
31 37.477454 15.009882 0.0322581
32 38.244498 15.006177 0.03125
30 39.149716 15.002422 0.0333333
39 40.202214 14.998617 0.025641
44 41.416153 14.994763 0.0227273
40 42.810192 14.990859 0.025
25 44.407212 14.986906 0.04
44 46.232531 14.982902 0.0227273
44 48.312328 14.97885 0.0227273
45 50.671983 14.974747 0.0222222
64 53.336018 14.970595 0.015625
50 56.32814 14.966394 0.02
56 59.673735 14.962143 0.0178571
66 63.39631 14.957843 0.0151515
76 67.524124 14.953493 0.0131579
79 72.081864 14.949094 0.0126582
92 77.082668 14.944645 0.0108696
84 82.513652 14.940147 0.0119048
122 88.316881 14.935599 0.0081967
134 94.368087 14.931003 0.0074627
114 100.458933 14.926357 0.0087719
138 106.289288 14.921662 0.0072464
120 111.484379 14.916917 0.0083333
109 115.64152 14.912124 0.0091743
126 118.409292 14.907281 0.0079365
101 119.572815 14.902389 0.009901
97 119.120885 14.897448 0.0103093
125 117.24953 14.892459 0.008
92 114.311623 14.88742 0.0108696
95 110.731894 14.882332 0.0105263
116 106.923834 14.877196 0.0086207
132 103.231736 14.872011 0.0075758
110 99.904008 14.866777 0.0090909
119 97.083511 14.861494 0.0084034
130 94.81815 14.856163 0.0076923
103 93.065709 14.850783 0.0097087
100 91.70274 14.845355 0.01
77 90.543434 14.839878 0.012987
83 89.353784 14.834353 0.0120482
92 87.893903 14.82878 0.0108696
99 85.963096 14.823158 0.010101
81 83.444191 14.817488 0.0123457
84 80.327782 14.811771 0.0119048
81 76.705659 14.806005 0.0123457
76 72.736425 14.800191 0.0131579
76 68.605078 14.794329 0.0131579
59 64.47996 14.788419 0.0169492
54 60.494318 14.782462 0.0185185
50 56.738548 14.776456 0.02
60 53.265481 14.770404 0.0166667
56 50.096774 14.764303 0.0178571
47 47.233474 14.758156 0.0212766
50 44.663367 14.751961 0.02
50 42.366833 14.745719 0.02
38 40.320762 14.739429 0.0263158
44 38.501095 14.733093 0.0227273
30 36.884346 14.726709 0.0333333
36 35.448056 14.720279 0.0277778
33 34.172709 14.713801 0.030303
35 33.039501 14.707277 0.0285714
25 32.031994 14.700707 0.04
36 31.135453 14.69409 0.0277778
30 30.337205 14.687426 0.0333333
35 29.625896 14.680716 0.0285714
29 28.991887 14.67396 0.0344828
31 28.427045 14.667158 0.0322581
25 27.924692 14.66031 0.04
33 27.479531 14.653416 0.030303
30 27.087373 14.646476 0.0333333
20 26.744891 14.63949 0.05
24 26.449818 14.632459 0.0416667
17 26.200194 14.625382 0.0588235
22 25.99469 14.61826 0.0454545
24 25.832393 14.611093 0.0416667
15 25.712215 14.603881 0.0666667
23 25.63545 14.596623 0.0434783
23 25.601629 14.589321 0.0434783
29 25.61114 14.581974 0.0344828
30 25.66464 14.574582 0.0333333
32 25.762525 14.567146 0.03125
20 25.90506 14.559665 0.05
24 26.091719 14.55214 0.0416667
38 26.320805 14.544571 0.0263158
26 26.588459 14.536958 0.0384615
31 26.888165 14.529301 0.0322581
26 27.209963 14.521601 0.0384615
21 27.540496 14.513856 0.047619
16 27.865542 14.506069 0.0625
24 28.170828 14.498237 0.0416667
21 28.446657 14.490363 0.047619
23 28.691457 14.482446 0.0434783
22 28.913063 14.474486 0.0454545
20 29.128037 14.466483 0.05
23 29.358676 14.458437 0.0434783
25 29.629497 14.450349 0.04
29 29.964076 14.442218 0.0344828
34 30.383411 14.434046 0.0294118
23 30.905129 14.425831 0.0434783
34 31.543631 14.417574 0.0294118
36 32.310082 14.409276 0.0277778
30 33.213118 14.400936 0.0333333
35 34.257367 14.392555 0.0285714
41 35.445606 14.384132 0.0243902
45 36.777784 14.375668 0.0222222
42 38.251666 14.367164 0.0238095
64 39.862884 14.358618 0.015625
40 41.603438 14.350032 0.025
57 43.457646 14.341406 0.0175439
55 45.395675 14.332739 0.0181818
61 47.365753 14.324032 0.0163934
55 49.288393 14.315285 0.0181818
51 51.055995 14.306498 0.0196078
46 52.543665 14.297672 0.0217391
51 53.627734 14.288806 0.0196078
65 54.216848 14.279902 0.0153846
58 54.275331 14.270957 0.0172414
57 53.835206 14.261974 0.0175439
66 52.98889 14.252953 0.0151515
63 51.865997 14.243892 0.015873
64 50.604887 14.234794 0.015625
71 49.329317 14.225657 0.0140845
61 48.134739 14.216482 0.0163934
55 47.084212 14.207269 0.0181818
49 46.208371 14.198019 0.0204082
62 45.510976 14.188731 0.016129
63 44.969856 14.179406 0.015873
52 44.542344 14.170044 0.0192308
47 44.165921 14.160645 0.0212766
60 43.767441 14.15121 0.0166667
54 43.274135 14.141737 0.0185185
51 42.628147 14.132229 0.0196078
40 41.799589 14.122684 0.025
58 40.792583 14.113104 0.0172414
43 39.641701 14.103488 0.0232558
50 38.400047 14.093836 0.02
45 37.126133 14.084149 0.0222222
46 35.870553 14.074427 0.0217391
40 34.669962 14.06467 0.025
35 33.545888 14.054878 0.0285714
44 32.505821 14.045052 0.0227273
46 31.547545 14.035192 0.0217391
36 30.663194 14.025297 0.0277778
34 29.84293 14.015369 0.0294118
33 29.07741 14.005407 0.030303
17 28.359263 13.995412 0.0588235
26 27.683215 13.985383 0.0384615
27 27.046267 13.975322 0.037037
33 26.44743 13.965227 0.030303
30 25.888072 13.9551 0.0333333
26 25.37051 13.944941 0.0384615
18 24.897887 13.93475 0.0555556
26 24.4727 13.924527 0.0384615
34 24.09615 13.914272 0.0294118
29 23.767523 13.903985 0.0344828
23 23.48413 13.893668 0.0434783
28 23.241508 13.883319 0.0357143
23 23.034193 13.87294 0.0434783
25 22.856307 13.86253 0.04
26 22.702601 13.85209 0.0384615
29 22.56911 13.84162 0.0344828
11 22.453623 13.831119 0.0909091
24 22.35546 13.82059 0.0416667
26 22.275613 13.810031 0.0384615
15 22.216379 13.799442 0.0666667
16 22.181231 13.788825 0.0625
24 22.174305 13.778179 0.0416667
18 22.199996 13.767505 0.0555556
30 22.262155 13.756803 0.0333333
27 22.363592 13.746072 0.037037
10 22.505586 13.735314 0.1
26 22.687642 13.724529 0.0384615
22 22.907477 13.713716 0.0454545
27 23.161133 13.702876 0.037037
19 23.44289 13.69201 0.0526316
32 23.744936 13.681117 0.03125
26 24.05685 13.670198 0.0384615
32 24.364403 13.659253 0.03125
28 24.648943 13.648282 0.0357143
22 24.887581 13.637286 0.0454545
25 25.056547 13.626265 0.04
32 25.13517 13.615218 0.03125
18 25.111509 13.604147 0.0555556
18 24.985899 13.593052 0.0555556
34 24.771576 13.581932 0.0294118
22 24.491427 13.570788 0.0454545
32 24.172646 13.559621 0.03125
30 23.841612 13.54843 0.0333333
27 23.519954 13.537216 0.037037
35 23.222999 13.525979 0.0285714
30 22.959591 13.51472 0.0333333
26 22.733005 13.503438 0.0384615
32 22.541587 13.492134 0.03125
27 22.379311 13.480809 0.037037
23 22.236422 13.469461 0.0434783
20 22.099907 13.458093 0.05
28 21.955331 13.446703 0.0357143
17 21.789057 13.435293 0.0588235
15 21.589972 13.423862 0.0666667
15 21.356503 13.412411 0.0666667
18 21.090378 13.40094 0.0555556
21 20.800212 13.38945 0.047619
24 20.496457 13.37794 0.0416667
16 20.194561 13.366411 0.0625
14 19.904003 13.354863 0.0714286
24 19.633101 13.343296 0.0416667
18 19.38712 13.331711 0.0555556
21 19.168794 13.320109 0.047619
18 18.978398 13.308488 0.0555556
19 18.814521 13.29685 0.0526316
21 18.673935 13.285195 0.047619
27 18.55444 13.273523 0.037037
27 18.45197 13.261835 0.037037
26 18.363571 13.25013 0.0384615
14 18.286608 13.238409 0.0714286
16 18.221937 13.226672 0.0625
12 18.169495 13.21492 0.0833333
18 18.130737 13.203153 0.0555556
17 18.107322 13.191371 0.0588235
19 18.10056 13.179574 0.0526316
18 18.110878 13.167763 0.0555556
19 18.137544 13.155938 0.0526316
14 18.178503 13.144099 0.0714286
22 18.230303 13.132247 0.0454545
14 18.288346 13.120382 0.0714286
17 18.346244 13.108504 0.0588235
16 18.400127 13.096613 0.0625
20 18.443863 13.08471 0.05
17 18.473504 13.072795 0.0588235
15 18.486977 13.060868 0.0666667
19 18.484516 13.04893 0.0526316
23 18.468584 13.036981 0.0434783
20 18.443341 13.025021 0.05
13 18.413789 13.013051 0.0769231
18 18.384866 13.00107 0.0555556
16 18.360864 12.98908 0.0625
23 18.345228 12.97708 0.0434783
22 18.340265 12.965071 0.0454545
16 18.348893 12.953052 0.0625
14 18.372205 12.941025 0.0714286
18 18.411234 12.92899 0.0555556
18 18.466554 12.916947 0.0555556
23 18.538474 12.904896 0.0434783
17 18.6273 12.892837 0.0588235
22 18.733703 12.880771 0.0454545
18 18.859121 12.868699 0.0555556
18 19.005904 12.856619 0.0555556
20 19.177401 12.844534 0.05
31 19.377715 12.832442 0.0322581
21 19.611394 12.820345 0.047619
24 19.882667 12.808243 0.0416667
23 20.194728 12.796136 0.0434783
16 20.551438 12.784024 0.0625
23 20.95324 12.771907 0.0434783
18 21.398987 12.759787 0.0555556
24 21.884374 12.747662 0.0416667
23 22.400236 12.735534 0.0434783
19 22.935305 12.723403 0.0526316
34 23.470787 12.71127 0.0294118
29 23.984366 12.699133 0.0344828
28 24.450999 12.686995 0.0357143
28 24.845576 12.674854 0.0357143
30 25.145881 12.662712 0.0333333
23 25.336262 12.650568 0.0434783
26 25.411385 12.638424 0.0384615
22 25.37584 12.626279 0.0454545
36 25.24506 12.614134 0.0277778
28 25.042014 12.601988 0.0357143
35 24.795482 12.589843 0.0285714
33 24.533626 12.577698 0.030303
43 24.281969 12.565555 0.0232558
29 24.06057 12.553412 0.0344828
32 23.882497 12.541271 0.03125
33 23.753431 12.529132 0.030303
29 23.671877 12.516995 0.0344828
28 23.630434 12.504861 0.0357143
42 23.616539 12.492729 0.0238095
25 23.614227 12.480601 0.04
30 23.60629 12.468476 0.0333333
24 23.575959 12.456355 0.0416667
29 23.509021 12.444237 0.0344828
25 23.39527 12.432125 0.04
37 23.23077 12.420017 0.027027
20 23.017177 12.407913 0.05
38 22.762515 12.395816 0.0263158
27 22.47983 12.383724 0.037037
23 22.185601 12.371638 0.0434783
26 21.897351 12.359558 0.0384615
21 21.631932 12.347485 0.047619
30 21.403598 12.335418 0.0333333
26 21.222968 12.323359 0.0384615
25 21.097876 12.311308 0.04
24 21.03242 12.299265 0.0416667
27 21.027822 12.287229 0.037037
22 21.082945 12.275202 0.0454545
26 21.193603 12.263185 0.0384615
29 21.35288 12.251176 0.0344828
29 21.550168 12.239177 0.0344828
24 21.771395 12.227187 0.0416667
23 21.998755 12.215208 0.0434783
32 22.211073 12.203239 0.03125
20 22.385625 12.191281 0.05
17 22.501067 12.179334 0.0588235
24 22.540583 12.167398 0.0416667
21 22.495599 12.155474 0.047619
36 22.367633 12.143563 0.0277778
27 22.168867 12.131663 0.037037
29 21.918187 12.119776 0.0344828
30 21.638015 12.107903 0.0333333
24 21.350631 12.096042 0.0416667
21 21.074806 12.084195 0.047619
17 20.824827 12.072362 0.0588235
25 20.609879 12.060544 0.04
21 20.435278 12.04874 0.047619
22 20.30135 12.036951 0.0454545
19 20.204637 12.025177 0.0526316
26 20.137664 12.013419 0.0384615
21 20.089526 12.001676 0.047619
23 20.047007 11.98995 0.0434783
32 19.995498 11.97824 0.03125
20 19.921201 11.966547 0.05
22 19.814585 11.954871 0.0454545
22 19.669936 11.943213 0.0454545
23 19.487258 11.931572 0.0434783
18 19.271119 11.91995 0.0555556
17 19.030528 11.908346 0.0588235
19 18.775563 11.89676 0.0526316
20 18.51705 11.885194 0.05
18 18.265275 11.873647 0.0555556
16 18.028905 11.86212 0.0625
14 17.814799 11.850612 0.0714286
27 17.627777 11.839125 0.037037
17 17.471367 11.827659 0.0588235
20 17.34724 11.816213 0.05
18 17.255922 11.804789 0.0555556
19 17.19697 11.793386 0.0526316
20 17.169014 11.782005 0.05
21 17.170217 11.770646 0.047619
12 17.197877 11.75931 0.0833333
19 17.248958 11.747996 0.0526316
15 17.320108 11.736705 0.0666667
18 17.407859 11.725438 0.0555556
25 17.508366 11.714195 0.04
23 17.617089 11.702976 0.0434783
26 17.728226 11.691781 0.0384615
23 17.834229 11.68061 0.0434783
24 17.925898 11.669465 0.0416667
23 17.99324 11.658345 0.0434783
21 18.027107 11.64725 0.047619
24 18.021407 11.636181 0.0416667
20 17.974694 11.625139 0.05
21 17.890661 11.614123 0.047619
20 17.777322 11.603134 0.05
19 17.645199 11.592171 0.0526316
29 17.505284 11.581237 0.0344828
20 17.367465 11.570329 0.05
28 17.239679 11.55945 0.0357143
22 17.127668 11.548599 0.0454545
13 17.034901 11.537777 0.0769231
18 16.962823 11.526984 0.0555556
32 16.911022 11.51622 0.03125
12 16.877013 11.505485 0.0833333
22 16.856652 11.49478 0.0454545
23 16.84449 11.484106 0.0434783
14 16.834516 11.473461 0.0714286
19 16.821294 11.462848 0.0526316
8 16.801054 11.452265 0.125
16 16.772554 11.441713 0.0625
18 16.737249 11.431194 0.0555556
26 16.69875 11.420706 0.0384615
23 16.661933 11.41025 0.0434783
25 16.631696 11.399826 0.04
19 16.612175 11.389436 0.0526316
14 16.606189 11.379078 0.0714286
23 16.61502 11.368754 0.0434783
14 16.638384 11.358463 0.0714286
11 16.674433 11.348207 0.0909091
14 16.720235 11.337984 0.0714286
22 16.772192 11.327796 0.0454545
22 16.826915 11.317642 0.0454545
13 16.882184 11.307524 0.0769231
18 16.937788 11.297441 0.0555556
23 16.995941 11.287394 0.0434783
29 17.061107 11.277382 0.0344828
11 17.139158 11.267407 0.0909091
19 17.236814 11.257468 0.0526316
15 17.360608 11.247566 0.0666667
19 17.516452 11.237701 0.0526316
20 17.709287 11.227873 0.05
27 17.943067 11.218083 0.037037
19 18.220442 11.20833 0.0526316
25 18.542667 11.198616 0.04
26 18.909216 11.18894 0.0384615
23 19.317267 11.179303 0.0434783
17 19.760956 11.169705 0.0588235
22 20.230805 11.160146 0.0454545
30 20.713188 11.150626 0.0333333
29 21.189494 11.141146 0.0344828
23 21.637444 11.131706 0.0434783
18 22.032078 11.122306 0.0555556
22 22.348765 11.112947 0.0454545
26 22.567415 11.103629 0.0384615
15 22.676848 11.094352 0.0666667
27 22.678002 11.085116 0.037037
26 22.584094 11.075922 0.0384615
25 22.419454 11.066769 0.04
25 22.212885 11.057659 0.04
30 21.994259 11.048591 0.0333333
24 21.790057 11.039566 0.0416667
17 21.621855 11.030583 0.0588235
26 21.504379 11.021644 0.0384615
27 21.446514 11.012748 0.037037
22 21.451431 11.003896 0.0454545
27 21.517152 10.995088 0.037037
24 21.636921 10.986323 0.0416667
15 21.79971 10.977604 0.0666667
23 21.990834 10.968928 0.0434783
20 22.193935 10.960298 0.05
25 22.391863 10.951713 0.04
26 22.569176 10.943173 0.0384615
26 22.713525 10.934679 0.0384615
18 22.8161 10.926231 0.0555556
29 22.870255 10.917828 0.0344828
34 22.871362 10.909472 0.0294118
23 22.816049 10.901163 0.0434783
21 22.703254 10.892901 0.047619
30 22.535651 10.884685 0.0333333
26 22.320909 10.876517 0.0384615
19 22.071436 10.868396 0.0526316
19 21.80289 10.860323 0.0526316
19 21.531789 10.852298 0.0526316
18 21.273558 10.844322 0.0555556
35 21.041032 10.836393 0.0285714
16 20.843454 10.828513 0.0625
30 20.687465 10.820683 0.0333333
25 20.575799 10.812901 0.04
25 20.508245 10.805168 0.04
22 20.481841 10.797486 0.0454545
18 20.491209 10.789852 0.0555556
17 20.529061 10.782269 0.0588235
24 20.58747 10.774736 0.0416667
23 20.658899 10.767254 0.0434783
19 20.737497 10.759822 0.0526316
22 20.820142 10.75244 0.0454545
19 20.906802 10.74511 0.0526316
21 20.999723 10.737831 0.047619
22 21.102117 10.730604 0.0454545
20 21.215867 10.723428 0.05
35 21.339661 10.716304 0.0285714
27 21.467293 10.709232 0.037037
30 21.587847 10.702213 0.0333333
31 21.686335 10.695246 0.0322581
14 21.745646 10.688331 0.0714286
21 21.749845 10.681469 0.047619
27 21.687668 10.674661 0.037037
24 21.555385 10.667905 0.0416667
22 21.358073 10.661203 0.0454545
23 21.108611 10.654555 0.0434783
17 20.82535 10.64796 0.0588235
23 20.52851 10.64142 0.0434783
22 20.237107 10.634933 0.0454545
18 19.967224 10.628501 0.0555556
20 19.730329 10.622124 0.05
16 19.533489 10.615801 0.0625
22 19.379402 10.609533 0.0454545
18 19.266827 10.60332 0.0555556
25 19.191051 10.597163 0.04
10 19.144333 10.591061 0.1
25 19.116807 10.585014 0.04
14 19.09733 10.579023 0.0714286
23 19.075407 10.573088 0.0434783
16 19.04271 10.56721 0.0625
20 18.994714 10.561387 0.05
20 18.931727 10.555621 0.05
19 18.858553 10.549911 0.0526316
22 18.783595 10.544259 0.0454545
15 18.7172 10.538663 0.0666667
21 18.670045 10.533124 0.047619
14 18.652068 10.527642 0.0714286
20 18.671502 10.522218 0.05
25 18.735 10.516851 0.04
19 18.847609 10.511542 0.0526316
20 19.012616 10.506291 0.05
20 19.231783 10.501097 0.05
18 19.505078 10.495962 0.0555556
20 19.830339 10.490885 0.05
25 20.202552 10.485867 0.04
22 20.61317 10.480906 0.0454545
25 21.049477 10.476005 0.04
19 21.494216 10.471162 0.0526316
22 21.926565 10.466379 0.0454545
21 22.32344 10.461654 0.047619
21 22.663283 10.456988 0.047619
20 22.929148 10.452382 0.05
22 23.111827 10.447835 0.0454545
12 23.21095 10.443348 0.0833333
23 23.233852 10.43892 0.0434783
13 23.192772 10.434553 0.0769231
22 23.101669 10.430245 0.0454545
25 22.97402 10.425997 0.04
20 22.8223 10.421809 0.05
15 22.65765 10.417682 0.0666667
22 22.490868 10.413615 0.0454545
26 22.331865 10.409608 0.0384615
25 22.189452 10.405662 0.04
15 22.069324 10.401776 0.0666667
20 21.973527 10.397952 0.05
18 21.899634 10.394188 0.0555556
20 21.841407 10.390485 0.05
21 21.790112 10.386844 0.047619
21 21.736622 10.383263 0.047619
23 21.673696 10.379744 0.0434783
29 21.597518 10.376286 0.0344828
18 21.50832 10.37289 0.0555556
20 21.409527 10.369555 0.05
17 21.306242 10.366281 0.0588235
16 21.204153 10.36307 0.0625
23 21.108254 10.35992 0.0434783
30 21.02273 10.356832 0.0333333
19 20.950497 10.353806 0.0526316
15 20.893481 10.350841 0.0666667
21 20.852006 10.347939 0.047619
20 20.824442 10.3451 0.05
21 20.806922 10.342322 0.047619
23 20.793711 10.339606 0.0434783
25 20.778151 10.336953 0.04
19 20.754377 10.334363 0.0526316
13 20.718855 10.331834 0.0769231
9 20.671902 10.329369 0.1111111
23 20.618035 10.326966 0.0434783
25 20.565393 10.324625 0.04
23 20.524545 10.322347 0.0434783
24 20.50662 10.320132 0.0416667
20 20.522076 10.31798 0.05
23 20.579704 10.31589 0.0434783
14 20.685963 10.313864 0.0714286
22 20.844877 10.3119 0.0454545
17 21.057832 10.309999 0.0588235
37 21.323651 10.308161 0.027027
26 21.638208 10.306387 0.0384615
26 21.995214 10.304675 0.0384615
25 22.386344 10.303026 0.04
21 22.802304 10.301441 0.047619
32 23.234435 10.299918 0.03125
24 23.675796 10.298459 0.0416667
32 24.12248 10.297063 0.03125
31 24.573603 10.29573 0.0322581
24 25.030016 10.29446 0.0416667
24 25.492074 10.293254 0.0416667
29 25.957181 10.29211 0.0344828
28 26.417798 10.29103 0.0357143
27 26.860467 10.290014 0.037037
30 27.267625 10.28906 0.0333333
29 27.620151 10.28817 0.0344828
29 27.901438 10.287343 0.0344828
31 28.101216 10.286579 0.0322581
35 28.21809 10.285879 0.0285714
27 28.25964 10.285242 0.037037
23 28.240761 10.284668 0.0434783
16 28.18117 10.284158 0.0625
38 28.102199 10.28371 0.0263158
29 28.025296 10.283326 0.0344828
26 27.970332 10.283005 0.0384615
30 27.954484 10.282748 0.0333333
31 27.991683 10.282553 0.0322581
33 28.090689 10.282422 0.030303
31 28.254929 10.282354 0.0322581
29 28.481499 10.282349 0.0344828
25 28.761699 10.282407 0.04
25 29.082065 10.282528 0.04
24 29.426506 10.282712 0.0416667
22 29.779102 10.282959 0.0454545
33 30.127194 10.283269 0.030303
29 30.463181 10.283642 0.0344828
28 30.785316 10.284078 0.0357143
34 31.096339 10.284576 0.0294118
23 31.401207 10.285138 0.0434783
36 31.704151 10.285762 0.0277778
28 32.006489 10.286449 0.0357143
24 32.305722 10.287198 0.0416667
47 32.594808 10.28801 0.0212766
31 32.863782 10.288885 0.0322581
31 33.101018 10.289822 0.0322581
36 33.295387 10.290821 0.0277778
25 33.438944 10.291883 0.04
37 33.529756 10.293007 0.027027
38 33.57294 10.294193 0.0263158
27 33.57997 10.295441 0.037037
31 33.565856 10.296752 0.0322581
27 33.544807 10.298124 0.037037
31 33.525997 10.299558 0.0322581
26 33.510408 10.301054 0.0384615
35 33.490415 10.302612 0.0285714
31 33.449528 10.304232 0.0322581
42 33.366858 10.305913 0.0238095
34 33.220936 10.307655 0.0294118
42 32.994738 10.309459 0.0238095
25 32.679244 10.311325 0.04
36 32.274871 10.313251 0.0277778
20 31.790093 10.315239 0.05
28 31.235845 10.317287 0.0357143
40 30.635569 10.319397 0.025
33 30.003238 10.321567 0.030303
29 29.35572 10.323798 0.0344828
27 28.709251 10.32609 0.037037
27 28.079347 10.328442 0.037037
35 27.478848 10.330855 0.0285714
27 26.917152 10.333327 0.037037
24 26.398728 10.33586 0.0416667
31 25.920821 10.338453 0.0322581
19 25.479885 10.341106 0.0526316
20 25.06378 10.343819 0.05
15 24.658238 10.346591 0.0666667
23 24.254942 10.349423 0.0434783
22 23.844194 10.352314 0.0454545
19 23.423206 10.355265 0.0526316
26 22.994923 10.358274 0.0384615
20 22.567103 10.361343 0.05
26 22.150103 10.36447 0.0384615
28 21.755002 10.367657 0.0357143
24 21.391857 10.370902 0.0416667
20 21.068674 10.374205 0.05
19 20.790319 10.377566 0.0526316
25 20.561748 10.380986 0.04
18 20.383843 10.384464 0.0555556
21 20.25711 10.387999 0.047619
20 20.181038 10.391592 0.05
18 20.154503 10.395243 0.0555556
23 20.176034 10.398951 0.0434783
16 20.243591 10.402716 0.0625
22 20.353931 10.406538 0.0454545
21 20.504459 10.410417 0.047619
19 20.690123 10.414353 0.0526316
29 20.905381 10.418345 0.0344828
14 21.143806 10.422394 0.0714286
20 21.398351 10.426499 0.05
26 21.661376 10.43066 0.0384615
23 21.925429 10.434876 0.0434783
22 22.183478 10.439148 0.0454545
23 22.429838 10.443476 0.0434783
16 22.660736 10.447859 0.0625
26 22.874915 10.452297 0.0384615
22 23.073087 10.45679 0.0454545
26 23.256515 10.461338 0.0384615
18 23.426356 10.46594 0.0555556
19 23.580418 10.470596 0.0526316
19 23.713268 10.475307 0.0526316
20 23.816333 10.480071 0.05
23 23.879521 10.484889 0.0434783
21 23.894185 10.489761 0.047619
31 23.855478 10.494686 0.0322581
18 23.764001 10.499664 0.0555556
27 23.626177 10.504695 0.037037
21 23.45244 10.509778 0.047619
15 23.255161 10.514914 0.0666667
22 23.046291 10.520103 0.0454545
22 22.836032 10.525343 0.0454545
19 22.632203 10.530635 0.0526316
21 22.440552 10.535978 0.047619
18 22.265212 10.541373 0.0555556
26 22.109621 10.546819 0.0384615
18 21.974313 10.552316 0.0555556
21 21.863663 10.557864 0.047619
24 21.775212 10.563462 0.0416667
18 21.706446 10.56911 0.0555556
29 21.65318 10.574808 0.0344828
19 21.610702 10.580556 0.0526316
20 21.574937 10.586353 0.05
20 21.544272 10.5922 0.05
18 21.520294 10.598095 0.0555556
17 21.507982 10.604039 0.0588235
17 21.515065 10.610032 0.0588235
23 21.550743 10.616073 0.0434783
27 21.624268 10.622162 0.037037
17 21.743011 10.628298 0.0588235
22 21.915125 10.634482 0.0454545
17 22.143736 10.640713 0.0588235
16 22.429997 10.646992 0.0625
16 22.771716 10.653317 0.0625
22 23.162939 10.659688 0.0454545
19 23.592344 10.666105 0.0526316
25 24.043895 10.672569 0.04
13 24.495791 10.679078 0.0769231
21 24.921507 10.685632 0.047619
27 25.291891 10.692231 0.037037
27 25.578975 10.698876 0.037037
22 25.760497 10.705564 0.0454545
29 25.824468 10.712297 0.0344828
22 25.771725 10.719074 0.0454545
23 25.615938 10.725895 0.0434783
20 25.380809 10.732759 0.05
26 25.095421 10.739666 0.0384615
22 24.790043 10.746616 0.0454545
20 24.491722 10.753608 0.05
16 24.222486 10.760643 0.0625
30 23.998351 10.767719 0.0333333
22 23.829212 10.774837 0.0454545
32 23.719435 10.781997 0.03125
27 23.668231 10.789198 0.037037
35 23.670205 10.796439 0.0285714
17 23.715811 10.803721 0.0588235
26 23.792145 10.811043 0.0384615
26 23.884177 10.818405 0.0384615
18 23.973257 10.825806 0.0555556
22 24.052918 10.833247 0.0454545
27 24.111124 10.840726 0.037037
24 24.145336 10.848244 0.0416667
25 24.159617 10.855801 0.04
28 24.162978 10.863395 0.0357143
28 24.167628 10.871027 0.0357143
33 24.185814 10.878697 0.030303
25 24.227385 10.886403 0.04
27 24.297859 10.894146 0.037037
35 24.397299 10.901926 0.0285714
24 24.519831 10.909741 0.0416667
22 24.65391 10.917593 0.0454545
30 24.782228 10.925479 0.0333333
32 24.889838 10.933401 0.03125
26 24.957602 10.941358 0.0384615
14 24.972126 10.949349 0.0714286
22 24.926852 10.957374 0.0454545
30 24.823719 10.965432 0.0333333
28 24.672616 10.973524 0.0357143
16 24.489355 10.98165 0.0625
28 24.292657 10.989807 0.0357143
23 24.101327 10.997998 0.0434783
14 23.931968 11.00622 0.0714286
18 23.797821 11.014474 0.0555556
26 23.708213 11.02276 0.0384615
26 23.669143 11.031076 0.0384615
32 23.682725 11.039423 0.03125
27 23.747926 11.0478 0.037037
26 23.860935 11.056208 0.0384615
23 24.015628 11.064645 0.0434783
20 24.203537 11.073111 0.05
17 24.415061 11.081606 0.0588235
28 24.640454 11.090129 0.0357143
24 24.871493 11.098681 0.0416667
20 25.102585 11.107261 0.05
16 25.332007 11.115868 0.0625
34 25.561755 11.124502 0.0294118
16 25.796796 11.133163 0.0625
25 26.044112 11.14185 0.04
23 26.310982 11.150564 0.0434783
22 26.60483 11.159303 0.0454545
20 26.932725 11.168067 0.05
32 27.301936 11.176856 0.03125
26 27.720289 11.18567 0.0384615
33 28.196362 11.194507 0.030303
41 28.739032 11.203369 0.0243902
31 29.356402 11.212254 0.0322581
34 30.055483 11.221162 0.0294118
33 30.840342 11.230093 0.030303
24 31.711149 11.239046 0.0416667
34 32.662975 11.248021 0.0294118
29 33.684904 11.257018 0.0344828
36 34.759757 11.266036 0.0277778
33 35.864593 11.275074 0.030303
31 36.972444 11.284133 0.0322581
34 38.055936 11.293212 0.0294118
48 39.091967 11.302311 0.0208333
45 40.065563 11.311428 0.0222222
42 40.974479 11.320565 0.0238095
31 41.829641 11.32972 0.0322581
46 42.653507 11.338894 0.0217391
50 43.476709 11.348085 0.02
46 44.333564 11.357293 0.0217391
45 45.258163 11.366518 0.0222222
41 46.280959 11.37576 0.0243902
49 47.425953 11.385018 0.0204082
53 48.708121 11.394292 0.0188679
47 50.130919 11.403581 0.0212766
55 51.683906 11.412885 0.0181818
53 53.336741 11.422203 0.0188679
82 55.042034 11.431536 0.0121951
71 56.729945 11.440882 0.0140845
69 58.312571 11.450242 0.0144928
63 59.691711 11.459615 0.015873
71 60.771535 11.469001 0.0140845
56 61.474547 11.478398 0.0178571
68 61.75717 11.487808 0.0147059
90 61.619 11.497228 0.0111111
55 61.103463 11.50666 0.0181818
72 60.288667 11.516103 0.0138889
56 59.273373 11.525555 0.0178571
58 58.162054 11.535018 0.0172414
68 57.049603 11.544489 0.0147059
54 56.016493 11.55397 0.0185185
68 55.123161 11.563459 0.0147059
57 54.410334 11.572956 0.0175439
57 53.901872 11.582462 0.0175439
63 53.604321 11.591974 0.015873
70 53.511074 11.601493 0.0142857
52 53.602666 11.611019 0.0192308
63 53.848947 11.620551 0.015873
63 54.211749 11.630089 0.015873
48 54.649083 11.639632 0.0208333
59 55.121134 11.64918 0.0169492
62 55.597304 11.658733 0.016129
53 56.059231 11.668289 0.0188679
47 56.504022 11.677849 0.0212766
64 56.943021 11.687413 0.015625
70 57.389811 11.696979 0.0142857
58 57.858162 11.706548 0.0172414
81 58.343814 11.716119 0.0123457
73 58.829488 11.725691 0.0136986
59 59.269218 11.735265 0.0169492
62 59.606052 11.744839 0.016129
44 59.767078 11.754414 0.0227273
64 59.686761 11.763988 0.015625
56 59.317202 11.773562 0.0178571
47 58.639056 11.783136 0.0212766
52 57.668416 11.792708 0.0192308
65 56.455009 11.802278 0.0153846
54 55.069096 11.811846 0.0185185
49 53.594952 11.821412 0.0204082
63 52.111036 11.830975 0.015873
70 50.689885 11.840534 0.0142857
60 49.3837 11.85009 0.0166667
57 48.231719 11.859642 0.0175439
50 47.256093 11.869188 0.02
53 46.459082 11.87873 0.0188679
46 45.835674 11.888267 0.0217391
45 45.361237 11.897798 0.0222222
50 45.005816 11.907322 0.02
52 44.724146 11.91684 0.0192308
48 44.470334 11.92635 0.0208333
46 44.192574 11.935854 0.0217391
39 43.848488 11.945349 0.025641
44 43.404987 11.954836 0.0227273
42 42.847774 11.964314 0.0238095
44 42.179475 11.973783 0.0227273
39 41.419919 11.983243 0.025641
44 40.598025 11.992692 0.0227273
46 39.746153 12.002131 0.0217391
51 38.893267 12.01156 0.0196078
34 38.061856 12.020977 0.0294118
46 37.265296 12.030383 0.0217391
44 36.509774 12.039776 0.0227273
32 35.795372 12.049157 0.03125
31 35.120693 12.058526 0.0322581
37 34.484091 12.067881 0.027027
31 33.887636 12.077222 0.0322581
46 33.336276 12.086549 0.0217391
28 32.838414 12.095862 0.0357143
38 32.405061 12.10516 0.0263158
36 32.045732 12.114443 0.0277778
40 31.771505 12.12371 0.025
27 31.589832 12.13296 0.037037
37 31.507765 12.142195 0.027027
31 31.53007 12.151412 0.0322581
34 31.659785 12.160612 0.0294118
35 31.899025 12.169794 0.0285714
39 32.246673 12.178959 0.025641
37 32.701737 12.188104 0.027027
47 33.258924 12.197231 0.0212766
39 33.912527 12.206338 0.025641
42 34.651651 12.215426 0.0238095
56 35.464454 12.224493 0.0178571
53 36.332869 12.23354 0.0188679
60 37.233955 12.242566 0.0166667
40 38.140835 12.25157 0.025
42 39.017086 12.260553 0.0238095
38 39.822927 12.269514 0.0263158
55 40.51157 12.278452 0.0181818
43 41.039719 12.287367 0.0232558
31 41.369125 12.296259 0.0322581
41 41.477761 12.305127 0.0243902
44 41.3626 12.313971 0.0227273
46 41.041658 12.32279 0.0217391
47 40.552686 12.331585 0.0212766
48 39.94288 12.340354 0.0208333
45 39.264585 12.349098 0.0222222
47 38.56916 12.357815 0.0212766
62 37.8958 12.366506 0.016129
58 37.275349 12.375171 0.0172414
60 36.726124 12.383808 0.0166667
42 36.256913 12.392417 0.0238095
51 35.86649 12.400998 0.0196078
62 35.54672 12.409551 0.016129
40 35.280532 12.418076 0.025
36 35.04809 12.426571 0.0277778
29 34.821723 12.435036 0.0344828
46 34.574008 12.443472 0.0217391
44 34.276913 12.451877 0.0227273
41 33.906104 12.460252 0.0243902
39 33.4477 12.468596 0.025641
42 32.896007 12.476908 0.0238095
38 32.258447 12.485188 0.0263158
36 31.550442 12.493437 0.0277778
42 30.795377 12.501653 0.0238095
35 30.01654 12.509836 0.0285714
34 29.237972 12.517986 0.0294118
32 28.478574 12.526102 0.03125
36 27.751958 12.534184 0.0277778
30 27.06771 12.542232 0.0333333
27 26.429838 12.550245 0.037037
26 25.840686 12.558223 0.0384615
39 25.298873 12.566166 0.025641
22 24.803445 12.574073 0.0454545
32 24.351141 12.581943 0.03125
32 23.940537 12.589778 0.03125
22 23.568708 12.597575 0.0454545
31 23.234158 12.605335 0.0322581
27 22.935245 12.613058 0.037037
26 22.670662 12.620743 0.0384615
26 22.439093 12.62839 0.0384615
20 22.238635 12.635998 0.05
28 22.067121 12.643567 0.0357143
29 21.921222 12.651097 0.0344828
21 21.797335 12.658587 0.047619
20 21.690684 12.666038 0.05
25 21.597149 12.673448 0.04
26 21.512467 12.680817 0.0384615
16 21.434325 12.688146 0.0625
26 21.361309 12.695433 0.0384615
19 21.294541 12.702679 0.0526316
18 21.236231 12.709883 0.0555556
17 21.190244 12.717044 0.0588235
15 21.160493 12.724164 0.0666667
18 21.151235 12.73124 0.0555556
27 21.165956 12.738273 0.037037
22 21.20743 12.745262 0.0454545
25 21.277185 12.752208 0.04
18 21.375676 12.759109 0.0555556
19 21.502134 12.765966 0.0526316
18 21.65399 12.772778 0.0555556
16 21.828228 12.779545 0.0625
28 22.019961 12.786267 0.0357143
19 22.224691 12.792943 0.0526316
19 22.437223 12.799573 0.0526316
24 22.654496 12.806157 0.0416667
15 22.874223 12.812694 0.0666667
21 23.097456 12.819184 0.047619
33 23.32661 12.825627 0.030303
22 23.566884 12.832022 0.0454545
29 23.823017 12.83837 0.0344828
31 24.100338 12.84467 0.0322581
23 24.401216 12.850921 0.0434783
30 24.724879 12.857124 0.0333333
20 25.067112 12.863278 0.05
18 25.418092 12.869382 0.0555556
29 25.764192 12.875438 0.0344828
20 26.087429 12.881443 0.05
25 26.368566 12.887398 0.04
22 26.588495 12.893304 0.0454545
15 26.732664 12.899158 0.0666667
20 26.792541 12.904962 0.05
27 26.768174 12.910715 0.037037
18 26.667616 12.916416 0.0555556
23 26.506128 12.922066 0.0434783
26 26.302269 12.927664 0.0384615
31 26.077225 12.93321 0.0322581
33 25.849795 12.938704 0.030303
18 25.637769 12.944144 0.0555556
25 25.453317 12.949533 0.04
29 25.306122 12.954868 0.0344828
29 25.199648 12.960149 0.0344828
17 25.134055 12.965377 0.0588235
30 25.104447 12.970552 0.0333333
17 25.102586 12.975672 0.0588235
27 25.116089 12.980738 0.037037
22 25.13052 12.98575 0.0454545
29 25.130111 12.990707 0.0344828
26 25.099577 12.995608 0.0384615
20 25.026473 13.000455 0.05
23 24.902782 13.005246 0.0434783
20 24.726831 13.009982 0.05
18 24.503075 13.014662 0.0555556
22 24.241486 13.019286 0.0454545
20 23.955211 13.023854 0.05
26 23.659081 13.028365 0.0384615
30 23.366719 13.03282 0.0333333
17 23.090212 13.037218 0.0588235
23 22.838237 13.041558 0.0434783
16 22.616929 13.045842 0.0625
24 22.429052 13.050068 0.0416667
19 22.274994 13.054237 0.0526316
25 22.152527 13.058348 0.04
19 22.05818 13.062401 0.0526316
26 21.986163 13.066395 0.0384615
20 21.930723 13.070332 0.05
21 21.885576 13.07421 0.047619
30 21.845149 13.078029 0.0333333
17 21.805469 13.081789 0.0588235
19 21.764383 13.085491 0.0526316
18 21.72238 13.089133 0.0555556
19 21.681936 13.092716 0.0526316
27 21.647499 13.09624 0.037037
21 21.624422 13.099704 0.047619
18 21.618541 13.103108 0.0555556
20 21.635002 13.106452 0.05
20 21.678717 13.109736 0.05
24 21.753038 13.11296 0.0416667
18 21.860706 13.116124 0.0555556
19 22.003483 13.119227 0.0526316
31 22.182316 13.122269 0.0322581
24 22.398041 13.125251 0.0416667
26 22.650327 13.128172 0.0384615
30 22.939618 13.131032 0.0333333
27 23.264225 13.133831 0.037037
30 23.62261 13.136568 0.0333333
26 24.010757 13.139245 0.0384615
34 24.423856 13.14186 0.0294118
23 24.853707 13.144413 0.0434783
33 25.290892 13.146905 0.030303
27 25.722458 13.149334 0.037037
31 26.134499 13.151703 0.0322581
28 26.512252 13.154009 0.0357143
26 26.842438 13.156253 0.0384615
41 27.115411 13.158435 0.0243902
24 27.32689 13.160554 0.0416667
37 27.478538 13.162612 0.027027
35 27.577932 13.164607 0.0285714
48 27.636331 13.16654 0.0208333
38 27.666548 13.16841 0.0263158
30 27.680192 13.170217 0.0333333
40 27.686011 13.171962 0.025
44 27.688929 13.173644 0.0227273
46 27.689041 13.175264 0.0217391
35 27.683312 13.176821 0.0285714
37 27.665826 13.178314 0.027027
27 27.630574 13.179745 0.037037
31 27.571521 13.181113 0.0322581
36 27.485124 13.182418 0.0277778
37 27.369941 13.18366 0.027027
41 27.22668 13.184839 0.0243902
31 27.056894 13.185954 0.0322581
28 26.863475 13.187007 0.0357143
27 26.648795 13.187996 0.037037
38 26.416625 13.188922 0.0263158
30 26.170843 13.189785 0.0333333
28 25.917242 13.190585 0.0357143
42 25.661784 13.191322 0.0238095
25 25.410973 13.191995 0.04
41 25.170394 13.192605 0.0243902
25 24.943533 13.193152 0.04
20 24.73151 13.193635 0.05
26 24.532062 13.194056 0.0384615
31 24.340347 13.194413 0.0322581
27 24.148921 13.194707 0.037037
28 23.949253 13.194938 0.0357143
23 23.732963 13.195105 0.0434783
21 23.493555 13.19521 0.047619
20 23.227489 13.195251 0.05
23 22.935068 13.19523 0.0434783
15 22.620204 13.195145 0.0666667
31 22.289549 13.194997 0.0322581
21 21.951549 13.194786 0.047619
17 21.614653 13.194513 0.0588235
16 21.287109 13.194176 0.0625
19 20.974831 13.193777 0.0526316
19 20.682958 13.193315 0.0526316
21 20.413923 13.19279 0.047619
20 20.169394 13.192203 0.05
23 19.949226 13.191553 0.0434783
16 19.752383 13.19084 0.0625
22 19.577062 13.190065 0.0454545
24 19.42072 13.189228 0.0416667
21 19.280546 13.188328 0.047619
20 19.153237 13.187367 0.05
14 19.035684 13.186343 0.0714286
17 18.924272 13.185257 0.0588235
14 18.817456 13.184109 0.0714286
22 18.712869 13.1829 0.0454545
15 18.609808 13.181628 0.0666667
22 18.508391 13.180296 0.0454545
20 18.40974 13.178901 0.05
29 18.315592 13.177446 0.0344828
12 18.227976 13.175929 0.0833333
19 18.148854 13.17435 0.0526316
17 18.08001 13.172711 0.0588235
23 18.022689 13.171011 0.0434783
27 17.977787 13.169251 0.037037
18 17.945553 13.167429 0.0555556
22 17.925927 13.165547 0.0454545
18 17.918024 13.163605 0.0555556
12 17.921385 13.161603 0.0833333
27 17.934399 13.15954 0.037037
21 17.955607 13.157418 0.047619
16 17.983249 13.155236 0.0625
27 18.015574 13.152995 0.037037
16 18.050759 13.150694 0.0625
16 18.087123 13.148333 0.0625
21 18.122927 13.145914 0.047619
24 18.156578 13.143436 0.0416667
17 18.186344 13.140899 0.0588235
19 18.210489 13.138304 0.0526316
13 18.227468 13.13565 0.0769231
20 18.235981 13.132938 0.05
16 18.235394 13.130168 0.0625
13 18.225963 13.127341 0.0769231
24 18.208878 13.124456 0.0416667
14 18.186329 13.121513 0.0714286
25 18.160966 13.118513 0.04
21 18.135906 13.115457 0.047619
23 18.113833 13.112344 0.0434783
26 18.097432 13.109174 0.0384615
17 18.088584 13.105948 0.0588235
22 18.08844 13.102666 0.0454545
18 18.097813 13.099328 0.0555556
18 18.116778 13.095934 0.0555556
26 18.145356 13.092485 0.0384615
18 18.183068 13.088981 0.0555556
24 18.229597 13.085423 0.0416667
22 18.283666 13.081809 0.0454545
20 18.346092 13.078141 0.05
13 18.415605 13.07442 0.0769231
20 18.491936 13.070644 0.05
27 18.574791 13.066814 0.037037
20 18.664465 13.062932 0.05
28 18.761743 13.058996 0.0357143
21 18.867929 13.055008 0.047619
18 18.985034 13.050967 0.0555556
16 19.115366 13.046873 0.0625
16 19.261558 13.042728 0.0625
18 19.426167 13.038531 0.0555556
21 19.611613 13.034283 0.047619
17 19.819837 13.029984 0.0588235
20 20.052019 13.025634 0.05
21 20.309438 13.021233 0.047619
25 20.59173 13.016783 0.04
23 20.897401 13.012282 0.0434783
18 21.224266 13.007732 0.0555556
28 21.568238 13.003133 0.0357143
19 21.924253 12.998484 0.0526316
19 22.285949 12.993788 0.0526316
14 22.646475 12.989043 0.0714286
21 22.998687 12.984249 0.047619
28 23.336443 12.979409 0.0357143
20 23.654562 12.974521 0.05
22 23.949974 12.969586 0.0454545
17 24.220954 12.964604 0.0588235
25 24.467775 12.959577 0.04
31 24.691739 12.954503 0.0322581
24 24.895627 12.949384 0.0416667
18 25.083569 12.94422 0.0555556
26 25.260273 12.93901 0.0384615
21 25.432042 12.933757 0.047619
19 25.605473 12.928459 0.0526316
25 25.78816 12.923117 0.04
23 25.98762 12.917732 0.0434783
16 26.211111 12.912304 0.0625
34 26.465352 12.906834 0.0294118
31 26.755212 12.901321 0.0322581
28 27.083843 12.895767 0.0357143
41 27.452143 12.89017 0.0243902
29 27.857081 12.884533 0.0344828
23 28.293846 12.878855 0.0434783
36 28.753886 12.873137 0.0277778
39 29.226098 12.867379 0.025641
33 29.696823 12.861582 0.030303
40 30.150258 12.855745 0.025
37 30.569455 12.84987 0.027027
27 30.937001 12.843957 0.037037
32 31.237112 12.838005 0.03125
35 31.456082 12.832017 0.0285714
29 31.585211 12.825991 0.0344828
38 31.620178 12.819929 0.0263158
35 31.564063 12.81383 0.0285714
36 31.425516 12.807696 0.0277778
38 31.219155 12.801527 0.0263158
35 30.964313 12.795322 0.0285714
32 30.68261 12.789084 0.03125
41 30.396272 12.782811 0.0243902
40 30.125823 12.776505 0.025
32 29.88887 12.770166 0.03125
31 29.698829 12.763794 0.0322581
40 29.564622 12.75739 0.025
26 29.491183 12.750955 0.0384615
34 29.478849 12.744488 0.0294118
24 29.524807 12.73799 0.0416667
26 29.623592 12.731462 0.0384615
25 29.767088 12.724904 0.04
36 29.94699 12.718317 0.0277778
28 30.154583 12.711701 0.0357143
31 30.382966 12.705057 0.0322581
32 30.626702 12.698384 0.03125
34 30.883955 12.691684 0.0294118
45 31.154743 12.684957 0.0222222
33 31.443393 12.678204 0.030303
27 31.755505 12.671425 0.037037
38 32.098103 12.66462 0.0263158
37 32.479343 12.65779 0.027027
50 32.904416 12.650936 0.02
38 33.377149 12.644057 0.0263158
40 33.894622 12.637155 0.025
29 34.45055 12.63023 0.0344828
41 35.029964 12.623283 0.0243902
33 35.613969 12.616313 0.030303
27 36.176344 12.609322 0.037037
45 36.689682 12.602311 0.0222222
47 37.125581 12.595278 0.0212766
39 37.460689 12.588226 0.025641
29 37.679557 12.581154 0.0344828
41 37.778185 12.574064 0.0243902
36 37.764892 12.566955 0.0277778
23 37.658892 12.559828 0.0434783
39 37.486143 12.552684 0.025641
27 37.277399 12.545523 0.037037
44 37.060092 12.538346 0.0227273
44 36.860441 12.531153 0.0227273
45 36.695246 12.523945 0.0222222
44 36.578126 12.516723 0.0227273
31 36.512935 12.509486 0.0322581
38 36.502056 12.502236 0.0263158
33 36.542725 12.494973 0.030303
42 36.62985 12.487697 0.0238095
37 36.759 12.480409 0.027027
37 36.923712 12.47311 0.027027
41 37.118658 12.465801 0.0243902
46 37.336115 12.458481 0.0217391
32 37.5705 12.451151 0.03125
42 37.814431 12.443813 0.0238095
51 38.064291 12.436465 0.0196078
39 38.317254 12.42911 0.025641
41 38.575293 12.421748 0.0243902
31 38.841119 12.414378 0.0322581
43 39.11996 12.407002 0.0232558
44 39.413211 12.399621 0.0227273
41 39.719795 12.392234 0.0243902
41 40.02966 12.384843 0.0243902
36 40.32799 12.377448 0.0277778
42 40.591206 12.370049 0.0238095
41 40.792962 12.362648 0.0243902
32 40.906952 12.355244 0.03125
42 40.911947 12.347838 0.0238095
41 40.795731 12.340432 0.0243902
27 40.55913 12.333025 0.037037
38 40.214378 12.325618 0.0263158
30 39.785454 12.318211 0.0333333
25 39.301536 12.310806 0.04
29 38.794958 12.303403 0.0344828
45 38.294101 12.296002 0.0222222
38 37.823266 12.288604 0.0263158
39 37.397898 12.281209 0.025641
36 37.027028 12.273819 0.0277778
35 36.712441 12.266434 0.0285714
39 36.44872 12.259054 0.025641
30 36.227389 12.25168 0.0333333
40 36.036267 12.244312 0.025
33 35.862867 12.236952 0.030303
31 35.693743 12.229599 0.0322581
29 35.516193 12.222255 0.0344828
41 35.317654 12.21492 0.0243902
34 35.08713 12.207594 0.0294118
28 34.81373 12.200279 0.0357143
33 34.490925 12.192974 0.030303
28 34.114846 12.18568 0.0357143
23 33.686383 12.178399 0.0434783
30 33.211117 12.17113 0.0333333
23 32.698406 12.163874 0.0434783
29 32.160904 12.156632 0.0344828
30 31.611893 12.149405 0.0333333
28 31.064922 12.142192 0.0357143
29 30.531385 12.134995 0.0344828
29 30.02093 12.127814 0.0344828
26 29.539533 12.12065 0.0384615
32 29.090793 12.113503 0.03125
26 28.676051 12.106375 0.0384615
25 28.294333 12.099265 0.04
34 27.94512 12.092174 0.0294118
21 27.627025 12.085103 0.047619
31 27.340526 12.078053 0.0322581
31 27.086018 12.071024 0.0322581
22 26.865171 12.064016 0.0454545
34 26.678958 12.057031 0.0294118
21 26.528431 12.050068 0.047619
26 26.412638 12.043129 0.0384615
34 26.329566 12.036214 0.0294118
28 26.275216 12.029324 0.0357143
29 26.244288 12.022459 0.0344828
31 26.230319 12.01562 0.0322581
19 26.225199 12.008808 0.0526316
29 26.22367 12.002022 0.0344828
19 26.218644 11.995265 0.0526316
33 26.206173 11.988536 0.030303
28 26.183955 11.981835 0.0357143
25 26.153166 11.975165 0.04
19 26.117248 11.968524 0.0526316
25 26.082044 11.961914 0.04
29 26.05497 11.955336 0.0344828
21 26.043896 11.94879 0.047619
29 26.05619 11.942276 0.0344828
23 26.098354 11.935795 0.0434783
29 26.175315 11.929348 0.0344828
28 26.290792 11.922936 0.0357143
20 26.446936 11.916558 0.05
27 26.644823 11.910216 0.037037
20 26.885061 11.903911 0.05
23 27.167466 11.897642 0.0434783
39 27.490134 11.89141 0.025641
28 27.851497 11.885217 0.0357143
27 28.247459 11.879061 0.037037
29 28.673552 11.872945 0.0344828
33 29.123167 11.866869 0.030303
37 29.590028 11.860833 0.027027
25 30.067304 11.854838 0.04
30 30.550135 11.848885 0.0333333
40 31.036705 11.842974 0.025
38 31.527945 11.837105 0.0263158
33 32.029315 11.831279 0.030303
38 32.548255 11.825498 0.0263158
37 33.094526 11.81976 0.027027
44 33.676665 11.814068 0.0227273
51 34.301507 11.808422 0.0196078
28 34.970834 11.802821 0.0357143
42 35.681627 11.797267 0.0238095
41 36.422787 11.791761 0.0243902
41 37.176704 11.786302 0.0243902
38 37.91993 11.780892 0.0263158
37 38.623045 11.775531 0.027027
40 39.254935 11.770219 0.025
32 39.784981 11.764957 0.03125
41 40.186742 11.759746 0.0243902
42 40.44218 11.754587 0.0238095
35 40.54187 11.749479 0.0285714
43 40.488405 11.744423 0.0232558
39 40.292464 11.739421 0.025641
49 39.975075 11.734472 0.0204082
40 39.561056 11.729576 0.025
34 39.080499 11.724736 0.0294118
29 38.564869 11.71995 0.0344828
31 38.043406 11.71522 0.0322581
41 37.544293 11.710546 0.0243902
41 37.089856 11.705929 0.0243902
43 36.698872 11.701369 0.0232558
36 36.381913 11.696867 0.0277778
33 36.145649 11.692423 0.030303
38 35.988431 11.688038 0.0263158
27 35.903369 11.683712 0.037037
43 35.881711 11.679447 0.0232558
38 35.907182 11.675241 0.0263158
36 35.962225 11.671096 0.0277778
33 36.029771 11.667013 0.030303
33 36.093466 11.662992 0.030303
30 36.140742 11.659033 0.0333333
33 36.163092 11.655137 0.030303
38 36.156388 11.651304 0.0263158
24 36.121534 11.647535 0.0416667
30 36.062051 11.643831 0.0333333
30 35.984367 11.640191 0.0333333
28 35.896222 11.636617 0.0357143
32 35.806616 11.633109 0.03125
23 35.724662 11.629667 0.0434783
24 35.661222 11.626292 0.0416667
32 35.627627 11.622984 0.03125
26 35.63567 11.619743 0.0384615
40 35.694788 11.616571 0.025
32 35.815622 11.613468 0.03125
33 36.003704 11.610434 0.030303
36 36.262577 11.607469 0.0277778
33 36.590602 11.604575 0.030303
31 36.981707 11.60175 0.0322581
46 37.424722 11.598997 0.0217391
35 37.905415 11.596315 0.0285714
46 38.406723 11.593705 0.0217391
46 38.910792 11.591167 0.0217391
44 39.403018 11.588702 0.0227273
43 39.8701 11.58631 0.0232558
39 40.305013 11.583991 0.025641
38 40.702389 11.581747 0.0263158
39 41.061344 11.579576 0.025641
37 41.378092 11.57748 0.027027
48 41.649833 11.57546 0.0208333
39 41.866672 11.573515 0.025641
36 42.018881 11.571646 0.0277778
40 42.090954 11.569853 0.025
37 42.071389 11.568137 0.027027
34 41.949047 11.566498 0.0294118
44 41.720719 11.564936 0.0227273
35 41.389291 11.563452 0.0285714
49 40.966051 11.562046 0.0204082
52 40.466112 11.560719 0.0192308
48 39.909384 11.559471 0.0208333
46 39.314767 11.558302 0.0217391
30 38.699811 11.557213 0.0333333
37 38.078783 11.556203 0.027027
45 37.463004 11.555274 0.0222222
37 36.859432 11.554426 0.027027
40 36.273886 11.553658 0.025
40 35.711631 11.552972 0.025
35 35.175197 11.552367 0.0285714
32 34.668599 11.551845 0.03125
41 34.192079 11.551404 0.0243902
26 33.745986 11.551046 0.0384615
38 33.325111 11.550771 0.0263158
36 32.923569 11.550579 0.0277778
29 32.53032 11.55047 0.0344828
30 32.134848 11.550445 0.0333333
31 31.72451 11.550504 0.0322581
32 31.289965 11.550647 0.03125
19 30.823369 11.550874 0.0526316
33 30.321622 11.551187 0.030303
38 29.784791 11.551584 0.0263158
23 29.216066 11.552067 0.0434783
33 28.621329 11.552635 0.030303
21 28.007949 11.553288 0.047619
44 27.383572 11.554028 0.0227273
32 26.75876 11.554854 0.03125
23 26.141225 11.555766 0.0434783
34 25.539158 11.556765 0.0294118
19 24.959317 11.557851 0.0526316
32 24.407295 11.559024 0.03125
24 23.887187 11.560284 0.0416667
17 23.401084 11.561632 0.0588235
26 22.95008 11.563067 0.0384615
23 22.534 11.564589 0.0434783
22 22.151735 11.5662 0.0454545
22 21.801996 11.567899 0.0454545
29 21.482942 11.569686 0.0344828
25 21.192748 11.571562 0.04
27 20.929026 11.573526 0.037037
23 20.69014 11.575579 0.0434783
27 20.473136 11.577721 0.037037
27 20.274891 11.579952 0.037037
12 20.092072 11.582272 0.0833333
23 19.921224 11.584681 0.0434783
25 19.75889 11.58718 0.04
25 19.601998 11.589768 0.04
22 19.448029 11.592445 0.0454545
18 19.295362 11.595213 0.0555556
24 19.143016 11.598069 0.0416667
28 18.990948 11.601016 0.0357143
19 18.839583 11.604053 0.0526316
17 18.690013 11.607179 0.0588235
17 18.543399 11.610395 0.0588235
24 18.401216 11.613702 0.0416667
20 18.26488 11.617098 0.05
21 18.135602 11.620585 0.047619
16 18.014629 11.624162 0.0625
12 17.902943 11.627829 0.0833333
18 17.801394 11.631586 0.0555556
15 17.710972 11.635433 0.0666667
25 17.632371 11.639371 0.04
15 17.566099 11.643399 0.0666667
29 17.512672 11.647517 0.0344828
29 17.472454 11.651725 0.0344828
15 17.445596 11.656023 0.0666667
19 17.432271 11.660411 0.0526316
13 17.432329 11.664889 0.0769231
25 17.445781 11.669458 0.04
14 17.472232 11.674116 0.0714286
16 17.511621 11.678864 0.0625
22 17.563489 11.683702 0.0454545
12 17.627846 11.68863 0.0833333
12 17.704284 11.693647 0.0833333
15 17.792737 11.698754 0.0666667
18 17.892795 11.703951 0.0555556
20 18.003804 11.709237 0.05
21 18.124765 11.714612 0.047619
16 18.253751 11.720076 0.0625
16 18.388663 11.725629 0.0625
16 18.526276 11.731271 0.0625
18 18.663468 11.737002 0.0555556
21 18.796592 11.742821 0.047619
18 18.922955 11.748729 0.0555556
19 19.040424 11.754725 0.0526316
17 19.148729 11.760809 0.0588235
18 19.248888 11.766981 0.0555556
28 19.344048 11.773241 0.0357143
22 19.438404 11.779588 0.0454545
21 19.537191 11.786022 0.047619
14 19.646182 11.792544 0.0714286
22 19.770898 11.799152 0.0454545
14 19.916638 11.805847 0.0714286
21 20.087752 11.812628 0.047619
20 20.288103 11.819496 0.05
27 20.520127 11.826449 0.037037
20 20.785876 11.833488 0.05
23 21.085426 11.840613 0.0434783
28 21.418282 11.847822 0.0357143
24 21.781228 11.855117 0.0416667
25 22.170138 11.862496 0.04
30 22.577389 11.869959 0.0333333
22 22.992889 11.877506 0.0454545
31 23.404522 11.885137 0.0322581
21 23.796716 11.892851 0.047619
21 24.153246 11.900648 0.047619
22 24.456542 11.908527 0.0454545
24 24.691227 11.916489 0.0416667
25 24.844432 11.924533 0.04
29 24.908889 11.932658 0.0344828
26 24.883237 11.940865 0.0384615
30 24.772373 11.949152 0.0333333
23 24.587617 11.95752 0.0434783
24 24.343619 11.965968 0.0416667
26 24.058176 11.974495 0.0384615
16 23.749256 11.983102 0.0625
26 23.433186 11.991787 0.0384615
30 23.124705 12.000551 0.0333333
20 22.834976 12.009393 0.05
23 22.572985 12.018312 0.0434783
34 22.343918 12.027309 0.0294118
22 22.151081 12.036381 0.0454545
23 21.994598 12.04553 0.0434783
28 21.873073 12.054755 0.0357143
33 21.781955 12.064055 0.030303
25 21.715973 12.07343 0.04
36 21.667618 12.082878 0.0277778
25 21.628179 12.092401 0.04
25 21.588611 12.101996 0.04
20 21.53992 12.111665 0.05
26 21.474652 12.121405 0.0384615
19 21.387179 12.131217 0.0526316
20 21.275245 12.1411 0.05
17 21.139099 12.151053 0.0588235
23 20.982574 12.161077 0.0434783
18 20.811268 12.171169 0.0555556
23 20.632392 12.181331 0.0434783
24 20.453546 12.19156 0.0416667
26 20.281641 12.201857 0.0384615
22 20.123399 12.212221 0.0454545
16 19.983231 12.222652 0.0625
27 19.865266 12.233148 0.037037
31 19.771096 12.24371 0.0322581
21 19.70206 12.254335 0.047619
19 19.657054 12.265025 0.0526316
36 19.634782 12.275778 0.0277778
23 19.63162 12.286593 0.0434783
14 19.643633 12.297471 0.0714286
25 19.665202 12.308409 0.04
25 19.690013 12.319408 0.04
35 19.71126 12.330467 0.0285714
25 19.721837 12.341585 0.04
21 19.71591 12.352762 0.047619
27 19.688527 12.363996 0.037037
27 19.637153 12.375287 0.037037
23 19.561312 12.386634 0.0434783
19 19.462885 12.398037 0.0526316
18 19.345911 12.409495 0.0555556
17 19.215421 12.421007 0.0588235
28 19.077386 12.432572 0.0357143
27 18.93745 12.444189 0.037037
24 18.801132 12.455858 0.0416667
13 18.673004 12.467579 0.0769231
19 18.556385 12.479349 0.0526316
16 18.454018 12.491169 0.0625
16 18.367128 12.503037 0.0625
22 18.296503 12.514953 0.0454545
14 18.241503 12.526916 0.0714286
26 18.201195 12.538925 0.0384615
31 18.173342 12.55098 0.0322581
26 18.155516 12.563078 0.0384615
28 18.144215 12.575221 0.0357143
33 18.136146 12.587406 0.030303
18 18.127378 12.599633 0.0555556
28 18.114542 12.611901 0.0357143
21 18.094864 12.624209 0.047619
21 18.066386 12.636556 0.047619
18 18.028438 12.648942 0.0555556
28 17.981466 12.661365 0.0357143
21 17.926998 12.673825 0.047619
23 17.867343 12.68632 0.0434783
15 17.805285 12.698851 0.0666667
24 17.743757 12.711414 0.0416667
15 17.685516 12.724011 0.0666667
19 17.633107 12.73664 0.0526316
25 17.588559 12.749299 0.04
22 17.553563 12.761989 0.0454545
17 17.529427 12.774708 0.0588235
14 17.516883 12.787455 0.0714286
15 17.516582 12.800228 0.0666667
16 17.528678 12.813029 0.0625
15 17.553304 12.825854 0.0666667
13 17.590217 12.838703 0.0769231
20 17.63904 12.851576 0.05
17 17.699281 12.864471 0.0588235
19 17.77019 12.877386 0.0526316
16 17.850961 12.890322 0.0625
22 17.940524 12.903278 0.0454545
18 18.037906 12.916251 0.0555556
19 18.141805 12.929241 0.0526316
14 18.251203 12.942248 0.0714286
19 18.36484 12.955269 0.0526316
22 18.481854 12.968304 0.0454545
22 18.60143 12.981352 0.0454545
14 18.723108 12.994412 0.0714286
14 18.846961 13.007483 0.0714286
21 18.973379 13.020563 0.047619
19 19.103467 13.033652 0.0526316
18 19.23861 13.046748 0.0555556
17 19.38077 13.059851 0.0588235
17 19.531915 13.072959 0.0588235
18 19.694325 13.086071 0.0555556
23 19.869965 13.099186 0.0434783
23 20.06078 13.112304 0.0434783
13 20.268482 13.125422 0.0769231
15 20.494495 13.13854 0.0666667
13 20.74009 13.151656 0.0769231
26 21.005902 13.16477 0.0384615
18 21.29271 13.177881 0.0555556
15 21.600167 13.190986 0.0666667
23 21.927886 13.204086 0.0434783
28 22.274271 13.217179 0.0357143
24 22.637463 13.230263 0.0416667
31 23.014475 13.243338 0.0322581
25 23.402311 13.256402 0.04
25 23.797426 13.269455 0.04
24 24.196875 13.282495 0.0416667
16 24.598589 13.295521 0.0625
29 25.001272 13.308531 0.0344828
20 25.406059 13.321525 0.05
33 25.814627 13.334502 0.030303
27 26.230589 13.34746 0.037037
27 26.657705 13.360397 0.037037
26 27.100299 13.373314 0.0384615
25 27.561712 13.386208 0.04
30 28.045021 13.399079 0.0333333
23 28.551775 13.411924 0.0434783
43 29.083443 13.424744 0.0232558
35 29.639403 13.437537 0.0285714
32 30.219429 13.450301 0.03125
29 30.820762 13.463035 0.0344828
39 31.438837 13.475739 0.025641
36 32.067631 13.48841 0.0277778
36 32.696175 13.501049 0.0277778
36 33.311516 13.513652 0.0277778
34 33.895586 13.52622 0.0294118
33 34.429373 13.538751 0.030303
43 34.892052 13.551244 0.0232558
37 35.265455 13.563697 0.027027
36 35.535273 13.57611 0.0277778
35 35.694043 13.58848 0.0285714
36 35.742255 13.600808 0.0277778
33 35.687889 13.613091 0.030303
26 35.545178 13.625328 0.0384615
37 35.335078 13.637518 0.027027
24 35.077066 13.64966 0.0416667
31 34.792285 13.661753 0.0322581
28 34.498123 13.673795 0.0357143
34 34.210138 13.685786 0.0294118
35 33.938563 13.697723 0.0285714
43 33.692565 13.709605 0.0232558
26 33.476257 13.721432 0.0384615
29 33.29329 13.733203 0.0344828
36 33.144465 13.744915 0.0277778
37 33.029662 13.756567 0.027027
41 32.946353 13.768159 0.0243902
32 32.890307 13.779689 0.03125
41 32.85549 13.791156 0.0243902
41 32.834152 13.802558 0.0243902
34 32.816463 13.813895 0.0294118
28 32.793852 13.825165 0.0357143
37 32.756677 13.836366 0.027027
26 32.697961 13.847498 0.0384615
23 32.613174 13.85856 0.0434783
36 32.501359 13.86955 0.0277778
30 32.363852 13.880466 0.0333333
33 32.204648 13.891308 0.030303
39 32.028254 13.902075 0.025641
36 31.840341 13.912764 0.0277778
24 31.644025 13.923376 0.0416667
26 31.442416 13.933908 0.0384615
35 31.235911 13.94436 0.0285714
32 31.024062 13.954729 0.03125
38 30.805404 13.965016 0.0263158
30 30.576576 13.975219 0.0333333
38 30.3349 13.985335 0.0263158
38 30.076715 13.995366 0.0263158
33 29.800043 14.005308 0.030303
29 29.503228 14.015161 0.0344828
30 29.187412 14.024924 0.0333333
28 28.854619 14.034595 0.0357143
27 28.509474 14.044173 0.037037
27 28.157033 14.053658 0.037037
22 27.803735 14.063047 0.0454545
24 27.454826 14.07234 0.0416667
31 27.115879 14.081535 0.0322581
41 26.790387 14.090632 0.0243902
18 26.481197 14.099629 0.0555556
28 26.189176 14.108524 0.0357143
23 25.914413 14.117317 0.0434783
24 25.65571 14.126007 0.0416667
42 25.411058 14.134593 0.0238095
28 25.178161 14.143072 0.0357143
25 24.954334 14.151445 0.04
27 24.736956 14.159709 0.037037
20 24.523574 14.167864 0.05
19 24.311917 14.175909 0.0526316
23 24.099797 14.183843 0.0434783
25 23.885217 14.191664 0.04
27 23.666452 14.199371 0.037037
27 23.442132 14.206963 0.037037
25 23.211621 14.21444 0.04
23 22.975145 14.221799 0.0434783
26 22.73358 14.229041 0.0384615
26 22.488854 14.236163 0.0384615
36 22.243392 14.243165 0.0277778
15 21.999896 14.250045 0.0666667
23 21.761231 14.256803 0.0434783
20 21.529673 14.263438 0.05
22 21.307416 14.269948 0.0454545
18 21.095738 14.276333 0.0555556
22 20.895732 14.282591 0.0454545
28 20.707669 14.288722 0.0357143
20 20.53178 14.294724 0.05
12 20.367731 14.300596 0.0833333
23 20.215466 14.306338 0.0434783
23 20.074522 14.311948 0.0434783
24 19.944574 14.317426 0.0416667
16 19.825419 14.32277 0.0625
22 19.716679 14.32798 0.0454545
22 19.618363 14.333055 0.0454545
17 19.53013 14.337993 0.0588235
17 19.45207 14.342793 0.0588235
24 19.383962 14.347456 0.0416667
27 19.325982 14.351979 0.037037
18 19.27811 14.356363 0.0555556
24 19.240687 14.360606 0.0416667
9 19.213934 14.364706 0.1111111
16 19.198356 14.368665 0.0625
16 19.191571 14.372479 0.0625
23 19.199726 14.37615 0.0434783
17 19.220587 14.379675 0.0588235
17 19.254486 14.383055 0.0588235
15 19.302014 14.386288 0.0666667
23 19.363259 14.389373 0.0434783
14 19.438565 14.39231 0.0714286
31 19.527716 14.395097 0.0322581
25 19.630754 14.397735 0.04
21 19.747178 14.400223 0.047619
14 19.876753 14.402559 0.0714286
28 20.018701 14.404743 0.0357143
21 20.172588 14.406774 0.047619
28 20.337432 14.408652 0.0357143
21 20.512441 14.410376 0.047619
16 20.694877 14.411945 0.0625
23 20.885576 14.413359 0.0434783
20 21.080959 14.414617 0.05
25 21.277518 14.415718 0.04
19 21.471283 14.416662 0.0526316
21 21.65692 14.417448 0.047619
27 21.828914 14.418076 0.037037
25 21.981037 14.418545 0.04
22 22.107761 14.418854 0.0454545
21 22.20411 14.419004 0.047619
22 22.266976 14.418992 0.0454545
23 22.294973 14.41882 0.0434783
20 22.288934 14.418487 0.05
25 22.25154 14.417991 0.04
31 22.187051 14.417333 0.0322581
18 22.100547 14.416513 0.0555556
28 21.997607 14.415529 0.0357143
18 21.883555 14.414382 0.0555556
29 21.763518 14.41307 0.0344828
22 21.641811 14.411594 0.0454545
25 21.522439 14.409954 0.04
24 21.408493 14.408149 0.0416667
19 21.302762 14.406178 0.0526316
15 21.207184 14.404042 0.0666667
21 21.123113 14.40174 0.047619
22 21.051166 14.399271 0.0454545
19 20.990993 14.396637 0.0526316
20 20.941498 14.393836 0.05
23 20.90069 14.390868 0.0434783
21 20.866003 14.387734 0.047619
21 20.834274 14.384432 0.047619
17 20.802395 14.380963 0.0588235
21 20.767339 14.377327 0.047619
31 20.726825 14.373524 0.0322581
17 20.679397 14.369553 0.0588235
20 20.624614 14.365414 0.05
19 20.563242 14.361108 0.0526316
19 20.496578 14.356635 0.0526316
25 20.42676 14.351994 0.04
16 20.356009 14.347185 0.0625
26 20.286664 14.342209 0.0384615
17 20.220631 14.337066 0.0588235
25 20.159606 14.331755 0.04
20 20.104585 14.326278 0.05
19 20.056166 14.320633 0.0526316
14 20.014234 14.314821 0.0714286
23 19.978253 14.308843 0.0434783
16 19.946977 14.302698 0.0625
22 19.918873 14.296387 0.0454545
27 19.892186 14.28991 0.037037
21 19.864958 14.283267 0.047619
15 19.835593 14.276459 0.0666667
16 19.802922 14.269485 0.0625
18 19.766483 14.262347 0.0555556
20 19.726423 14.255045 0.05
24 19.683765 14.247578 0.0416667
14 19.639921 14.239948 0.0714286
18 19.596934 14.232155 0.0555556
19 19.556768 14.224199 0.0526316
27 19.521719 14.216081 0.037037
25 19.493684 14.207801 0.04
18 19.474638 14.19936 0.0555556
29 19.466029 14.190758 0.0344828
25 19.469195 14.181996 0.04
18 19.485088 14.173075 0.0555556
20 19.514052 14.163996 0.05
17 19.556381 14.154758 0.0588235
21 19.611519 14.145362 0.047619
24 19.678717 14.13581 0.0416667
20 19.756565 14.126102 0.05
20 19.843388 14.116239 0.05
27 19.936844 14.106221 0.037037
16 20.034934 14.09605 0.0625
15 20.135008 14.085726 0.0666667
24 20.235011 14.07525 0.0416667
22 20.333094 14.064623 0.0454545
19 20.428307 14.053846 0.0526316
19 20.520436 14.04292 0.0526316
25 20.610082 14.031845 0.04
27 20.699171 14.020624 0.037037
21 20.789794 14.009256 0.047619
18 20.88519 13.997743 0.0555556
25 20.988042 13.986086 0.04
21 21.10164 13.974287 0.047619
15 21.228109 13.962345 0.0666667
31 21.369518 13.950263 0.0322581
28 21.52629 13.938041 0.0357143
32 21.698333 13.925682 0.03125
30 21.883685 13.913185 0.0333333
33 22.079486 13.900553 0.030303
33 22.28095 13.887786 0.030303
17 22.481889 13.874886 0.0588235
32 22.675544 13.861854 0.03125
27 22.853708 13.848693 0.037037
20 23.008735 13.835402 0.05
20 23.133054 13.821984 0.05
27 23.221056 13.80844 0.037037
18 23.268972 13.794771 0.0555556
26 23.27594 13.78098 0.0384615
18 23.243691 13.767067 0.0555556
13 23.176573 13.753034 0.0769231
32 23.080781 13.738883 0.03125
19 22.96385 13.724616 0.0526316
22 22.833279 13.710233 0.0454545
19 22.695681 13.695738 0.0526316
25 22.559116 13.681131 0.04
21 22.428035 13.666414 0.047619
24 22.305931 13.651589 0.0416667
31 22.195387 13.636659 0.0322581
18 22.097336 13.621624 0.0555556
23 22.012126 13.606486 0.0434783
15 21.938883 13.591248 0.0666667
23 21.876545 13.575912 0.0434783
21 21.823245 13.560479 0.047619
17 21.777109 13.544951 0.0588235
21 21.735689 13.529331 0.047619
23 21.696391 13.51362 0.0434783
24 21.656539 13.497821 0.0416667
26 21.613476 13.481936 0.0384615
24 21.564931 13.465966 0.0416667
35 21.508791 13.449914 0.0285714
20 21.445478 13.433782 0.05
21 21.374919 13.417573 0.047619
26 21.298916 13.401288 0.0384615
23 21.219761 13.38493 0.0434783
20 21.140873 13.368501 0.05
24 21.065278 13.352004 0.0416667
18 20.996152 13.335441 0.0555556
27 20.935851 13.318813 0.037037
28 20.885693 13.302125 0.0357143
29 20.846345 13.285378 0.0344828
16 20.816799 13.268574 0.0625
21 20.795564 13.251716 0.047619
20 20.779606 13.234807 0.05
24 20.765777 13.217849 0.0416667
25 20.749919 13.200845 0.04
18 20.728508 13.183797 0.0555556
17 20.697739 13.166708 0.0588235
20 20.65514 13.149581 0.05
12 20.598938 13.132419 0.0833333
30 20.528495 13.115223 0.0333333
15 20.444202 13.097998 0.0666667
24 20.347562 13.080745 0.0416667
19 20.240337 13.063467 0.0526316
21 20.124822 13.046168 0.047619
17 20.00328 13.02885 0.0588235
14 19.878134 13.011516 0.0714286
24 19.751505 12.994168 0.0416667
19 19.625788 12.976811 0.0526316
20 19.503075 12.959447 0.05
23 19.385744 12.942078 0.0434783
10 19.275736 12.924708 0.1
21 19.175072 12.90734 0.047619
23 19.085513 12.889977 0.0434783
17 19.008083 12.872622 0.0588235
18 18.943798 12.855278 0.0555556
24 18.892491 12.837948 0.0416667
16 18.854055 12.820636 0.0625
23 18.827292 12.803344 0.0434783
18 18.811151 12.786077 0.0555556
17 18.803756 12.768836 0.0588235
22 18.803649 12.751625 0.0454545
21 18.808994 12.734448 0.047619
22 18.818643 12.717308 0.0454545
18 18.831256 12.700208 0.0555556
13 18.845872 12.683151 0.0769231
15 18.861717 12.666142 0.0666667
22 18.877628 12.649182 0.0454545
20 18.892519 12.632277 0.05
18 18.904483 12.615428 0.0555556
23 18.911545 12.59864 0.0434783
20 18.910946 12.581916 0.05
20 18.900152 12.565259 0.05
19 18.876213 12.548673 0.0526316
26 18.837008 12.532162 0.0384615
14 18.780792 12.515729 0.0714286
17 18.707041 12.499377 0.0588235
18 18.616267 12.483111 0.0555556
19 18.51026 12.466933 0.0526316
19 18.391628 12.450847 0.0526316
22 18.263918 12.434858 0.0454545
15 18.13082 12.418968 0.0666667
30 17.996309 12.403181 0.0333333
16 17.86382 12.387501 0.0625
15 17.736701 12.371931 0.0666667
19 17.617338 12.356476 0.0526316
16 17.507868 12.341139 0.0625
18 17.409505 12.325924 0.0555556
23 17.32313 12.310834 0.0434783
21 17.249144 12.295873 0.047619
21 17.18721 12.281044 0.047619
22 17.13678 12.266353 0.0454545
18 17.096689 12.251802 0.0555556
25 17.065311 12.237395 0.04
22 17.040679 12.223136 0.0454545
22 17.020527 12.209029 0.0454545
15 17.001851 12.195077 0.0666667
20 16.981836 12.181285 0.05
19 16.957438 12.167656 0.0526316
16 16.926065 12.154193 0.0625
19 16.885518 12.140902 0.0526316
17 16.834402 12.127785 0.0588235
23 16.772257 12.114847 0.0434783
19 16.699332 12.102091 0.0526316
13 16.616945 12.089521 0.0769231
16 16.526795 12.077141 0.0625
11 16.431288 12.064955 0.0909091
16 16.332708 12.052966 0.0625
18 16.233576 12.041179 0.0555556
16 16.136086 12.029597 0.0625
21 16.042073 12.018224 0.047619
16 15.953334 12.007064 0.0625
13 15.870992 11.996121 0.0769231
20 15.796068 11.985398 0.05
20 15.729125 11.974899 0.05
16 15.670744 11.964629 0.0625
20 15.621026 11.95459 0.05
16 15.580181 11.944788 0.0625
14 15.548053 11.935224 0.0714286
16 15.524555 11.925904 0.0625
16 15.509339 11.916831 0.0625
16 15.502092 11.908008 0.0625
10 15.502425 11.89944 0.1
18 15.509835 11.891129 0.0555556
18 15.524009 11.883081 0.0555556
19 15.544533 11.875298 0.0526316
16 15.571345 11.867783 0.0625
18 15.604315 11.860542 0.0555556
13 15.643739 11.853577 0.0769231
21 15.689902 11.846892 0.047619
25 15.743457 11.84049 0.04
23 15.804974 11.834375 0.0434783
11 15.875256 11.828551 0.0909091
23 15.95501 11.82302 0.0434783
19 16.044766 11.817787 0.0526316
11 16.14518 11.812855 0.0909091
21 16.256311 11.808227 0.047619
18 16.378432 11.803907 0.0555556
11 16.510996 11.799898 0.0909091
25 16.653656 11.796203 0.04
16 16.805231 11.792825 0.0625
12 16.964615 11.789768 0.0833333
24 17.130201 11.787036 0.0416667
15 17.300457 11.78463 0.0666667
9 17.47373 11.782555 0.1111111
16 17.648578 11.780813 0.0625
14 17.824089 11.779407 0.0714286
17 17.99959 11.77834 0.0588235
17 18.175288 11.777616 0.0588235
12 18.351549 11.777237 0.0833333
13 18.529439 11.777206 0.0769231
14 18.709732 11.777526 0.0714286
19 18.893479 11.778199 0.0526316
19 19.081019 11.779229 0.0526316
22 19.272159 11.780617 0.0454545
19 19.466186 11.782367 0.0526316
21 19.66133 11.784481 0.047619
25 19.855799 11.786961 0.04
16 20.047026 11.78981 0.0625
22 20.232799 11.79303 0.0454545
19 20.41086 11.796623 0.0526316
18 20.579481 11.800592 0.0555556
20 20.737261 11.804938 0.05
21 20.883327 11.809665 0.047619
23 21.016781 11.814773 0.0434783
29 21.137038 11.820264 0.0344828
19 21.242839 11.826141 0.0526316
19 21.333381 11.832406 0.0526316
19 21.407225 11.839059 0.0526316
23 21.463591 11.846103 0.0434783
21 21.501958 11.853539 0.047619
24 21.523053 11.861368 0.0416667
26 21.528065 11.869592 0.0384615
25 21.519954 11.878212 0.04
24 21.501749 11.887229 0.0416667
20 21.477842 11.896644 0.05
29 21.452001 11.906458 0.0344828
22 21.428552 11.916673 0.0454545
16 21.410771 11.927288 0.0625
19 21.40145 11.938305 0.0526316
19 21.402808 11.949724 0.0526316
27 21.415726 11.961545 0.037037
14 21.44103 11.973769 0.0714286
27 21.478257 11.986396 0.037037
26 21.527167 11.999426 0.0384615
26 21.586297 12.012859 0.0384615
21 21.654757 12.026695 0.047619
24 21.730377 12.040935 0.0416667
14 21.811547 12.055576 0.0714286
24 21.895428 12.070619 0.0416667
29 21.979512 12.086064 0.0344828
33 22.060445 12.101909 0.030303
19 22.135112 12.118154 0.0526316
28 22.200556 12.134797 0.0357143
25 22.254233 12.151838 0.04
17 22.294612 12.169275 0.0588235
29 22.321096 12.187106 0.0344828
31 22.334334 12.205331 0.0322581
22 22.335923 12.223947 0.0454545
28 22.328451 12.242952 0.0357143
22 22.314942 12.262345 0.0454545
32 22.298438 12.282123 0.03125
20 22.282132 12.302283 0.05
26 22.2687 12.322824 0.0384615
23 22.260773 12.343743 0.0434783
21 22.260214 12.365035 0.047619
24 22.268417 12.3867 0.0416667
19 22.286477 12.408733 0.0526316
17 22.315044 12.431131 0.0588235
22 22.354513 12.45389 0.0454545
19 22.404771 12.477007 0.0526316
30 22.465719 12.500477 0.0333333
28 22.536622 12.524297 0.0357143
30 22.616488 12.548461 0.0333333
29 22.703989 12.572967 0.0344828
19 22.796826 12.597808 0.0526316
25 22.892702 12.62298 0.04
27 22.988115 12.648477 0.037037
27 23.079788 12.674295 0.037037
31 23.163666 12.700427 0.0322581
36 23.236659 12.726868 0.0277778
30 23.295339 12.753612 0.0333333
33 23.337774 12.780653 0.030303
29 23.362491 12.807983 0.0344828
26 23.369364 12.835597 0.0384615
26 23.359162 12.863487 0.0384615
24 23.333484 12.891646 0.0416667
31 23.294396 12.920066 0.0322581
26 23.2442 12.948741 0.0384615
38 23.18503 12.977662 0.0263158
20 23.118908 13.00682 0.05
20 23.047425 13.036207 0.05
26 22.971883 13.065815 0.0384615
17 22.893367 13.095635 0.0588235
22 22.812714 13.125657 0.0454545
19 22.730839 13.155871 0.0526316
17 22.648374 13.186268 0.0588235
21 22.566114 13.216838 0.047619
22 22.484083 13.24757 0.0454545
32 22.402437 13.278453 0.03125
21 22.320398 13.309477 0.047619
22 22.237162 13.34063 0.0454545
18 22.151064 13.371901 0.0555556
24 22.060724 13.403277 0.0416667
32 21.964296 13.434747 0.03125
25 21.860499 13.466297 0.04
20 21.748256 13.497915 0.05
21 21.627192 13.529588 0.047619
16 21.497563 13.561302 0.0625
19 21.360213 13.593042 0.0526316
20 21.216469 13.624796 0.05
26 21.06811 13.656548 0.0384615
22 20.916989 13.688283 0.0454545
25 20.765153 13.719987 0.04
20 20.614323 13.751642 0.05
11 20.466136 13.783234 0.0909091
13 20.321822 13.814745 0.0769231
19 20.182404 13.84616 0.0526316
18 20.048533 13.87746 0.0555556
20 19.921039 13.908628 0.05
22 19.80012 13.939647 0.0454545
20 19.686011 13.970497 0.05
14 19.578732 14.001161 0.0714286
12 19.478081 14.031618 0.0833333
20 19.383687 14.061849 0.05
26 19.294899 14.091834 0.0384615
21 19.211014 14.121553 0.047619
26 19.131028 14.150984 0.0384615
24 19.054092 14.180107 0.0416667
23 18.979391 14.208899 0.0434783
29 18.90624 14.237339 0.0344828
18 18.834242 14.265403 0.0555556
17 18.763311 14.293068 0.0588235
25 18.69359 14.320311 0.04
19 18.62539 14.347108 0.0526316
17 18.559428 14.373433 0.0588235
22 18.496333 14.399262 0.0454545
16 18.436728 14.424569 0.0625
29 18.381329 14.449329 0.0344828
14 18.330712 14.473513 0.0714286
20 18.285378 14.497097 0.05
11 18.245695 14.52005 0.0909091
23 18.211956 14.542346 0.0434783
13 18.184244 14.563956 0.0769231
20 18.162533 14.584851 0.05
21 18.146625 14.605 0.047619
18 18.136198 14.624373 0.0555556
19 18.13072 14.64294 0.0526316
28 18.129456 14.660668 0.0357143
18 18.131549 14.677526 0.0555556
21 18.136039 14.693482 0.047619
18 18.14188 14.708501 0.0555556
17 18.148099 14.72255 0.0588235
20 18.153786 14.735595 0.05
16 18.158307 14.7476 0.0625
31 18.161227 14.758529 0.0322581
18 18.162508 14.768348 0.0555556
20 18.162407 14.777017 0.05
27 18.161397 14.784501 0.037037
13 18.160342 14.79076 0.0769231
13 18.160061 14.795755 0.0769231
8 18.161641 14.799448 0.125
30 18.165931 14.801798 0.0333333
13 18.173997 14.802763 0.0769231
23 18.186507 14.802303 0.0434783
22 18.204243 14.800375 0.0454545
23 18.227663 14.796935 0.0434783
14 18.257264 14.79194 0.0714286
23 18.293325 14.785347 0.0434783
13 18.336095 14.777108 0.0769231
20 18.385751 14.767179 0.05
33 18.442266 14.755512 0.030303
20 18.505884 14.742061 0.05
17 18.576459 14.726777 0.0588235
18 18.654192 14.70961 0.0555556
18 18.738941 14.690512 0.0555556
23 18.830869 14.669431 0.0434783
28 18.92984 14.646317 0.0357143
13 19.036014 14.621116 0.0769231
23 19.149072 14.593776 0.0434783
18 19.269286 14.564243 0.0555556
22 19.3961 14.532463 0.0454545
21 19.529237 14.498379 0.047619
22 19.667754 14.461935 0.0454545
27 19.81017 14.423074 0.037037
22 19.954842 14.381738 0.0454545
12 20.098851 14.337868 0.0833333
27 20.238996 14.291403 0.037037
21 20.37083 14.242283 0.047619
21 20.489709 14.190446 0.047619
17 20.590061 14.13583 0.0588235
18 20.666599 14.078369 0.0555556
22 20.714055 14.018001 0.0454545
18 20.728196 13.95466 0.0555556
17 20.705962 13.888278 0.0588235
25 20.645968 13.818788 0.04
21 20.5487 13.746122 0.047619
21 20.416613 13.67021 0.047619
18 20.253342 13.590981 0.0555556
22 20.064114 13.508364 0.0454545
20 19.854241 13.422287 0.05
22 19.629758 13.332675 0.0454545
16 19.395723 13.239454 0.0625
22 19.157305 13.142549 0.0454545
18 18.918092 13.041881 0.0555556
15 18.681612 12.937373 0.0666667
28 18.449688 12.828947 0.0357143
29 18.224031 12.716521 0.0344828
loop_
_gsas_i100_meas
21.95
3.92
5.10
6.40
2.81
2.77
6.77
1.87
27.34
4.70
8.68
0.08
11.87
34.19
1.66
31.43
0.07
0.34
1.06
0.11
3.53
3.83
1.51
0.79
15.59
0.18
20.58
100.00
32.53
0.05
0.81
0.32
1.14
1.03
1.06
1.27
0.03
0.11
1.98
1.39
1.92
0.92
1.27
1.03
1.02
2.67
1.73
0.48
0.90
5.22
10.75
0.14
0.06
4.11
2.89
2.09
0.31
0.04
0.66
0.14
0.78
0.02
1.70
0.70
0.89
0.06
0.57
5.46
0.65
1.29
0.30
1.69
0.02
18.53
38.55
0.13
0.56
0.35
0.28
5.43
0.10
0.89
0.41
0.60
0.06
0.10
10.04
0.07
4.86
0.56
0.01
0.32
1.84
0.18
0.21
0.26
0.24
3.56
1.15
0.04
3.27
0.03
0.11
0.22
0.03
2.65
0.12
0.29
0.07
0.20
3.79
4.74
3.13
2.16
3.05
0.88
0.45
0.70
0.86
0.94
1.18
0.65
0.16
0.08
1.14
0.01
0.25
0.45
0.22
0.02
0.11
12.68
5.28
0.63
1.87
5.81
0.04
12.18
0.07
0.10
0.64
0.00
1.96
0.98
0.06
0.02
0.01
0.35
0.14
3.49
0.69
0.05
0.34
0.63
0.06
0.30
0.07
0.09
0.00
0.56
1.01
0.04
0.14
0.39
0.23
1.96
0.01
0.37
0.06
3.14
0.08
0.00
0.33
0.04
0.43
0.44
0.09
2.72
0.16
0.26
0.00
5.87
0.11
0.21
0.00
1.10
0.20
3.33
0.01
0.02
0.13
0.02
0.38
0.08
0.09
0.11
0.09
0.31
0.00
0.05
0.23
3.00
1.95
0.13
0.05
0.14
0.42
11.60
0.01
0.49
0.01
0.07
4.65
0.06
0.15
0.25
0.20
0.01
0.01
0.14
0.13
0.34
0.52
0.08
0.08
0.13
0.01
0.05
0.34
0.91
0.44
0.01
0.31
0.01
0.02
0.95
0.03
0.04
0.14
0.06
0.59
0.04
0.22
0.01
1.21
0.00
0.72
0.08
0.09
0.00
0.13
0.72
0.01
0.84
0.22
0.15
0.02
0.02
0.04
0.41
0.24
0.04
0.22
0.92
0.26
0.14
0.18
0.36
1.05
0.14
1.06
0.03
0.00
0.07
0.09
0.40
0.68
0.01
0.01
1.30
0.91
0.23
1.60
0.27
0.21
4.83
0.11
0.00
4.71
0.01
0.01
0.04
0.76
0.02
0.13
0.18
3.32
0.16
0.11
0.23
0.00
0.02
0.00
0.23
0.01
0.26
1.11
0.02
0.05
0.28
0.20
0.01
0.01
0.08
0.68
0.72
0.10
0.09
0.85
0.04
0.34
0.03
0.08
0.02
0.23
0.47
0.39
0.25
0.00
0.69
0.06
1.02
0.11
0.08
2.33
0.59
0.00
2.14
0.01
0.01
0.69
0.34
0.02
0.56
0.16
0.04
0.01
0.60
2.21
0.82
0.03
0.01
0.60
1.59
0.01
2.23
0.26
0.00
0.41
0.00
0.12
0.13
0.02
0.43
0.02
1.76
0.00
0.81
0.04
0.01
0.00
0.00
0.05
0.15
0.05
0.12
0.37
0.43
2.38
0.16
0.01
0.26
0.13
0.02
0.40
0.01
0.31
0.56
0.00
0.08
0.15
0.03
0.03
0.03
0.10
0.00
0.70
0.11
0.06
0.15
0.00
0.32
0.03
0.00
0.03
0.00
0.00
0.05
0.00
0.21
0.02
0.04
1.11
0.02
0.22
0.02
0.00
0.03
0.51
0.24
0.00
0.59
0.02
0.04
0.00
0.00
0.16
0.01
0.32
0.03
0.56
0.04
0.62
0.10
0.13
0.41
0.19
0.02
0.02
0.29
0.15
0.18
0.38
0.08
0.00
0.35
0.03
0.00
0.33
0.05
0.01
0.07
0.00
0.03
0.19
0.04
0.01
0.05
1.17
0.08
