#------------------------------------------------------------------------------
#$Date: 2022-02-04 21:20:07 +0200 (Fri, 04 Feb 2022) $
#$Revision: 272613 $
#$URL: file:///home/coder/svn-repositories/cod/cif/7/24/42/7244258.cif $
#------------------------------------------------------------------------------
#
# This file is available in the Crystallography Open Database (COD),
# http://www.crystallography.net/
#
# All data on this site have been placed in the public domain by the
# contributors.
#
data_7244258
loop_
_publ_author_name
'Yu, Xu'
'Tang, Baolei'
'Zhang, Hongyu'
_publ_section_title
;
 A controllable and defectless cutting postprocess method via cleavage of
 an elastic cocrystal based on pyrene and tetrachloroterephthalonitrile
;
_journal_issue                   5
_journal_name_full               CrystEngComm
_journal_page_first              942
_journal_page_last               946
_journal_paper_doi               10.1039/D1CE01438B
_journal_volume                  24
_journal_year                    2022
_chemical_formula_moiety         'C4 F2 N, C8 H5'
_chemical_formula_sum            'C12 H5 F2 N'
_chemical_formula_weight         201.17
_chemical_name_systematic        cocrystal
_space_group_crystal_system      monoclinic
_space_group_IT_number           14
_space_group_name_Hall           '-P 2ybc'
_space_group_name_H-M_alt        'P 1 21/c 1'
_atom_sites_solution_hydrogens   geom
_atom_sites_solution_primary     dual
_audit_creation_date             2020-09-27
_audit_creation_method
;
Olex2 1.3
(compiled Nov 21 2019 18:26:39 for OlexSys, GUI svn.r6003)
;
_audit_update_record
;
2021-05-18 deposited with the CCDC.	2022-01-03 downloaded from the CCDC.
;
_cell_angle_alpha                90
_cell_angle_beta                 102.303(6)
_cell_angle_gamma                90
_cell_formula_units_Z            4
_cell_length_a                   7.1268(11)
_cell_length_b                   8.6732(14)
_cell_length_c                   15.297(2)
_cell_measurement_reflns_used    7366
_cell_measurement_temperature    98.0
_cell_measurement_theta_max      26.662
_cell_measurement_theta_min      2.9255
_cell_volume                     923.8(2)
_computing_cell_refinement       'SAINT V8.40A (?, 2016)'
_computing_data_reduction        'SAINT V8.40A (?, 2016)'
_computing_molecular_graphics    'Olex2 1.3 (Dolomanov et al., 2009)'
_computing_publication_material  'Olex2 1.3 (Dolomanov et al., 2009)'
_computing_structure_refinement  'SHELXL 2018/3 (Sheldrick, 2015)'
_computing_structure_solution    'SHELXT 2018/2 (Sheldrick, 2018)'
_diffrn_ambient_temperature      98.0
_diffrn_measured_fraction_theta_full 0.997
_diffrn_measured_fraction_theta_max 0.997
_diffrn_measurement_device_type  'CCD area detector'
_diffrn_measurement_method       'phi and omega scans'
_diffrn_radiation_monochromator  graphite
_diffrn_radiation_type           MoK\a
_diffrn_radiation_wavelength     0.71073
_diffrn_reflns_av_R_equivalents  0.0296
_diffrn_reflns_av_unetI/netI     0.0159
_diffrn_reflns_Laue_measured_fraction_full 0.997
_diffrn_reflns_Laue_measured_fraction_max 0.997
_diffrn_reflns_limit_h_max       8
_diffrn_reflns_limit_h_min       -9
_diffrn_reflns_limit_k_max       10
_diffrn_reflns_limit_k_min       -10
_diffrn_reflns_limit_l_max       19
_diffrn_reflns_limit_l_min       -19
_diffrn_reflns_number            16599
_diffrn_reflns_point_group_measured_fraction_full 0.997
_diffrn_reflns_point_group_measured_fraction_max 0.997
_diffrn_reflns_theta_full        25.242
_diffrn_reflns_theta_max         26.717
_diffrn_reflns_theta_min         2.925
_exptl_absorpt_coefficient_mu    0.114
_exptl_absorpt_correction_type   none
_exptl_crystal_colour            'clear greenish green'
_exptl_crystal_colour_lustre     clear
_exptl_crystal_colour_modifier   greenish
_exptl_crystal_colour_primary    green
_exptl_crystal_density_diffrn    1.446
_exptl_crystal_description       needle
_exptl_crystal_F_000             408
_refine_diff_density_max         0.194
_refine_diff_density_min         -0.183
_refine_diff_density_rms         0.042
_refine_ls_extinction_method     none
_refine_ls_goodness_of_fit_ref   1.088
_refine_ls_hydrogen_treatment    constr
_refine_ls_matrix_type           full
_refine_ls_number_parameters     136
_refine_ls_number_reflns         1946
_refine_ls_number_restraints     0
_refine_ls_restrained_S_all      1.088
_refine_ls_R_factor_all          0.0680
_refine_ls_R_factor_gt           0.0444
_refine_ls_shift/su_max          0.000
_refine_ls_shift/su_mean         0.000
_refine_ls_structure_factor_coef Fsqd
_refine_ls_weighting_details
'w=1/[\s^2^(Fo^2^)+(0.0515P)^2^+0.2410P] where P=(Fo^2^+2Fc^2^)/3'
_refine_ls_weighting_scheme      calc
_refine_ls_wR_factor_gt          0.1066
_refine_ls_wR_factor_ref         0.1325
_reflns_Friedel_coverage         0.000
_reflns_number_gt                1420
_reflns_number_total             1946
_reflns_threshold_expression     'I > 2\s(I)'
_cod_data_source_file            d1ce01438b2.cif
_cod_data_source_block           mo_yuxu_0927_0m
_cod_depositor_comments
'Adding full bibliography for 7244257--7244258.cif.'
_cod_original_cell_volume        923.8(3)
_cod_database_code               7244258
_shelx_shelxl_version_number     2018/3
_shelx_space_group_comment
;
The symmetry employed for this shelxl refinement is uniquely defined
by the following loop, which should always be used as a source of
symmetry information in preference to the above space-group names.
They are only intended as comments.
;
_olex2_refinement_description
;
1. Fixed Uiso
 At 1.2 times of:
  All C(H) groups
2.a Aromatic/amide H refined with riding coordinates:
 C00B(H00B), C00C(H00C), C00D(H00D), C00E(H00E), C00F(H00F)
;
_shelx_res_file
;
TITL mo_yuxu_0927_0m_a.res in P2(1)/c
    mo_yuxu_0927_0m.res
    created by SHELXL-2018/3 at 11:26:38 on 27-Sep-2020
REM Old TITL mo_YUXU_0927_0m in P21/c #14
REM SHELXT solution in P2(1)/c: R1 0.187, Rweak 0.004, Alpha 0.028
REM <I/s> 0.670 for 132 systematic absences, Orientation as input
REM Formula found by SHELXT: C12 N F2
CELL 0.71073 7.1268 8.6732 15.2974 90 102.303 90
ZERR 4 0.0011 0.0014 0.0024 0 0.006 0
LATT 1
SYMM -X,0.5+Y,0.5-Z
SFAC C H F N
UNIT 48 20 8 4

L.S. 10
PLAN  5
TEMP -175.15
CONF
list 4
MORE -1
fmap 2 53
acta
BOND $H
REM <olex2.extras>
REM <HklSrc "%.\\mo_YUXU_0927_0m.hkl">
REM </olex2.extras>

WGHT    0.051500    0.241000
FVAR       1.35614
F001  3    0.633809    0.539924    0.677613    11.00000    0.08832    0.10282 =
         0.05473   -0.00198    0.00012    0.01080
F002  3    0.503121    0.260918    0.614036    11.00000    0.09751    0.07643 =
         0.08407    0.02601    0.01962    0.00902
C003  1    0.041531    0.558635    0.530129    11.00000    0.04113    0.06588 =
         0.05530   -0.01107    0.01579   -0.00070
N004  4    0.307199    0.092088    0.402132    11.00000    0.08962    0.08265 =
         0.12432   -0.01927    0.02063   -0.01456
C005  1    0.071152    0.708507    0.498186    11.00000    0.05057    0.07236 =
         0.07563   -0.01164    0.02226   -0.00063
C006  1    0.501165    0.378670    0.557768    11.00000    0.05510    0.06364 =
         0.06315    0.01127    0.01337    0.01046
C007  1    0.567709    0.520240    0.590057    11.00000    0.05304    0.07401 =
         0.05149   -0.00053    0.00616    0.01024
C008  1    0.431829    0.355908    0.466790    11.00000    0.04813    0.06145 =
         0.06490   -0.00156    0.01111    0.00551
C009  1    0.096981    0.525408    0.623250    11.00000    0.04850    0.09221 =
         0.05694   -0.01585    0.01410    0.00012
C00A  1    0.362943    0.208194    0.431767    11.00000    0.05993    0.06997 =
         0.08711   -0.00604    0.01570   -0.00034
C00B  1    0.155995    0.821067    0.559669    11.00000    0.06907    0.07327 =
         0.11233   -0.02932    0.03276   -0.00952
AFIX  43
H00B  2    0.177340    0.921856    0.539501    11.00000   -1.20000
AFIX   0
C00C  1   -0.014253    0.262328    0.595375    11.00000    0.07051    0.07847 =
         0.08316    0.00823    0.02466    0.00243
AFIX  43
H00C  2   -0.033244    0.162507    0.617550    11.00000   -1.20000
AFIX   0
C00D  1    0.180587    0.641683    0.681520    11.00000    0.06812    0.11941 =
         0.06622   -0.03344    0.01465   -0.00881
AFIX  43
H00D  2    0.218403    0.621085    0.743789    11.00000   -1.20000
AFIX   0
C00E  1    0.065433    0.372517    0.652785    11.00000    0.06873    0.10294 =
         0.06183    0.01073    0.01874    0.00462
AFIX  43
H00E  2    0.102012    0.348741    0.714706    11.00000   -1.20000
AFIX   0
C00F  1    0.208663    0.785711    0.649579    11.00000    0.07352    0.10787 =
         0.09721   -0.05234    0.02243   -0.01308
AFIX  43
H00F  2    0.265965    0.863344    0.690466    11.00000   -1.20000
AFIX   0
HKLF 4




REM  mo_yuxu_0927_0m_a.res in P2(1)/c
REM wR2 = 0.1325, GooF = S = 1.088, Restrained GooF = 1.088 for all data
REM R1 = 0.0444 for 1420 Fo > 4sig(Fo) and 0.0680 for all 1946 data
REM 136 parameters refined using 0 restraints

END

WGHT      0.0515      0.2410

REM Highest difference peak  0.194,  deepest hole -0.183,  1-sigma level  0.042
Q1    1   0.4476  0.3806  0.5135  11.00000  0.05    0.19
Q2    1   0.1570  0.4708  0.7219  11.00000  0.05    0.16
Q3    1   0.1113  0.4045  0.7450  11.00000  0.05    0.15
Q4    1   0.3186  0.9329  0.7599  11.00000  0.05    0.15
Q5    1   0.5714  0.4448  0.6920  11.00000  0.05    0.15
;
_shelx_res_checksum              40236
_shelx_hkl_file
;
  -1   0   0   49.50    1.80
  -1   0   0   50.19    1.90
   1   0   0   41.30    1.70
   2   0   0 7867.71  132.29
  -2   0   0 7889.61  132.19
  -3   0   0  117.09    4.60
  -3   0   0  114.69    3.30
  -3   0   0  115.39    4.50
   3   0   0  116.79    4.60
   4   0   0    2.60    1.10
  -4   0   0   -0.20    1.10
  -4   0   0    2.00    0.70
  -4   0   0    1.60    1.20
  -5   0   0    2.60    0.90
   5   0   0    2.80    1.20
  -5   0   0    2.30    1.20
  -5   0   0    2.80    1.50
  -6   0   0   14.80    2.30
  -6   0   0   13.90    2.50
  -6   0   0   14.50    3.40
  -7   0   0   82.59    7.00
  -7   0   0   77.99    6.30
  -7   0   0   91.19    6.00
  -8   0   0   20.30    4.00
  -8   0   0   19.90    3.00
  -8   0   0   21.50    3.90
  -1  -1   0  700.33   12.50
  -1  -1   0  674.43   13.30
   1  -1   0  681.93   13.60
   1  -1   0  695.13   12.40
   1   1   0  664.63   13.40
   1   1   0  686.13   12.60
  -1   1   0  692.13   12.40
  -2   1   0 9999.00  168.28
  -3  -1   0  237.18    6.00
   3  -1   0  250.37    7.90
  -3  -1   0  249.38    8.10
   3  -1   0  238.78    5.60
  -3  -1   0  244.78    6.80
  -3   1   0  239.48    5.60
   3   1   0  239.48    6.90
  -3   1   0  249.08    7.50
  -3   1   0  235.78    7.60
   3   1   0  247.58    6.20
   4  -1   0   97.49    5.40
  -4  -1   0   87.29    4.20
  -4  -1   0   96.19    4.70
  -4  -1   0   95.99    5.90
   4   1   0   92.59    4.60
  -4   1   0   93.39    5.30
  -4   1   0   93.09    3.20
  -4   1   0   76.09    5.40
  -5  -1   0   26.10    3.50
   5  -1   0   22.60    3.60
  -5  -1   0   23.00    2.90
  -5  -1   0   24.30    4.00
  -5  -1   0   27.80    2.40
  -5   1   0   25.80    3.70
  -5   1   0   24.30    2.00
   5   1   0   27.00    3.50
  -6  -1   0   36.70    2.70
  -6  -1   0   40.60    4.40
   6  -1   0   40.60    5.50
  -6  -1   0   38.80    5.20
  -6   1   0   38.90    4.80
  -6   1   0   40.70    4.80
  -7  -1   0   27.10    7.20
  -7  -1   0   40.60    5.00
  -7  -1   0   32.10    3.80
  -7   1   0   19.90    3.10
  -7   1   0   26.20    5.10
  -8  -1   0    0.60    2.90
  -8  -1   0   -2.00    2.20
  -8  -1   0   -0.10    1.60
  -8   1   0    1.00    2.50
  -8   1   0   -1.50    1.90
  -8   1   0   -2.40    1.30
  -8   1   0   -0.40    2.20
   0  -2   0 1597.54   28.50
   0  -2   0 1645.54   28.80
   0  -2   0 1606.44   28.60
   0   2   0 1530.35   28.60
   0   2   0 1604.44   28.60
   1  -2   0  183.48    5.10
  -1  -2   0  199.98    5.30
   1  -2   0  194.08    5.50
  -1  -2   0  189.78    5.80
   1  -2   0  193.28    6.10
  -1  -2   0  197.68    4.80
  -1  -2   0  194.88    4.20
  -1   2   0  190.68    6.00
   1   2   0  190.48    4.20
   1   2   0  193.78    4.80
  -1   2   0  191.28    5.50
   1   2   0  184.38    5.80
  -1   2   0  195.88    5.20
  -2  -2   0  310.37    8.60
   2  -2   0  300.07    7.00
  -2  -2   0  304.87    7.20
  -2   2   0  307.97    8.80
   2   2   0  297.37    8.60
   2   2   0  303.77    7.20
  -2   2   0  303.87    7.00
   3  -2   0 1040.90   19.50
   3  -2   0 1041.60   22.70
  -3  -2   0 1038.10   20.20
  -3  -2   0  994.20   22.30
  -3   2   0  996.50   19.20
   3   2   0 1009.20   20.30
  -3   2   0 1098.39   26.60
  -4  -2   0  689.23   17.60
   4  -2   0  698.43   13.90
   4  -2   0  658.23   17.50
  -4  -2   0  688.73   15.40
  -4  -2   0  671.33   13.00
  -4   2   0  680.73   13.20
  -4   2   0  665.53   13.60
  -4   2   0  700.43   16.80
  -4   2   0  669.33   17.40
   4   2   0  681.33   15.50
  -5  -2   0    2.30    2.00
  -5  -2   0    3.30    1.10
  -5  -2   0    4.10    1.60
  -5   2   0    4.90    1.20
  -5   2   0    1.20    1.10
   5   2   0    5.20    1.60
  -5   2   0    3.90    1.90
  -5   2   0    2.80    1.80
   6  -2   0  128.19    7.60
  -6  -2   0  126.59    4.90
  -6  -2   0  121.79    5.10
  -6  -2   0  122.99    8.00
  -6  -2   0  128.39    6.60
   6   2   0  120.49    6.50
  -6   2   0  125.99    7.80
  -6   2   0  129.79    7.40
  -6   2   0  125.69    4.80
  -7  -2   0   20.00    2.50
  -7  -2   0   14.90    4.00
  -7  -2   0   15.60    1.90
  -7  -2   0   12.60    2.70
  -7  -2   0   12.10    1.70
  -7   2   0   12.20    2.90
  -7   2   0   12.90    2.90
  -7   2   0   14.30    1.80
  -8  -2   0    1.20    3.40
  -8  -2   0   -0.40    1.30
  -8  -2   0    0.80    2.20
  -8   2   0    2.50    2.40
  -8   2   0    2.20    2.10
  -8   2   0    2.60    1.70
  -8   2   0    4.10    1.50
   0  -3   0    0.40    1.00
   0  -3   0   -0.10    0.70
   0  -3   0   -0.60    0.90
   0   3   0   -0.50    1.10
   0   3   0    0.30    0.80
   0   3   0    0.90    1.00
  -1  -3   0 1260.37   23.40
   1  -3   0 1301.87   25.80
   1  -3   0 1288.97   24.70
  -1  -3   0 1286.07   24.50
  -1  -3   0 1322.97   23.60
  -1  -3   0 1299.47   25.20
   1  -3   0 1292.87   22.70
   1  -3   0 1256.27   24.20
   1   3   0 1274.97   25.20
   1   3   0 1281.27   23.20
  -1   3   0 1279.37   24.70
  -1   3   0 1271.27   24.30
   1   3   0 1301.17   23.60
  -1   3   0 1253.47   25.40
  -2  -3   0  409.66   14.50
  -2  -3   0  382.36    9.70
   2  -3   0  395.36   11.30
  -2  -3   0  399.16    9.10
   2  -3   0  375.86    9.20
   2   3   0  376.36   10.80
  -2   3   0  386.46   14.20
  -2   3   0  385.96    9.30
   2   3   0  386.46    9.00
  -2   3   0  384.56   10.00
   3  -3   0   56.99    3.10
   3  -3   0   57.49    4.50
  -3  -3   0   55.19    3.60
  -3  -3   0   61.79    3.70
   3   3   0   53.49    3.30
  -3   3   0   50.99    3.10
  -3   3   0   49.30    4.40
   3   3   0   50.09    4.30
  -4  -3   0    7.80    1.80
   4  -3   0    9.00    1.50
  -4  -3   0   10.30    1.80
  -4  -3   0    4.90    2.20
   4  -3   0   10.10    2.60
  -4   3   0    6.50    2.10
   4   3   0    8.30    1.70
  -4   3   0    9.20    1.50
  -5  -3   0   14.70    2.40
  -5  -3   0   14.00    2.10
   5  -3   0   11.50    2.50
   5  -3   0   18.10    2.30
  -5  -3   0   14.40    3.00
   5   3   0   19.50    2.80
  -5   3   0    9.80    2.40
  -5   3   0   14.70    2.70
  -5   3   0   14.70    1.80
  -6  -3   0    3.30    2.20
  -6  -3   0    1.30    1.40
  -6  -3   0   -0.40    1.80
   6  -3   0    2.20    1.80
  -6   3   0    1.70    1.90
   6   3   0    5.40    1.80
  -6   3   0    1.30    1.10
  -6   3   0    2.90    2.00
   7  -3   0   -1.70    1.60
  -7  -3   0   -0.70    2.20
  -7  -3   0    2.40    2.00
  -7   3   0   -1.40    2.60
  -7   3   0   -1.10    1.70
   7   3   0    0.30    1.70
  -8  -3   0    2.20    1.20
  -8  -3   0    0.10    2.60
  -8  -3   0   -1.80    2.20
  -8   3   0   -1.70    2.20
  -8   3   0   -3.00    1.90
   0  -4   0  496.35   12.20
   0  -4   0  462.45   11.70
   0  -4   0  516.25   14.20
   0   4   0  493.15   12.00
   0   4   0  475.65   12.10
   0   4   0  490.45   13.50
  -1  -4   0   54.69    3.10
   1  -4   0   57.89    4.80
   1  -4   0   58.49    3.50
   1  -4   0   49.50    3.80
   1  -4   0   56.29    2.70
  -1  -4   0   58.29    3.70
  -1  -4   0   55.69    4.10
  -1   4   0   54.59    3.80
   1   4   0   55.39    3.30
   1   4   0   58.19    4.10
   1   4   0   55.39    3.00
  -1   4   0   60.09    6.10
  -2  -4   0  546.35   14.20
  -2  -4   0  539.55   12.00
  -2  -4   0  523.25   13.00
   2  -4   0  527.85   12.60
   2  -4   0  524.55   14.70
  -2   4   0  549.45   14.70
   2   4   0  536.95   12.00
   2   4   0  540.35   14.30
  -2   4   0  525.25   13.30
   3  -4   0   65.19    3.70
  -3  -4   0   65.89    5.20
   3  -4   0   64.49    5.20
  -3  -4   0   68.99    4.20
  -3  -4   0   74.89    6.70
  -3   4   0   68.19    4.80
  -3   4   0   71.59    5.50
  -3   4   0   67.49    4.70
   3   4   0   70.49    5.20
   3   4   0   75.09    3.90
   4  -4   0    1.80    1.60
  -4  -4   0    4.20    2.20
  -4  -4   0    4.20    1.60
   4  -4   0    2.00    1.10
  -4  -4   0    2.90    1.70
   4   4   0    2.30    1.40
   4   4   0    3.40    2.20
  -4   4   0    1.90    1.40
  -4   4   0    2.60    2.20
  -4   4   0    1.10    1.50
  -5  -4   0   11.00    2.20
   5  -4   0   13.80    2.00
  -5  -4   0   14.70    2.70
   5  -4   0    9.30    2.50
  -5  -4   0   20.30    4.30
  -5   4   0   16.80    2.80
  -5   4   0   14.30    3.00
   5   4   0   14.90    2.80
  -5   4   0   15.70    2.20
  -5   4   0   19.20    3.60
   6  -4   0    4.90    1.40
  -6  -4   0    2.80    4.20
  -6  -4   0    3.30    2.00
  -6  -4   0    2.10    1.70
   6  -4   0    2.20    1.80
   6   4   0    1.20    1.40
  -6   4   0    4.60    1.40
  -6   4   0    2.40    1.90
  -6   4   0    5.00    2.30
   7  -4   0   -0.20    2.60
  -7  -4   0    3.60    1.90
  -7  -4   0    4.80    2.30
  -7  -4   0    3.80    2.70
  -7   4   0    4.70    2.50
   7   4   0    6.30    2.30
  -7   4   0    5.00    2.70
  -7   4   0    7.00    2.20
  -8  -4   0    1.00    2.70
  -8  -4   0    1.10    3.80
  -8  -4   0    2.70    1.80
  -8   4   0    1.90    2.40
  -8   4   0    4.10    2.70
   0  -5   0   -0.70    0.80
   0  -5   0    0.80    1.10
   0  -5   0    0.00    1.20
   0   5   0   -1.10    1.30
   0   5   0    0.00    1.70
   0   5   0    2.30    1.60
  -1  -5   0   87.09    4.80
   1  -5   0   87.59    5.10
   1  -5   0   89.49    3.80
   1  -5   0   82.39    5.20
  -1  -5   0   77.89    5.20
  -1  -5   0   85.39    4.30
   1  -5   0   90.09    4.80
  -1   5   0   91.19    5.50
   1   5   0   83.89    5.20
   1   5   0   92.99    4.40
  -1   5   0   93.39    5.10
   1   5   0   85.69    4.20
  -1   5   0   85.89    5.10
  -2  -5   0  339.47   10.40
  -2  -5   0  349.77   11.40
   2  -5   0  349.57   10.10
   2  -5   0  347.97    7.60
   2  -5   0  342.87   11.90
   2   5   0  345.17    9.40
   2   5   0  348.27    8.10
  -2   5   0  339.57   10.70
  -2   5   0  343.57   10.20
  -2   5   0  361.16   11.90
  -3  -5   0  121.59    7.20
  -3  -5   0  120.29    5.50
   3  -5   0  117.09    5.60
   3  -5   0  119.09    7.60
  -3  -5   0  128.99    7.30
  -3   5   0  117.19    5.80
  -3   5   0  114.39    7.30
  -3   5   0  125.49    6.60
   3   5   0  113.19    6.90
   3   5   0  116.39    5.30
   4  -5   0   78.79    4.60
  -4  -5   0   72.79    6.20
  -4  -5   0   73.59    5.30
   4  -5   0   81.89    6.70
  -4  -5   0   78.79    5.30
  -4   5   0   67.99    5.60
  -4   5   0   80.49    6.90
   4   5   0   73.29    6.40
  -4   5   0   84.29    5.10
   4   5   0   77.09    4.80
  -5  -5   0  382.76   11.80
   5  -5   0  358.96   14.90
  -5  -5   0  378.06   11.40
   5  -5   0  371.06   10.80
  -5  -5   0  368.66   14.10
  -5   5   0  376.86   10.80
  -5   5   0  364.76   12.80
   5   5   0  364.06   11.30
  -5   5   0  379.76   14.70
   6  -5   0   -0.70    2.20
   6  -5   0   -0.60    1.20
  -6  -5   0    0.20    1.90
  -6  -5   0   -1.40    1.60
  -6  -5   0    1.90    3.20
   6   5   0    2.10    1.70
  -6   5   0   -0.30    1.80
  -6   5   0    0.60    1.50
  -6   5   0    4.30    2.40
  -6   5   0    3.60    2.30
  -7  -5   0    1.80    1.80
  -7  -5   0    2.40    2.30
  -7  -5   0   -0.70    3.00
   7  -5   0    0.10    1.30
   7   5   0    2.40    2.00
  -7   5   0    6.00    2.70
  -7   5   0   -0.90    2.30
  -7   5   0    6.30    2.80
   0  -6   0   51.99    4.20
   0  -6   0   53.39    4.30
   0  -6   0   50.99    3.80
   0  -6   0   49.00    4.70
   0   6   0   49.00    3.90
   0   6   0   50.29    4.90
   0   6   0   51.69    4.40
  -1  -6   0   12.30    2.30
   1  -6   0   13.40    2.50
   1  -6   0   12.80    2.20
   1  -6   0   16.70    2.40
   1  -6   0   14.40    2.90
  -1  -6   0   21.50    2.90
  -1  -6   0    9.80    2.50
   1   6   0    9.90    2.10
  -1   6   0   12.60    2.40
  -1   6   0   16.30    3.80
  -1   6   0   15.80    2.80
   1   6   0   12.80    2.30
   1   6   0   20.90    3.60
   2  -6   0   39.10    4.80
   2  -6   0   41.80    2.60
   2  -6   0   39.30    4.40
  -2  -6   0   44.40    5.20
   2  -6   0   43.60    4.00
  -2  -6   0   42.40    4.50
  -2   6   0   42.20    4.70
   2   6   0   40.10    3.10
  -2   6   0   47.30    5.40
   2   6   0   40.60    3.70
  -2   6   0   48.50    4.70
   2   6   0   34.90    4.60
   3  -6   0   82.69    5.30
  -3  -6   0   83.89    6.80
  -3  -6   0   72.89    5.60
   3  -6   0   87.49    7.10
   3   6   0   86.49    6.70
  -3   6   0   80.69    6.10
  -3   6   0   90.19    5.90
  -3   6   0   82.29    7.20
   3   6   0   78.89    4.90
  -4  -6   0  195.48   10.20
  -4  -6   0  197.68    8.80
  -4  -6   0  203.68    8.00
   4  -6   0  192.58    8.00
   4   6   0  197.88    9.00
  -4   6   0  202.38    8.40
  -4   6   0  195.88   10.50
  -4   6   0  201.68    9.20
  -5  -6   0   21.20    3.00
   5  -6   0   18.70    2.80
  -5  -6   0   20.40    4.00
  -5  -6   0   18.40    3.30
  -5   6   0   32.90    4.80
  -5   6   0   19.90    2.90
   5   6   0   20.30    2.90
  -5   6   0   16.80    3.90
  -6  -6   0   26.40    3.50
   6  -6   0   27.30    3.90
  -6  -6   0   22.40    3.90
  -6  -6   0   34.50    4.70
  -6   6   0   28.40    4.50
   6   6   0   25.30    3.50
  -6   6   0   25.90    4.10
  -6   6   0   41.70    6.40
  -6   6   0   33.90    4.40
   7  -6   0    6.00    1.90
  -7  -6   0    9.70    3.70
  -7  -6   0    6.10    2.50
  -7  -6   0    8.10    5.00
   7   6   0   12.70    3.80
  -7   6   0   12.50    3.30
  -7   6   0   11.90    3.60
   0  -7   0    0.20    2.40
   0  -7   0    0.20    1.80
   0  -7   0   -0.30    1.60
   0  -7   0   -1.80    1.50
   0   7   0   -1.50    1.60
   0   7   0    2.00    1.80
   0   7   0    2.50    2.60
   1  -7   0    3.80    1.90
   1  -7   0    2.30    2.30
  -1  -7   0    2.70    2.10
  -1  -7   0    7.00    3.20
   1  -7   0    5.70    2.30
   1  -7   0    4.60    2.30
  -1  -7   0    1.70    1.60
   1   7   0    4.50    2.90
  -1   7   0    2.10    2.10
  -1   7   0    3.30    2.40
   1   7   0    5.20    2.00
   1   7   0    4.70    1.90
  -2  -7   0  220.68    9.60
   2  -7   0  221.48   10.90
   2  -7   0  218.28    9.20
   2  -7   0  221.88   10.00
  -2  -7   0  220.08   10.40
   2  -7   0  232.68    6.70
   2   7   0  221.68    8.40
   2   7   0  230.48   10.70
   2   7   0  233.58    7.60
  -2   7   0  241.08    9.90
  -2   7   0  242.98   11.20
  -2   7   0  227.68   10.00
   3  -7   0    0.40    1.70
   3  -7   0    1.60    1.70
  -3  -7   0    0.40    1.70
  -3  -7   0   -0.10    2.30
   3   7   0   -0.70    1.60
  -3   7   0   -0.90    2.10
  -3   7   0    0.30    2.20
  -3   7   0    0.60    1.90
  -4  -7   0   35.30    5.70
   4  -7   0   32.50    3.90
  -4  -7   0   32.70    4.70
  -4   7   0   24.30    3.60
  -4   7   0   22.20    3.70
  -4   7   0   19.50    3.60
   4   7   0   26.30    3.10
   5  -7   0   -0.10    1.40
   5  -7   0    0.30    2.00
  -5  -7   0   -2.30    1.80
  -5  -7   0    1.70    1.80
  -5  -7   0    1.30    2.50
  -5   7   0   -1.60    1.60
  -5   7   0    1.90    2.10
  -5   7   0   -1.40    1.90
  -6  -7   0   -2.70    4.20
   6  -7   0    2.60    1.80
  -6  -7   0    0.10    3.50
  -6  -7   0    3.00    2.30
  -6   7   0   -3.90    1.80
  -6   7   0    1.80    2.60
   6   7   0    0.60    2.10
  -6   7   0    2.10    2.80
   0  -8   0   36.00    5.40
   0  -8   0   21.20    3.20
   0  -8   0   23.10    3.70
   0  -8   0   19.20    3.30
   0   8   0   25.80    4.50
   0   8   0   22.00    3.40
   0   8   0   31.90    4.20
   1  -8   0   91.59    7.30
   1  -8   0   90.79    6.70
   1  -8   0   91.99    7.10
  -1  -8   0   86.59    7.30
  -1  -8   0   85.79    6.40
   1  -8   0   84.89    5.30
  -1  -8   0   90.99    6.20
   1   8   0   90.59    6.10
  -1   8   0   93.69    7.20
   1   8   0   83.09    5.60
  -1   8   0   88.19    7.20
   1   8   0   87.99    7.20
   2  -8   0   75.19    5.90
   2  -8   0   99.99    4.70
   2  -8   0  113.99    7.60
  -2  -8   0   85.39    6.70
  -2  -8   0   99.79    7.10
   2  -8   0   91.19    7.80
   2   8   0   99.99    5.90
   2   8   0   95.19    5.30
   2   8   0   97.49    7.80
  -2   8   0  101.99    8.00
  -2   8   0   97.59    7.30
  -3  -8   0   53.39    8.60
   3  -8   0   55.89    5.40
   3  -8   0   55.39    8.50
  -3  -8   0   55.39    6.80
  -3   8   0   66.49    7.00
  -3   8   0   57.89    6.20
   3   8   0   59.09    4.90
  -4  -8   0   54.59    5.90
   4  -8   0   67.29    8.40
  -4  -8   0   62.09    7.10
   4  -8   0   62.39    5.70
   4   8   0   57.99   10.50
   4   8   0   43.50    4.70
  -4   8   0   62.39    7.40
  -5  -8   0    6.30    3.70
  -5  -8   0   -0.70    2.30
   5   8   0    2.70    2.00
  -5   8   0    9.30    3.40
  -5   8   0    4.50    2.70
  -6  -8   0   -0.20    3.70
  -6   8   0   -0.80    3.00
  -6   8   0   -4.90    2.80
   0  -9   0   -1.00    2.00
   0  -9   0    1.30    1.70
   0  -9   0   -2.00    2.20
   0  -9   0   -1.90    1.40
   0   9   0   -3.40    2.10
   0   9   0   -2.50    1.40
   0   9   0    3.50    1.80
   1  -9   0    2.40    2.30
   1  -9   0   -1.60    1.70
   1  -9   0   -0.10    1.60
  -1  -9   0   -0.80    2.20
   1  -9   0   -1.40    1.80
  -1  -9   0    0.00    1.90
   1   9   0   -0.60    1.60
  -1   9   0    1.40    2.00
  -1   9   0   -1.40    3.00
  -2  -9   0   -2.30    1.90
   2  -9   0   -0.70    2.00
   2  -9   0    0.80    2.30
   2  -9   0    1.50    2.30
  -2  -9   0    0.20    2.10
  -2  -9   0   -3.00    2.40
   2  -9   0   -0.20    1.30
   2   9   0   -2.90    1.40
   2   9   0   -3.90    2.30
  -2   9   0    0.50    2.40
   2   9   0    0.20    1.50
  -2   9   0    0.70    2.20
  -3  -9   0   14.90    3.30
  -3  -9   0   20.40    4.80
   3  -9   0   16.90    3.30
   3  -9   0    8.90    4.50
  -3   9   0   19.80    3.90
   3   9   0   19.30    2.80
  -3   9   0   17.80    4.10
   3   9   0   13.00    2.70
   4  -9   0   15.70    3.50
  -4  -9   0   14.50    4.00
  -4  -9   0   17.10    4.00
   4   9   0    9.30    2.60
  -4   9   0   11.50    3.70
  -5  -9   0    7.00    4.40
  -5  -9   0   15.40    4.20
  -5   9   0    4.10    3.50
   0 -10   0    4.10    2.10
   0 -10   0    4.40    3.00
   0  10   0   -0.30    2.20
   0  10   0    4.40    2.10
   1 -10   0   -2.10    1.80
   1 -10   0    0.50    1.90
  -1 -10   0    2.10    3.00
   1 -10   0    2.60    2.40
  -1 -10   0   -2.90    1.60
  -1  10   0   -2.60    1.90
  -1  10   0    1.00    1.70
   1  10   0   -0.80    1.70
  -2 -10   0   15.90    3.70
  -2 -10   0   15.60    3.40
   2 -10   0   21.90    3.10
   2  10   0   11.90    2.40
  -2  10   0   15.30    3.70
  -3 -10   0   -1.50    2.80
  -3 -10   0    1.20    2.80
  -3  10   0    0.10    2.70
   3  10   0   -1.90    1.70
  -8   0   1    1.70    2.10
  -8   0   1   -2.10    2.00
  -8   0   1    4.50    3.00
  -8   0   1   -1.60    1.50
  -7   0   1    1.10    0.90
  -7   0   1    0.20    1.40
  -7   0   1    1.00    1.90
  -7   0   1   -0.60    2.30
  -6   0   1    0.50    1.30
  -6   0   1   -0.40    0.90
  -6   0   1   -2.00    1.90
  -6   0   1   -1.40    1.50
  -5   0   1    0.50    0.80
  -5   0   1   -0.50    1.20
  -5   0   1   -1.30    1.70
  -5   0   1   -0.30    1.00
  -4   0   1    0.50    0.80
  -4   0   1   -0.60    0.90
  -3   0   1   -0.10    1.00
  -3   0   1   -0.20    0.70
  -3   0   1   -0.30    0.80
  -2   0   1    2.50    1.00
  -2   0   1    1.80    1.20
  -1   0   1   28.60    1.50
  -1   0   1   34.60    1.50
  -1   0  -1    2.00    0.60
   1   0   1    2.20    0.60
   1   0   1    2.50    0.50
  -1   0  -1    1.60    0.50
   2   0   1   -1.20    0.80
   2   0   1    0.10    1.00
  -2   0  -1   -0.90    0.70
  -2   0  -1    0.80    0.90
  -3   0  -1    0.20    0.80
   3   0   1    0.80    0.80
   3   0   1   -1.00    0.80
  -3   0  -1   -0.70    0.90
   4   0   1    0.90    1.10
   4   0   1   -0.40    1.10
  -4   0  -1    0.40    1.10
  -4   0  -1    0.20    1.20
  -5   0  -1    0.10    1.10
  -5   0  -1    0.30    1.40
   5   0   1   -0.90    0.90
   6   0   1    0.50    1.30
  -6   0  -1    0.10    1.30
  -6   0  -1   -1.50    1.70
  -7   0  -1    2.00    3.40
  -7   0  -1   -1.60    2.80
  -7   0  -1   -0.60    1.50
  -8   0  -1    0.70    1.70
  -8   0  -1    2.20    2.80
  -8   0  -1    2.90    1.90
  -8   0  -1   -1.10    2.10
  -8  -1   1   12.10    3.30
  -8  -1   1   15.10    3.00
  -8  -1   1   15.20    1.90
  -8  -1   1   18.10    2.40
  -8  -1   1   12.40    3.50
  -8  -1   1   12.10    2.30
  -8   1   1   16.90    2.60
  -8   1   1   12.70    3.40
  -8   1   1   18.10    3.20
  -8   1   1   14.00    3.60
  -7  -1   1    4.60    1.30
  -7  -1   1    4.70    2.00
  -7  -1   1    3.30    2.20
  -7  -1   1    1.40    1.40
  -7   1   1    6.40    2.20
  -7   1   1    7.70    2.00
  -7   1   1    1.90    1.90
  -7   1   1    4.40    1.10
  -6  -1   1  121.79    8.20
  -6  -1   1  127.39    5.00
  -6  -1   1  134.69    6.50
  -6  -1   1  123.39    7.80
  -6   1   1  129.09    4.60
  -6   1   1  126.19    7.20
  -6   1   1  116.09    7.00
  -5  -1   1   28.20    3.50
  -5  -1   1   30.10    2.70
  -5  -1   1   30.90    4.20
  -5  -1   1   26.70    3.10
   5  -1  -1   29.40    3.80
  -5   1   1   26.80    3.90
  -5   1   1   28.30    2.40
  -5   1   1   30.40    4.00
   4  -1  -1  394.46   11.50
  -4  -1   1  399.96   10.00
  -4  -1   1  410.46   11.90
  -4  -1   1  400.76   12.60
   4   1  -1  398.26   10.30
  -4   1   1  375.56   13.30
  -4   1   1  389.36    9.00
  -4   1   1  390.86   11.00
   3  -1  -1  142.59    5.70
  -3  -1   1  144.49    5.80
  -3  -1   1  143.89    4.80
  -3  -1   1  141.19    4.40
   3  -1  -1  140.79    4.30
  -3   1   1  140.69    5.30
  -3   1   1  140.99    5.70
   3   1  -1  139.29    4.70
  -3   1   1  136.79    4.20
  -1  -1   1    6.20    1.20
   1  -1  -1    3.60    0.90
   1  -1  -1    3.50    1.20
   1   1  -1    4.40    0.90
  -1   1   1    5.50    0.90
  -1   1   1    3.10    0.80
   1  -1   1  156.68    3.50
  -1  -1  -1  154.58    4.70
   1  -1   1  149.99    4.60
   1  -1   1  157.28    3.50
  -1  -1  -1  155.08    4.10
  -1  -1  -1  151.68    3.70
  -1   1  -1  151.08    3.40
   1   1   1  160.28    3.20
  -1   1  -1  159.48    3.50
   1   1   1  150.98    4.60
  -1   1  -1  153.78    4.60
   1   1   1  160.48    3.80
  -2  -1  -1  358.56    9.10
   2  -1   1  380.46    9.60
  -2  -1  -1  391.66    9.90
  -2  -1  -1  386.66    8.70
   2  -1   1  383.86    7.20
  -2  -1  -1  365.36    7.50
   2   1   1  377.66    7.70
  -2   1  -1  378.36    7.20
   2   1   1  382.86    8.80
  -2   1  -1  381.16    7.70
  -2   1  -1  368.46    9.40
   3  -1   1    0.90    0.90
  -3  -1  -1    1.10    0.70
  -3  -1  -1    1.70    1.10
   3   1   1    0.20    0.90
   3   1   1   -0.30    0.60
  -3   1  -1    0.00    0.90
  -4  -1  -1  246.88    8.00
  -4  -1  -1  246.68    6.90
   4  -1   1  246.28    8.70
  -4  -1  -1  239.78    9.30
  -4   1  -1  241.48    8.50
  -4   1  -1  245.48    8.60
   4   1   1  249.48    7.20
   4   1   1  232.08    7.90
   5  -1   1   10.60    2.10
  -5  -1  -1   12.60    1.80
  -5  -1  -1   13.60    3.10
  -5  -1  -1   13.50    2.40
  -5   1  -1   13.40    2.10
   5   1   1   18.10    2.80
   5   1   1   20.10    3.40
  -5   1  -1   13.50    2.30
  -6  -1  -1   48.60    5.70
  -6  -1  -1   51.19    5.00
   6  -1   1   51.59    5.00
  -6  -1  -1   51.69    5.00
  -6   1  -1   50.59    3.60
  -6   1  -1   52.29    5.30
  -6   1  -1   49.30    5.20
  -7  -1  -1    9.00    2.50
  -7  -1  -1    9.70    2.00
   7  -1   1    4.00    1.90
  -7  -1  -1    9.70    3.60
  -7   1  -1    8.40    2.40
  -7   1  -1    5.30    2.10
  -8  -1  -1    4.50    3.10
  -8  -1  -1    5.70    3.00
  -8  -1  -1    1.00    1.60
  -8   1  -1    6.90    3.30
  -8   1  -1    5.40    2.00
  -8   1  -1    1.20    2.00
  -8   1  -1    2.20    2.60
  -8  -2   1    0.40    1.10
  -8  -2   1   -2.40    1.20
  -8  -2   1   -3.80    2.70
  -8   2   1   -2.00    2.30
  -8   2   1   -1.80    1.00
  -8   2   1   -2.90    1.90
  -7  -2   1   -2.30    3.90
  -7  -2   1    0.60    1.30
  -7  -2   1    1.20    1.20
  -7  -2   1    0.00    1.90
  -7   2   1    0.50    1.80
  -7   2   1   -0.80    1.00
  -7   2   1   -0.50    2.00
  -7   2   1   -0.20    1.00
  -7   2   1   -2.40    1.30
  -6  -2   1   32.10    3.10
  -6  -2   1   43.20    5.40
  -6  -2   1   49.70    4.50
  -6   2   1   44.50    5.20
  -6   2   1   42.60    2.70
  -6   2   1   42.50    3.00
  -5  -2   1  124.99    7.20
   5  -2  -1  122.89    8.60
  -5  -2   1  124.19    5.70
  -5  -2   1  123.09    4.50
   5   2  -1  118.29    5.60
  -5   2   1  112.79    6.40
  -5   2   1  117.59    7.00
  -5   2   1  118.19    4.50
  -4  -2   1 1470.15   30.70
   4  -2  -1 1425.96   30.90
  -4  -2   1 1455.05   28.40
  -4  -2   1 1451.75   26.20
   4  -2  -1 1444.66   27.30
  -4   2   1 1434.36   27.10
   4   2  -1 1471.65   28.20
  -4   2   1 1469.75   29.70
  -4   2   1 1495.65   31.00
  -3  -2   1   70.49    3.40
   3  -2  -1   63.49    3.10
   3  -2  -1   66.19    4.50
   3   2  -1   69.49    4.40
  -3   2   1   66.69    3.10
   3   2  -1   60.19    3.10
  -2  -2   1   83.89    4.10
   2  -2  -1   78.69    4.30
   2  -2  -1   76.89    3.20
  -2  -2   1   77.39    3.00
  -2   2   1   78.69    4.20
  -2   2   1   73.49    3.20
   2   2  -1   80.19    2.90
  -1  -2   1   54.09    3.10
  -1  -2   1   51.79    2.10
   1  -2  -1   51.19    2.70
  -1  -2   1   52.69    2.10
   1  -2  -1   51.29    2.70
  -1   2   1   50.59    2.70
  -1   2   1   53.19    2.60
  -1   2   1   50.29    3.20
   1   2  -1   57.49    2.30
   1   2  -1   54.79    3.20
   0  -2  -1  315.87    7.40
   0  -2   1  302.57    6.90
   0  -2   1  325.27    7.70
   0  -2  -1  321.87    7.50
   0  -2   1  313.77    7.50
   0  -2   1  322.67    7.40
   0  -2  -1  311.67    7.30
   0   2   1  315.67    7.30
   0   2   1  315.37    7.10
   0   2   1  311.17    7.30
   0   2  -1  307.77    7.40
   0   2   1  313.97    7.40
   1  -2   1   26.40    2.30
   1  -2   1   25.50    1.80
  -1  -2  -1   26.60    2.20
   1  -2   1   29.10    3.00
  -1  -2  -1   25.30    2.20
   1   2   1   27.30    2.80
   1   2   1   25.90    2.60
   1   2   1   24.80    1.90
  -1   2  -1   26.80    2.10
  -1   2  -1   26.60    1.60
   1   2   1   28.50    2.40
  -1   2  -1   27.20    2.90
  -1   2  -1   25.10    2.60
  -2  -2  -1   38.10    2.70
  -2  -2  -1   39.20    3.30
   2  -2   1   36.00    2.10
   2  -2   1   40.00    1.70
  -2  -2  -1   37.80    2.40
   2  -2   1   33.70    3.10
   2   2   1   40.50    3.30
  -2   2  -1   37.10    2.20
  -2   2  -1   40.30    3.30
  -2   2  -1   38.50    1.70
   2   2   1   40.30    2.60
   3  -2   1  140.09    4.10
  -3  -2  -1  141.79    5.30
  -3  -2  -1  141.09    6.50
  -3  -2  -1  139.49    4.60
   3  -2   1  138.79    6.30
  -3   2  -1  138.49    6.00
  -3   2  -1  133.89    6.30
   3   2   1  140.99    5.20
  -3   2  -1  134.79    4.00
  -3   2  -1  136.29    3.80
  -4  -2  -1  225.08    5.60
  -4  -2  -1  228.78    7.70
   4  -2   1  234.18    5.80
  -4  -2  -1  231.08    6.50
   4  -2   1  226.18    9.10
  -4   2  -1  226.38    9.10
  -4   2  -1  228.58    5.90
   4   2   1  238.88    7.80
  -4   2  -1  240.08    8.70
  -4   2  -1  233.08    5.70
  -5  -2  -1   97.19    5.60
  -5  -2  -1  100.59    3.90
   5  -2   1  103.59    8.00
  -5  -2  -1   91.69    6.80
  -5  -2  -1   95.69    4.10
  -5   2  -1   94.09    6.20
  -5   2  -1   99.79    4.00
   5   2   1   92.69    6.80
  -5   2  -1   97.29    6.50
  -6  -2  -1   10.70    1.60
  -6  -2  -1   10.20    1.60
  -6  -2  -1    9.60    3.10
  -6  -2  -1    9.40    2.20
   6  -2   1   11.60    2.60
   6   2   1   16.60    2.70
  -6   2  -1   11.00    2.50
  -6   2  -1    8.00    2.30
  -7  -2  -1    7.50    2.80
  -7  -2  -1    8.60    1.60
  -7  -2  -1   13.70    1.60
   7  -2   1   11.30    3.10
  -7  -2  -1   11.60    3.10
  -7   2  -1   11.30    2.70
  -7   2  -1   13.30    2.00
  -7   2  -1   18.50    3.70
  -8  -2  -1    0.90    2.20
  -8  -2  -1    2.40    3.20
  -8   2  -1    2.30    2.80
  -8   2  -1    1.10    2.40
  -8   2  -1   -1.50    2.00
  -8  -3   1   -1.70    1.40
  -8  -3   1   -3.60    3.00
  -8  -3   1   -1.90    1.90
  -8  -3   1   -0.30    1.50
  -8   3   1   -1.80    2.20
  -8   3   1   -1.50    2.00
  -7  -3   1    0.80    1.90
  -7  -3   1   -2.00    1.30
  -7  -3   1    0.10    2.60
  -7   3   1    2.20    2.10
  -7   3   1   -3.60    1.70
  -7   3   1    1.80    1.40
  -6  -3   1    5.40    2.20
   6  -3  -1    8.10    2.40
  -6  -3   1    5.00    2.00
  -6  -3   1    9.80    2.00
  -6   3   1    7.50    2.20
  -6   3   1    2.30    2.00
   6   3  -1   10.50    2.30
  -6   3   1    1.90    2.30
  -5  -3   1   84.49    5.00
  -5  -3   1   85.79    6.30
   5  -3  -1   87.29    4.30
   5  -3  -1   92.79    6.40
  -5   3   1   84.29    4.30
  -5   3   1   85.29    6.50
   5   3  -1   84.49    4.90
  -5   3   1   82.59    6.10
   4  -3  -1  320.97    8.90
  -4  -3   1  349.07   12.30
   4  -3  -1  333.57   11.90
  -4   3   1  335.97   11.60
   4   3  -1  321.77    9.00
  -4   3   1  323.57    8.70
   4   3  -1  326.77   11.50
   3  -3  -1    1.00    1.00
  -3  -3   1   -1.40    1.00
   3  -3  -1   -0.50    1.00
  -3  -3   1   -0.40    1.40
  -3   3   1   -0.70    1.10
   3   3  -1    0.10    1.40
   3   3  -1   -0.60    0.80
  -3   3   1    0.70    1.10
  -3   3   1   -0.80    1.00
  -2  -3   1    6.90    1.80
   2  -3  -1    5.00    1.60
  -2  -3   1   10.30    1.40
   2  -3  -1    8.20    1.30
  -2  -3   1    9.90    1.20
  -2   3   1   14.50    2.10
   2   3  -1    7.70    1.80
  -2   3   1    4.90    1.50
  -2   3   1    8.40    1.60
   2   3  -1    9.10    1.20
   1  -3  -1  109.99    4.40
   1  -3  -1  106.99    4.20
  -1  -3   1  110.89    4.80
  -1  -3   1  101.49    4.30
  -1  -3   1  105.09    3.70
   1   3  -1  105.79    4.70
   1   3  -1  111.99    3.60
  -1   3   1  100.49    4.80
   1   3  -1  112.29    3.70
  -1   3   1  109.59    4.30
  -1   3   1  107.99    4.30
   0  -3   1  381.26    8.80
   0  -3  -1  386.76    9.30
   0  -3  -1  403.56    9.70
   0  -3   1  392.96    9.80
   0  -3   1  377.66    9.50
   0  -3   1  396.16    9.30
   0  -3  -1  385.66    9.50
   0   3   1  380.26    8.90
   0   3   1  391.66    9.60
   0   3   1  386.36    9.50
   0   3  -1  395.46    9.80
   0   3   1  389.56    9.50
   0   3  -1  386.96    9.50
  -1  -3  -1  652.83   13.90
   1  -3   1  648.74   12.40
   1  -3   1  644.34   13.60
  -1  -3  -1  660.93   14.60
  -1  -3  -1  656.53   13.40
   1  -3   1  650.13   14.50
  -1   3  -1  649.54   13.70
   1   3   1  645.64   14.00
   1   3   1  649.93   13.40
  -1   3  -1  654.03   15.00
  -1   3  -1  640.84   14.30
   1   3   1  644.84   12.70
   1   3   1  637.44   14.70
   2  -3   1 2178.58   41.50
  -2  -3  -1 2202.28   39.20
  -2  -3  -1 2178.48   38.80
   2  -3   1 2128.29   36.80
  -2  -3  -1 2087.49   43.00
   2  -3   1 2185.88   38.60
  -2   3  -1 2171.58   40.30
  -2   3  -1 2042.80   38.70
  -2   3  -1 2237.28   38.70
   2   3   1 2153.38   38.90
   2   3   1 2151.38   41.10
  -2   3  -1 2155.28   42.20
  -3  -3  -1  333.67   12.30
  -3  -3  -1  343.07   11.00
  -3  -3  -1  341.87    9.00
   3  -3   1  350.86    8.50
   3   3   1  343.87   11.10
   3   3   1  348.67    9.30
  -3   3  -1  351.06   11.20
  -3   3  -1  351.76    8.50
  -4  -3  -1  274.57    8.60
  -4  -3  -1  272.57    7.90
   4  -3   1  269.97    7.20
  -4  -3  -1  274.67   10.50
  -4   3  -1  264.67   10.40
  -4   3  -1  251.37    9.60
  -4   3  -1  272.77    7.20
   4   3   1  272.77    8.60
   5  -3   1    6.50    2.00
   5  -3   1    8.40    1.40
  -5  -3  -1    9.10    3.00
  -5  -3  -1    8.50    1.80
  -5  -3  -1    9.30    2.10
  -5   3  -1    8.10    1.40
   5   3   1    6.20    1.80
  -5   3  -1    7.70    2.40
  -5   3  -1    6.30    2.10
  -6  -3  -1   24.70    4.40
   6  -3   1   20.90    3.70
  -6  -3  -1   29.30    3.80
  -6  -3  -1   31.40    3.10
  -6   3  -1   16.80    2.90
   6   3   1   30.10    4.30
  -6   3  -1   24.70    4.00
  -7  -3  -1   11.40    4.00
  -7  -3  -1    3.70    1.40
  -7  -3  -1    8.30    2.60
  -7   3  -1    3.70    2.80
  -7   3  -1    9.10    3.70
   7   3   1    5.60    2.40
  -8  -3  -1    2.90    3.50
  -8  -3  -1   -0.10    2.30
  -8   3  -1    0.60    2.20
  -8   3  -1    1.10    2.40
  -8  -4   1   -0.30    2.70
  -8  -4   1   -1.10    1.80
  -8  -4   1    0.80    2.40
  -8  -4   1   -3.30    3.00
  -8   4   1   -1.60    1.80
  -8   4   1   -0.10    2.20
  -8   4   1    4.90    3.00
  -7  -4   1   66.49    7.30
  -7  -4   1   53.39    4.70
  -7  -4   1   61.59    5.40
  -7   4   1   57.09    4.00
   7   4  -1   65.49    5.30
  -7   4   1   50.89    6.70
  -7   4   1   59.69    6.60
   6  -4  -1    8.80    1.80
  -6  -4   1    9.60    2.10
  -6  -4   1    8.40    2.90
   6  -4  -1    2.70    2.10
  -6  -4   1    7.20    2.20
  -6   4   1    9.10    2.00
   6   4  -1    8.70    2.20
  -6   4   1    9.20    2.70
  -6   4   1    7.70    4.40
  -5  -4   1    1.30    2.20
  -5  -4   1   -1.50    1.30
   5  -4  -1    0.40    1.50
   5  -4  -1   -0.10    1.10
  -5  -4   1   -0.80    1.40
  -5   4   1    0.20    1.90
  -5   4   1   -0.70    1.60
  -5   4   1   -1.30    1.20
   5   4  -1    0.70    1.30
  -4  -4   1   26.20    3.40
   4  -4  -1   29.00    3.00
  -4  -4   1   30.60    4.40
   4  -4  -1   19.20    3.30
  -4  -4   1   30.70    3.30
   4   4  -1   27.20    4.30
  -4   4   1   21.80    3.40
  -4   4   1   27.60    3.20
  -4   4   1   30.90    4.40
   4   4  -1   30.70    3.00
  -3  -4   1   62.69    5.00
  -3  -4   1   66.79    4.30
  -3  -4   1   69.59    3.90
   3  -4  -1   66.39    5.20
   3  -4  -1   62.29    3.80
  -3   4   1   66.89    4.00
   3   4  -1   64.29    3.50
  -3   4   1   66.99    5.30
   3   4  -1   63.49    4.90
  -3   4   1   63.39    4.30
  -2  -4   1  196.08    5.80
  -2  -4   1  199.48    5.40
  -2  -4   1  193.48    7.00
   2  -4  -1  206.48    6.80
  -2   4   1  203.28    8.20
   2   4  -1  209.38    5.20
  -2   4   1  200.58    6.90
  -2   4   1  199.08    7.00
   2   4  -1  203.88    7.90
   2   4  -1  204.18    5.90
  -1  -4   1  153.68    5.30
   1  -4  -1  154.38    5.80
   1  -4  -1  169.18    6.20
  -1  -4   1  167.98    6.60
   1  -4  -1  153.48    6.50
  -1  -4   1  161.28    6.00
   1   4  -1  163.58    5.10
   1   4  -1  158.48    6.40
  -1   4   1  165.78    6.10
  -1   4   1  156.78    7.20
   1   4  -1  165.78    5.30
  -1   4   1  165.48    6.30
   0  -4   1 1438.46   26.90
   0  -4  -1 1468.75   28.40
   0  -4  -1 1442.76   28.10
   0  -4   1 1436.76   27.80
   0  -4  -1 1395.46   27.70
   0  -4   1 1408.26   28.10
   0  -4   1 1433.16   30.30
   0   4   1 1440.36   27.10
   0   4   1 1424.46   27.90
   0   4   1 1449.15   28.40
   0   4  -1 1446.76   28.00
   0   4   1 1407.86   28.10
   0   4  -1 1414.36   28.30
   1  -4   1    6.10    1.20
   1  -4   1    2.80    1.20
  -1  -4  -1    3.90    1.30
  -1  -4  -1    4.10    1.90
   1  -4   1    4.80    1.50
   1  -4   1    4.40    1.70
   1   4   1    3.00    1.50
  -1   4  -1    3.80    1.60
   1   4   1    4.70    1.40
  -1   4  -1    3.70    1.50
   1   4   1    4.70    1.60
   1   4   1    4.20    1.10
  -1   4  -1    5.20    1.70
  -2  -4  -1  586.74   13.80
   2  -4   1  576.64   13.30
   2  -4   1  583.44   11.20
  -2  -4  -1  584.64   15.00
   2  -4   1  612.84   16.00
  -2  -4  -1  534.95   14.50
  -2   4  -1  583.14   14.60
  -2   4  -1  586.84   13.90
   2   4   1  583.24   11.10
   2   4   1  583.94   13.20
   2   4   1  588.64   15.30
  -2   4  -1  589.34   15.60
  -3  -4  -1    2.30    1.60
  -3  -4  -1    3.50    1.50
   3  -4   1    2.20    1.10
  -3  -4  -1    2.40    1.80
   3  -4   1    2.80    1.80
  -3   4  -1    2.70    1.80
   3   4   1    4.60    2.20
  -3   4  -1    0.30    1.40
   3   4   1    2.20    1.30
  -3   4  -1    2.70    1.50
   4  -4   1   52.19    5.30
   4  -4   1   61.59    3.60
  -4  -4  -1   52.89    4.00
  -4  -4  -1   59.19    5.40
  -4  -4  -1   65.39    4.60
   4   4   1   62.79    4.30
  -4   4  -1   53.79    4.90
  -4   4  -1   59.49    5.70
  -4   4  -1   60.19    4.00
  -5  -4  -1   51.69    5.80
  -5  -4  -1   55.09    4.20
   5  -4   1   52.59    5.50
   5  -4   1   50.59    3.20
  -5  -4  -1   51.89    4.80
   5   4   1   50.39    4.60
  -5   4  -1   49.90    5.70
  -5   4  -1   54.29    5.30
  -5   4  -1   55.09    3.70
   6  -4   1    4.90    1.30
   6  -4   1    4.40    2.20
  -6  -4  -1    8.30    2.30
  -6  -4  -1    6.80    1.80
  -6  -4  -1    3.30    2.00
  -6   4  -1    4.20    2.40
  -6   4  -1    3.50    2.30
   6   4   1    8.90    2.20
  -7  -4  -1   -1.30    1.40
  -7  -4  -1    1.90    2.90
  -7  -4  -1   -0.90    2.80
   7  -4   1   -3.10    2.00
  -7   4  -1    2.00    2.10
   7   4   1    0.80    1.90
  -7   4  -1    3.60    2.40
  -8  -4  -1    9.80    1.90
  -8  -4  -1    2.50    2.50
  -8  -4  -1    6.50    3.40
  -8   4  -1    7.50    2.70
  -8   4  -1    9.30    3.20
  -7  -5   1   -2.70    1.80
  -7  -5   1   -3.40    1.80
   7  -5  -1   -2.00    1.40
  -7  -5   1   -2.80    3.10
   7   5  -1    0.60    1.60
  -7   5   1    1.30    2.60
  -7   5   1    2.10    2.30
  -7   5   1    0.90    1.60
  -6  -5   1   68.99    7.40
  -6  -5   1   56.19    5.30
   6  -5  -1   58.39    5.00
  -6  -5   1   59.19    5.10
  -6   5   1   69.79    5.00
  -6   5   1   62.39    7.10
  -6   5   1   77.29    6.30
  -6   5   1   73.49    6.60
   6   5  -1   61.79    5.00
  -5  -5   1   65.09    5.10
   5  -5  -1   64.09    6.60
  -5  -5   1   65.69    5.40
   5  -5  -1   71.29    4.60
  -5  -5   1   64.69    6.50
  -5   5   1   63.79    6.70
  -5   5   1   67.59    5.00
  -5   5   1   65.89    5.80
   5   5  -1   70.19    7.00
   5   5  -1   66.29    4.60
   4  -5  -1   16.90    3.40
   4  -5  -1   16.40    2.60
  -4  -5   1   17.50    2.80
  -4  -5   1   15.70    2.30
  -4  -5   1   17.20    3.10
  -4   5   1   16.30    2.50
  -4   5   1   24.40    4.00
  -4   5   1   14.40    2.70
   4   5  -1   19.60    3.90
   4   5  -1   22.10    3.10
  -3  -5   1   90.39    4.60
   3  -5  -1   85.89    6.50
  -3  -5   1   85.09    8.50
   3  -5  -1   93.09    5.00
  -3  -5   1   89.89    6.30
   3   5  -1   85.19    4.30
  -3   5   1   93.19    6.50
   3   5  -1   84.19    6.10
  -3   5   1   88.49    5.50
  -3   5   1   86.49    5.20
   2  -5  -1   39.90    2.10
   2  -5  -1   34.80    3.30
  -2  -5   1   35.90    2.70
  -2  -5   1   33.00    3.60
   2  -5  -1   41.50    4.40
   2  -5  -1   34.20    3.50
  -2  -5   1   35.90    4.30
   2   5  -1   35.10    2.70
   2   5  -1   38.00    3.10
  -2   5   1   30.40    3.70
  -2   5   1   31.50    4.10
  -2   5   1   39.30    3.80
   2   5  -1   39.70    5.20
  -1  -5   1  103.19    5.90
   1  -5  -1  104.79    5.20
   1  -5  -1  113.49    5.60
  -1  -5   1  106.49    5.10
   1  -5  -1  104.99    5.80
  -1  -5   1  105.69    4.90
  -1  -5   1  101.29    5.30
   1   5  -1  104.49    4.50
  -1   5   1   98.09    5.30
  -1   5   1  108.89    5.90
   1   5  -1  107.99    4.80
   1   5  -1  106.99    5.80
  -1   5   1   94.59    5.30
   0  -5   1   12.40    2.10
   0  -5   1   10.30    2.20
   0  -5   1   13.90    2.60
   0  -5  -1   10.50    2.00
   0  -5  -1    9.50    1.70
   0  -5  -1    9.10    1.70
   0  -5   1   11.40    1.90
   0   5   1   14.00    2.40
   0   5  -1   10.00    2.40
   0   5   1   10.30    1.70
   0   5  -1    9.80    1.80
   0   5   1   14.70    2.70
   0   5   1   11.60    2.00
   1  -5   1  331.77    9.80
   1  -5   1  347.17   10.70
   1  -5   1  336.97    8.40
   1  -5   1  336.47   11.10
  -1  -5  -1  311.77    9.80
  -1  -5  -1  341.47   10.70
  -1   5  -1  338.97   10.60
   1   5   1  347.37    9.40
  -1   5  -1  350.16   11.10
   1   5   1  346.27    9.20
   1   5   1  335.17   10.30
   1   5   1  331.07   10.70
   2  -5   1   12.70    1.70
  -2  -5  -1    9.60    2.60
  -2  -5  -1    8.70    1.80
  -2  -5  -1    8.80    1.80
   2  -5   1   12.60    2.00
   2   5   1   10.60    1.80
  -2   5  -1    9.70    2.10
   2   5   1   15.00    2.00
   2   5   1   17.50    5.00
  -2   5  -1    9.70    2.10
  -2   5  -1    8.40    1.80
  -3  -5  -1   62.49    5.10
   3  -5   1   71.49    6.20
  -3  -5  -1   71.69    5.90
  -3  -5  -1   65.89    4.80
   3  -5   1   64.69    4.20
   3   5   1   69.69    5.80
  -3   5  -1   61.49    5.20
   3   5   1   65.89    4.40
  -3   5  -1   68.19    4.70
  -3   5  -1   67.19    6.10
  -4  -5  -1   12.30    2.60
   4  -5   1    6.60    2.40
   4  -5   1   12.70    2.20
  -4  -5  -1   12.10    2.40
  -4  -5  -1   14.60    3.60
   4   5   1   12.90    3.70
  -4   5  -1    8.50    2.50
  -4   5  -1   10.70    2.20
   4   5   1   12.10    3.10
  -4   5  -1    7.50    2.70
  -5  -5  -1    9.10    2.60
  -5  -5  -1    6.10    2.70
   5  -5   1    4.60    1.50
   5  -5   1    2.80    2.00
  -5  -5  -1    7.10    1.90
  -5   5  -1    1.50    2.00
  -5   5  -1    3.40    2.10
  -5   5  -1    4.90    1.90
  -5   5  -1    2.60    2.20
   5   5   1    4.50    1.90
  -6  -5  -1   22.80    3.50
   6  -5   1   27.30    3.20
   6  -5   1   28.60    5.00
  -6  -5  -1   30.90    4.10
  -6  -5  -1   31.50    5.80
   6   5   1   35.10    4.60
  -6   5  -1   38.00    5.40
  -6   5  -1   25.30    4.00
  -6   5  -1   17.60    3.50
  -7  -5  -1   20.40    3.70
  -7  -5  -1   17.20    2.80
  -7  -5  -1   17.70    4.70
  -7   5  -1   18.10    3.80
  -7   5  -1   13.70    3.50
  -7  -6   1    3.10    2.40
  -7  -6   1    4.50    2.70
  -7  -6   1    0.90    3.10
   7  -6  -1    0.80    1.60
  -7  -6   1   -2.30    2.10
  -7   6   1   -0.10    2.40
   7   6  -1   -1.50    1.80
  -7   6   1    0.30    1.90
  -7   6   1    2.60    2.40
  -7   6   1    2.20    2.20
  -6  -6   1   40.00    4.80
  -6  -6   1   36.70    6.00
   6  -6  -1   21.40    4.80
  -6  -6   1   30.60    4.00
   6  -6  -1   37.80    4.30
   6   6  -1   33.20    4.30
  -6   6   1   49.00    5.40
  -6   6   1   36.50    4.50
  -5  -6   1  145.09    7.80
   5  -6  -1  133.09    6.90
  -5  -6   1  137.09    6.70
  -5  -6   1  141.59    9.20
  -5   6   1  144.69    9.70
   5   6  -1  129.99    6.60
  -5   6   1  145.79    7.20
  -5   6   1  145.89    8.10
  -4  -6   1  232.78    8.00
   4  -6  -1  229.38    8.90
  -4  -6   1  227.28   10.70
  -4  -6   1  223.08    9.40
   4   6  -1  220.68   11.00
   4   6  -1  234.58    8.10
  -4   6   1  228.98    9.70
  -4   6   1  245.48    9.40
  -4   6   1  225.78   11.20
   3  -6  -1   48.80    4.30
  -3  -6   1   54.19    5.20
   3  -6  -1   58.59    6.00
  -3  -6   1   48.90    5.70
  -3   6   1   56.39    6.10
   3   6  -1   54.39    4.00
  -3   6   1   57.29    5.10
  -3   6   1   56.09    5.10
   3   6  -1   46.20    5.40
   2  -6  -1   -1.60    1.50
  -2  -6   1   -2.10    1.50
   2  -6  -1    0.80    1.60
  -2  -6   1   -0.80    1.60
   2  -6  -1   -0.30    1.30
  -2  -6   1   -0.30    0.90
   2  -6  -1   -1.10    0.90
  -2   6   1    0.70    1.60
  -2   6   1   -1.60    3.30
   2   6  -1    0.20    1.00
   2   6  -1   -1.10    1.10
  -2   6   1    2.20    1.70
   2   6  -1   -1.00    2.00
   1  -6  -1    5.50    1.70
  -1  -6   1    4.40    1.40
  -1  -6   1    9.70    2.10
   1  -6  -1    3.80    1.30
   1  -6  -1    8.30    1.70
   1  -6  -1    9.00    2.50
  -1  -6   1    5.90    2.40
  -1  -6   1    6.60    2.10
   1   6  -1    7.00    1.70
   1   6  -1    3.70    1.80
  -1   6   1    9.30    3.00
   1   6  -1    6.30    1.90
  -1   6   1    5.60    1.70
  -1   6   1    4.60    1.70
   0  -6  -1   27.90    4.10
   0  -6   1   32.80    3.30
   0  -6   1   27.90    3.50
   0  -6   1   29.00    3.60
   0  -6   1   30.00    4.10
   0  -6  -1   31.10    3.60
   0  -6  -1   37.30    3.70
   0   6   1   24.40    5.30
   0   6   1   30.90    4.20
   0   6  -1   31.30    3.90
   0   6  -1   27.20    3.90
   0   6   1   27.40    3.50
   0   6   1   33.70    3.80
   1  -6   1   -0.30    1.30
  -1  -6  -1   -0.20    2.00
   1  -6   1    0.30    1.60
  -1  -6  -1    2.30    1.40
   1  -6   1    0.30    1.90
   1  -6   1    0.60    1.10
   1   6   1   -0.30    1.00
   1   6   1   -0.30    1.70
   1   6   1    1.10    1.60
  -1   6  -1    1.40    2.10
  -1   6  -1   -0.10    1.30
   2  -6   1   95.69    5.50
  -2  -6  -1   99.19    5.90
   2  -6   1  100.19    3.90
  -2  -6  -1   90.89    6.60
   2   6   1   98.99    4.30
  -2   6  -1  104.99    7.20
  -2   6  -1   97.69    6.30
   2   6   1   89.39    6.50
   2   6   1   89.79    5.20
   3  -6   1  538.55   14.50
  -3  -6  -1  548.55   14.10
  -3  -6  -1  555.44   15.30
  -3  -6  -1  550.94   16.80
   3   6   1  541.15   17.10
   3   6   1  480.15   18.30
  -3   6  -1  562.14   17.60
  -3   6  -1  536.85   15.90
  -3   6  -1  562.84   14.80
  -4  -6  -1   33.40    4.50
  -4  -6  -1   33.40    4.60
   4  -6   1   30.80    3.70
  -4  -6  -1   34.80    5.50
  -4   6  -1   36.90    5.80
  -4   6  -1   31.90    4.40
  -4   6  -1   40.70    5.00
   4   6   1   36.10    4.00
  -5  -6  -1    7.80    2.40
  -5  -6  -1    5.90    3.20
   5  -6   1    5.10    1.90
  -5  -6  -1    8.90    2.40
  -5   6  -1    8.30    2.70
  -5   6  -1    6.10    2.70
   5   6   1    4.10    2.00
  -6  -6  -1   -1.70    1.90
  -6  -6  -1   -3.40    1.60
  -6  -6  -1   -1.20    2.00
  -6   6  -1   -0.50    2.00
  -6   6  -1    3.20    2.20
  -6   6  -1   -1.10    2.20
   6   6   1   -2.40    1.70
   7  -6   1   -0.60    1.40
  -7  -6  -1   -3.10    2.10
   7   6   1   -3.50    2.30
  -7   6  -1   -1.10    2.40
  -7   6  -1    2.50    2.50
  -6  -7   1   -1.60    3.00
  -6  -7   1    3.60    2.70
   6  -7  -1    3.20    1.70
  -6  -7   1    7.00    2.30
  -6  -7   1   -3.80    2.10
   6   7  -1   -0.40    1.80
  -6   7   1    1.40    2.70
  -6   7   1    2.90    2.20
  -6   7   1    2.60    2.20
  -5  -7   1    7.80    2.00
  -5  -7   1    2.50    3.10
   5  -7  -1   -0.70    1.40
   5  -7  -1   -0.10    2.30
  -5  -7   1    1.90    2.20
  -5   7   1    0.30    1.80
   5   7  -1    6.50    3.10
  -5   7   1    1.90    2.30
  -5   7   1    3.20    2.10
   5   7  -1    1.10    1.70
   4  -7  -1   12.90    2.40
  -4  -7   1    8.70    2.50
  -4  -7   1   15.30    4.10
  -4   7   1   12.20    2.80
  -4   7   1   10.70    3.10
   4   7  -1   10.60    2.30
  -4   7   1   11.20    2.70
   3  -7  -1   29.60    4.00
  -3  -7   1   23.60    4.20
   3  -7  -1   35.60    5.20
  -3  -7   1   21.10    3.40
  -3   7   1   20.90    3.60
  -3   7   1   24.20    3.60
   3   7  -1   26.80    3.80
  -3   7   1   26.50    4.00
   3   7  -1   25.30    2.60
  -2  -7   1    3.50    2.20
  -2  -7   1    6.50    1.60
   2  -7  -1    7.40    2.40
  -2  -7   1    4.90    2.60
   2  -7  -1    7.60    2.20
   2  -7  -1    5.90    1.50
  -2  -7   1    4.10    2.20
   2  -7  -1    5.70    2.60
   2   7  -1    3.70    2.30
   2   7  -1    5.50    1.70
   2   7  -1    7.90    2.00
  -2   7   1    5.10    2.40
  -2   7   1    3.40    2.10
  -2   7   1    8.10    2.80
   1  -7  -1  130.49    7.70
  -1  -7   1  143.59    7.20
   1  -7  -1  129.59    7.90
   1  -7  -1  141.99    7.40
  -1  -7   1  144.19    7.20
   1  -7  -1  138.09    6.20
  -1  -7   1  148.99    7.60
  -1  -7   1  143.19    8.40
   1   7  -1  135.99    7.30
   1   7  -1  141.69    8.20
   1   7  -1  146.49    7.00
  -1   7   1  146.69    8.30
  -1   7   1  150.98    8.10
  -1   7   1  151.98    8.20
   0  -7   1   70.69    5.10
   0  -7  -1   78.19    5.80
   0  -7   1   63.19    8.30
   0  -7   1   76.69    5.70
   0  -7  -1   70.69    6.30
   0  -7   1   71.29    6.30
   0  -7  -1   75.29    5.80
   0   7   1   72.89    5.90
   0   7  -1   68.69    6.20
   0   7  -1   81.59    5.20
   0   7   1   69.89    6.10
   0   7   1   69.99    5.30
   0   7  -1   74.59    6.00
   1  -7   1  338.37    9.70
   1  -7   1  317.77   11.30
  -1  -7  -1  339.67   12.50
   1  -7   1  333.87   12.30
  -1  -7  -1  335.27   11.70
   1  -7   1  341.87   13.00
  -1   7  -1  349.37   12.70
   1   7   1  347.07   10.70
  -1   7  -1  317.37   12.00
   1   7   1  341.47   12.60
   1   7   1  332.17   10.50
  -2  -7  -1  142.29    8.40
   2  -7   1  123.39    8.50
   2  -7   1  129.09    6.90
   2  -7   1  128.59    5.00
   2  -7   1  122.49    7.80
  -2  -7  -1  127.39    7.30
   2   7   1  137.49    8.40
  -2   7  -1  139.39    8.70
   2   7   1  136.49    6.70
   2   7   1  130.99    5.50
  -2   7  -1  121.89    7.70
   3  -7   1   10.30    2.60
  -3  -7  -1   13.10    3.60
   3  -7   1    8.80    2.50
  -3  -7  -1    8.10    2.60
   3   7   1    5.70    2.80
  -3   7  -1    5.40    2.20
  -3   7  -1   12.20    3.20
   3   7   1    9.20    2.30
   4  -7   1    4.50    1.90
  -4  -7  -1    6.30    2.20
  -4  -7  -1    5.70    2.00
  -4  -7  -1    4.90    2.60
  -4   7  -1    2.00    2.20
  -4   7  -1    5.70    3.00
   4   7   1    1.10    1.90
   5  -7   1    0.00    1.50
  -5  -7  -1    0.50    2.40
  -5  -7  -1    2.40    2.10
  -5  -7  -1   -1.90    1.70
  -5   7  -1    2.20    2.80
   5   7   1   -0.80    1.70
  -5   7  -1    4.10    2.60
  -6  -7  -1   -1.80    2.70
   6  -7   1    0.80    1.60
  -6  -7  -1   -3.30    2.30
  -6   7  -1   -1.40    2.50
  -6   7  -1    2.10    2.60
  -6  -8   1   -3.10    3.10
  -6  -8   1    8.40    3.20
  -6   8   1   -0.50    2.70
  -5  -8   1    7.70    2.80
  -5  -8   1    2.20    3.00
  -5  -8   1    6.70    3.90
  -5   8   1   -3.10    2.30
  -5   8   1   -0.90    2.10
  -5   8   1    6.20    2.60
   5   8  -1    0.50    1.80
   4  -8  -1   -1.00    2.50
  -4  -8   1    7.40    2.70
  -4  -8   1    2.30    2.80
  -4  -8   1    3.20    3.00
  -4   8   1   -1.70    2.20
  -4   8   1    2.20    2.40
   4   8  -1   -0.70    3.10
   4   8  -1    0.50    1.60
  -3  -8   1   78.59    6.80
  -3  -8   1   67.99    6.90
   3  -8  -1   55.59    5.40
  -3  -8   1   57.39    8.30
  -3   8   1   69.89    6.50
   3   8  -1   62.39    4.70
  -3   8   1   75.39    6.90
  -3   8   1   85.39    7.80
   3   8  -1   64.39    3.80
  -2  -8   1   41.60    5.40
  -2  -8   1   42.60    4.10
  -2  -8   1   47.30    5.50
   2  -8  -1   40.10    5.70
   2  -8  -1   40.50    4.10
  -2  -8   1   29.40    4.60
   2  -8  -1   47.60    5.20
   2  -8  -1   50.79    5.50
  -2   8   1   39.60    5.70
   2   8  -1   42.80    4.20
  -2   8   1   39.90    6.00
   2   8  -1   42.70    4.10
  -2   8   1   39.70    5.50
  -1  -8   1    5.40    2.60
  -1  -8   1    6.60    2.60
   1  -8  -1   10.80    3.40
   1  -8  -1    7.60    2.50
  -1  -8   1    5.00    3.20
   1  -8  -1    1.90    2.10
   1  -8  -1    4.80    2.10
   1   8  -1    9.40    3.70
   1   8  -1    5.00    2.00
  -1   8   1    7.20    2.40
  -1   8   1    9.80    2.50
   1   8  -1    7.00    2.20
  -1   8   1    8.00    3.00
   0  -8   1  193.78    8.10
   0  -8  -1  180.38    9.00
   0  -8   1  182.38    9.40
   0  -8   1  186.38    9.80
   0  -8  -1  196.18    9.80
   0  -8  -1  184.98    8.10
   0  -8   1  179.38    8.90
   0   8  -1  181.58    9.10
   0   8  -1  171.18    7.60
   0   8   1  171.58    7.80
   0   8   1  186.58    9.00
   0   8  -1  185.28    9.70
   0   8   1  180.38    9.70
   1  -8   1  137.89    6.30
   1  -8   1  128.79    8.50
   1  -8   1  126.09    7.50
  -1  -8  -1  130.99    8.30
   1  -8   1  126.19    8.10
  -1   8  -1  140.09    8.60
   1   8   1  131.79    7.00
  -1   8  -1  115.19    7.80
   1   8   1  131.29    8.40
   1   8   1  120.69    6.70
   2  -8   1   79.99    6.10
  -2  -8  -1   78.69    8.80
   2  -8   1   74.39    6.60
  -2  -8  -1   86.39    6.60
   2  -8   1   73.19    4.10
   2  -8   1   76.89    7.40
  -2   8  -1   67.69    6.70
  -2   8  -1   80.99    7.30
   2   8   1   76.59    4.70
   2   8   1   74.39    5.40
   2   8   1   80.69    7.20
   3  -8   1   48.60    6.80
  -3  -8  -1   38.00    7.20
  -3  -8  -1   50.59    6.50
   3  -8   1   45.90    4.90
  -3   8  -1   42.10    5.70
   3   8   1   40.10    6.30
  -3   8  -1   52.59    6.80
   3   8   1   44.10    4.70
   4  -8   1   -0.70    1.70
  -4  -8  -1   -4.50    1.90
  -4  -8  -1    3.20    3.20
  -4   8  -1   -1.00    2.30
   5  -8   1   -2.60    1.40
  -5  -8  -1    0.60    3.20
  -5   8  -1   -3.30    2.20
   5   8   1   -1.50    2.10
  -5  -9   1   25.40    5.80
  -5  -9   1   27.50    5.30
  -5   9   1   22.90    4.50
  -4  -9   1    4.50    3.40
  -4  -9   1    5.40    2.80
   4  -9  -1    3.20    2.40
  -4   9   1   -1.80    2.80
   4   9  -1   -0.90    1.80
  -4   9   1    5.10    2.80
   3  -9  -1   11.80    3.80
   3  -9  -1   18.50    3.50
  -3  -9   1   20.70    3.70
  -3  -9   1   14.40    3.20
   3   9  -1   22.00    3.10
  -3   9   1   24.20    4.40
  -3   9   1   19.10    4.00
   3   9  -1   20.90    3.00
   2  -9  -1    2.30    2.30
  -2  -9   1    6.00    3.30
   2  -9  -1    8.30    3.10
   2  -9  -1    6.50    1.70
  -2  -9   1    9.20    2.90
   2  -9  -1    1.50    2.40
  -2  -9   1    1.60    2.40
  -2   9   1   -0.70    4.30
  -2   9   1    5.10    2.60
   2   9  -1   -1.50    2.30
   2   9  -1    3.10    2.00
   1  -9  -1   -0.30    1.80
  -1  -9   1    1.50    1.70
   1  -9  -1    0.20    1.60
  -1  -9   1   -0.20    2.00
   1  -9  -1    0.20    2.00
  -1  -9   1    1.10    2.90
   1  -9  -1    1.50    2.30
   1   9  -1   -4.30    2.40
   1   9  -1    0.70    1.70
  -1   9   1   -1.00    1.60
   1   9  -1    1.60    1.60
   0  -9   1    7.00    2.20
   0  -9   1    2.10    1.70
   0  -9  -1    4.90    2.70
   0  -9  -1    4.60    2.10
   0  -9   1    4.30    2.80
   0  -9   1    1.80    2.20
   0   9  -1    2.20    1.70
   0   9  -1    4.20    3.20
   0   9  -1    3.20    1.90
   0   9   1    3.20    2.00
   0   9   1    0.40    1.60
   0   9   1   -0.10    2.70
   1  -9   1    4.20    2.50
   1  -9   1    5.60    1.90
  -1  -9  -1    1.40    2.40
  -1  -9  -1    5.30    2.30
   1  -9   1    3.50    2.20
  -1  -9  -1   -3.10    1.70
   1  -9   1    4.90    2.40
  -1   9  -1    2.80    2.80
   1   9   1   -0.70    3.10
  -1   9  -1    2.50    2.10
   1   9   1    1.90    2.10
  -1   9  -1    5.30    1.80
   1   9   1    1.00    1.60
  -2  -9  -1   20.20    3.80
  -2  -9  -1   25.60    3.90
  -2  -9  -1   23.60    4.00
   2  -9   1   29.50    3.10
   2  -9   1   22.40    3.70
   2   9   1   18.70    2.60
  -2   9  -1   22.30    4.00
   2   9   1   24.10    5.10
   2   9   1   16.00    3.00
  -2   9  -1   19.40    3.70
  -3  -9  -1   31.90    5.70
   3  -9   1   25.40    4.00
  -3   9  -1   27.20    4.70
   3   9   1   28.80    4.00
  -3   9  -1   18.90    4.00
   4  -9   1    0.70    2.10
  -4  -9  -1   -0.60    3.40
  -3 -10   1    3.80    3.00
  -3 -10   1    0.80    2.60
   3  10  -1   -2.30    1.20
  -3  10   1   -1.10    2.40
  -2 -10   1   17.30    3.90
   2 -10  -1   22.50    4.20
   2 -10  -1   22.60    3.20
  -2 -10   1   14.30    3.60
  -2  10   1   17.30    4.00
   2  10  -1    8.50    3.20
   2  10  -1   14.80    2.80
   1 -10  -1    1.70    2.30
  -1 -10   1   -1.40    1.80
  -1 -10   1    1.40    2.90
   1 -10  -1    1.40    2.00
   1  10  -1   -1.80    1.70
  -1  10   1    1.00    2.10
  -1  10   1   -0.10    2.10
   0 -10   1   -0.30    2.50
   0 -10   1   -3.00    1.80
   0 -10  -1   -0.30    2.30
   0 -10  -1   -0.20    1.60
   0  10   1   -1.90    1.70
   0  10  -1   -1.20    1.80
   0  10   1   -2.50    1.40
   1 -10   1    1.50    1.80
  -1 -10  -1    2.20    2.50
   1 -10   1    4.90    2.80
  -1 -10  -1   -3.70    1.70
  -1  10  -1    1.60    1.80
  -1  10  -1   -0.70    2.00
   1  10   1    0.90    1.80
   1  10   1   -2.60    1.90
  -2 -10  -1    2.70    3.30
   2 -10   1    2.60    1.60
  -2 -10  -1    0.90    2.50
  -2  10  -1   -0.20    2.50
   2  10   1   -1.90    1.50
  -3 -10  -1   -0.50    2.90
  -3 -10  -1    1.10    3.50
  -3  10  -1   -3.20    2.40
   3  10   1   -5.00    2.20
  -8   0   2   19.50    3.40
  -8   0   2   23.60    4.90
  -8   0   2   18.20    3.00
  -8   0   2   23.10    3.30
  -7   0   2   -0.90    1.70
  -7   0   2    3.70    2.40
  -7   0   2    1.20    1.70
  -7   0   2    1.80    1.80
  -7   0   2    2.40    1.60
  -6   0   2    1.30    1.40
  -6   0   2    1.20    1.10
  -6   0   2    0.00    1.30
  -6   0   2   -1.50    1.50
  -6   0   2    0.80    2.10
  -5   0   2   10.40    1.70
  -5   0   2   12.70    1.80
  -5   0   2   18.50    3.50
  -5   0   2   11.40    2.20
  -4   0   2   60.99    3.30
  -4   0   2   59.09    4.00
  -4   0   2   60.09    4.80
  -3   0   2  220.78    6.80
  -3   0   2  226.08    6.90
  -3   0   2  228.88    6.40
  -3   0   2  222.18    6.10
  -3   0   2  217.68    6.10
  -1   0   2    0.30    0.60
   1   0  -2    0.60    0.50
  -1   0   2    0.30    0.50
  -1   0   2    0.80    0.50
   1   0  -2    0.30    0.60
  -1   0  -2   70.09    2.80
   1   0   2   72.99    2.80
  -1   0  -2   70.89    1.80
   1   0   2   71.19    2.80
  -1   0  -2   71.29    2.60
   1   0   2   75.79    1.80
   2   0   2 3962.00   70.59
  -2   0  -2 4095.89   70.19
   2   0   2 4219.18   70.49
  -2   0  -2 4094.09   70.69
   3   0   2  147.69    5.40
   3   0   2  143.09    5.60
  -3   0  -2  151.68    5.40
  -4   0  -2  163.68    6.80
   4   0   2  162.68    6.80
   4   0   2  161.88    6.40
  -4   0  -2  161.88    6.20
  -5   0  -2  103.59    5.50
  -5   0  -2   98.29    5.90
   5   0   2  106.39    5.70
  -6   0  -2   18.50    3.00
   6   0   2   27.20    3.70
  -6   0  -2   29.80    4.10
  -7   0  -2    3.30    1.60
   7   0   2    2.80    1.70
  -7   0  -2    0.90    1.70
  -7   0  -2    3.80    2.40
  -7   0  -2    1.10    2.60
  -8   0  -2   -1.60    2.30
  -8   0  -2    1.30    1.80
  -8   0  -2    1.40    2.10
  -8   0  -2   -1.20    1.50
  -8  -1   2   18.10    5.30
  -8  -1   2   22.00    4.50
  -8  -1   2   28.20    3.00
  -8  -1   2   23.80    3.60
  -8   1   2   26.40    4.10
  -8   1   2   25.10    3.20
  -8   1   2   19.70    3.90
  -8   1   2   21.00    2.90
  -8   1   2   25.00    3.80
  -7  -1   2   -2.40    1.60
  -7  -1   2    0.40    1.40
  -7  -1   2    1.70    2.20
  -7  -1   2    0.50    1.10
  -7  -1   2    2.30    1.80
  -7   1   2    2.50    2.10
  -7   1   2    0.30    1.50
  -7   1   2    2.20    2.50
  -7   1   2    0.70    1.40
  -6  -1   2   47.80    4.40
  -6  -1   2   43.40    3.50
  -6  -1   2   42.50    4.10
  -6  -1   2   52.09    5.40
  -6   1   2   47.10    5.00
  -6   1   2   44.90    3.30
  -6   1   2   39.30    3.60
  -6   1   2   41.10    5.10
  -5  -1   2  156.88    6.40
  -5  -1   2  159.18    5.90
  -5  -1   2  163.78    7.70
  -5  -1   2  154.98    6.20
  -5   1   2  162.98    7.20
  -5   1   2  163.48    7.60
  -5   1   2  168.18    5.70
  -5   1   2  156.98    5.50
  -4  -1   2 3947.51   70.39
  -4  -1   2 3840.82   68.09
  -4  -1   2 3910.01   68.39
  -4   1   2 3822.62   66.99
  -4   1   2 4052.69   69.49
  -4   1   2 3845.92   70.69
  -4   1   2 3870.51   67.59
  -3  -1   2  156.38    4.70
   3  -1  -2  150.38    4.80
  -3  -1   2  151.08    5.70
  -3  -1   2  153.48    4.90
  -3   1   2  154.28    4.20
  -3   1   2  153.88    4.90
  -3   1   2  149.99    6.00
   1  -1  -2  161.28    3.60
  -1  -1   2  169.98    4.40
  -1  -1   2  167.48    4.50
   1  -1  -2  164.28    4.50
  -1   1   2  163.18    3.50
  -1   1   2  160.68    4.40
  -1   1   2  163.68    3.60
   1   1  -2  167.38    4.40
   1   1  -2  168.98    4.50
   0  -1  -2  423.36    8.30
   0  -1  -2  412.96    8.20
   0  -1   2  418.56    8.20
   0  -1   2  405.16    8.60
   0  -1  -2  410.06    8.30
   0  -1   2  402.06    8.50
   0  -1  -2  410.56    8.80
   0   1  -2  411.56    8.60
   0   1  -2  412.66    7.80
   0   1   2  418.86    8.30
   0   1  -2  411.66    8.30
   0   1   2  415.26    8.20
   0   1   2  414.56    8.40
   0   1  -2  401.06    8.60
  -1  -1  -2   32.50    2.60
   1  -1   2   31.50    2.50
   1  -1   2   31.70    1.80
   1  -1   2   34.10    2.20
   1   1   2   34.70    2.20
   1   1   2   35.50    1.90
  -1   1  -2   33.40    2.30
  -1   1  -2   34.50    1.70
  -1   1  -2   36.20    2.60
   1   1   2   34.90    1.80
  -2  -1  -2 2354.26   39.60
   2  -1   2 2179.88   40.30
  -2  -1  -2 2197.58   38.30
   2  -1   2 2164.08   39.90
  -2  -1  -2 2190.58   39.60
  -2   1  -2 2199.28   40.00
   2   1   2 2184.48   39.70
  -2   1  -2 2199.08   40.30
  -2   1  -2 2194.98   38.50
   2   1   2 2287.07   38.80
   3  -1   2  568.14   13.70
  -3  -1  -2  547.35   11.30
  -3  -1  -2  561.94   11.60
   3   1   2  564.34   12.00
  -3   1  -2  560.04   13.40
  -3   1  -2  564.44   13.50
  -3   1  -2  557.34   11.80
   3   1   2  541.55   13.00
  -4  -1  -2  116.39    3.40
  -4  -1  -2  121.39    5.70
  -4  -1  -2  119.09    4.70
   4  -1   2  120.09    6.00
  -4  -1  -2  123.29    6.90
   4   1   2  122.39    4.90
   4   1   2  118.39    5.70
  -4   1  -2  117.69    4.60
  -4   1  -2  128.19    6.20
  -5  -1  -2  385.66   10.20
  -5  -1  -2  374.96   13.50
  -5  -1  -2  385.56   11.70
   5  -1   2  388.86   12.40
  -5   1  -2  366.16    9.90
   5   1   2  382.46   10.60
  -5   1  -2  386.96   12.00
  -5   1  -2  363.86   12.10
   5   1   2  385.56   11.80
   6  -1   2    0.20    1.30
  -6  -1  -2   -1.20    1.20
  -6  -1  -2   -0.80    1.30
  -6  -1  -2    2.60    2.00
  -6   1  -2   -0.50    1.50
  -6   1  -2   -0.90    1.60
   6   1   2   -0.50    1.40
  -6   1  -2    0.40    1.30
   6   1   2    0.80    1.20
  -7  -1  -2    6.30    1.90
  -7  -1  -2    8.30    3.40
  -7  -1  -2    5.10    2.20
   7  -1   2    3.60    1.80
  -7   1  -2    5.70    1.90
  -7   1  -2    8.40    2.50
  -7   1  -2    6.60    2.40
  -8  -1  -2    1.90    2.60
  -8  -1  -2   -1.20    1.60
  -8  -1  -2    2.70    3.10
  -8  -1  -2    3.10    3.40
  -8   1  -2   -1.10    2.20
  -8   1  -2   10.20    3.40
  -8   1  -2    6.30    2.60
  -8   1  -2   -2.10    1.60
  -8  -2   2   -1.70    2.50
  -8  -2   2    6.00    1.90
  -8  -2   2    7.30    2.40
  -8  -2   2    7.10    1.80
  -8  -2   2    5.80    3.50
  -8   2   2    5.70    2.40
  -8   2   2    8.40    1.80
  -8   2   2    6.20    3.10
  -8   2   2    6.70    1.50
  -8   2   2    7.00    3.40
  -7  -2   2   -0.30    1.20
  -7  -2   2    1.80    1.40
  -7  -2   2   -1.20    1.90
  -7  -2   2    0.50    1.60
  -7  -2   2    0.60    2.10
  -7   2   2   -2.20    1.40
  -7   2   2    1.50    1.20
  -7   2   2    0.10    1.50
  -7   2   2   -0.90    2.00
  -6  -2   2    1.40    1.50
  -6  -2   2    3.20    2.40
  -6   2   2    2.00    2.10
  -6   2   2    1.60    1.40
  -5  -2   2   36.20    2.80
  -5  -2   2   40.90    3.60
  -5  -2   2   41.80    4.80
  -5   2   2   36.40    2.50
  -5   2   2   37.70    4.50
  -5   2   2   37.10    3.10
  -5   2   2   38.00    4.70
   4  -2  -2 1533.35   32.40
  -4  -2   2 1549.84   28.30
  -4  -2   2 1547.15   28.90
  -4  -2   2 1534.75   31.70
   4  -2  -2 1553.74   29.30
   4   2  -2 1554.64   29.20
  -4   2   2 1514.25   29.00
  -4   2   2 1528.55   32.40
   3  -2  -2    5.80    1.60
  -3  -2   2    8.90    2.00
   3  -2  -2    7.80    1.30
  -3  -2   2    8.30    1.20
  -3   2   2    7.20    1.40
  -3   2   2    4.20    1.50
   3   2  -2    6.20    1.70
   3   2  -2    7.20    1.10
  -2  -2   2  417.26   10.10
   2  -2  -2  416.46   11.00
  -2  -2   2  414.76   10.20
  -2  -2   2  414.36   10.00
  -2  -2   2  428.26    8.30
   2  -2  -2  422.96    9.60
  -2   2   2  413.46    9.60
  -2   2   2  403.76   10.90
  -2   2   2  411.96    9.20
   2   2  -2  420.46    8.90
   2   2  -2  406.36   10.30
  -1  -2   2  661.53   12.80
   1  -2  -2  657.23   12.10
   1  -2  -2  662.93   12.90
  -1  -2   2  665.83   13.60
   1  -2  -2  653.63   13.50
  -1  -2   2  673.73   13.80
   1   2  -2  664.53   11.80
   1   2  -2  660.43   13.80
  -1   2   2  637.64   14.40
  -1   2   2  664.03   12.80
   1   2  -2  672.93   12.90
  -1   2   2  663.43   13.50
   0  -2  -2 1470.25   26.20
   0  -2   2 1390.46   26.60
   0  -2  -2 1491.65   26.30
   0  -2  -2 1444.36   26.40
   0  -2   2 1471.75   25.90
   0  -2   2 1446.26   26.70
   0   2  -2 1444.86   26.70
   0   2   2 1453.05   26.30
   0   2   2 1473.75   26.50
   0   2  -2 1392.16   25.90
   0   2  -2 1440.66   26.60
   0   2   2 1472.25   26.20
  -1  -2  -2 1669.03   29.60
   1  -2   2 1678.43   28.70
  -1  -2  -2 1628.54   30.60
   1  -2   2 1674.33   30.90
   1  -2   2 1638.94   29.10
  -1  -2  -2 1668.23   29.50
  -1   2  -2 1636.44   30.80
  -1   2  -2 1626.34   28.70
   1   2   2 1592.04   29.50
  -1   2  -2 1572.34   30.40
   1   2   2 1668.53   29.50
   2  -2   2 1200.38   21.10
  -2  -2  -2 1166.58   21.70
   2  -2   2 1166.48   21.10
   2  -2   2 1136.69   23.90
  -2  -2  -2 1177.58   24.10
  -2  -2  -2 1174.38   22.50
   2   2   2 1122.49   22.50
  -2   2  -2 1180.38   24.00
  -2   2  -2 1156.28   21.00
   2   2   2 1202.78   20.50
  -2   2  -2 1180.58   23.30
   3  -2   2  390.06    8.00
  -3  -2  -2  379.86   11.60
  -3  -2  -2  391.46   10.20
  -3  -2  -2  378.66    8.70
   3  -2   2  367.56   11.20
   3   2   2  386.96    8.10
  -3   2  -2  374.06    8.40
  -3   2  -2  393.26   11.30
   3   2   2  387.06   10.20
  -3   2  -2  378.56   10.70
  -4  -2  -2   47.10    4.00
   4  -2   2   41.40    4.30
  -4  -2  -2   38.40    2.70
  -4  -2  -2   44.60    4.80
  -4  -2  -2   42.90    2.60
  -4   2  -2   41.90    2.70
   4   2   2   46.40    3.80
  -4   2  -2   39.20    4.20
   4   2   2   42.30    2.60
  -4   2  -2   41.30    4.70
  -5  -2  -2    9.10    1.30
  -5  -2  -2    7.60    1.40
   5  -2   2    8.70    2.30
  -5  -2  -2    8.50    3.30
  -5  -2  -2    9.50    2.20
   5   2   2    8.10    2.30
  -5   2  -2    9.90    2.30
  -5   2  -2    8.30    2.30
  -5   2  -2   11.10    1.70
   5   2   2    8.90    1.40
   6  -2   2    3.40    1.90
  -6  -2  -2    1.80    2.60
  -6  -2  -2    1.30    1.90
  -6  -2  -2    1.60    0.90
  -6  -2  -2   -0.80    1.10
  -6   2  -2   -0.60    1.60
  -6   2  -2    0.60    1.80
   6   2   2    4.30    2.10
  -6   2  -2   -0.20    1.10
  -7  -2  -2   28.30    3.30
  -7  -2  -2   23.50    4.10
   7  -2   2   31.40    5.10
  -7  -2  -2   24.30    3.80
  -7   2  -2   33.20    5.30
  -7   2  -2   27.40    3.10
  -7   2  -2   30.40    4.50
  -8  -2  -2   -2.80    1.30
  -8  -2  -2   -1.10    3.00
  -8  -2  -2   -0.70    2.40
  -8   2  -2   -1.80    2.10
  -8   2  -2   -2.60    2.30
  -8   2  -2   -1.90    1.30
  -8  -3   2    0.50    2.40
  -8  -3   2    1.20    2.30
  -8  -3   2   -0.20    1.60
  -8  -3   2   -3.20    2.80
  -8   3   2    3.90    2.30
  -8   3   2   -2.70    2.10
  -8   3   2    0.20    1.10
  -7  -3   2   12.30    2.60
  -7  -3   2   14.90    4.00
  -7  -3   2   12.90    5.10
  -7   3   2   10.70    2.90
  -7   3   2   15.00    2.20
  -7   3   2    6.30    2.60
  -6  -3   2   10.70    3.20
  -6  -3   2    8.20    2.30
  -6   3   2    7.60    2.30
  -6   3   2   10.10    2.00
  -6   3   2    6.30    2.60
   5  -3  -2    1.80    1.10
   5  -3  -2    0.10    1.30
  -5  -3   2    0.30    1.40
  -5  -3   2    2.90    2.40
   5   3  -2    0.90    1.30
  -5   3   2   -0.60    1.50
  -5   3   2    2.30    1.30
   4  -3  -2    4.80    1.90
  -4  -3   2    2.00    1.40
  -4  -3   2    2.50    1.90
   4  -3  -2    1.40    1.10
   4   3  -2    2.20    1.30
   4   3  -2    3.20    2.00
  -4   3   2    0.80    1.40
  -3  -3   2   52.79    4.20
  -3  -3   2   51.99    2.90
   3  -3  -2   47.80    3.20
   3   3  -2   48.10    4.20
  -3   3   2   46.70    3.30
  -3   3   2   51.29    4.40
   3   3  -2   47.30    2.70
  -3   3   2   50.49    3.40
  -2  -3   2 1087.29   22.80
   2  -3  -2 1098.89   21.90
  -2  -3   2 1126.39   20.10
  -2  -3   2 1105.09   20.20
   2  -3  -2 1072.59   23.70
   2   3  -2 1107.79   23.00
   2   3  -2 1122.19   20.10
  -2   3   2 1116.59   21.90
  -2   3   2 1099.79   21.50
   1  -3  -2  567.44   13.00
   1  -3  -2  610.44   12.80
  -1  -3   2  588.94   12.50
  -1  -3   2  584.04   13.00
  -1  -3   2  588.24   13.60
   1  -3  -2  588.74   14.00
  -1   3   2  599.14   13.10
  -1   3   2  584.34   14.00
   1   3  -2  595.24   13.60
   1   3  -2  612.44   12.40
   1   3  -2  611.44   11.50
  -1   3   2  593.74   12.70
   0  -3   2 3984.50   68.09
   0  -3  -2 3896.81   68.79
   0  -3  -2 4051.69   68.79
   0  -3   2 3963.20   68.69
   0  -3   2 3983.80   69.19
   0   3  -2 3893.41   69.19
   0   3   2 4082.69   68.99
   0   3   2 3917.21   68.29
   0   3   2 3995.40   68.99
   0   3  -2 3830.12   67.99
   0   3   2 3972.70   68.79
   0   3  -2 3965.10   68.99
  -1  -3  -2  378.76    9.00
   1  -3   2  363.16    8.80
  -1  -3  -2  365.76    9.10
  -1  -3  -2  378.36    9.90
   1  -3   2  374.66   10.00
   1  -3   2  380.96    8.10
   1  -3   2  368.46   10.20
  -1   3  -2  370.66   10.20
  -1   3  -2  356.16    8.10
   1   3   2  369.66    9.20
  -1   3  -2  360.16    9.80
   1   3   2  354.16    9.80
   1   3   2  370.96    8.90
   1   3   2  364.76    8.30
   2  -3   2  302.37    7.50
   2  -3   2  304.37    6.70
  -2  -3  -2  307.67    9.50
   2  -3   2  281.77    9.50
  -2  -3  -2  298.07    8.00
  -2  -3  -2  302.77    8.30
   2   3   2  302.87    8.20
  -2   3  -2  300.07    9.70
  -2   3  -2  288.07    6.60
   2   3   2  300.67    9.60
  -2   3  -2  284.97    9.00
  -3  -3  -2  176.78    5.90
   3  -3   2  171.18    7.70
  -3  -3  -2  179.28    7.80
   3  -3   2  173.38    5.20
  -3  -3  -2  185.78    6.60
  -3   3  -2  170.08    7.70
  -3   3  -2  172.38    4.60
   3   3   2  182.98    6.50
  -3   3  -2  171.88    7.10
   4  -3   2  146.39    4.70
  -4  -3  -2  148.99    6.50
  -4  -3  -2  138.79    7.80
   4  -3   2  153.58    8.00
  -4  -3  -2  145.69    5.40
   4   3   2  149.88    6.40
  -4   3  -2  142.39    4.30
  -4   3  -2  147.19    7.20
  -4   3  -2  149.19    7.70
   5  -3   2   44.00    5.20
   5  -3   2   46.70    2.50
  -5  -3  -2   46.90    3.30
  -5  -3  -2   49.90    4.90
  -5  -3  -2   42.20    5.60
  -5   3  -2   50.89    5.60
  -5   3  -2   41.70    2.60
  -5   3  -2   39.80    4.80
   5   3   2   43.00    4.30
  -6  -3  -2   92.39    6.40
   6  -3   2   85.69    7.00
  -6  -3  -2   84.49   11.20
  -6  -3  -2   87.49    4.20
  -6   3  -2   83.29    6.80
   6   3   2   82.79    6.20
  -6   3  -2   89.29    3.80
  -6   3  -2   87.69    8.10
  -7  -3  -2   17.60    4.30
  -7  -3  -2   12.30    3.20
  -7  -3  -2   13.10    1.80
  -7   3  -2    9.10    3.00
  -7   3  -2   10.50    2.80
  -7   3  -2   15.80    2.00
  -8  -3  -2    0.70    3.90
   8  -3   2   -1.40    2.40
  -8  -3  -2    1.10    2.80
  -8   3  -2   -1.10    2.20
  -8   3  -2    0.40    1.20
  -8   3  -2   -1.90    2.10
  -8  -4   2    8.40    3.30
  -8  -4   2   12.80    4.40
  -8  -4   2   13.20    2.90
  -8  -4   2    9.90    2.50
  -8   4   2   13.20    1.70
  -8   4   2    4.30    2.70
  -8   4   2   13.60    3.40
  -7  -4   2   22.20    4.20
  -7  -4   2   21.10    3.80
  -7  -4   2   24.20    3.20
  -7  -4   2   23.30    3.20
  -7   4   2   25.70    4.00
  -7   4   2   23.70    4.20
  -7   4   2   28.00    3.60
   6  -4  -2   45.60    4.10
  -6  -4   2   45.60    5.90
  -6  -4   2   41.50    4.40
  -6  -4   2   44.70    4.40
  -6   4   2   47.90    6.10
  -6   4   2   54.09    6.80
   6   4  -2   33.30    5.20
  -6   4   2   47.50    5.30
  -6   4   2   53.09    4.00
  -5  -4   2    4.10    2.90
   5  -4  -2    4.60    1.60
  -5  -4   2    3.70    1.70
   5  -4  -2    1.50    1.50
   5   4  -2    4.40    2.70
  -5   4   2    0.70    1.60
   5   4  -2    4.30    1.50
  -5   4   2    3.80    1.70
  -4  -4   2    7.70    1.70
   4  -4  -2    8.20    1.70
  -4  -4   2    5.00    2.00
   4  -4  -2    5.80    2.00
  -4   4   2    7.90    1.80
   4   4  -2    5.90    1.40
  -4   4   2    7.10    2.10
   4   4  -2    8.10    2.20
  -4   4   2    9.20    2.20
  -3  -4   2   66.19    3.50
   3  -4  -2   70.89    4.20
   3  -4  -2   65.79    5.10
   3   4  -2   70.19    5.10
   3   4  -2   68.29    3.30
  -3   4   2   62.09    4.20
  -3   4   2   72.69    4.30
  -3   4   2   64.09    5.20
   2  -4  -2   40.30    4.00
   2  -4  -2   47.20    3.40
  -2  -4   2   45.30    2.70
  -2  -4   2   39.50    3.60
  -2  -4   2   46.90    4.20
   2  -4  -2   46.20    3.40
  -2   4   2   42.70    3.60
   2   4  -2   45.10    2.70
  -2   4   2   41.50    4.20
  -2   4   2   44.50    3.50
   2   4  -2   46.50    2.70
   2   4  -2   47.10    4.10
   1  -4  -2  566.74   13.50
  -1  -4   2  569.04   12.90
  -1  -4   2  573.34   14.20
   1  -4  -2  581.94   13.30
  -1  -4   2  546.25   13.50
   1  -4  -2  562.74   14.40
   1   4  -2  580.94   11.90
   1   4  -2  584.84   12.70
  -1   4   2  537.85   13.00
   1   4  -2  570.44   14.10
  -1   4   2  576.74   13.60
  -1   4   2  552.94   16.30
   0  -4  -2    0.30    1.10
   0  -4  -2   -1.50    1.40
   0  -4   2   -0.20    1.70
   0  -4   2   -1.30    0.90
   0  -4   2    0.00    1.20
   0  -4   2    0.10    1.10
   0   4   2    0.30    1.50
   0   4  -2    0.00    1.20
   0   4  -2    1.00    1.10
   0   4   2   -0.90    1.20
   0   4   2   -0.10    1.10
   0   4   2   -0.80    0.90
  -1  -4  -2 1008.40   21.50
   1  -4   2 1056.89   23.10
  -1  -4  -2 1077.89   22.50
   1  -4   2 1067.89   22.60
   1  -4   2 1080.29   20.00
  -1  -4  -2 1081.09   23.00
   1  -4   2 1028.40   21.20
   1   4   2 1041.50   21.70
  -1   4  -2 1056.89   22.90
   1   4   2 1037.00   22.50
   1   4   2 1046.60   20.60
  -1   4  -2 1012.10   22.30
   1   4   2 1044.80   21.10
  -2  -4  -2   36.70    4.00
   2  -4   2   31.70    2.70
  -2  -4  -2   39.90    3.60
   2  -4   2   35.30    2.10
  -2  -4  -2   35.00    3.00
   2  -4   2   34.50    3.90
   2   4   2   40.60    3.20
  -2   4  -2   33.10    4.00
   2   4   2   38.40    2.00
  -2   4  -2   34.70    2.30
   2   4   2   34.40    3.70
  -2   4  -2   36.20    3.70
   3  -4   2  402.86    8.20
   3  -4   2  383.76   13.80
  -3  -4  -2  393.06   10.80
   3  -4   2  380.86    9.80
  -3  -4  -2  380.36   10.40
  -3  -4  -2  379.66   12.50
  -3   4  -2  386.66   11.90
   3   4   2  384.56   14.40
   3   4   2  389.76   10.70
  -3   4  -2  412.76   13.10
  -3   4  -2  383.16    8.30
  -4  -4  -2   16.60    3.40
   4  -4   2   23.00    2.50
  -4  -4  -2   22.50    3.00
   4  -4   2   17.60    3.20
  -4  -4  -2   18.50    2.70
  -4   4  -2   17.40    2.80
  -4   4  -2   14.20    2.80
  -4   4  -2   18.70    3.10
   5  -4   2    1.30    1.80
  -5  -4  -2    5.50    2.60
  -5  -4  -2    4.30    2.30
   5  -4   2    4.20    1.20
  -5  -4  -2    3.70    1.60
   5   4   2    4.80    1.70
  -5   4  -2    2.70    2.00
  -5   4  -2    3.60    2.00
  -6  -4  -2   14.20    2.10
  -6  -4  -2   13.50    3.00
  -6  -4  -2   12.80    3.80
  -6   4  -2   10.90    2.70
   6   4   2   13.30    2.80
  -7  -4  -2   -2.20    1.20
   7  -4   2   -2.20    1.70
  -7  -4  -2    0.20    2.00
  -7  -4  -2    0.90    2.20
  -7   4  -2    0.80    2.30
  -7   4  -2   -0.90    2.10
  -7  -5   2   51.49    5.20
  -7  -5   2   79.59    7.40
   7  -5  -2   54.19    4.80
  -7  -5   2   70.19    7.70
  -7  -5   2   63.59    5.50
   7   5  -2   62.79    5.00
  -7   5   2   65.09    5.00
  -7   5   2   62.99    6.90
  -7   5   2   62.89    8.20
  -7   5   2   82.89    6.70
  -6  -5   2   99.79    5.80
  -6  -5   2  108.39    7.50
   6  -5  -2  100.89    5.80
  -6  -5   2  112.49    8.30
  -6  -5   2  102.29    6.50
   6   5  -2  101.59    6.00
  -6   5   2  103.59    5.90
  -6   5   2  113.89    8.80
  -6   5   2  111.19    6.90
  -5  -5   2   53.19    5.20
   5  -5  -2   70.29    5.00
  -5  -5   2   64.19    4.70
  -5  -5   2   72.39    6.50
   5  -5  -2   68.09    6.60
   5   5  -2   60.49    6.60
   5   5  -2   64.99    4.30
  -5   5   2   62.19    5.30
  -5   5   2   64.29    4.90
  -5   5   2   74.19    6.90
  -4  -5   2  185.38    8.10
  -4  -5   2  190.68    6.60
  -4  -5   2  202.38    9.50
   4  -5  -2  185.18    8.20
   4  -5  -2  170.88    9.40
  -4   5   2  182.08    7.40
  -4   5   2  194.88    9.60
   4   5  -2  189.78    9.40
  -4   5   2  181.08    7.80
   4   5  -2  185.28    6.40
  -3  -5   2   34.80    2.20
   3  -5  -2   26.70    4.30
  -3  -5   2   31.20    3.90
   3  -5  -2   35.80    3.50
  -3  -5   2   32.90    4.50
   3   5  -2   34.20    2.90
  -3   5   2   38.20    4.70
  -3   5   2   35.80    3.80
   3   5  -2   33.80    4.40
  -3   5   2   36.70    3.90
   2  -5  -2    5.10    1.10
  -2  -5   2    4.60    2.20
  -2  -5   2    4.20    1.70
  -2  -5   2    4.70    1.20
  -2  -5   2    4.00    1.80
   2  -5  -2    4.40    1.70
   2  -5  -2    3.00    1.40
   2  -5  -2    4.30    1.60
  -2   5   2    6.10    1.80
  -2   5   2    4.20    1.70
  -2   5   2    4.60    1.90
   2   5  -2    4.10    1.20
   2   5  -2    5.10    1.40
   2   5  -2    3.50    1.70
   1  -5  -2   12.40    2.30
  -1  -5   2    9.10    1.90
   1  -5  -2    7.20    1.60
  -1  -5   2   11.20    2.00
   1  -5  -2    7.00    1.60
  -1  -5   2    7.60    1.80
   1   5  -2   13.60    2.90
   1   5  -2   16.70    2.60
  -1   5   2   11.00    2.50
   1   5  -2   10.80    1.70
  -1   5   2    8.90    1.90
  -1   5   2   11.90    2.10
   0  -5  -2   35.50    3.40
   0  -5   2   33.30    3.40
   0  -5   2   32.20    3.40
   0  -5   2   41.20    4.80
   0  -5   2   30.90    3.80
   0  -5  -2   35.00    3.80
   0   5  -2   41.00    3.80
   0   5   2   34.50    4.30
   0   5   2   31.20    3.30
   0   5  -2   39.00    3.80
   0   5   2   33.30    3.60
   0   5   2   29.40    3.60
  -1  -5  -2  164.18    7.20
  -1  -5  -2  171.48    6.80
   1  -5   2  169.68    7.50
   1  -5   2  162.38    5.40
   1  -5   2  157.78    6.40
   1  -5   2  158.68    7.20
  -1   5  -2  161.68    7.10
  -1   5  -2  164.28    7.60
   1   5   2  170.68    7.10
   1   5   2  162.68    7.40
   1   5   2  161.18    6.30
   1   5   2  164.08    6.00
  -2  -5  -2  152.98    7.50
   2  -5   2  150.48    6.10
  -2  -5  -2  155.48    6.50
   2  -5   2  151.18    4.70
  -2  -5  -2  157.38    6.50
   2  -5   2  141.29    9.10
   2   5   2  159.78    9.50
  -2   5  -2  152.68    7.80
  -2   5  -2  161.68    8.50
   2   5   2  153.08    4.80
   2   5   2  152.98    6.20
  -3  -5  -2  636.44   18.00
   3  -5   2  649.64   18.90
  -3  -5  -2  641.64   15.70
  -3  -5  -2  658.83   16.20
   3  -5   2  648.94   15.30
   3   5   2  646.94   15.80
  -3   5  -2  650.63   18.60
  -3   5  -2  653.63   17.60
   3   5   2  647.44   18.50
  -4  -5  -2   99.79    6.90
   4  -5   2  104.09    7.70
  -4  -5  -2  112.89    7.60
  -4  -5  -2  107.29    6.20
   4  -5   2  103.69    5.00
   4   5   2   91.99    7.30
  -4   5  -2  110.79    7.70
   4   5   2  101.59    5.80
  -4   5  -2  104.69    7.00
   5  -5   2   14.10    2.00
  -5  -5  -2   16.90    2.80
  -5  -5  -2   10.30    4.90
  -5  -5  -2   13.90    2.40
   5   5   2   14.00    2.60
  -5   5  -2   16.90    3.20
  -5   5  -2   18.90    5.00
  -5   5  -2   11.80    3.30
  -6  -5  -2    2.70    2.60
  -6  -5  -2    0.30    2.80
  -6  -5  -2    1.20    1.60
   6  -5   2    1.20    1.20
   6  -5   2    2.80    2.70
  -6   5  -2    5.40    2.60
  -6   5  -2    0.40    2.10
   6   5   2    4.60    2.30
  -6   5  -2    9.50    4.40
  -7  -5  -2   -0.90    2.20
  -7  -5  -2    0.50    3.50
  -7  -5  -2   -2.50    1.50
  -7   5  -2   -1.20    2.30
   7   5   2    0.50    2.10
  -7   5  -2    0.00    2.40
  -7  -6   2   19.60    5.60
  -7  -6   2    8.60    3.00
  -7  -6   2   14.30    2.90
   7  -6  -2    9.30    2.30
  -7  -6   2   10.20    3.20
   7   6  -2   11.80    2.40
  -7   6   2    6.00    3.20
  -7   6   2   13.30    3.70
  -7   6   2   13.50    2.90
  -7   6   2   18.10    3.70
   6  -6  -2   11.00    2.40
  -6  -6   2    8.40    2.50
  -6  -6   2    7.90    3.20
  -6  -6   2    7.80    2.30
  -6  -6   2    8.50    3.10
   6   6  -2   10.20    2.30
  -6   6   2   11.80    2.50
  -6   6   2   10.70    3.50
  -5  -6   2    5.30    3.10
  -5  -6   2    9.70    3.10
   5  -6  -2    9.70    2.10
  -5  -6   2   10.00    2.70
  -5  -6   2    7.30    2.00
  -5   6   2   12.10    2.60
  -5   6   2    6.30    2.70
  -5   6   2    8.30    2.40
   5   6  -2    8.70    2.00
  -4  -6   2    0.40    2.60
  -4  -6   2    2.40    2.10
  -4  -6   2    2.30    2.10
   4  -6  -2    2.40    1.80
  -4   6   2    2.60    2.10
  -4   6   2   -2.50    1.70
  -4   6   2    1.70    1.60
   4   6  -2   -1.30    2.10
   4   6  -2    0.80    1.30
   3  -6  -2   53.09    5.80
  -3  -6   2   53.79    5.20
  -3  -6   2   59.09    5.90
  -3  -6   2   59.69    5.30
  -3  -6   2   55.39    3.20
   3  -6  -2   50.99    4.40
   3   6  -2   56.79    3.90
  -3   6   2   59.99    6.00
  -3   6   2   55.19    5.20
  -3   6   2   59.19    5.90
   3   6  -2   54.79    5.70
  -2  -6   2    9.70    1.60
   2  -6  -2   10.10    2.20
   2  -6  -2   13.20    1.70
   2  -6  -2    8.80    2.30
   2  -6  -2    7.50    2.20
  -2  -6   2    8.90    2.30
  -2  -6   2    9.30    2.30
  -2  -6   2   11.30    2.20
   2   6  -2    7.40    2.20
  -2   6   2    7.70    1.90
   2   6  -2    9.90    1.80
   2   6  -2   10.60    1.70
  -2   6   2   13.60    3.00
  -2   6   2   12.40    2.40
   1  -6  -2    8.70    2.20
   1  -6  -2    4.40    1.50
  -1  -6   2    7.20    2.00
  -1  -6   2    5.20    2.00
   1  -6  -2   13.40    2.70
  -1  -6   2    7.30    1.60
  -1  -6   2   10.10    2.00
   1   6  -2    7.80    1.60
   1   6  -2    7.20    2.10
  -1   6   2    6.70    2.10
  -1   6   2    8.00    1.80
  -1   6   2    7.20    2.10
   1   6  -2    6.70    1.70
   0  -6   2    2.60    2.10
   0  -6   2    3.60    1.50
   0  -6  -2    4.10    1.80
   0  -6   2    3.30    1.60
   0  -6   2    1.70    1.30
   0  -6  -2    2.50    1.80
   0   6   2    3.30    1.80
   0   6  -2    3.90    1.50
   0   6   2    5.10    1.60
   0   6  -2    4.10    1.80
   0   6   2   -0.60    3.10
   1  -6   2  174.68    7.10
  -1  -6  -2  178.88    8.30
   1  -6   2  180.68    9.10
   1  -6   2  177.68    8.20
  -1  -6  -2  181.68    7.60
   1  -6   2  168.88    7.20
   1   6   2  177.08    8.40
  -1   6  -2  183.48    8.40
   1   6   2  179.08    8.00
   1   6   2  180.38    7.00
   1   6   2  183.48    8.40
  -1   6  -2  172.38    8.10
  -2  -6  -2   84.79    5.60
   2  -6   2   76.49    5.20
   2  -6   2   82.99    6.60
  -2  -6  -2   83.59    6.30
   2  -6   2   81.19    3.80
   2   6   2   79.19    3.90
  -2   6  -2   85.49    6.70
   2   6   2   82.49    6.10
   2   6   2   72.69    6.20
  -2   6  -2   81.19    6.10
   3  -6   2   15.00    2.90
   3  -6   2    7.20    2.40
  -3  -6  -2   15.00    2.50
  -3  -6  -2   15.30    3.20
  -3  -6  -2   17.30    2.90
   3   6   2   12.00    3.10
  -3   6  -2   13.80    2.80
  -3   6  -2   10.00    2.60
   3   6   2   20.20    3.00
   4  -6   2   88.59    6.20
  -4  -6  -2   85.19    5.70
  -4  -6  -2   95.49    6.30
  -4  -6  -2   85.69    7.10
   4   6   2   84.69    5.50
  -4   6  -2   83.09    6.80
  -4   6  -2   92.49    7.70
  -5  -6  -2   30.30    4.10
   5  -6   2   26.50    4.80
  -5  -6  -2   34.70    5.60
  -5   6  -2   36.60    5.30
   5   6   2   27.10    3.80
  -5   6  -2   21.70    4.00
  -5   6  -2   25.30    4.10
  -6  -6  -2   -2.10    3.00
   6  -6   2    1.30    1.50
  -6  -6  -2    1.20    1.80
  -6   6  -2    0.10    1.90
  -6   6  -2   -0.80    2.20
   6   6   2   -1.40    2.50
  -7  -6  -2    1.60    2.40
  -7  -6  -2   -1.30    3.60
   7  -6   2   -3.30    1.50
  -7   6  -2   -4.90    2.20
  -7   6  -2   -0.40    2.50
   7   6   2   -3.20    2.20
  -6  -7   2    3.00    1.60
  -6  -7   2   -5.00    2.90
   6  -7  -2    1.70    1.80
  -6  -7   2    3.10    2.80
  -6   7   2    1.20    2.60
  -6   7   2   -2.90    2.00
  -6   7   2   -2.40    1.80
  -5  -7   2   -1.50    2.30
  -5  -7   2   -1.20    2.90
  -5  -7   2   -0.20    2.10
   5  -7  -2    0.80    1.60
   5   7  -2   -0.80    1.60
   5   7  -2    0.30    3.00
  -5   7   2    0.60    2.20
  -5   7   2   -0.30    1.90
  -5   7   2    0.80    2.10
   4  -7  -2    0.20    1.90
  -4  -7   2    1.50    2.50
  -4  -7   2    3.40    2.10
  -4  -7   2    6.40    2.90
   4  -7  -2    4.60    2.10
  -4   7   2    1.60    2.10
   4   7  -2    1.20    1.50
  -4   7   2    4.70    2.30
  -4   7   2    4.40    2.40
  -3  -7   2   26.10    3.70
  -3  -7   2   29.10    2.90
  -3  -7   2   20.70    3.40
   3  -7  -2   30.20    4.10
  -3  -7   2   38.00    5.00
  -3   7   2   31.00    4.10
  -3   7   2   32.00    4.80
   3   7  -2   28.70    3.40
  -3   7   2   20.20    3.60
  -2  -7   2  144.59    6.60
  -2  -7   2  148.79    7.80
   2  -7  -2  141.79    8.60
   2  -7  -2  147.59    5.30
   2  -7  -2  143.29    7.50
  -2  -7   2  139.89    7.80
   2  -7  -2  139.49    7.60
   2   7  -2  137.79    6.30
  -2   7   2  132.39    7.50
   2   7  -2  138.99    6.00
  -2   7   2  147.39    8.10
  -2   7   2  150.88    8.80
   2   7  -2  137.19    8.30
  -1  -7   2  106.39    7.50
  -1  -7   2   98.49    6.60
  -1  -7   2  104.19    6.40
  -1  -7   2  105.89    6.50
   1  -7  -2  101.09    6.80
   1  -7  -2   97.89    6.40
  -1   7   2  103.39    7.10
   1   7  -2   97.09    5.30
   1   7  -2   97.19    7.10
  -1   7   2  111.29    7.30
  -1   7   2  103.39    7.00
  -1   7   2   99.09    6.10
   1   7  -2  100.79    6.20
   0  -7   2  626.34   17.90
   0  -7  -2  603.14   17.20
   0  -7   2  622.04   15.60
   0  -7  -2  587.34   16.70
   0  -7   2  607.04   17.80
   0  -7   2  595.14   16.60
   0   7   2  580.64   15.50
   0   7   2  606.14   17.20
   0   7   2  606.54   17.20
   0   7   2  620.84   16.70
   0   7  -2  599.74   17.50
   0   7  -2  626.74   17.00
   1  -7   2    1.00    1.70
  -1  -7  -2    4.50    2.60
   1  -7   2    2.20    1.90
  -1  -7  -2    3.00    2.00
   1  -7   2   -1.20    2.40
   1  -7   2    2.40    1.90
   1   7   2    2.60    1.60
  -1   7  -2    1.10    2.30
   1   7   2    4.20    2.90
  -1   7  -2    0.80    2.00
   1   7   2    4.30    1.90
  -2  -7  -2  295.97   11.90
   2  -7   2  290.27   12.70
   2  -7   2  311.57   11.40
  -2  -7  -2  289.47   11.00
   2  -7   2  295.27   10.60
   2   7   2  289.77   10.10
   2   7   2  302.57    8.70
   2   7   2  287.77   12.10
  -2   7  -2  294.17   11.80
  -2   7  -2  299.07   12.40
  -3  -7  -2   18.40    3.00
   3  -7   2   20.50    3.10
  -3  -7  -2   15.20    3.60
   3  -7   2   13.80    3.20
  -3   7  -2   15.70    3.10
  -3   7  -2   17.70    3.10
   3   7   2   14.40    3.50
   3   7   2   18.40    2.90
  -4  -7  -2   -0.80    2.50
   4  -7   2    1.80    1.60
  -4  -7  -2    1.40    1.90
  -4  -7  -2    3.80    2.00
  -4   7  -2    4.30    2.40
   4   7   2    0.90    1.50
  -4   7  -2    0.20    1.80
  -5  -7  -2    6.00    2.50
  -5  -7  -2   -0.50    1.70
  -5  -7  -2   -0.80    2.50
   5   7   2    1.20    1.90
  -5   7  -2    2.60    2.50
  -5   7  -2   -0.10    2.30
  -5   7  -2    2.30    2.40
  -6  -7  -2    4.70    2.60
  -6  -7  -2    6.50    4.00
   6  -7   2    4.70    1.90
  -6  -7  -2    0.00    2.20
  -6   7  -2   12.70    3.30
   6   7   2    1.70    2.80
  -6   7  -2    4.90    3.30
  -6  -8   2   -2.70    3.60
  -6  -8   2    0.40    2.60
   6  -8  -2   -2.60    2.00
  -6   8   2   -0.60    2.20
   6   8  -2   -2.70    1.80
  -6   8   2   -0.20    2.60
  -6   8   2   -3.80    2.90
  -5  -8   2   10.80    3.40
  -5  -8   2    6.10    3.50
  -5  -8   2   11.10    3.60
  -5   8   2    7.50    3.40
   5   8  -2   11.30    2.60
  -5   8   2    0.50    5.10
  -5   8   2    6.60    2.70
  -4  -8   2   46.30    6.50
  -4  -8   2   40.00    5.70
  -4  -8   2   40.30    6.30
  -4   8   2   36.40    5.40
   4   8  -2   41.40    7.20
  -4   8   2   43.20    5.60
   4   8  -2   34.80    4.00
  -4   8   2   48.00    7.20
  -3  -8   2   13.10    4.30
  -3  -8   2   10.60    3.00
  -3  -8   2   10.30    3.70
   3  -8  -2    9.40    4.60
   3  -8  -2    5.70    2.10
  -3   8   2   12.40    3.20
   3   8  -2    9.40    1.70
  -3   8   2   15.00    3.90
   3   8  -2    9.00    2.10
  -2  -8   2   -2.20    1.70
  -2  -8   2    1.20    1.30
   2  -8  -2    3.30    2.10
  -2  -8   2    0.60    2.70
  -2  -8   2    4.10    2.70
   2  -8  -2   -1.30    1.60
   2  -8  -2   -2.10    1.40
   2   8  -2   -0.10    1.60
  -2   8   2    2.30    2.30
   2   8  -2    2.30    1.60
  -2   8   2    1.70    2.10
  -2   8   2    4.30    2.70
   1  -8  -2  102.89    7.10
  -1  -8   2   98.39    6.50
   1  -8  -2   80.09    6.40
   1  -8  -2   99.39    5.70
  -1  -8   2  108.79    8.20
  -1  -8   2   98.09    6.70
  -1   8   2  119.49    8.30
  -1   8   2   91.79    6.20
  -1   8   2  101.69    7.50
  -1   8   2   93.99    7.30
   1   8  -2   95.69    6.40
   1   8  -2   99.49    5.70
   0  -8   2    3.80    2.20
   0  -8   2    3.20    2.00
   0  -8   2    2.90    1.90
   0  -8  -2    5.10    2.80
   0  -8   2    2.80    2.80
   0   8   2    2.30    2.70
   0   8   2    5.10    2.10
   0   8  -2    2.50    2.00
   0   8   2    6.20    2.70
   0   8  -2    0.50    2.90
   0   8   2    4.30    2.10
   0   8  -2    3.70    1.80
  -1  -8  -2  104.39    7.60
   1  -8   2  112.79    5.70
   1  -8   2  117.79    7.20
   1  -8   2  111.59    7.90
  -1  -8  -2   86.59    6.60
   1  -8   2  107.29    7.70
  -1   8  -2  113.59    8.00
   1   8   2  103.89    7.80
   1   8   2  108.69    6.50
   1   8   2  113.39    6.40
  -1   8  -2   99.09    7.50
   2  -8   2   23.60    3.50
   2  -8   2   20.20    3.60
  -2  -8  -2   21.80    3.30
   2  -8   2   22.10    2.80
  -2  -8  -2   17.90    3.80
   2   8   2   29.30    3.30
   2   8   2   20.60    3.00
  -2   8  -2   21.10    3.90
  -2   8  -2   15.40    3.40
   2   8   2   26.00    4.70
   3  -8   2    6.00    2.10
   3  -8   2    3.70    2.40
  -3  -8  -2    3.30    4.00
  -3  -8  -2    3.30    2.80
  -3   8  -2    4.10    2.50
   3   8   2    2.00    2.40
  -3   8  -2   -2.50    4.30
   3   8   2    4.30    2.00
   4  -8   2   -3.10    1.50
  -4  -8  -2    0.40    3.10
  -4  -8  -2   -4.30    1.80
  -4   8  -2    0.40    2.30
  -4   8  -2    2.30    2.70
  -5  -8  -2    2.80    3.20
   5  -8   2   -1.00    1.60
  -5  -8  -2    0.70    1.80
  -5  -8  -2   -3.10    2.20
  -5   8  -2   -1.30    2.60
  -5   8  -2   -0.20    2.40
  -5  -9   2   13.70    4.30
  -5  -9   2   12.00    4.20
   5   9  -2    9.50    2.70
  -5   9   2   14.30    3.60
  -5   9   2   12.20    3.80
  -4  -9   2   30.20    4.90
  -4  -9   2   35.70    6.20
   4  -9  -2   45.80    6.80
  -4   9   2   32.40    5.30
  -4   9   2   31.20    5.20
   4   9  -2   30.70    3.50
  -4   9   2   46.90    6.50
  -3  -9   2    6.40    2.80
   3  -9  -2    2.90    2.30
  -3  -9   2    4.00    3.80
   3   9  -2    2.90    1.50
  -3   9   2    0.00    2.40
  -3   9   2    4.10    2.40
   3   9  -2    3.60    2.00
  -3   9   2    8.80    3.60
   2  -9  -2    1.50    2.30
  -2  -9   2    1.40    2.30
  -2  -9   2   -1.90    1.90
   2  -9  -2    0.50    2.10
   2  -9  -2    0.10    1.30
  -2   9   2    2.40    1.90
   2   9  -2    2.10    2.60
   2   9  -2    0.40    1.50
  -2   9   2   -1.50    2.40
  -2   9   2   -1.30    2.30
   2   9  -2   -2.10    1.40
  -2   9   2    1.50    2.20
  -1  -9   2    1.50    2.30
   1  -9  -2   -0.20    1.60
  -1  -9   2   -0.30    1.60
   1  -9  -2    1.20    2.20
  -1  -9   2   -3.60    1.70
   1  -9  -2   -0.40    2.00
   1   9  -2    0.30    1.60
   1   9  -2    0.80    1.50
  -1   9   2   -2.80    2.30
  -1   9   2    0.70    1.80
   1   9  -2    2.00    2.70
   0  -9   2   12.70    3.90
   0  -9  -2   16.40    3.80
   0  -9   2   13.30    2.50
   0  -9   2   18.10    2.80
   0  -9   2   13.60    3.10
   0  -9  -2   16.10    2.70
   0   9  -2   10.70    2.70
   0   9  -2   18.30    4.20
   0   9  -2   13.70    2.40
   0   9   2    7.90    5.20
   0   9   2   13.90    2.80
   1  -9   2    1.40    1.90
  -1  -9  -2    1.50    2.60
  -1  -9  -2   -3.40    2.00
   1  -9   2    1.30    1.50
   1  -9   2   -1.40    1.80
   1  -9   2    4.20    2.40
   1   9   2    0.40    2.80
  -1   9  -2   -4.70    2.90
   1   9   2    1.30    1.70
   1   9   2   -1.60    1.50
   2  -9   2    8.60    2.70
   2  -9   2    3.30    2.20
  -2  -9  -2    4.60    2.70
  -2  -9  -2    8.20    2.90
   2  -9   2    7.40    2.00
   2   9   2    5.20    1.70
  -2   9  -2    9.10    3.90
   2   9   2    8.40    3.90
  -2   9  -2    5.00    2.70
  -3  -9  -2    6.80    3.00
   3  -9   2    5.90    2.30
  -3   9  -2    4.60    2.90
  -4  -9  -2   -1.60    2.90
   4   9   2    0.10    2.10
  -4   9  -2    5.00    3.10
  -3 -10   2    1.70    2.80
  -3 -10   2    5.20    3.10
  -3  10   2   -3.60    2.10
   3  10  -2   -0.20    1.50
   2 -10  -2    4.50    2.70
   2 -10  -2    0.00    1.60
  -2 -10   2    3.00    2.70
  -2 -10   2    1.50    2.60
  -2  10   2    3.20    2.50
   2  10  -2    1.10    2.00
  -1 -10   2   -1.20    1.90
   1 -10  -2   -1.00    1.90
  -1 -10   2   -3.10    1.80
   1 -10  -2    2.40    2.40
  -1 -10   2    1.60    3.00
  -1  10   2   -0.70    1.80
   1  10  -2   -3.30    1.70
   1  10  -2   -2.60    1.70
   0 -10   2    3.80    3.00
   0 -10  -2   -2.40    1.70
   0 -10  -2    5.00    2.80
   0 -10   2   -2.20    1.80
   0 -10   2   -0.40    1.90
   0  10  -2   -0.20    2.10
   0  10   2   -0.80    1.60
   0  10   2   -4.50    1.80
   1 -10   2    0.50    2.20
  -1 -10  -2   -2.60    2.70
   1 -10   2    4.00    2.70
   1 -10   2    0.50    1.70
  -1 -10  -2   -0.60    2.00
  -1  10  -2    0.10    2.20
  -1  10  -2    2.60    1.90
   1  10   2   -2.00    1.90
   1  10   2   -0.20    1.60
  -2 -10  -2    4.40    3.10
   2 -10   2   10.50    2.20
  -2 -10  -2    5.70    3.00
  -2  10  -2    2.40    2.80
   2  10   2    4.30    2.00
   2  10   2   -2.00    2.10
  -3 -10  -2   -2.10    2.70
  -3  10  -2   -3.30    2.40
  -9   0   3   -1.40    2.00
  -9   0   3   -4.40    2.00
  -9   0   3   -0.60    2.50
  -8   0   3   -0.80    3.10
  -8   0   3    0.60    1.60
  -8   0   3   -1.60    1.70
  -8   0   3   -2.00    3.10
  -8   0   3    0.60    1.20
  -7   0   3   -2.20    1.40
  -7   0   3    0.10    1.80
  -7   0   3    0.60    1.60
  -7   0   3   -1.10    1.30
  -7   0   3   -1.30    1.10
  -6   0   3   -0.30    1.20
  -6   0   3   -1.90    1.50
  -6   0   3    0.00    1.60
  -6   0   3   -1.70    1.20
  -6   0   3   -0.10    1.20
  -5   0   3   -0.70    1.80
  -5   0   3    0.20    1.30
  -5   0   3    0.10    1.20
  -5   0   3    0.50    1.20
  -5   0   3    1.10    1.10
  -4   0   3   -3.00    1.50
  -4   0   3   -0.30    1.10
  -4   0   3   -2.10    1.10
  -4   0   3   -2.10    1.10
  -4   0   3   -0.80    1.10
  -3   0   3   -0.20    1.00
  -3   0   3   -0.30    0.90
  -3   0   3   -0.40    0.80
  -3   0   3    0.00    0.90
  -2   0   3   -0.20    1.10
  -2   0   3    2.50    1.20
   2   0  -3    0.40    1.40
  -1   0   3   -1.10    0.50
   1   0  -3    0.00    0.60
  -1   0   3    0.30    0.70
  -1   0   3    0.10    0.70
   0   0  -3    0.10    0.60
   0   0   3    0.10    0.60
   0   0  -3   -0.70    0.70
   0   0   3    0.40    0.60
   0   0   3    0.60    0.60
   0   0  -3    0.10    0.60
  -1   0  -3   -0.20    0.80
   1   0   3    0.60    0.80
   1   0   3    0.70    0.90
   1   0   3    0.30    0.80
   1   0   3    0.50    0.60
  -1   0  -3    1.50    0.90
  -1   0  -3    0.80    0.90
  -2   0  -3    0.60    0.90
  -2   0  -3    0.80    1.00
   2   0   3    0.10    0.80
   2   0   3   -0.30    0.70
  -2   0  -3   -0.30    0.70
  -3   0  -3   -0.30    0.90
   3   0   3   -0.70    0.70
  -3   0  -3   -0.10    1.10
  -3   0  -3    0.60    1.00
   3   0   3    0.30    0.90
   4   0   3    1.00    1.40
   4   0   3    0.50    1.00
  -4   0  -3    0.40    1.00
  -4   0  -3   -0.30    1.10
  -4   0  -3   -1.60    1.30
  -5   0  -3    0.20    1.40
  -5   0  -3    0.60    1.40
   5   0   3   -1.00    1.00
  -5   0  -3   -2.40    1.60
   5   0   3    2.40    1.50
  -6   0  -3    0.70    1.90
   6   0   3    0.10    1.20
  -6   0  -3    0.50    1.50
  -6   0  -3    1.20    1.40
  -7   0  -3   -1.70    1.50
  -7   0  -3    0.60    1.40
  -7   0  -3   -2.60    1.80
  -7   0  -3   -1.30    2.50
  -8   0  -3   -3.50    1.70
  -8   0  -3    1.70    2.50
  -8   0  -3    0.40    2.50
  -8   0  -3   -2.10    1.80
  -8  -1   3   11.90    3.10
  -8  -1   3   15.30    2.30
  -8  -1   3   13.00    2.50
  -8  -1   3   15.90    4.00
  -8  -1   3   13.70    2.90
  -8   1   3   17.90    5.00
  -8   1   3   10.10    3.10
  -8   1   3   11.60    2.90
  -8   1   3   15.50    2.60
  -7  -1   3    2.40    1.80
  -7  -1   3    3.40    2.50
  -7  -1   3    3.70    1.90
  -7  -1   3    2.10    1.50
  -7  -1   3    3.60    1.40
  -7   1   3    2.20    1.50
  -7   1   3    4.80    2.40
  -7   1   3   -0.80    1.70
  -7   1   3    4.90    1.90
  -7   1   3    2.00    1.30
  -6  -1   3   16.40    2.80
  -6  -1   3   25.10    3.50
  -6  -1   3   22.20    2.70
  -6  -1   3   20.40    3.50
  -6  -1   3   14.30    2.40
  -6   1   3   15.70    2.20
  -6   1   3   15.40    2.80
  -6   1   3   18.90    2.50
  -6   1   3   16.50    3.10
  -6   1   3   20.50    3.30
  -5  -1   3   26.10    3.80
  -5  -1   3   24.10    2.90
  -5  -1   3   23.90    3.00
  -5  -1   3   25.10    3.20
  -5  -1   3   20.00    2.80
  -5   1   3   27.80    4.00
  -5   1   3   22.10    2.70
  -5   1   3   19.60    2.80
  -5   1   3   16.90    3.40
  -4  -1   3 4908.11   85.09
  -4  -1   3 4905.51   85.29
  -4  -1   3 4873.11   84.09
  -4   1   3 4929.11   83.49
  -4   1   3 4954.40   87.29
  -4   1   3 4759.62   84.49
  -3  -1   3    2.60    1.30
  -3  -1   3    4.00    1.50
   3  -1  -3    5.80    1.20
  -3  -1   3    2.80    0.80
  -3   1   3    4.70    1.00
  -3   1   3    4.70    1.10
  -3   1   3    4.70    1.50
   2  -1  -3  491.25   10.90
   2  -1  -3  491.75    9.70
  -2  -1   3  486.05    9.10
  -2  -1   3  488.75   10.90
  -2  -1   3  491.55   10.60
  -2   1   3  486.85   10.80
  -2   1   3  489.85    9.60
   2   1  -3  489.55   10.80
   2   1  -3  501.35   10.90
  -1  -1   3  102.69    3.40
   1  -1  -3  100.19    3.00
  -1  -1   3  105.19    3.60
   1  -1  -3  103.59    3.70
   1   1  -3  106.49    3.40
  -1   1   3  105.29    3.70
   1   1  -3  103.99    3.70
  -1   1   3  102.69    3.00
   0  -1   3 1698.53   30.60
   0  -1  -3 1731.33   29.90
   0  -1  -3 1681.13   30.10
   0  -1   3 1712.43   30.00
   0  -1  -3 1667.23   29.90
   0  -1  -3 1717.93   30.00
   0   1   3 1697.73   29.90
   0   1  -3 1678.13   30.60
   0   1   3 1724.73   30.10
   0   1   3 1694.63   30.00
   0   1  -3 1694.33   30.00
   0   1  -3 1693.13   30.20
   0   1  -3 1719.33   29.40
   1  -1   3  205.38    5.80
   1  -1   3  203.48    6.30
  -1  -1  -3  202.08    5.80
   1  -1   3  214.08    5.60
  -1  -1  -3  214.68    5.20
  -1  -1  -3  214.58    5.90
  -1   1  -3  214.18    6.00
  -1   1  -3  209.68    5.40
   1   1   3  209.08    5.80
   1   1   3  215.98    5.60
  -1   1  -3  214.88    6.30
   1   1   3  221.88    5.40
  -2  -1  -3  116.39    4.60
  -2  -1  -3  118.39    3.80
   2  -1   3  116.59    4.90
  -2  -1  -3  122.29    4.10
   2  -1   3  122.59    4.80
   2   1   3  123.29    4.00
  -2   1  -3  118.49    5.00
  -2   1  -3  114.19    4.70
   2   1   3  120.09    4.70
  -2   1  -3  120.59    4.00
   2   1   3  124.39    3.30
  -3  -1  -3    1.80    1.30
   3  -1   3    1.10    1.00
   3  -1   3    1.20    1.20
  -3  -1  -3    2.10    1.00
   3   1   3    3.10    1.00
   3   1   3    1.60    1.00
  -3   1  -3    1.90    1.20
  -3   1  -3    3.90    1.40
  -3   1  -3    2.90    1.10
   4  -1   3   39.80    3.90
  -4  -1  -3   43.00    3.40
  -4  -1  -3   45.30    4.10
  -4   1  -3   41.40    4.30
   4   1   3   40.30    3.20
  -4   1  -3   42.90    3.00
   4   1   3   44.70    3.90
  -4   1  -3   45.10    4.30
  -5  -1  -3   10.50    1.90
  -5  -1  -3    8.80    2.20
  -5  -1  -3   13.10    3.10
   5  -1   3    8.30    2.10
  -5   1  -3    9.50    1.80
  -5   1  -3   11.60    2.30
   5   1   3   10.30    1.90
  -5   1  -3   12.30    2.70
   5   1   3   10.00    2.20
  -6  -1  -3   13.80    2.60
  -6  -1  -3   23.30    3.60
   6  -1   3   27.70    4.30
  -6  -1  -3   29.40    5.30
  -6   1  -3   17.00    2.80
   6   1   3   16.50    3.00
   6   1   3   21.30    3.10
  -6   1  -3   18.20    3.00
  -6   1  -3   18.40    3.30
  -7  -1  -3   16.80    3.60
  -7  -1  -3   16.30    3.00
  -7  -1  -3   13.50    2.30
   7  -1   3   14.40    2.90
  -7  -1  -3   21.50    5.10
   7   1   3   14.60    2.40
  -7   1  -3   14.20    2.70
  -7   1  -3   14.20    2.40
  -7   1  -3   15.50    3.40
  -8  -1  -3   -1.60    1.70
   8  -1   3   -1.80    1.90
  -8  -1  -3    1.90    2.20
  -8  -1  -3   -1.20    2.40
  -8  -1  -3   -0.80    2.20
  -8   1  -3   -1.80    1.50
  -8   1  -3   -1.40    1.90
  -8  -2   3    2.40    2.00
  -8  -2   3    1.50    1.50
  -8  -2   3    4.40    2.90
  -8  -2   3    4.00    2.80
  -8  -2   3    6.00    1.70
  -8   2   3    2.50    1.40
  -8   2   3    1.00    2.40
  -8   2   3    6.80    3.40
  -8   2   3    7.00    1.60
  -8   2   3    3.80    2.70
  -7  -2   3   21.70    4.10
  -7  -2   3   25.20    3.70
  -7  -2   3   22.40    3.00
  -7  -2   3   27.60    4.00
  -7   2   3   20.50    2.50
  -7   2   3   22.80    3.10
  -7   2   3   14.50    3.10
  -7   2   3   24.10    3.70
  -6  -2   3  761.82   17.60
  -6  -2   3  752.72   20.30
  -6  -2   3  738.83   19.20
  -6  -2   3  730.63   16.90
  -6   2   3  754.62   20.90
  -6   2   3  774.72   19.80
  -6   2   3  743.73   16.90
  -6   2   3  749.42   15.30
  -5  -2   3    1.50    1.20
  -5  -2   3    0.50    1.50
  -5  -2   3   -1.40    1.40
  -5  -2   3    0.00    0.90
  -5   2   3    0.00    1.20
  -5   2   3    0.80    1.50
  -5   2   3    1.30    1.00
  -4  -2   3 1252.57   26.80
  -4  -2   3 1270.17   24.50
   4  -2  -3 1263.27   25.40
  -4  -2   3 1281.07   24.10
  -4  -2   3 1278.37   26.30
  -4   2   3 1305.07   28.40
  -4   2   3 1274.87   25.30
  -3  -2   3   70.09    4.20
  -3  -2   3   73.79    2.80
   3  -2  -3   73.59    3.70
  -3  -2   3   72.89    4.30
  -3   2   3   67.39    3.60
   3   2  -3   66.69    4.20
   3   2  -3   69.49    2.80
  -3   2   3   68.09    4.60
  -2  -2   3  267.87    7.50
   2  -2  -3  257.97    7.20
   2  -2  -3  262.37    5.40
  -2  -2   3  262.87    6.60
  -2  -2   3  269.47    7.50
  -2   2   3  263.47    6.20
  -2   2   3  265.67    8.40
   2   2  -3  258.07    7.50
  -2   2   3  263.97    7.30
  -1  -2   3  222.78    6.30
   1  -2  -3  220.18    5.20
   1  -2  -3  215.48    6.30
   1  -2  -3  223.98    5.30
  -1  -2   3  228.08    6.20
  -1  -2   3  228.98    6.00
   1   2  -3  228.48    6.20
   1   2  -3  219.48    6.30
   1   2  -3  214.08    6.30
  -1   2   3  217.28    5.90
  -1   2   3  223.18    6.30
   0  -2   3 2851.71   50.89
   0  -2  -3 2984.60   50.39
   0  -2   3 2861.41   50.09
   0  -2   3 2862.51   50.89
   0  -2  -3 2826.42   50.39
   0  -2  -3 2875.21   50.09
   0   2   3 2875.61   50.19
   0   2  -3 2918.21   50.99
   0   2   3 2937.61   50.59
   0   2   3 2912.71   50.29
   0   2  -3 2931.61   50.19
   0   2  -3 2873.01   50.79
  -1  -2  -3  271.47    7.70
   1  -2   3  287.47    6.60
  -1  -2  -3  282.87    7.30
   1  -2   3  271.47    7.90
  -1  -2  -3  276.67    6.90
  -1   2  -3  266.27    7.80
   1   2   3  279.07    7.20
  -1   2  -3  268.37    6.50
   1   2   3  269.17    7.80
  -1   2  -3  276.17    7.90
  -1   2  -3  271.97    7.20
   1   2   3  279.87    6.90
   2  -2   3  402.76   11.20
  -2  -2  -3  405.06    9.20
  -2  -2  -3  419.76   10.20
  -2  -2  -3  414.06   11.90
   2  -2   3  411.66    8.50
   2  -2   3  416.46    9.10
  -2   2  -3  420.06   10.80
   2   2   3  412.96   10.20
   2   2   3  417.06    9.20
  -2   2  -3  402.46    9.00
   2   2   3  420.66    8.70
  -2   2  -3  407.16   11.20
  -3  -2  -3  383.46   10.30
  -3  -2  -3  359.76    8.50
  -3  -2  -3  382.26   11.90
   3  -2   3  368.76   11.30
  -3   2  -3  366.16    8.70
   3   2   3  378.26    8.40
  -3   2  -3  376.86   11.30
   3   2   3  374.16   10.30
  -3   2  -3  376.26   10.80
  -4  -2  -3  429.96   12.10
  -4  -2  -3  423.56    9.50
  -4  -2  -3  426.96   14.00
   4  -2   3  429.26   13.20
   4   2   3  427.36    9.90
  -4   2  -3  431.06   12.80
  -4   2  -3  428.06   10.10
  -4   2  -3  434.36   13.20
   4   2   3  438.16   12.80
  -5  -2  -3  132.99    4.20
   5  -2   3  135.69    7.60
  -5  -2  -3  135.49    7.10
  -5  -2  -3  132.09    8.10
  -5  -2  -3  126.09    5.00
  -5   2  -3  130.99    7.20
  -5   2  -3  131.39    5.10
  -5   2  -3  125.79    7.30
   5   2   3  132.99    5.10
   5   2   3  138.09    7.00
  -6  -2  -3    2.50    2.20
  -6  -2  -3   -1.50    3.90
   6  -2   3   -2.10    1.50
  -6  -2  -3    2.40    1.30
  -6   2  -3    1.80    1.20
  -6   2  -3   -1.90    2.60
   6   2   3    1.00    1.10
   6   2   3    1.60    1.60
  -6   2  -3   -0.60    1.60
   7  -2   3   10.00    2.50
  -7  -2  -3   12.90    1.90
  -7  -2  -3   12.80    3.20
  -7  -2  -3   22.50    5.20
   7   2   3   15.60    3.30
  -7   2  -3   10.50    3.10
  -7   2  -3   10.40    2.80
  -8  -2  -3   12.50    5.00
  -8  -2  -3    9.20    4.60
  -8  -2  -3   13.00    3.50
  -8   2  -3   12.80    2.60
  -8   2  -3   17.10    3.60
  -8   2  -3   12.10    3.70
  -8  -3   3    0.80    3.10
  -8  -3   3   -2.60    2.40
  -8  -3   3    1.30    1.70
  -8  -3   3    2.30    2.30
  -8   3   3    3.20    1.50
  -8   3   3   -1.20    2.20
  -8   3   3    0.20    2.30
  -7  -3   3    4.20    4.30
  -7  -3   3    4.30    2.00
  -7  -3   3    7.30    3.40
  -7   3   3    2.60    2.50
  -7   3   3    7.60    2.30
  -7   3   3    6.20    1.80
  -6  -3   3   66.99    5.00
  -6  -3   3   77.09    3.50
  -6  -3   3   71.79    6.60
  -6  -3   3   71.99    6.00
  -6   3   3   78.89    6.40
  -6   3   3   73.59    6.90
  -6   3   3   61.29    4.70
  -5  -3   3   -0.30    2.00
  -5  -3   3   -0.60    1.60
  -5  -3   3   -0.20    2.20
   5  -3  -3    0.70    1.20
  -5  -3   3    0.90    0.70
   5   3  -3    0.10    0.90
  -5   3   3    1.80    1.60
  -5   3   3    0.40    1.30
  -4  -3   3   13.20    1.90
   4  -3  -3   11.00    1.90
  -4  -3   3   10.60    1.60
  -4  -3   3   10.20    2.80
  -4  -3   3   11.30    2.40
   4   3  -3    9.30    1.50
  -4   3   3   11.20    2.00
  -4   3   3    9.30    1.90
   4   3  -3   10.30    2.40
  -4   3   3    6.00    2.00
  -3  -3   3   15.20    2.30
  -3  -3   3   19.50    3.10
  -3  -3   3   18.20    2.00
   3  -3  -3   17.90    2.40
  -3  -3   3   20.10    2.00
   3   3  -3   20.30    1.80
   3   3  -3   18.90    2.70
  -3   3   3   15.80    2.60
  -3   3   3   12.40    2.00
  -2  -3   3  658.73   15.40
   2  -3  -3  657.03   14.60
  -2  -3   3  647.04   13.20
  -2  -3   3  643.74   15.00
  -2   3   3  644.04   14.50
  -2   3   3  632.34   16.70
   2   3  -3  655.83   12.70
  -2   3   3  642.04   13.50
   2   3  -3  641.84   15.00
  -1  -3   3 1798.42   33.80
  -1  -3   3 1771.12   32.90
   1  -3  -3 1804.02   32.50
   1  -3  -3 1795.22   33.50
  -1  -3   3 1819.52   33.40
   1  -3  -3 1751.72   31.60
   1   3  -3 1827.02   32.90
  -1   3   3 1780.02   32.40
   1   3  -3 1758.02   33.70
  -1   3   3 1804.92   34.60
  -1   3   3 1847.72   33.60
   0  -3  -3  689.53   14.90
   0  -3  -3  704.33   14.70
   0  -3   3  684.23   15.40
   0  -3   3  697.93   14.30
   0  -3   3  687.63   15.30
   0   3   3  687.43   14.60
   0   3   3  667.13   14.80
   0   3   3  710.63   15.20
   0   3   3  679.63   14.80
   0   3  -3  697.63   14.50
   0   3  -3  683.33   15.30
   0   3  -3  720.33   15.30
   1  -3   3  218.88    7.60
  -1  -3  -3  230.78    6.70
   1  -3   3  215.98    5.80
  -1  -3  -3  224.38    6.80
  -1  -3  -3  223.28    7.30
   1  -3   3  215.38    6.30
  -1   3  -3  217.78    7.40
  -1   3  -3  219.98    6.00
   1   3   3  219.78    7.40
   1   3   3  224.38    6.70
  -1   3  -3  222.38    7.70
  -2  -3  -3 1048.00   22.80
   2  -3   3 1030.70   19.50
  -2  -3  -3 1049.79   21.10
   2  -3   3 1015.50   19.90
  -2  -3  -3 1035.10   20.60
   2  -3   3  993.20   22.80
  -2   3  -3 1025.70   21.70
   2   3   3 1041.40   22.80
   2   3   3 1055.29   20.70
  -2   3  -3 1043.40   22.90
  -2   3  -3 1020.30   19.40
  -2   3  -3 1050.49   22.40
   2   3   3 1038.00   21.10
  -3  -3  -3   74.19    5.60
   3  -3   3   82.29    3.40
  -3  -3  -3   80.79    4.80
   3  -3   3   82.89    3.30
   3  -3   3   76.89    5.40
  -3  -3  -3   82.29    3.90
  -3   3  -3   81.39    3.30
  -3   3  -3   84.49    5.20
   3   3   3   78.49    4.50
  -3   3  -3   83.29    5.70
   4  -3   3   75.19    5.90
   4  -3   3   77.09    3.10
  -4  -3  -3   81.29    6.20
  -4  -3  -3   74.39    5.30
  -4  -3  -3   75.69    3.90
  -4   3  -3   78.59    5.70
  -4   3  -3   78.49    3.50
  -4   3  -3   82.29    6.20
   4   3   3   75.89    5.20
  -5  -3  -3    9.80    2.50
  -5  -3  -3   11.10    3.10
  -5  -3  -3   12.00    1.80
   5  -3   3   12.30    2.90
  -5   3  -3   11.70    2.60
   5   3   3   10.40    2.30
  -5   3  -3   12.20    2.80
  -5   3  -3   12.40    1.70
  -6  -3  -3   43.70    3.10
  -6  -3  -3   49.90    6.10
   6  -3   3   46.10    5.90
  -6  -3  -3   46.40    5.30
  -6   3  -3   46.40    3.20
  -6   3  -3   43.70    5.60
  -6   3  -3   45.60    5.80
   6   3   3   49.50    5.20
  -7  -3  -3    0.40    3.10
  -7  -3  -3   -0.20    2.20
  -7   3  -3    3.00    2.60
  -7   3  -3    1.40    1.30
   7   3   3   -2.80    1.70
  -7   3  -3   -1.10    2.10
  -8  -3  -3   -1.80    2.90
  -8  -3  -3   -1.20    2.40
  -8   3  -3   -4.00    2.50
  -8   3  -3   -2.30    2.30
  -8  -4   3    9.10    2.40
  -8  -4   3   11.30    4.00
  -8  -4   3    4.90    2.40
  -8  -4   3   11.70    3.50
  -8   4   3   11.50    3.60
  -8   4   3    7.00    3.20
  -8   4   3   12.30    2.40
  -7  -4   3   28.60    5.20
  -7  -4   3   22.30    3.90
  -7  -4   3   17.90    2.90
  -7   4   3   22.40    4.00
  -7   4   3   20.10    2.70
  -7   4   3   37.00    5.20
  -7   4   3   24.90    3.90
  -6  -4   3    0.50    2.00
   6  -4  -3   -2.40    2.00
  -6  -4   3    1.10    1.70
  -6  -4   3   -1.30    2.40
  -6   4   3    3.70    2.10
   6   4  -3   -1.10    1.20
  -6   4   3    0.40    1.80
  -6   4   3    0.70    1.50
   5  -4  -3   59.19    4.30
  -5  -4   3   57.69    5.80
  -5  -4   3   65.39    4.80
  -5  -4   3   63.99    5.50
   5   4  -3   64.59    3.90
  -5   4   3   59.29    4.70
  -5   4   3   59.49    4.40
  -5   4   3   66.49    6.30
   5   4  -3   58.79    5.80
   4  -4  -3    1.10    1.30
  -4  -4   3    0.10    1.90
  -4  -4   3    1.60    1.20
  -4  -4   3   -0.50    1.50
   4   4  -3    1.30    0.90
  -4   4   3    1.00    1.50
  -4   4   3    1.20    1.50
  -4   4   3   -0.40    1.30
   4   4  -3   -0.40    1.70
   3  -4  -3  203.58    7.30
  -3  -4   3  210.48    5.70
  -3  -4   3  211.08    5.60
  -3  -4   3  208.98    8.40
  -3  -4   3  204.08    8.00
  -3   4   3  203.98    9.10
  -3   4   3  210.98    7.50
   3   4  -3  214.08    5.70
   3   4  -3  213.48    8.60
  -3   4   3  219.48    7.20
  -2  -4   3  831.32   17.20
  -2  -4   3  867.41   19.60
   2  -4  -3  831.42   18.70
  -2  -4   3  853.11   19.00
   2  -4  -3  833.12   15.50
   2  -4  -3  843.92   17.90
   2   4  -3  867.41   17.10
  -2   4   3  836.52   17.80
  -2   4   3  838.32   20.50
   2   4  -3  823.42   19.30
   2   4  -3  858.21   16.10
  -2   4   3  853.41   18.70
  -1  -4   3   67.29    4.70
  -1  -4   3   69.79    4.00
   1  -4  -3   71.39    4.10
  -1  -4   3   71.79    4.20
  -1   4   3   69.49    5.70
   1   4  -3   69.79    4.00
   1   4  -3   63.49    4.40
  -1   4   3   71.79    4.20
  -1   4   3   67.99    4.30
   0  -4   3  725.83   15.50
   0  -4  -3  727.83   16.40
   0  -4  -3  741.13   16.30
   0  -4   3  729.93   16.30
   0  -4   3  720.13   17.00
   0  -4   3  743.03   17.00
   0   4   3  714.43   16.40
   0   4   3  738.73   16.60
   0   4  -3  746.43   16.90
   0   4   3  726.93   16.40
   0   4   3  729.33   15.90
   0   4  -3  714.73   16.90
   1  -4   3  374.86   11.00
  -1  -4  -3  353.86    9.90
  -1  -4  -3  378.96    9.90
  -1  -4  -3  359.36   10.50
   1  -4   3  347.77   10.90
   1  -4   3  375.96    8.80
   1  -4   3  345.57    9.50
  -1   4  -3  358.86   10.90
  -1   4  -3  354.26   10.60
   1   4   3  366.16   10.80
   1   4   3  362.36    9.70
  -1   4  -3  362.36    9.00
   1   4   3  366.66   10.10
   1   4   3  359.66    9.30
   2  -4   3   33.60    2.80
  -2  -4  -3   35.20    3.90
  -2  -4  -3   29.40    2.90
  -2  -4  -3   37.80    3.90
   2  -4   3   36.60    2.40
   2  -4   3   31.60    3.80
  -2   4  -3   27.60    3.50
  -2   4  -3   32.80    4.10
   2   4   3   30.90    3.10
  -2   4  -3   31.30    2.40
   2   4   3   34.40    3.30
   2   4   3   29.70    2.10
   2   4   3   34.90    3.70
  -3  -4  -3    2.70    1.60
  -3  -4  -3    1.60    1.90
  -3  -4  -3    2.20    1.20
   3  -4   3    2.50    1.00
   3  -4   3    2.00    1.50
   3  -4   3    1.80    1.10
  -3   4  -3    2.10    0.90
  -3   4  -3    4.10    1.70
  -3   4  -3    2.60    1.70
  -3   4  -3    1.20    1.70
   3   4   3    2.40    1.40
   3   4   3   -0.40    1.70
  -4  -4  -3   50.59    5.50
   4  -4   3   51.59    5.40
   4  -4   3   47.20    3.10
  -4  -4  -3   46.20    3.70
  -4  -4  -3   53.69    4.90
  -4   4  -3   50.99    5.70
  -4   4  -3   50.19    2.70
  -4   4  -3   46.10    5.10
   4   4   3   46.80    4.30
  -4   4  -3   48.80    5.30
   5  -4   3    5.10    1.10
   5  -4   3    1.50    1.60
  -5  -4  -3    3.80    2.10
  -5  -4  -3    7.30    3.30
  -5  -4  -3    3.90    1.50
  -5   4  -3    3.30    2.00
  -5   4  -3    3.40    1.90
   5   4   3    4.00    1.80
  -5   4  -3    2.70    1.10
  -6  -4  -3    1.90    2.50
  -6  -4  -3    4.70    2.30
  -6  -4  -3    3.90    1.50
   6   4   3    6.70    2.10
  -6   4  -3    2.60    2.30
  -6   4  -3    4.10    2.10
   7  -4   3    5.80    2.90
  -7  -4  -3    2.10    1.40
  -7  -4  -3    3.90    2.50
  -7  -4  -3    1.70    3.30
  -7   4  -3    1.60    2.30
  -7   4  -3    2.30    2.60
   7   4   3    1.00    2.30
  -8  -5   3   25.50    3.60
  -8  -5   3   30.60    5.10
  -8  -5   3   23.60    5.20
  -8  -5   3   18.90    3.50
  -8   5   3   29.80    4.40
  -8   5   3   21.00    4.60
  -8   5   3   26.90    3.40
  -7  -5   3   47.00    7.00
  -7  -5   3   35.60    4.50
  -7  -5   3   52.89    6.80
  -7  -5   3   40.10    4.60
   7  -5  -3   38.40    4.40
  -7   5   3   49.70    7.30
  -7   5   3   55.99    5.50
  -7   5   3   48.40    4.60
  -7   5   3   34.10    4.90
  -6  -5   3    3.30    2.50
  -6  -5   3    2.10    2.00
  -6  -5   3    2.50    1.80
   6  -5  -3    1.00    1.40
  -6  -5   3   -0.10    2.30
  -6   5   3    2.60    1.60
   6   5  -3    3.40    1.50
  -6   5   3    4.40    2.20
  -6   5   3    2.80    2.10
   5  -5  -3    2.90    1.60
  -5  -5   3    1.40    2.80
  -5  -5   3    2.10    2.10
  -5  -5   3    4.40    2.40
  -5  -5   3    1.20    1.60
   5   5  -3    1.70    2.60
   5   5  -3    3.70    1.30
  -5   5   3    3.90    2.30
  -5   5   3    3.80    2.00
  -5   5   3    1.30    1.60
   4  -5  -3   13.90    2.50
  -4  -5   3   11.80    2.80
  -4  -5   3   11.60    1.80
  -4  -5   3   12.20    2.60
  -4   5   3   11.50    2.30
   4   5  -3   10.40    2.50
  -4   5   3    8.70    2.30
   4   5  -3   13.00    1.80
  -4   5   3   11.00    2.70
  -3  -5   3    8.20    1.30
  -3  -5   3   10.70    2.80
  -3  -5   3    9.20    2.30
   3  -5  -3    7.00    3.10
   3   5  -3   10.00    1.50
  -3   5   3   10.20    2.20
  -3   5   3    9.40    2.30
  -3   5   3    8.10    2.20
   3   5  -3    6.60    2.10
   2  -5  -3   64.59    4.40
  -2  -5   3   71.79    5.30
   2  -5  -3   73.79    3.00
  -2  -5   3   79.19    4.10
   2  -5  -3   76.99    4.50
  -2  -5   3   72.09    4.80
  -2   5   3   70.49    5.40
   2   5  -3   75.79    4.00
  -2   5   3   73.39    4.90
   2   5  -3   64.39    7.70
   2   5  -3   73.29    3.50
  -2   5   3   71.39    4.50
  -1  -5   3  153.68    6.30
   1  -5  -3  148.19    6.30
  -1  -5   3  155.58    7.10
  -1  -5   3  162.28    6.40
  -1  -5   3  149.59    6.50
  -1   5   3  147.69    7.00
  -1   5   3  150.18    6.70
   1   5  -3  149.59    5.10
  -1   5   3  145.29    6.30
   1   5  -3  153.98    6.40
   1   5  -3  151.98    6.90
  -1   5   3  148.89    6.30
   0  -5   3   64.69    4.60
   0  -5   3   68.79    4.90
   0  -5  -3   61.49    4.50
   0  -5   3   69.59    4.40
   0  -5  -3   59.69    4.30
   0  -5   3   70.29    4.00
   0   5   3   69.49    4.70
   0   5   3   64.59    4.30
   0   5  -3   73.29    5.00
   0   5  -3   72.09    4.80
   0   5   3   67.39    4.70
   0   5   3   60.69    6.10
   1  -5   3  695.53   14.90
  -1  -5  -3  682.13   16.60
   1  -5   3  668.03   16.10
   1  -5   3  688.83   18.10
  -1  -5  -3  704.83   17.30
   1  -5   3  683.63   17.60
  -1   5  -3  712.53   17.90
  -1   5  -3  693.93   17.50
   1   5   3  695.73   16.80
   1   5   3  703.73   17.60
   1   5   3  682.13   16.10
   1   5   3  709.23   15.80
   2  -5   3   24.70    2.30
  -2  -5  -3   23.20    3.00
   2  -5   3   28.30    4.20
  -2  -5  -3   24.80    3.20
  -2  -5  -3   26.10    4.20
   2  -5   3   29.80    3.10
  -2   5  -3   26.20    2.50
  -2   5  -3   20.00    3.10
   2   5   3   24.80    2.30
   2   5   3   26.00    4.00
   2   5   3   23.50    3.30
   2   5   3   18.50    2.70
  -3  -5  -3    1.60    1.80
   3  -5   3    3.20    1.10
  -3  -5  -3    3.00    2.60
   3  -5   3    1.70    1.50
  -3  -5  -3    3.00    1.50
   3  -5   3    3.40    1.40
  -3   5  -3    2.70    1.20
   3   5   3    3.20    2.00
  -3   5  -3    1.80    2.00
  -3   5  -3    3.00    2.00
   3   5   3    2.40    1.60
  -4  -5  -3    2.60    2.20
   4  -5   3    4.60    1.80
  -4  -5  -3    3.60    2.90
   4  -5   3    4.20    1.40
  -4  -5  -3    6.60    2.70
   4   5   3    3.30    1.90
  -4   5  -3    2.10    2.10
  -4   5  -3    3.90    2.10
  -4   5  -3    6.00    2.40
  -5  -5  -3   22.80    3.00
   5  -5   3   22.30    2.60
  -5  -5  -3   25.60    3.40
  -5  -5  -3   19.10    4.10
  -5   5  -3   23.20    4.80
  -5   5  -3   22.50    3.60
  -5   5  -3   30.10    4.80
   5   5   3   24.50    3.80
  -6  -5  -3   36.00    6.50
   6  -5   3   31.80    2.80
   6  -5   3   29.40    5.20
  -6  -5  -3   24.60    6.10
  -6  -5  -3   33.70    3.80
  -6   5  -3   25.60    4.00
  -6   5  -3   23.80    4.10
  -7  -5  -3   -2.70    2.20
  -7  -5  -3   -4.00    2.80
  -7  -5  -3   -1.10    1.30
  -7   5  -3   -3.20    2.20
  -7   5  -3   -1.30    2.10
   7   5   3   -2.40    2.20
  -7  -6   3    0.70    3.00
  -7  -6   3    3.20    2.00
   7  -6  -3    5.50    2.00
  -7  -6   3    7.90    3.60
  -7  -6   3    2.70    3.20
  -7   6   3    7.20    2.90
  -7   6   3    2.20    2.90
  -7   6   3    4.20    2.30
  -7   6   3   14.90    3.00
   7   6  -3    7.00    1.80
  -6  -6   3   60.59    5.90
  -6  -6   3   59.39    7.00
  -6  -6   3   61.19    7.00
   6  -6  -3   55.79    5.30
  -6  -6   3   63.99    4.70
   6   6  -3   83.39    8.10
   6   6  -3   57.19    4.50
  -6   6   3   57.49    7.50
  -6   6   3   61.19    5.40
  -6   6   3   64.49    5.60
   5  -6  -3   47.30    4.60
  -5  -6   3   46.50    6.20
  -5  -6   3   49.99    5.40
  -5  -6   3   57.39    8.20
  -5  -6   3   50.39    3.90
  -5   6   3   46.30    4.90
  -5   6   3   54.99    6.90
  -5   6   3   50.59    5.20
   5   6  -3   47.20    3.90
  -4  -6   3   39.30    5.10
   4  -6  -3   36.20    4.00
  -4  -6   3   25.00    3.60
  -4  -6   3   37.20    5.70
  -4   6   3   38.70    5.50
   4   6  -3   34.10    3.20
  -4   6   3   27.00    4.30
   4   6  -3   36.80    5.50
  -4   6   3   41.30    4.60
  -3  -6   3   87.99    4.20
   3  -6  -3   93.69    5.80
  -3  -6   3   94.59    7.10
  -3  -6   3   88.89    6.20
  -3  -6   3   88.49    6.30
  -3   6   3   89.19    6.20
  -3   6   3   93.49    5.80
   3   6  -3   92.69    4.40
  -3   6   3   90.89    7.10
   3   6  -3   95.19    6.90
   2  -6  -3  140.69    6.70
  -2  -6   3  143.99    7.80
   2  -6  -3  142.29    7.00
  -2  -6   3  143.19    6.20
  -2  -6   3  140.79    7.20
  -2  -6   3  145.79    7.10
  -2   6   3  148.79    8.10
  -2   6   3  148.39    6.90
   2   6  -3  138.39    7.70
  -2   6   3  149.99    7.30
   2   6  -3  140.29    5.30
   2   6  -3  145.79    6.10
  -1  -6   3  151.08    7.80
  -1  -6   3  155.98    7.10
   1  -6  -3  161.18    7.20
   1  -6  -3  155.18    7.10
  -1  -6   3  158.78    7.00
  -1  -6   3  156.78    6.80
   1   6  -3  152.28    5.70
   1   6  -3  159.08    6.90
  -1   6   3  155.28    6.90
  -1   6   3  157.38    7.50
  -1   6   3  155.78    7.60
   1   6  -3  153.68    7.70
  -1   6   3  151.58    7.20
   0  -6  -3   -0.90    1.40
   0  -6   3    1.10    1.30
   0  -6   3    1.40    1.50
   0  -6   3    0.90    1.20
   0  -6  -3   -0.40    1.50
   0  -6   3   -2.90    1.70
   0   6   3    1.20    1.60
   0   6   3    0.00    1.60
   0   6  -3    0.90    1.50
   0   6   3   -0.20    1.60
   0   6   3    0.40    1.10
   0   6  -3    0.10    1.50
   1  -6   3  309.07    8.70
  -1  -6  -3  319.07   11.10
  -1  -6  -3  302.07   10.40
   1  -6   3  303.27   11.30
   1  -6   3  301.87   11.30
   1  -6   3  289.57    9.90
   1   6   3  306.57   11.10
  -1   6  -3  303.97   11.20
   1   6   3  296.97    9.70
  -1   6  -3  316.07   11.40
   1   6   3  311.77   10.60
   1   6   3  295.87   11.10
   2  -6   3    2.40    1.60
  -2  -6  -3    3.90    2.20
  -2  -6  -3    3.30    1.90
   2  -6   3    2.30    1.70
   2  -6   3    2.30    1.20
  -2  -6  -3    4.40    1.90
  -2   6  -3    2.00    1.80
   2   6   3    5.90    2.50
  -2   6  -3    3.90    2.70
   2   6   3    2.90    1.70
   2   6   3    4.20    1.20
  -3  -6  -3    2.20    2.80
  -3  -6  -3   -1.60    1.40
  -3  -6  -3   -0.50    1.80
   3  -6   3    1.00    1.60
   3  -6   3    0.50    1.70
   3  -6   3    0.30    0.90
   3   6   3    1.30    1.60
  -3   6  -3    2.10    2.90
  -3   6  -3    0.80    1.90
   3   6   3    3.10    2.50
  -4  -6  -3   13.00    5.60
  -4  -6  -3    7.90    2.50
  -4  -6  -3    3.40    2.00
   4   6   3    5.70    3.60
  -4   6  -3    5.30    2.30
  -4   6  -3    9.00    3.30
   4   6   3    5.90    2.30
  -5  -6  -3   12.90    2.60
  -5  -6  -3   19.00    3.40
   5  -6   3   13.00    2.20
   5  -6   3   12.30    3.90
  -5  -6  -3   14.60    3.50
   5   6   3   14.20    3.10
  -5   6  -3   18.10    3.90
  -5   6  -3   14.30    3.20
  -5   6  -3   17.20    4.30
  -6  -6  -3    2.60    2.60
  -6  -6  -3    2.20    2.10
  -6  -6  -3    2.30    3.50
   6  -6   3    3.60    1.50
  -6   6  -3    2.50    2.60
  -6   6  -3   -1.20    2.10
   6   6   3   -0.30    2.40
  -6  -7   3    2.80    3.20
   6  -7  -3    5.60    2.50
  -6  -7   3    1.00    2.40
  -6  -7   3   -4.00    2.10
   6   7  -3   -0.70    1.60
  -6   7   3    2.10    2.80
  -6   7   3   -1.20    2.40
  -6   7   3    0.20    2.50
  -5  -7   3   -6.20    4.00
   5  -7  -3    2.70    2.00
  -5  -7   3   -0.30    2.50
  -5  -7   3   -3.80    2.70
   5   7  -3   -0.90    1.50
   5   7  -3   -0.90    2.30
  -5   7   3   -0.90    1.80
  -5   7   3    0.70    2.30
  -5   7   3   -2.80    1.70
   4  -7  -3    0.80    1.80
  -4  -7   3   -1.50    2.20
  -4  -7   3    1.70    3.00
  -4  -7   3   -0.20    2.10
   4   7  -3    0.20    1.30
  -4   7   3    0.90    2.00
  -4   7   3    3.10    2.20
  -4   7   3    4.90    2.20
  -3  -7   3   21.10    3.30
  -3  -7   3   24.20    3.80
   3  -7  -3   20.50    3.00
  -3  -7   3   24.30    3.80
   3   7  -3   36.60    5.80
  -3   7   3   21.30    3.30
   3   7  -3   25.00    3.30
  -3   7   3   39.20    5.40
  -3   7   3   22.00    3.50
  -2  -7   3  121.09    6.40
  -2  -7   3  126.29    7.50
  -2  -7   3  127.79    7.30
   2  -7  -3  119.59    7.00
  -2  -7   3  126.29    8.10
   2  -7  -3  121.59    7.00
   2  -7  -3  122.49    5.00
   2   7  -3  122.19    6.20
   2   7  -3  112.19    7.80
  -2   7   3  129.59    7.70
  -2   7   3  114.19    7.10
   2   7  -3  114.89    5.40
  -2   7   3  127.29    8.20
  -1  -7   3  567.34   16.50
   1  -7  -3  585.64   16.60
  -1  -7   3  594.14   16.00
  -1  -7   3  585.94   16.40
   1  -7  -3  589.34   16.50
   1   7  -3  574.24   14.00
  -1   7   3  588.44   17.30
   1   7  -3  567.74   17.40
  -1   7   3  571.34   16.30
  -1   7   3  604.44   16.90
   1   7  -3  607.64   15.90
  -1   7   3  587.14   15.80
   0  -7   3   23.60    3.70
   0  -7  -3   30.30    4.40
   0  -7  -3   28.70    4.40
   0  -7   3   16.50    2.90
   0  -7   3   22.70    3.10
   0  -7   3   23.30    4.20
   0   7   3   19.00    3.20
   0   7  -3   22.20    3.40
   0   7   3   30.90    4.40
   0   7   3   27.80    4.40
   0   7  -3   23.90    4.60
   0   7   3   15.70    2.70
   1  -7   3  168.18    6.70
   1  -7   3  170.68    8.00
  -1  -7  -3  165.08    8.20
   1  -7   3  168.08    9.10
  -1  -7  -3  170.58    8.80
   1  -7   3  162.38    9.10
   1   7   3  170.68    8.60
   1   7   3  169.88    8.90
  -1   7  -3  170.58    9.00
   1   7   3  179.88    7.50
   1   7   3  170.28    7.60
  -1   7  -3  166.68    9.00
   2  -7   3   27.90    2.90
  -2  -7  -3   33.60    5.30
  -2  -7  -3   31.50    4.40
   2  -7   3   33.00    4.10
  -2   7  -3   28.70    4.20
   2   7   3   37.90    4.20
   2   7   3   31.50    5.10
   2   7   3   37.10    3.30
  -2   7  -3   36.60    5.40
  -3  -7  -3    6.00    2.10
   3  -7   3    6.70    1.30
   3  -7   3    4.10    2.00
   3  -7   3    8.80    2.50
  -3  -7  -3    4.10    3.10
  -3  -7  -3    0.30    1.80
   3   7   3    4.60    3.00
   3   7   3    4.60    2.20
  -3   7  -3    6.00    2.80
  -4  -7  -3    0.30    2.40
   4  -7   3   -1.80    1.30
  -4  -7  -3   -0.50    1.80
  -4  -7  -3    1.10    2.00
   4   7   3    0.40    1.70
  -4   7  -3    3.80    4.10
   4   7   3    6.50    2.80
  -4   7  -3    2.90    2.30
  -5  -7  -3    1.10    2.90
  -5  -7  -3    0.90    2.30
  -5  -7  -3   -0.40    2.00
   5  -7   3   -2.10    1.30
  -5   7  -3   -1.20    2.00
  -5   7  -3   -2.20    2.30
  -6  -7  -3    2.00    3.40
   6  -7   3    2.30    1.60
  -6  -7  -3    5.90    2.40
  -6  -7  -3    2.10    2.60
   6   7   3    3.00    2.70
  -6   7  -3    1.80    2.50
  -6   7  -3    2.20    2.60
   6  -8  -3    0.20    2.10
  -6  -8   3   -2.30    3.20
  -6  -8   3   -1.00    2.80
  -6   8   3   -3.80    2.10
  -6   8   3   -2.10    2.40
   6   8  -3    0.50    1.90
   5  -8  -3    4.90    2.40
  -5  -8   3    7.00    3.50
  -5  -8   3   -0.90    2.90
  -5   8   3    3.90    2.30
   5   8  -3   -0.60    1.50
  -5   8   3    4.50    2.70
  -5   8   3    1.20    2.80
  -4  -8   3   -3.30    2.30
  -4  -8   3    0.70    2.50
  -4  -8   3    0.40    2.60
  -4   8   3    2.60    2.30
   4   8  -3    3.90    3.30
  -4   8   3    1.60    2.70
  -4   8   3   -1.00    2.10
  -3  -8   3   17.90    3.50
  -3  -8   3   24.20    3.20
  -3  -8   3   25.70    4.30
  -3  -8   3   13.70    3.30
  -3   8   3   18.60    3.60
  -3   8   3   18.20    3.50
  -3   8   3   20.30    3.70
   3   8  -3   22.70    3.70
   3   8  -3   22.20    2.80
  -2  -8   3   83.19    6.50
  -2  -8   3   97.39    7.40
   2  -8  -3   89.29    6.40
   2  -8  -3   87.99    4.70
  -2  -8   3   82.39    5.70
  -2   8   3   87.19    7.60
  -2   8   3   87.29    6.90
  -2   8   3   99.19   11.20
   2   8  -3   83.69    5.70
  -1  -8   3    3.00    2.20
  -1  -8   3    2.70    1.80
   1  -8  -3    4.30    2.80
  -1   8   3    2.60    3.70
  -1   8   3    3.50    1.80
   1   8  -3    2.80    1.90
  -1   8   3    2.00    2.00
   1   8  -3    4.30    1.60
  -1   8   3    5.30    3.00
   0  -8   3  174.68    8.80
   0  -8   3  189.58    8.10
   0  -8   3  200.28   12.70
   0  -8  -3  188.48    9.40
   0  -8   3  190.38    9.80
   0   8  -3  189.08    9.30
   0   8  -3  156.98    9.20
   0   8   3  177.18    8.30
   0   8  -3  184.38    7.70
   0   8   3  192.48    9.00
   0   8   3  201.88   14.70
   0   8   3  190.48    9.60
  -1  -8  -3   58.19    5.90
   1  -8   3   59.09    4.30
  -1  -8  -3   55.99    5.70
   1  -8   3   54.09    6.30
   1  -8   3   43.90    5.10
   1   8   3   60.09    6.60
   1   8   3   62.19    5.00
   1   8   3   47.20    5.00
  -1   8  -3   65.89    6.80
  -1   8  -3   61.19    6.20
  -2  -8  -3    1.70    2.50
   2  -8   3    0.30    2.40
   2  -8   3    0.80    1.10
  -2  -8  -3    4.70    2.40
   2  -8   3    1.20    1.70
  -2   8  -3   -0.30    2.50
   2   8   3    5.20    3.10
   2   8   3    1.40    2.10
   2   8   3    2.70    1.20
  -2   8  -3    1.60    2.80
   3  -8   3   -0.80    1.10
   3  -8   3   -4.00    2.00
  -3  -8  -3    1.40    2.80
   3  -8   3   -0.60    1.40
  -3   8  -3    0.60    2.20
   3   8   3   -0.80    2.60
  -3   8  -3   -1.50    2.10
   3   8   3   -2.20    1.50
   4  -8   3    3.40    1.90
  -4  -8  -3   -1.30    2.70
  -4  -8  -3   -1.10    2.00
  -4   8  -3    2.30    2.80
  -4   8  -3    1.60    2.50
  -5  -8  -3    2.50    2.30
  -5  -8  -3   -0.70    3.10
  -5  -8  -3    2.60    2.40
   5  -8   3    2.10    1.90
  -5   8  -3    1.10    2.60
  -5   8  -3   -2.00    2.30
  -5  -9   3   12.30    4.40
  -5  -9   3   17.30    4.20
  -5   9   3    9.60    3.60
   5   9  -3    8.20    2.60
  -5   9   3   10.30    3.30
  -4  -9   3    4.00    3.40
  -4   9   3   -2.00    2.50
   4   9  -3   -2.80    1.80
  -4   9   3    2.40    2.50
  -4   9   3    0.90    2.50
  -3  -9   3    7.70    3.70
   3  -9  -3    2.80    2.50
  -3  -9   3    1.40    2.40
  -3   9   3    1.00    3.20
   3   9  -3   -0.30    1.60
  -3   9   3    6.00    3.00
  -3   9   3    3.60    2.60
   3   9  -3    4.00    1.60
  -2  -9   3   15.20    3.20
  -2  -9   3    8.40    3.30
  -2  -9   3    8.80    2.20
   2  -9  -3   16.60    2.50
  -2  -9   3   10.50    3.40
   2  -9  -3   20.00    4.90
   2  -9  -3   15.30    3.50
  -2   9   3   11.20    3.80
  -2   9   3   12.40    2.50
   2   9  -3   11.60    2.50
  -2   9   3   11.50    3.10
   2   9  -3   10.20    2.30
   2   9  -3   16.90    6.20
  -2   9   3   13.90    3.50
   1  -9  -3    1.60    1.70
  -1  -9   3   -2.00    2.00
   1  -9  -3   -3.80    1.90
  -1  -9   3    2.30    2.70
   1  -9  -3    0.80    2.70
  -1  -9   3    2.70    1.80
  -1  -9   3   -2.50    1.80
  -1   9   3   -0.50    1.80
   1   9  -3    0.60    1.50
   1   9  -3    3.40    1.90
  -1   9   3   -0.40    1.90
  -1   9   3   -4.80    2.40
  -1   9   3   -1.60    2.50
   0  -9  -3    0.60    2.10
   0  -9   3    0.90    1.80
   0  -9   3    0.00    1.90
   0  -9   3    1.00    2.10
   0  -9   3    3.10    1.70
   0   9  -3    1.30    1.90
   0   9   3   -4.80    4.60
   0   9  -3   -1.00    1.40
   0   9   3   -1.70    1.40
   0   9  -3   -2.70    2.60
   1  -9   3    1.70    2.00
   1  -9   3   -0.70    2.00
  -1  -9  -3    2.10    2.30
   1  -9   3    1.20    2.50
  -1  -9  -3    0.80    2.30
   1  -9   3    0.10    1.30
  -1   9  -3    1.20    2.20
   1   9   3    3.30    1.70
   1   9   3    1.10    3.00
  -1   9  -3   -1.30    2.60
   2  -9   3    7.20    1.80
  -2  -9  -3    8.10    3.30
   2  -9   3    5.10    2.60
  -2  -9  -3    8.20    3.90
   2  -9   3    6.70    2.40
   2   9   3   15.00    4.20
  -2   9  -3    6.20    2.90
  -2   9  -3    2.30    3.70
   2   9   3    6.20    1.70
   3  -9   3   -1.20    1.10
  -3  -9  -3    1.30    3.40
   3  -9   3   -0.50    1.90
  -3   9  -3   -3.80    2.10
   4  -9   3    1.00    2.10
  -4  -9  -3    1.20    3.30
  -4   9  -3   -1.70    2.20
  -3 -10   3   -0.60    2.70
  -3 -10   3   -1.90    3.00
  -3  10   3   -3.50    2.20
  -3  10   3   -0.80    2.60
   2 -10  -3    4.30    2.00
  -2 -10   3   -0.20    2.60
  -2 -10   3    3.50    3.30
   2 -10  -3    4.60    1.90
   2 -10  -3    8.90    2.80
   2  10  -3    0.50    2.10
  -2  10   3    3.50    4.20
  -2  10   3    3.70    2.90
  -2  10   3    4.80    2.60
   2  10  -3    3.30    2.20
   1 -10  -3    1.80    2.40
  -1 -10   3    0.10    1.80
   1 -10  -3    1.20    1.90
  -1 -10   3   -0.70    1.80
  -1 -10   3    0.60    3.00
  -1  10   3    1.70    2.40
   1  10  -3   -1.40    1.70
  -1  10   3   -0.70    1.90
   1  10  -3   -1.80    1.80
   0 -10   3    1.30    2.60
   0 -10  -3    2.50    2.40
   0 -10   3   -1.50    1.50
   0 -10  -3    0.00    1.90
   0 -10   3    8.50    3.70
   0  10   3    0.60    1.80
   0  10  -3   -1.30    1.90
  -1 -10  -3    5.10    3.00
   1 -10   3    3.70    2.00
   1 -10   3    0.30    2.40
   1 -10   3   -1.90    1.90
   1  10   3    0.40    1.90
  -1  10  -3    2.20    2.50
  -1  10  -3    7.20    2.20
   2 -10   3   -0.70    1.50
  -2 -10  -3    4.50    3.50
   2  10   3   -1.80    1.60
  -2  10  -3   -1.10    2.40
  -3 -10  -3   -2.20    2.90
  -3  10  -3   -1.90    2.80
  -9   0   4   -0.30    2.60
  -9   0   4    1.10    2.00
  -9   0   4   -4.70    1.80
  -9   0   4    0.10    2.00
  -8   0   4    1.20    1.50
  -8   0   4    1.70    1.70
  -8   0   4    4.60    3.00
  -8   0   4   -2.70    1.50
  -8   0   4   -2.30    1.70
  -7   0   4   -0.40    1.20
  -7   0   4   -2.00    1.30
  -7   0   4   -0.20    1.60
  -7   0   4    1.60    2.00
  -7   0   4   -0.60    1.50
  -6   0   4   33.80    4.20
  -6   0   4   27.30    3.40
  -6   0   4   26.40    4.10
  -6   0   4   29.40    3.40
  -6   0   4   23.50    3.00
  -5   0   4   41.20    3.90
  -5   0   4   38.40    3.30
  -5   0   4   39.70    3.40
  -5   0   4   43.00    4.00
  -5   0   4   40.40    3.60
  -4   0   4    3.00    1.70
  -4   0   4    3.50    1.50
  -4   0   4    5.10    2.00
  -4   0   4    3.20    2.00
  -4   0   4    9.20    1.70
  -3   0   4   57.69    3.10
  -3   0   4   59.49    3.50
  -3   0   4   61.29    3.10
   2   0  -4    3.40    0.90
  -2   0   4    2.90    1.10
  -2   0   4    2.20    0.90
   2   0  -4    1.30    0.90
  -2   0   4    2.90    0.90
  -1   0   4   96.99    3.50
   1   0  -4   99.19    2.70
   1   0  -4   97.29    3.00
  -1   0   4   96.89    3.40
  -1   0   4   97.69    3.80
   0   0   4 7362.66  136.19
   0   0  -4 7388.86  135.89
  -1   0  -4 3084.29   54.79
   1   0   4 3232.38   53.49
   1   0   4 3109.59   54.79
   1   0   4 3245.48   54.69
   1   0   4 3042.50   54.59
  -1   0  -4 3133.89   54.49
  -1   0  -4 3096.19   54.49
  -2   0  -4  188.68    6.30
  -2   0  -4  191.58    5.80
  -2   0  -4  192.38    6.20
   2   0   4  188.38    6.10
   3   0   4  101.99    4.80
  -3   0  -4  104.09    5.00
  -3   0  -4   98.59    4.40
   3   0   4   93.09    4.90
  -3   0  -4   97.39    5.00
  -4   0  -4  295.87    9.10
  -4   0  -4  280.87    8.60
   4   0   4  291.07    9.30
   4   0   4  291.27    9.90
  -4   0  -4  280.17    9.60
  -5   0  -4  290.67   10.60
   5   0   4  282.57    9.90
   5   0   4  277.57   10.60
  -5   0  -4  289.17    9.70
  -6   0  -4   49.10    4.30
   6   0   4   40.80    6.60
  -6   0  -4   47.60    5.00
  -6   0  -4   56.19    5.60
  -7   0  -4    9.50    2.50
  -7   0  -4   11.40    2.40
  -7   0  -4    9.30    3.10
  -7   0  -4   11.70    3.30
   7   0   4    7.70    2.30
  -8   0  -4   14.90    4.80
  -8   0  -4    5.90    2.50
  -8   0  -4   14.70    4.40
   8   0   4    5.00    2.30
  -8   0  -4    7.10    3.50
  -8  -1   4    6.00    5.50
  -8  -1   4    7.30    2.10
  -8  -1   4    6.00    2.30
  -8  -1   4    6.00    2.40
  -8  -1   4    9.30    2.10
  -8   1   4    7.10    1.90
  -8   1   4    8.90    2.30
  -8   1   4    5.60    2.70
  -8   1   4    5.60    2.40
  -8   1   4    7.40    2.90
  -7  -1   4   19.70    3.20
  -7  -1   4   14.70    2.40
  -7  -1   4   18.20    3.70
  -7  -1   4   17.70    2.60
  -7  -1   4   15.30    2.40
  -7   1   4   20.60    2.90
  -7   1   4   14.90    3.20
  -7   1   4   17.60    2.40
  -7   1   4   16.00    3.10
  -7   1   4   16.20    3.10
  -6  -1   4  109.79    6.00
  -6  -1   4  113.19    6.40
  -6  -1   4  120.69    6.90
  -6  -1   4  109.09    5.60
  -6  -1   4  115.49    6.30
  -6   1   4  116.19    5.70
  -6   1   4  110.19    5.10
  -6   1   4  116.79    6.60
  -6   1   4  109.39    7.10
  -6   1   4  118.89    6.80
  -5  -1   4    6.30    1.90
  -5  -1   4   10.00    1.90
  -5  -1   4    3.10    2.50
  -5  -1   4    7.40    1.80
  -5  -1   4    6.60    2.10
  -5   1   4    5.60    1.90
  -5   1   4    8.60    2.10
  -5   1   4    8.50    1.70
  -5   1   4    6.90    1.60
  -5   1   4    7.50    2.00
  -4  -1   4 3256.17   58.99
  -4  -1   4 3290.07   57.29
  -4  -1   4 3292.57   58.89
  -4   1   4 3324.97   60.99
  -4   1   4 3239.08   56.99
   3  -1  -4   28.60    2.20
  -3  -1   4   27.50    1.90
  -3  -1   4   22.90    2.60
   3  -1  -4   27.20    2.60
  -3  -1   4   26.70    2.70
  -3   1   4   26.80    2.00
  -3   1   4   27.10    2.60
   3   1  -4   28.20    2.70
  -3   1   4   26.20    3.10
   2  -1  -4  271.37    6.30
   2  -1  -4  256.57    7.30
  -2  -1   4  272.57    6.70
  -2  -1   4  264.67    7.10
   2   1  -4  272.67    7.30
  -2   1   4  266.17    6.20
  -2   1   4  260.37    7.30
   2   1  -4  267.07    6.80
   1  -1  -4    8.40    1.90
  -1  -1   4    5.20    1.20
   1  -1  -4    5.10    1.00
  -1  -1   4    4.30    1.10
  -1  -1   4    7.60    1.00
  -1   1   4    6.10    1.20
   1   1  -4    8.00    1.40
  -1   1   4    4.20    1.20
  -1   1   4    5.10    0.90
   1   1  -4    7.30    1.50
   0  -1  -4    0.40    0.80
   0  -1  -4   -0.40    1.20
   0  -1  -4    0.70    1.10
   0  -1   4    0.90    1.50
   0  -1   4    0.00    0.90
   0  -1   4    0.30    0.80
   0   1   4    0.00    1.20
   0   1  -4    0.50    1.20
   0   1  -4   -0.10    1.10
   0   1  -4   -0.30    1.10
   0   1   4    1.70    1.20
   0   1  -4   -0.50    1.30
   0   1   4    0.50    0.80
   1  -1   4   69.49    3.70
   1  -1   4   58.19    3.10
  -1  -1  -4   62.09    3.20
  -1  -1  -4   66.49    2.70
   1  -1   4   65.49    3.00
   1   1   4   63.89    3.20
   1   1   4   66.59    3.30
  -1   1  -4   66.59    3.70
  -1   1  -4   62.79    2.90
   1   1   4   66.39    2.70
  -1   1  -4   67.69    3.20
  -2  -1  -4    2.00    0.80
  -2  -1  -4    2.00    1.00
   2  -1   4    3.40    1.10
  -2  -1  -4    6.50    1.90
   2  -1   4    3.20    1.10
   2  -1   4    3.40    1.20
   2   1   4    3.50    1.00
   2   1   4    3.20    0.80
  -2   1  -4    2.90    1.20
   2   1   4    3.20    1.20
  -2   1  -4    0.70    0.80
  -2   1  -4    3.30    1.40
  -3  -1  -4  663.33   14.40
  -3  -1  -4  634.44   15.10
   3  -1   4  658.43   16.00
  -3  -1  -4  669.53   15.60
   3  -1   4  672.63   15.90
  -3   1  -4  670.83   15.90
  -3   1  -4  664.73   14.40
  -3   1  -4  667.33   15.90
   3   1   4  665.83   14.50
   4  -1   4    0.40    1.30
  -4  -1  -4    1.90    1.60
  -4  -1  -4    2.20    1.30
   4  -1   4   -0.30    1.10
  -4   1  -4    0.90    1.40
   4   1   4    0.30    1.20
   4   1   4    0.50    1.00
  -4   1  -4    1.60    1.90
  -4   1  -4    2.70    1.20
  -5  -1  -4    0.90    1.60
  -5  -1  -4    4.50    2.10
  -5  -1  -4    3.60    2.20
  -5  -1  -4    1.50    1.50
   5  -1   4    2.30    2.00
  -5   1  -4    1.80    1.70
  -5   1  -4    2.40    1.30
  -5   1  -4    0.10    1.80
   5   1   4    1.80    1.60
   5   1   4    2.80    1.20
   6  -1   4   18.00    3.10
  -6  -1  -4   18.20    3.00
  -6  -1  -4   18.10    2.60
  -6  -1  -4   22.40    6.70
  -6  -1  -4   15.80    3.00
  -6   1  -4   15.50    2.70
   6   1   4   19.00    2.60
  -6   1  -4   22.20    3.10
   6   1   4   14.80    2.90
   7  -1   4    6.80    2.40
  -7  -1  -4    6.10    2.70
  -7  -1  -4   14.00    3.00
  -7  -1  -4    9.70    3.30
  -7  -1  -4    9.90    2.20
  -7   1  -4    6.00    2.70
   7   1   4    5.30    1.80
  -7   1  -4    6.30    2.40
  -7   1  -4   10.10    2.40
  -8  -1  -4   -0.30    2.10
  -8  -1  -4   -0.20    2.50
   8  -1   4   -3.90    2.40
  -8  -1  -4    0.10    1.80
  -8  -1  -4    4.80    2.90
  -8   1  -4   -0.80    3.00
  -8   1  -4    4.10    2.00
  -8   1  -4    3.00    4.10
  -8  -2   4    6.20    2.40
  -8  -2   4   14.30    4.00
  -8  -2   4   13.10    2.40
  -8  -2   4   10.80    3.50
  -8  -2   4    6.40    1.80
  -8   2   4    8.20    3.10
  -8   2   4   12.50    3.00
  -8   2   4   19.00    2.60
  -8   2   4    9.40    3.00
  -8   2   4   12.10    2.10
  -7  -2   4    3.50    1.70
  -7  -2   4    1.20    2.20
  -7  -2   4    0.50    1.30
  -7  -2   4   -1.10    2.00
  -7  -2   4    1.50    1.50
  -7   2   4    0.40    1.10
  -7   2   4    3.60    2.10
  -7   2   4    2.90    1.50
  -7   2   4   -2.30    1.60
  -7   2   4    0.70    1.80
  -6  -2   4 1056.49   25.50
  -6  -2   4 1059.39   23.10
  -6  -2   4 1075.69   24.90
  -6  -2   4 1060.89   22.40
  -6   2   4 1106.99   25.20
  -6   2   4 1033.70   20.60
  -6   2   4 1081.09   26.90
  -6   2   4 1076.99   23.00
  -5  -2   4   27.30    3.80
  -5  -2   4   31.10    4.20
  -5  -2   4   27.80    3.10
  -5  -2   4   32.40    3.00
  -5   2   4   31.50    2.30
  -5   2   4   29.10    3.20
  -5   2   4   28.20    4.60
   4  -2  -4 2123.29   39.70
  -4  -2   4 2077.79   37.10
  -4  -2   4 2084.89   40.10
  -4  -2   4 2042.50   40.00
  -4   2   4 2057.69   36.40
   4   2  -4 2116.29   40.60
  -4   2   4 2096.69   39.30
  -4   2   4 2166.58   42.40
  -3  -2   4    3.80    1.70
  -3  -2   4    4.10    1.50
   3  -2  -4    3.50    0.90
  -3  -2   4    4.40    0.80
   3  -2  -4    4.10    1.30
  -3   2   4    3.70    1.30
   3   2  -4    3.30    1.50
  -3   2   4    3.50    1.40
  -3   2   4    3.30    0.80
  -2  -2   4    9.00    1.60
   2  -2  -4    9.80    1.30
   2  -2  -4    7.40    1.50
  -2  -2   4    7.90    1.30
  -2  -2   4    7.30    1.50
   2   2  -4   11.30    2.00
   2   2  -4    7.40    1.50
  -2   2   4   10.60    1.60
  -2   2   4    7.40    1.00
  -2   2   4    8.80    1.80
   1  -2  -4  316.17    6.70
  -1  -2   4  317.87    8.10
  -1  -2   4  309.87    8.10
   1  -2  -4  312.07    7.10
  -1  -2   4  314.47    8.00
   1  -2  -4  303.57    8.20
  -1   2   4  307.47    8.20
  -1   2   4  308.57    7.70
   1   2  -4  320.57    8.10
   1   2  -4  305.97    8.10
   1   2  -4  319.07    8.20
  -1   2   4  310.97    7.20
   0  -2  -4  112.39    4.30
   0  -2  -4  111.49    4.10
   0  -2   4  112.39    4.70
   0  -2  -4  114.19    4.10
   0  -2   4  117.79    4.60
   0  -2   4  113.29    4.10
   0  -2  -4  115.09    4.30
   0   2  -4  114.89    3.60
   0   2   4  110.19    4.10
   0   2  -4  109.59    4.50
   0   2   4  115.99    4.30
   0   2   4  119.09    4.40
   0   2  -4  118.09    4.80
   0   2  -4  109.19    4.10
  -1  -2  -4 1348.37   25.60
   1  -2   4 1396.26   25.40
  -1  -2  -4 1385.76   26.10
  -1  -2  -4 1415.16   27.00
   1   2   4 1386.96   25.60
  -1   2  -4 1383.66   26.00
  -1   2  -4 1318.87   25.30
  -1   2  -4 1390.66   27.10
  -1   2  -4 1381.06   27.00
   1   2   4 1346.67   26.10
   2  -2   4  800.82   15.20
  -2  -2  -4  786.52   15.90
   2  -2   4  808.52   18.50
  -2  -2  -4  823.42   18.90
   2  -2   4  812.62   16.20
  -2  -2  -4  825.42   17.30
  -2   2  -4  775.62   17.70
   2   2   4  758.32   17.20
   2   2   4  819.82   16.00
   2   2   4  814.92   15.90
  -2   2  -4  794.22   16.10
  -2   2  -4  826.22   18.40
  -3  -2  -4  393.66    9.00
   3  -2   4  405.76   12.10
  -3  -2  -4  399.76   11.10
  -3  -2  -4  393.86   12.50
  -3   2  -4  385.36    9.50
  -3   2  -4  389.26   11.30
   3   2   4  402.96   11.10
   3   2   4  400.76    9.30
  -3   2  -4  399.06   11.90
   4  -2   4  223.18    9.90
  -4  -2  -4  216.98    9.80
  -4  -2  -4  212.58    8.30
  -4  -2  -4  210.98    5.70
  -4   2  -4  207.18    6.60
  -4   2  -4  217.38    9.10
   4   2   4  216.48    6.60
  -4   2  -4  230.18    8.90
   4   2   4  215.38    8.40
  -5  -2  -4  105.19    6.60
   5  -2   4   99.99    6.70
  -5  -2  -4  104.19    7.60
   5   2   4  102.79    4.70
  -5   2  -4   99.29    6.70
  -5   2  -4  111.49    7.00
  -5   2  -4  104.49    4.80
   5   2   4   99.99    6.30
  -6  -2  -4    0.30    2.00
  -6  -2  -4    0.30    1.80
   6  -2   4   -0.50    1.40
  -6   2  -4    0.10    1.30
  -6   2  -4    1.60    2.00
   6   2   4    1.40    1.10
   6   2   4    0.20    1.50
  -6   2  -4    0.70    1.60
  -7  -2  -4   -1.60    1.90
  -7  -2  -4   -0.10    3.10
  -7  -2  -4   -0.40    2.30
   7  -2   4    1.60    1.90
  -7   2  -4    0.00    2.00
  -7   2  -4   -0.60    2.10
  -7   2  -4    0.50    1.50
   7   2   4    2.70    2.30
   8  -2   4    2.50    2.40
  -8  -2  -4    5.10    4.00
  -8  -2  -4    1.90    2.90
  -8   2  -4    4.00    2.70
  -8   2  -4    2.40    1.90
  -8   2  -4    3.00    3.10
  -8  -3   4   71.19    5.90
  -8  -3   4   70.59    7.00
  -8  -3   4   73.79    7.70
  -8  -3   4   73.89    5.70
  -8   3   4   68.39    5.00
  -8   3   4   81.39    8.40
  -8   3   4   82.79    7.50
  -7  -3   4   -1.40    2.40
  -7  -3   4    3.50    4.10
  -7  -3   4    0.30    1.70
  -7  -3   4    1.80    1.00
  -7   3   4   -0.40    1.30
  -7   3   4   -0.90    1.90
  -7   3   4   -0.80    2.90
  -6  -3   4  158.38    8.70
  -6  -3   4  150.98    5.50
  -6  -3   4  147.29    8.00
  -6  -3   4  138.89    6.20
  -6   3   4  134.29    6.70
  -6   3   4  146.29    8.90
  -5  -3   4    3.40    2.20
  -5  -3   4    5.00    1.50
  -5  -3   4    8.20    2.70
  -5  -3   4    5.00    1.20
   5  -3  -4    7.10    1.80
  -5   3   4    4.40    2.00
  -5   3   4    5.20    1.80
  -4  -3   4  189.48    5.30
  -4  -3   4  189.28    5.80
   4  -3  -4  186.28    7.10
  -4  -3   4  174.48    7.70
  -4  -3   4  189.68    7.70
  -4   3   4  170.58    6.80
   4   3  -4  190.48    8.00
  -4   3   4  186.18    8.80
  -4   3   4  184.58    6.40
  -3  -3   4  171.28    4.10
  -3  -3   4  165.78    5.40
  -3  -3   4  169.48    6.70
   3  -3  -4  173.88    6.50
  -3  -3   4  174.38    7.00
  -3   3   4  165.48    7.80
  -3   3   4  166.38    5.50
   3   3  -4  168.58    7.00
  -3   3   4  173.08    6.50
  -2  -3   4  538.35   12.10
  -2  -3   4  561.64   13.30
  -2  -3   4  542.45   13.70
   2  -3  -4  534.65   10.60
   2  -3  -4  553.54   13.20
   2   3  -4  551.24   13.40
  -2   3   4  548.25   14.50
  -2   3   4  542.25   11.50
  -2   3   4  550.14   13.20
   1  -3  -4  109.29    3.80
  -1  -3   4  105.89    4.70
   1  -3  -4  111.19    4.00
  -1  -3   4  110.69    4.70
   1  -3  -4  103.19    4.60
  -1  -3   4  110.39    5.10
  -1   3   4  104.69    4.00
  -1   3   4  111.29    5.80
   1   3  -4  105.89    4.90
  -1   3   4  109.59    4.60
   1   3  -4  112.29    4.80
  -1   3   4  108.29    5.30
   0  -3  -4  206.88    6.30
   0  -3   4  200.08    6.90
   0  -3   4  201.38    7.00
   0  -3   4  211.98    6.20
   0  -3  -4  201.28    6.70
   0   3   4  211.98    6.60
   0   3   4  199.18    6.40
   0   3  -4  208.08    6.30
   0   3  -4  200.98    6.90
   0   3   4  201.68    6.40
   0   3  -4  201.38    7.00
  -1  -3  -4 2166.08   40.10
  -1  -3  -4 2195.88   41.10
  -1  -3  -4 2221.78   40.40
   1  -3   4 2140.89   41.70
   1  -3   4 2232.28   39.30
   1   3   4 2201.38   41.30
  -1   3  -4 2158.28   41.30
  -1   3  -4 2242.58   40.20
  -1   3  -4 2242.68   41.70
   1   3   4 2156.68   40.20
   1   3   4 2228.98   40.10
  -1   3  -4 2187.18   39.40
  -2  -3  -4   64.89    4.40
  -2  -3  -4   70.09    3.70
   2  -3   4   67.29    4.80
   2  -3   4   59.49    3.10
   2  -3   4   65.49    3.20
  -2  -3  -4   64.99    4.80
   2   3   4   66.19    3.60
  -2   3  -4   67.99    4.50
  -2   3  -4   68.19    5.00
   2   3   4   65.59    3.20
   2   3   4   64.89    4.00
  -2   3  -4   65.59    4.30
  -2   3  -4   65.99    3.30
   3  -3   4    2.70    1.10
   3  -3   4    2.70    1.00
  -3  -3  -4   -0.30    1.50
  -3  -3  -4    2.00    1.20
   3  -3   4   -0.70    1.10
  -3  -3  -4    1.60    1.50
   3   3   4    2.00    0.80
  -3   3  -4   -0.70    1.30
  -3   3  -4    2.10    1.00
   3   3   4    1.70    1.30
  -3   3  -4    2.30    1.60
   4  -3   4  228.48    9.90
  -4  -3  -4  220.18    8.60
  -4  -3  -4  222.48    6.70
  -4  -3  -4  222.98   10.10
   4  -3   4  217.78    5.50
   4   3   4  217.28    8.50
  -4   3  -4  216.98    6.60
  -4   3  -4  226.88    9.80
  -4   3  -4  235.48    9.40
  -5  -3  -4    7.30    2.60
  -5  -3  -4    4.20    1.30
   5  -3   4    5.00    1.90
  -5  -3  -4    8.30    2.50
   5   3   4    7.70    2.20
  -5   3  -4    5.60    2.30
  -5   3  -4    6.80    1.50
  -5   3  -4    6.00    2.20
   6  -3   4    2.70    2.20
  -6  -3  -4    0.50    0.90
  -6  -3  -4    2.90    3.00
  -6  -3  -4    3.20    3.20
   6   3   4    0.10    1.70
  -6   3  -4    1.40    1.40
  -6   3  -4    0.70    2.10
  -6   3  -4    0.80    1.80
  -7  -3  -4   79.79    8.30
  -7  -3  -4   75.59    7.00
   7  -3   4   69.89    7.10
  -7   3  -4   69.29    7.40
  -7   3  -4   63.99    4.10
   7   3   4   82.89    7.20
  -7   3  -4   57.99    7.10
  -8  -4   4   -0.20    2.10
  -8  -4   4    5.90    3.60
  -8  -4   4    2.70    2.80
  -8   4   4    3.50    1.90
  -8   4   4    4.10    2.70
  -8   4   4    1.70    2.40
  -7  -4   4   -0.30    2.40
  -7  -4   4    1.10    1.70
  -7  -4   4   -0.50    2.70
  -7   4   4   -0.30    1.50
  -7   4   4   -1.40    1.80
  -7   4   4    0.50    2.30
  -6  -4   4    2.50    2.70
  -6  -4   4    3.50    1.60
  -6  -4   4    1.40    2.30
   6  -4  -4    2.50    1.50
  -6   4   4    2.30    1.80
  -6   4   4    5.30    1.90
  -6   4   4    2.30    2.20
   5  -4  -4    1.70    1.70
  -5  -4   4    2.90    1.50
  -5  -4   4    3.10    2.10
  -5  -4   4    1.40    2.60
   5   4  -4    1.90    1.10
  -5   4   4    2.70    1.90
   5   4  -4    5.30    2.50
  -5   4   4    2.90    1.60
  -5   4   4    3.10    1.70
  -4  -4   4   28.60    2.40
  -4  -4   4   26.10    2.50
   4  -4  -4   28.70    3.40
  -4  -4   4   22.00    3.20
  -4  -4   4   26.50    4.30
  -4   4   4   16.80    2.90
   4   4  -4   29.20    4.00
  -4   4   4   21.60    2.90
   4   4  -4   27.70    2.30
  -4   4   4   26.50    3.30
   3  -4  -4  535.35   14.00
  -3  -4   4  543.45   14.40
  -3  -4   4  548.65   14.70
  -3  -4   4  533.95   11.90
  -3   4   4  537.05   16.00
  -3   4   4  534.85   13.90
  -3   4   4  535.75   12.70
   3   4  -4  543.25   14.90
   3   4  -4  535.25   10.70
   2  -4  -4  686.23   14.90
  -2  -4   4  675.73   15.00
   2  -4  -4  698.03   13.30
  -2  -4   4  702.63   16.80
  -2  -4   4  679.43   16.20
   2  -4  -4  693.03   16.30
  -2   4   4  670.53   16.20
   2   4  -4  683.83   13.00
  -2   4   4  681.43   17.80
   2   4  -4  697.33   15.10
   2   4  -4  689.93   16.70
  -2   4   4  656.93   14.70
  -1  -4   4 1527.05   30.40
   1  -4  -4 1490.35   29.80
   1  -4  -4 1454.85   27.60
   1  -4  -4 1527.75   28.60
  -1  -4   4 1531.55   29.40
  -1  -4   4 1506.65   29.40
  -1   4   4 1453.85   28.60
  -1   4   4 1494.25   30.80
  -1   4   4 1508.45   29.90
  -1   4   4 1469.55   29.10
   1   4  -4 1495.25   30.10
   1   4  -4 1533.85   29.30
   0  -4   4 1303.87   26.80
   0  -4   4 1284.47   26.70
   0  -4   4 1296.07   26.80
   0  -4  -4 1300.17   25.70
   0  -4  -4 1243.88   26.00
   0   4  -4 1281.87   26.60
   0   4   4 1304.07   26.30
   0   4   4 1282.67   25.60
   0   4   4 1292.97   26.10
   0   4   4 1262.37   25.90
   0   4  -4 1293.67   26.40
   0   4  -4 1284.27   25.30
  -1  -4  -4  236.58    8.20
   1  -4   4  237.98    6.80
  -1  -4  -4  234.88    7.80
  -1  -4  -4  229.38    7.60
   1  -4   4  235.98    8.80
   1  -4   4  240.18    7.40
   1   4   4  236.98    7.30
   1   4   4  239.58    7.80
  -1   4  -4  233.68    7.00
  -1   4  -4  223.28    8.30
   1   4   4  240.18    8.40
  -1   4  -4  237.58    8.80
   1   4   4  241.78    7.80
  -2  -4  -4  367.66   10.70
   2  -4   4  357.96   12.10
   2  -4   4  363.66    9.50
  -2  -4  -4  371.06   11.70
  -2  -4  -4  369.86   10.20
   2  -4   4  376.16    9.00
  -2   4  -4  366.06    9.10
   2   4   4  374.66   10.30
  -2   4  -4  374.16   10.90
  -2   4  -4  367.66   11.60
  -2   4  -4  388.76   12.30
   2   4   4  376.86   12.00
   2   4   4  372.36   10.60
  -3  -4  -4  158.28    6.20
  -3  -4  -4  162.88    8.20
   3  -4   4  156.48    5.50
   3  -4   4  164.18    5.20
  -3  -4  -4  165.48    7.20
   3  -4   4  152.88    8.10
  -3   4  -4  159.08    5.20
  -3   4  -4  154.08    7.60
  -3   4  -4  159.58    8.20
   3   4   4  155.78    6.90
  -3   4  -4  156.78    7.40
  -4  -4  -4   38.70    3.50
  -4  -4  -4   38.20    4.70
   4  -4   4   41.20    5.10
   4  -4   4   41.90    2.80
  -4  -4  -4   38.10    5.40
  -4   4  -4   41.00    2.80
   4   4   4   35.20    4.20
  -4   4  -4   40.70    4.90
  -4   4  -4   47.80    5.70
  -4   4  -4   35.60    5.00
   5  -4   4    1.90    1.90
  -5  -4  -4    0.80    2.20
  -5  -4  -4    2.10    1.50
  -5  -4  -4    3.20    3.60
  -5   4  -4    3.70    2.00
   5   4   4    1.60    1.80
  -5   4  -4    2.10    1.10
  -5   4  -4    7.70    2.50
  -6  -4  -4    0.20    1.20
  -6  -4  -4    3.00    2.70
  -6  -4  -4    0.80    3.00
  -6   4  -4    0.60    1.00
  -6   4  -4    0.70    2.20
  -6   4  -4    1.20    2.00
  -7  -4  -4    7.70    3.20
  -7  -4  -4    5.80    1.50
  -7  -4  -4    0.90    2.50
  -7   4  -4    2.00    2.60
  -7   4  -4   10.10    3.30
  -8  -5   4    5.60    3.80
  -8  -5   4    4.90    3.10
  -8  -5   4    4.80    2.30
  -8  -5   4    6.80    3.10
  -8   5   4    5.30    2.80
  -8   5   4    7.60    3.10
  -8   5   4    7.80    2.50
   7  -5  -4   17.90    2.90
  -7  -5   4   13.50    2.90
  -7  -5   4   19.60    2.60
  -7  -5   4   20.80    3.90
  -7  -5   4   20.90    4.60
  -7   5   4   20.00    3.10
  -7   5   4   13.10    3.60
  -7   5   4   22.90    4.30
  -6  -5   4   -3.40    2.10
  -6  -5   4   -0.40    1.50
  -6  -5   4   -0.60    2.90
   6  -5  -4   -0.20    1.40
  -6   5   4   -0.10    1.50
  -6   5   4   -0.90    1.90
  -6   5   4    1.40    1.80
  -5  -5   4   34.10    5.20
  -5  -5   4   27.40    3.00
  -5  -5   4   22.80    3.60
   5  -5  -4   28.50    3.80
   5   5  -4   32.60    2.90
  -5   5   4   27.10    3.80
  -5   5   4   21.00    3.00
   5   5  -4   18.90    3.50
  -5   5   4   17.10    3.50
  -4  -5   4   81.29    6.30
  -4  -5   4   68.59    3.40
   4  -5  -4   64.19    4.90
  -4  -5   4   65.69    5.50
   4   5  -4   70.19    5.80
   4   5  -4   69.09    3.40
  -4   5   4   66.69    6.30
  -4   5   4   70.99    5.30
  -4   5   4   67.99    4.90
   3  -5  -4  104.89    5.70
  -3  -5   4  104.79    4.50
  -3  -5   4  102.69    6.60
  -3  -5   4   94.99    5.90
  -3   5   4   96.29    6.80
  -3   5   4  100.19    5.20
   3   5  -4   97.89    3.70
   3   5  -4  101.89    6.40
  -3   5   4  100.29    5.80
  -2  -5   4   88.89    5.40
   2  -5  -4   89.59    8.20
  -2  -5   4   96.49    6.00
   2  -5  -4   90.39    3.50
  -2  -5   4   95.09    4.70
   2  -5  -4   97.89    5.00
  -2   5   4   85.79    5.40
  -2   5   4   88.99    6.20
   2   5  -4   96.79    3.70
   2   5  -4   94.19    7.40
   2   5  -4   94.19    4.80
  -2   5   4   96.49    4.90
  -1  -5   4    1.50    1.90
   1  -5  -4   -0.10    1.30
  -1  -5   4    1.50    1.30
  -1  -5   4    1.00    1.50
  -1  -5   4    1.30    1.10
   1  -5  -4   -1.00    1.10
  -1   5   4    0.30    1.40
   1   5  -4    0.70    1.30
   1   5  -4   -1.20    1.70
  -1   5   4    0.30    1.50
  -1   5   4   -0.30    1.50
  -1   5   4   -0.20    1.10
   0  -5   4  148.09    6.50
   0  -5   4  157.38    5.90
   0  -5  -4  148.89    6.50
   0  -5   4  150.98    6.90
   0  -5  -4  158.88    6.70
   0  -5   4  144.59    7.10
   0   5   4  144.19    6.30
   0   5   4  143.99    6.60
   0   5  -4  156.58    7.30
   0   5   4  151.18    6.70
   0   5   4  144.19    6.50
   0   5  -4  160.38    7.00
  -1  -5  -4   56.39    4.70
   1  -5   4   57.09    5.10
   1  -5   4   54.49    4.10
  -1  -5  -4   54.39    4.10
   1  -5   4   49.40    3.90
   1  -5   4   57.39    4.70
  -1  -5  -4   50.59    4.30
   1   5   4   57.39    3.90
   1   5   4   53.59    4.40
  -1   5  -4   54.89    5.00
  -1   5  -4   50.69    5.00
   1   5   4   52.49    4.20
  -1   5  -4   55.59    3.70
   1   5   4   47.20    4.40
  -2  -5  -4  165.08    6.90
  -2  -5  -4  167.98    8.00
   2  -5   4  163.28    5.50
  -2  -5  -4  168.08    7.30
   2  -5   4  152.18    8.10
   2  -5   4  156.58    6.40
   2   5   4  168.48    5.70
  -2   5  -4  162.98    7.80
   2   5   4  160.58    6.90
   2   5   4  152.48    7.80
  -2   5  -4  159.38    5.70
  -2   5  -4  164.88    8.40
   2   5   4  166.08    6.90
   3  -5   4   -2.20    1.40
  -3  -5  -4   -0.40    1.80
  -3  -5  -4   -1.50    1.30
  -3  -5  -4    1.20    2.00
   3  -5   4    1.70    1.10
   3  -5   4    3.00    1.30
  -3   5  -4   -0.80    1.60
  -3   5  -4    0.40    1.20
  -3   5  -4    0.40    2.10
   3   5   4    0.50    2.20
   3   5   4    2.70    1.50
  -3   5  -4   -1.10    1.70
  -4  -5  -4   -0.30    2.00
  -4  -5  -4   -3.00    2.50
   4  -5   4   -1.30    1.50
   4  -5   4    0.00    1.00
  -4  -5  -4   -0.90    1.60
  -4   5  -4   -1.40    1.70
  -4   5  -4    1.00    1.70
  -4   5  -4    0.40    0.90
  -4   5  -4    1.80    2.30
   4   5   4    0.30    1.50
   5  -5   4    0.20    1.00
  -5  -5  -4   -1.30    1.90
  -5  -5  -4    0.80    1.50
  -5  -5  -4   -1.50    2.00
  -5   5  -4    1.70    2.10
  -5   5  -4    3.10    2.30
   5   5   4    0.60    1.90
  -5   5  -4    1.20    2.30
   6  -5   4    5.70    2.60
  -6  -5  -4    7.40    2.80
  -6  -5  -4    4.10    1.90
  -6  -5  -4    3.70    2.90
  -6   5  -4    5.60    2.30
  -6   5  -4    5.90    2.80
   6   5   4    7.50    3.20
  -6   5  -4    7.00    2.50
  -7  -5  -4   -5.40    3.10
  -7  -5  -4   -2.90    2.60
  -7   5  -4   -3.30    2.10
  -7   5  -4    1.60    2.80
   7  -6  -4   -2.60    1.70
  -7  -6   4   -4.50    2.50
  -7  -6   4    0.10    2.20
  -7  -6   4   -5.60    3.00
  -7  -6   4   -0.20    1.60
  -7   6   4    4.70    2.50
  -7   6   4   -0.50    2.30
  -7   6   4   -2.80    1.80
   6  -6  -4    4.90    2.20
  -6  -6   4    3.70    3.00
  -6  -6   4    5.50    2.40
  -6  -6   4    6.30    1.60
  -6  -6   4    9.00    3.70
  -6   6   4    8.30    2.50
   6   6  -4   18.80    4.70
  -6   6   4    8.10    2.50
   6   6  -4   10.40    1.90
  -6   6   4    5.40    2.80
  -5  -6   4   29.90    4.70
  -5  -6   4   32.10    7.60
   5  -6  -4   32.50    4.30
  -5  -6   4   32.70    4.80
  -5   6   4   35.20    4.90
  -5   6   4   38.80    4.40
   5   6  -4   34.80    3.10
  -4  -6   4   80.29    6.80
  -4  -6   4   73.89    6.10
   4  -6  -4   70.29    5.30
  -4  -6   4   72.29    3.60
  -4  -6   4   68.79    6.00
  -4   6   4   85.59    7.30
  -4   6   4   79.29    5.90
   4   6  -4   70.59    3.80
   4   6  -4   76.59    6.90
  -4   6   4   61.29    8.70
  -3  -6   4   44.50    5.50
  -3  -6   4   38.50    5.00
  -3  -6   4   38.50    4.80
   3  -6  -4   37.20    4.20
  -3  -6   4   35.60    3.50
  -3   6   4   42.10    4.90
   3   6  -4   42.80    5.60
  -3   6   4   40.10    5.30
   3   6  -4   39.10    3.00
  -3   6   4   43.20    4.40
   2  -6  -4   51.19    3.00
  -2  -6   4   60.29    5.00
  -2  -6   4   50.99    5.30
  -2  -6   4   57.59    5.10
   2  -6  -4   58.89    4.80
  -2  -6   4   52.19    4.20
   2  -6  -4   54.19    4.40
  -2   6   4   53.89    5.10
  -2   6   4   53.39    4.60
  -2   6   4   61.09    5.50
   2   6  -4   57.79    4.50
   2   6  -4   50.89    3.50
   2   6  -4   58.19    5.40
  -1  -6   4   72.59    5.30
  -1  -6   4   79.49    6.10
  -1  -6   4   69.59    5.10
   1  -6  -4   79.99    5.20
  -1  -6   4   78.79    5.00
   1  -6  -4   81.29    5.30
  -1   6   4   82.19    5.40
  -1   6   4   78.39    5.80
  -1   6   4   78.69    5.30
   1   6  -4   76.29    5.70
   1   6  -4   79.29    4.10
  -1   6   4   85.09    5.70
   1   6  -4   80.29    5.40
   0  -6  -4   90.29    5.80
   0  -6   4   88.79    5.50
   0  -6   4   93.19    7.50
   0  -6   4   87.49    4.90
   0  -6   4   83.59    6.00
   0  -6  -4   86.19    5.50
   0   6   4   83.99    5.50
   0   6  -4   85.69    6.00
   0   6  -4   89.79    6.00
   0   6   4   93.69    6.00
   0   6   4   80.69    5.50
   0   6   4   88.69    6.10
   1  -6   4  249.18   10.40
   1  -6   4  234.98   10.00
   1  -6   4  259.07    8.00
  -1  -6  -4  248.68    9.30
   1  -6   4  235.88    8.80
  -1  -6  -4  250.87    9.80
  -1   6  -4  251.67   10.30
   1   6   4  252.47    9.10
   1   6   4  247.08    9.50
   1   6   4  239.48    9.90
   1   6   4  231.78    8.70
  -1   6  -4  246.28   10.00
  -2  -6  -4    0.10    1.90
  -2  -6  -4   -1.90    1.50
   2  -6   4   -0.60    1.70
   2  -6   4    2.00    1.20
   2  -6   4    1.00    1.50
  -2  -6  -4    1.50    1.90
   2   6   4    0.50    1.60
   2   6   4    0.30    1.00
  -2   6  -4    2.50    1.80
   2   6   4   -0.70    2.00
  -2   6  -4   -1.40    1.80
   2   6   4    0.10    1.80
  -3  -6  -4    5.80    2.10
  -3  -6  -4    5.80    2.50
   3  -6   4    8.50    1.50
   3  -6   4    5.20    2.40
  -3  -6  -4    2.10    2.50
   3  -6   4    6.00    3.20
  -3   6  -4    6.50    2.90
  -3   6  -4    7.00    2.30
   3   6   4    7.10    2.10
  -3   6  -4    2.80    2.00
   3   6   4    9.40    3.20
  -4  -6  -4    2.50    1.90
  -4  -6  -4    3.50    2.80
  -4  -6  -4    6.70    2.30
   4  -6   4    5.10    1.50
  -4   6  -4    1.40    2.40
   4   6   4    0.80    1.90
  -4   6  -4    2.90    2.50
  -5  -6  -4   -0.20    2.80
   5  -6   4    1.10    1.40
  -5  -6  -4    3.60    3.10
   5  -6   4    0.30    1.90
  -5  -6  -4    0.90    1.80
  -5   6  -4    3.00    2.50
  -5   6  -4   -0.70    1.90
  -5   6  -4    8.10    2.90
   6  -6   4    6.00    1.60
  -6  -6  -4    8.50    3.80
  -6  -6  -4    9.00    2.50
  -6  -6  -4    9.60    3.30
  -6   6  -4    4.00    2.80
  -6   6  -4    6.70    3.20
   6   6   4    5.70    3.00
  -6  -7   4   -3.40    2.90
  -6  -7   4   -0.30    2.50
   6   7  -4    0.00    1.50
  -6   7   4   -0.40    2.00
  -6   7   4    0.90    2.00
  -6   7   4    0.80    1.90
  -5  -7   4    3.10    3.20
   5  -7  -4   -2.70    1.40
  -5  -7   4    6.90    2.90
  -5  -7   4   -1.50    2.10
   5   7  -4   -0.60    2.40
  -5   7   4   -0.60    2.20
  -5   7   4    4.00    2.50
   5   7  -4   -1.40    1.20
  -5   7   4    1.00    1.90
  -4  -7   4   35.40    5.00
  -4  -7   4   34.80    5.50
  -4  -7   4   41.40    2.90
  -4  -7   4   38.50    5.50
   4  -7  -4   31.50    4.40
  -4   7   4   39.20    5.00
  -4   7   4   36.60    4.70
  -4   7   4   35.40    5.70
   4   7  -4   34.40    3.30
  -3  -7   4  106.79    5.40
  -3  -7   4  114.69    7.70
  -3  -7   4  115.79    7.30
  -3  -7   4  118.59    8.20
   3  -7  -4  109.89    6.90
  -3   7   4  119.79    7.60
  -3   7   4  113.49    8.30
   3   7  -4  107.89    4.80
  -3   7   4  106.89    6.70
   3   7  -4  107.09    8.20
  -2  -7   4  138.19    7.60
  -2  -7   4  139.49    8.00
   2  -7  -4  140.49    7.70
   2  -7  -4  140.79    5.20
  -2  -7   4  140.29    7.10
  -2  -7   4  145.99    8.60
   2  -7  -4  139.59    7.20
  -2   7   4  146.39    7.70
   2   7  -4  137.49    6.90
   2   7  -4  142.49    5.70
  -2   7   4  152.48    7.80
  -2   7   4  153.38    8.30
  -2   7   4  140.29    8.50
   2   7  -4  129.59    8.40
   1  -7  -4   10.90    2.90
   1  -7  -4   17.50    3.20
  -1  -7   4   11.60    3.60
  -1  -7   4    9.60    2.70
  -1  -7   4   10.80    2.80
   1   7  -4    9.40    2.10
  -1   7   4    7.50    2.10
  -1   7   4   16.40    3.10
   1   7  -4   13.10    3.70
  -1   7   4   13.30    3.00
   1   7  -4    8.90    2.50
  -1   7   4   13.00    2.80
   0  -7  -4  119.49    7.20
   0  -7   4  109.89    6.70
   0  -7   4  118.89    7.70
   0  -7   4  103.69    6.00
   0  -7  -4  119.79    6.90
   0  -7   4  109.49    7.30
   0   7  -4  104.69    7.20
   0   7  -4  104.49    7.30
   0   7   4  118.19    6.60
   0   7   4  118.49    7.20
   0   7   4  116.79    7.10
   0   7   4  118.79    6.90
   1  -7   4   -0.30    1.50
  -1  -7  -4    2.00    2.30
   1  -7   4    1.90    1.60
   1  -7   4    2.70    2.00
  -1  -7  -4    0.60    1.70
   1  -7   4   -1.90    1.90
   1   7   4    1.30    1.70
  -1   7  -4   -0.20    1.80
  -1   7  -4    0.70    2.30
   1   7   4    0.30    1.90
   1   7   4    0.70    2.10
   1   7   4    2.60    1.40
   2  -7   4   20.20    2.70
   2  -7   4   14.80    3.10
   2  -7   4   18.10    3.00
  -2  -7  -4   15.40    3.10
  -2  -7  -4   15.70    3.70
   2   7   4   15.70    3.10
   2   7   4   19.50    2.90
  -2   7  -4   14.90    3.10
   2   7   4   14.70    2.50
  -2   7  -4   13.60    2.80
  -3  -7  -4   19.10    4.50
  -3  -7  -4   16.40    3.10
   3  -7   4   22.80    3.10
   3  -7   4   17.10    3.90
  -3  -7  -4   25.50    3.70
  -3   7  -4   19.00    3.60
   3   7   4   22.50    4.20
   3   7   4   16.70    3.00
  -3   7  -4   28.10    4.90
  -4  -7  -4    2.30    3.50
   4  -7   4    3.60    1.80
  -4  -7  -4    5.00    2.20
  -4  -7  -4    9.00    3.80
  -4   7  -4    8.30    3.40
  -4   7  -4    4.70    2.60
   4   7   4    6.60    2.90
  -4   7  -4    4.70    2.40
  -5  -7  -4    2.60    2.10
  -5  -7  -4    3.20    3.10
  -5  -7  -4    5.80    2.70
   5  -7   4    4.30    1.80
  -5   7  -4    2.70    2.80
  -5   7  -4    6.60    2.70
   5   7   4   -1.20    2.20
  -6  -7  -4    0.60    2.80
  -6  -7  -4    6.90    2.50
  -6  -7  -4    0.90    2.50
   6  -7   4    6.20    1.90
  -6   7  -4   -2.80    2.30
  -6   7  -4    5.70    3.20
  -6  -8   4   -1.00    2.50
   6  -8  -4   -2.20    2.40
  -6  -8   4   -0.50    3.40
  -6   8   4   -0.80    2.50
   6   8  -4   -2.60    1.40
  -6   8   4    0.80    2.50
  -5  -8   4   -3.20    2.40
  -5  -8   4   -4.10    2.50
   5  -8  -4    1.50    2.20
  -5   8   4    0.00    2.50
  -5   8   4   -1.00    2.20
  -4  -8   4    0.90    2.40
  -4  -8   4    2.20    2.60
  -4  -8   4   -0.50    2.90
   4  -8  -4    3.20    2.10
  -4   8   4    1.90    2.30
  -4   8   4    0.00    2.70
   4   8  -4    1.30    1.40
   4   8  -4   -5.00    2.80
  -4   8   4    2.90    2.60
  -3  -8   4   37.10    5.90
  -3  -8   4   27.00    3.70
  -3  -8   4   17.50    3.70
  -3  -8   4   21.20    4.00
  -3   8   4   25.40    4.10
   3   8  -4   15.50    3.50
  -3   8   4   23.40    4.00
  -3   8   4   24.10    3.70
   3   8  -4   25.90    3.20
   2  -8  -4  134.39    5.40
  -2  -8   4  137.19    8.00
   2  -8  -4  139.79    5.70
   2  -8  -4  143.69    7.90
  -2  -8   4  124.39    9.90
  -2  -8   4  148.69    9.30
   2   8  -4  132.99    5.90
   2   8  -4  137.39    7.30
  -2   8   4  144.79    8.30
  -2   8   4  146.09    8.70
  -2   8   4  131.19    8.80
  -1  -8   4   78.89    7.30
  -1  -8   4   76.79    6.20
   1  -8  -4   80.99    6.20
  -1  -8   4   81.89    6.00
  -1   8   4   77.49    6.50
  -1   8   4   74.59    6.30
   1   8  -4   75.49    6.30
   1   8  -4   75.09    4.80
  -1   8   4   81.19    7.00
   0  -8   4   61.39    7.00
   0  -8   4   38.20    4.90
   0  -8   4   53.89    4.70
   0  -8   4   63.49    6.20
   0  -8  -4   59.99    5.90
   0   8   4   51.39    6.00
   0   8   4   54.59    5.30
   0   8   4   53.19    5.20
   0   8  -4   58.49    6.00
   0   8   4   56.99    6.30
   1  -8   4    0.00    1.90
   1  -8   4    0.10    1.60
   1  -8   4    2.60    1.50
   1  -8   4    1.10    2.00
  -1  -8  -4    3.00    2.80
  -1  -8  -4   -2.20    1.70
   1   8   4   -2.10    2.30
  -1   8  -4    0.60    2.00
   1   8   4    0.10    1.80
  -1   8  -4   -1.30    2.20
   1   8   4    3.50    2.50
   1   8   4    0.90    1.50
   2  -8   4    9.90    2.00
   2  -8   4   11.00    2.60
  -2  -8  -4   12.40    3.80
   2  -8   4    6.70    2.70
  -2  -8  -4    9.10    3.00
   2   8   4   15.10    5.00
   2   8   4    3.50    2.00
  -2   8  -4    7.60    3.00
  -2   8  -4   10.90    3.60
   2   8   4    8.50    1.80
  -3  -8  -4    4.30    2.40
   3  -8   4    1.40    1.90
  -3  -8  -4    4.70    3.10
   3  -8   4   -0.90    2.40
   3  -8   4    5.40    1.50
  -3   8  -4    0.70    2.40
  -3   8  -4    4.40    2.40
   3   8   4   11.10    3.80
   4  -8   4   11.20    2.50
  -4  -8  -4   11.60    4.00
  -4  -8  -4   11.10    2.70
  -4  -8  -4    4.70    2.40
   4   8   4    6.10    2.70
  -4   8  -4    9.90    3.60
  -4   8  -4    8.40    2.90
  -5  -8  -4   18.20    3.50
  -5  -8  -4   10.60    3.80
  -5  -8  -4   20.30    3.20
   5  -8   4   14.40    2.70
  -5   8  -4   12.30    3.50
  -5   8  -4    7.80    3.60
  -5  -9   4    1.90    2.60
  -5  -9   4    6.00    3.80
  -5   9   4    2.60    2.80
  -5   9   4    5.00    3.50
  -5   9   4   -0.50    3.20
  -4  -9   4    5.20    3.40
  -4  -9   4    0.20    2.90
   4   9  -4   -4.50    2.60
  -4   9   4   -0.10    2.40
  -4   9   4    4.80    2.90
  -4   9   4   -1.90    3.20
  -3  -9   4    5.70    3.70
  -3  -9   4    3.00    1.70
  -3  -9   4    3.50    2.90
   3   9  -4    0.80    1.50
  -3   9   4    1.90    2.70
  -3   9   4   -2.00    2.70
  -3   9   4    2.10    2.30
   2  -9  -4   -0.80    2.20
  -2  -9   4    4.30    2.30
  -2  -9   4    6.90    3.30
   2  -9  -4    3.50    1.40
   2  -9  -4    1.10    1.80
  -2  -9   4    4.00    1.80
   2  -9  -4    6.90    2.80
  -2   9   4    6.20    2.60
  -2   9   4    1.80    2.20
  -2   9   4    4.00    2.60
   2   9  -4    1.80    1.80
   2   9  -4    1.30    1.70
  -2   9   4    5.00    2.60
  -1  -9   4    3.70    2.80
  -1  -9   4    1.30    1.70
   1  -9  -4    0.90    2.20
  -1  -9   4    1.00    2.10
   1  -9  -4    6.30    4.30
  -1  -9   4    0.40    2.40
  -1   9   4    1.10    1.80
  -1   9   4    2.80    2.60
   1   9  -4    0.20    1.40
  -1   9   4    0.90    2.60
   1   9  -4   -0.20    2.60
  -1   9   4    3.10    2.40
   1   9  -4    1.80    1.90
   0  -9  -4   41.20    5.50
   0  -9   4   40.30    4.10
   0  -9   4   25.90    3.90
   0  -9   4   39.60    5.70
   0  -9   4   35.10    5.20
   0   9   4   27.40    7.10
   0   9   4   27.50    4.40
   0   9   4   24.30    3.70
   0   9  -4   36.70    3.80
   0   9  -4   34.80    5.50
   0   9  -4   24.80    4.90
   0   9   4   33.40    4.70
  -1  -9  -4    0.80    2.70
   1  -9   4    1.10    2.10
  -1  -9  -4   -0.50    2.00
   1  -9   4    1.00    1.50
   1  -9   4    4.40    2.70
   1  -9   4   -2.20    2.00
  -1   9  -4    2.70    2.30
   1   9   4    1.30    1.50
   1   9   4    0.70    2.80
  -1   9  -4    0.10    3.20
   1   9   4   -3.10    1.90
  -2  -9  -4    1.30    2.80
   2  -9   4   -0.30    1.80
   2  -9   4   -0.80    2.10
   2  -9   4   -2.00    1.20
   2   9   4   -0.50    1.50
  -2   9  -4    0.70    2.30
   2   9   4    0.50    3.30
   2   9   4   -3.60    2.00
  -3  -9  -4    2.80    3.50
   4  -9   4    1.00    2.40
  -4  -9  -4    4.60    3.80
  -4   9  -4    1.90    3.30
  -4   9  -4    7.60    2.90
  -3 -10   4   -0.70    2.40
  -3 -10   4    0.40    2.70
  -3  10   4   -2.60    2.70
  -3  10   4   -2.40    2.30
   2 -10  -4   11.40    2.40
  -2 -10   4   13.60    3.70
  -2 -10   4   11.50    3.30
   2 -10  -4   11.90    3.10
   2 -10  -4   10.60    2.30
  -2 -10   4    7.40    2.20
  -2  10   4   11.80    3.80
  -2  10   4   10.40    3.40
  -2  10   4    0.50    3.90
   2  10  -4    6.00    2.40
   2  10  -4    6.60    2.20
  -1 -10   4   -1.10    1.80
   1 -10  -4   -0.10    1.90
   1 -10  -4    0.20    1.90
  -1 -10   4    1.50    2.60
  -1 -10   4    1.60    2.10
  -1  10   4   -0.90    2.30
  -1  10   4   -1.10    1.90
   1  10  -4   -0.20    2.10
  -1  10   4   -5.60    2.80
   0 -10   4    0.20    3.00
   0 -10   4    0.00    1.90
   0 -10  -4    2.50    2.60
   0 -10   4    3.20    2.80
   0  10  -4   -0.60    2.10
   0  10   4   -2.40    1.80
   1 -10   4    3.40    2.10
   1 -10   4    6.30    2.80
  -1 -10  -4    8.60    3.50
  -1  10  -4    0.60    2.50
   1  10   4    2.50    2.10
   2 -10   4   -1.00    1.50
   2  10   4   -3.30    1.50
  -2  10  -4   -2.70    2.50
  -9   0   5   -1.90    2.10
  -9   0   5    0.10    1.80
  -9   0   5   -3.70    2.40
  -8   0   5   -0.50    1.50
  -8   0   5   -1.10    1.60
  -8   0   5   -0.60    1.30
  -8   0   5   -2.50    1.60
  -8   0   5    0.80    2.40
  -7   0   5    0.60    1.40
  -7   0   5    0.00    1.50
  -7   0   5    1.00    1.50
  -7   0   5   -2.10    1.90
  -7   0   5   -1.80    1.50
  -6   0   5   -0.40    1.20
  -6   0   5   -1.90    1.30
  -6   0   5   -0.30    1.20
  -6   0   5   -1.40    1.80
  -6   0   5    1.30    1.50
  -5   0   5   -0.80    1.10
  -5   0   5    0.20    1.80
  -5   0   5    1.40    1.30
  -5   0   5   -1.00    1.10
  -4   0   5   -1.40    1.10
  -4   0   5   -1.70    1.00
  -4   0   5   -1.50    1.30
  -3   0   5    1.10    0.90
   3   0  -5    0.10    1.00
  -3   0   5    0.80    1.20
  -3   0   5    0.70    0.90
  -2   0   5    0.60    1.00
   2   0  -5   -0.30    0.80
  -2   0   5    0.10    0.70
  -1   0   5    0.20    0.80
   1   0  -5    0.30    0.80
   1   0  -5    0.50    0.80
  -1   0   5   -0.60    0.90
   1   0  -5   -0.50    0.70
  -1   0   5    0.90    0.80
   0   0   5   -0.20    0.80
   0   0  -5    0.40    0.90
   0   0   5    0.30    0.90
   0   0  -5    0.90    0.90
   0   0   5    0.40    0.70
   0   0   5    0.20    0.90
   1   0   5   -0.30    0.90
  -1   0  -5    0.10    0.80
   1   0   5    0.40    0.70
   1   0   5    0.80    0.90
   1   0   5    0.70    0.90
  -1   0  -5    0.30    1.00
   2   0   5   -0.30    0.90
   2   0   5   -0.10    0.50
  -2   0  -5    1.20    1.20
  -2   0  -5   -0.50    0.90
  -2   0  -5   -0.10    1.00
   2   0   5    0.20    0.90
   3   0   5    0.10    1.00
  -3   0  -5    0.00    1.00
   3   0   5   -0.30    1.10
  -3   0  -5    0.20    1.20
  -4   0  -5   -0.70    1.30
   4   0   5    1.00    1.50
   4   0   5    0.60    1.10
  -4   0  -5    0.70    1.50
  -4   0  -5    0.00    1.30
  -5   0  -5   -0.90    1.60
   5   0   5   -1.10    1.50
   5   0   5    1.90    1.40
  -5   0  -5    0.70    1.50
  -5   0  -5   -0.60    1.70
  -6   0  -5   -0.50    1.60
  -6   0  -5   -1.30    1.50
   6   0   5   -0.80    1.30
  -6   0  -5    2.60    2.10
  -7   0  -5   -1.20    1.80
   7   0   5    2.30    1.70
  -7   0  -5    1.00    2.50
  -7   0  -5   -2.30    1.70
  -8   0  -5   -4.20    2.60
  -8   0  -5   -2.10    2.30
  -8   0  -5    0.50    2.90
   8   0   5   -1.90    2.00
  -8  -1   5   -1.00    1.60
  -8  -1   5   -1.00    2.00
  -8  -1   5    0.00    1.50
  -8  -1   5   -0.90    2.00
  -8  -1   5   -0.60    1.60
  -8   1   5    0.20    1.40
  -8   1   5   -2.30    2.00
  -8   1   5   -2.90    3.00
  -8   1   5   -0.40    1.60
  -8   1   5    0.50    1.40
  -7  -1   5    2.10    1.50
  -7  -1   5   -0.70    1.70
  -7  -1   5    0.60    1.80
  -7  -1   5    1.80    1.40
  -7  -1   5    1.30    1.30
  -7   1   5    1.20    1.20
  -7   1   5    1.40    1.80
  -7   1   5    0.70    1.30
  -7   1   5    1.60    1.70
  -7   1   5   -0.30    1.50
  -6  -1   5  355.66   11.20
  -6  -1   5  350.56   10.20
  -6  -1   5  351.76   11.50
  -6  -1   5  341.37   11.50
  -6  -1   5  343.57   11.10
  -6   1   5  357.36   12.90
  -6   1   5  352.16   11.30
  -6   1   5  344.87   10.80
  -6   1   5  329.07    9.40
  -6   1   5  343.97   11.30
  -5  -1   5    1.70    1.70
  -5  -1   5    1.70    1.10
  -5  -1   5    1.60    1.80
  -5  -1   5    2.10    1.20
  -5  -1   5    2.50    1.40
  -5   1   5    2.00    1.30
  -5   1   5    1.60    1.20
  -5   1   5    3.00    1.70
  -5   1   5    2.80    1.50
  -4  -1   5   18.40    2.70
  -4  -1   5   26.20    3.50
  -4   1   5   19.90    2.80
  -4   1   5   17.90    2.60
   3  -1  -5  228.68    6.30
  -3  -1   5  229.78    8.00
   3  -1  -5  233.78    7.40
  -3  -1   5  231.68    6.60
  -3  -1   5  229.68    5.40
   3   1  -5  224.98    6.70
  -3   1   5  234.88    6.10
   3   1  -5  214.78    7.00
   2  -1  -5 2597.04   46.70
   2  -1  -5 2565.84   45.00
  -2  -1   5 2603.74   44.90
   2   1  -5 2510.05   46.10
  -2   1   5 2606.54   46.70
  -2   1   5 2573.84   45.00
   2   1  -5 2576.94   45.00
   1  -1  -5   -0.10    0.80
  -1  -1   5    0.50    0.90
  -1  -1   5    0.60    0.50
  -1  -1   5    0.20    0.90
   1  -1  -5    0.90    0.80
   1  -1  -5    0.50    0.90
  -1  -1   5   -0.40    0.90
  -1   1   5    0.20    0.90
   1   1  -5   -0.10    0.90
   1   1  -5    1.10    0.60
  -1   1   5   -0.50    0.80
   1   1  -5    1.30    0.90
  -1   1   5   -0.50    0.80
   0  -1   5 1600.24   29.10
   0  -1  -5 1610.04   29.80
   0  -1  -5 1625.84   29.90
   0  -1  -5 1620.14   29.50
   0  -1   5 1566.24   30.60
   0  -1   5 1648.44   29.90
   0   1   5 1669.63   29.90
   0   1  -5 1632.94   29.00
   0   1   5 1668.73   30.00
   0   1  -5 1639.74   30.80
   0   1  -5 1597.44   29.80
   0   1   5 1604.24   29.60
   0   1  -5 1648.64   30.00
   1  -1   5    1.00    1.00
   1  -1   5    2.80    1.10
   1  -1   5    2.60    1.20
  -1  -1  -5    1.10    1.20
  -1  -1  -5    1.00    1.00
  -1  -1  -5    1.20    0.70
   1   1   5    2.60    0.90
  -1   1  -5    1.70    1.00
   1   1   5    2.20    0.90
  -1   1  -5    2.50    1.10
  -1   1  -5    1.90    1.20
   1   1   5    2.80    1.00
  -2  -1  -5   42.30    2.30
   2  -1   5   42.90    3.40
  -2  -1  -5   51.29    3.70
   2  -1   5   46.80    3.10
   2  -1   5   45.70    2.10
   2  -1   5   46.40    3.80
   2   1   5   49.00    3.30
   2   1   5   47.90    3.40
  -2   1  -5   45.30    3.00
   2   1   5   48.30    2.40
  -2   1  -5   45.30    3.50
  -3  -1  -5  888.51   16.40
  -3  -1  -5  898.31   19.00
   3  -1   5  878.01   20.20
  -3  -1  -5  894.21   19.80
  -3  -1  -5  885.31   19.50
   3  -1   5  877.61   20.30
  -3   1  -5  887.41   18.70
   3   1   5  870.81   20.00
  -3   1  -5  926.71   20.30
  -3   1  -5  911.21   20.30
   3   1   5  909.71   19.00
  -4  -1  -5  173.88    7.60
  -4  -1  -5  167.48    8.20
   4  -1   5  166.08    7.60
  -4  -1  -5  170.88    8.20
   4  -1   5  167.38    7.70
  -4   1  -5  177.88    7.80
  -4   1  -5  180.28    8.00
  -4   1  -5  177.68    6.50
   4   1   5  184.78    7.80
   4   1   5  177.68    6.80
   5  -1   5   90.99    6.20
  -5  -1  -5   90.69    5.50
  -5  -1  -5   82.59    6.10
  -5  -1  -5   81.69    5.30
   5   1   5   88.59    5.20
   5   1   5   94.19    6.40
  -5   1  -5   94.19    6.30
  -5   1  -5   94.79    6.50
   6  -1   5    1.90    1.70
  -6  -1  -5    4.60    1.80
  -6  -1  -5    7.20    2.60
  -6  -1  -5    9.70    3.40
  -6  -1  -5    2.30    1.90
  -6   1  -5    2.20    2.30
  -6   1  -5    5.10    2.30
  -6   1  -5    3.20    1.80
   6   1   5    4.70    1.60
   7  -1   5   13.70    3.10
  -7  -1  -5    9.60    3.00
  -7  -1  -5   13.20    2.60
  -7  -1  -5   11.30    3.50
  -7  -1  -5   23.60    5.70
   7   1   5   11.00    3.00
  -7   1  -5   15.90    2.80
  -7   1  -5   11.30    3.40
  -7   1  -5   12.10    2.90
  -8  -2   5   84.49    7.80
  -8  -2   5   83.29    6.80
  -8  -2   5   78.59    5.90
  -8  -2   5   77.29    5.70
  -8  -2   5   82.29    5.50
  -8   2   5   76.19    6.50
  -8   2   5   76.49    4.10
  -8   2   5   86.19    7.70
  -8   2   5   86.39    5.50
  -8   2   5   90.49    7.20
  -7  -2   5   -0.90    2.10
  -7  -2   5   -0.20    2.30
  -7  -2   5   -0.10    1.50
  -7  -2   5    0.90    1.50
  -7  -2   5    0.00    1.20
  -7   2   5    0.30    1.40
  -7   2   5    2.50    2.00
  -7   2   5    1.40    1.80
  -7   2   5    1.60    1.80
  -7   2   5    0.00    1.20
  -6  -2   5  469.15   14.60
  -6  -2   5  460.85   11.80
  -6  -2   5  466.15   13.10
  -6  -2   5  487.25   13.90
  -6  -2   5  442.26   14.10
  -6   2   5  493.45   16.30
  -6   2   5  432.26   10.70
  -6   2   5  464.95   13.20
  -6   2   5  475.05   14.10
  -5  -2   5    1.10    1.20
  -5  -2   5    2.90    1.90
  -5  -2   5    2.50    1.10
  -5  -2   5    3.20    1.90
  -5   2   5    2.00    1.10
  -5   2   5    1.50    1.40
  -5   2   5    1.40    1.60
  -4  -2   5  284.07    9.50
   4  -2  -5  308.07    9.40
  -4  -2   5  296.97    9.40
  -4  -2   5  296.67    6.90
  -4   2   5  293.17    7.00
  -4   2   5  309.17   11.20
   4   2  -5  288.87    9.50
  -4   2   5  295.57    9.20
   3  -2  -5  222.88    5.80
  -3  -2   5  215.78    7.30
   3  -2  -5  237.68    7.70
  -3  -2   5  225.88    7.20
  -3   2   5  230.68    7.50
  -3   2   5  228.58    8.70
  -3   2   5  223.88    5.70
   3   2  -5  226.68    7.40
  -3   2   5  222.38    5.50
  -2  -2   5  414.26   10.30
  -2  -2   5  419.16   10.10
   2  -2  -5  411.56   10.70
   2  -2  -5  406.46    8.90
   2   2  -5  400.96   10.50
   2   2  -5  404.56   10.00
  -2   2   5  408.46   12.10
  -2   2   5  402.56    8.90
   1  -2  -5 1009.00   17.90
   1  -2  -5  993.70   19.00
  -1  -2   5  991.50   19.80
   1  -2  -5  980.90   20.20
  -1  -2   5 1001.90   19.80
  -1  -2   5  970.50   20.10
   1   2  -5  995.30   20.00
  -1   2   5  974.20   19.40
   1   2  -5  985.20   19.70
  -1   2   5  990.90   20.10
   1   2  -5  981.10   17.30
  -1   2   5 1002.00   19.10
   0  -2  -5   24.30    2.40
   0  -2  -5   21.70    2.30
   0  -2  -5   23.00    2.20
   0  -2   5   24.40    2.90
   0  -2  -5   18.90    2.70
   0  -2   5   26.10    2.30
   0   2   5   26.70    2.40
   0   2  -5   28.90    2.10
   0   2  -5   19.50    2.50
   0   2  -5   22.60    2.30
   0   2  -5   27.50    3.10
  -1  -2  -5   22.80    2.90
  -1  -2  -5   20.70    2.40
   1  -2   5   27.40    2.40
  -1  -2  -5   20.30    2.20
   1  -2   5   24.90    3.00
  -1   2  -5   21.60    2.90
  -1   2  -5   22.40    2.40
   1   2   5   21.10    2.60
   1   2   5   25.50    2.40
  -1   2  -5   23.50    2.30
   2  -2   5 1686.43   34.20
  -2  -2  -5 1720.53   32.90
  -2  -2  -5 1647.24   32.80
  -2  -2  -5 1715.83   31.30
   2  -2   5 1726.63   31.90
  -2  -2  -5 1757.62   34.60
  -2   2  -5 1743.23   33.20
   2   2   5 1729.73   31.70
  -2   2  -5 1727.13   34.00
   2   2   5 1729.43   31.20
  -2   2  -5 1660.83   31.70
  -3  -2  -5   62.59    5.20
   3  -2   5   59.79    4.90
  -3  -2  -5   59.19    3.00
  -3  -2  -5   60.09    4.70
   3   2   5   63.59    3.60
   3   2   5   63.79    3.10
  -3   2  -5   60.79    3.50
   3   2   5   57.09    4.30
  -3   2  -5   61.19    5.10
   4  -2   5    1.00    1.20
  -4  -2  -5   -0.20    0.70
  -4  -2  -5    1.30    1.70
  -4  -2  -5   -0.60    1.80
  -4   2  -5   -0.30    1.60
  -4   2  -5    1.80    1.20
   4   2   5    0.20    1.00
   4   2   5   -1.00    1.20
  -4   2  -5    1.00    1.70
  -5  -2  -5   47.90    5.20
  -5  -2  -5   46.90    5.70
  -5  -2  -5   48.80    4.70
   5  -2   5   46.10    5.00
   5   2   5   45.60    4.90
  -5   2  -5   49.60    5.20
   5   2   5   50.29    3.60
  -5   2  -5   51.19    5.50
  -5   2  -5   50.49    3.70
  -6  -2  -5   29.00    4.00
   6  -2   5   32.70    5.30
  -6  -2  -5   37.60    4.60
  -6  -2  -5   39.80    5.80
  -6   2  -5   28.40    3.50
  -6   2  -5   22.90    3.50
   6   2   5   31.70    3.40
  -6   2  -5   33.10    5.30
  -7  -2  -5   18.40    3.80
  -7  -2  -5   22.00    3.60
  -7  -2  -5   15.30    3.50
  -7   2  -5   16.70    2.60
   7   2   5   18.60    2.40
  -7   2  -5   12.60    3.30
  -7   2  -5   19.00    4.00
  -8  -3   5  116.19    6.60
  -8  -3   5  125.49    6.30
  -8  -3   5  114.19    7.50
  -8  -3   5  117.69    8.50
  -8  -3   5  116.19    8.80
  -8   3   5  128.29    8.90
  -8   3   5  137.99    6.90
  -8   3   5  122.59    9.60
  -8   3   5  118.09    7.80
  -7  -3   5   13.20    3.70
  -7  -3   5    7.60    1.60
  -7  -3   5   11.70    2.30
  -7   3   5   10.40    3.40
  -7   3   5   14.00    4.30
  -7   3   5    9.60    2.30
  -6  -3   5   90.59    6.40
  -6  -3   5   90.59    7.10
  -6  -3   5   96.59    4.80
  -6  -3   5   96.29    5.40
  -6   3   5   89.69    5.80
  -6   3   5  102.49    7.80
  -5  -3   5    2.30    1.20
   5  -3  -5    2.40    1.60
  -5  -3   5    2.20    2.00
  -5  -3   5    1.00    2.20
  -5   3   5    2.20    1.90
  -5   3   5    3.00    1.60
  -5   3   5    1.50    1.40
   5   3  -5    4.50    2.40
  -4  -3   5   35.40    3.30
  -4  -3   5   32.60    4.30
   4  -3  -5   28.80    3.40
  -4  -3   5   38.30    4.00
   4   3  -5   33.00    4.00
  -4   3   5   35.70    3.10
  -4   3   5   41.80    3.90
  -4   3   5   38.50    4.70
   3  -3  -5  720.03   17.00
  -3  -3   5  720.63   16.80
  -3  -3   5  727.33   17.10
   3  -3  -5  720.23   13.70
  -3  -3   5  717.53   15.60
  -3   3   5  708.03   14.40
  -3   3   5  722.13   13.80
  -3   3   5  719.63   18.90
   3   3  -5  724.93   17.10
  -3   3   5  734.43   16.90
   2  -3  -5    0.90    1.10
  -2  -3   5    5.60    3.80
   2  -3  -5    1.70    0.80
  -2  -3   5    1.50    1.10
  -2  -3   5    1.20    1.30
   2  -3  -5    2.00    1.00
  -2   3   5    1.60    1.30
   2   3  -5    1.00    1.30
  -2   3   5    3.20    1.20
   2   3  -5    2.70    1.40
  -2   3   5    1.40    1.10
   1  -3  -5    3.70    1.20
  -1  -3   5    2.60    1.60
  -1  -3   5    2.70    1.30
   1  -3  -5    3.50    1.30
   1  -3  -5    4.50    1.10
  -1  -3   5    2.70    1.20
   1   3  -5    2.60    1.10
   1   3  -5    4.00    0.80
   1   3  -5    3.10    1.40
  -1   3   5    2.90    1.30
   1   3  -5    3.10    1.40
  -1   3   5    1.30    1.30
  -1   3   5    4.60    1.30
   0  -3  -5 1061.49   21.00
   0  -3  -5 1000.80   21.00
   0  -3   5 1017.60   21.80
   0  -3  -5 1038.80   20.60
   0  -3   5 1033.00   20.60
   0  -3   5 1043.00   23.40
   0  -3  -5 1017.00   20.50
   0   3  -5 1001.90   23.60
   0   3  -5 1030.50   21.60
   0   3  -5 1040.70   19.70
   0   3   5 1037.70   20.90
   0   3  -5 1033.20   20.80
   0   3   5  984.70   20.60
   0   3   5  996.40   25.20
   1  -3   5  391.36   11.60
  -1  -3  -5  386.06   10.20
   1  -3   5  414.86    9.90
  -1  -3  -5  401.36   12.70
  -1  -3  -5  402.16   10.60
  -1  -3  -5  409.46   10.70
  -1   3  -5  417.76   10.40
   1   3   5  406.56   10.60
  -1   3  -5  397.86   11.30
  -1   3  -5  408.26   10.00
  -1   3  -5  399.56   11.50
   1   3   5  394.06   10.50
  -2  -3  -5   10.60    1.70
  -2  -3  -5   13.30    2.30
   2  -3   5    7.00    1.70
  -2  -3  -5   10.80    2.40
   2  -3   5   12.20    1.70
   2  -3   5   14.00    2.00
   2   3   5   10.80    2.20
   2   3   5   16.70    2.40
   2   3   5   10.40    1.50
  -2   3  -5   11.40    2.60
  -2   3  -5   12.70    1.80
  -2   3  -5    6.90    1.90
  -2   3  -5   10.40    2.00
   3  -3   5    5.10    1.60
  -3  -3  -5    7.70    1.60
  -3  -3  -5    6.10    2.10
  -3  -3  -5    8.40    2.20
   3  -3   5    7.80    1.80
   3  -3   5    7.50    1.20
   3   3   5    8.50    1.60
  -3   3  -5    7.30    1.60
  -3   3  -5    8.10    2.20
  -3   3  -5    6.50    2.10
   3   3   5    8.30    2.00
   3   3   5    8.00    1.30
  -4  -3  -5   37.20    5.10
  -4  -3  -5   39.10    3.00
  -4  -3  -5   35.20    4.60
   4  -3   5   36.70    4.60
   4   3   5   38.20    2.80
  -4   3  -5   35.20    5.10
  -4   3  -5   33.80    4.50
   4   3   5   37.40    4.30
  -4   3  -5   37.40    3.00
  -5  -3  -5    0.30    1.00
  -5  -3  -5    3.50    2.50
  -5  -3  -5    2.50    2.70
   5  -3   5    4.60    2.00
   5   3   5    0.20    0.80
  -5   3  -5    2.50    2.10
   5   3   5   -0.70    1.40
  -5   3  -5    0.70    1.90
  -5   3  -5    1.60    1.10
  -6  -3  -5   24.30    5.40
   6  -3   5   18.20    3.70
  -6  -3  -5   17.60    3.70
  -6   3  -5   21.50    5.30
  -6   3  -5   23.40    3.10
  -6   3  -5   16.70    3.30
  -7  -3  -5   22.80    5.40
  -7  -3  -5   19.00    3.70
   7  -3   5   17.20    3.60
  -7   3  -5   13.50    3.50
  -7   3  -5   21.40    2.60
  -7   3  -5   24.60    4.20
  -8  -4   5    9.40    3.30
  -8  -4   5    4.60    2.40
  -8  -4   5   13.50    4.60
  -8   4   5    9.20    3.10
  -8   4   5    9.20    3.00
  -8   4   5   10.80    2.70
  -7  -4   5    2.70    2.40
  -7  -4   5   -0.70    2.50
  -7  -4   5   -1.90    1.50
  -7   4   5    4.20    2.10
  -7   4   5    3.00    1.90
  -7   4   5    1.40    1.60
  -7   4   5   -0.90    1.80
  -6  -4   5    6.20    1.20
  -6  -4   5    3.60    1.20
  -6  -4   5    6.50    2.70
  -6  -4   5    5.10    1.90
  -6  -4   5    3.90    2.60
   6  -4  -5    7.00    2.20
  -6   4   5    3.70    2.50
  -6   4   5    6.30    2.00
  -6   4   5    4.00    1.80
  -5  -4   5   11.80    1.60
  -5  -4   5    6.20    2.60
  -5  -4   5   10.10    1.60
   5  -4  -5    8.50    2.00
  -5  -4   5   11.90    2.90
  -5   4   5    8.70    2.60
  -5   4   5   10.40    2.20
   5   4  -5   16.60    3.40
  -5   4   5   14.30    2.50
  -4  -4   5   38.10    4.20
  -4  -4   5   41.00    4.70
   4  -4  -5   36.70    3.90
  -4  -4   5   34.10    3.10
  -4   4   5   40.50    4.10
   4   4  -5   37.90    4.50
  -4   4   5   38.10    4.90
  -4   4   5   31.90    3.30
  -3  -4   5    6.70    2.00
  -3  -4   5    8.00    2.30
  -3  -4   5    9.00    1.60
   3  -4  -5    7.50    1.90
  -3   4   5   10.20    2.10
  -3   4   5    9.40    1.90
   3   4  -5   12.20    2.40
  -3   4   5    5.60    1.80
  -2  -4   5   87.89    4.60
   2  -4  -5   80.19    4.90
   2  -4  -5   82.09    3.40
  -2  -4   5   84.79    5.00
   2  -4  -5   82.89    4.00
  -2  -4   5   91.29    5.50
  -2   4   5   87.09    5.20
  -2   4   5   83.69    5.90
  -2   4   5   80.99    4.10
   2   4  -5   87.19    5.30
  -1  -4   5 1334.87   26.60
   1  -4  -5 1327.17   25.20
  -1  -4   5 1322.97   27.00
  -1  -4   5 1338.07   27.50
   1  -4  -5 1354.36   25.70
   1  -4  -5 1262.47   27.00
  -1   4   5 1322.97   27.20
   1   4  -5 1307.37   26.80
  -1   4   5 1317.57   28.20
   1   4  -5 1353.46   27.50
   1   4  -5 1294.77   27.30
  -1   4   5 1332.47   26.50
  -1   4   5 1302.47   25.70
   0  -4   5    4.70    1.60
   0  -4  -5    4.10    1.50
   0  -4  -5    6.10    1.70
   0  -4  -5    3.50    1.10
   0  -4   5    4.10    1.50
   0  -4   5    4.70    1.90
   0   4  -5    4.60    1.90
   0   4   5    5.10    1.60
   0   4  -5    3.70    1.50
   0   4   5    4.60    1.50
   0   4   5    2.80    1.60
   0   4  -5    4.60    1.70
  -1  -4  -5   -0.60    1.30
  -1  -4  -5    0.30    1.40
   1  -4   5   -1.40    1.00
  -1  -4  -5    0.90    1.00
   1  -4   5    0.00    1.20
   1   4   5   -0.70    1.00
   1   4   5   -0.50    1.40
  -1   4  -5    0.10    1.20
  -1   4  -5    0.40    1.20
  -1   4  -5    0.10    1.20
   1   4   5    1.00    1.20
  -1   4  -5    1.20    1.50
  -2  -4  -5   17.00    2.60
   2  -4   5   19.80    2.50
   2  -4   5   21.30    2.80
  -2  -4  -5   19.20    2.70
   2  -4   5   23.90    3.60
  -2   4  -5   18.80    3.20
  -2   4  -5   20.70    2.40
  -2   4  -5   16.70    2.80
  -2   4  -5   14.60    2.20
   2   4   5   23.10    3.10
   2   4   5   17.90    4.30
  -3  -4  -5    2.00    2.00
   3  -4   5    6.90    1.50
  -3  -4  -5    5.70    2.90
   3  -4   5    3.00    1.50
  -3  -4  -5    6.10    1.60
   3  -4   5    7.40    1.90
   3   4   5    5.40    1.20
  -3   4  -5    4.60    2.00
  -3   4  -5    6.10    1.90
   3   4   5    6.00    1.70
  -3   4  -5    3.00    1.90
  -3   4  -5    4.80    1.50
   3   4   5    3.90    1.60
  -4  -4  -5   65.59    5.70
  -4  -4  -5   55.79    6.00
  -4  -4  -5   53.99    3.90
   4  -4   5   54.69    3.10
   4  -4   5   64.09    5.90
   4   4   5   58.19    5.00
  -4   4  -5   65.39    5.80
  -4   4  -5   60.79    6.30
  -4   4  -5   55.39    5.50
  -4   4  -5   58.39    3.50
   5  -4   5   45.60    6.00
  -5  -4  -5   55.99    5.80
  -5  -4  -5   46.20    3.70
  -5  -4  -5   50.69    6.30
  -5   4  -5   51.39    3.40
  -5   4  -5   53.09    6.50
  -5   4  -5   55.99    5.90
   5   4   5   46.10    5.30
  -6  -4  -5    3.90    2.60
   6  -4   5    5.10    2.60
  -6  -4  -5    7.70    3.40
  -6  -4  -5    2.30    1.30
  -6   4  -5    5.20    2.50
  -6   4  -5    5.90    1.50
  -6   4  -5    7.10    3.10
   6   4   5    3.70    2.30
  -7  -4  -5    0.00    2.60
  -7  -4  -5    0.70    3.00
  -7   4  -5    1.80    2.70
  -7   4  -5    0.50    2.80
  -7   4  -5    3.50    1.60
  -8  -5   5   -2.50    2.70
  -8  -5   5   -4.30    2.40
  -8   5   5   -1.00    2.00
  -7  -5   5   18.80    2.30
   7  -5  -5   15.50    3.10
  -7  -5   5   17.70    4.10
  -7  -5   5   23.10    4.40
  -7   5   5   15.70    3.50
  -7   5   5   29.80    4.40
  -7   5   5   19.10    3.20
   6  -5  -5    9.60    2.30
  -6  -5   5   13.00    3.20
  -6  -5   5   17.30    5.60
  -6   5   5   16.50    2.90
   6   5  -5   14.10    4.60
  -6   5   5   11.40    2.70
  -6   5   5   10.20    3.00
  -5  -5   5    5.20    2.80
  -5  -5   5    2.10    1.00
  -5  -5   5    4.10    2.40
   5  -5  -5    3.00    1.60
   5   5  -5    5.90    3.10
  -5   5   5    3.90    2.20
  -5   5   5    3.90    1.80
  -5   5   5    4.50    2.20
   4  -5  -5   59.89    4.90
  -4  -5   5   49.90    4.90
  -4  -5   5   49.80    3.40
  -4  -5   5   48.60    5.50
  -4   5   5   50.89    4.20
   4   5  -5   57.29    2.70
  -4   5   5   57.19    5.00
   4   5  -5   51.79    5.40
  -4   5   5   56.29    6.00
  -3  -5   5    1.50    1.10
  -3  -5   5   -0.90    1.50
   3  -5  -5    1.00    1.50
  -3  -5   5    1.20    2.20
   3   5  -5    0.60    0.70
  -3   5   5   -1.30    1.40
  -3   5   5    0.70    1.60
  -3   5   5    1.60    1.40
   3   5  -5   -0.90    1.40
   2  -5  -5  134.89    4.70
  -2  -5   5  140.59    6.60
  -2  -5   5  139.89    6.10
   2  -5  -5  136.49    6.60
  -2   5   5  136.99    6.60
   2   5  -5  139.59    4.30
   2   5  -5  145.09    6.30
  -2   5   5  141.49    6.80
  -2   5   5  137.69    5.90
  -2   5   5  137.49    7.60
   2   5  -5  132.69    7.10
   1  -5  -5   97.19    5.00
   1  -5  -5   93.89    4.20
  -1  -5   5  101.19    6.10
  -1  -5   5   96.59    5.40
  -1  -5   5   88.59    4.90
   1  -5  -5   87.79    5.20
  -1   5   5   90.09    5.30
  -1   5   5   94.39    5.10
  -1   5   5   95.99    6.00
  -1   5   5   99.19    5.60
   1   5  -5   82.19    8.70
   1   5  -5  100.19    5.60
   0  -5   5   53.19    4.70
   0  -5   5   48.70    4.50
   0  -5   5   43.80    3.90
   0  -5   5   52.59    3.80
   0  -5  -5   54.89    4.30
   0  -5  -5   44.60    6.30
   0   5  -5   48.40    5.30
   0   5   5   44.30    5.00
   0   5   5   51.59    4.20
   0   5  -5   49.30    4.60
   0   5  -5   45.70    3.70
   0   5   5   51.89    4.40
   0   5   5   52.39    4.30
  -1  -5  -5    0.00    1.50
   1  -5   5    2.20    1.30
  -1  -5  -5    1.10    2.50
   1  -5   5    0.20    1.30
   1  -5   5    0.40    1.20
  -1  -5  -5   -0.50    1.50
  -1   5  -5    0.70    1.60
   1   5   5   -0.40    1.30
  -1   5  -5   -0.10    1.40
   1   5   5    0.20    1.00
   1   5   5   -1.60    1.30
   1   5   5    0.90    1.60
  -1   5  -5    0.60    1.20
   2  -5   5   34.30    3.40
   2  -5   5   33.70    3.00
  -2  -5  -5   22.90    3.10
  -2  -5  -5   31.40    4.50
   2  -5   5   36.80    4.70
  -2   5  -5   29.40    4.00
  -2   5  -5   32.70    5.00
  -2   5  -5   34.60    3.20
   2   5   5   30.70    4.50
   2   5   5   33.50    3.10
   2   5   5   37.00    4.10
   2   5   5   32.20    3.80
  -2   5  -5   29.50    4.40
  -3  -5  -5   -0.80    2.20
  -3  -5  -5    1.10    1.80
   3  -5   5    0.40    1.40
   3  -5   5    0.00    1.70
  -3  -5  -5   -0.70    2.80
   3  -5   5    0.60    1.20
   3   5   5    0.80    1.30
   3   5   5   -0.70    0.60
  -3   5  -5    0.70    1.10
  -3   5  -5    0.20    1.90
  -3   5  -5    1.10    1.80
   3   5   5   -0.10    0.80
  -3   5  -5   -0.40    1.60
  -4  -5  -5    9.70    2.90
   4  -5   5   11.60    1.80
  -4  -5  -5   14.20    2.60
  -4  -5  -5    9.70    3.30
   4  -5   5    9.20    2.70
  -4   5  -5   10.40    3.40
  -4   5  -5   12.00    2.80
  -4   5  -5    6.40    2.40
  -4   5  -5   11.20    1.70
   4   5   5   12.40    2.80
  -5  -5  -5   -0.90    1.50
   5  -5   5   -0.10    1.00
  -5  -5  -5    1.50    3.70
   5  -5   5    1.90    1.90
  -5  -5  -5   -3.70    2.30
  -5   5  -5   -3.20    2.00
  -5   5  -5   -2.80    1.70
  -5   5  -5   -1.30    2.00
  -6  -5  -5    1.40    2.30
  -6  -5  -5    5.60    3.70
  -6  -5  -5    6.40    2.70
  -6   5  -5    2.50    2.50
   6   5   5   -3.60    2.00
  -6   5  -5    4.80    2.70
  -7  -5  -5    7.50    3.60
  -7  -5  -5    9.10    5.60
  -7   5  -5    5.30    3.80
  -7  -6   5    1.10    2.40
  -7  -6   5    3.20    3.40
  -7  -6   5    5.70    1.40
  -7  -6   5    6.60    3.10
  -7   6   5    3.00    2.90
  -7   6   5    4.10    2.60
  -7   6   5    5.00    2.30
   6  -6  -5   22.70    3.30
  -6  -6   5   19.70    4.10
  -6  -6   5   27.90    5.00
  -6  -6   5   29.90    6.00
  -6   6   5   17.80    3.80
  -6   6   5   33.90    5.00
   6   6  -5   28.90    5.10
  -6   6   5   28.00    4.20
   5  -6  -5  105.69    7.00
  -5  -6   5  109.09    7.70
   5   6  -5   99.59    4.20
  -5   6   5  105.89    6.80
  -5   6   5  102.99    6.30
  -5   6   5  108.09    8.60
  -4  -6   5  169.88    9.30
  -4  -6   5  178.88    6.40
  -4  -6   5  190.38    9.10
   4  -6  -5  178.48    8.50
  -4   6   5  191.08   10.50
  -4   6   5  181.28    7.70
  -4   6   5  182.18    8.60
   4   6  -5  172.38    9.60
  -3  -6   5  201.38    7.50
  -3  -6   5  221.08   10.00
  -3  -6   5  203.08    9.10
   3  -6  -5  217.58    8.90
   3   6  -5  215.08    5.90
  -3   6   5  203.88    9.10
  -3   6   5  199.48    7.90
  -3   6   5  211.58   10.60
   3   6  -5  207.58    9.80
   2  -6  -5    1.70    1.00
   2  -6  -5    0.10    1.50
  -2  -6   5   -1.20    1.60
  -2  -6   5    0.00    2.30
  -2  -6   5    0.90    1.60
   2  -6  -5   -0.90    1.50
  -2  -6   5   -0.10    1.20
  -2   6   5   -0.30    1.40
   2   6  -5   -0.60    1.30
   2   6  -5   -1.20    1.90
  -2   6   5    0.20    1.60
  -2   6   5   -0.20    1.50
  -2   6   5    2.70    2.00
   2   6  -5    0.50    1.10
   1  -6  -5    0.30    1.10
   1  -6  -5    2.00    1.10
   1  -6  -5    3.60    2.00
  -1  -6   5   -0.60    1.40
  -1  -6   5   -1.50    1.30
  -1  -6   5   -2.10    2.00
  -1  -6   5   -1.90    1.50
   1   6  -5    0.40    1.50
  -1   6   5    0.50    1.40
   1   6  -5   -0.30    1.60
  -1   6   5    0.50    1.60
  -1   6   5   -0.10    1.30
  -1   6   5   -2.00    1.40
   0  -6  -5    9.90    2.50
   0  -6  -5    6.80    1.70
   0  -6   5    5.20    1.80
   0  -6   5    9.40    2.10
   0  -6   5    7.90    2.20
   0  -6   5    7.50    2.70
   0   6   5    5.40    2.10
   0   6  -5    9.20    2.90
   0   6   5    7.20    2.40
   0   6  -5    6.40    2.00
   0   6   5    8.00    1.90
   0   6   5   11.70    3.10
   1  -6   5    5.80    1.70
   1  -6   5    9.80    2.20
  -1  -6  -5    8.30    2.90
  -1  -6  -5    8.30    2.00
   1  -6   5    6.80    2.20
   1   6   5    6.60    2.40
   1   6   5    4.10    2.20
   1   6   5    6.90    1.80
   1   6   5    4.70    1.90
  -1   6  -5    7.60    2.30
  -1   6  -5    7.30    2.50
   2  -6   5   61.49    6.10
   2  -6   5   71.99    4.80
  -2  -6  -5   67.89    5.50
  -2  -6  -5   57.89    5.10
   2  -6   5   67.79    4.00
  -2  -6  -5   62.29    5.90
  -2   6  -5   68.19    6.60
  -2   6  -5   55.49    5.50
  -2   6  -5   62.99    4.20
   2   6   5   65.89    4.10
  -2   6  -5   66.49    5.80
   2   6   5   61.89    5.00
   2   6   5   68.39    6.20
   2   6   5   65.29    5.40
   3  -6   5   52.39    3.50
  -3  -6  -5   57.49    5.80
   3  -6   5   50.09    5.00
  -3  -6  -5   40.90    5.80
  -3  -6  -5   45.00    4.80
  -3   6  -5   51.39    3.70
   3   6   5   52.99    5.90
  -3   6  -5   47.20    5.60
  -3   6  -5   47.80    5.40
  -3   6  -5   47.70    6.20
   3   6   5   45.40    4.80
  -4  -6  -5  123.29    6.70
   4  -6   5  119.09    6.90
  -4  -6  -5  118.39    8.70
  -4  -6  -5  128.59    7.90
   4  -6   5  116.49    5.80
  -4   6  -5  137.09    9.40
  -4   6  -5  121.49    5.00
   4   6   5  108.29    7.20
  -4   6  -5  118.89    7.90
  -5  -6  -5   28.90    4.20
   5  -6   5   24.30    2.90
  -5  -6  -5   19.80    4.50
  -5  -6  -5   27.30    4.30
  -5   6  -5   18.20    3.60
   5   6   5   21.70    4.00
  -5   6  -5   20.40    3.50
   6  -6   5    3.10    1.20
  -6  -6  -5    4.10    3.90
  -6  -6  -5   -1.60    2.40
  -6  -6  -5    1.60    1.80
  -6   6  -5    8.30    3.10
  -6   6  -5   -4.10    2.50
  -6  -7   5    0.10    2.70
  -6  -7   5    3.40    3.90
   6  -7  -5   -0.60    2.10
  -6  -7   5   -1.60    2.40
  -6   7   5   -0.90    2.10
  -5  -7   5    0.20    2.20
  -5  -7   5   -1.80    2.80
  -5  -7   5    2.90    2.60
  -5   7   5   -3.20    1.90
  -5   7   5   -0.20    1.90
   5   7  -5    1.00    1.10
  -5   7   5   -3.50    1.70
  -4  -7   5   10.20    1.70
   4  -7  -5   10.90    2.50
  -4  -7   5    5.80    2.30
  -4  -7   5   11.90    3.10
  -4  -7   5   17.50    4.20
  -4   7   5    9.70    2.80
  -4   7   5   10.50    2.90
  -4   7   5   10.60    2.80
   4   7  -5   13.60    1.80
  -3  -7   5  148.29    8.50
   3  -7  -5  152.58    8.10
  -3  -7   5  147.59    9.00
  -3  -7   5  155.18    8.40
  -3  -7   5  163.28    7.10
  -3   7   5  167.08    8.50
  -3   7   5  168.68    9.70
   3   7  -5  140.19    8.80
  -3   7   5  153.58    7.60
   3   7  -5  147.09    5.40
  -2  -7   5    3.60    3.40
   2  -7  -5    3.50    1.70
  -2  -7   5   -0.20    2.10
   2  -7  -5    2.80    2.10
   2  -7  -5    4.30    1.30
  -2  -7   5    0.50    1.60
  -2   7   5    1.40    2.30
  -2   7   5    1.70    2.00
   2   7  -5    2.70    2.00
   2   7  -5    2.80    2.40
  -2   7   5    3.80    1.90
   2   7  -5    3.20    1.50
  -2   7   5    5.00    2.30
   1  -7  -5  162.88    6.50
  -1  -7   5  175.18    9.30
  -1  -7   5  160.58    7.70
  -1  -7   5  164.58    8.40
   1  -7  -5  173.18    8.60
  -1  -7   5  154.68    8.30
   1  -7  -5  173.78    8.10
  -1   7   5  178.08    8.20
  -1   7   5  182.78    8.70
   1   7  -5  164.48    6.50
  -1   7   5  167.58    8.70
   1   7  -5  176.38    9.20
  -1   7   5  172.48    8.20
   1   7  -5  176.08    8.50
   0  -7   5   30.10    4.90
   0  -7   5   36.80    4.20
   0  -7  -5   35.50    4.50
   0  -7   5   33.40    4.50
   0  -7   5   32.60    4.90
   0  -7  -5   35.60    4.60
   0   7  -5   36.00    5.30
   0   7   5   39.40    4.40
   0   7   5   37.10    5.00
   0   7   5   37.60    4.60
   0   7   5   41.10    5.20
   0   7  -5   30.60    4.90
   1  -7   5   49.99    5.80
   1  -7   5   42.10    3.80
   1  -7   5   35.20    5.10
   1  -7   5   43.10    4.60
  -1  -7  -5   43.80    4.90
  -1  -7  -5   40.40    5.10
   1   7   5   40.30    5.00
   1   7   5   49.99    4.30
   1   7   5   47.10    5.20
   1   7   5   41.50    4.60
  -1   7  -5   44.90    5.80
   2  -7   5   -0.80    1.70
  -2  -7  -5    0.20    2.30
   2  -7   5   -1.20    1.20
  -2  -7  -5   -0.40    1.50
   2  -7   5    0.60    1.30
  -2   7  -5   -0.50    1.70
   2   7   5    1.70    2.00
   2   7   5   -0.90    1.70
   2   7   5    0.20    1.80
  -2   7  -5    1.70    2.00
  -3  -7  -5    4.10    1.90
   3  -7   5    0.60    1.20
  -3  -7  -5    0.60    2.20
  -3  -7  -5   -1.10    2.60
   3  -7   5    0.70    1.80
   3  -7   5    0.80    1.60
   3   7   5    3.80    3.10
   3   7   5   -1.30    1.60
  -3   7  -5    0.80    2.40
  -3   7  -5   -2.10    2.00
  -3   7  -5   -1.70    2.00
  -4  -7  -5    3.40    1.90
   4  -7   5    8.60    3.60
   4  -7   5    6.30    1.80
  -4  -7  -5    3.10    2.50
  -4  -7  -5    2.10    3.20
   4  -7   5    5.80    1.70
  -4   7  -5    4.70    2.50
  -4   7  -5    4.60    2.40
  -4   7  -5    4.70    2.80
   5  -7   5   14.90    2.60
  -5  -7  -5   18.10    3.60
  -5  -7  -5    9.90    2.90
  -5  -7  -5   18.00    4.60
  -5   7  -5   10.70    3.60
  -5   7  -5   14.90    3.70
   5   7   5   14.80    3.60
  -6  -8   5    1.30    3.30
  -6  -8   5   -3.90    3.20
  -6   8   5   -1.10    2.10
  -6   8   5    0.70    2.30
  -5  -8   5   -0.70    2.60
   5  -8  -5   -2.50    2.20
  -5  -8   5    1.70    3.00
   5   8  -5   -1.70    1.20
  -5   8   5   -2.20    2.60
  -5   8   5    2.20    2.70
  -4  -8   5    1.80    1.10
  -4  -8   5   -0.30    2.70
   4  -8  -5    3.20    2.20
  -4  -8   5   -0.30    2.90
  -4  -8   5    2.40    2.90
  -4   8   5    3.40    2.20
  -4   8   5    3.20    2.30
  -4   8   5   -0.80    2.40
   4   8  -5    1.30    1.20
   4   8  -5    0.50    3.50
  -3  -8   5   49.30    4.60
  -3  -8   5   65.89    7.00
  -3  -8   5   52.69    6.10
  -3  -8   5   41.00    5.80
   3  -8  -5   50.09    5.70
   3   8  -5   49.80    6.70
  -3   8   5   70.29    6.80
  -3   8   5   65.29    6.20
   3   8  -5   45.20    3.60
  -3   8   5   66.49    7.00
  -3   8   5   42.20    5.70
  -2  -8   5   53.69    6.50
  -2  -8   5   45.80    6.00
   2  -8  -5   52.09    3.60
   2  -8  -5   57.19    5.20
  -2  -8   5   51.29    5.00
  -2   8   5   49.30    5.70
   2   8  -5   31.10    8.00
   2   8  -5   51.29    5.20
  -2   8   5   52.49    6.30
   2   8  -5   45.00    3.90
  -2   8   5   56.39    6.40
  -1  -8   5   11.10    2.90
  -1  -8   5    8.40    2.40
  -1  -8   5    2.80    2.90
   1  -8  -5    9.20    2.90
  -1   8   5    4.20    2.50
  -1   8   5    6.60    2.20
  -1   8   5    7.30    2.80
   1   8  -5    7.50    2.30
   1   8  -5    7.80    3.30
   0  -8   5    0.00    1.60
   0  -8   5   -0.90    2.10
   0  -8  -5   -0.80    2.00
   0  -8   5    1.10    1.70
   0  -8   5    0.60    2.30
   0  -8  -5    1.90    2.40
   0   8  -5    2.00    2.10
   0   8   5   -0.40    1.60
   0   8   5   -1.20    1.30
   0   8   5    3.50    2.20
   0   8   5   -1.90    2.50
   1  -8   5   -1.40    1.50
   1  -8   5   -0.80    1.50
   1  -8   5    0.80    2.20
  -1  -8  -5   -1.40    2.70
   1  -8   5    1.40    1.30
  -1  -8  -5   -1.10    1.90
   1   8   5    3.60    2.40
  -1   8  -5   -1.50    1.90
   1   8   5    0.10    2.40
   1   8   5    1.40    1.30
  -2  -8  -5    2.80    2.80
   2  -8   5   -2.20    1.60
   2  -8   5    2.20    2.10
   2  -8   5    0.60    1.30
  -2  -8  -5   -0.20    2.60
  -2   8  -5    3.20    2.40
  -2   8  -5    2.60    2.90
   2   8   5    0.60    4.60
   2   8   5    2.20    1.40
  -3  -8  -5   -1.40    2.90
   3  -8   5   -0.70    1.70
   3  -8   5   -1.90    0.90
  -3  -8  -5   -0.40    2.20
   3   8   5    0.70    2.70
  -3   8  -5    4.40    3.70
  -3   8  -5    0.70    1.90
  -3   8  -5    1.00    2.60
   3   8   5   -0.60    2.00
  -4  -8  -5    1.50    2.50
   4  -8   5    4.00    2.00
  -4  -8  -5    3.00    3.80
  -4  -8  -5    3.20    2.40
  -4   8  -5    9.00    3.00
  -4   8  -5    4.90    3.30
   4   8   5   -0.10    2.10
  -5  -8  -5   -4.40    3.40
  -5  -8  -5   -2.20    2.50
  -5  -8  -5    2.80    2.40
   5  -8   5   -0.50    1.70
  -5   8  -5   -0.80    2.60
  -5   8  -5   -4.00    2.70
  -4  -9   5   21.40    4.10
  -4  -9   5   29.70    5.60
  -4  -9   5   25.00    3.30
   4   9  -5   18.40    2.50
  -4   9   5   13.30    4.10
  -4   9   5   21.20    4.20
  -4   9   5   24.20    4.30
  -3  -9   5    5.00    3.40
  -3  -9   5   -0.80    1.40
  -3  -9   5   -1.40    2.30
   3   9  -5   -3.10    1.20
  -3   9   5   -0.60    2.20
  -3   9   5    0.40    2.50
  -2  -9   5   16.50    3.20
   2  -9  -5   11.40    2.90
  -2  -9   5    6.60    2.10
   2  -9  -5   15.60    2.40
  -2  -9   5   17.90    4.70
   2  -9  -5   11.80    2.00
  -2   9   5   11.90    3.00
  -2   9   5    7.30    3.70
  -2   9   5   10.80    3.60
   2   9  -5    8.50    2.30
   2   9  -5    9.60    2.10
  -1  -9   5    6.10    2.30
  -1  -9   5    4.90    3.10
  -1  -9   5   11.70    3.30
   1  -9  -5   10.90    4.60
  -1  -9   5   12.50    3.30
   1  -9  -5    8.90    2.10
   1   9  -5    9.60    2.70
  -1   9   5    8.40    2.70
  -1   9   5   14.50    3.20
  -1   9   5    4.30    3.10
  -1   9   5    9.80    2.70
   1   9  -5    8.00    1.90
   0  -9   5   11.20    2.90
   0  -9  -5    8.20    3.00
   0  -9   5    7.50    2.20
   0  -9   5    9.20    3.50
   0  -9   5    8.30    2.80
   0   9   5    5.30    3.90
   0   9  -5    8.30    2.00
   0   9  -5    4.50    3.70
   0   9   5    2.70    2.60
   0   9   5    3.60    2.50
   0   9   5    6.50    2.30
  -1  -9  -5    0.00    2.40
   1  -9   5   -2.30    1.70
   1  -9   5    6.30    2.50
   1  -9   5    0.90    1.50
   1   9   5    1.00    1.60
  -1   9  -5    0.90    2.10
   1   9   5    1.60    2.40
   1   9   5   -2.60    1.90
   1   9   5   -5.10    2.60
   2  -9   5    8.40    2.60
   2  -9   5    9.40    2.00
  -2  -9  -5    9.70    3.80
  -2   9  -5    5.30    2.90
   2   9   5    6.40    1.70
   2   9   5    4.80    2.70
   3  -9   5    1.30    2.30
  -3  -9  -5    3.70    3.50
  -3   9  -5    3.40    2.50
  -3   9  -5    1.40    2.70
  -4  -9  -5    5.50    4.10
  -3 -10   5   -1.20    2.40
  -3 -10   5    3.10    3.70
  -3  10   5    2.10    2.60
  -3  10   5    4.50    3.10
  -2 -10   5   -3.40    1.60
   2 -10  -5    3.30    2.10
  -2 -10   5    3.10    3.10
   2 -10  -5   -1.50    1.20
  -2 -10   5   -4.30    2.00
  -2  10   5   -1.70    2.10
  -2  10   5   -2.30    2.30
   2  10  -5    0.70    2.00
  -1 -10   5    1.10    2.60
  -1 -10   5    0.20    1.90
   1 -10  -5    2.70    2.50
   1 -10  -5    2.70    1.90
  -1  10   5    1.50    2.10
  -1  10   5   -4.40    2.90
  -1  10   5   -1.90    2.60
   1  10  -5   -2.10    2.10
   0 -10   5   -2.40    1.80
   0 -10   5   -2.40    1.60
   0 -10  -5    2.40    2.90
   0 -10   5    0.90    2.60
   0  10  -5   -3.80    2.00
   0  10   5   -0.30    2.50
   0  10  -5    0.20    1.50
   0  10   5   -3.30    2.10
   1 -10   5   -1.50    1.60
  -1 -10  -5   -0.20    2.80
  -1  10  -5   -4.60    2.10
   1  10   5    2.20    1.90
  -2 -10  -5    3.80    2.80
   2 -10   5    3.70    1.90
  -2  10  -5    3.30    3.00
   2  10   5    1.80    1.80
  -8   0   6   -0.60    1.70
  -8   0   6   -0.80    1.80
  -8   0   6   -0.50    1.50
  -8   0   6    1.80    1.80
  -8   0   6   -2.80    2.00
  -7   0   6    1.70    1.50
  -7   0   6    0.50    1.90
  -7   0   6   -1.10    1.30
  -7   0   6   -0.10    1.30
  -7   0   6    0.10    1.60
  -6   0   6  118.69    6.40
  -6   0   6  127.49    5.90
  -6   0   6  134.59    6.20
  -6   0   6  125.89    6.70
  -6   0   6  129.79    7.40
  -5   0   6   42.40    4.40
  -5   0   6   38.50    3.50
  -5   0   6   38.90    3.50
  -5   0   6   38.80    3.90
  -5   0   6   36.70    3.20
  -4   0   6  233.98    6.70
  -4   0   6  230.18    8.10
  -4   0   6  230.78    7.50
  -3   0   6  179.08    4.70
  -3   0   6  174.38    6.60
  -3   0   6  174.98    5.90
   3   0  -6  183.88    6.10
  -2   0   6    8.80    1.70
   2   0  -6   13.30    1.80
  -2   0   6    8.70    1.30
  -2   0   6    8.40    1.20
  -1   0   6 1772.62   31.80
  -1   0   6 1686.63   30.40
   1   0  -6 1766.72   30.50
  -1   0   6 1680.33   32.10
   1   0  -6 1718.43   31.60
   1   0  -6 1680.43   30.20
   0   0   6   30.00    2.50
   0   0   6   32.10    2.60
   0   0  -6   33.00    2.50
   0   0   6   33.90    2.40
   0   0   6   30.60    3.20
   0   0  -6   30.40    2.50
   1   0   6 2123.89   40.90
   1   0   6 2063.89   39.30
   1   0   6 2094.39   38.70
  -1   0  -6 2087.09   38.70
   1   0   6 2144.69   37.80
  -1   0  -6 2163.28   38.60
  -2   0  -6  975.80   20.50
  -2   0  -6  944.91   20.00
   2   0   6  948.21   20.60
   2   0   6  977.80   18.00
   2   0   6  949.31   20.50
  -3   0  -6  525.55   13.80
   3   0   6  481.65   17.70
  -3   0  -6  530.25   13.10
   3   0   6  528.35   13.70
  -3   0  -6  532.95   13.80
   4   0   6  178.18    7.60
  -4   0  -6  173.58    7.90
  -4   0  -6  148.79    7.60
  -4   0  -6  180.88    7.70
   4   0   6  171.18    7.90
  -5   0  -6   16.60    2.80
   5   0   6   12.40    3.60
  -5   0  -6   15.90    2.70
  -5   0  -6   18.40    2.80
   5   0   6   19.40    3.40
   6   0   6   31.00    4.40
  -6   0  -6   42.50    4.50
  -6   0  -6   47.40    5.80
   6   0   6   42.20    4.80
  -6   0  -6   46.30    5.30
   7   0   6  161.78    8.80
  -7   0  -6  142.69    8.40
  -7   0  -6  154.78    7.90
  -7   0  -6  169.98   10.10
  -8  -1   6   -0.10    2.50
  -8  -1   6    0.90    1.90
  -8  -1   6    4.20    1.90
  -8  -1   6    2.60    1.70
  -8  -1   6    3.70    2.40
  -8   1   6    0.90    1.90
  -8   1   6    4.70    2.30
  -8   1   6    0.10    2.50
  -8   1   6    3.90    1.60
  -8   1   6    1.40    1.80
  -7  -1   6    7.70    2.60
  -7  -1   6    8.80    2.40
  -7  -1   6    5.50    1.90
  -7  -1   6    7.60    2.10
  -7  -1   6    7.10    1.90
  -7   1   6    5.50    2.10
  -7   1   6    9.40    1.80
  -7   1   6    8.30    2.30
  -7   1   6    6.30    2.50
  -7   1   6    5.70    1.90
  -6  -1   6    0.80    1.40
  -6  -1   6   -0.10    1.70
  -6  -1   6    3.70    2.30
  -6  -1   6   -0.80    1.70
  -6  -1   6    1.60    1.30
  -6   1   6    1.20    1.70
  -6   1   6    0.80    1.60
  -6   1   6    3.00    1.70
  -6   1   6   -1.40    1.80
  -6   1   6    0.10    1.40
  -5  -1   6   34.50    3.70
  -5  -1   6   28.50    2.80
  -5  -1   6   32.60    4.00
  -5  -1   6   35.30    3.90
  -5   1   6   33.10    3.30
  -5   1   6   34.90    3.70
  -5   1   6   26.80    4.40
  -4  -1   6   -0.50    1.30
  -4  -1   6    2.50    1.50
   4  -1  -6    2.00    1.30
  -4  -1   6    0.20    1.40
  -4  -1   6    0.90    0.80
  -4   1   6    0.80    1.00
  -4   1   6    1.90    1.30
  -4   1   6    2.00    1.10
   3  -1  -6    2.40    1.20
   3  -1  -6    0.20    1.10
  -3  -1   6   -0.10    1.10
  -3  -1   6   -0.20    1.10
   3   1  -6   -0.40    0.90
   3   1  -6    0.90    1.20
  -3   1   6    4.20    1.50
  -3   1   6    0.50    0.90
   2  -1  -6 1052.59   20.20
  -2  -1   6 1026.10   21.20
  -2  -1   6 1024.00   18.20
   2  -1  -6 1042.60   21.50
  -2  -1   6 1023.10   19.50
  -2   1   6 1038.80   20.10
  -2   1   6 1038.70   19.90
   2   1  -6 1031.40   21.00
   2   1  -6 1046.70   19.60
   1  -1  -6 1221.98   23.40
   1  -1  -6 1258.27   23.10
  -1  -1   6 1234.18   23.80
  -1  -1   6 1227.48   22.00
   1  -1  -6 1232.78   24.30
  -1  -1   6 1184.98   24.60
   1   1  -6 1246.88   21.80
   1   1  -6 1222.08   23.80
  -1   1   6 1226.78   23.10
  -1   1   6 1226.88   24.20
   1   1  -6 1239.18   23.00
  -1   1   6 1214.88   23.40
   0  -1   6 2720.93   48.40
   0  -1  -6 2704.23   48.40
   0  -1   6 2693.93   47.50
   0  -1  -6 2726.13   48.00
   0  -1  -6 2672.93   48.40
   0  -1   6 2690.63   49.50
   0   1  -6 2696.53   48.40
   0   1  -6 2715.13   47.30
   0   1   6 2753.52   48.50
   0   1   6 2712.23   48.50
   0   1  -6 2764.42   48.50
   0   1   6 2742.23   48.20
   1  -1   6  106.39    4.00
  -1  -1  -6  107.49    4.60
   1  -1   6  109.59    5.30
  -1  -1  -6  114.59    7.20
   1  -1   6  110.69    4.60
  -1  -1  -6  109.59    4.20
   1  -1   6  114.19    4.80
  -1   1  -6  105.59    4.40
   1   1   6  109.29    4.80
   1   1   6  114.99    4.80
  -1   1  -6  109.89    4.60
   1   1   6  111.09    5.00
   1   1   6  114.79    4.20
  -2  -1  -6  593.04   14.20
  -2  -1  -6  606.84   12.60
   2  -1   6  622.74   14.10
   2  -1   6  609.64   15.20
  -2  -1  -6  626.54   14.60
   2  -1   6  610.24   12.20
   2  -1   6  587.84   14.50
  -2   1  -6  577.34   13.70
   2   1   6  612.14   14.20
  -2   1  -6  617.74   15.30
  -2   1  -6  627.54   14.50
   2   1   6  613.04   12.50
   2   1   6  584.64   14.50
   3  -1   6   61.39    4.70
  -3  -1  -6   59.99    4.10
  -3  -1  -6   58.59    4.60
  -3  -1  -6   58.19    2.60
  -3   1  -6   57.19    5.10
  -3   1  -6   56.69    4.60
   3   1   6   58.59    5.30
   3   1   6   59.89    2.50
  -3   1  -6   57.19    3.70
   3   1   6   60.89    4.10
   4  -1   6   -1.40    1.40
  -4  -1  -6    0.10    1.50
   4  -1   6    0.30    1.50
  -4  -1  -6    0.50    1.40
  -4  -1  -6    0.00    1.70
  -4   1  -6    0.70    1.70
   4   1   6   -0.90    1.00
  -4   1  -6    1.70    1.70
   4   1   6    1.00    1.50
  -4   1  -6    0.60    1.20
  -5  -1  -6   10.60    2.90
  -5  -1  -6    8.60    2.50
   5  -1   6    7.60    2.20
  -5  -1  -6    9.00    2.10
  -5   1  -6    7.30    2.40
   5   1   6    7.50    2.20
   5   1   6    6.10    1.70
  -5   1  -6    8.50    2.50
  -5   1  -6   10.00    2.10
  -6  -1  -6   23.90    5.20
   6  -1   6   27.50    4.50
  -6  -1  -6   20.40    3.40
  -6  -1  -6   19.30    3.60
  -6  -1  -6   16.90    2.70
   6   1   6   21.50    3.70
  -6   1  -6   21.50    4.10
  -6   1  -6   25.20    3.50
   6   1   6   27.80    3.90
  -6   1  -6   12.20    2.80
  -7  -1  -6    3.60    2.60
  -7  -1  -6    3.50    3.50
  -7  -1  -6    4.40    2.10
   7  -1   6    5.70    2.50
  -7  -1  -6   14.40    3.10
  -7   1  -6    5.20    3.10
  -7   1  -6    4.30    1.90
  -7   1  -6    5.10    2.50
   7   1   6    0.00    1.80
  -8  -2   6   94.29    5.90
  -8  -2   6  111.69    7.10
  -8  -2   6  115.99   10.10
  -8  -2   6  107.79    6.50
  -8  -2   6   96.19    7.00
  -8   2   6  105.19    4.70
  -8   2   6   90.29    6.80
  -8   2   6  118.09    8.10
  -8   2   6  105.69    6.50
  -8   2   6  113.39    8.80
  -7  -2   6   12.00    2.90
  -7  -2   6    9.50    2.60
  -7  -2   6   11.20    2.10
  -7  -2   6   11.70    3.20
  -7  -2   6   11.40    2.10
  -7   2   6   14.00    2.60
  -7   2   6    9.50    2.70
  -7   2   6   14.00    2.90
  -7   2   6   11.90    2.90
  -7   2   6   13.90    2.20
  -6  -2   6  394.96   13.10
  -6  -2   6  422.86   13.70
  -6  -2   6  424.56   12.60
  -6  -2   6  411.96   13.20
  -6  -2   6  419.46   13.10
  -6   2   6  413.56   12.60
  -6   2   6  391.16   10.00
  -6   2   6  420.46   15.20
  -6   2   6  405.66   11.90
  -5  -2   6  141.29    6.80
  -5  -2   6  142.39    4.80
  -5  -2   6  139.49    6.80
  -5   2   6  145.59    8.20
  -5   2   6  141.99    5.70
  -5   2   6  137.49    4.80
  -5   2   6  143.39    6.70
   4  -2  -6   34.00    3.50
  -4  -2   6   31.90    3.70
   4  -2  -6   31.00    2.70
  -4  -2   6   28.90    3.60
  -4  -2   6   34.70    2.00
  -4   2   6   34.90    4.70
  -4   2   6   28.60    2.40
  -4   2   6   35.10    3.60
   4   2  -6   33.90    3.50
   3  -2  -6  195.18    5.60
   3  -2  -6  187.28    7.10
  -3  -2   6  189.88    6.60
  -3  -2   6  187.38    6.90
   3   2  -6  185.08    7.00
   3   2  -6  194.18    6.70
  -3   2   6  187.08    5.40
  -3   2   6  183.58    6.90
  -2  -2   6    5.80    1.50
   2  -2  -6    6.50    1.20
  -2  -2   6    6.50    1.70
   2  -2  -6    8.80    1.80
  -2  -2   6    6.00    1.60
  -2   2   6    6.10    1.30
  -2   2   6    4.80    1.50
   2   2  -6    5.30    1.40
   2   2  -6    7.40    1.60
  -2   2   6    4.10    1.50
   1  -2  -6  132.89    5.40
  -1  -2   6  130.39    5.60
   1  -2  -6  130.19    4.60
   1  -2  -6  130.59    3.70
  -1  -2   6  125.79    5.00
   1   2  -6  128.29    5.20
   1   2  -6  127.59    5.00
  -1   2   6  133.59    5.10
   1   2  -6  134.39    3.50
  -1   2   6  128.59    4.70
   0  -2   6  254.07    6.60
   0  -2  -6  246.88    7.40
   0  -2   6  249.88    8.10
   0  -2   6  254.07    8.40
   0  -2  -6  246.98    7.20
   0  -2  -6  246.28   10.90
   0  -2  -6  253.87    7.10
   0   2  -6  246.68    7.20
   0   2  -6  251.77    9.60
   0   2   6  249.08    7.40
   0   2  -6  251.17    6.50
   0   2   6  249.88    7.50
   0   2  -6  245.28    7.60
  -1  -2  -6   51.59    3.90
  -1  -2  -6   54.39    3.90
   1  -2   6   49.00    4.00
  -1  -2  -6   50.09    3.20
  -1  -2  -6   46.30    3.30
   1  -2   6   44.90    3.40
  -1   2  -6   47.60    3.30
  -1   2  -6   56.19    4.60
   1   2   6   54.39    3.70
   1   2   6   51.79    3.20
  -1   2  -6   50.69    3.20
   2  -2   6  241.88    8.90
  -2  -2  -6  240.38    8.10
   2  -2   6  226.48    7.90
  -2  -2  -6  223.98    7.80
  -2  -2  -6  233.38    6.80
  -2  -2  -6  234.28    8.90
   2  -2   6  243.28    7.40
  -2   2  -6  240.48    9.00
   2   2   6  240.48    7.50
   2   2   6  234.08    6.70
  -2   2  -6  229.48    7.20
  -2   2  -6  243.18    8.10
   2   2   6  239.48    8.10
  -3  -2  -6  402.06   13.20
  -3  -2  -6  399.36   11.80
  -3  -2  -6  396.96    9.40
   3  -2   6  393.86   13.40
   3  -2   6  416.86   10.80
  -3  -2  -6  383.46   11.40
   3  -2   6  393.36    8.20
   3   2   6  377.86   11.70
   3   2   6  394.76   10.40
   3   2   6  401.66    9.30
  -3   2  -6  401.86   10.50
  -3   2  -6  401.06   12.00
  -3   2  -6  406.26   12.70
  -4  -2  -6    5.70    2.30
  -4  -2  -6    4.40    1.60
   4  -2   6    5.30    1.90
  -4  -2  -6    4.40    2.10
  -4  -2  -6    5.70    1.10
   4   2   6    7.70    1.60
  -4   2  -6    7.20    2.40
  -4   2  -6    4.80    1.60
   4   2   6    4.80    1.90
  -4   2  -6    4.40    2.10
   5  -2   6    3.30    1.70
  -5  -2  -6    3.00    1.90
  -5  -2  -6    0.30    2.10
  -5  -2  -6    2.60    2.20
   5   2   6    3.10    1.30
  -5   2  -6    3.10    2.20
  -5   2  -6    1.90    1.90
   5   2   6    5.60    2.00
  -5   2  -6    2.20    2.10
  -6  -2  -6   13.60    2.80
  -6  -2  -6   17.40    3.40
   6  -2   6   14.90    3.00
  -6  -2  -6   12.70    3.50
   6   2   6   20.40    3.40
  -6   2  -6   14.20    2.60
   6   2   6   12.10    3.10
  -6   2  -6   13.50    3.20
  -6   2  -6   13.80    3.10
  -7  -2  -6   13.10    3.60
  -7  -2  -6   19.00    3.70
   7  -2   6   25.10    5.10
  -7  -2  -6   17.30    3.60
  -7   2  -6   16.90    2.70
  -7   2  -6   17.00    3.90
  -7   2  -6   12.80    3.50
   7   2   6   15.00    2.50
  -8  -3   6  115.59    8.40
  -8  -3   6  122.59    8.80
  -8  -3   6  107.89    6.10
  -8  -3   6  117.49    5.70
  -8  -3   6  122.89    7.90
  -8   3   6  115.69    7.40
  -8   3   6  126.09    8.60
  -8   3   6  119.99    9.60
  -8   3   6  113.69    6.90
  -7  -3   6    8.10    1.70
  -7  -3   6    6.10    2.90
  -7  -3   6    8.80    2.00
  -7  -3   6    9.30    2.60
  -7  -3   6    9.60    3.50
  -7   3   6    7.60    2.40
  -7   3   6    4.90    2.30
  -7   3   6    8.30    2.30
  -6  -3   6    2.60    2.30
  -6  -3   6    1.50    1.40
  -6  -3   6    0.60    1.30
  -6  -3   6   -0.30    2.50
  -6   3   6   -0.30    2.00
  -6   3   6   -0.20    1.50
  -6   3   6    5.30    1.80
  -5  -3   6  138.29    7.30
  -5  -3   6  137.79    7.10
   5  -3  -6  144.59    7.00
  -5  -3   6  144.49    4.40
  -5   3   6  142.19    6.90
  -5   3   6  135.59    8.30
   5   3  -6  129.19   11.00
  -5   3   6  147.09    5.60
  -4  -3   6   29.10    4.10
   4  -3  -6   28.90    2.50
   4  -3  -6   28.30    4.00
  -4  -3   6   34.40    3.60
  -4  -3   6   35.00    4.00
  -4   3   6   26.70    2.60
  -4   3   6   29.20    4.50
   4   3  -6   30.50    3.90
  -4   3   6   32.90    3.80
  -4   3   6   27.50    2.10
  -3  -3   6  611.24   14.90
  -3  -3   6  598.04   15.10
  -3  -3   6  592.64   14.20
   3  -3  -6  603.54   12.40
   3  -3  -6  607.24   15.40
   3   3  -6  610.74   15.10
  -3   3   6  602.84   12.50
  -3   3   6  619.94   15.40
  -3   3   6  600.44   17.00
  -2  -3   6  330.87   10.90
   2  -3  -6  337.17    7.40
   2  -3  -6  332.47    8.10
  -2  -3   6  336.47    9.60
  -2   3   6  341.97   10.10
  -2   3   6  338.07    8.30
   2   3  -6  338.17   10.00
  -2   3   6  332.27    9.30
   2   3  -6  338.57    9.70
  -1  -3   6 1489.55   28.90
  -1  -3   6 1549.14   31.20
  -1  -3   6 1444.26   29.20
   1  -3  -6 1484.85   27.00
   1  -3  -6 1460.85   27.70
   1  -3  -6 1508.75   29.50
   1   3  -6 1475.25   29.60
  -1   3   6 1474.55   29.40
  -1   3   6 1464.15   28.50
  -1   3   6 1444.46   27.30
   1   3  -6 1454.75   29.00
   1   3  -6 1475.55   26.00
   1   3  -6 1446.06   29.10
   0  -3   6  160.18    6.70
   0  -3   6  164.38    6.00
   0  -3  -6  158.88    6.30
   0  -3  -6  168.18    5.90
   0  -3  -6  169.98    5.90
   0  -3  -6  173.78    6.30
   0   3  -6  162.78    6.50
   0   3  -6  160.58    6.90
   0   3  -6  170.08    5.30
   0   3   6  164.08    6.20
   0   3  -6  170.88    6.10
   0   3   6  169.58    6.40
  -1  -3  -6  223.18    7.70
  -1  -3  -6  212.48    8.10
   1  -3   6  216.38    6.90
   1  -3   6  219.08    8.40
  -1  -3  -6  212.08    7.30
  -1  -3  -6  221.98    7.20
  -1   3  -6  219.98    8.10
   1   3   6  223.68    7.20
   1   3   6  230.18    7.60
  -1   3  -6  216.58    8.40
  -1   3  -6  221.38    7.00
  -2  -3  -6   87.19    4.20
  -2  -3  -6   86.79    5.60
  -2  -3  -6   78.89    5.50
  -2  -3  -6   93.89    5.40
   2  -3   6   85.49    4.30
  -2   3  -6   83.39    5.50
   2   3   6   91.59    6.70
  -2   3  -6   85.19    4.20
   2   3   6   86.49    4.40
   2   3   6   87.79    5.20
  -2   3  -6   88.39    4.90
  -2   3  -6   85.69    5.90
   3  -3   6    3.20    1.00
  -3  -3  -6    2.50    1.90
   3  -3   6    5.40    1.90
   3  -3   6    3.50    1.40
  -3  -3  -6    2.90    1.80
  -3  -3  -6    2.80    2.10
  -3  -3  -6    3.10    1.20
  -3   3  -6    1.10    1.50
   3   3   6    3.80    1.40
   3   3   6    4.00    1.60
  -3   3  -6    3.10    1.80
   3   3   6    2.00    1.10
  -3   3  -6    2.80    1.40
  -4  -3  -6   63.19    6.30
  -4  -3  -6   75.19    5.80
   4  -3   6   64.89    5.70
  -4  -3  -6   64.69    5.30
  -4  -3  -6   58.99    3.60
  -4   3  -6   67.09    5.80
   4   3   6   65.19    3.70
  -4   3  -6   65.09    6.20
  -4   3  -6   59.59    3.90
   4   3   6   65.69    5.30
   5  -3   6  123.39    8.30
  -5  -3  -6  133.99    7.80
  -5  -3  -6  132.39    7.40
  -5  -3  -6  134.59   11.60
  -5  -3  -6  124.29    4.70
  -5   3  -6  126.89    8.40
  -5   3  -6  117.09    5.50
   5   3   6  104.99    7.10
  -5   3  -6  131.29    9.70
   5   3   6  126.39    5.20
  -6  -3  -6   64.59    6.10
  -6  -3  -6   47.30    6.70
  -6  -3  -6   55.59    6.40
   6   3   6   47.30    6.40
  -6   3  -6   62.69    7.00
  -6   3  -6   50.29    6.40
   6   3   6   57.69    3.70
  -6   3  -6   55.69    4.20
  -7  -3  -6   11.80    3.60
   7  -3   6    7.40    3.90
  -7  -3  -6   10.40    4.60
  -7   3  -6   14.00    2.40
  -7   3  -6   11.40    3.60
  -7   3  -6   10.30    3.20
  -8  -4   6    6.60    2.10
  -8  -4   6   10.30    3.50
  -8  -4   6   11.30    3.40
  -8  -4   6   12.40    3.20
  -8   4   6   11.40    3.20
  -8   4   6   13.30    2.80
  -8   4   6   16.90    3.50
  -7  -4   6    1.70    1.40
  -7  -4   6    0.60    2.30
  -7  -4   6    3.20    1.10
  -7  -4   6    0.30    1.20
  -7  -4   6    5.80    4.00
  -7   4   6    1.40    2.10
  -7   4   6    4.20    1.90
  -7   4   6    1.30    1.70
   6  -4  -6   -0.80    1.40
  -6  -4   6    1.70    1.20
  -6  -4   6   -3.00    3.00
  -6  -4   6   -0.20    1.10
  -6  -4   6   -1.60    2.00
  -6  -4   6   -0.50    1.00
  -6   4   6   -0.80    2.30
  -6   4   6    2.10    1.50
  -6   4   6   -0.60    1.60
  -5  -4   6    5.50    1.40
  -5  -4   6    4.70    2.10
  -5  -4   6    5.90    2.50
   5  -4  -6    6.20    1.90
  -5   4   6    5.70    2.20
  -5   4   6    5.20    2.00
   5   4  -6    9.30    2.80
  -5   4   6    9.50    2.00
   4  -4  -6   57.69    4.80
  -4  -4   6   61.39    4.20
  -4  -4   6   65.99    5.60
  -4  -4   6   60.29    5.00
  -4   4   6   59.39    3.60
  -4   4   6   64.19    6.10
  -4   4   6   66.99    5.10
   4   4  -6   61.59    5.30
   3  -4  -6   63.59    2.90
   3  -4  -6   68.49    5.00
  -3  -4   6   66.59    4.30
  -3  -4   6   56.99    5.00
  -3  -4   6   62.19    4.90
   3   4  -6   60.29    4.90
  -3   4   6   67.29    3.50
  -3   4   6   71.29    5.10
  -3   4   6   68.69    5.90
  -2  -4   6  753.52   17.40
  -2  -4   6  747.03   17.80
   2  -4  -6  778.02   15.80
  -2  -4   6  771.52   18.30
   2  -4  -6  759.02   15.50
   2  -4  -6  791.62   18.60
  -2   4   6  748.53   17.40
  -2   4   6  744.23   19.60
   2   4  -6  777.02   18.30
  -2   4   6  735.13   15.60
  -2   4   6  782.22   18.40
   2   4  -6  752.82   18.10
   1  -4  -6  233.28    7.00
  -1  -4   6  229.28    7.80
   1  -4  -6  228.48    6.90
  -1  -4   6  221.48    8.50
   1  -4  -6  226.78    8.20
  -1  -4   6  227.38    8.20
  -1   4   6  225.68    7.80
   1   4  -6  241.28    8.50
  -1   4   6  231.68    8.30
   1   4  -6  225.88    8.00
   1   4  -6  237.78    8.50
   1   4  -6  228.18    6.00
  -1   4   6  224.18    7.10
   0  -4  -6  143.79    6.20
   0  -4  -6  143.19    5.60
   0  -4  -6  148.79    7.00
   0  -4  -6  145.09    6.20
   0  -4   6  144.89    6.80
   0  -4   6  147.79    6.80
   0  -4   6  143.59    5.80
   0   4  -6  142.39    5.20
   0   4   6  145.39    6.30
   0   4  -6  140.39    5.90
   0   4   6  143.79    6.00
   0   4   6  137.39    6.10
   0   4  -6  140.29    6.60
   0   4  -6  149.88    7.00
   1  -4   6   92.69    4.40
   1  -4   6   85.69    6.00
  -1  -4  -6   90.29    5.40
  -1  -4  -6   83.39    4.70
  -1  -4  -6   89.49    5.40
  -1  -4  -6   84.09    4.70
  -1   4  -6   88.39    6.20
   1   4   6   82.29    5.20
  -1   4  -6   83.39    4.40
  -1   4  -6   88.29    5.90
   1   4   6   86.19    5.90
   1   4   6   81.89    4.80
  -1   4  -6   86.59    4.70
   2  -4   6   70.99    4.00
  -2  -4  -6   68.09    5.30
  -2  -4  -6   65.49    5.20
  -2  -4  -6   69.09    4.20
   2  -4   6   66.89    5.50
   2  -4   6   60.39    3.80
  -2   4  -6   71.19    5.80
   2   4   6   66.29    4.80
  -2   4  -6   69.89    3.90
   2   4   6   68.89    4.40
  -2   4  -6   67.39    5.10
  -2   4  -6   74.49    4.90
   3  -4   6    3.70    1.70
  -3  -4  -6    4.20    1.70
   3  -4   6    4.60    1.60
  -3  -4  -6    4.60    2.50
   3  -4   6    5.30    1.40
  -3  -4  -6    3.60    2.00
  -3   4  -6    5.60    1.70
   3   4   6    3.50    1.30
  -3   4  -6    4.20    2.00
   3   4   6    3.60    1.70
  -3   4  -6    4.00    2.00
  -3   4  -6    4.90    2.00
   3   4   6    3.10    1.50
  -4  -4  -6    4.20    1.70
  -4  -4  -6   10.00    3.60
   4  -4   6    8.30    1.40
   4  -4   6    8.50    2.60
  -4  -4  -6    4.40    2.50
  -4   4  -6    5.00    1.50
  -4   4  -6    8.90    2.60
  -4   4  -6   12.50    3.20
   4   4   6    6.20    1.20
   4   4   6    6.40    2.30
  -4   4  -6    4.70    2.30
  -5  -4  -6  116.89    5.30
  -5  -4  -6  125.39    9.10
  -5  -4  -6  118.19    8.40
  -5   4  -6  131.99    8.20
  -5   4  -6  118.19    5.30
  -5   4  -6  121.59    9.50
  -6  -4  -6    0.70    1.20
   6  -4   6    4.90    2.60
  -6  -4  -6   -1.20    3.10
  -6  -4  -6    2.90    2.90
  -6   4  -6   -0.20    2.30
  -6   4  -6    3.00    1.80
  -6   4  -6    2.20    2.60
   6   4   6   -2.30    2.20
  -7  -4  -6   19.50    5.20
  -7  -4  -6   15.60    3.80
  -7   4  -6   15.10    3.80
  -7   4  -6   19.80    2.60
  -7   4  -6   23.30    4.50
  -7  -5   6   23.80    4.60
   7  -5  -6   21.40    3.40
  -7  -5   6   28.20    3.00
  -7  -5   6   22.30    5.00
  -7   5   6   33.00    4.70
  -7   5   6   24.90    4.40
  -7   5   6   26.10    4.00
  -6  -5   6   77.69    8.60
   6  -5  -6   63.29    5.70
  -6  -5   6   70.39    3.60
  -6  -5   6   66.69    6.50
  -6   5   6   63.49    4.90
  -6   5   6   77.29    7.60
  -6   5   6   76.99    6.10
   6   5  -6   68.79    7.60
  -5  -5   6   93.69    4.50
  -5  -5   6   94.69    7.20
   5  -5  -6  102.09    6.40
  -5  -5   6   99.69    7.20
   5   5  -6   97.39    7.30
  -5   5   6   88.09    5.10
  -5   5   6  102.19    8.90
  -5   5   6   99.19    6.40
  -4  -5   6  160.38    6.40
  -4  -5   6  175.88    8.70
   4  -5  -6  180.78    8.20
  -4  -5   6  175.58    8.50
  -4   5   6  174.38    6.60
  -4   5   6  175.08    8.20
   4   5  -6  168.68    8.70
  -4   5   6  168.88    9.70
  -3  -5   6    1.30    2.10
   3  -5  -6    2.90    1.50
  -3  -5   6    1.70    1.60
   3  -5  -6    2.70    1.00
  -3  -5   6    1.40    1.20
  -3   5   6    3.80    1.70
   3   5  -6    2.40    1.90
  -3   5   6    1.20    1.70
  -3   5   6    1.20    1.60
   2  -5  -6   83.79    3.80
  -2  -5   6   83.99    5.10
   2  -5  -6   82.79    5.30
  -2  -5   6   78.89    5.70
  -2  -5   6   75.49    5.10
   2  -5  -6   84.09    4.40
   2   5  -6   77.09    5.60
  -2   5   6   82.79    5.50
  -2   5   6   77.39    4.50
  -2   5   6   82.79    5.30
   2   5  -6   84.29    5.40
   2   5  -6   83.79    3.00
  -2   5   6   87.99    6.30
   1  -5  -6  113.39    5.60
  -1  -5   6  114.99    5.70
  -1  -5   6  116.59    6.30
   1  -5  -6  114.79    4.90
   1  -5  -6  119.49    6.20
  -1  -5   6  116.59    6.60
   1   5  -6  113.49    6.30
  -1   5   6  121.09    6.80
   1   5  -6  118.09    6.50
  -1   5   6  112.99    5.90
  -1   5   6  116.79    5.60
  -1   5   6  108.39    6.10
   0  -5  -6   38.90    3.90
   0  -5  -6   39.90    4.00
   0  -5   6   39.70    4.40
   0  -5   6   33.90    5.80
   0  -5  -6   33.20    3.20
   0  -5   6   42.50    3.60
   0   5  -6   44.20    4.80
   0   5   6   36.00    3.90
   0   5   6   30.10    3.90
   0   5  -6   41.80    4.40
   0   5   6   40.10    4.10
   0   5   6   37.80    4.10
   0   5  -6   38.90    3.80
   1  -5   6   77.79    4.90
   1  -5   6   83.49    6.20
  -1  -5  -6   80.39    5.20
   1  -5   6   82.79    4.50
  -1  -5  -6   81.29    5.60
  -1  -5  -6   82.99    5.50
   1   5   6   87.49    5.50
   1   5   6   79.99    5.70
  -1   5  -6   79.29    5.70
  -1   5  -6   75.09    6.10
  -1   5  -6   78.09    4.60
   1   5   6   80.79    5.30
  -1   5  -6   81.89    5.00
   1   5   6   79.69    5.00
   2  -5   6  179.38    6.50
  -2  -5  -6  179.28    8.60
  -2  -5  -6  180.18    8.30
   2  -5   6  173.98    6.80
  -2  -5  -6  168.28    7.30
   2  -5   6  171.48    8.80
  -2   5  -6  180.18    9.20
   2   5   6  176.88    6.70
   2   5   6  164.58    7.60
  -2   5  -6  171.38    6.60
   2   5   6  174.88    7.60
  -2   5  -6  167.58    8.40
  -2   5  -6  174.48    7.70
   3  -5   6   34.20    3.10
   3  -5   6   32.00    3.20
  -3  -5  -6   28.90    4.90
  -3  -5  -6   21.90    3.40
  -3  -5  -6   28.20    3.90
   3   5   6   23.60    3.10
  -3   5  -6   32.00    3.20
  -3   5  -6   18.40    3.20
  -3   5  -6   18.20    3.00
   3   5   6   31.10    2.80
   3   5   6   22.10    3.30
  -3   5  -6   30.70    5.00
   3   5   6   26.60    2.80
  -4  -5  -6   76.59    5.00
  -4  -5  -6   87.99    7.00
  -4  -5  -6   75.39    9.10
   4  -5   6   77.49    4.20
  -4   5  -6   64.99    4.10
  -4   5  -6   81.69   11.00
  -4   5  -6   83.49    6.60
   4   5   6   71.99    6.20
  -4   5  -6   72.49    6.40
   5  -5   6    6.90    2.80
   5  -5   6    9.10    1.50
  -5  -5  -6    7.60    3.10
  -5  -5  -6    8.90    2.30
  -5  -5  -6   10.10    3.10
  -5   5  -6   16.30    4.20
  -5   5  -6    8.20    1.80
  -5   5  -6    7.50    3.00
  -5   5  -6    8.80    3.00
   5   5   6    8.50    2.90
  -6  -5  -6   18.50    4.60
  -6  -5  -6   14.20    3.40
  -6   5  -6   11.30    3.60
  -6   5  -6   16.20    2.10
  -6   5  -6   26.00    5.00
  -7  -6   6   -2.20    3.10
  -7  -6   6    1.50    2.90
   7  -6  -6   -1.30    2.70
  -7   6   6   -1.00    2.00
  -7   6   6    0.70    2.40
  -7   6   6   -1.40    2.00
  -6  -6   6    3.10    3.10
  -6  -6   6   -0.80    2.80
  -6   6   6    5.80    3.40
  -6   6   6   -0.60    1.90
   6   6  -6    3.90    3.30
  -6   6   6   -0.20    2.00
  -5  -6   6   42.30    5.70
   5  -6  -6   47.80    5.20
  -5  -6   6   39.20    3.30
  -5   6   6   43.50    5.20
  -5   6   6   43.30    4.40
  -5   6   6   46.50    6.70
  -4  -6   6   -0.10    2.30
  -4  -6   6    0.90    2.30
   4  -6  -6    1.70    1.70
  -4  -6   6    0.50    1.10
  -4   6   6    2.10    2.10
   4   6  -6    0.30    2.40
  -4   6   6   -2.70    1.60
  -4   6   6   -1.20    1.70
   3  -6  -6   -0.90    1.40
  -3  -6   6    0.50    2.00
  -3  -6   6    4.60    3.00
  -3  -6   6   -0.70    1.20
   3   6  -6    1.90    1.70
  -3   6   6    1.20    1.70
  -3   6   6    3.80    2.00
  -3   6   6    1.80    2.00
   2  -6  -6   34.80    4.20
  -2  -6   6   29.30    4.20
  -2  -6   6   28.70    3.80
   2  -6  -6   32.00    2.80
   2  -6  -6   36.60    3.70
  -2  -6   6   32.50    4.90
  -2   6   6   34.10    4.40
  -2   6   6   39.00    5.10
   2   6  -6   30.90    4.40
  -2   6   6   35.50    4.10
   2   6  -6   33.50    2.60
  -2   6   6   34.40    4.40
   2   6  -6   33.20    4.70
  -1  -6   6   28.50    3.70
  -1  -6   6   21.20    3.50
   1  -6  -6   34.10    3.20
   1  -6  -6   31.40    3.90
  -1  -6   6   30.20    4.30
   1  -6  -6   29.80    3.90
  -1  -6   6   25.50    4.00
   1   6  -6   21.80    3.00
  -1   6   6   44.80    4.80
  -1   6   6   30.60    4.30
  -1   6   6   38.50    4.60
   1   6  -6   28.80    4.50
  -1   6   6   31.40    4.10
   0  -6  -6   47.30    4.70
   0  -6   6   45.80    5.20
   0  -6  -6   46.20    4.80
   0  -6   6   50.19    5.20
   0  -6   6   52.79    4.70
   0  -6  -6   48.40    4.90
   0  -6   6   51.69    4.20
   0   6  -6   49.99    5.50
   0   6   6   48.60    4.80
   0   6   6   52.49    4.80
   0   6  -6   52.99    5.30
   0   6   6   50.99    5.80
   0   6   6   50.79    4.90
   1  -6   6   -0.80    1.20
   1  -6   6   -0.40    1.50
   1  -6   6   -1.30    1.40
  -1  -6  -6   -0.90    1.90
  -1  -6  -6   -1.10    1.60
  -1   6  -6    0.00    1.60
  -1   6  -6    0.70    1.90
   1   6   6    0.10    1.20
   1   6   6   -2.90    1.30
  -1   6  -6    0.10    1.90
   1   6   6   -1.30    1.80
   1   6   6    0.20    2.00
  -2  -6  -6    2.40    2.00
   2  -6   6    2.30    1.50
  -2  -6  -6   -0.50    2.10
   2  -6   6    1.70    1.80
   2  -6   6    0.80    1.60
  -2  -6  -6    2.10    2.10
  -2   6  -6    2.00    1.50
   2   6   6    2.30    1.60
  -2   6  -6    0.00    1.90
   2   6   6    0.20    1.90
   2   6   6   -1.70    1.60
  -2   6  -6    0.90    1.70
   2   6   6    4.50    2.50
  -2   6  -6    1.40    1.60
  -3  -6  -6   29.30    5.10
  -3  -6  -6   23.90    3.50
   3  -6   6   27.30    3.00
  -3  -6  -6   20.10    3.30
   3  -6   6   23.60    3.40
   3   6   6   23.10    2.70
   3   6   6   24.10    2.70
   3   6   6   20.90    3.10
   3   6   6   24.40    3.70
  -3   6  -6   18.10    3.00
  -3   6  -6   30.40    3.30
   4  -6   6   15.70    2.40
  -4  -6  -6   20.10    3.10
  -4  -6  -6   15.90    4.30
   4  -6   6   18.60    2.60
   4  -6   6   12.10    4.20
  -4  -6  -6   17.70    3.40
  -4   6  -6   17.60    3.90
  -4   6  -6   14.80    3.20
  -4   6  -6   15.70    2.40
  -4   6  -6   16.10    3.40
  -5  -6  -6   -0.20    2.80
  -5  -6  -6   -1.80    2.30
  -5  -6  -6    1.00    1.70
   5  -6   6    1.20    1.20
   5   6   6   -1.10    2.30
  -5   6  -6   -1.10    2.50
  -5   6  -6   -1.80    1.30
  -5   6  -6    3.10    2.10
  -6  -6  -6    7.10    3.30
  -6  -6  -6   13.80    5.00
  -6  -6  -6    3.30    1.90
  -6   6  -6    6.90    3.40
  -6   6  -6   10.20    3.60
   6  -7  -6   -3.90    1.60
  -6  -7   6    0.80    2.60
  -6  -7   6   -5.00    2.50
  -6   7   6   -3.10    2.00
  -6   7   6   -4.40    2.00
  -6   7   6    1.20    2.50
  -5  -7   6   19.70    2.60
  -5  -7   6   10.40    3.00
   5  -7  -6   11.90    3.80
  -5  -7   6   11.00    3.70
  -5  -7   6   12.90    3.40
  -5   7   6   12.00    3.20
  -5   7   6   17.90    3.50
  -5   7   6   13.00    2.90
   5   7  -6   19.60    5.20
  -4  -7   6    2.10    2.80
  -4  -7   6    0.30    1.20
  -4  -7   6    1.00    2.20
  -4  -7   6    5.20    2.50
  -4   7   6   -2.30    1.80
  -4   7   6    4.00    2.40
  -4   7   6    0.80    1.80
  -3  -7   6    2.90    2.80
  -3  -7   6   -2.20    2.20
   3  -7  -6   -1.20    1.40
  -3  -7   6   -0.40    1.30
   3   7  -6    0.40    1.00
  -3   7   6    1.60    3.50
  -3   7   6    0.40    1.80
  -3   7   6    1.90    2.20
   3   7  -6   -0.60    1.60
  -2  -7   6   15.60    2.90
   2  -7  -6   23.50    2.70
   2  -7  -6   23.50    3.60
   2  -7  -6   29.20    4.30
  -2  -7   6   18.80    4.20
  -2  -7   6   10.00    2.70
   2   7  -6   18.10    2.10
   2   7  -6   14.90    3.60
  -2   7   6   16.50    3.00
  -2   7   6   15.50    3.10
  -2   7   6   17.20    3.20
   2   7  -6   16.10    2.70
  -1  -7   6   18.30    3.30
  -1  -7   6   16.30    3.20
  -1  -7   6   16.10    3.70
  -1  -7   6   11.30    2.40
   1  -7  -6   17.50    3.00
  -1   7   6   18.20    3.20
  -1   7   6   13.80    2.70
  -1   7   6   20.20    3.70
   1   7  -6   12.60    2.80
  -1   7   6   12.30    2.80
   1   7  -6   11.90    2.70
   0  -7   6   -1.10    2.10
   0  -7   6   -2.10    1.40
   0  -7  -6   -0.60    2.00
   0  -7   6    0.70    1.50
   0   7   6   -0.10    2.10
   0   7   6   -0.20    1.40
   0   7  -6   -2.70    1.70
   0   7  -6    0.10    2.30
   0   7   6   -1.90    1.90
   0   7   6    0.30    1.90
   1  -7   6   11.40    2.60
   1  -7   6   12.00    3.10
  -1  -7  -6   11.60    3.10
   1  -7   6   11.90    2.30
  -1  -7  -6    7.00    2.50
   1   7   6   10.40    2.20
   1   7   6    7.80    2.30
  -1   7  -6   12.50    2.90
   1   7   6   12.00    3.50
   1   7   6    9.80    2.70
   2  -7   6    0.90    1.30
   2  -7   6   -1.70    1.50
  -2  -7  -6   -2.40    1.60
   2  -7   6    0.90    1.80
  -2  -7  -6   -1.10    2.70
   2   7   6    0.10    1.80
  -2   7  -6    0.50    3.10
   2   7   6   -2.20    1.70
  -2   7  -6   -1.20    1.70
   2   7   6   -0.80    1.00
   3  -7   6   50.99    3.60
  -3  -7  -6   49.90    5.80
   3  -7   6   33.50    5.30
   3  -7   6   45.70    4.50
  -3  -7  -6   43.90    6.10
  -3  -7  -6   50.49    5.50
   3   7   6   50.29    3.30
  -3   7  -6   52.49    6.90
  -3   7  -6   49.50    5.90
  -3   7  -6   61.39    8.70
  -4  -7  -6    4.00    2.60
  -4  -7  -6    3.10    2.90
   4  -7   6    2.40    1.70
   4  -7   6    4.80    1.60
  -4  -7  -6    4.90    2.40
  -4   7  -6    3.90    2.50
   4   7   6   -0.40    2.30
  -4   7  -6    4.90    2.60
  -5  -7  -6    8.30    3.00
  -5  -7  -6   14.50    3.30
  -5  -7  -6    6.00    3.10
   5  -7   6    8.90    2.10
  -5   7  -6   10.80    3.20
  -5   7  -6   10.90    3.70
  -5  -8   6    1.40    2.70
  -5  -8   6    3.40    2.40
  -5   8   6    1.10    2.20
  -5   8   6    0.80    2.40
  -4  -8   6   27.70    4.20
   4  -8  -6   42.80    5.60
  -4  -8   6   32.80    5.50
  -4  -8   6   35.60    3.80
  -4   8   6   49.10    6.10
  -4   8   6   38.50    5.00
  -4   8   6   21.60    4.40
  -3  -8   6   13.80    3.30
  -3  -8   6   10.00    3.10
  -3  -8   6   22.00    5.00
   3  -8  -6   17.40    3.50
  -3  -8   6   18.10    3.40
  -3   8   6   23.90    4.30
  -3   8   6   22.10    4.30
   3   8  -6   16.20    2.00
   3   8  -6   15.90    4.00
  -3   8   6   19.30    3.80
  -3   8   6   14.80    3.40
   2  -8  -6   97.79    4.80
  -2  -8   6   97.89    8.00
  -2  -8   6  106.69    7.00
  -2  -8   6  106.39    8.50
   2  -8  -6   89.99    7.10
   2  -8  -6   99.89    6.40
   2   8  -6   87.69    4.70
  -2   8   6  110.09    7.80
   2   8  -6  103.19    8.30
  -2   8   6  105.09    9.70
  -2   8   6  101.19    7.00
   2   8  -6  104.59    6.80
  -2   8   6   86.99    6.80
   1  -8  -6    6.70    2.40
  -1  -8   6    5.20    2.90
   1  -8  -6    5.50    1.80
  -1  -8   6    6.00    2.30
  -1  -8   6    2.90    2.00
   1   8  -6    0.50    3.10
  -1   8   6    5.50    2.10
  -1   8   6    8.20    3.10
   1   8  -6    5.70    1.70
   1   8  -6    6.60    2.30
  -1   8   6    5.20    2.80
   0  -8   6   11.80    2.70
   0  -8  -6    7.50    2.80
   0  -8   6   12.00    3.60
   0  -8   6   12.50    2.40
   0  -8  -6   10.40    2.90
   0   8   6   12.80    3.50
   0   8   6   10.50    3.10
   0   8   6    9.50    2.40
   0   8  -6    7.50    2.50
  -1  -8  -6    1.00    2.10
   1  -8   6   -1.30    1.70
   1  -8   6    1.20    1.60
  -1  -8  -6    3.50    3.00
   1  -8   6    4.70    2.30
   1   8   6    1.50    2.80
  -1   8  -6    1.30    2.10
   1   8   6    1.60    1.50
   1   8   6    1.40    1.80
   2  -8   6   10.00    2.50
  -2  -8  -6   13.60    3.10
   2  -8   6   12.20    2.30
   2  -8   6   15.30    3.80
  -2  -8  -6   16.90    4.30
   2   8   6    6.50    2.40
  -2   8  -6    8.10    3.10
  -2   8  -6    9.80    2.80
   2   8   6   13.00    3.40
  -2   8  -6   11.40    3.40
   2   8   6   14.90    3.60
   2   8   6    8.70    1.90
  -3  -8  -6    7.00    3.30
  -3  -8  -6    7.10    2.80
   3  -8   6   12.20    2.10
   3  -8   6    6.70    2.40
   3   8   6   11.10    5.10
   3   8   6    7.70    3.00
  -3   8  -6    4.60    2.40
  -3   8  -6    5.50    3.20
   4  -8   6    2.50    2.00
   4  -8   6    6.30    1.50
  -4  -8  -6    0.90    2.20
  -4  -8  -6    6.60    2.60
  -4  -8  -6    4.70    3.00
  -4   8  -6    0.10    2.50
  -4   8  -6    3.80    3.00
  -4  -9   6   36.30    4.20
  -4  -9   6   46.50    6.60
  -4  -9   6   47.80    6.60
  -4   9   6   42.30    6.00
  -4   9   6   50.49    7.50
  -4   9   6   35.50    5.30
  -3  -9   6   -2.00    2.30
  -3  -9   6    3.50    2.80
  -3  -9   6    1.30    1.40
  -3   9   6   -0.40    2.20
  -3   9   6    5.60    2.90
   3   9  -6   -3.00    1.40
  -2  -9   6   -0.40    2.80
  -2  -9   6   -0.50    1.50
  -2  -9   6   -2.30    1.90
   2  -9  -6    4.80    2.20
  -2   9   6   -1.00    2.80
  -2   9   6    1.40    2.10
  -2   9   6   -2.50    2.20
   2   9  -6   -2.90    1.70
   2   9  -6   -0.40    1.80
   1  -9  -6    1.50    2.20
  -1  -9   6    0.70    2.60
  -1  -9   6    0.20    2.00
   1  -9  -6   -1.60    1.30
  -1  -9   6   -3.10    1.50
  -1   9   6   -1.20    2.50
  -1   9   6    1.20    2.60
   1   9  -6    1.80    1.50
   1   9  -6    1.10    2.10
   0  -9   6    5.40    2.20
   0  -9  -6    2.00    1.70
   0  -9   6    2.30    2.30
   0  -9  -6    5.20    2.30
   0  -9   6    6.10    3.00
   0   9   6    4.40    2.10
   0   9   6    2.10    4.90
   0   9  -6    1.50    2.20
   0   9   6    2.90    2.50
   0   9   6    3.00    2.50
   1  -9   6   11.20    3.00
   1  -9   6   12.80    2.40
  -1  -9  -6    9.30    3.30
   1   9   6   10.90    3.20
   1   9   6   12.70    3.60
   1   9   6    7.70    2.10
  -1   9  -6    9.60    3.10
   2  -9   6   -3.00    1.90
   2  -9   6    1.60    1.60
  -2  -9  -6    2.60    2.90
  -2   9  -6   -2.00    2.40
   2   9   6    0.50    1.50
  -2   9  -6    1.70    2.00
   3  -9   6    6.50    2.90
   3  -9   6    3.20    1.60
  -3  -9  -6    5.30    3.60
  -3   9  -6    4.20    2.60
  -3   9  -6    0.10    2.90
   2 -10  -6    0.90    1.80
   2 -10  -6   -2.50    1.40
   2 -10  -6   -2.70    1.70
  -2 -10   6    1.40    2.90
  -2 -10   6    0.10    2.40
  -2  10   6   -0.50    2.00
   2  10  -6   -2.00    2.00
   2  10  -6   -4.10    1.90
  -2  10   6    0.50    2.50
  -1 -10   6    4.70    3.10
   1 -10  -6    4.90    2.20
   1 -10  -6    4.00    3.00
  -1 -10   6    0.30    2.40
  -1 -10   6    4.40    2.20
  -1  10   6    0.20    2.70
   1  10  -6    3.80    1.90
  -1  10   6   -4.80    3.10
   1  10  -6    1.00    2.40
  -1  10   6    1.90    2.30
   0 -10   6    0.90    1.90
   0 -10   6    9.10    3.10
   0 -10   6   -2.00    2.70
   0 -10  -6    4.80    2.90
   0  10   6   -0.40    3.10
   0  10  -6    4.80    1.70
   0  10  -6    2.10    2.60
   0  10   6   -1.00    2.40
  -1 -10  -6    9.10    3.50
   1 -10   6   10.80    4.00
   1  10   6    3.40    2.20
  -1  10  -6   -0.50    2.80
  -8   0   7    1.20    1.80
  -8   0   7    0.80    1.70
  -8   0   7    0.20    1.80
  -8   0   7   -2.10    1.50
  -8   0   7   -0.60    2.20
  -7   0   7   -0.90    1.30
  -7   0   7    1.10    1.70
  -7   0   7    1.10    1.60
  -7   0   7   -1.90    1.20
  -7   0   7    0.80    1.90
  -6   0   7   -0.30    1.30
  -6   0   7    0.90    1.50
  -6   0   7    0.20    1.70
  -6   0   7    0.00    1.70
  -6   0   7    0.70    1.50
  -5   0   7    0.60    1.30
  -5   0   7    1.90    1.30
  -5   0   7    0.40    1.40
  -5   0   7    0.30    1.30
  -4   0   7    1.90    1.10
  -4   0   7   -1.60    1.10
   4   0  -7    0.00    1.40
  -4   0   7    1.20    1.20
  -3   0   7    1.10    1.20
  -3   0   7   -1.10    1.00
  -3   0   7   -1.20    1.00
   3   0  -7    0.80    1.00
  -2   0   7    2.20    2.00
  -2   0   7    1.50    1.10
  -2   0   7    0.50    1.00
   2   0  -7    1.00    1.10
  -1   0   7   -0.40    1.00
  -1   0   7    0.70    0.90
   1   0  -7    0.20    0.80
  -1   0   7   -0.40    0.90
   1   0  -7   -0.20    1.00
   1   0  -7   -1.30    0.70
   0   0   7    0.40    0.90
   0   0  -7    0.10    1.00
   0   0   7    0.50    1.00
   0   0   7    1.80    1.30
   0   0   7    0.80    1.10
   0   0  -7    1.00    1.00
  -1   0  -7   -1.50    0.90
   1   0   7   -0.80    0.90
   1   0   7   -0.30    0.80
   1   0   7   -0.80    1.00
  -1   0  -7    1.20    1.20
   1   0   7    1.10    1.20
   2   0   7   -0.30    1.10
  -2   0  -7   -1.30    0.80
   2   0   7    0.50    1.00
   2   0   7    0.00    0.90
   2   0   7   -0.70    0.70
  -2   0  -7   -1.30    1.20
  -2   0  -7    1.40    1.50
   3   0   7    1.90    1.30
  -3   0  -7    0.90    1.20
   3   0   7   -0.20    1.10
  -3   0  -7    0.60    1.50
  -3   0  -7    1.50    1.80
   4   0   7    0.70    1.40
  -4   0  -7   -1.30    1.50
  -4   0  -7    0.80    1.60
  -4   0  -7    0.30    1.60
   4   0   7   -1.90    1.00
  -5   0  -7   -1.40    1.60
   5   0   7    2.40    1.50
  -5   0  -7    0.50    1.70
  -5   0  -7    2.30    2.30
   6   0   7    4.50    2.10
   6   0   7    5.10    2.30
  -6   0  -7    2.40    1.70
  -6   0  -7    1.70    2.10
  -6   0  -7    0.60    2.00
  -7   0  -7   -0.60    2.20
  -7   0  -7    1.30    2.40
   7   0   7    2.50    2.20
  -7   0  -7    2.50    2.00
  -8  -1   7    4.60    2.10
  -8  -1   7    8.30    2.60
  -8  -1   7   10.00    2.80
  -8  -1   7    2.50    1.90
  -8   1   7    6.40    2.60
  -8   1   7    9.80    3.30
  -8   1   7    5.40    2.00
  -8   1   7    8.70    1.90
  -8   1   7   11.00    2.60
  -7  -1   7   16.30    3.00
  -7  -1   7   17.30    2.50
  -7  -1   7   15.40    2.60
  -7  -1   7   14.60    2.70
  -7  -1   7   23.40    3.70
  -7   1   7   16.30    2.90
  -7   1   7   19.00    3.10
  -7   1   7   21.90    3.00
  -7   1   7   17.20    3.00
  -7   1   7   19.90    3.50
  -6  -1   7    8.00    1.70
  -6  -1   7    8.90    2.60
  -6  -1   7    7.70    2.10
  -6  -1   7    4.90    2.00
  -6  -1   7    6.90    2.20
  -6   1   7    6.00    2.60
  -6   1   7    7.60    2.40
  -6   1   7    6.00    1.90
  -6   1   7    7.30    2.10
  -6   1   7    7.70    1.80
  -5  -1   7   42.00    4.30
  -5  -1   7   43.40    4.00
  -5  -1   7   41.70    3.00
  -5  -1   7   41.60    4.80
  -5   1   7   42.20    5.00
  -5   1   7   40.80    4.10
  -5   1   7   36.50    3.10
  -5   1   7   37.30    3.10
  -4  -1   7  241.08    7.20
  -4  -1   7  239.78    8.80
  -4  -1   7  240.88    8.10
  -4  -1   7  244.18    6.30
   4  -1  -7  248.48    7.60
   4   1  -7  245.08    8.30
  -4   1   7  234.48    8.60
   3  -1  -7  118.49    5.70
  -3  -1   7  117.09    5.80
  -3  -1   7  121.29    4.40
  -3  -1   7  117.09    5.20
   3  -1  -7  118.59    4.80
  -3  -1   7  117.59    3.40
   3   1  -7  123.59    5.50
  -3   1   7  120.99    5.70
   3   1  -7  118.89    4.50
  -3   1   7  120.89    4.80
  -2  -1   7  567.64   11.00
  -2  -1   7  575.14   12.10
   2  -1  -7  580.04   12.90
   2  -1  -7  592.74   14.20
  -2  -1   7  577.14   13.50
  -2   1   7  571.64   12.90
  -2   1   7  565.34   14.10
   2   1  -7  582.84   12.10
  -2   1   7  571.94   12.40
   2   1  -7  578.94   13.60
   1  -1  -7   23.60    2.50
  -1  -1   7   22.20    2.60
   1  -1  -7   22.70    2.60
  -1  -1   7   22.90    3.40
   1  -1  -7   21.90    2.50
  -1  -1   7   24.20    2.00
  -1   1   7   21.00    2.50
  -1   1   7   24.10    3.20
   1   1  -7   22.50    2.30
   1   1  -7   21.80    2.50
  -1   1   7   23.60    2.60
   1   1  -7   26.40    2.10
   0  -1   7  177.78    5.60
   0  -1  -7  183.68    6.30
   0  -1  -7  175.28    6.10
   0  -1   7  184.78    7.10
   0  -1  -7  183.08    6.20
   0  -1   7  188.78    6.30
   0  -1   7  190.38    6.40
   0   1   7  188.08    6.20
   0   1  -7  182.08    5.60
   0   1   7  187.48    6.30
   0   1  -7  190.88    6.30
   0   1   7  178.28    6.30
  -1  -1  -7 2094.39   39.60
   1  -1   7 2159.98   39.60
   1  -1   7 2144.59   40.70
  -1  -1  -7 2112.99   38.60
   1  -1   7 2128.19   38.40
   1  -1   7 2100.79   39.30
  -1  -1  -7 2108.89   39.30
  -1   1  -7 2161.68   40.90
   1   1   7 2071.49   39.50
  -1   1  -7 2068.09   40.90
   1   1   7 2093.79   39.80
   1   1   7 2162.68   38.70
  -1   1  -7 2107.29   39.30
   1   1   7 2157.28   40.10
  -2  -1  -7  511.95   13.00
   2  -1   7  500.65   13.80
   2  -1   7  528.85   11.10
  -2  -1  -7  516.95   13.30
   2  -1   7  511.85   13.30
   2  -1   7  520.45   13.00
  -2  -1  -7  506.85   11.30
  -2   1  -7  517.85   14.10
  -2   1  -7  494.55   12.50
   2   1   7  520.45   13.10
  -2   1  -7  497.85   13.00
   2   1   7  485.95   13.10
   2   1   7  518.55   11.30
  -3  -1  -7  180.78    7.80
   3  -1   7  188.88    7.80
   3  -1   7  191.08    8.10
  -3  -1  -7  181.18    5.20
  -3  -1  -7  176.18    7.20
  -3   1  -7  180.08    7.70
   3   1   7  179.48    7.70
  -3   1  -7  189.98    8.40
   3   1   7  183.78    5.00
   3   1   7  197.08    7.50
  -3   1  -7  180.58    6.90
   4  -1   7    4.60    1.80
  -4  -1  -7    5.10    2.10
  -4  -1  -7    9.80    2.40
   4  -1   7    5.50    2.00
  -4   1  -7    4.90    2.20
   4   1   7    5.80    1.70
  -4   1  -7    8.70    2.10
  -4   1  -7    7.20    2.20
   4   1   7    4.70    1.80
   5  -1   7  174.38    8.80
  -5  -1  -7  164.78    7.90
  -5  -1  -7  166.18    9.60
  -5   1  -7  176.18   12.70
  -5   1  -7  171.38    9.00
  -5   1  -7  163.98    7.30
   5   1   7  171.88    7.70
  -6  -1  -7   19.90    4.10
  -6  -1  -7   24.50    4.20
  -6  -1  -7   17.10    2.80
   6  -1   7   21.80    3.30
  -6   1  -7   34.60    4.30
  -6   1  -7   19.60    3.50
   6   1   7   27.30    4.20
   6   1   7   18.40    3.50
  -6   1  -7   20.50    4.00
  -7  -1  -7   37.10    5.10
  -7  -1  -7   33.00    4.80
  -7  -1  -7   30.20    5.40
  -7   1  -7   34.60    5.40
  -7   1  -7   44.20    4.90
   7   1   7   25.00    3.70
  -7   1  -7   31.70    5.80
  -8  -2   7   41.20    4.60
  -8  -2   7   37.60    5.20
  -8  -2   7   43.50    5.30
  -8  -2   7   29.20    4.00
  -8  -2   7   33.50    4.90
  -8   2   7   40.50    3.40
  -8   2   7   32.20    4.80
  -8   2   7   51.19    5.30
  -8   2   7   51.99    6.60
  -8   2   7   46.50    6.00
  -7  -2   7   15.00    3.40
  -7  -2   7   13.60    3.10
  -7  -2   7   12.30    2.10
  -7  -2   7   13.50    2.50
  -7  -2   7   13.30    2.90
  -7   2   7   13.30    2.80
  -7   2   7   12.90    2.70
  -7   2   7   10.20    2.70
  -7   2   7   14.40    2.00
  -7   2   7   14.80    2.90
  -6  -2   7   29.10    4.70
  -6  -2   7   16.80    3.50
  -6  -2   7   15.00    2.60
  -6  -2   7   22.30    3.40
  -6  -2   7   27.80    2.80
  -6   2   7   17.00    3.30
  -6   2   7   28.00    3.80
  -6   2   7   22.80    3.20
  -5  -2   7   89.29    5.60
  -5  -2   7   96.59    3.70
  -5  -2   7   97.69    5.70
  -5   2   7   94.79    7.10
  -5   2   7   93.89    4.30
  -5   2   7  100.39    5.90
  -5   2   7   92.39    4.20
  -4  -2   7    2.60    1.60
  -4  -2   7    5.70    3.00
   4  -2  -7    5.80    1.60
   4  -2  -7    2.50    1.80
   4   2  -7    3.40    1.70
  -4   2   7    3.40    1.30
  -4   2   7    4.00    1.80
  -4   2   7    4.80    1.90
  -3  -2   7   96.99    5.00
   3  -2  -7   96.19    5.30
   3  -2  -7   87.89    4.00
  -3  -2   7   97.79    4.70
   3   2  -7  103.49    5.40
  -3   2   7   97.39    4.10
  -3   2   7   97.79    5.30
   3   2  -7  100.69    4.80
   2  -2  -7  226.98    6.60
  -2  -2   7  233.58    8.10
  -2  -2   7  226.78    7.60
  -2  -2   7  232.58    7.10
   2  -2  -7  233.88    8.10
  -2   2   7  227.58    7.10
   2   2  -7  234.28    7.10
   2   2  -7  228.98    7.70
  -2   2   7  227.68    6.80
  -2   2   7  233.18    7.90
  -1  -2   7    6.60    1.30
   1  -2  -7   12.40    1.70
  -1  -2   7    8.50    1.10
   1  -2  -7    7.10    1.50
   1  -2  -7    8.50    1.60
  -1  -2   7    5.60    1.30
  -1  -2   7    9.40    1.70
   1  -2  -7    9.70    1.60
   1   2  -7   10.30    1.90
  -1   2   7    7.80    1.90
  -1   2   7    4.90    1.30
   1   2  -7   11.40    2.00
  -1   2   7    5.10    1.40
   0  -2   7  681.53   16.50
   0  -2  -7  686.53   15.30
   0  -2   7  676.43   15.20
   0  -2  -7  683.93   15.50
   0  -2   7  663.33   14.20
   0  -2  -7  692.93   14.90
   0  -2  -7  673.23   15.20
   0   2  -7  671.73   14.00
   0   2  -7  660.23   16.50
   0   2   7  681.93   15.20
   0   2   7  681.33   15.90
   0   2  -7  674.93   15.60
   0   2   7  670.83   15.40
  -1  -2  -7  204.08    6.80
  -1  -2  -7  214.48    7.50
   1  -2   7  209.28    7.00
   1  -2   7  208.18    8.10
   1  -2   7  222.98    7.10
  -1  -2  -7  212.78    7.30
  -1   2  -7  208.58    8.30
   1   2   7  211.78    6.80
  -1   2  -7  207.28    6.90
   1   2   7  201.98    7.20
  -1   2  -7  206.88    7.20
  -2  -2  -7    3.20    1.80
   2  -2   7    3.50    1.60
   2  -2   7    4.30    1.60
  -2  -2  -7    1.70    1.50
  -2  -2  -7    2.20    1.50
   2  -2   7    1.60    1.40
  -2  -2  -7    2.50    1.10
  -2   2  -7    2.90    1.50
   2   2   7    2.00    1.30
  -2   2  -7    3.40    1.20
   2   2   7    4.10    1.20
  -2   2  -7    2.40    1.50
   2   2   7    1.40    1.60
  -3  -2  -7  117.69    6.10
   3  -2   7  124.99    6.40
   3  -2   7  124.79    5.60
  -3  -2  -7  121.89    4.60
   3  -2   7  118.09    6.80
  -3  -2  -7  125.49    7.40
   3  -2   7  118.59    3.90
  -3  -2  -7  123.19    6.60
   3  -2   7  116.39    3.80
   3   2   7  121.79    5.60
   3   2   7  121.89    4.50
  -3   2  -7  120.89    7.30
   3   2   7  129.69    6.50
  -3   2  -7  117.19    5.40
  -3   2  -7  128.99    6.60
  -4  -2  -7    8.70    2.40
  -4  -2  -7   11.00    2.80
   4  -2   7    6.00    2.00
  -4  -2  -7    9.00    3.10
  -4  -2  -7    9.90    1.40
  -4   2  -7    7.70    2.40
   4   2   7    8.50    1.80
   4   2   7    8.10    2.30
  -4   2  -7    6.20    2.30
   5  -2   7   46.10    5.70
  -5  -2  -7   39.00    6.40
  -5  -2  -7   46.40    5.20
  -5   2  -7   51.69    6.20
   5   2   7   52.29    4.20
  -5   2  -7   43.80    4.10
  -5   2  -7   49.20    6.20
  -6  -2  -7    1.40    2.70
  -6  -2  -7    6.20    3.40
  -6  -2  -7    4.60    2.30
   6  -2   7    4.50    2.30
   6   2   7    1.70    1.40
  -6   2  -7    3.60    2.60
   6   2   7   -1.90    2.20
  -6   2  -7    0.80    3.00
  -6   2  -7    0.50    1.80
  -7  -2  -7   -1.80    2.80
   7  -2   7    4.20    2.90
  -7  -2  -7    1.90    3.30
   7   2   7    0.00    1.50
  -7   2  -7   -1.70    2.40
  -7   2  -7   -0.70    2.50
  -7   2  -7    0.70    1.60
  -8  -3   7   48.40    6.70
  -8  -3   7   55.39    6.30
  -8  -3   7   46.50    4.30
  -8  -3   7   55.99    4.60
  -8  -3   7   53.99    6.20
  -8   3   7   65.49    7.60
  -8   3   7   53.19    5.30
  -8   3   7   56.89    6.70
  -8   3   7   54.19    5.60
  -7  -3   7   -0.90    2.00
  -7  -3   7    1.10    2.30
  -7  -3   7    1.00    1.30
  -7  -3   7    1.30    2.50
  -7  -3   7    0.30    1.70
  -7   3   7    3.90    1.70
  -7   3   7   -1.10    1.60
  -7   3   7    1.10    2.10
  -7   3   7    2.50    1.70
  -6  -3   7    5.90    2.90
  -6  -3   7    5.40    1.30
  -6  -3   7    5.70    2.50
  -6   3   7    4.20    1.90
  -6   3   7    7.00    1.70
  -6   3   7    4.20    2.20
   5  -3  -7   83.29    5.80
  -5  -3   7   81.29    5.80
  -5  -3   7   77.89    5.70
  -5   3   7   81.49    5.70
   5   3  -7   81.39    9.10
  -5   3   7   75.69    3.40
  -5   3   7   75.89    6.70
  -5   3   7   82.89    3.90
   4  -3  -7    1.60    1.40
  -4  -3   7   -0.30    1.40
  -4  -3   7    0.30    1.80
   4  -3  -7    0.40    1.20
  -4  -3   7   -0.30    1.90
  -4   3   7    0.60    1.60
   4   3  -7    1.30    1.80
  -4   3   7    0.30    1.00
  -4   3   7    1.50    1.60
  -3  -3   7    4.10    1.60
  -3  -3   7    1.70    1.50
  -3  -3   7    4.60    1.90
   3  -3  -7    3.80    1.10
   3  -3  -7    4.70    2.00
  -3   3   7    3.60    1.60
   3   3  -7    0.90    2.70
  -3   3   7    5.20    1.30
   3   3  -7    3.60    1.60
  -2  -3   7  179.18    6.90
   2  -3  -7  172.98    7.10
  -2  -3   7  183.58    7.00
   2  -3  -7  182.78    5.80
  -2  -3   7  181.08    7.10
   2   3  -7  177.88    7.10
  -2   3   7  191.48    6.00
  -2   3   7  182.38    6.70
  -2   3   7  186.78    7.40
   2   3  -7  183.18    6.90
  -1  -3   7   28.10    3.50
  -1  -3   7   26.70    3.20
  -1  -3   7   26.20    3.10
   1  -3  -7   27.30    3.00
   1  -3  -7   33.10    2.70
   1  -3  -7   32.30    2.50
   1   3  -7   25.10    3.20
   1   3  -7   29.00    2.00
  -1   3   7   29.10    3.30
  -1   3   7   32.80    3.40
   0  -3  -7  277.37    8.30
   0  -3  -7  278.57    8.20
   0  -3   7  273.67    8.40
   0  -3  -7  280.57    8.80
   0  -3  -7  268.17    8.70
   0  -3   7  273.47    9.40
   0   3  -7  276.37    8.50
   0   3   7  274.37    8.70
   0   3  -7  277.77    7.40
   0   3  -7  288.37    9.80
   0   3  -7  270.67    8.90
   0   3   7  280.77    8.80
  -1  -3  -7  113.39    5.90
  -1  -3  -7  111.69    5.20
   1  -3   7  113.79    6.20
   1  -3   7  115.09    5.00
  -1  -3  -7  103.39    5.60
  -1  -3  -7  108.19    5.30
   1   3   7  117.09    5.70
  -1   3  -7  106.09    5.90
  -1   3  -7  115.09    5.20
  -1   3  -7  107.09    4.90
   1   3   7  119.89    5.30
  -1   3  -7  111.79    6.40
  -2  -3  -7    8.50    1.70
   2  -3   7    7.30    2.10
  -2  -3  -7    7.80    2.40
   2  -3   7    9.70    2.00
  -2  -3  -7    9.30    2.10
  -2  -3  -7   10.70    2.50
  -2   3  -7    7.90    1.90
  -2   3  -7    7.10    2.00
  -2   3  -7    4.10    1.90
   2   3   7    9.40    1.70
   2   3   7   12.00    2.40
   2   3   7    7.90    1.70
  -2   3  -7    6.30    1.60
  -3  -3  -7   24.10    3.50
  -3  -3  -7   23.70    2.80
   3  -3   7   22.50    3.20
  -3  -3  -7   20.70    3.30
   3  -3   7   24.40    2.30
  -3  -3  -7   16.20    3.20
  -3   3  -7   17.60    3.20
  -3   3  -7   29.60    4.20
   3   3   7   25.40    3.00
   3   3   7   24.20    3.40
  -3   3  -7   23.60    2.90
   3   3   7   27.30    3.10
  -4  -3  -7  106.59    6.90
  -4  -3  -7  105.39    4.70
  -4  -3  -7  102.59    6.60
   4  -3   7  110.89    7.50
  -4  -3  -7  107.59    7.90
  -4   3  -7  116.39    8.10
   4   3   7  101.49    5.00
  -4   3  -7  106.09    7.10
   4   3   7  109.79    7.00
  -4   3  -7  105.89    5.40
  -5  -3  -7  102.39    7.50
  -5  -3  -7  102.19    4.20
   5  -3   7  105.89    7.80
  -5  -3  -7  105.29    7.10
  -5  -3  -7  110.39    8.50
  -5   3  -7  109.49    8.40
  -5   3  -7   99.19    7.50
  -5   3  -7   95.99    5.40
   5   3   7  105.29    5.10
  -6  -3  -7   40.30    6.50
   6  -3   7   24.60    4.30
  -6  -3  -7   31.40    4.60
  -6  -3  -7   39.20    5.10
   6   3   7   30.20    3.30
  -6   3  -7   33.10    3.80
  -6   3  -7   22.20    3.90
  -6   3  -7   26.70    4.30
  -7  -3  -7    3.40    3.70
  -7  -3  -7    2.60    2.90
  -7   3  -7    0.90    2.80
  -7   3  -7    3.10    2.80
  -7   3  -7    6.00    2.20
  -8  -4   7   -5.40    3.00
  -8  -4   7   -1.60    1.20
  -8  -4   7    0.30    2.40
  -8  -4   7    0.40    2.90
  -8  -4   7   -3.20    1.40
  -8   4   7    3.20    2.40
  -8   4   7   -2.20    2.20
  -8   4   7    0.60    2.20
  -8   4   7    5.40    2.60
  -8   4   7    2.40    2.00
  -7  -4   7   -0.20    2.40
  -7  -4   7   -0.10    1.10
  -7  -4   7   -0.10    4.50
  -7  -4   7   -2.10    1.20
  -7   4   7    0.60    1.50
  -7   4   7    0.40    1.90
  -7   4   7    3.00    2.40
  -6  -4   7   -0.70    2.20
  -6  -4   7    1.90    2.30
   6  -4  -7   -1.90    1.50
  -6  -4   7   -1.00    1.20
  -6   4   7    1.10    1.80
  -6   4   7    2.30    1.90
  -6   4   7    0.00    1.50
   6   4  -7   -0.10    2.10
   5  -4  -7    0.10    1.30
  -5  -4   7    2.00    2.10
  -5  -4   7   -0.70    2.10
  -5  -4   7    1.60    1.30
  -5   4   7    0.00    1.70
  -5   4   7    0.70    1.20
   5   4  -7   -0.60    1.70
  -5   4   7    1.90    1.60
  -4  -4   7    0.10    1.80
  -4  -4   7   -1.10    1.10
  -4  -4   7    1.30    2.20
   4  -4  -7   -0.50    1.40
  -4   4   7   -1.60    1.30
  -4   4   7   -0.10    1.60
  -4   4   7    1.00    1.20
   4   4  -7   -1.20    1.70
  -3  -4   7  294.37   10.00
   3  -4  -7  299.67   10.50
  -3  -4   7  283.67   10.00
  -3  -4   7  289.17    9.50
   3  -4  -7  294.27    7.50
  -3   4   7  304.07   10.40
  -3   4   7  303.87   11.90
   3   4  -7  290.37   10.20
   2  -4  -7   16.50    2.20
   2  -4  -7   16.50    2.60
  -2  -4   7   23.20    3.50
  -2  -4   7   13.60    2.70
  -2  -4   7   15.90    2.80
   2  -4  -7   15.90    2.20
   2   4  -7   12.50    2.60
  -2   4   7   10.80    3.40
  -2   4   7   14.20    2.70
  -2   4   7   16.30    2.30
  -2   4   7   12.20    2.30
   2   4  -7   17.60    2.90
   1  -4  -7    2.00    1.20
   1  -4  -7    2.30    1.30
  -1  -4   7    0.80    1.20
  -1  -4   7    2.00    1.30
  -1  -4   7   -0.30    1.70
   1  -4  -7    0.80    1.50
   1   4  -7    1.10    1.40
   1   4  -7    3.40    1.80
  -1   4   7    1.20    1.30
   1   4  -7    0.60    0.90
   1   4  -7   -0.70    1.30
  -1   4   7    1.80    1.40
  -1   4   7    2.00    1.70
   0  -4   7   78.29    4.40
   0  -4   7   72.59    5.30
   0  -4  -7   76.19    4.30
   0  -4  -7   73.79    6.80
   0  -4  -7   71.89    4.90
   0  -4  -7   74.29    4.70
   0   4  -7   78.89    5.70
   0   4  -7   78.49    3.90
   0   4   7   77.29    7.30
   0   4  -7   67.99    4.40
   0   4   7   66.19    4.40
   0   4   7   76.89    5.00
   0   4  -7   75.39    5.10
  -1  -4  -7    2.00    1.90
   1  -4   7    0.70    1.20
  -1  -4  -7    2.30    1.80
  -1  -4  -7    1.00    1.20
   1  -4   7    1.30    1.30
  -1  -4  -7    3.00    1.80
  -1   4  -7    2.10    1.70
  -1   4  -7    1.60    1.40
   1   4   7    0.70    1.30
  -1   4  -7    1.70    1.80
   1   4   7    1.10    1.30
  -1   4  -7    2.80    1.40
  -2  -4  -7   99.29    5.40
  -2  -4  -7  100.29    5.80
   2  -4   7  103.29    5.00
   2  -4   7  106.19    6.80
  -2  -4  -7  113.69    6.70
  -2  -4  -7  109.59    6.50
   2  -4   7  113.69    5.30
   2   4   7  112.39    6.20
  -2   4  -7  115.59    7.40
  -2   4  -7  110.39    6.00
  -2   4  -7  108.89    5.20
  -2   4  -7  109.89    6.80
   2   4   7  108.19    5.60
   3  -4   7  183.38    9.50
  -3  -4  -7  182.98    8.50
  -3  -4  -7  171.18    7.00
   3  -4   7  174.18    6.80
  -3  -4  -7  175.58    8.20
  -3  -4  -7  178.88    9.30
   3  -4   7  179.48    6.10
  -3   4  -7  190.28    9.80
   3   4   7  179.08    6.50
  -3   4  -7  176.28    8.90
   3   4   7  181.88    8.30
  -3   4  -7  173.68    6.70
   3   4   7  177.88    7.00
  -3   4  -7  183.48    8.40
  -4  -4  -7   16.80    4.20
  -4  -4  -7   14.40    2.30
   4  -4   7   15.40    3.20
   4  -4   7   16.40    2.20
  -4  -4  -7   12.60    2.90
  -4  -4  -7    9.60    2.90
   4   4   7    9.80    2.60
  -4   4  -7   14.50    2.20
   4   4   7   19.10    2.70
  -4   4  -7   13.50    3.10
  -4   4  -7   11.90    3.00
  -5  -4  -7    1.40    2.70
   5  -4   7   -3.80    2.20
  -5  -4  -7   -0.90    2.10
  -5  -4  -7    0.10    1.20
  -5  -4  -7    3.40    2.30
   5   4   7   -0.70    2.20
  -5   4  -7   -0.90    2.30
  -5   4  -7    2.00    1.70
  -5   4  -7    1.90    2.50
   5   4   7   -0.10    1.00
  -6  -4  -7   23.10    4.90
  -6  -4  -7   27.90    4.80
  -6  -4  -7   32.80    2.90
  -6   4  -7   21.30    3.90
  -6   4  -7   49.00    6.80
  -6   4  -7   30.10    3.60
  -7  -5   7   11.50    3.80
  -7  -5   7   12.80    3.90
  -7   5   7   16.30    3.10
  -6  -5   7   -1.50    2.40
   6  -5  -7    1.40    1.70
  -6  -5   7   -3.60    2.50
  -6  -5   7   -1.40    1.20
  -6   5   7    7.40    2.40
  -6   5   7    3.00    2.50
  -6   5   7    2.20    1.70
   6   5  -7    1.40    2.40
  -5  -5   7   18.00    3.90
  -5  -5   7   12.60    4.50
  -5  -5   7   18.10    3.00
   5  -5  -7   18.60    3.20
   5   5  -7   29.00    5.20
  -5   5   7   21.20    3.20
  -5   5   7   18.30    2.90
  -5   5   7   16.30    3.60
   4  -5  -7   60.59    5.10
  -4  -5   7   56.29    5.60
  -4  -5   7   58.79    4.30
  -4  -5   7   55.39    5.20
  -4   5   7   66.99    5.60
   4   5  -7   58.39    5.60
  -4   5   7   56.09    3.80
  -4   5   7   57.59    6.20
   3  -5  -7   69.19    5.40
   3  -5  -7   69.69    3.40
  -3  -5   7   70.29    5.20
  -3  -5   7   75.29    5.90
  -3  -5   7   69.39    4.90
  -3   5   7   75.39    5.80
  -3   5   7   72.89    4.20
  -3   5   7   68.79    6.30
   3   5  -7   73.69    5.80
  -3   5   7   76.19    5.70
  -2  -5   7    5.80    2.00
   2  -5  -7    6.60    1.50
   2  -5  -7    5.20    1.80
  -2  -5   7    4.30    1.50
   2  -5  -7    4.60    1.60
  -2  -5   7    8.40    2.80
   2   5  -7    5.20    1.90
  -2   5   7    7.10    2.20
  -2   5   7    6.00    1.90
  -2   5   7    9.40    2.60
  -2   5   7    5.80    1.90
  -1  -5   7    1.10    1.40
  -1  -5   7    1.10    1.50
   1  -5  -7    1.00    1.40
   1  -5  -7    1.80    1.30
   1  -5  -7    0.50    1.60
  -1  -5   7    1.30    1.90
  -1   5   7    0.90    1.60
  -1   5   7    1.40    1.30
   1   5  -7   -0.40    1.80
  -1   5   7    0.70    1.70
   1   5  -7    1.30    1.00
   1   5  -7   -0.40    1.60
   1   5  -7    1.50    1.60
  -1   5   7    1.30    1.90
   0  -5  -7  131.49    6.10
   0  -5   7  125.59    7.10
   0  -5   7  135.79    6.20
   0  -5  -7  122.79    6.50
   0  -5  -7  127.69    6.30
   0  -5   7  129.39    7.30
   0   5  -7  125.69    7.00
   0   5  -7  131.89    7.50
   0   5   7  131.39    6.90
   0   5   7  128.89    6.50
   0   5  -7  137.69    6.00
   0   5   7  124.39    6.40
   0   5   7  134.69    6.80
  -1  -5  -7   13.70    2.70
  -1  -5  -7   13.70    2.30
   1  -5   7   11.60    2.70
  -1  -5  -7   10.10    2.60
  -1  -5  -7   16.40    3.30
   1  -5   7   16.10    2.30
   1  -5   7   11.90    2.70
  -1   5  -7   13.60    2.30
  -1   5  -7   16.50    3.50
  -1   5  -7    7.50    2.30
   1   5   7   12.40    2.40
   1   5   7   11.30    3.20
   1   5   7   10.10    2.00
  -1   5  -7   12.40    2.10
   2  -5   7  166.48    6.80
  -2  -5  -7  164.58    7.50
   2  -5   7  171.48    6.70
   2  -5   7  177.28    9.40
  -2  -5  -7  156.18    7.70
  -2  -5  -7  177.38    9.00
  -2  -5  -7  167.78    8.40
   2   5   7  161.68    7.70
   2   5   7  161.58    7.90
  -2   5  -7  182.78    9.60
  -2   5  -7  158.58    6.70
  -2   5  -7  173.38    7.90
  -2   5  -7  178.48    8.90
   3  -5   7    4.20    1.70
   3  -5   7    7.30    2.00
  -3  -5  -7    3.20    2.20
  -3  -5  -7    2.80    2.50
  -3  -5  -7    5.90    1.90
  -3  -5  -7    2.80    2.60
   3   5   7    4.10    1.90
  -3   5  -7    5.00    1.70
  -3   5  -7    1.30    2.00
  -3   5  -7    7.10    2.60
   3   5   7    4.90    1.40
   3   5   7    2.90    2.00
   4  -5   7    0.50    1.30
  -4  -5  -7   -3.30    2.50
  -4  -5  -7    1.60    2.60
   4  -5   7    0.90    1.20
  -4  -5  -7    0.10    1.20
  -4   5  -7   -0.60    2.00
   4   5   7    0.40    0.90
  -4   5  -7    0.10    2.00
  -4   5  -7   -0.10    1.30
  -5  -5  -7   29.50    5.80
  -5  -5  -7   23.80    4.30
  -5  -5  -7   27.00    3.60
   5  -5   7   25.10    4.40
  -5   5  -7   25.70    3.20
   5   5   7   27.70    4.30
  -5   5  -7   20.10    3.80
  -5   5  -7   22.80    3.80
  -6  -5  -7   18.20    2.70
  -6  -5  -7   24.10    4.20
  -6  -5  -7   22.50    5.40
  -6   5  -7   14.20    3.90
  -6   5  -7   19.30    4.10
  -7  -6   7   16.30    4.40
  -7  -6   7   18.20    4.40
   7  -6  -7   17.90    3.60
  -7   6   7   11.10    3.00
  -7   6   7   13.60    3.00
  -7   6   7   15.60    3.90
  -6  -6   7   53.99    6.90
  -6  -6   7   40.80    3.10
  -6  -6   7   45.60    6.40
  -6   6   7   43.50    4.50
  -6   6   7   51.19    6.90
   6   6  -7   45.20    7.20
  -6   6   7   48.70    5.70
  -5  -6   7   59.09    6.20
  -5  -6   7   47.40    3.80
   5   6  -7   34.40    8.10
  -5   6   7   54.49    4.50
  -5   6   7   49.50    8.00
  -5   6   7   59.69    7.10
  -4  -6   7    4.20    2.90
   4  -6  -7   -3.10    1.60
  -4  -6   7    2.70    2.70
  -4  -6   7    1.30    1.40
  -4   6   7    5.20    2.00
   4   6  -7    0.10    2.20
  -4   6   7    6.00    3.40
  -4   6   7    2.30    1.80
   3  -6  -7   11.40    1.70
  -3  -6   7    3.90    2.30
  -3  -6   7    4.40    1.70
  -3  -6   7   10.10    3.40
   3  -6  -7   13.20    2.90
  -3   6   7    6.30    2.30
  -3   6   7    8.80    2.30
   3   6  -7    7.40    3.10
  -3   6   7    7.80    2.40
  -3   6   7    7.10    2.50
  -2  -6   7   -2.40    2.20
  -2  -6   7    1.60    2.30
   2  -6  -7    5.20    1.90
  -2  -6   7    2.20    1.60
   2  -6  -7   -0.30    1.50
   2  -6  -7    6.40    1.50
   2   6  -7    3.50    1.90
  -2   6   7    3.60    2.20
  -2   6   7    5.10    1.90
   2   6  -7    1.50    1.70
  -2   6   7    4.20    1.90
   2   6  -7    4.30    1.10
  -2   6   7    1.20    1.70
   2   6  -7    3.10    1.00
   1  -6  -7    0.10    1.50
  -1  -6   7    1.00    1.60
   1  -6  -7    2.10    1.30
  -1  -6   7   -0.20    2.20
   1  -6  -7    0.90    1.70
  -1  -6   7    0.00    1.40
  -1   6   7    3.10    2.20
   1   6  -7    2.30    2.10
   1   6  -7    1.10    1.80
   1   6  -7    0.90    1.10
  -1   6   7    1.70    1.50
  -1   6   7    2.40    2.00
  -1   6   7    1.80    1.90
   0  -6   7   17.10    2.90
   0  -6  -7   16.10    2.90
   0  -6   7   19.70    2.90
   0  -6   7   25.40    3.40
   0  -6  -7   24.10    3.80
   0  -6  -7   17.40    2.50
   0  -6   7   20.10    3.40
   0   6   7   20.20    3.30
   0   6  -7   19.60    2.50
   0   6   7   15.60    2.60
   0   6  -7   18.20    3.00
   0   6  -7   20.60    3.90
   0   6   7   17.40    3.10
   0   6  -7   15.90    2.90
  -1  -6  -7   -1.30    1.40
   1  -6   7   -0.10    1.50
  -1  -6  -7   -1.10    2.10
   1  -6   7   -0.40    1.50
  -1  -6  -7   -2.00    1.60
   1  -6   7   -0.50    1.20
   1   6   7   -0.90    1.90
   1   6   7    0.50    1.40
  -1   6  -7    2.40    2.40
   1   6   7   -1.40    1.90
  -1   6  -7    0.70    2.00
  -1   6  -7    0.20    1.80
   1   6   7    1.60    2.00
  -1   6  -7   -0.40    1.40
  -2  -6  -7  154.58    8.40
   2  -6   7  174.18    6.80
   2  -6   7  160.38    9.30
   2  -6   7  165.98    7.40
  -2  -6  -7  154.58    7.80
  -2  -6  -7  165.48    8.90
   2   6   7  158.78    7.00
  -2   6  -7  146.79   10.10
  -2   6  -7  164.18    8.20
   2   6   7  166.28    8.30
   2   6   7  167.58    8.10
  -2   6  -7  164.18    9.70
  -3  -6  -7  141.39    9.30
   3  -6   7  136.09    6.40
   3  -6   7  141.29    6.10
  -3  -6  -7  149.49   13.30
  -3  -6  -7  137.69    7.10
   3   6   7  140.79    5.70
  -3   6  -7  152.18    9.60
   3   6   7  128.99    5.40
  -3   6  -7  144.39    8.20
  -3   6  -7  136.19    6.50
   3   6   7  141.29    7.50
   4  -6   7   19.20    2.60
   4  -6   7   13.10    2.40
  -4  -6  -7   14.60    3.40
  -4  -6  -7   15.00    3.90
  -4  -6  -7   13.20    2.70
   4  -6   7    6.90    2.40
  -4   6  -7   16.10    4.10
  -4   6  -7   14.70    3.60
  -4   6  -7   13.30    2.20
   4   6   7   14.80    3.50
  -4   6  -7   15.60    3.40
  -5  -6  -7    5.10    3.40
  -5  -6  -7    5.50    2.90
  -5  -6  -7    5.00    2.00
   5  -6   7    4.50    1.60
  -5   6  -7    1.80    1.50
  -5   6  -7    0.60    2.00
  -5   6  -7    2.40    2.50
   6  -7  -7    1.50    2.40
  -6  -7   7    2.50    3.50
  -6  -7   7    4.70    3.30
  -6   7   7    5.50    2.50
  -6   7   7   -3.50    1.90
  -6   7   7    5.60    2.90
  -5  -7   7    0.80    1.30
  -5  -7   7    1.30    2.30
  -5  -7   7   -3.50    2.90
   5  -7  -7    2.10    2.10
  -5   7   7   -4.00    1.90
  -5   7   7    0.30    2.00
  -5   7   7   -0.40    2.00
   5   7  -7    2.20    3.20
  -4  -7   7    0.80    1.30
  -4  -7   7    0.20    2.70
   4  -7  -7   -0.70    2.40
  -4  -7   7    2.40    2.30
  -4   7   7   -2.70    1.80
  -4   7   7    1.50    2.40
  -4   7   7   -2.60    1.80
  -3  -7   7   23.40    4.50
  -3  -7   7   20.20    3.10
   3   7  -7   10.90    4.20
  -3   7   7   27.50    4.10
  -3   7   7   23.50    4.90
  -3   7   7   31.80    4.30
   2  -7  -7   21.80    3.50
  -2  -7   7   17.30    3.80
  -2  -7   7   17.60    3.10
  -2  -7   7   19.20    3.40
   2  -7  -7   18.60    2.60
   2   7  -7   16.60    2.90
   2   7  -7   17.20    3.60
  -2   7   7   15.90    3.20
  -2   7   7   18.70    5.90
   2   7  -7   15.50    1.90
  -1  -7   7   46.40    5.30
  -1  -7   7   52.59    4.80
   1  -7  -7   52.09    4.00
  -1  -7   7   56.49    6.00
  -1  -7   7   52.59    5.80
   1  -7  -7   55.89    4.90
   1   7  -7   52.39    5.70
   1   7  -7   46.30    5.50
  -1   7   7   61.59    5.90
  -1   7   7   52.69    5.90
  -1   7   7   52.39    5.10
   0  -7  -7   57.69    5.30
   0  -7   7   64.39    6.10
   0  -7   7   58.79    4.80
   0  -7   7   63.99    5.60
   0  -7  -7   62.29    5.70
   0  -7  -7   68.09    4.80
   0  -7   7   52.39    5.80
   0   7   7   46.10    4.90
   0   7  -7   59.79    4.70
   0   7   7   59.69    6.20
   0   7   7   58.99    5.70
   0   7   7   61.39    5.60
   0   7  -7   64.09    6.50
   1  -7   7   10.10    2.60
  -1  -7  -7   13.80    3.20
  -1  -7  -7   15.50    3.60
  -1  -7  -7   12.00    2.50
   1  -7   7   14.50    2.70
   1  -7   7   12.30    2.40
  -1   7  -7   10.30    2.50
   1   7   7   13.00    2.60
  -1   7  -7   12.30    3.00
   1   7   7   14.70    3.30
   1   7   7   16.20    3.20
  -2  -7  -7   17.10    4.00
  -2  -7  -7   11.50    2.60
  -2  -7  -7   13.70    2.90
   2  -7   7   15.60    2.30
   2  -7   7    8.80    3.90
   2  -7   7   14.70    2.70
  -2   7  -7   12.50    3.10
   2   7   7   15.30    3.30
  -2   7  -7   13.40    2.70
  -2   7  -7   11.30    2.50
   2   7   7   12.90    2.80
   2   7   7   12.60    2.20
   3  -7   7   15.50    2.40
  -3  -7  -7   12.40    3.70
   3  -7   7   10.80    2.40
  -3  -7  -7    9.40    2.50
   3  -7   7    6.40    2.40
  -3  -7  -7    7.80    2.70
   3   7   7    9.80    3.00
   3   7   7   10.20    1.70
  -3   7  -7    9.60    2.90
   3   7   7    8.40    1.60
  -3   7  -7    9.10    2.90
  -3   7  -7   11.40    2.30
  -3   7  -7   11.10    3.30
   4  -7   7    0.90    1.30
  -4  -7  -7   -0.20    2.40
  -4  -7  -7    0.60    2.10
  -4  -7  -7    2.00    2.50
  -4   7  -7   -3.20    1.90
  -4   7  -7    3.50    2.80
  -4   7  -7   -1.80    1.40
  -5  -7  -7   18.60    3.00
   5  -7   7   10.60    2.20
  -5  -7  -7   16.30    3.70
  -5  -7  -7   26.60    6.00
  -5   7  -7   16.30    2.20
  -5   7  -7   13.90    3.90
  -5   7  -7   14.20    3.30
  -5  -8   7   15.00    3.70
  -5  -8   7   14.20    3.50
  -5  -8   7   24.60    3.20
  -5   8   7   20.90    4.00
  -5   8   7   21.00    4.00
  -5   8   7   18.30    3.80
  -4  -8   7    3.00    2.90
  -4  -8   7   -1.80    1.40
  -4  -8   7    5.60    3.50
  -4   8   7    1.00    2.20
  -4   8   7   -3.50    2.30
  -4   8   7    1.80    2.20
  -3  -8   7    4.20    2.90
   3  -8  -7    2.50    2.10
  -3  -8   7    2.80    1.80
  -3  -8   7    5.90    2.90
  -3  -8   7   -1.30    2.30
   3  -8  -7    4.40    1.40
  -3   8   7    5.30    2.30
  -3   8   7    5.90    2.50
   3   8  -7    1.50    2.80
  -3   8   7    3.80    2.50
  -3   8   7    4.20    2.50
  -2  -8   7    1.30    2.50
   2  -8  -7    1.50    1.80
  -2  -8   7   -0.30    2.20
  -2  -8   7   -0.30    2.10
   2  -8  -7    0.20    1.30
  -2  -8   7   -1.50    1.40
   2  -8  -7    0.80    2.10
   2   8  -7   -0.80    3.10
  -2   8   7    1.40    2.40
   2   8  -7    1.50    1.70
  -2   8   7    3.10    2.60
   2   8  -7   -0.70    1.20
  -2   8   7    2.60    2.20
  -2   8   7    2.00    2.20
   1  -8  -7   23.60    3.30
  -1  -8   7   31.70    5.00
  -1  -8   7   14.90    3.60
  -1  -8   7   20.50    3.80
   1  -8  -7   22.80    3.80
  -1  -8   7   18.90    3.00
   1   8  -7   16.20    3.60
   1   8  -7   16.60    2.20
  -1   8   7   13.10    2.90
  -1   8   7   20.90    3.70
  -1   8   7   24.10    3.90
   1   8  -7   18.80    3.20
  -1   8   7   15.70    3.20
   0  -8  -7    0.30    1.80
   0  -8   7    0.00    1.60
   0  -8  -7    3.70    2.10
   0  -8   7    0.70    2.20
   0  -8   7    1.70    1.80
   0  -8  -7    0.50    1.50
   0   8  -7    0.40    2.20
   0   8   7   -0.30    1.60
   0   8   7   -1.60    1.60
   0   8   7   -1.40    2.20
  -1  -8  -7    5.00    2.20
  -1  -8  -7    2.40    3.30
   1  -8   7    3.10    2.20
  -1  -8  -7    7.70    2.60
   1  -8   7    5.80    2.00
  -1   8  -7    5.10    2.00
  -1   8  -7    2.90    2.30
   1   8   7    2.70    2.20
   1   8   7    6.70    2.80
   1   8   7   -0.10    1.90
   1   8   7    2.40    1.70
   2  -8   7   12.20    3.60
  -2  -8  -7    9.70    3.30
  -2  -8  -7    9.50    2.80
   2  -8   7   14.00    2.40
   2  -8   7   12.00    3.40
   2   8   7   10.70    2.20
   2   8   7   11.50    3.20
  -2   8  -7    9.50    4.10
  -2   8  -7    9.10    3.20
   2   8   7   13.50    4.00
   2   8   7    5.10    2.60
  -3  -8  -7   -1.30    1.90
   3  -8   7   -0.80    1.60
  -3  -8  -7   -1.10    3.00
   3  -8   7   -0.30    1.30
   3   8   7   -0.20    1.00
  -3   8  -7   -1.00    2.30
  -3   8  -7   -1.70    2.30
   4  -8   7    6.50    2.20
  -4  -8  -7   -0.70    2.20
  -4  -8  -7   12.70    3.30
  -4  -8  -7    5.20    3.50
   4  -8   7    8.30    2.00
  -4   8  -7    5.10    2.80
  -4   8  -7    3.40    3.10
  -4  -9   7   12.00    2.40
  -4  -9   7   13.70    4.40
  -4  -9   7   22.60    5.00
  -4   9   7   14.10    3.80
  -4   9   7   11.30    3.80
  -4   9   7    6.50    3.50
  -3  -9   7    7.30    2.20
  -3  -9   7    4.90    2.50
  -3  -9   7   11.90    4.00
  -3   9   7    7.20    3.00
   3   9  -7    5.40    1.70
  -3   9   7   11.70    3.40
  -3   9   7    4.10    3.30
  -2  -9   7    1.20    1.60
  -2  -9   7    4.70    2.30
   2  -9  -7    0.90    1.40
  -2  -9   7    1.50    2.80
   2  -9  -7    1.40    1.60
  -2   9   7    0.10    2.20
   2   9  -7    0.10    1.80
   2   9  -7   -2.70    1.10
  -2   9   7    1.30    2.90
  -1  -9   7    1.20    2.10
  -1  -9   7    0.40    2.50
  -1  -9   7    1.00    1.90
   1  -9  -7   -0.30    1.60
   1  -9  -7    2.60    2.40
  -1   9   7    0.30    2.20
   1   9  -7    1.60    1.40
   1   9  -7   -3.70    2.10
  -1   9   7   -0.40    1.60
  -1   9   7    0.20    2.70
   0  -9  -7   -0.10    1.70
   0  -9   7    0.90    1.70
   0  -9  -7   -1.30    2.20
   0  -9   7    1.10    2.20
   0  -9   7    3.20    3.00
   0   9  -7   -2.30    2.10
   0   9   7   -4.40    5.60
   0   9   7   -2.30    1.30
   0   9   7    0.40    2.10
  -1  -9  -7   -0.40    2.40
   1  -9   7    1.60    1.80
  -1  -9  -7   -2.30    1.80
   1  -9   7    1.00    2.50
   1   9   7   -0.20    1.70
   1   9   7   -1.40    2.40
   1   9   7   -0.90    2.20
  -1   9  -7   -2.40    1.60
  -1   9  -7   -2.90    2.30
   2  -9   7    4.20    2.10
  -2  -9  -7    6.10    3.30
   2  -9   7    3.70    2.50
   2   9   7    4.50    1.70
  -2   9  -7    9.60    2.80
  -2   9  -7    4.50    3.00
  -3  -9  -7    1.80    3.20
   3  -9   7    0.00    1.40
   3  -9   7   -4.40    2.00
  -3   9  -7    0.50    2.50
  -3   9  -7   -1.50    2.70
  -2 -10   7   -2.90    2.10
  -2 -10   7    4.30    3.30
   2 -10  -7   -0.40    1.70
  -2 -10   7    6.20    2.40
   2 -10  -7    3.50    2.20
   2  10  -7    0.90    2.30
  -2  10   7   -0.30    2.40
  -2  10   7   -1.50    2.50
   1 -10  -7   -2.10    1.60
  -1 -10   7   -2.40    1.70
   1 -10  -7    2.00    2.30
  -1 -10   7    5.80    2.30
  -1 -10   7    5.80    2.90
  -1  10   7    3.10    3.20
  -1  10   7   -0.80    1.90
   1  10  -7   -0.20    2.10
   0 -10  -7    1.20    2.20
   0 -10   7    3.70    3.00
   0 -10  -7    2.50    2.60
   0 -10   7    0.90    2.10
   0  10  -7    5.10    1.70
   0  10   7    2.30    2.10
   0  10  -7   -0.90    2.70
   0  10   7   -2.40    2.50
   1 -10   7    0.20    1.90
  -1 -10  -7   -1.30    2.60
  -1  10  -7   -1.80    2.70
   1  10   7   -1.60    2.40
  -8   0   8    1.00    1.80
  -8   0   8   -2.10    1.40
  -8   0   8   -0.30    1.80
  -8   0   8   -1.80    2.20
  -8   0   8   -3.10    1.50
  -7   0   8   31.40    3.90
  -7   0   8   33.20    4.40
  -7   0   8   33.90    4.70
  -7   0   8   33.50    3.80
  -7   0   8   36.00    5.10
  -6   0   8   40.80    5.20
  -6   0   8   29.50    4.20
  -6   0   8   41.30    3.80
  -6   0   8   35.30    4.80
  -6   0   8   32.80    3.70
  -5   0   8   30.20    4.00
  -5   0   8   35.40    3.30
  -5   0   8   34.00    3.40
  -4   0   8  772.32   17.40
  -4   0   8  776.72   18.90
   4   0  -8  771.62   17.70
   3   0  -8    0.60    1.20
  -3   0   8    1.50    1.10
  -3   0   8   -0.50    1.10
  -3   0   8   -0.80    1.30
  -2   0   8 1998.30   36.70
   2   0  -8 1942.91   36.70
  -2   0   8 1945.21   34.90
  -2   0   8 1921.11   37.60
   1   0  -8 3013.80   52.19
  -1   0   8 2960.20   54.19
   1   0  -8 2961.50   53.69
  -1   0   8 3080.49   53.89
  -1   0   8 2950.40   52.29
   1   0  -8 2918.21   51.79
   0   0   8  191.28    7.80
   0   0   8  189.28    6.20
   0   0   8  187.08    7.50
   0   0  -8  197.58    6.40
   1   0   8   94.29    4.30
  -1   0  -8  104.99    4.90
   1   0   8   95.59    4.80
   1   0   8   91.99    5.30
  -1   0  -8  101.09    5.00
   1   0   8   92.79    4.90
   2   0   8    1.70    1.30
  -2   0  -8   -0.50    1.30
  -2   0  -8    4.60    1.70
   2   0   8    0.50    0.90
   2   0   8    0.50    1.20
   2   0   8    1.00    1.40
   3   0   8   44.20    4.20
  -3   0  -8   39.70    3.80
   3   0   8   43.60    2.30
   3   0   8   43.40    4.40
  -3   0  -8   46.00    4.60
  -3   0  -8   43.40    5.00
   4   0   8   11.30    2.30
  -4   0  -8   11.50    2.90
  -4   0  -8   13.80    2.80
  -4   0  -8   12.10    2.70
   4   0   8   10.80    2.30
  -5   0  -8  325.67   12.00
   5   0   8  316.67   11.90
  -5   0  -8  320.07   11.20
  -5   0  -8  334.77   12.60
  -6   0  -8  165.78    9.60
  -6   0  -8  148.09    7.70
  -6   0  -8  156.28    8.80
   6   0   8  150.28    8.90
  -7   0  -8   15.60    4.20
  -7   0  -8   15.40    3.40
  -7   0  -8   17.80    3.30
   7   0   8   16.10    3.20
  -8  -1   8   12.80    2.50
  -8  -1   8   16.60    3.10
  -8  -1   8   14.30    3.00
  -8  -1   8   13.40    3.50
  -8   1   8   14.30    3.20
  -8   1   8   16.00    2.50
  -8   1   8   11.60    2.70
  -8   1   8   13.60    2.80
  -8   1   8   15.70    3.30
  -7  -1   8   44.40    4.40
  -7  -1   8   37.80    3.60
  -7  -1   8   42.10    4.90
  -7  -1   8   44.60    5.10
  -7  -1   8   38.50    5.00
  -7   1   8   36.40    3.60
  -7   1   8   40.20    4.40
  -7   1   8   42.40    4.70
  -7   1   8   39.20    5.60
  -7   1   8   49.10    5.00
  -6  -1   8    2.70    1.90
  -6  -1   8    0.10    1.10
  -6  -1   8    0.50    1.90
  -6  -1   8    0.00    1.70
  -6  -1   8    1.20    1.60
  -6   1   8    0.50    1.60
  -6   1   8    1.80    1.50
  -6   1   8   -0.60    1.70
  -6   1   8    0.90    1.60
  -5  -1   8   37.20    3.70
  -5  -1   8   35.80    3.80
  -5  -1   8   31.60    4.40
  -5  -1   8   37.00    2.90
  -5   1   8   40.30    4.20
  -5   1   8   36.30    3.30
  -4  -1   8    2.90    1.60
   4  -1  -8    1.70    1.30
  -4  -1   8    1.80    1.00
  -4  -1   8    0.70    1.50
  -4  -1   8    1.20    1.30
   4   1  -8    1.10    1.50
  -4   1   8    1.60    1.70
  -4   1   8    1.20    1.10
   4   1  -8    0.00    1.40
  -3  -1   8  674.63   14.00
   3  -1  -8  683.63   15.20
  -3  -1   8  669.73   16.70
  -3  -1   8  675.93   15.80
  -3  -1   8  671.73   12.80
  -3   1   8  669.33   15.00
   3   1  -8  686.53   14.20
  -3   1   8  672.73   16.80
  -3   1   8  674.83   14.50
  -2  -1   8  759.92   17.70
  -2  -1   8  741.13   16.80
   2  -1  -8  777.82   17.80
  -2  -1   8  744.83   14.30
   2  -1  -8  739.23   16.30
  -2   1   8  756.72   16.40
   2   1  -8  749.92   15.20
  -2   1   8  762.82   17.80
  -2   1   8  747.93   15.80
   2   1  -8  754.32   17.10
  -1  -1   8   42.60    3.30
  -1  -1   8   36.70    4.00
  -1  -1   8   36.90    2.40
   1  -1  -8   33.60    3.00
  -1  -1   8   30.80    3.30
   1  -1  -8   36.80    3.10
   1  -1  -8   42.00    3.40
   1   1  -8   40.90    3.20
   1   1  -8   36.70    2.90
   1   1  -8   39.60    2.60
  -1   1   8   33.10    3.10
  -1   1   8   39.80    3.20
  -1   1   8   31.90    3.20
   0  -1  -8  719.93   16.10
   0  -1  -8  681.53   15.80
   0  -1   8  709.93   15.20
   0  -1   8  684.53   17.10
   0  -1  -8  712.93   15.60
   0  -1   8  721.63   16.20
   0   1  -8  725.53   15.10
   0   1   8  689.83   16.30
   0   1   8  706.73   16.20
   0   1   8  704.33   15.70
   0   1  -8  726.23   16.00
   0   1  -8  699.43   16.00
   1  -1   8    4.50    1.50
   1  -1   8    0.90    1.40
   1  -1   8    1.60    1.20
  -1  -1  -8    1.60    1.20
   1  -1   8    2.10    1.00
  -1  -1  -8    1.10    1.20
  -1  -1  -8    2.70    1.20
   1   1   8    0.90    1.20
   1   1   8    3.80    1.50
  -1   1  -8    3.70    1.40
   1   1   8    2.80    1.20
   1   1   8    1.50    1.40
  -1   1  -8    2.90    1.50
  -2  -1  -8    4.30    1.30
   2  -1   8    1.00    1.20
   2  -1   8    1.50    1.00
  -2  -1  -8    0.80    1.50
   2  -1   8    3.40    1.60
  -2  -1  -8    3.70    1.70
   2  -1   8    0.70    1.40
   2   1   8    1.50    1.70
  -2   1  -8    0.90    1.50
   2   1   8    1.20    1.00
  -2   1  -8    3.40    1.50
   2   1   8    2.80    1.40
  -2   1  -8    1.70    1.40
   3  -1   8    7.90    2.10
  -3  -1  -8    9.40    2.30
  -3  -1  -8    9.60    2.20
   3  -1   8    9.20    2.30
   3   1   8   10.50    1.40
  -3   1  -8    7.80    2.30
   3   1   8   10.90    2.10
  -3   1  -8   10.00    2.10
  -3   1  -8    8.40    1.90
   3   1   8    8.30    1.90
  -4  -1  -8  174.38    8.50
   4  -1   8  178.18    8.70
   4  -1   8  179.08    8.70
  -4  -1  -8  178.28    8.00
  -4   1  -8  174.28    8.50
   4   1   8  188.28    9.00
   4   1   8  181.48    7.90
  -4   1  -8  172.98    7.50
  -4   1  -8  192.28    9.20
  -5  -1  -8   74.79    5.60
  -5  -1  -8   78.59    6.80
   5  -1   8   80.09    6.70
  -5   1  -8   85.69    7.00
   5   1   8   74.09    5.70
  -5   1  -8   78.89    5.50
  -5   1  -8   82.39    7.20
  -6  -1  -8   12.00    3.50
  -6  -1  -8   17.10    3.10
  -6  -1  -8   14.90    4.10
   6  -1   8   15.60    3.20
  -6   1  -8   14.20    3.40
  -6   1  -8   18.00    3.00
   6   1   8   14.20    2.70
  -6   1  -8   14.40    3.20
   7  -1   8   -1.70    2.80
  -7  -1  -8   -5.40    2.70
  -7  -1  -8   -0.20    2.20
  -7   1  -8   -4.90    2.20
  -7   1  -8    1.30    1.90
   7   1   8   -0.80    1.80
  -8  -2   8   13.40    2.70
  -8  -2   8   15.10    2.40
  -8  -2   8   12.30    3.10
  -8  -2   8   12.30    2.80
  -8  -2   8   16.70    3.90
  -8   2   8   14.50    2.10
  -8   2   8   16.80    3.10
  -8   2   8   23.70    3.70
  -8   2   8   13.10    3.40
  -8   2   8   15.50    5.00
  -7  -2   8   28.40    4.20
  -7  -2   8   24.40    3.00
  -7  -2   8   43.60    4.90
  -7  -2   8   35.80    5.30
  -7  -2   8   29.30    4.70
  -7   2   8   34.10    3.20
  -7   2   8   20.20    4.40
  -7   2   8   35.20    3.70
  -7   2   8   35.10    4.70
  -7   2   8   40.60    4.90
  -6  -2   8   29.60    4.30
  -6  -2   8   28.10    3.90
  -6  -2   8   24.60    3.60
  -6  -2   8   24.80    2.50
  -6   2   8   26.10    2.90
  -6   2   8   18.80    3.50
  -6   2   8   26.90    3.00
  -6   2   8   29.20    4.20
  -5  -2   8  112.39    6.30
  -5  -2   8  120.19    7.10
  -5  -2   8  121.69    6.10
  -5   2   8  129.19    6.90
  -5   2   8  122.79    8.00
  -5   2   8  122.99    5.00
   4  -2  -8  122.49    6.60
  -4  -2   8  111.69    6.00
   4  -2  -8  120.39    5.00
   4   2  -8  117.79    6.20
   4   2  -8  123.29    5.70
  -4   2   8  114.49    6.30
   3  -2  -8  118.89    4.80
  -3  -2   8  115.59    5.70
  -3  -2   8  119.59    5.20
   3  -2  -8  115.69    7.10
  -3   2   8  116.29    6.10
   3   2  -8  118.29    5.20
   3   2  -8  118.49    6.20
  -3   2   8  111.29    5.20
  -2  -2   8  453.45   11.30
  -2  -2   8  456.15   12.20
   2  -2  -8  466.25   12.70
   2  -2  -8  454.55   11.20
  -2  -2   8  461.35   12.90
   2   2  -8  464.55   12.40
  -2   2   8  471.45   12.70
  -2   2   8  458.15   11.40
   2   2  -8  458.75   11.30
  -2   2   8  468.15   11.50
  -1  -2   8  309.87    9.20
   1  -2  -8  324.97    9.00
  -1  -2   8  307.57    7.40
   1  -2  -8  315.87    9.70
   1  -2  -8  305.67    8.70
  -1  -2   8  323.97   10.30
   1  -2  -8  320.87    7.50
   1   2  -8  310.87    8.90
   1   2  -8  304.87    9.30
  -1   2   8  314.27    8.90
   1   2  -8  315.87    7.20
  -1   2   8  309.97    9.00
  -1   2   8  312.47    9.60
   0  -2  -8  378.56   10.40
   0  -2  -8  374.36    9.90
   0  -2   8  370.56   11.40
   0  -2  -8  371.76   10.50
   0  -2   8  369.16   10.30
   0  -2   8  364.06    9.40
   0  -2  -8  370.66   10.30
   0   2  -8  364.76   10.40
   0   2   8  363.16   10.20
   0   2   8  370.16   10.50
   0   2  -8  375.86   10.40
   0   2  -8  387.46    9.30
   0   2   8  387.06   10.50
  -1  -2  -8  645.14   15.90
   1  -2   8  627.64   14.80
  -1  -2  -8  627.44   15.20
  -1  -2  -8  627.84   14.70
   1  -2   8  622.54   16.50
  -1  -2  -8  607.54   15.20
   1  -2   8  643.54   15.20
   1   2   8  622.94   15.20
  -1   2  -8  633.54   14.60
   1   2   8  650.53   14.80
  -1   2  -8  621.94   16.60
   1   2   8  616.94   15.50
  -1   2  -8  630.74   15.00
   2  -2   8  120.09    6.10
   2  -2   8  123.59    4.80
  -2  -2  -8  122.09    5.90
  -2  -2  -8  112.49    4.90
  -2  -2  -8  112.19    6.20
   2  -2   8  120.99    6.80
   2  -2   8  118.49    5.60
  -2  -2  -8  114.69    6.60
   2   2   8  121.39    5.90
  -2   2  -8  119.89    6.00
  -2   2  -8  117.99    7.00
   2   2   8  115.09    5.10
   2   2   8  119.09    6.00
  -2   2  -8  110.79    5.30
  -3  -2  -8   75.89    6.30
  -3  -2  -8   72.89    5.60
   3  -2   8   75.09    5.50
   3  -2   8   67.89    5.60
  -3  -2  -8   65.29    4.80
   3  -2   8   71.49    4.80
  -3  -2  -8   73.79    3.80
   3  -2   8   71.29    3.20
  -3   2  -8   79.29    6.70
   3   2   8   75.79    3.80
   3   2   8   72.19    5.30
  -3   2  -8   76.89    5.70
   3   2   8   80.59    5.00
  -3   2  -8   69.89    5.40
  -4  -2  -8   24.30    3.70
  -4  -2  -8   24.50    2.40
  -4  -2  -8   16.00    3.20
  -4  -2  -8   18.80    3.80
   4  -2   8   15.40    2.80
  -4   2  -8   23.70    3.50
   4   2   8   26.90    3.60
  -4   2  -8   23.50    3.20
  -4   2  -8   17.40    3.10
   4   2   8   19.20    3.00
  -5  -2  -8   42.00    6.10
  -5  -2  -8   45.60    5.90
   5  -2   8   54.19    6.10
  -5  -2  -8   48.80    5.10
   5   2   8   42.30    4.30
  -5   2  -8   47.40    6.40
  -5   2  -8   49.00    4.40
  -5   2  -8   54.29    6.20
   5   2   8   47.30    6.60
  -6  -2  -8    7.70    2.40
  -6  -2  -8    2.60    2.90
  -6  -2  -8    0.80    2.60
   6   2   8    0.20    2.70
  -6   2  -8    7.20    3.00
  -6   2  -8    4.80    2.80
  -6   2  -8    8.40    2.30
   7  -2   8   -6.30    3.20
  -7  -2  -8   -1.20    3.10
  -7  -2  -8   -2.30    2.40
   7   2   8   -3.10    1.70
  -7   2  -8   -3.20    2.00
  -8  -3   8    2.00    2.50
  -8  -3   8    1.10    2.20
  -8  -3   8   -2.90    1.40
  -8  -3   8    0.70    3.30
  -8  -3   8    4.40    1.80
  -8   3   8    4.50    2.10
  -8   3   8    6.90    2.80
  -8   3   8    0.20    2.20
  -8   3   8    1.40    2.00
  -7  -3   8    1.00    2.00
  -7  -3   8   -0.50    2.40
  -7  -3   8    0.70    1.40
  -7  -3   8    2.90    3.90
  -7  -3   8    0.30    1.30
  -7   3   8    0.50    2.00
  -7   3   8    3.30    1.80
  -7   3   8    3.90    1.50
  -7   3   8    1.00    1.90
  -6  -3   8    0.40    2.40
  -6  -3   8   -0.40    1.50
  -6   3   8    3.10    2.30
  -6   3   8    0.30    1.00
  -6   3   8    2.50    1.80
  -5  -3   8   42.40    4.70
  -5  -3   8   45.70    4.60
  -5  -3   8   43.40    4.60
   5  -3  -8   39.40    4.60
  -5   3   8   42.10    5.70
  -5   3   8   45.50    4.80
   5   3  -8   45.70    4.90
  -5   3   8   34.80    2.90
   4  -3  -8  108.49    6.30
  -4  -3   8  114.49    6.10
  -4  -3   8   98.79    5.80
  -4  -3   8  102.09    6.00
   4  -3  -8  105.39    4.50
   4   3  -8  102.49    5.90
  -4   3   8  104.59    7.30
  -4   3   8  108.59    4.50
  -4   3   8  105.69    6.20
  -3  -3   8   25.30    3.70
   3  -3  -8   25.70    2.50
  -3  -3   8   24.20    3.40
   3  -3  -8   18.00    2.70
  -3  -3   8   21.00    3.40
   3   3  -8   21.80    3.40
  -3   3   8   17.10    2.60
   3   3  -8   25.80    3.70
  -3   3   8   20.20    2.80
  -3   3   8   23.60    2.60
   2  -3  -8    0.40    0.90
  -2  -3   8    0.90    1.60
  -2  -3   8    0.30    1.50
  -2  -3   8    1.00    1.40
  -2   3   8    2.30    1.40
  -2   3   8    1.20    1.20
  -2   3   8    0.50    1.50
   2   3  -8    1.10    1.60
  -1  -3   8    5.80    1.50
  -1  -3   8    7.60    2.00
   1  -3  -8    7.70    1.90
   1  -3  -8    9.50    1.70
  -1  -3   8    9.30    2.40
   1  -3  -8    6.40    1.50
  -1   3   8    4.70    1.50
   1   3  -8    6.60    1.10
   1   3  -8    8.80    2.30
  -1   3   8    5.80    1.80
   1   3  -8    8.40    2.20
   0  -3  -8  270.57    8.90
   0  -3   8  258.07    9.60
   0  -3  -8  261.27    8.80
   0  -3  -8  267.67    8.20
   0  -3   8  261.27    8.50
   0  -3  -8  257.87    8.40
   0   3  -8  270.07    9.10
   0   3   8  268.87    8.90
   0   3  -8  261.27    7.40
   0   3  -8  276.07   10.00
   0   3  -8  261.07    8.60
  -1  -3  -8    4.70    1.50
  -1  -3  -8    4.20    1.30
   1  -3   8    2.60    1.60
  -1  -3  -8    6.10    2.20
   1  -3   8    3.90    1.70
  -1  -3  -8    2.30    1.80
  -1   3  -8    4.80    1.60
  -1   3  -8    0.90    1.20
  -1   3  -8    3.00    1.90
  -1   3  -8    2.80    1.90
   1   3   8    3.90    1.50
   1   3   8    0.40    1.30
  -2  -3  -8   33.70    3.30
   2  -3   8   33.70    3.50
  -2  -3  -8   30.80    4.40
  -2  -3  -8   26.10    3.40
  -2  -3  -8   28.50    4.30
   2  -3   8   35.00    4.60
   2   3   8   28.80    3.70
  -2   3  -8   34.00    4.00
  -2   3  -8   29.10    3.20
   2   3   8   30.10    3.60
  -2   3  -8   37.40    5.20
  -2   3  -8   30.10    4.20
   2   3   8   31.60    3.20
   3  -3   8   31.60    3.90
  -3  -3  -8   38.00    4.40
  -3  -3  -8   38.30    3.30
   3  -3   8   41.60    5.00
  -3  -3  -8   38.90    5.30
   3  -3   8   38.10    2.90
  -3  -3  -8   40.90    5.10
   3   3   8   38.50    3.90
  -3   3  -8   41.00    5.00
   3   3   8   35.50    4.40
  -3   3  -8   44.10    6.10
   3   3   8   39.50    3.50
  -4  -3  -8   43.10    5.20
  -4  -3  -8   37.80    5.70
   4  -3   8   46.50    5.70
  -4  -3  -8   36.90    3.10
   4   3   8   44.30    5.20
   4   3   8   38.50    3.70
  -4   3  -8   43.90    5.60
  -4   3  -8   33.10    3.90
  -5  -3  -8    1.30    1.10
  -5  -3  -8    1.50    3.10
  -5  -3  -8    0.20    2.30
  -5  -3  -8    1.90    2.50
   5   3   8    1.10    2.10
  -5   3  -8    4.20    2.60
  -5   3  -8    2.30    2.40
   5   3   8    2.10    1.30
  -5   3  -8    1.00    1.60
  -6  -3  -8    0.20    2.70
  -6  -3  -8    5.90    3.30
  -6   3  -8   -2.90    2.30
  -6   3  -8    0.10    2.50
  -6   3  -8   -2.10    1.50
   6   3   8    0.60    1.30
  -8  -4   8   -0.80    2.40
  -8  -4   8   -3.10    2.20
  -8  -4   8   -1.20    2.80
  -8   4   8   -3.00    1.70
  -8   4   8    0.50    2.10
  -8   4   8    0.10    2.20
  -7  -4   8    3.90    1.70
  -7  -4   8    1.80    2.10
  -7  -4   8    2.10    2.80
  -7  -4   8    1.30    1.50
  -7   4   8    7.80    1.90
  -7   4   8    7.60    2.90
  -7   4   8    6.00    2.90
  -6  -4   8   -0.50    1.40
   6  -4  -8    1.40    1.80
  -6  -4   8    2.80    2.60
  -6  -4   8    0.50    2.20
   6   4  -8    4.40    2.40
  -6   4   8   -1.50    1.80
  -6   4   8    3.70    2.10
  -5  -4   8   11.70    2.20
  -5  -4   8   14.00    3.00
   5  -4  -8   11.40    2.60
  -5  -4   8   10.40    2.90
  -5   4   8    9.90    2.70
  -5   4   8   13.70    2.70
   5   4  -8   19.80    4.00
   4  -4  -8   13.10    2.60
   4  -4  -8   20.80    2.40
  -4  -4   8   11.10    2.10
  -4  -4   8   22.60    3.90
  -4  -4   8   17.20    3.20
   4   4  -8   20.00    3.30
  -4   4   8   12.00    2.80
  -4   4   8   17.30    3.00
  -3  -4   8  318.37   10.40
  -3  -4   8  312.47   10.60
  -3  -4   8  314.17   10.60
   3  -4  -8  319.57   11.20
   3  -4  -8  312.67    8.30
   3   4  -8  309.07   10.80
  -3   4   8  316.37   11.00
   3   4  -8  322.77   10.80
  -3   4   8  307.87   10.10
  -3   4   8  305.27   12.40
   2  -4  -8   44.80    3.20
   2  -4  -8   41.30    4.10
  -2  -4   8   44.20    4.60
  -2  -4   8   51.69    4.60
  -2  -4   8   49.50    4.20
  -2   4   8   48.90    4.40
  -2   4   8   43.50    3.00
   2   4  -8   41.90    4.20
  -2   4   8   48.20    4.50
   2   4  -8   49.80    4.60
  -1  -4   8   -1.70    1.50
  -1  -4   8    0.40    1.30
   1  -4  -8    0.70    1.30
   1  -4  -8    2.40    1.50
  -1  -4   8    1.70    1.50
   1  -4  -8    1.30    1.40
   1   4  -8    1.80    1.00
   1   4  -8    0.10    1.40
   1   4  -8    0.60    1.50
   1   4  -8    3.30    1.70
  -1   4   8    1.90    1.70
  -1   4   8    3.70    1.80
   0  -4  -8  245.28    8.20
   0  -4  -8  236.68    8.70
   0  -4  -8  260.37    9.60
   0  -4  -8  247.38    8.40
   0  -4   8  244.18    9.70
   0  -4   8  245.68    8.40
   0   4  -8  245.68    7.50
   0   4  -8  237.28   10.80
   0   4   8  238.88    8.90
   0   4  -8  203.58   11.60
   0   4   8  232.28    8.70
   0   4  -8  252.17   10.00
   1  -4   8    2.00    1.70
  -1  -4  -8    1.60    1.80
   1  -4   8    0.90    1.30
  -1  -4  -8    2.50    2.00
  -1  -4  -8    0.60    1.60
  -1  -4  -8   -0.90    1.80
   1   4   8    1.00    1.40
   1   4   8    2.40    1.60
  -1   4  -8    5.70    2.10
  -1   4  -8    2.40    1.50
  -1   4  -8    2.80    1.60
  -1   4  -8    0.00    1.80
   2  -4   8  315.17    9.80
  -2  -4  -8  303.67   11.50
  -2  -4  -8  300.67    9.70
   2  -4   8  295.07   11.90
  -2  -4  -8  301.57   10.90
  -2  -4  -8  299.67   10.50
  -2   4  -8  304.27   11.00
   2   4   8  300.37    9.80
   2   4   8  293.57    9.60
  -2   4  -8  310.07   10.40
  -2   4  -8  307.67   12.20
   2   4   8  282.17   10.30
  -2   4  -8  289.17   11.30
  -3  -4  -8  342.07   10.60
   3  -4   8  354.06    9.60
  -3  -4  -8  370.66   12.50
   3  -4   8  361.56   13.90
  -3  -4  -8  358.66   13.70
   3  -4   8  375.26   10.90
  -3   4  -8  348.57   13.30
   3   4   8  346.97   10.30
  -3   4  -8  381.16   14.30
  -3   4  -8  370.36   12.50
  -3   4  -8  358.66   12.20
   3   4   8  359.56   12.40
   3   4   8  341.87   10.60
  -4  -4  -8  237.48   11.10
   4  -4   8  231.18    6.50
  -4  -4  -8  228.28    8.10
   4   4   8  228.38    7.70
  -4   4  -8  281.97   17.30
  -4   4  -8  223.38    8.20
  -4   4  -8  242.58   14.90
  -5  -4  -8  121.19    5.30
  -5  -4  -8  111.89    9.20
  -5  -4  -8  127.49    8.10
  -5  -4  -8  105.89    7.90
   5  -4   8  112.99    8.80
  -5   4  -8  123.09    9.50
   5   4   8  108.09    8.20
  -5   4  -8  123.49    8.70
   5   4   8  109.89    5.10
  -5   4  -8  117.89    5.90
  -6  -4  -8    9.20    4.40
  -6  -4  -8   11.80    3.80
  -6   4  -8    9.90    2.10
  -6   4  -8    6.50    3.40
  -7  -5   8   23.20    4.50
  -7  -5   8   15.80    2.20
  -7  -5   8   20.40    3.20
  -7  -5   8   26.00    4.90
   7  -5  -8   15.40    3.30
  -7   5   8   18.60    3.30
  -7   5   8   26.10    3.50
  -7   5   8   21.90    4.40
  -6  -5   8   13.70    2.20
  -6  -5   8   25.90    4.90
  -6  -5   8   12.90    3.50
  -6   5   8   14.00    3.10
  -6   5   8   14.80    2.30
  -6   5   8   13.90    3.50
   6   5  -8   24.20    4.30
   5  -5  -8    9.20    2.60
  -5  -5   8    8.60    3.10
  -5  -5   8    5.50    1.70
  -5  -5   8    4.20    2.60
  -5   5   8    8.50    2.90
  -5   5   8    7.20    2.40
  -5   5   8    8.80    1.90
   5   5  -8    9.60    2.90
  -4  -5   8   70.49    5.10
  -4  -5   8   74.99    5.80
  -4  -5   8   83.69    6.30
   4  -5  -8   82.79    6.10
  -4   5   8   82.89    6.20
   4   5  -8   82.69    6.30
  -4   5   8   89.49    7.40
   3  -5  -8    3.40    1.20
   3  -5  -8    0.90    1.70
  -3  -5   8    0.40    1.60
  -3  -5   8    1.50    2.10
  -3  -5   8    2.00    1.50
  -3   5   8    1.20    1.70
  -3   5   8    2.10    1.50
  -3   5   8    1.10    1.90
   3   5  -8    0.20    2.00
  -3   5   8    1.30    2.00
  -2  -5   8   79.09    5.30
   2  -5  -8   75.09    4.10
  -2  -5   8   70.99    5.80
   2  -5  -8   73.99    4.10
   2  -5  -8   63.69    5.20
  -2  -5   8   52.79    7.70
   2   5  -8   79.59    5.80
  -2   5   8   69.59    5.60
   2   5  -8   68.39    5.50
  -2   5   8   70.39    4.20
  -2   5   8   75.09    6.40
  -2   5   8   74.79    5.50
  -1  -5   8   13.00    2.90
  -1  -5   8   10.20    2.00
   1  -5  -8   20.80    3.00
  -1  -5   8   13.60    2.50
   1  -5  -8   15.10    2.60
   1  -5  -8   18.10    2.60
  -1   5   8   14.20    2.90
  -1   5   8   12.30    2.30
   1   5  -8   19.60    3.40
   1   5  -8   21.10    3.30
   1   5  -8   19.60    2.30
   1   5  -8   12.60    2.50
  -1   5   8   19.80    2.90
  -1   5   8   14.70    2.90
   0  -5  -8  106.89    5.60
   0  -5   8  114.19    7.10
   0  -5  -8  105.49    6.40
   0  -5   8  112.39    5.90
   0  -5  -8  112.69    6.20
   0   5  -8  109.09    6.80
   0   5   8  109.39    6.60
   0   5   8  120.99    6.30
   0   5  -8  119.69    7.50
   0   5  -8  100.19    6.00
   0   5  -8  107.59    5.20
   1  -5   8  359.06   13.40
   1  -5   8  360.16   10.90
  -1  -5  -8  356.76   11.90
  -1  -5  -8  375.96   12.30
  -1  -5  -8  354.36   11.60
  -1  -5  -8  354.76   12.00
  -1   5  -8  346.37   12.60
   1   5   8  357.96   11.90
  -1   5  -8  376.16   13.60
   1   5   8  366.76   11.90
  -1   5  -8  374.06   11.10
  -1   5  -8  374.96   11.30
  -2  -5  -8   46.90    5.80
  -2  -5  -8   42.70    5.90
   2  -5   8   51.59    4.30
  -2  -5  -8   43.70    4.80
  -2  -5  -8   49.99    5.30
   2  -5   8   46.00    4.10
  -2   5  -8   54.49    6.80
  -2   5  -8   46.00    4.50
  -2   5  -8   49.50    5.90
   2   5   8   46.70    4.90
  -2   5  -8   47.20    5.00
   2   5   8   53.79    5.50
  -3  -5  -8   98.79    7.50
   3  -5   8   87.89    4.90
  -3  -5  -8   94.69    5.80
  -3  -5  -8   95.89    7.90
   3  -5   8  101.39    5.50
  -3   5  -8   93.09    5.40
   3   5   8   95.29    5.80
  -3   5  -8  102.59    7.00
   3   5   8   94.89    5.10
  -4  -5  -8   62.39    6.90
   4  -5   8   62.39    3.80
  -4  -5  -8   62.59    4.60
  -4  -5  -8   68.49    7.00
   4  -5   8   62.89    4.50
   4  -5   8   46.30    6.60
  -4   5  -8   59.89    4.40
  -4   5  -8   60.09    7.60
  -4   5  -8   63.99    6.50
   4   5   8   61.79    3.80
   4   5   8   54.49    6.30
  -5  -5  -8   10.40    3.60
  -5  -5  -8   10.40    2.90
  -5  -5  -8   11.60    2.30
  -5   5  -8   10.40    3.30
  -5   5  -8   15.10    3.40
  -5   5  -8   10.50    2.20
  -6  -5  -8   13.10    3.70
  -6  -5  -8    9.70    4.20
  -6   5  -8    5.00    3.30
  -6   5  -8   17.10    4.00
  -6   5  -8    9.60    2.10
  -7  -6   8    1.90    3.00
  -7  -6   8    6.60    3.50
  -7   6   8    2.10    2.90
  -7   6   8    2.40    2.50
  -7   6   8    8.30    2.80
  -6  -6   8   20.80    3.30
  -6  -6   8   27.50    5.30
  -6  -6   8   22.60    4.30
   6   6  -8   28.80    5.20
  -6   6   8   26.20    3.20
  -6   6   8   22.00    3.60
  -6   6   8   13.40    3.50
  -5  -6   8    5.80    1.70
  -5  -6   8   10.00    6.30
  -5  -6   8   10.00    3.40
  -5   6   8   11.30    2.80
  -5   6   8    6.00    2.00
  -5   6   8    7.00    2.80
   4  -6  -8   11.40    3.00
  -4  -6   8   19.40    3.10
  -4  -6   8   15.80    2.50
  -4  -6   8   20.10    3.30
  -4   6   8   24.20    3.60
   4   6  -8   32.50    5.50
  -4   6   8   21.60    3.00
  -4   6   8   18.60    3.90
  -3  -6   8   17.90    3.60
  -3  -6   8   19.30    3.60
  -3  -6   8   14.70    2.70
   3  -6  -8   23.10    3.70
  -3   6   8   21.20    3.30
  -3   6   8   15.20    3.20
  -3   6   8   15.50    2.90
   3   6  -8   14.50    3.20
  -3   6   8   15.10    3.00
  -2  -6   8   -1.10    1.30
   2  -6  -8    1.50    1.10
   2  -6  -8   -2.60    1.60
  -2  -6   8   -0.90    1.30
   2  -6  -8   -0.60    1.30
  -2  -6   8    1.10    2.30
  -2   6   8   -2.50    1.60
  -2   6   8   -0.80    1.40
  -2   6   8   -1.50    1.60
   2   6  -8    0.20    2.00
  -2   6   8   -2.40    1.40
   1  -6  -8    0.20    1.70
   1  -6  -8   -0.20    1.60
  -1  -6   8    1.80    1.60
   1  -6  -8    1.10    1.70
  -1  -6   8    0.90    1.60
  -1  -6   8    2.00    2.00
   1   6  -8    0.40    1.90
  -1   6   8   -0.10    1.70
   1   6  -8    0.20    1.10
   1   6  -8    0.40    2.00
   1   6  -8   -1.90    1.80
  -1   6   8    1.90    1.60
  -1   6   8   -1.70    1.80
  -1   6   8    0.40    1.70
   0  -6  -8   18.30    2.60
   0  -6  -8   28.80    4.00
   0  -6  -8   22.20    3.40
   0  -6   8   33.60    3.90
   0   6  -8   32.50    3.60
   0   6  -8   20.70    3.50
   0   6   8   21.90    3.50
   0   6   8   31.60    4.50
   0   6  -8   21.90    3.50
   0   6  -8   22.70    3.10
   0   6   8   26.50    4.30
   0   6   8   21.70    3.50
   1  -6   8   59.39    6.10
  -1  -6  -8   46.90    5.30
  -1  -6  -8   47.40    4.70
  -1  -6  -8   49.90    5.50
   1  -6   8   46.60    4.60
   1  -6   8   53.19    4.40
  -1  -6  -8   45.90    5.40
  -1   6  -8   52.99    4.70
  -1   6  -8   53.89    5.50
   1   6   8   51.29    5.40
   1   6   8   51.59    5.20
   1   6   8   58.39    5.20
  -1   6  -8   47.50    4.70
  -1   6  -8   50.59    6.60
   2  -6   8   13.30    2.60
  -2  -6  -8   10.80    2.50
  -2  -6  -8   18.40    3.00
  -2  -6  -8   11.90    3.10
   2  -6   8   19.20    2.80
  -2  -6  -8   16.90    4.10
  -2   6  -8   17.60    3.00
   2   6   8   14.80    2.40
   2   6   8   14.30    2.90
  -2   6  -8   13.60    4.90
  -2   6  -8   15.70    2.70
  -3  -6  -8    9.30    2.30
  -3  -6  -8   12.00    3.30
  -3  -6  -8   11.00    3.10
  -3  -6  -8   13.40    4.70
   3  -6   8   13.50    2.50
   3  -6   8    9.30    2.10
   3   6   8    9.80    2.40
  -3   6  -8    8.80    2.80
   3   6   8    9.00    1.80
   3   6   8    8.00    2.70
  -3   6  -8    8.70    3.50
  -3   6  -8   11.10    2.30
  -4  -6  -8    4.80    2.00
  -4  -6  -8    3.90    2.70
   4  -6   8    4.50    1.80
   4  -6   8    1.20    1.70
  -4  -6  -8    2.70    3.40
  -4   6  -8    6.50    2.60
   4   6   8    1.70    2.30
  -4   6  -8    2.80    2.50
  -4   6  -8    2.80    1.70
   5  -6   8   -1.20    1.00
  -5  -6  -8    1.30    2.90
  -5  -6  -8    1.40    3.30
  -5  -6  -8    3.80    1.60
  -5   6  -8   -1.80    2.70
  -5   6  -8   -2.60    1.50
  -5   6  -8   -0.50    2.30
  -6  -7   8   -2.10    1.10
  -6  -7   8    0.20    2.70
  -6  -7   8   -2.10    2.70
  -6   7   8    0.10    2.50
  -6   7   8   -1.60    2.20
  -5  -7   8    1.50    3.10
   5  -7  -8    6.60    2.70
  -5  -7   8    1.50    2.00
  -5  -7   8   -0.30    1.40
  -5   7   8    0.70    2.10
  -5   7   8    1.80    2.10
  -5   7   8   -2.30    2.20
   5   7  -8    1.00    3.60
  -4  -7   8   20.30    3.30
  -4  -7   8   12.40    4.30
  -4  -7   8   23.00    3.90
   4  -7  -8   13.20    3.20
  -4   7   8   35.90    5.00
  -4   7   8   17.20    3.70
  -4   7   8   20.20    3.30
  -4   7   8   20.60    3.80
   4   7  -8   21.90    6.10
  -3  -7   8   -0.60    1.50
  -3  -7   8   -1.20    2.00
   3  -7  -8    2.60    2.70
  -3  -7   8   -0.40    2.50
   3  -7  -8    1.90    1.20
  -3   7   8    2.20    2.10
  -3   7   8    1.80    2.30
  -3   7   8    1.10    2.00
  -3   7   8    0.20    1.90
   2  -7  -8    3.20    1.50
   2  -7  -8    3.00    1.90
  -2  -7   8    5.50    4.00
  -2  -7   8   -0.40    1.40
  -2  -7   8    1.00    2.00
   2   7  -8    2.50    1.20
  -2   7   8    0.60    1.90
  -2   7   8    1.80    2.10
  -2   7   8   -0.30    1.90
   2   7  -8    2.90    2.00
   2   7  -8    1.60    1.10
  -1  -7   8    0.40    1.60
  -1  -7   8    0.10    2.60
  -1  -7   8    0.60    1.90
   1  -7  -8    1.30    2.10
  -1  -7   8    2.20    1.60
   1  -7  -8    1.80    1.50
  -1   7   8   -3.40    1.80
   1   7  -8   -1.70    1.70
  -1   7   8   -1.30    1.70
   1   7  -8    3.00    2.20
   1   7  -8    0.10    1.20
  -1   7   8    0.10    1.60
   0  -7  -8   -1.20    1.70
   0  -7   8   -2.00    1.50
   0  -7   8   -2.10    1.80
   0  -7   8   -0.50    1.70
   0  -7  -8    0.40    2.00
   0  -7  -8    1.00    1.40
   0   7  -8    0.00    1.40
   0   7  -8    0.00    2.20
   0   7   8    2.10    2.30
   0   7   8   -0.40    1.50
   1  -7   8   58.89    4.70
  -1  -7  -8   52.69    5.50
  -1  -7  -8   60.09    5.90
   1  -7   8   51.69    6.40
  -1  -7  -8   58.39    5.00
   1  -7   8   53.19    5.20
   1   7   8   52.39    5.80
  -1   7  -8   61.69    5.20
  -1   7  -8   56.49    5.10
   1   7   8   51.49    8.10
  -1   7  -8   57.89    7.40
   1   7   8   62.59    5.30
  -2  -7  -8   29.50    4.30
  -2  -7  -8   38.00    4.70
   2  -7   8   42.00    3.90
   2  -7   8   38.50    4.40
   2  -7   8   38.90    6.00
  -2  -7  -8   33.90    5.50
  -2   7  -8   38.80    4.30
  -2   7  -8   47.80    7.30
  -2   7  -8   40.20    4.80
   2   7   8   46.30    4.30
   2   7   8   33.90    6.70
   2   7   8   25.00    3.70
  -3  -7  -8   18.30    3.20
  -3  -7  -8   15.70    3.30
  -3  -7  -8   25.10    6.60
   3  -7   8   18.70    3.00
  -3  -7  -8   20.50    4.20
   3  -7   8   21.80    3.10
  -3   7  -8   15.80    3.30
   3   7   8   15.00    2.00
  -3   7  -8   18.30    3.80
  -3   7  -8   17.10    2.80
   3   7   8   15.80    5.50
   3   7   8   17.60    3.90
   3   7   8   13.90    3.30
  -4  -7  -8   -1.30    1.60
   4  -7   8   -0.80    1.40
  -4  -7  -8    1.20    2.40
   4  -7   8    1.70    1.40
  -4  -7  -8    2.40    3.30
  -4   7  -8   -3.80    2.20
  -4   7  -8   -1.80    2.00
  -4   7  -8   -3.50    1.60
  -5  -8   8    2.10    2.90
  -5  -8   8   -1.70    1.40
  -5  -8   8    1.10    3.20
  -5   8   8   -2.00    2.00
  -5   8   8    0.00    2.20
  -4  -8   8    7.40    3.10
  -4  -8   8    8.30    3.50
  -4  -8   8    7.50    2.20
  -4   8   8    3.50    2.60
  -4   8   8   11.60    3.10
  -4   8   8    8.70    3.30
  -3  -8   8    2.30    3.10
  -3  -8   8   -2.50    2.10
  -3  -8   8   -1.50    1.50
   3  -8  -8    1.70    1.20
  -3   8   8   -0.50    2.50
  -3   8   8    1.90    2.20
  -3   8   8   -1.50    2.00
   3   8  -8   -3.70    2.50
   2  -8  -8    7.40    2.30
  -2  -8   8    2.70    2.60
  -2  -8   8    1.30    2.70
   2  -8  -8   -1.50    1.90
  -2  -8   8    2.80    2.20
  -2  -8   8   -0.80    1.50
   2  -8  -8    1.70    1.40
  -2   8   8   -0.80    2.40
  -2   8   8   -0.90    1.60
  -2   8   8   -1.10    2.20
   2   8  -8   -0.60    1.10
   2   8  -8    1.80    1.90
   2   8  -8    0.20    2.60
  -1  -8   8   -0.90    1.50
   1  -8  -8    0.80    1.70
   1  -8  -8    0.90    1.70
   1  -8  -8   -0.30    2.00
  -1  -8   8    1.10    2.40
  -1  -8   8   -2.70    2.00
  -1  -8   8    0.10    1.70
   1   8  -8    1.10    1.30
   1   8  -8    0.60    1.90
  -1   8   8    3.40    2.60
  -1   8   8    0.90    2.30
  -1   8   8   -0.60    1.70
   1   8  -8    2.40    1.20
  -1   8   8   -2.10    1.80
   1   8  -8   -3.40    2.30
   0  -8   8   -1.20    1.90
   0  -8   8   -1.30    2.60
   0  -8  -8   -0.70    1.60
   0  -8  -8   -3.00    1.80
   0  -8  -8    1.10    2.10
   0  -8   8   -1.50    1.60
   0  -8   8    3.00    2.80
   0   8  -8   -1.30    1.40
   0   8  -8    0.70    2.10
   0   8   8    4.20    2.80
   0   8  -8   -3.60    2.00
   0   8   8   -2.10    1.90
   0   8   8   -2.10    1.30
   0   8   8    0.50    2.30
   1  -8   8   -0.90    1.50
  -1  -8  -8   -1.60    2.00
   1  -8   8   -2.10    2.40
  -1  -8  -8   -1.20    3.60
   1   8   8    1.90    1.50
  -1   8  -8   -0.10    2.30
   1   8   8   -2.60    2.40
   1   8   8   -0.40    2.20
  -1   8  -8    3.00    2.00
   1   8   8    3.60    2.60
  -2  -8  -8   -3.60    1.90
   2  -8   8    2.10    1.50
  -2  -8  -8    3.10    2.40
  -2  -8  -8    1.00    2.80
   2   8   8   -1.10    1.30
  -2   8  -8    1.00    2.20
  -2   8  -8   -2.30    2.30
   2   8   8   -3.70    1.70
   3  -8   8    1.70    2.50
   3  -8   8    2.00    1.80
  -3  -8  -8    6.60    2.60
  -3  -8  -8    0.60    2.90
  -3  -8  -8    3.70    2.40
  -3   8  -8    4.50    2.40
   3   8   8   -1.60    1.10
   3   8   8    3.90    2.40
  -3   8  -8   -2.90    2.60
   4  -8   8    5.60    1.90
  -4  -8  -8   10.50    3.10
  -4  -8  -8    2.70    4.30
  -4   8  -8    1.10    5.20
  -4  -9   8    8.00    3.40
  -4  -9   8    0.60    1.60
  -4  -9   8    9.60    3.70
  -4   9   8   -5.70    3.10
  -4   9   8    0.10    2.90
  -4   9   8   -0.40    2.50
  -3  -9   8    1.90    2.50
  -3  -9   8    5.30    3.30
  -3  -9   8   -1.60    1.60
  -3   9   8    2.20    2.80
  -3   9   8   -4.40    2.70
  -3   9   8    0.40    2.30
  -2  -9   8   -1.90    2.30
   2  -9  -8    3.40    1.90
   2  -9  -8   -1.30    1.40
  -2  -9   8   -2.20    1.80
  -2  -9   8   -1.60    1.90
  -2   9   8   -0.40    1.80
   2   9  -8    1.80    1.40
  -2   9   8    2.00    2.70
   2   9  -8   -1.00    1.90
  -1  -9   8    4.20    3.00
  -1  -9   8    1.20    2.40
  -1  -9   8   -2.00    1.70
   1  -9  -8    1.50    1.60
   1  -9  -8   -0.90    1.70
   1   9  -8    3.00    1.60
  -1   9   8   -2.10    1.50
  -1   9   8   -0.10    2.50
   1   9  -8    0.20    2.10
   1   9  -8   -1.20    1.20
   0  -9   8    3.20    1.80
   0  -9  -8    6.70    2.60
   0  -9   8    0.20    1.90
   0   9   8    4.20    1.90
   0   9   8   -4.90    3.70
   0   9   8    3.00    2.70
   0   9  -8    8.90    2.30
   0   9  -8    3.00    2.80
  -1  -9  -8    3.60    2.60
  -1  -9  -8    3.40    2.20
   1  -9   8    5.60    4.20
   1   9   8    8.00    3.30
  -1   9  -8    4.00    2.90
   1   9   8    5.50    3.00
   1   9   8    3.20    1.90
  -1   9  -8    2.30    2.90
   2  -9   8   -0.60    1.50
  -2  -9  -8   -3.20    2.60
  -2   9  -8   -2.60    2.80
  -2   9  -8   -0.60    2.30
   2   9   8   -1.40    1.50
   2   9   8    1.40    2.50
  -8   0   9   -1.30    2.20
  -8   0   9   -1.80    1.40
  -8   0   9   -1.90    2.10
  -8   0   9    1.40    1.90
  -8   0   9    0.30    1.80
  -7   0   9   -1.30    1.40
  -7   0   9   -0.60    1.70
  -7   0   9   -0.90    1.30
  -7   0   9    0.90    2.00
  -7   0   9   -0.50    1.60
  -6   0   9   -1.30    1.60
  -6   0   9    1.10    1.20
  -6   0   9    1.20    1.40
  -6   0   9   -1.00    1.50
  -6   0   9   -1.80    1.40
   5   0  -9    0.30    2.00
  -5   0   9    0.80    1.40
  -5   0   9   -1.60    1.30
  -4   0   9    0.50    1.30
   4   0  -9    2.10    1.60
  -4   0   9    3.20    1.60
  -4   0   9    3.00    1.80
  -3   0   9    1.00    1.60
   3   0  -9    1.10    1.10
  -3   0   9    1.70    1.30
  -3   0   9    0.20    1.50
  -2   0   9   -0.60    1.20
   2   0  -9    1.00    1.30
  -2   0   9    0.60    1.10
  -2   0   9   -0.50    1.20
  -1   0   9    0.70    1.30
  -1   0   9    0.40    1.00
  -1   0   9    1.20    1.20
   1   0  -9    0.40    1.30
   1   0  -9   -0.90    1.20
   1   0  -9   -1.10    0.80
   0   0  -9    0.90    1.20
   0   0   9    0.80    1.00
   0   0   9    0.20    1.40
   0   0  -9   -0.50    1.00
   0   0   9    0.30    1.20
   0   0   9    0.60    1.00
   1   0   9    0.00    1.20
   1   0   9   -1.00    1.70
  -1   0  -9   -1.50    0.90
  -1   0  -9   -0.40    1.20
   1   0   9    1.20    1.20
   1   0   9   -0.40    1.00
  -2   0  -9    2.10    1.80
   2   0   9    1.40    0.90
   2   0   9   -0.50    1.30
   2   0   9    0.60    1.50
  -2   0  -9   -1.30    1.10
   2   0   9    0.90    1.30
   3   0   9    0.10    1.50
   3   0   9   -0.30    0.70
  -3   0  -9    0.50    1.30
   3   0   9    0.50    1.70
  -3   0  -9    1.60    1.90
   4   0   9   -1.00    1.50
  -4   0  -9   -0.90    2.00
  -4   0  -9   -0.20    1.40
   4   0   9   -0.10    1.80
   5   0   9    3.00    1.90
  -5   0  -9    2.20    2.50
  -5   0  -9    0.70    2.10
  -5   0  -9    3.20    1.90
  -6   0  -9   -2.20    2.10
  -6   0  -9    3.80    1.90
   6   0   9    2.60    2.00
  -6   0  -9    1.10    2.60
  -8  -1   9    3.80    3.20
  -8  -1   9    2.10    2.10
  -8  -1   9    4.90    2.30
  -8  -1   9   -1.50    1.40
  -8   1   9   -0.60    1.50
  -8   1   9   -1.30    1.80
  -8   1   9   -3.80    2.00
  -8   1   9   -2.40    1.80
  -8   1   9   -0.60    1.80
  -7  -1   9    9.40    1.90
  -7  -1   9    7.40    2.40
  -7  -1   9    8.30    2.50
  -7  -1   9    7.90    2.30
  -7  -1   9    7.80    2.40
  -7   1   9   12.30    2.90
  -7   1   9    5.90    2.20
  -7   1   9   11.10    2.30
  -7   1   9    8.80    2.60
  -7   1   9    9.10    2.00
  -6  -1   9   -0.30    1.00
  -6  -1   9    3.20    2.00
  -6  -1   9    0.80    1.70
  -6  -1   9    1.20    1.50
  -6   1   9    2.40    1.50
  -6   1   9   -0.60    1.70
  -6   1   9    1.90    1.70
   5  -1  -9   46.80    4.20
  -5  -1   9   45.60    3.80
  -5  -1   9   48.40    5.10
  -5  -1   9   49.10    3.00
  -5  -1   9   45.00    4.30
  -5   1   9   49.99    4.80
  -5   1   9   46.20    3.60
  -4  -1   9   47.40    2.70
  -4  -1   9   46.60    4.80
   4  -1  -9   40.70    3.70
  -4  -1   9   45.10    4.10
  -4  -1   9   46.50    3.20
  -4   1   9   49.90    3.70
   4   1  -9   45.90    4.30
   4   1  -9   44.60    3.40
  -4   1   9   48.50    3.70
  -4   1   9   46.10    4.60
   3  -1  -9  181.78    6.70
  -3  -1   9  192.58    8.00
  -3  -1   9  192.28    5.00
  -3  -1   9  186.48    5.80
  -3  -1   9  196.58    7.40
  -3   1   9  191.18    8.00
   3   1  -9  193.68    5.90
  -3   1   9  182.58    6.30
  -3   1   9  182.08    6.70
  -2  -1   9    3.20    1.50
  -2  -1   9    0.40    0.80
   2  -1  -9    1.50    1.40
   2  -1  -9    1.10    1.00
  -2  -1   9    0.90    1.30
  -2   1   9    0.50    1.20
  -2   1   9    2.60    1.40
   2   1  -9    1.40    1.30
   2   1  -9    0.10    1.20
  -2   1   9    1.40    1.40
   1  -1  -9  566.14   14.40
   1  -1  -9  559.44   13.70
  -1  -1   9  568.54   14.30
  -1  -1   9  582.24   14.20
   1  -1  -9  573.84   13.10
  -1  -1   9  559.54   12.30
  -1  -1   9  558.44   15.10
  -1   1   9  572.84   13.20
   1   1  -9  550.04   12.80
  -1   1   9  569.44   14.00
  -1   1   9  555.24   14.30
   1   1  -9  583.64   12.30
   1   1  -9  557.24   14.00
   0  -1  -9  268.47    8.60
   0  -1   9  280.67    8.60
   0  -1  -9  283.67    8.50
   0  -1  -9  269.47    8.60
   0  -1   9  277.87    8.90
   0  -1   9  267.37    8.00
   0  -1   9  269.17    9.70
   0   1   9  276.57    8.40
   0   1   9  275.47    8.90
   0   1  -9  268.17    8.50
   0   1   9  279.77    8.70
   0   1  -9  269.47    8.70
   1  -1   9   76.89    4.50
  -1  -1  -9   84.49    6.10
   1  -1   9   69.69    4.50
  -1  -1  -9   72.19    4.80
  -1  -1  -9   71.49    4.10
   1  -1   9   77.89    5.70
   1   1   9   79.89    4.20
   1   1   9   72.89    5.10
  -1   1  -9   73.19    4.50
  -1   1  -9   74.19    4.60
   1   1   9   76.89    4.80
   1   1   9   74.39    4.60
  -2  -1  -9    0.60    1.40
   2  -1   9    3.50    1.20
   2  -1   9    1.10    1.40
   2  -1   9    3.00    1.60
  -2  -1  -9    0.50    1.80
   2   1   9    1.00    1.50
   2   1   9    1.30    1.50
   2   1   9    2.30    1.10
  -2   1  -9    0.90    1.80
  -2   1  -9    1.70    1.30
  -2   1  -9    2.20    1.60
  -3  -1  -9  439.36   13.60
  -3  -1  -9  438.96   13.10
   3  -1   9  447.66    9.70
   3  -1   9  434.86   13.80
   3  -1   9  436.86   14.10
  -3   1  -9  451.45   13.60
   3   1   9  440.16   10.20
   3   1   9  436.16   14.70
  -3   1  -9  432.66   12.60
   3   1   9  437.06   13.60
  -3   1  -9  443.96   14.40
  -4  -1  -9   51.79    5.10
   4  -1   9   45.10    5.20
  -4  -1  -9   53.29    5.60
   4  -1   9   55.49    5.80
  -4   1  -9   56.19    4.80
   4   1   9   52.79    5.00
  -4   1  -9   51.09    5.60
  -4   1  -9   58.99    6.30
   5  -1   9   17.20    3.40
   5  -1   9   22.90    3.70
  -5  -1  -9   25.70    4.30
   5   1   9   31.10    4.40
  -5   1  -9   19.30    3.50
  -5   1  -9   21.00    3.90
  -6  -1  -9   28.80    4.90
  -6  -1  -9   33.00    5.20
  -6  -1  -9   49.20    5.50
  -6   1  -9   26.40    4.80
  -6   1  -9   28.90    4.60
   6   1   9   33.50    4.90
  -8  -2   9   -2.60    1.90
  -8  -2   9   -2.80    2.30
  -8  -2   9   -3.90    1.80
  -8  -2   9   -0.90    1.70
  -8   2   9   -2.20    1.70
  -8   2   9    0.70    1.30
  -8   2   9    1.80    2.30
  -8   2   9   -2.50    1.70
  -7  -2   9   14.80    3.80
  -7  -2   9   11.40    1.80
  -7  -2   9   14.80    3.10
  -7  -2   9    9.50    2.50
  -7  -2   9   13.40    4.50
  -7   2   9   12.10    2.10
  -7   2   9   12.20    3.10
  -7   2   9   14.60    3.00
  -6  -2   9    0.50    1.90
  -6  -2   9   -0.60    1.80
  -6  -2   9    0.80    1.90
  -6   2   9   -1.40    1.70
  -6   2   9    0.70    1.50
  -6   2   9    1.60    1.40
  -5  -2   9   20.90    3.40
  -5  -2   9   19.50    2.90
   5  -2  -9   28.00    3.20
  -5  -2   9   27.00    3.70
   5   2  -9   25.00    3.60
  -5   2   9   21.60    3.50
  -5   2   9   24.30    2.90
  -5   2   9   21.10    3.30
  -4  -2   9   44.60    6.60
   4  -2  -9   41.80    3.40
   4  -2  -9   47.40    4.70
  -4  -2   9   43.70    4.10
   4   2  -9   46.90    4.40
  -4   2   9   44.30    3.40
  -4   2   9   42.70    3.90
  -4   2   9   37.60    4.40
   4   2  -9   38.50    3.60
  -3  -2   9    2.80    1.40
  -3  -2   9    3.60    1.70
  -3  -2   9    1.80    1.60
   3  -2  -9    3.30    1.30
   3  -2  -9    4.00    1.70
  -3   2   9    2.30    1.50
   3   2  -9    3.90    1.60
  -3   2   9    3.20    1.70
   3   2  -9    3.10    1.80
  -3   2   9    2.30    1.40
  -2  -2   9   26.40    3.40
  -2  -2   9   25.10    4.00
   2  -2  -9   26.30    2.80
  -2  -2   9   24.00    2.90
   2   2  -9   23.00    3.00
  -2   2   9   24.10    3.40
  -2   2   9   17.20    2.70
   2   2  -9   19.10    4.20
  -2   2   9   15.30    2.10
   1  -2  -9  270.37    9.20
  -1  -2   9  276.67    9.10
   1  -2  -9  287.57    8.70
  -1  -2   9  274.77   10.00
   1  -2  -9  274.67    7.20
  -1  -2   9  281.67    7.30
   1  -2  -9  279.57    8.60
  -1   2   9  280.37    8.90
   1   2  -9  277.87    8.60
   1   2  -9  280.37    9.20
  -1   2   9  279.37    9.30
   1   2  -9  293.47    7.10
  -1   2   9  287.07    8.80
   0  -2   9    2.80    1.90
   0  -2  -9    1.10    1.20
   0  -2  -9    1.00    1.30
   0  -2   9    0.60    1.40
   0  -2  -9    2.60    1.70
   0  -2   9   -0.10    1.00
   0   2   9   -0.10    1.20
   0   2  -9    1.40    1.20
   0   2   9    3.00    1.60
   0   2   9   -0.70    1.10
   0   2  -9    1.40    1.50
   0   2  -9    3.00    1.40
  -1  -2  -9   46.10    3.80
   1  -2   9   47.20    4.70
  -1  -2  -9   44.30    3.50
   1  -2   9   50.09    3.90
  -1  -2  -9   45.50    4.20
   1  -2   9   51.69    4.00
  -1  -2  -9   45.90    4.50
   1   2   9   49.00    4.50
   1   2   9   48.80    3.70
  -1   2  -9   47.80    5.30
  -1   2  -9   45.10    4.20
  -1   2  -9   42.70    3.60
   1   2   9   45.10    4.00
   2  -2   9   37.90    4.00
  -2  -2  -9   37.00    4.00
   2  -2   9   37.70    3.10
  -2  -2  -9   36.00    4.50
  -2  -2  -9   33.20    4.60
  -2  -2  -9   33.40    3.10
   2  -2   9   36.20    4.70
   2  -2   9   36.30    3.60
  -2   2  -9   35.20    3.70
  -2   2  -9   36.50    5.40
   2   2   9   37.30    3.30
   2   2   9   31.30    4.00
  -2   2  -9   37.10    3.90
   2   2   9   35.70    4.10
  -3  -2  -9  136.39    5.50
   3  -2   9  143.99    8.10
  -3  -2  -9  140.99    8.60
  -3  -2  -9  141.49    7.60
   3  -2   9  148.79    7.70
   3  -2   9  153.38    5.00
  -3  -2  -9  149.39    7.40
   3  -2   9  145.49    7.00
   3   2   9  146.89    7.10
  -3   2  -9  146.49    8.80
  -3   2  -9  141.79    7.70
   3   2   9  147.59    5.50
  -3   2  -9  146.19    6.70
   3   2   9  141.69    7.60
  -4  -2  -9   33.00    6.30
  -4  -2  -9   50.99    6.20
   4  -2   9   49.70    5.80
  -4  -2  -9   58.19    5.30
   4   2   9   55.69    3.10
  -4   2  -9   52.39    4.70
  -4   2  -9   55.29    6.10
  -4   2  -9   61.39    7.00
   4   2   9   52.19    4.70
   5  -2   9    1.20    2.20
  -5  -2  -9    0.40    3.20
  -5  -2  -9    1.10    2.10
  -5  -2  -9   -2.20    2.00
  -5   2  -9   -0.70    1.70
  -5   2  -9   -1.30    2.00
   5   2   9   -1.30    1.90
  -5   2  -9    1.00    4.30
   5   2   9   -2.30    1.30
  -6  -2  -9    2.10    2.70
   6  -2   9   -3.00    2.10
  -6  -2  -9    2.00    3.20
  -6   2  -9    0.10    2.10
  -6   2  -9    3.70    2.60
  -6   2  -9    0.50    1.80
   6   2   9   -1.70    1.60
  -8  -3   9   -4.10    3.30
  -8  -3   9   -0.70    1.40
  -8  -3   9   -1.20    2.30
  -8  -3   9    0.30    2.00
  -8   3   9   -0.40    2.10
  -8   3   9   -0.50    2.20
  -8   3   9    2.30    2.50
  -7  -3   9    1.80    1.70
  -7  -3   9    2.50    2.60
  -7  -3   9   -0.10    2.20
  -7  -3   9    0.40    2.20
  -7   3   9   -0.10    2.00
  -7   3   9    5.40    2.50
  -6  -3   9    2.40    2.10
  -6  -3   9   -0.20    2.00
  -6   3   9    3.30    2.00
  -6   3   9    5.60    2.20
  -6   3   9    3.20    2.20
   5  -3  -9    0.60    1.30
  -5  -3   9    2.40    2.80
  -5  -3   9   -0.10    1.90
  -5  -3   9    3.10    2.10
   5  -3  -9    2.70    1.90
  -5   3   9    0.20    1.60
  -5   3   9    1.90    1.90
   5   3  -9    0.70    1.70
  -5   3   9   -0.60    1.30
  -4  -3   9    9.20    2.50
  -4  -3   9    5.90    2.10
   4  -3  -9    7.70    1.70
  -4  -3   9    5.60    2.20
   4  -3  -9    4.00    1.60
   4   3  -9    5.40    2.10
   4   3  -9    7.70    2.40
  -4   3   9    5.20    2.00
  -4   3   9    6.70    2.10
  -4   3   9    8.40    1.80
  -3  -3   9   13.80    2.60
  -3  -3   9   14.30    2.60
   3  -3  -9   13.00    2.30
   3  -3  -9   16.80    2.40
  -3  -3   9   12.10    2.40
   3   3  -9   14.60    2.80
   3   3  -9   18.40    3.00
  -3   3   9   13.80    2.20
  -3   3   9   12.60    2.40
  -2  -3   9   30.60    4.10
  -2  -3   9   24.80    3.50
  -2  -3   9   28.30    3.50
   2  -3  -9   26.90    3.60
   2  -3  -9   27.30    2.80
  -2   3   9   29.20    3.80
  -2   3   9   26.20    3.10
  -2   3   9   28.80    3.80
   2   3  -9   27.60    3.50
   2   3  -9   28.40    3.60
  -1  -3   9  301.57    9.70
   1  -3  -9  311.07   11.10
   1  -3  -9  288.27    9.00
   1  -3  -9  306.47    7.90
   1   3  -9  297.37    9.60
  -1   3   9  305.87   10.20
  -1   3   9  306.47   10.80
   1   3  -9  303.97    7.40
   1   3  -9  311.77   10.10
  -1   3   9  302.57    9.50
   0  -3  -9   11.20    2.20
   0  -3   9    6.00    1.70
   0  -3   9    9.90    2.30
   0  -3  -9    9.50    2.20
   0  -3  -9    5.50    1.60
   0   3  -9    8.00    2.40
   0   3  -9    7.30    1.80
   0   3  -9    9.20    2.10
   0   3  -9   10.50    1.70
   0   3   9    9.50    2.10
   0   3   9    9.70    2.20
  -1  -3  -9  233.98    8.40
  -1  -3  -9  236.08    8.70
  -1  -3  -9  248.28    9.20
   1  -3   9  234.08    9.90
  -1  -3  -9  242.08    9.10
   1  -3   9  236.68    8.50
  -1   3  -9  231.98    9.20
  -1   3  -9  239.18    8.70
  -1   3  -9  244.68   10.30
  -1   3  -9  245.98    8.20
   1   3   9  228.58    8.80
   1   3   9  246.08    8.50
  -2  -3  -9  135.19    7.40
  -2  -3  -9  123.99    6.60
  -2  -3  -9  135.39    6.10
   2  -3   9  126.49    7.60
   2  -3   9  129.89    6.40
  -2  -3  -9  126.19    7.50
   2   3   9  134.69    7.00
  -2   3  -9  128.19    6.80
  -2   3  -9  124.79    7.40
   2   3   9  122.19    6.40
   2   3   9  124.29    5.80
  -2   3  -9  134.29    8.30
  -2   3  -9  127.19    6.20
  -3  -3  -9  333.97   13.10
   3  -3   9  323.27    8.70
  -3  -3  -9  329.57    9.80
   3  -3   9  335.47   10.90
  -3  -3  -9  334.57   11.90
   3  -3   9  341.37   13.20
  -3  -3  -9  340.17   11.70
   3  -3   9  332.07    9.00
   3   3   9  339.37   13.90
   3   3   9  325.67   10.50
  -3   3  -9  339.97   12.00
   3   3   9  335.07    9.70
  -3   3  -9  329.37   10.60
  -3   3  -9  349.37   13.50
  -4  -3  -9  133.79    8.30
   4  -3   9  105.09    8.00
  -4  -3  -9  125.89   13.00
  -4  -3  -9  133.69    5.50
  -4  -3  -9  141.49    7.90
  -4   3  -9  139.39    6.70
   4   3   9  141.99    5.50
  -4   3  -9  143.99    9.60
   4   3   9  137.69    6.50
  -4   3  -9  135.79   11.70
  -5  -3  -9   20.80    3.70
  -5  -3  -9   19.40    4.40
  -5  -3  -9   16.70    3.40
   5  -3   9   17.20    3.40
  -5   3  -9   21.90    3.00
  -5   3  -9   14.00    3.70
   5   3   9   24.20    4.40
  -5   3  -9   20.40    3.80
   5   3   9   17.90    2.60
  -6  -3  -9    1.20    2.80
  -6  -3  -9    7.30    3.70
  -6   3  -9    0.50    2.80
  -6   3  -9    0.40    1.80
  -6   3  -9    0.30    2.70
   6   3   9    2.40    1.40
  -8  -4   9   -0.60    2.70
  -7  -4   9   -0.70    1.40
  -7  -4   9    0.80    2.30
  -7  -4   9    1.80    2.60
  -7  -4   9   -3.50    3.00
  -7   4   9   -1.20    1.80
  -7   4   9    2.20    2.30
  -6  -4   9   -0.70    2.10
   6  -4  -9    0.50    2.80
  -6  -4   9    0.50    1.70
  -6  -4   9   -2.10    2.20
  -6   4   9   -1.90    1.70
   6   4  -9   -0.10    2.00
  -5  -4   9    6.50    2.30
  -5  -4   9    2.40    1.80
   5  -4  -9    8.00    1.80
   5  -4  -9    2.90    2.00
  -5  -4   9    6.80    2.40
  -5   4   9    6.10    1.30
  -5   4   9    5.80    2.20
   5   4  -9    7.50    2.60
  -4  -4   9   43.80    4.70
  -4  -4   9   36.70    4.60
   4  -4  -9   38.30    2.90
  -4  -4   9   35.80    4.40
   4  -4  -9   33.10    4.30
  -4   4   9   39.40    4.70
  -4   4   9   33.10    5.10
   4   4  -9   36.00    4.60
  -4   4   9   36.30    4.50
   3  -4  -9   -0.10    1.10
  -3  -4   9    1.50    1.70
  -3  -4   9    1.80    2.60
  -3  -4   9    2.50    2.00
   3  -4  -9    2.20    1.50
   3   4  -9   -0.10    3.10
   3   4  -9    1.30    1.70
  -3   4   9   -0.50    1.90
  -3   4   9    4.00    1.90
  -2  -4   9  179.98    7.80
  -2  -4   9  170.78    7.80
   2  -4  -9  165.38    7.90
   2  -4  -9  178.78    6.50
  -2  -4   9  183.58    8.30
   2   4  -9  169.88    7.90
  -2   4   9  178.18    8.20
   2   4  -9  179.08    9.00
  -2   4   9  176.88    7.70
   1  -4  -9   26.60    3.00
  -1  -4   9   23.50    3.70
  -1  -4   9   29.90    4.50
   1  -4  -9   26.10    3.10
  -1  -4   9   25.30    3.60
   1  -4  -9   26.20    3.70
  -1   4   9   31.00    4.00
   1   4  -9   25.60    2.40
   1   4  -9   34.80    5.40
   1   4  -9   28.60    3.80
  -1   4   9   16.70    2.60
   0  -4  -9    8.10    2.40
   0  -4  -9    8.10    1.80
   0  -4  -9   11.00    2.30
   0  -4   9   10.80    2.60
   0  -4  -9   10.00    2.30
   0  -4   9    8.90    2.30
   0   4  -9    8.90    1.80
   0   4   9    7.50    2.00
   0   4  -9    8.50    2.20
   0   4  -9    8.00    2.10
   0   4   9   11.10    2.60
   0   4  -9    8.80    2.50
   1  -4   9  251.77    9.00
  -1  -4  -9  257.37    9.80
  -1  -4  -9  251.67    9.90
  -1  -4  -9  254.77    9.40
  -1  -4  -9  250.67    9.30
   1  -4   9  263.17   10.90
  -1   4  -9  248.18   10.30
  -1   4  -9  259.27   11.20
   1   4   9  254.77    9.30
  -1   4  -9  259.87    8.90
  -1   4  -9  250.97    9.10
   2  -4   9   42.70    4.40
  -2  -4  -9   38.80    4.60
  -2  -4  -9   49.50    5.80
  -2  -4  -9   37.50    4.80
  -2  -4  -9   38.80    5.50
   2  -4   9   46.80    5.80
  -2   4  -9   43.00    6.50
  -2   4  -9   47.30    5.10
  -2   4  -9   40.20    4.20
  -2   4  -9   38.10    5.60
   2   4   9   39.80    4.60
   2   4   9   44.10    4.50
  -3  -4  -9   11.80    3.50
   3  -4   9    9.50    2.50
   3  -4   9    8.90    1.80
  -3  -4  -9   10.00    2.70
   3  -4   9    7.50    2.90
  -3  -4  -9    7.70    2.60
  -3   4  -9    9.10    2.50
  -3   4  -9    8.10    2.70
   3   4   9    9.40    2.30
  -3   4  -9    8.80    2.20
   3   4   9    1.30    3.20
   3   4   9   10.10    2.10
  -3   4  -9    6.10    2.60
  -4  -4  -9   80.79    7.10
  -4  -4  -9   88.79    7.80
   4  -4   9   77.69    3.70
  -4  -4  -9   87.39    4.90
   4  -4   9   71.69    8.90
  -4   4  -9   77.49    5.20
   4   4   9   80.19    5.10
  -4   4  -9   89.09    8.40
  -4   4  -9   95.09    7.30
   4   4   9   78.49    7.10
   4   4   9   88.59    5.00
   5  -4   9   63.59    9.30
  -5  -4  -9   55.39    3.80
  -5  -4  -9   62.29    7.30
  -5  -4  -9   58.79    6.80
  -5   4  -9   57.39    4.70
  -5   4  -9   63.39    7.00
  -5   4  -9   60.59    8.20
   5   4   9   55.59    4.20
  -6  -4  -9    6.70    3.40
  -6  -4  -9    0.20    3.60
  -6   4  -9    0.90    2.80
  -6   4  -9    0.60    1.90
  -6   4  -9   -1.20    2.70
  -7  -5   9    8.30    1.90
   7  -5  -9    8.10    3.20
  -7  -5   9    7.70    3.40
  -7  -5   9    8.80    3.60
  -7   5   9   10.80    3.60
  -7   5   9   15.70    3.20
   6  -5  -9   13.20    3.10
  -6  -5   9   12.80    2.30
  -6  -5   9   15.30    3.70
  -6  -5   9   16.50    4.10
  -6   5   9   13.90    3.70
  -6   5   9   19.40    3.50
   6   5  -9   24.70    4.80
  -5  -5   9   29.90    4.70
  -5  -5   9   34.50    5.00
  -5  -5   9   33.10    5.00
  -5   5   9   30.30    5.00
  -5   5   9   39.30    6.20
   5   5  -9   32.00    5.20
   4  -5  -9    4.60    1.30
  -4  -5   9    3.80    2.50
   4  -5  -9    6.00    2.10
  -4  -5   9    3.20    2.00
  -4  -5   9    3.30    2.30
  -4   5   9    9.50    2.50
   4   5  -9    8.90    3.10
  -4   5   9    3.00    2.20
  -4   5   9    2.60    1.80
   3  -5  -9    0.30    1.80
  -3  -5   9   -0.60    1.40
  -3  -5   9    0.40    2.00
   3  -5  -9   -0.30    1.10
  -3  -5   9   -1.90    1.40
  -3   5   9    0.60    1.60
  -3   5   9   -0.60    1.60
   3   5  -9   -2.50    1.50
  -3   5   9   -0.70    1.30
   2  -5  -9   32.20    3.10
  -2  -5   9   31.50    4.70
   2  -5  -9   31.70    4.30
  -2  -5   9   37.40    4.40
  -2  -5   9   43.20    4.80
   2  -5  -9   33.60    3.30
  -2   5   9   36.60    4.80
   2   5  -9   35.30    4.50
  -2   5   9   33.90    3.40
  -2   5   9   35.90    5.20
  -2   5   9   34.40    4.80
   2   5  -9   32.80    4.60
  -1  -5   9    6.80    2.80
   1  -5  -9    7.80    2.00
   1  -5  -9    5.10    2.20
  -1  -5   9    5.80    2.00
   1  -5  -9    5.50    2.10
  -1  -5   9    5.40    1.80
   1   5  -9    9.10    3.00
  -1   5   9    4.50    2.20
   1   5  -9    7.50    2.40
  -1   5   9    6.50    2.50
   1   5  -9    6.50    2.50
   1   5  -9    5.20    1.30
   0  -5   9  429.36   14.60
   0  -5   9  423.46   12.60
   0  -5  -9  406.66   12.40
   0  -5  -9  413.66   12.40
   0  -5  -9  428.46   13.70
   0   5   9  435.46   13.60
   0   5  -9  429.06   13.20
   0   5  -9  431.86   14.70
   0   5  -9  422.66   13.90
   0   5  -9  436.66   11.30
   0   5   9  406.96   13.20
  -1  -5  -9   10.40    2.30
   1  -5   9    8.50    2.30
  -1  -5  -9    3.00    2.40
  -1  -5  -9   13.60    3.40
   1  -5   9    3.50    1.80
  -1  -5  -9    6.80    2.40
  -1   5  -9    7.10    2.10
  -1   5  -9    6.30    2.60
   1   5   9    3.50    2.30
  -1   5  -9    4.30    2.00
   1   5   9    2.60    1.90
  -1   5  -9    6.90    2.30
  -2  -5  -9   61.49    5.60
   2  -5   9   59.29    5.40
  -2  -5  -9   48.00    5.80
  -2  -5  -9   58.69    5.00
   2  -5   9   57.49    4.70
  -2  -5  -9   58.09    6.30
  -2   5  -9   65.29    6.50
  -2   5  -9   52.39    4.70
   2   5   9   51.19    8.40
  -2   5  -9   62.89    5.60
  -2   5  -9   58.39    6.90
   2   5   9   60.99    5.20
  -3  -5  -9   14.70    3.30
   3  -5   9   19.90    3.10
   3  -5   9   14.80    2.30
  -3  -5  -9   22.10    3.90
  -3  -5  -9   16.40    2.60
  -3   5  -9   18.70    3.30
  -3   5  -9   18.60    3.60
   3   5   9   15.00    2.30
  -3   5  -9   25.40    3.60
  -4  -5  -9   11.40    4.10
  -4  -5  -9    7.60    2.10
   4  -5   9    9.60    3.20
   4  -5   9   11.70    2.40
  -4  -5  -9    3.30    2.80
  -4  -5  -9    8.50    2.90
   4  -5   9    9.70    1.70
  -4   5  -9    9.40    3.10
  -4   5  -9   15.30    4.50
  -4   5  -9    8.50    2.10
  -4   5  -9    9.70    3.40
   4   5   9    7.40    1.70
   4   5   9   12.50    3.30
  -5  -5  -9    8.60    2.90
  -5  -5  -9   11.10    2.10
  -5  -5  -9    8.00    3.20
  -5   5  -9   10.80    2.30
  -5   5  -9    7.80    3.30
  -5   5  -9    8.30    3.40
  -7  -6   9   -0.90    2.20
  -7  -6   9    1.00    1.30
  -7  -6   9    3.70    3.20
  -7   6   9   -0.60    2.10
  -7   6   9   -0.30    2.80
  -6  -6   9    2.60    3.00
  -6  -6   9    1.60    2.60
  -6   6   9    3.70    2.50
   6   6  -9    5.70    3.90
  -6   6   9    3.10    2.40
  -5  -6   9   -0.20    3.10
  -5  -6   9    0.70    2.10
   5  -6  -9   -1.00    1.90
  -5   6   9    3.50    2.00
  -5   6   9   -0.30    2.00
  -5   6   9   -0.90    1.90
  -4  -6   9    3.40    1.80
  -4  -6   9    7.60    3.20
   4  -6  -9    6.30    1.40
  -4  -6   9    1.40    1.70
   4   6  -9    5.90    2.80
  -4   6   9    4.20    1.80
  -4   6   9    3.10    2.20
  -4   6   9    7.50    2.60
  -3  -6   9   -0.30    2.90
  -3  -6   9    1.90    1.70
  -3  -6   9    3.00    2.60
   3  -6  -9    2.90    1.30
  -3   6   9    0.70    2.90
  -3   6   9    0.90    2.00
   3   6  -9    2.50    2.50
  -3   6   9    2.80    2.40
  -3   6   9    1.60    1.70
   2  -6  -9   25.50    3.10
  -2  -6   9   29.90    4.90
   2  -6  -9   23.70    3.20
  -2  -6   9   23.20    3.50
  -2  -6   9   19.30    3.20
   2   6  -9   27.50    4.50
  -2   6   9   17.10    3.10
  -2   6   9   17.40    3.00
  -2   6   9   17.10    2.90
  -1  -6   9  101.59    6.20
   1  -6  -9   95.49    5.50
   1  -6  -9   94.49    6.90
  -1  -6   9   92.59    6.90
   1  -6  -9   94.99    5.60
  -1  -6   9   96.79    7.00
   1   6  -9   90.99    6.70
  -1   6   9  101.29    6.00
  -1   6   9  108.89    7.60
   1   6  -9   96.29    6.90
   1   6  -9   98.89    7.30
  -1   6   9   95.19    6.90
   1   6  -9   98.19    4.50
   0  -6   9    3.70    1.70
   0  -6   9    0.80    1.60
   0  -6  -9    3.50    1.90
   0  -6  -9   -2.30    1.70
   0  -6  -9    1.00    2.10
   0   6  -9    1.00    2.10
   0   6   9    4.30    1.80
   0   6  -9    0.70    2.10
   0   6   9    1.40    2.00
   0   6  -9    3.80    2.30
   0   6  -9    1.00    1.40
  -1  -6  -9  248.48   10.30
  -1  -6  -9  231.68    9.90
  -1  -6  -9  228.78    9.60
   1  -6   9  257.47   12.00
   1  -6   9  245.28    9.20
   1  -6   9  244.78    9.70
  -1   6  -9  251.97    9.30
  -1   6  -9  260.17   12.20
   1   6   9  249.08   10.30
   1   6   9  256.37   10.30
  -1   6  -9  240.58    9.60
  -2  -6  -9    8.30    2.20
   2  -6   9    6.00    2.00
  -2  -6  -9    9.60    3.10
  -2  -6  -9    6.20    2.60
   2  -6   9    6.20    2.20
   2   6   9    4.30    2.10
  -2   6  -9    1.30    2.60
  -2   6  -9    6.80    2.20
  -2   6  -9    7.10    2.10
   3  -6   9   16.30    2.80
  -3  -6  -9   17.30    2.80
  -3  -6  -9    8.80    3.10
   3  -6   9    5.70    2.40
   3  -6   9   10.70    2.30
  -3  -6  -9   13.60    2.90
  -3  -6  -9   18.30    3.80
   3   6   9   12.80    2.70
   3   6   9    9.80    2.60
   3   6   9    9.00    1.90
  -3   6  -9   17.00    3.80
   3   6   9    9.20    2.00
  -3   6  -9   23.10    4.60
  -3   6  -9    8.30    3.00
  -3   6  -9   10.70    2.40
  -4  -6  -9   -1.40    1.40
   4  -6   9   -1.00    1.30
  -4  -6  -9    1.10    2.70
  -4  -6  -9   -0.40    2.50
   4   6   9   -0.80    1.10
  -4   6  -9    0.80    2.50
   4   6   9   -1.10    1.00
  -4   6  -9   -0.20    2.60
  -4   6  -9   -3.50    1.40
   5  -6   9    0.80    1.30
  -5  -6  -9    0.80    2.90
  -5  -6  -9    2.00    3.50
  -5  -6  -9    2.40    1.90
  -5   6  -9    2.60    1.90
  -5   6  -9   -2.90    2.80
  -5   6  -9    1.50    2.90
  -6  -7   9   -1.30    2.70
  -6  -7   9   -0.90    2.00
  -6   7   9    1.80    2.50
  -6   7   9    0.00    2.60
  -5  -7   9    4.30    2.50
  -5  -7   9   -0.10    2.50
  -5   7   9    3.40    2.60
  -5   7   9    0.10    2.30
  -4  -7   9   -2.50    1.30
  -4  -7   9   -0.70    2.30
  -4  -7   9    2.10    2.20
   4  -7  -9    2.00    2.10
   4   7  -9   -5.60    2.70
  -4   7   9   -1.10    2.20
  -4   7   9    0.70    2.40
  -4   7   9    2.10    2.20
   3  -7  -9    1.40    1.20
   3  -7  -9    1.40    2.20
  -3  -7   9   -1.30    1.40
  -3  -7   9    0.80    2.60
  -3  -7   9   -1.50    2.10
  -3   7   9   -1.10    1.80
  -3   7   9    1.10    2.00
  -3   7   9    2.90    2.10
  -3   7   9    0.70    2.00
  -2  -7   9   38.00    4.80
  -2  -7   9   36.60    5.60
   2  -7  -9   34.90    3.50
   2  -7  -9   26.90    3.50
  -2  -7   9   37.40    5.10
  -2   7   9   31.20    4.40
  -2   7   9   22.80    3.90
  -2   7   9   29.80    5.30
   1  -7  -9   -0.20    1.60
  -1  -7   9    0.70    1.90
   1  -7  -9    2.50    1.80
  -1  -7   9    1.30    2.00
   1  -7  -9   -3.80    2.10
  -1  -7   9    2.50    2.40
  -1   7   9    1.10    2.20
   1   7  -9    2.30    2.30
   1   7  -9    0.60    1.20
  -1   7   9    0.30    1.70
  -1   7   9    0.00    1.90
   0  -7   9   75.79    7.00
   0  -7   9   64.09    5.70
   0  -7  -9   80.39    5.50
   0  -7  -9   94.59   10.30
   0  -7   9   77.09    5.50
   0  -7  -9   80.59    6.00
   0   7   9   74.69    6.40
   0   7   9   87.59    6.90
   0   7  -9   81.19    6.20
   0   7   9   88.49    6.50
   0   7  -9   79.69    5.10
   0   7  -9   71.39   10.90
  -1  -7  -9    0.70    2.10
  -1  -7  -9   -0.70    2.20
   1  -7   9    3.10    2.10
   1  -7   9   -1.20    1.50
   1  -7   9   -2.80    1.40
   1   7   9   -1.10    1.80
  -1   7  -9    1.40    2.80
  -1   7  -9    1.20    2.20
   1   7   9    0.20    1.30
  -1   7  -9    2.50    1.60
  -1   7  -9    0.00    1.60
   1   7   9   -1.10    2.00
   2  -7   9    2.10    1.90
  -2  -7  -9    2.40    2.60
  -2  -7  -9    5.30    2.50
  -2  -7  -9    1.20    2.40
  -2  -7  -9    3.60    2.60
   2  -7   9    3.40    2.20
   2  -7   9    7.30    2.10
   2   7   9    4.40    1.80
  -2   7  -9    4.40    2.20
  -2   7  -9    1.50    2.80
  -2   7  -9    5.60    2.30
  -2   7  -9    5.10    3.40
   2   7   9   -0.70    2.40
   2   7   9    3.50    2.10
   3  -7   9    2.20    1.80
  -3  -7  -9    7.80    2.90
  -3  -7  -9    6.70    3.50
   3  -7   9    8.20    2.10
  -3  -7  -9   -1.40    3.10
  -3   7  -9    7.80    2.80
   3   7   9    3.10    1.50
   3   7   9    8.10    2.40
   3   7   9    7.00    1.80
  -3   7  -9    7.90    2.30
  -3   7  -9    4.60    3.10
  -4  -7  -9   -0.10    3.20
  -4  -7  -9    4.00    4.50
   4  -7   9    5.10    1.80
   4  -7   9    9.50    2.20
  -4  -7  -9    8.00    2.80
  -4   7  -9   12.60    3.40
  -4   7  -9    5.40    2.10
  -4   7  -9    5.30    3.40
  -5  -8   9    0.60    1.70
  -5  -8   9   -0.30    2.50
  -5  -8   9    4.80    3.30
  -5   8   9    2.60    2.60
  -5   8   9    3.20    3.00
  -5   8   9   -2.80    4.10
  -4  -8   9    7.10    3.70
  -4  -8   9    1.60    3.10
  -4  -8   9    2.00    1.90
  -4   8   9   -0.30    2.50
  -4   8   9    1.90    2.60
  -4   8   9    3.70    2.70
  -3  -8   9   13.70    3.00
  -3  -8   9   12.20    3.00
  -3  -8   9   13.80    4.00
   3  -8  -9   16.60    2.30
  -3   8   9   12.20    3.30
  -3   8   9   17.40    3.60
  -3   8   9   12.70    3.50
   2  -8  -9   20.90    3.30
   2  -8  -9   13.00    2.50
  -2  -8   9    5.80    2.40
  -2  -8   9   17.30    3.80
  -2  -8   9   18.30    4.20
   2   8  -9    9.90    1.60
  -2   8   9   12.30    3.00
  -2   8   9   14.90    3.40
  -2   8   9   11.70    3.10
   2   8  -9    8.70    3.50
  -1  -8   9    2.50    2.00
   1  -8  -9    0.70    1.60
  -1  -8   9    5.50    3.00
  -1  -8   9   -2.20    2.10
   1  -8  -9    3.80    2.00
  -1  -8   9    1.00    1.90
  -1   8   9    0.90    2.30
   1   8  -9   -1.30    2.00
   1   8  -9   -2.10    2.30
   1   8  -9   -1.60    1.30
  -1   8   9    2.60    2.30
   0  -8   9   -0.40    2.00
   0  -8  -9    0.20    2.30
   0  -8   9    0.60    2.40
   0  -8  -9    0.00    1.70
   0  -8   9   -1.10    1.70
   0  -8  -9   -1.00    1.80
   0   8   9   -2.30    2.20
   0   8   9   -2.20    1.50
   0   8   9   -1.10    2.00
   0   8  -9   -0.50    2.30
   0   8  -9   -1.00    1.40
   1  -8   9   -3.50    1.80
   1  -8   9   -3.30    2.90
   1  -8   9    0.30    1.50
  -1  -8  -9   -0.90    2.40
  -1  -8  -9   -2.70    1.80
  -1  -8  -9    0.40    2.50
  -1   8  -9   -0.50    2.40
   1   8   9   -2.10    1.30
   1   8   9   -4.10    1.70
  -2  -8  -9    2.20    2.70
  -2  -8  -9   -0.40    2.60
   2  -8   9   -0.30    1.50
   2   8   9   -0.90    2.00
  -2   8  -9   -0.90    2.80
   2   8   9   -0.40    1.40
  -2   8  -9   -3.10    1.70
  -3  -8  -9   -1.40    3.00
   3  -8   9    0.70    1.70
  -3  -8  -9   -0.80    2.20
   3   8   9   -2.20    1.30
  -3   8  -9   -2.70    2.10
  -3   8  -9   -0.50    2.90
  -3   8  -9   -0.60    1.70
   3   8   9   -0.10    1.40
  -3  -9   9    8.50    2.90
  -3  -9   9   -0.20    2.00
   3  -9  -9    2.60    2.10
  -3  -9   9    6.50    3.10
  -3   9   9    1.40    2.40
  -3   9   9    2.90    2.50
  -3   9   9   -1.80    2.60
   2  -9  -9    3.50    1.90
  -2  -9   9    0.20    3.40
  -2  -9   9   -2.20    2.20
  -2  -9   9    1.80    2.80
   2   9  -9   -2.30    1.10
  -2   9   9   -0.30    2.20
   2   9  -9   -2.60    1.30
  -2   9   9    0.20    2.70
  -1  -9   9    1.80    2.30
  -1  -9   9    1.10    2.40
   1  -9  -9   -1.90    1.50
   1  -9  -9    1.50    2.20
   1   9  -9   -4.00    1.90
   1   9  -9    0.50    1.30
  -1   9   9    1.40    2.10
  -1   9   9   -0.60    2.70
  -1   9   9    1.20    3.30
   1   9  -9   -0.60    1.50
   0  -9   9    6.90    2.50
   0  -9  -9    5.50    2.20
   0  -9  -9    5.20    2.70
   0   9   9    1.00    2.40
   0   9  -9    3.80    2.00
   0   9  -9    0.50    2.50
   0   9   9    6.00    4.00
   0   9   9    5.20    3.20
  -1  -9  -9    5.30    3.00
   1  -9   9    4.50    2.30
   1   9   9    3.40    3.00
  -1   9  -9   -0.30    2.80
   1   9   9    3.10    1.90
   1   9   9   -1.10    2.40
   2  -9   9    1.60    2.50
  -2  -9  -9   -2.60    3.00
  -2   9  -9   -2.90    2.80
   2   9   9    2.40    2.90
  -2   9  -9   -1.10    2.10
  -8   0  10    3.30    2.10
  -8   0  10    7.50    2.50
  -8   0  10    7.30    2.20
  -8   0  10    6.20    2.10
  -8   0  10    8.70    2.80
  -7   0  10    2.70    1.70
  -7   0  10    1.90    1.90
  -7   0  10    1.20    1.90
  -7   0  10    1.20    1.70
  -7   0  10    3.10    1.50
  -6   0  10   28.40    3.50
  -6   0  10   23.20    3.50
  -6   0  10   29.60    3.80
  -5   0  10    6.90    2.20
  -5   0  10    6.20    1.80
   5   0 -10   14.00    2.70
  -5   0  10    6.30    1.60
  -4   0  10  456.85   14.00
   4   0 -10  474.65   13.50
  -4   0  10  439.96   10.50
  -4   0  10  441.06   12.40
  -3   0  10  796.92   18.60
   3   0 -10  855.61   21.00
  -3   0  10  791.92   16.40
  -3   0  10  804.42   20.00
  -2   0  10   34.50    3.60
  -2   0  10   33.70    3.00
  -2   0  10   35.40    3.80
   1   0 -10   71.09    3.70
   1   0 -10   78.69    5.40
  -1   0  10   70.59    4.60
  -1   0  10   79.89    4.10
   1   0 -10   74.69    4.30
  -1   0  10   75.29    4.90
   0   0  10   39.70    3.80
   0   0  10   50.59    7.80
   0   0 -10   43.10    3.60
   0   0  10   35.30    3.30
   0   0  10   41.80    3.70
   0   0 -10   40.50    3.70
   1   0  10  268.37    9.40
   1   0  10  266.47    9.80
  -1   0 -10  270.07    8.90
   1   0  10  274.67    8.50
  -1   0 -10  247.78    8.90
   1   0  10  253.87    9.90
   2   0  10  269.97    9.80
  -2   0 -10  255.97    9.40
   2   0  10  260.77   10.10
   2   0  10  271.77    9.20
  -2   0 -10  262.87    9.60
   2   0  10  249.48    9.50
   3   0  10   58.19    3.20
  -3   0 -10   64.29    5.80
   3   0  10   56.39    5.30
   3   0  10   51.99    5.30
  -3   0 -10   51.49    4.80
  -4   0 -10  114.49    6.70
   4   0  10  122.59    7.60
   4   0  10  107.59    7.50
  -4   0 -10  115.49    8.10
  -5   0 -10    2.10    2.50
   5   0  10    0.80    1.70
   5   0  10    3.90    2.60
   6   0  10   15.70    3.80
  -6   0 -10   12.00    3.50
  -6   0 -10   21.60    3.90
  -8  -1  10   -2.30    1.80
  -8  -1  10   -1.00    1.40
  -8  -1  10    1.80    1.90
  -8  -1  10   -3.20    2.20
  -8  -1  10   -3.30    2.80
  -8   1  10    1.70    1.70
  -8   1  10    0.20    1.90
  -8   1  10    0.40    2.10
  -8   1  10   -1.60    1.90
  -7  -1  10   10.10    2.70
  -7  -1  10    7.40    2.60
  -7  -1  10    8.80    2.60
  -7  -1  10    6.80    1.60
  -7  -1  10    7.70    2.30
  -7   1  10    9.60    2.10
  -7   1  10   11.00    2.70
  -7   1  10    6.00    2.10
  -7   1  10    8.10    2.80
  -6  -1  10  108.19    7.20
  -6  -1  10  113.09    5.70
  -6  -1  10  115.69    4.80
  -6  -1  10  104.09    6.40
  -6   1  10  116.99    5.70
  -6   1  10  104.39    6.80
  -6   1  10  118.89    8.20
  -5  -1  10   61.89    3.20
  -5  -1  10   57.19    4.80
  -5  -1  10   57.39    3.20
  -5  -1  10   58.19    5.30
  -5  -1  10   58.79    3.80
   5   1 -10   63.99    5.00
  -5   1  10   59.29    4.10
  -5   1  10   57.99    5.20
  -5   1  10   58.09    4.30
   4  -1 -10   45.50    4.00
  -4  -1  10   44.90    4.80
  -4  -1  10   43.20    3.20
  -4  -1  10   40.40    4.10
  -4  -1  10   40.80    2.60
   4   1 -10   40.60    4.30
  -4   1  10   40.40    3.70
   4   1 -10   41.90    3.20
  -4   1  10   47.10    4.70
  -4   1  10   47.00    3.80
  -3  -1  10  108.19    5.70
   3  -1 -10  110.39    5.50
  -3  -1  10  112.49    3.90
  -3  -1  10  106.39    6.30
  -3   1  10  110.19    5.10
  -3   1  10  105.59    6.30
   3   1 -10  114.89    6.00
   3   1 -10  105.69    4.30
  -3   1  10  106.79    5.40
  -2  -1  10    8.00    1.30
  -2  -1  10    7.50    1.90
   2  -1 -10    7.30    1.90
  -2  -1  10    5.70    2.00
   2   1 -10    9.00    2.10
  -2   1  10    6.80    1.60
  -2   1  10    6.10    1.90
   2   1 -10    8.60    1.70
   2   1 -10    7.90    1.40
  -2   1  10    8.40    2.10
   1  -1 -10  137.69    5.80
  -1  -1  10  136.79    5.10
  -1  -1  10  136.19    6.30
   1  -1 -10  134.69    6.00
  -1  -1  10  138.09    6.50
   1  -1 -10  136.29    6.40
  -1  -1  10  128.99    7.40
   1   1 -10  128.99    6.90
  -1   1  10  133.79    6.30
  -1   1  10  131.19    6.20
  -1   1  10  139.49    5.80
   1   1 -10  130.79    5.40
   1   1 -10  139.59    5.10
   0  -1  10  184.88    8.50
   0  -1 -10  208.28    7.50
   0  -1  10  204.78    7.00
   0  -1 -10  199.28    7.50
   0  -1  10  203.18    7.50
   0  -1 -10  191.98    7.50
   0  -1  10  210.88    7.90
   0   1  10  199.38   13.00
   0   1 -10  203.78    6.90
   0   1  10  198.58    7.50
   0   1  10  202.18    7.40
   0   1 -10  198.28    7.60
   0   1  10  197.08    7.80
   0   1 -10  189.78    7.30
  -1  -1 -10   39.00    3.70
   1  -1  10   38.90    4.80
   1  -1  10   37.40    3.90
  -1  -1 -10   43.40    4.40
   1  -1  10   40.20    3.50
   1  -1  10   43.10    3.80
   1   1  10   40.00    4.10
  -1   1 -10   44.70    4.10
   1   1  10   38.90    3.90
  -1   1 -10   44.80    3.80
   1   1  10   27.80    5.50
   1   1  10   39.80    3.50
   2  -1  10   46.10    4.10
  -2  -1 -10   47.90    5.00
   2  -1  10   42.00    4.90
   2  -1  10   44.90    4.50
   2  -1  10   33.60    4.20
   2   1  10   38.70    4.30
  -2   1 -10   42.90    4.20
  -2   1 -10   46.40    4.70
   2   1  10   38.90    4.80
   2   1  10   39.50    3.30
   3  -1  10  167.28    8.80
   3  -1  10  168.48    5.40
   3  -1  10  170.88    8.50
  -3  -1 -10  178.08    8.50
  -3  -1 -10  165.58    7.90
   3   1  10  174.88    8.40
  -3   1 -10  184.88    8.50
   3   1  10  168.28    8.20
  -3   1 -10  168.68    7.70
   3   1  10  172.78    5.80
  -3   1 -10  172.98    9.40
   4  -1  10   60.39    5.90
  -4  -1 -10   68.99    5.80
  -4  -1 -10   59.39    6.30
   4  -1  10   67.19    6.40
   4   1  10   61.79    5.60
  -4   1 -10   65.29    7.00
  -4   1 -10   74.59    5.30
  -5  -1 -10    6.80    2.30
   5  -1  10   10.20    3.30
  -5  -1 -10    6.90    3.10
   5  -1  10    4.40    2.10
  -5   1 -10    5.60    2.90
  -5   1 -10    7.20    2.60
  -5   1 -10    5.30    2.30
   5   1  10    3.70    2.10
   5   1  10    5.80    3.70
  -6  -1 -10   12.40    4.60
   6  -1  10    3.80    2.50
  -6  -1 -10    4.10    3.20
  -6   1 -10    2.90    2.50
  -6   1 -10    7.80    2.80
  -6   1 -10    2.10    2.80
   6   1  10    3.30    2.10
  -8  -2  10   -1.80    2.50
  -8  -2  10    1.30    2.00
  -8  -2  10   -3.90    1.80
  -8  -2  10   -2.70    1.30
  -8   2  10   -0.50    2.10
  -8   2  10   -2.20    1.30
  -8   2  10   -2.20    2.10
  -8   2  10   -2.40    1.70
  -7  -2  10   15.30    3.20
  -7  -2  10    9.40    2.70
  -7  -2  10   18.00    3.20
  -7  -2  10   13.90    2.70
  -7   2  10   12.40    2.20
  -7   2  10   12.30    3.40
  -7   2  10   15.80    3.10
  -6  -2  10    2.40    2.20
  -6  -2  10    2.60    2.40
  -6  -2  10    4.00    1.90
  -6   2  10    3.50    2.00
  -6   2  10    4.90    4.00
  -6   2  10    4.10    1.50
  -5  -2  10  100.69    6.90
  -5  -2  10  107.69    5.40
   5  -2 -10  102.39    5.40
  -5  -2  10   98.89    6.10
  -5   2  10  100.09    6.70
   5   2 -10   99.09    5.50
  -5   2  10  103.19    5.00
  -5   2  10   98.99    5.50
  -4  -2  10   98.89    5.90
   4  -2 -10  104.59    6.70
  -4  -2  10   99.29    6.60
   4  -2 -10  101.09    5.20
  -4   2  10   92.99    5.30
   4   2 -10   93.09    6.10
  -4   2  10   96.99    6.40
   4   2 -10   98.49    5.20
  -4   2  10   98.99    5.00
  -3  -2  10  137.59    5.80
   3  -2 -10  141.79    7.20
   3  -2 -10  145.49    6.00
  -3  -2  10  144.89    7.70
  -3  -2  10  147.39    6.90
  -3   2  10  138.79    6.20
  -3   2  10  140.19    6.00
   3   2 -10  150.78    5.90
  -3   2  10  151.38    7.40
   3   2 -10  144.09    7.10
   2  -2 -10  322.57   10.80
   2  -2 -10  315.77    9.50
  -2  -2  10  314.57   11.20
  -2  -2  10  315.47    7.30
  -2  -2  10  333.97   10.40
   2   2 -10  314.77    7.10
  -2   2  10  305.57    9.60
   2   2 -10  317.87    9.20
  -2   2  10  315.87   10.70
   2   2 -10  325.77   10.50
  -2   2  10  315.47    9.50
  -1  -2  10   46.00    2.90
  -1  -2  10   47.90    4.90
   1  -2 -10   44.30    5.00
  -1  -2  10   45.30    4.00
   1  -2 -10   43.50    4.00
   1  -2 -10   38.10    4.00
   1  -2 -10   43.70    2.90
   1   2 -10   40.30    3.60
  -1   2  10   45.20    3.90
  -1   2  10   43.30    4.10
  -1   2  10   45.50    3.90
   1   2 -10   38.40    3.80
   1   2 -10   46.20    3.10
   0  -2 -10   -1.20    1.30
   0  -2  10    0.30    1.40
   0  -2 -10   -1.40    1.00
   0  -2  10    0.30    1.00
   0  -2 -10   -1.40    1.50
   0  -2 -10    2.20    1.50
   0  -2  10    2.90    1.70
   0  -2  10    0.80    1.30
   0   2 -10   -0.60    1.10
   0   2 -10    0.00    1.30
   0   2  10   -0.30    1.90
   0   2  10   -0.30    1.20
   0   2 -10    1.30    1.50
   0   2  10    1.10    1.20
  -1  -2 -10  556.34   14.40
   1  -2  10  572.04   14.20
  -1  -2 -10  576.64   15.10
  -1  -2 -10  563.64   15.10
   1  -2  10  566.94   14.60
   1  -2  10  571.84   16.60
  -1  -2 -10  572.74   15.50
   1  -2  10  577.54   15.20
   1   2  10  559.24   15.10
   1   2  10  553.04   17.80
  -1   2 -10  545.05   16.40
   1   2  10  569.94   14.40
  -1   2 -10  563.74   14.90
  -1   2 -10  577.34   14.30
   2  -2  10  109.49    7.30
   2  -2  10  125.29    5.40
   2  -2  10  118.89    6.70
  -2  -2 -10  119.09    7.00
  -2  -2 -10  107.49    7.20
   2  -2  10  115.89    6.40
  -2  -2 -10  121.49    6.60
  -2  -2 -10  121.29    5.80
  -2   2 -10  131.39    6.80
  -2   2 -10  116.19    6.20
   2   2  10  115.29    5.50
   2   2  10  117.99    6.80
  -2   2 -10  120.59    8.20
   3  -2  10  171.98    8.60
   3  -2  10  165.38    9.10
  -3  -2 -10  158.28    6.10
   3  -2  10  173.48    8.00
   3  -2  10  177.48    5.90
  -3  -2 -10  185.88    9.80
  -3  -2 -10  175.48    8.20
  -3  -2 -10  167.08    8.40
   3   2  10  177.98    6.20
   3   2  10  169.98    8.10
  -3   2 -10  183.58    8.80
  -3   2 -10  168.48    7.70
  -3   2 -10  186.38   10.00
   3   2  10  148.79    8.30
  -4  -2 -10   20.10    3.40
  -4  -2 -10   19.30    4.70
   4  -2  10   16.30    3.20
  -4  -2 -10   20.60    3.80
   4  -2  10   24.40    4.00
  -4   2 -10   18.50    3.10
   4   2  10   22.00    2.40
  -4   2 -10   13.80    3.00
   4   2  10   21.30    3.10
  -4   2 -10   21.80    3.70
  -5  -2 -10    7.00    3.50
  -5  -2 -10    0.90    2.90
  -5  -2 -10    4.10    2.20
   5  -2  10    0.20    3.50
  -5   2 -10    0.60    1.70
   5   2  10    3.80    2.00
  -5   2 -10   -1.60    2.20
  -5   2 -10    1.90    2.40
   6  -2  10   -0.90    2.80
  -6  -2 -10   -0.50    3.10
  -6  -2 -10    1.10    2.70
  -6   2 -10    0.50    3.20
  -6   2 -10   -0.10    2.50
  -6   2 -10    1.00    2.30
   6   2  10   -0.40    1.70
  -8  -3  10    2.80    2.50
  -8  -3  10    1.30    1.80
  -8  -3  10   -1.60    2.50
  -8  -3  10   -3.90    2.10
  -8   3  10   -1.00    2.40
  -8   3  10    2.30    2.10
  -8   3  10    0.90    2.20
  -7  -3  10    7.80    2.80
  -7  -3  10    4.40    2.50
  -7  -3  10    3.20    2.40
  -7   3  10    0.20    1.20
  -7   3  10    3.20    2.30
  -7   3  10    1.80    2.20
  -6  -3  10   -0.80    2.10
  -6  -3  10   -2.90    1.50
  -6  -3  10    0.80    1.70
  -6  -3  10   -2.60    1.80
  -6   3  10    0.00    2.00
  -6   3  10    0.90    3.00
  -6   3  10   -1.50    1.10
  -5  -3  10   17.90    3.10
   5  -3 -10   17.00    3.30
  -5  -3  10   16.50    2.90
  -5  -3  10   15.00    2.80
   5  -3 -10   17.30    2.40
   5   3 -10   21.20    3.30
  -5   3  10   13.60    3.10
  -5   3  10   16.90    2.90
  -5   3  10   14.70    2.10
  -5   3  10   11.10    2.60
  -4  -3  10  208.28    8.80
   4  -3 -10  197.88    9.30
   4  -3 -10  214.58    7.30
  -4  -3  10  207.88    9.20
  -4  -3  10  207.48    7.90
   4   3 -10  205.38    9.20
  -4   3  10  194.68    9.20
   4   3 -10  208.28    8.30
  -4   3  10  213.88    7.20
  -4   3  10  206.28    8.20
   3  -3 -10   13.30    2.60
  -3  -3  10   24.20    3.70
  -3  -3  10   16.80    2.80
   3  -3 -10   23.70    2.90
  -3  -3  10   15.90    2.90
  -3   3  10   18.80    3.00
   3   3 -10   19.90    2.90
   3   3 -10   16.70    3.00
  -3   3  10   16.00    2.60
  -3   3  10   15.20    2.30
  -2  -3  10   57.89    4.70
   2  -3 -10   58.39    4.80
  -2  -3  10   51.99    5.20
   2  -3 -10   63.59    4.10
  -2  -3  10   56.09    4.40
   2   3 -10   58.79    4.40
  -2   3  10   56.19    4.90
  -2   3  10   55.79    4.80
   2   3 -10   57.09    4.70
  -2   3  10   57.79    4.30
   1  -3 -10    6.10    1.90
   1  -3 -10    3.50    1.70
   1  -3 -10    4.90    1.50
  -1  -3  10    5.70    2.30
  -1  -3  10    4.40    2.00
   1  -3 -10    3.20    1.90
  -1   3  10    2.60    1.70
   1   3 -10    5.00    1.30
   1   3 -10    3.70    2.10
  -1   3  10    3.30    1.90
   1   3 -10    3.80    1.80
  -1   3  10    4.50    2.10
   0  -3 -10  172.48    7.30
   0  -3 -10  189.78    8.10
   0  -3  10  183.88    8.90
   0  -3  10  182.48    7.60
   0  -3 -10  182.18    7.80
   0  -3 -10  178.18    7.40
   0   3 -10  180.98    7.70
   0   3  10  178.88    7.70
   0   3 -10  182.78    6.50
   0   3  10  184.88    7.70
  -1  -3 -10   -1.20    1.40
   1  -3  10    0.20    1.60
  -1  -3 -10    1.10    2.00
  -1  -3 -10    0.10    2.10
   1  -3  10    0.60    1.60
  -1  -3 -10   -0.30    2.20
  -1   3 -10    0.10    2.20
   1   3  10    1.40    1.60
  -1   3 -10    2.20    1.70
   1   3  10    0.20    1.40
  -1   3 -10    0.70    1.90
  -1   3 -10   -0.40    1.50
  -2  -3 -10  289.87   10.80
   2  -3  10  273.67   11.80
  -2  -3 -10  276.57    9.40
  -2  -3 -10  277.97   10.40
  -2  -3 -10  290.47   11.50
   2  -3  10  280.97   10.10
  -2   3 -10  263.97   12.00
   2   3  10  260.97   10.40
   2   3  10  271.47   11.80
  -2   3 -10  269.27   11.10
  -2   3 -10  276.77    9.80
  -2   3 -10  276.77   10.30
   2   3  10  286.27    9.40
   3  -3  10   76.59    5.50
  -3  -3 -10   78.99    6.80
  -3  -3 -10   80.19    4.80
   3  -3  10   72.79    6.90
   3  -3  10   73.49    4.80
  -3  -3 -10   79.39    7.00
  -3   3 -10   76.19    7.80
  -3   3 -10   89.39    6.60
  -3   3 -10   73.89    5.30
   3   3  10   73.89    4.40
   3   3  10   63.79    7.90
  -4  -3 -10   -2.30    1.00
  -4  -3 -10    2.50    2.30
  -4  -3 -10    1.80    2.60
  -4  -3 -10    4.30    2.40
  -4   3 -10   -3.10    2.20
  -4   3 -10   -0.80    2.20
  -4   3 -10   -1.80    1.20
   4   3  10   -0.20    1.10
   4   3  10   -0.40    2.40
   5  -3  10   10.50    3.00
  -5  -3 -10    9.20    3.80
  -5  -3 -10    7.50    3.10
  -5   3 -10   13.40    2.50
  -5   3 -10    6.10    2.80
   5   3  10   10.20    2.30
  -5   3 -10    9.20    3.20
  -6  -3 -10    2.20    3.10
  -6  -3 -10   -1.90    2.70
   6   3  10   -0.50    1.60
  -6   3 -10   -1.10    2.60
  -6   3 -10   -6.50    2.50
  -7  -4  10   -2.10    2.10
  -7  -4  10    1.80    2.40
  -7  -4  10   -2.00    2.40
  -7   4  10   -0.50    2.10
  -7   4  10   -2.30    1.90
  -6  -4  10    2.10    2.20
  -6  -4  10   -0.30    1.80
   6  -4 -10   -0.40    2.90
  -6   4  10    2.30    1.20
   6   4 -10    0.60    2.30
  -6   4  10    0.30    2.20
  -6   4  10    1.00    1.90
   5  -4 -10    5.20    2.30
   5  -4 -10   11.20    2.10
  -5  -4  10   16.30    3.70
  -5  -4  10    8.00    2.60
  -5  -4  10    6.00    2.00
  -5   4  10    6.40    3.60
  -5   4  10   12.60    1.90
  -5   4  10    8.60    2.50
  -5   4  10    6.70    2.60
   5   4 -10    9.10    2.80
  -4  -4  10   15.00    2.80
   4  -4 -10   10.30    2.90
  -4  -4  10   12.30    2.80
   4  -4 -10   11.80    2.00
  -4  -4  10   18.30    3.30
  -4   4  10   13.70    2.10
  -4   4  10    5.20    2.30
  -4   4  10   12.50    2.50
  -4   4  10    9.40    2.60
   4   4 -10   13.70    3.20
  -3  -4  10   40.30    4.40
   3  -4 -10   41.90    4.80
  -3  -4  10   42.20    5.10
  -3  -4  10   48.10    4.80
   3  -4 -10   41.50    3.50
   3   4 -10   44.70    4.90
  -3   4  10   43.00    4.80
  -3   4  10   37.90    4.70
   3   4 -10   44.20    4.90
   2  -4 -10  368.36   12.40
  -2  -4  10  346.57   11.60
  -2  -4  10  352.86   12.40
   2  -4 -10  364.46   10.40
  -2  -4  10  354.46   11.70
  -2   4  10  347.67   11.40
  -2   4  10  367.76   12.50
   2   4 -10  349.87   12.00
   2   4 -10  367.76   12.00
   1  -4 -10   11.70    2.40
   1  -4 -10   13.50    2.30
  -1  -4  10    9.20    2.20
   1  -4 -10    8.20    2.30
  -1  -4  10   12.60    2.80
   1   4 -10   10.20    2.50
   1   4 -10   13.00    1.70
  -1   4  10    9.00    2.20
  -1   4  10    9.60    2.60
   1   4 -10   10.00    2.60
   0  -4 -10  324.57   11.20
   0  -4 -10  327.77   10.30
   0  -4  10  327.07   12.60
   0  -4  10  337.97   11.00
   0  -4 -10  307.27   11.10
   0  -4 -10  327.27   10.70
   0   4  10  343.87   11.50
   0   4 -10  332.67    9.50
   0   4 -10  321.57   11.60
   0   4 -10  336.87   11.20
   0   4 -10  352.36   13.10
   0   4  10  312.97   11.10
   1  -4  10  238.78    9.20
   1  -4  10  231.48   10.80
  -1  -4 -10  235.18    9.30
  -1  -4 -10  237.48    9.70
  -1  -4 -10  245.68    9.50
  -1  -4 -10  243.98   10.10
  -1   4 -10  238.58   11.30
  -1   4 -10  233.28    8.70
  -1   4 -10  220.88   10.00
  -1   4 -10  231.28    9.10
   1   4  10  241.48    9.90
   1   4  10  232.88    9.20
  -2  -4 -10  501.85   15.10
  -2  -4 -10  478.15   14.00
   2  -4  10  479.95   24.50
  -2  -4 -10  526.35   15.60
  -2  -4 -10  510.55   16.00
   2  -4  10  514.25   14.30
  -2   4 -10  526.65   14.80
   2   4  10  477.65   16.30
  -2   4 -10  507.35   17.20
  -2   4 -10  480.65   14.00
   2   4  10  489.95   13.90
  -2   4 -10  491.75   16.00
  -3  -4 -10  150.08    9.20
  -3  -4 -10  139.29    6.60
   3  -4  10  138.99    7.00
  -3  -4 -10  144.89    8.70
   3  -4  10  132.29    5.70
  -3   4 -10  141.79    9.70
   3   4  10  132.69    6.30
   3   4  10  137.69    6.90
  -3   4 -10  146.79    8.20
  -3   4 -10  135.39    6.70
   4  -4  10   21.70    2.60
   4  -4  10   23.40    2.40
  -4  -4 -10   21.20    4.70
  -4  -4 -10   11.90    3.30
   4  -4  10   14.50    3.20
  -4  -4 -10   18.10    3.30
  -4  -4 -10   17.20    2.90
  -4   4 -10   15.60    2.50
   4   4  10   23.20    3.30
   4   4  10   17.10    3.40
  -4   4 -10   15.20    3.40
   4   4  10   14.60    2.50
  -4   4 -10   10.70    3.40
  -5  -4 -10    7.70    1.70
  -5  -4 -10    5.80    3.50
  -5  -4 -10    1.10    2.90
  -5   4 -10    5.00    2.10
  -5   4 -10    4.50    2.80
  -5   4 -10    0.40    2.70
   5   4  10    2.90    1.60
  -7  -5  10    3.00    2.50
  -7  -5  10    1.10    3.10
  -7   5  10    2.00    2.40
  -7   5  10    4.50    2.90
   6  -5 -10   -1.50    1.70
  -6  -5  10    1.90    2.50
  -6  -5  10    0.80    2.50
  -6  -5  10   -1.10    1.70
   6   5 -10    2.30    2.70
  -6   5  10    1.40    2.40
  -6   5  10    1.40    2.30
   5  -5 -10    6.10    2.90
  -5  -5  10   16.60    3.70
  -5  -5  10   15.70    3.70
   5  -5 -10   16.00    2.10
  -5   5  10   12.80    2.80
  -5   5  10   11.80    3.30
   5   5 -10   18.70    3.90
  -5   5  10    8.60    2.80
  -4  -5  10   -0.90    1.70
  -4  -5  10    0.80    1.50
  -4  -5  10    2.80    2.30
   4  -5 -10    0.80    1.20
  -4   5  10   -3.40    1.90
   4   5 -10   -2.20    1.80
  -4   5  10   -0.40    1.70
  -4   5  10   -0.70    1.60
   3  -5 -10   13.70    2.30
  -3  -5  10   13.00    2.90
  -3  -5  10    8.60    2.20
  -3  -5  10    8.50    2.60
  -3   5  10    9.30    2.70
   3   5 -10    9.30    2.70
  -3   5  10    9.10    2.60
  -3   5  10    9.80    2.60
   2  -5 -10   29.30    3.00
  -2  -5  10   33.60    4.20
  -2  -5  10   35.10    4.70
  -2  -5  10   40.20    5.00
   2  -5 -10   27.10    3.50
   2   5 -10   32.40    4.40
  -2   5  10   26.00    3.70
  -2   5  10   33.00    4.80
   2   5 -10   24.90    4.00
   1  -5 -10  555.94   14.80
  -1  -5  10  577.74   15.90
   1  -5 -10  565.14   13.90
   1  -5 -10  567.54   16.80
  -1  -5  10  560.54   17.30
  -1   5  10  584.24   17.00
   1   5 -10  560.84   12.40
   1   5 -10  558.14   16.40
  -1   5  10  553.74   15.90
   1   5 -10  563.64   16.30
   0  -5 -10   73.09    5.50
   0  -5  10   71.09    5.50
   0  -5 -10   71.29    6.00
   0  -5 -10   65.79    6.00
   0  -5 -10   72.99    5.40
   0  -5  10   79.49    7.00
   0   5  10   69.09    6.10
   0   5 -10   71.29    6.20
   0   5 -10   82.09    7.40
   0   5 -10   75.89    6.00
   0   5  10   72.59    6.00
   0   5 -10   80.69    4.90
  -1  -5 -10  218.68    9.30
  -1  -5 -10  184.08    9.10
  -1  -5 -10  206.18    9.20
  -1  -5 -10  189.58    8.70
   1  -5  10  203.98   10.40
   1  -5  10  193.88    8.30
  -1   5 -10  201.08    9.90
   1   5  10  217.08    9.10
  -1   5 -10  205.78    8.30
  -1   5 -10  192.58    8.50
  -1   5 -10  207.78   11.00
  -2  -5 -10    4.20    2.50
   2  -5  10    1.90    2.00
  -2  -5 -10    3.00    1.70
  -2  -5 -10    1.90    2.30
   2  -5  10    1.60    1.60
  -2   5 -10    4.30    2.60
  -2   5 -10    3.00    1.90
  -2   5 -10   -0.70    1.70
   2   5  10   -1.00    2.80
   2   5  10   -0.10    1.60
   3  -5  10    7.80    2.20
  -3  -5 -10    4.70    3.10
  -3  -5 -10    3.80    2.50
  -3  -5 -10    3.30    1.70
   3  -5  10    3.60    1.50
   3  -5  10    3.60    2.30
  -3  -5 -10    4.00    2.50
   3   5  10    2.00    2.40
  -3   5 -10   11.20    3.40
   3   5  10    5.30    2.00
  -3   5 -10    2.00    3.40
  -3   5 -10    1.90    1.70
  -3   5 -10    1.30    2.80
   3   5  10    2.20    1.60
  -4  -5 -10    2.40    2.70
  -4  -5 -10    4.10    1.80
   4  -5  10    5.00    1.40
   4  -5  10    5.10    1.80
  -4  -5 -10    2.50    3.20
  -4   5 -10    3.80    3.10
  -4   5 -10    2.00    1.70
   4   5  10    2.70    1.60
  -4   5 -10    2.60    2.50
   4   5  10    2.60    1.70
  -5  -5 -10    2.70    1.70
  -5  -5 -10    9.60    3.70
  -5  -5 -10    9.20    4.20
  -5   5 -10    1.40    3.30
  -5   5 -10    0.60    1.60
  -5   5 -10    1.30    2.80
   5   5  10    2.00    1.40
  -6  -6  10   16.90    4.20
  -6  -6  10   11.90    2.40
  -6  -6  10   12.50    2.90
  -6   6  10   12.10    3.80
  -6   6  10   14.40    3.50
   6   6 -10   14.90    4.40
   5  -6 -10    0.60    2.10
  -5  -6  10    1.80    1.90
  -5  -6  10    0.60    2.60
  -5  -6  10   -2.40    1.50
  -5   6  10   -1.00    1.80
  -5   6  10    6.20    2.50
  -5   6  10   -0.30    2.30
  -4  -6  10    1.50    1.70
   4  -6 -10   -0.10    1.90
   4  -6 -10    1.90    1.30
  -4  -6  10   -0.90    1.50
  -4  -6  10   -0.40    2.20
  -4   6  10   -2.50    1.80
  -4   6  10    2.10    2.30
   4   6 -10    6.60    3.40
  -4   6  10    6.30    2.30
  -3  -6  10   -1.80    1.50
  -3  -6  10    2.60    2.60
   3  -6 -10    0.40    1.30
  -3  -6  10    0.40    1.80
  -3   6  10    0.40    2.00
  -3   6  10   -1.30    2.00
  -3   6  10    1.70    1.50
  -3   6  10   -1.10    1.80
   3   6 -10    1.80    2.40
  -2  -6  10    3.60    1.80
   2  -6 -10    6.90    1.80
  -2  -6  10    7.50    2.70
  -2  -6  10    9.90    3.20
   2  -6 -10    6.30    2.00
  -2   6  10   10.00    2.10
   2   6 -10    9.10    2.70
  -2   6  10    3.80    2.00
  -2   6  10    1.90    2.20
  -2   6  10    1.80    2.20
   2   6 -10    3.50    2.50
   1  -6 -10    1.60    1.80
  -1  -6  10    3.10    2.10
  -1  -6  10    7.50    3.10
   1  -6 -10   -0.20    1.50
  -1  -6  10    2.10    1.80
   1  -6 -10    3.60    2.20
  -1   6  10    1.20    2.10
   1   6 -10    4.50    2.50
   1   6 -10    3.40    2.40
   1   6 -10    2.80    1.30
  -1   6  10    3.90    2.10
  -1   6  10    1.20    2.80
   1   6 -10   -1.80    1.70
   0  -6 -10   52.49    5.00
   0  -6 -10   52.99    5.70
   0  -6 -10   52.59    4.90
   0  -6  10   57.49    6.50
   0  -6  10   59.59    5.00
   0   6  10   58.89    5.60
   0   6 -10   49.99    6.50
   0   6 -10   59.59    4.40
   0   6 -10   43.90    5.20
   0   6 -10   59.69    5.50
   1  -6  10   -1.20    1.50
  -1  -6 -10   -0.80    1.50
   1  -6  10   -1.10    1.50
  -1  -6 -10    1.80    1.90
  -1  -6 -10   -2.90    1.60
   1  -6  10    2.30    1.90
  -1  -6 -10   -1.60    1.80
  -1   6 -10    1.30    1.70
   1   6  10    0.50    1.70
  -1   6 -10    0.10    2.30
  -1   6 -10   -1.80    1.70
  -2  -6 -10    0.30    1.70
   2  -6  10    3.30    1.90
  -2  -6 -10    3.30    2.10
   2  -6  10    3.80    2.30
  -2  -6 -10    2.00    2.30
   2  -6  10    5.60    1.90
  -2  -6 -10    3.20    2.40
   2   6  10    6.80    2.90
  -2   6 -10    2.10    2.60
  -2   6 -10    9.00    2.90
  -2   6 -10    2.40    1.70
   2   6  10    3.90    2.00
  -2   6 -10    1.80    2.10
   3  -6  10    2.50    1.60
  -3  -6 -10    0.00    2.60
  -3  -6 -10    1.60    2.90
  -3  -6 -10   -0.90    1.80
   3  -6  10    0.80    1.60
  -3   6 -10    0.10    2.20
   3   6  10   -0.30    1.70
  -3   6 -10   -3.30    1.40
  -3   6 -10   -2.50    1.80
   3   6  10   -1.40    1.20
   4  -6  10    1.90    1.60
  -4  -6 -10   -1.60    1.70
  -4  -6 -10    1.30    2.40
  -4  -6 -10    2.40    2.80
   4  -6  10   -0.20    1.60
  -4   6 -10   -0.50    2.60
  -4   6 -10   -0.60    2.20
   4   6  10   -2.10    1.30
  -4   6 -10   -0.80    1.90
  -6  -7  10    1.30    3.00
  -6  -7  10   -3.80    2.70
  -6   7  10    0.20    2.40
  -5  -7  10    1.50    2.90
  -5  -7  10   -2.60    1.60
  -5  -7  10    4.90    3.00
   5   7 -10   -7.30    3.40
  -5   7  10    0.40    2.30
  -5   7  10   -1.90    2.40
  -4  -7  10   -2.00    1.50
  -4  -7  10    1.30    2.80
  -4  -7  10   -3.10    1.80
  -4   7  10    0.50    2.30
  -4   7  10   -1.40    1.90
   4   7 -10   -4.00    2.50
   3  -7 -10   -3.20    2.00
  -3  -7  10   -0.80    1.80
   3  -7 -10    0.60    1.50
  -3  -7  10    2.30    2.70
  -3   7  10   -0.50    2.20
  -3   7  10   -1.60    1.70
   3   7 -10   -2.20    3.10
  -3   7  10    1.70    2.00
  -3   7  10   -2.00    1.80
  -2  -7  10    6.30    2.50
   2  -7 -10    7.60    2.10
  -2  -7  10    7.40    2.70
  -2  -7  10    9.70    3.40
   2  -7 -10    9.70    2.20
  -2   7  10    6.40    2.40
  -2   7  10    0.60    2.20
  -2   7  10    5.80    2.70
  -2   7  10    3.70    2.30
   1  -7 -10   21.50    3.30
  -1  -7  10   18.80    3.40
   1  -7 -10   23.00    3.30
  -1  -7  10   17.80    3.50
  -1  -7  10   16.00    2.80
   1  -7 -10   20.50    3.80
  -1   7  10   20.60    3.80
  -1   7  10   25.10    3.80
   1   7 -10   18.10    4.00
   1   7 -10   19.90    5.60
  -1   7  10   20.80    3.70
   1   7 -10   15.60    4.60
   1   7 -10   21.40    3.00
   0  -7 -10   -1.30    1.40
   0  -7 -10    4.80    2.20
   0  -7  10    2.10    2.20
   0  -7 -10    1.30    2.00
   0  -7  10   -1.60    1.90
   0   7  10    2.10    2.20
   0   7 -10   -2.20    2.30
   0   7 -10    1.30    1.50
   0   7 -10   -0.20    2.30
   0   7 -10   -4.50    1.80
   0   7  10   -0.50    1.70
  -1  -7 -10    1.20    2.00
  -1  -7 -10    3.40    2.60
  -1  -7 -10    0.60    2.00
   1  -7  10    3.50    1.80
   1  -7  10   -1.50    1.60
  -1   7 -10    1.80    2.50
  -1   7 -10   -3.40    1.80
  -1   7 -10    3.80    2.00
  -1   7 -10    3.60    2.90
   1   7  10    0.90    1.60
   1   7  10   -1.50    2.20
   1   7  10    3.00    2.30
  -2  -7 -10    2.50    2.90
   2  -7  10    2.60    1.70
  -2  -7 -10    2.40    4.30
  -2  -7 -10   -1.50    2.10
   2  -7  10   -0.20    1.70
  -2  -7 -10    1.70    2.20
   2   7  10    0.10    1.90
  -2   7 -10    1.50    1.90
  -2   7 -10   -1.40    2.20
   2   7  10   -0.60    1.60
  -2   7 -10   -0.20    1.90
   3  -7  10    9.90    2.40
  -3  -7 -10    6.20    3.20
   3  -7  10   11.80    2.60
  -3  -7 -10    9.70    3.10
  -3  -7 -10   14.50    2.90
  -3   7 -10   11.40    3.60
   3   7  10    9.60    2.00
   3   7  10    7.30    2.00
  -3   7 -10    4.40    2.30
   3   7  10   11.00    2.90
  -3   7 -10   11.80    3.00
  -4  -7 -10    2.30    3.30
   4  -7  10    5.60    2.20
   4  -7  10    5.50    2.20
  -4  -7 -10    1.70    2.50
  -4  -7 -10    8.70    3.10
  -4   7 -10    9.00    2.50
  -4   7 -10    8.90    3.40
  -4   7 -10    3.10    4.10
  -4  -8  10    3.80    3.00
  -4  -8  10    2.20    2.70
  -4  -8  10    0.00    1.60
  -4   8  10   -2.90    2.30
  -4   8  10   -0.90    2.30
  -3  -8  10    4.00    2.90
  -3  -8  10    4.60    2.50
   3  -8 -10   -0.40    1.50
  -3  -8  10   -0.20    1.70
  -3   8  10    7.30    3.00
  -3   8  10    0.50    2.70
  -3   8  10    1.40    2.60
   2  -8 -10    2.80    1.70
  -2  -8  10   -2.30    1.50
  -2  -8  10   -2.20    1.60
  -2  -8  10    3.10    2.60
   2  -8 -10   -2.30    1.50
  -2   8  10   -2.80    2.20
  -2   8  10    1.50    2.10
  -2   8  10   -0.90    2.10
  -1  -8  10    2.80    2.10
  -1  -8  10    7.60    2.90
   1  -8 -10    6.10    2.10
  -1  -8  10    0.20    2.30
   1  -8 -10    8.10    2.40
   1   8 -10    4.90    2.70
  -1   8  10   10.50    3.10
  -1   8  10    4.00    2.30
   1   8 -10    3.40    1.60
  -1   8  10    5.40    2.60
   0  -8 -10    1.90    2.00
   0  -8  10    1.80    2.50
   0  -8  10    5.50    2.10
   0   8 -10    2.30    2.50
   0   8  10    0.10    1.70
   0   8  10    5.20    2.60
   0   8 -10    2.50    1.90
   1  -8  10    2.50    2.30
  -1  -8 -10   -0.60    2.10
   1  -8  10    4.30    2.10
  -1  -8 -10   -1.20    2.30
  -1   8 -10    1.50    2.60
  -1   8 -10    3.80    2.20
   1   8  10    4.40    2.70
  -1   8 -10    5.00    2.90
   1   8  10    0.60    1.80
   2  -8  10    3.80    2.60
  -2  -8 -10    3.00    3.10
   2   8  10    4.20    2.80
  -2   8 -10   -2.50    2.30
  -2   8 -10    0.50    3.10
   2   8  10    0.80    1.70
  -2   8 -10    5.00    2.50
   3  -9 -10    2.30    1.70
  -3  -9  10   -1.70    2.40
  -3  -9  10    1.60    3.80
  -3  -9  10    7.00    3.30
  -3   9  10   -1.30    2.60
  -3   9  10    1.10    2.70
  -3   9  10   -3.20    2.70
   2  -9 -10   -1.50    1.50
  -2  -9  10   -2.20    1.80
   2  -9 -10    0.40    1.90
  -2  -9  10    2.00    2.70
  -2  -9  10    1.60    2.70
  -2   9  10   -0.20    2.60
  -2   9  10    1.40    2.80
  -1  -9  10    1.20    2.10
  -1  -9  10   -1.60    2.40
   1  -9 -10    0.40    2.00
   1   9 -10   -2.70    2.20
   1   9 -10   -3.80    1.50
  -1   9  10   -0.60    2.60
  -1   9  10   -2.60    2.50
  -1   9  10   -0.20    2.10
   0  -9 -10    7.00    2.40
   0  -9 -10   -2.20    2.00
   0  -9  10    5.00    2.30
   0   9  10    1.80    2.70
   0   9  10   -0.40    2.10
   0   9  10    4.70    3.10
   0   9 -10   -1.20    2.60
  -1  -9 -10   -0.20    2.40
   1  -9  10   -1.40    2.00
   1   9  10   -1.20    2.50
  -1   9 -10    0.60    2.20
   1   9  10    0.00    2.00
  -8   0  11   -2.20    1.70
  -8   0  11   -1.70    3.60
  -8   0  11   -1.90    1.50
  -8   0  11   -2.10    1.80
  -7   0  11    0.20    1.90
  -7   0  11   -0.20    1.60
  -7   0  11   -0.40    1.40
  -7   0  11    0.60    2.10
  -6   0  11    0.20    2.90
  -6   0  11    1.60    1.30
  -6   0  11   -0.60    1.60
  -5   0  11    1.90    1.60
  -5   0  11    0.60    1.50
   5   0 -11   -0.80    1.80
  -5   0  11    0.60    1.20
  -4   0  11    0.70    1.20
   4   0 -11    0.70    1.90
  -4   0  11    3.80    2.00
  -4   0  11    1.60    1.80
  -3   0  11   -0.30    1.20
  -3   0  11    0.80    1.50
  -3   0  11    1.40    1.50
   3   0 -11    2.20    1.60
   2   0 -11   -0.40    1.00
   2   0 -11    0.60    1.20
  -2   0  11    2.00    1.30
  -2   0  11    1.20    1.60
  -2   0  11    2.00    1.60
  -1   0  11   -0.70    1.00
  -1   0  11    1.20    1.50
   1   0 -11   -0.50    1.10
  -1   0  11    1.00    1.60
  -1   0  11    1.20    1.30
   1   0 -11   -0.20    1.40
   1   0 -11    1.10    1.40
   0   0  11    0.80    1.50
   0   0  11    0.70    1.30
   0   0  11    1.10    1.60
   0   0 -11    0.60    1.50
   0   0  11   -0.30    1.10
   0   0 -11    1.00    1.30
  -1   0 -11    1.60    1.90
   1   0  11   -0.70    1.50
   1   0  11    0.40    1.20
  -1   0 -11   -0.10    1.30
   1   0  11   -0.90    1.50
   1   0  11   -0.70    1.20
  -2   0 -11    2.30    2.00
   2   0  11    1.40    1.90
   2   0  11   -2.90    1.30
  -2   0 -11   -0.60    1.90
   2   0  11   -0.50    1.10
   2   0  11   -0.10    1.50
  -3   0 -11    1.50    2.20
   3   0  11    0.50    1.00
   3   0  11   -0.40    1.50
   3   0  11   -0.20    1.40
  -3   0 -11   -1.10    1.30
   4   0  11    0.70    2.00
  -4   0 -11   -2.00    1.80
   4   0  11   -0.50    1.60
  -4   0 -11   -2.10    2.30
  -5   0 -11   -4.20    1.80
   5   0  11   -1.70    1.80
  -5   0 -11   -1.40    2.30
  -6   0 -11   -1.20    3.00
   6   0  11   -0.80    1.90
  -8  -1  11   -1.70    1.90
  -8  -1  11    1.10    2.20
  -8  -1  11   -3.00    1.60
  -8  -1  11   -2.70    1.20
  -8   1  11    0.70    2.30
  -8   1  11   -1.90    1.80
  -8   1  11    0.00    1.70
  -8   1  11    2.20    2.30
  -7  -1  11    1.90    2.00
  -7  -1  11    6.70    1.30
  -7  -1  11    7.60    2.20
  -7  -1  11    3.00    4.00
  -7  -1  11    3.60    2.30
  -7  -1  11    3.40    1.30
  -7   1  11    3.40    1.70
  -7   1  11    2.10    2.40
  -7   1  11    7.50    2.40
  -7   1  11    3.40    1.70
  -6  -1  11    7.20    1.90
  -6  -1  11    5.00    1.30
  -6  -1  11    4.10    1.30
  -6  -1  11    7.30    2.40
  -6  -1  11    3.70    2.10
  -6   1  11    2.00    2.30
  -6   1  11    4.20    1.70
  -6   1  11    6.30    2.20
  -5  -1  11  106.39    6.90
  -5  -1  11  107.59    6.30
  -5  -1  11   98.99    3.80
   5  -1 -11  106.89    6.10
  -5  -1  11  103.29    4.50
  -5   1  11  103.79    5.60
   5   1 -11  108.19    6.50
  -5   1  11  101.19    6.80
  -5   1  11   99.29    5.10
   4  -1 -11    9.20    2.30
  -4  -1  11    8.50    1.30
  -4  -1  11    8.70    2.20
  -4  -1  11    6.70    2.30
  -4   1  11    7.70    2.00
  -4   1  11    4.60    2.00
  -4   1  11    9.60    2.00
   4   1 -11    5.80    2.20
  -3  -1  11   11.20    1.50
  -3  -1  11   11.40    2.40
   3  -1 -11   14.20    2.50
  -3  -1  11    8.80    2.10
   3   1 -11   12.50    2.40
   3   1 -11   14.90    2.30
  -3   1  11   11.20    2.00
  -3   1  11    9.90    2.20
  -3   1  11   10.40    2.30
  -2  -1  11    5.20    1.90
  -2  -1  11    4.30    1.80
  -2  -1  11    6.60    2.10
  -2  -1  11    6.30    1.40
   2  -1 -11    3.80    1.30
  -2   1  11    1.80    1.40
   2   1 -11    6.50    1.60
   2   1 -11    4.90    1.30
   2   1 -11    5.00    2.00
  -2   1  11    3.70    1.80
  -2   1  11    6.50    1.70
  -1  -1  11   22.30    3.30
   1  -1 -11   18.90    2.80
   1  -1 -11   18.70    2.60
  -1  -1  11   24.00    3.50
  -1  -1  11   22.30    2.70
  -1   1  11   20.90    3.00
   1   1 -11   17.30    2.50
  -1   1  11   16.50    2.20
  -1   1  11   18.70    2.90
   1   1 -11   23.10    3.10
   1   1 -11   20.20    2.80
   0  -1 -11   56.89    4.40
   0  -1  11   66.79    5.80
   0  -1  11   65.19    4.90
   0  -1  11   62.69    4.20
   0  -1  11   66.39    4.60
   0  -1 -11   60.89    4.80
   0   1  11   64.59    5.70
   0   1  11   65.99    4.80
   0   1  11   62.69    4.60
   0   1 -11   63.89    4.40
   0   1 -11   56.39    4.30
   1  -1  11  213.48    9.70
  -1  -1 -11  227.48    8.70
   1  -1  11  220.28    8.10
  -1  -1 -11  225.48    8.60
   1  -1  11  219.18    8.40
   1  -1  11  216.88    8.80
   1   1  11  225.18    9.60
  -1   1 -11  209.28    8.50
   1   1  11  208.28    8.70
  -1   1 -11  216.98    8.20
   1   1  11  210.58    8.40
   1   1  11  213.88    7.90
   2  -1  11   63.69    4.10
   2  -1  11   57.79    5.10
  -2  -1 -11   59.19    5.50
  -2  -1 -11   58.29    4.90
   2  -1  11   61.29    5.80
   2  -1  11   61.39    5.30
   2   1  11   57.89    4.00
   2   1  11   58.79    5.50
   2   1  11   55.39    5.20
  -2   1 -11   61.39    5.00
  -2   1 -11   56.79    5.30
   3  -1  11    0.40    1.70
   3  -1  11    0.30    0.90
  -3  -1 -11   -2.30    1.80
  -3  -1 -11    0.80    1.80
   3  -1  11   -0.60    1.50
  -3   1 -11   -1.10    2.00
  -3   1 -11    0.30    1.70
   3   1  11   -0.10    1.50
   3   1  11   -1.70    1.60
  -4  -1 -11   80.59    7.00
   4  -1  11   84.19    7.00
  -4  -1 -11   75.99    7.50
   4  -1  11   79.79    6.90
  -4   1 -11   85.19    5.90
   4   1  11   81.19    6.40
  -4   1 -11   94.19    7.40
   4   1  11  100.69    7.30
  -5  -1 -11   43.00    6.20
  -5  -1 -11   36.70    5.00
   5   1  11   43.90    5.60
  -5   1 -11   31.60    4.70
  -5   1 -11   38.90    4.80
   6  -1  11   -1.80    2.30
  -6  -1 -11   -4.50    2.80
  -6  -1 -11    2.00    3.70
   6   1  11   -1.70    2.00
  -6   1 -11   -2.90    2.40
  -8  -2  11    0.90    2.10
  -8  -2  11    2.30    2.50
  -8  -2  11    1.10    2.50
  -8   2  11    4.70    2.60
  -8   2  11    3.60    1.60
  -8   2  11    4.80    2.80
  -8   2  11    3.50    2.30
  -7  -2  11   27.80    3.70
  -7  -2  11   19.40    3.70
  -7  -2  11   23.10    3.70
  -7   2  11   29.80    3.30
  -7   2  11   21.50    3.70
  -7   2  11   21.20    4.20
  -6  -2  11   -1.90    2.00
  -6  -2  11    2.00    2.30
  -6  -2  11   -1.60    1.60
  -6   2  11    1.30    2.00
  -6   2  11    2.20    1.40
  -6   2  11    2.80    1.60
  -6   2  11    1.30    1.90
   5  -2 -11    7.00    2.50
  -5  -2  11    5.20    2.20
  -5  -2  11    7.40    2.60
  -5  -2  11    6.30    1.90
   5   2 -11    9.80    2.10
  -5   2  11    3.80    1.80
  -5   2  11    1.90    1.90
  -5   2  11    3.60    1.60
   5   2 -11    7.90    2.60
  -4  -2  11   14.10    2.90
  -4  -2  11   16.10    2.90
  -4   2  11   16.80    2.50
   4   2 -11   13.80    2.50
  -4   2  11   17.20    3.30
   4   2 -11   19.80    2.70
  -3  -2  11    5.40    2.00
  -3  -2  11    7.80    2.50
   3  -2 -11    7.10    2.10
  -3  -2  11    7.00    2.10
   3  -2 -11    7.60    1.90
   3   2 -11    9.80    2.20
  -3   2  11    9.90    2.40
   3   2 -11   12.10    2.80
  -3   2  11    7.50    1.90
  -3   2  11    8.40    2.30
   2  -2 -11    6.70    2.00
  -2  -2  11    5.40    1.10
  -2  -2  11    2.80    1.60
  -2  -2  11    3.10    1.90
  -2  -2  11    3.10    2.00
   2   2 -11    4.20    1.90
  -2   2  11    5.40    2.10
  -2   2  11    5.80    2.00
  -2   2  11    5.10    1.80
   2   2 -11    4.90    1.20
   2   2 -11    6.70    1.90
  -1  -2  11   21.70    2.80
   1  -2 -11   21.00    2.70
  -1  -2  11   17.20    2.80
   1  -2 -11   16.40    2.70
  -1  -2  11   13.20    2.80
   1  -2 -11   17.80    2.60
  -1  -2  11   28.60    3.70
   1  -2 -11   25.10    3.30
   1   2 -11   20.20    3.10
   1   2 -11   17.90    2.10
  -1   2  11   17.80    2.80
   1   2 -11   17.70    2.60
  -1   2  11   12.40    2.70
  -1   2  11   16.90    2.50
   0  -2 -11  270.17    9.50
   0  -2 -11  279.17    9.90
   0  -2 -11  269.37    9.20
   0  -2  11  263.57    8.60
   0  -2  11  270.47    9.90
   0  -2  11  265.17   10.80
   0  -2 -11  274.27    9.60
   0  -2  11  274.37    9.60
   0   2  11  267.97    9.50
   0   2 -11  267.27    9.60
   0   2 -11  282.07    8.60
   0   2  11  278.37    9.70
   0   2 -11  265.27    9.50
   0   2  11  272.67    9.90
   1  -2  11   97.29    7.10
   1  -2  11  102.29    5.70
  -1  -2 -11  112.89    6.70
  -1  -2 -11   95.19    5.70
  -1  -2 -11  102.69    6.00
   1  -2  11   96.99    6.10
   1  -2  11  102.79    7.10
  -1  -2 -11  103.39    6.50
   1   2  11  106.29    6.40
  -1   2 -11  105.09    6.10
  -1   2 -11   98.99    6.50
  -1   2 -11   97.89    5.80
   1   2  11  105.59    5.70
   1   2  11  106.09    6.90
  -2  -2 -11  292.57   10.80
  -2  -2 -11  279.27   11.50
  -2  -2 -11  271.87   10.30
   2  -2  11  291.27   12.00
   2  -2  11  277.37   10.40
   2  -2  11  286.07   10.50
   2  -2  11  286.47    9.00
  -2  -2 -11  282.47    9.20
  -2   2 -11  271.27   10.10
   2   2  11  289.57   10.90
   2   2  11  281.07    9.10
  -2   2 -11  280.67   10.30
   2   2  11  273.77   10.60
   3  -2  11    8.40    2.60
   3  -2  11    4.80    2.30
   3  -2  11    4.30    1.40
  -3  -2 -11    1.30    3.40
  -3  -2 -11    9.60    2.40
   3  -2  11    2.90    2.00
  -3  -2 -11    6.30    3.00
   3   2  11    3.80    1.70
  -3   2 -11    8.00    2.20
  -3   2 -11    5.50    2.50
   3   2  11    3.70    2.00
   3   2  11    6.90    1.70
  -3   2 -11    6.60    2.40
  -4  -2 -11    4.10    2.20
  -4  -2 -11    4.80    2.60
   4  -2  11    5.70    2.60
  -4  -2 -11    7.30    3.50
  -4   2 -11    3.00    2.50
   4   2  11    3.20    1.80
  -4   2 -11    7.20    2.40
  -4   2 -11    2.50    2.10
   4   2  11    4.80    1.30
  -5  -2 -11    0.70    3.00
  -5  -2 -11   -0.70    2.40
   5  -2  11   -1.40    1.80
  -5   2 -11    0.00    2.50
  -5   2 -11    1.10    2.10
  -5   2 -11   -1.10    2.60
   5   2  11   -2.70    1.40
  -7  -3  11   -1.80    2.00
  -7  -3  11    6.90    2.70
  -7  -3  11    3.70    2.30
  -7  -3  11    6.10    2.90
  -7   3  11    4.70    2.40
  -7   3  11    4.40    2.60
  -7   3  11    3.60    1.50
  -6  -3  11    0.70    1.90
  -6  -3  11    0.40    1.90
  -6  -3  11    0.60    2.00
  -6  -3  11    1.40    2.10
  -6   3  11    2.20    2.10
  -6   3  11    3.20    2.10
  -6   3  11   -1.50    1.20
  -6   3  11   -0.20    1.70
  -5  -3  11   28.10    4.90
   5  -3 -11   27.90    3.30
  -5  -3  11   19.10    3.00
  -5  -3  11   31.00    3.90
  -5   3  11   29.50    3.20
  -5   3  11   20.70    3.80
  -5   3  11   24.30    5.90
  -5   3  11   32.70    4.30
   5   3 -11   26.30    4.20
  -4  -3  11   37.30    5.30
  -4  -3  11   34.80    4.20
  -4  -3  11   33.30    4.50
   4  -3 -11   36.60    3.50
   4   3 -11   39.30    5.20
   4   3 -11   44.30    4.30
  -4   3  11   34.00    4.40
  -4   3  11   25.20    3.90
  -4   3  11   34.20    3.60
  -3  -3  11  229.38    8.60
  -3  -3  11  222.78    9.20
   3  -3 -11  232.88   10.00
  -3  -3  11  218.58    9.90
  -3   3  11  221.28    8.50
   3   3 -11  232.78    9.70
   3   3 -11  225.28    8.40
  -3   3  11  221.18    9.50
  -3   3  11  224.88    8.20
   2  -3 -11   28.80    4.10
  -2  -3  11   37.00    4.30
   2  -3 -11   37.90    3.70
  -2   3  11   35.70    4.50
  -2   3  11   33.60    4.40
   2   3 -11   32.10    4.00
  -2   3  11   38.10    4.00
   2   3 -11   37.20    4.20
  -1  -3  11  360.76   11.80
   1  -3 -11  352.16   12.00
   1  -3 -11  347.67   10.90
  -1  -3  11  357.96   13.00
   1  -3 -11  363.96   11.40
   1  -3 -11  377.56    9.50
  -1   3  11  371.26   12.30
  -1   3  11  371.06   11.60
   1   3 -11  351.96   11.30
   1   3 -11  373.56   12.00
  -1   3  11  367.96   11.50
   1   3 -11  358.06    9.00
   0  -3 -11   24.70    3.40
   0  -3 -11   20.20    3.20
   0  -3  11   12.70    2.50
   0  -3 -11   27.10    3.80
   0  -3 -11   18.70    3.20
   0  -3  11   17.90    3.00
   0   3  11   21.90    3.10
   0   3  11   21.10    3.10
   0   3 -11   18.70    2.60
   0   3 -11   24.40    3.80
   0   3 -11   19.70    2.90
  -1  -3 -11  703.13   18.30
  -1  -3 -11  687.13   18.10
  -1  -3 -11  698.93   18.40
   1  -3  11  709.53   18.10
   1  -3  11  685.23   19.90
  -1  -3 -11  667.13   17.50
  -1   3 -11  678.13   17.80
   1   3  11  674.83   18.20
  -1   3 -11  681.93   18.70
  -1   3 -11  705.03   17.10
  -1   3 -11  693.93   20.40
   1   3  11  703.43   18.80
   1   3  11  699.63   17.60
   2  -3  11   95.69    5.30
  -2  -3 -11  100.49    7.00
  -2  -3 -11   98.99    6.80
   2  -3  11   95.89    6.20
  -2  -3 -11   93.79    7.10
   2  -3  11   92.49    7.60
   2   3  11   95.69    6.40
   2   3  11   96.89    5.60
   2   3  11   88.39    6.30
  -2   3 -11   99.29    7.00
  -2   3 -11  101.89    6.10
  -2   3 -11   93.49    8.20
  -2   3 -11   90.09    6.40
  -3  -3 -11   33.70    5.40
  -3  -3 -11   32.10    3.50
   3  -3  11   38.90    4.40
  -3  -3 -11   24.20    3.80
   3  -3  11   31.80    3.10
   3   3  11   34.50    3.40
  -3   3 -11   29.40    4.00
  -3   3 -11   25.90    3.80
  -3   3 -11   27.80    4.70
   3   3  11   33.00    4.30
  -4  -3 -11    6.90    2.60
   4  -3  11    3.40    2.40
  -4  -3 -11    1.20    1.40
  -4  -3 -11    4.80    2.60
  -4  -3 -11    3.70    2.50
  -4   3 -11    2.10    2.40
   4   3  11    0.70    1.60
   4   3  11    6.30    3.30
  -4   3 -11   -0.10    2.30
  -4   3 -11    1.50    1.90
   4   3  11    2.10    1.30
  -5  -3 -11    1.20    2.70
  -5  -3 -11    3.00    2.90
  -5   3 -11    1.00    2.50
  -5   3 -11   -3.50    2.30
  -7  -4  11   -1.20    2.00
  -7  -4  11   -3.00    2.20
  -7  -4  11   -1.90    2.30
  -7   4  11   -0.70    2.10
  -7   4  11   -3.70    2.20
  -6  -4  11    8.90    2.70
  -6  -4  11    5.80    2.70
   6  -4 -11    6.10    2.90
  -6  -4  11    1.90    2.00
  -6   4  11    2.90    2.30
  -6   4  11    9.10    1.60
   6   4 -11    8.10    2.90
  -6   4  11    6.70    2.80
  -6   4  11    5.50    2.00
  -5  -4  11   -1.10    1.70
  -5  -4  11    0.00    1.90
   5  -4 -11   -1.10    1.30
  -5  -4  11    0.70    2.00
   5   4 -11   -2.40    1.80
  -5   4  11   -0.10    2.00
  -5   4  11    3.80    1.50
  -5   4  11   -0.30    2.10
  -5   4  11    2.70    1.90
   4  -4 -11   28.20    3.30
  -4  -4  11   23.10    3.30
  -4  -4  11   30.70    6.90
  -4  -4  11   36.80    4.50
  -4   4  11   34.80    4.60
   4   4 -11   24.30    3.70
  -4   4  11   21.50    4.80
  -4   4  11   33.70    3.60
  -4   4  11   27.90    5.10
  -3  -4  11  110.09    6.50
  -3  -4  11   93.09    7.00
  -3   4  11  101.59    6.90
   3   4 -11  101.39    6.30
  -3   4  11   95.39    5.60
  -3   4  11   96.09    6.30
   2  -4 -11  115.19    7.20
  -2  -4  11  106.59    7.50
   2  -4 -11  122.79    6.00
  -2  -4  11  116.19    6.80
   2   4 -11  116.99    6.80
  -2   4  11  111.19    7.20
   2   4 -11  122.49    7.20
  -2   4  11  110.69    6.70
   1  -4 -11  321.97    9.10
  -1  -4  11  327.07   11.40
  -1  -4  11  330.47   12.80
   1  -4 -11  324.77   10.60
   1  -4 -11  316.17   11.80
   1   4 -11  327.17   11.40
  -1   4  11  340.07   12.10
   1   4 -11  329.17    8.40
   1   4 -11  322.67   11.70
  -1   4  11  329.87   11.60
   0  -4 -11    1.90    1.60
   0  -4 -11    0.30    2.20
   0  -4 -11   -1.40    1.90
   0  -4  11    0.40    1.70
   0  -4 -11   -0.50    1.70
   0  -4  11    0.00    1.30
   0   4 -11   -0.80    1.80
   0   4 -11    2.00    1.70
   0   4  11   -1.10    1.90
   0   4  11    2.70    2.00
   0   4 -11   -1.70    2.10
  -1  -4 -11    7.90    2.70
  -1  -4 -11    7.40    2.10
   1  -4  11    8.10    2.70
  -1  -4 -11    7.40    2.90
  -1  -4 -11    9.10    2.50
  -1   4 -11    6.70    2.20
  -1   4 -11   10.20    3.00
   1   4  11    3.80    2.10
  -1   4 -11    7.20    3.00
  -1   4 -11   10.10    2.50
   1   4  11    6.00    2.30
  -2  -4 -11   26.30    3.90
  -2  -4 -11   19.30    3.60
  -2  -4 -11   31.50    4.80
   2  -4  11   24.30    3.40
   2   4  11   32.20    3.90
  -2   4 -11   24.40    3.30
  -2   4 -11   29.80    4.10
   2   4  11   20.90    3.00
  -2   4 -11   33.10    4.40
  -3  -4 -11   61.19    6.70
  -3  -4 -11   60.79    4.70
   3  -4  11   58.29    4.10
  -3  -4 -11   67.69    8.90
   3  -4  11   63.49    5.20
   3  -4  11   46.60    6.40
   3  -4  11   65.99    4.30
  -3   4 -11   65.49    5.20
  -3   4 -11   43.00    6.70
   3   4  11   63.59    4.70
  -3   4 -11   74.79    6.60
  -3   4 -11   64.99    8.00
   3   4  11   57.79    5.10
   4  -4  11   11.00    1.70
  -4  -4 -11   10.80    3.60
  -4  -4 -11   16.20    4.50
   4  -4  11   14.80    1.90
  -4  -4 -11   10.70    2.30
   4   4  11   11.10    2.20
  -4   4 -11   14.20    3.80
  -4   4 -11   10.20    2.60
   4   4  11    6.90    2.10
  -4   4 -11   10.40    3.20
  -5  -4 -11    4.50    1.70
  -5  -4 -11   10.90    4.10
  -5  -4 -11   10.40    4.10
  -5   4 -11    3.20    3.10
  -5   4 -11    6.20    3.00
   5   4  11    2.20    1.70
  -5   4 -11    7.00    3.30
  -7  -5  11   -0.70    2.60
  -7  -5  11   -1.80    2.00
  -7   5  11    1.30    2.50
  -7   5  11    3.70    2.50
  -6  -5  11    4.50    2.50
  -6  -5  11    6.40    3.30
  -6  -5  11    2.70    2.10
   6   5 -11   12.50    3.80
  -6   5  11    3.60    2.50
  -6   5  11    3.60    2.80
   5  -5 -11    0.70    1.50
   5  -5 -11    0.80    1.50
  -5  -5  11    2.10    2.50
  -5  -5  11   -1.60    1.70
  -5  -5  11    6.00    2.70
  -5   5  11    0.30    2.10
   5   5 -11    2.50    2.80
  -5   5  11   -0.60    2.00
  -5   5  11    3.20    2.40
   4  -5 -11    1.30    1.20
  -4  -5  11    3.20    2.50
  -4  -5  11   -0.70    1.70
   4  -5 -11    3.70    2.50
  -4  -5  11   -0.60    1.70
  -4   5  11   -1.30    1.80
  -4   5  11    1.70    2.00
   4   5 -11   -0.80    1.90
  -4   5  11   -1.30    2.00
  -3  -5  11   10.20    3.00
  -3  -5  11    4.90    2.40
  -3  -5  11    8.70    2.60
   3  -5 -11    7.00    2.20
  -3   5  11    8.30    2.70
   3   5 -11    6.90    2.90
  -3   5  11    3.30    2.40
   2  -5 -11   51.49    5.70
  -2  -5  11   68.19    5.70
  -2  -5  11   71.79    6.10
  -2  -5  11   69.39    6.70
   2  -5 -11   64.39    4.70
   2   5 -11   73.69    6.50
  -2   5  11   67.79    6.20
  -2   5  11   70.09    6.10
   2   5 -11   69.19    5.90
   1  -5 -11    4.10    1.90
   1  -5 -11    3.80    1.90
   1  -5 -11    6.80    2.40
  -1  -5  11    4.50    2.60
  -1  -5  11    6.70    2.40
   1   5 -11    4.10    1.50
   1   5 -11    5.50    2.70
  -1   5  11    0.90    2.00
  -1   5  11    5.70    2.50
   1   5 -11    5.80    2.40
   0  -5  11   88.99    7.70
   0  -5 -11  106.89    7.00
   0  -5 -11   85.79    5.80
   0  -5 -11   94.59    5.90
   0  -5 -11   97.69    6.80
   0  -5  11   99.59    6.20
   0   5  11   86.69    6.70
   0   5 -11   96.99    6.90
   0   5 -11   96.19    5.30
   0   5  11  101.69    6.80
   0   5 -11   97.49    8.20
   0   5 -11   94.59    6.60
   1  -5  11    2.80    1.90
  -1  -5 -11    1.30    1.80
  -1  -5 -11    2.40    1.70
  -1  -5 -11    2.20    2.20
  -1  -5 -11    2.70    2.10
   1  -5  11    1.90    1.80
  -1   5 -11    6.50    2.30
   1   5  11    2.50    1.80
  -1   5 -11    4.10    2.60
  -1   5 -11    2.70    2.40
  -1   5 -11    1.90    1.70
  -2  -5 -11    6.90    2.70
  -2  -5 -11    8.20    2.80
   2  -5  11   10.40    2.60
  -2  -5 -11    6.30    2.50
  -2  -5 -11   10.80    2.50
  -2   5 -11    5.20    2.20
  -2   5 -11    8.20    3.30
  -2   5 -11    9.40    2.30
   2   5  11    6.80    2.10
  -2   5 -11    2.80    2.60
   2   5  11    5.70    1.90
   3  -5  11   -0.60    1.40
  -3  -5 -11    0.40    2.70
   3  -5  11    1.70    1.60
  -3  -5 -11   -0.40    2.30
   3   5  11   -2.20    1.30
  -3   5 -11    2.50    2.90
  -3   5 -11    1.10    2.70
  -3   5 -11   -1.80    1.50
  -3   5 -11    0.90    2.20
   3   5  11   -2.40    1.30
  -4  -5 -11    1.00    1.60
   4  -5  11    2.40    1.90
  -4  -5 -11    3.20    2.90
  -4  -5 -11    0.60    2.30
   4  -5  11   -0.90    1.30
  -4   5 -11    1.50    2.60
  -4   5 -11   -1.10    1.80
   4   5  11   -0.50    1.60
  -4   5 -11   -1.10    2.50
  -6  -6  11   -1.30    1.80
  -6  -6  11   -3.70    2.00
  -6  -6  11    2.90    2.80
  -6   6  11    0.10    2.20
   6   6 -11   -1.30    3.30
  -6   6  11    5.80    2.80
  -5  -6  11    2.30    2.60
  -5  -6  11    4.30    2.60
  -5   6  11   -0.10    2.60
  -5   6  11    1.30    2.30
  -4  -6  11   39.00    5.20
   4  -6 -11   38.70    3.40
  -4  -6  11   31.50    5.90
  -4  -6  11   25.70    3.60
  -4   6  11   30.40    4.50
  -4   6  11   47.10    6.90
   4   6 -11   33.80    5.10
  -4   6  11   43.50    5.50
  -3  -6  11   67.59    6.40
  -3  -6  11   55.69    6.00
   3  -6 -11   57.59    4.30
   3   6 -11   57.99    6.40
  -3   6  11   57.49    6.20
  -3   6  11   57.99    6.60
  -3   6  11   71.29    7.50
  -2  -6  11  115.39    7.30
   2  -6 -11  102.19    5.80
  -2  -6  11  116.39    8.00
   2  -6 -11  104.19    7.50
  -2  -6  11  119.49    7.70
  -2   6  11  118.89   12.30
  -2   6  11  105.89   12.10
  -2   6  11  114.49    8.20
   2   6 -11   98.99    7.30
   1  -6 -11  100.79    5.50
   1  -6 -11   87.39    5.70
   1  -6 -11   75.79    9.20
  -1  -6  11   85.79    7.30
  -1  -6  11   97.99   10.50
   1   6 -11   98.69    7.30
  -1   6  11   97.39   10.90
  -1   6  11   98.89    7.80
   1   6 -11   85.59    6.80
  -1   6  11  102.99    7.40
   1   6 -11   93.79    5.00
   0  -6 -11   -0.90    1.60
   0  -6 -11   -0.20    1.80
   0  -6  11    0.30    2.00
   0  -6 -11   -0.10    2.00
   0  -6  11   -2.60    1.40
   0   6 -11   -0.70    2.00
   0   6 -11    0.20    1.40
   0   6  11   -1.10    1.90
   0   6 -11   -4.30    1.70
  -1  -6 -11   -1.80    1.90
  -1  -6 -11   -2.10    1.80
  -1  -6 -11   -1.90    1.70
   1  -6  11   -0.20    1.60
  -1   6 -11   -0.40    2.10
  -1   6 -11   -0.30    1.80
  -1   6 -11   -1.20    1.70
  -1   6 -11   -1.00    2.20
   2  -6  11   -3.30    1.50
  -2  -6 -11    0.50    2.20
  -2  -6 -11   -0.10    2.60
   2  -6  11    1.40    1.90
  -2  -6 -11    1.20    1.70
  -2  -6 -11    0.10    1.80
   2   6  11   -0.20    1.50
  -2   6 -11    1.30    2.60
  -2   6 -11   -0.50    1.90
   2   6  11   -0.40    2.10
  -2   6 -11    0.10    1.90
  -2   6 -11    0.10    2.40
  -3  -6 -11    2.30    1.90
   3  -6  11   -2.90    1.40
  -3  -6 -11    5.90    2.80
   3  -6  11    4.90    1.70
  -3  -6 -11    0.90    2.90
   3   6  11    0.00    1.70
  -3   6 -11   -3.10    1.80
   3   6  11   -2.30    1.50
  -3   6 -11    0.70    2.20
  -3   6 -11   -1.90    2.60
  -4  -6 -11    0.40    1.80
   4  -6  11   -2.80    1.30
  -4  -6 -11   -0.20    2.30
  -4  -6 -11   -1.40    3.80
  -4   6 -11   -1.10    2.50
  -4   6 -11   -2.10    1.70
  -4   6 -11   -3.60    2.80
  -5  -7  11    5.90    2.60
  -5  -7  11    4.50    3.00
  -5   7  11    4.50    3.20
  -5   7  11   -0.30    2.40
   4  -7 -11    0.20    1.40
  -4  -7  11    2.40    2.90
  -4  -7  11   -0.10    1.90
  -4  -7  11    3.50    3.00
   4   7 -11   -1.40    2.80
  -4   7  11    0.00    2.20
  -4   7  11    0.80    2.50
  -3  -7  11   12.10    3.60
  -3  -7  11    3.70    2.10
   3  -7 -11    6.40    1.90
  -3  -7  11    6.50    3.00
  -3   7  11    5.70    2.70
  -3   7  11    6.20    2.10
  -3   7  11   11.50    3.20
   3   7 -11    3.20    3.30
   2  -7 -11   18.30    2.90
   2  -7 -11   20.50    3.10
  -2  -7  11   10.10    2.60
  -2  -7  11   18.40    3.60
  -2  -7  11   19.80    3.60
  -2   7  11   16.10    3.70
  -2   7  11   15.70    3.50
  -2   7  11   11.60    3.30
   2   7 -11   16.00    3.80
  -1  -7  11   11.40    3.20
   1  -7 -11   12.20    2.40
   1  -7 -11   13.60    3.40
   1  -7 -11   16.10    2.90
  -1  -7  11   11.30    3.00
   1   7 -11    7.00    2.60
   1   7 -11    8.10    2.90
  -1   7  11   10.00    3.30
  -1   7  11    4.90    2.30
  -1   7  11   10.60    3.30
   1   7 -11   11.40    3.20
   1   7 -11   13.40    2.00
   0  -7 -11   -0.90    2.20
   0  -7 -11   -0.40    2.00
   0  -7  11    1.60    2.00
   0  -7  11   -0.30    2.00
   0  -7  11   -4.60    2.20
   0   7  11    2.10    1.70
   0   7 -11   -1.50    3.60
   0   7  11    0.50    2.10
   0   7 -11   -3.40    1.50
   0   7 -11    0.70    2.50
   0   7 -11   -0.60    2.70
  -1  -7 -11   -0.20    1.90
  -1  -7 -11    0.70    2.30
   1  -7  11   -1.40    1.60
  -1  -7 -11   -2.90    1.80
  -1   7 -11   -1.90    2.00
  -1   7 -11    2.10    1.70
  -1   7 -11   -2.30    2.30
   1   7  11   -0.40    1.60
   1   7  11   -0.30    2.00
   2  -7  11   -2.80    1.70
  -2  -7 -11   -0.30    1.90
   2  -7  11   -1.20    1.80
  -2  -7 -11    0.30    2.40
  -2  -7 -11    1.50    2.20
  -2   7 -11    3.20    2.50
  -2   7 -11   -3.70    2.40
  -2   7 -11   -4.20    1.80
   2   7  11    3.40    2.20
   2   7  11    1.40    1.70
  -3  -7 -11   -1.50    2.70
  -3  -7 -11    2.10    2.20
   3  -7  11   -0.70    2.10
  -3  -7 -11    1.20    2.50
   3  -7  11   -1.20    1.60
  -3   7 -11   -1.60    2.40
   3   7  11   -1.40    1.80
  -3   7 -11    1.60    2.30
  -3   7 -11   -1.10    2.70
   3   7  11   -2.10    1.50
  -4  -8  11    8.70    3.80
  -4  -8  11   12.50    3.70
   4  -8 -11   11.30    2.10
  -4   8  11    2.70    3.10
  -4   8  11   11.60    3.40
  -3  -8  11    4.90    3.00
   3  -8 -11    2.70    1.70
  -3  -8  11   -5.10    3.10
  -3  -8  11    0.20    2.60
  -3   8  11    4.80    2.60
  -3   8  11    3.90    2.00
  -3   8  11    2.80    2.40
  -2  -8  11    4.60    2.70
   2  -8 -11   10.10    2.30
  -2  -8  11   -2.00    2.10
   2  -8 -11    3.30    1.90
  -2  -8  11    4.80    2.30
  -2   8  11    1.40    2.60
  -2   8  11    5.70    2.90
  -2   8  11    3.80    2.60
  -1  -8  11    2.80    2.10
   1  -8 -11    6.30    2.30
  -1  -8  11   -2.20    1.60
  -1   8  11    1.80    2.00
   1   8 -11    3.10    2.50
  -1   8  11   -0.60    2.40
   1   8 -11    0.50    1.60
   0  -8 -11    1.10    2.00
   0  -8 -11    0.70    2.20
   0  -8  11   -3.00    1.60
   0   8 -11   -2.40    2.40
   0   8  11    0.70    2.50
   0   8  11    1.00    1.90
   0   8 -11   -2.60    1.70
   1  -8  11    1.70    2.50
  -1  -8 -11   -0.20    2.40
   1  -8  11    2.70    2.00
  -1   8 -11    2.20    3.00
   1   8  11    2.80    2.10
   1   8  11    0.70    2.50
  -1   8 -11    1.80    2.10
   2  -8  11   10.40    2.50
   2  -8  11    6.40    2.60
  -2  -8 -11    8.70    3.70
   2   8  11    6.90    2.80
  -2   8 -11    4.50    3.20
  -2   8 -11   10.80    2.90
  -2   8 -11   14.10    3.20
   2   8  11   10.90    2.50
  -1  -9  11   -1.00    2.20
   1  -9 -11    0.40    2.30
   1  -9 -11    3.90    2.60
  -1   9  11    3.70    3.40
   1   9 -11    0.60    2.70
   1   9 -11    4.80    1.60
   1   9 -11    0.00    1.80
  -8   0  12    3.30    1.80
  -8   0  12    1.30    2.40
  -8   0  12    5.20    2.70
  -8   0  12    6.70    2.20
  -7   0  12    0.90    1.30
  -7   0  12    1.10    1.80
  -7   0  12    1.00    2.20
  -7   0  12   -1.50    1.90
  -7   0  12   -0.90    1.20
   6   0 -12    2.20    2.20
  -6   0  12    2.40    1.80
  -6   0  12    1.30    1.30
  -6   0  12    6.40    2.30
  -5   0  12   14.10    2.00
  -5   0  12   18.50    3.30
  -5   0  12   15.00    3.90
   5   0 -12   15.90    3.40
  -4   0  12    8.90    1.70
  -4   0  12   11.50    2.70
   4   0 -12   11.10    2.40
  -4   0  12    9.00    2.40
  -3   0  12   37.90    3.30
   3   0 -12   37.40    4.20
  -3   0  12   36.60    4.40
  -3   0  12   39.30    4.20
  -2   0  12    3.30    1.50
  -2   0  12    6.40    2.30
  -2   0  12    2.30    1.80
   2   0 -12    2.60    1.40
  -1   0  12   87.19    6.80
  -1   0  12   88.39    5.50
   1   0 -12   82.89    5.00
  -1   0  12   86.79    4.80
   1   0 -12   93.29    5.50
   1   0 -12   87.19    4.40
  -1   0  12   92.29    5.90
   0   0  12   39.50    4.20
   0   0 -12   41.70    4.30
   0   0 -12   39.20    4.00
   0   0  12   43.00    4.20
   0   0  12   36.70    4.50
   0   0  12   43.10    5.30
   1   0  12   64.09    5.00
  -1   0 -12   67.09    5.30
   1   0  12   62.49    5.30
  -1   0 -12   65.69    5.00
   1   0  12   61.09    4.50
   1   0  12   63.39    5.90
   2   0  12  145.89    8.30
   2   0  12  148.29    7.90
   2   0  12  160.18    8.10
  -2   0 -12  144.79    7.60
  -2   0 -12  155.18    7.90
   2   0  12  149.29    6.30
   3   0  12  139.39    8.40
   3   0  12  142.89    8.20
  -3   0 -12  135.09    9.80
   3   0  12  135.69    6.60
  -3   0 -12  136.89    7.60
  -4   0 -12   28.20    3.70
   4   0  12   19.60    3.30
   4   0  12   27.20    4.40
  -4   0 -12   21.40    3.90
  -5   0 -12   21.30    4.30
  -8  -1  12    4.70    2.50
  -8  -1  12    3.90    1.50
  -8  -1  12    1.50    2.40
  -8  -1  12    1.30    1.50
  -8  -1  12    3.80    2.10
  -8  -1  12    2.60    2.40
  -8   1  12    4.10    2.20
  -8   1  12   10.50    2.70
  -8   1  12    7.50    2.80
  -8   1  12    3.50    2.70
  -7  -1  12   -3.60    1.90
  -7  -1  12   -0.50    1.10
  -7  -1  12   -1.20    1.90
  -7  -1  12   -0.70    1.10
  -7   1  12   -1.70    1.80
  -7   1  12    4.40    2.50
  -7   1  12    3.80    1.70
  -7   1  12    0.00    1.40
   6  -1 -12   21.60    3.50
  -6  -1  12   14.60    3.30
  -6  -1  12   24.30    3.80
  -6  -1  12   12.20    1.70
  -6   1  12   18.60    3.40
  -6   1  12   16.40    2.70
  -6   1  12   15.70    2.40
  -5  -1  12   63.69    5.10
   5  -1 -12   54.79    5.10
   5   1 -12   52.29    5.50
  -5   1  12   56.19    4.30
  -5   1  12   54.89    4.40
   4  -1 -12    0.10    1.60
  -4  -1  12    0.30    1.80
  -4  -1  12    1.30    1.70
  -4  -1  12    0.90    1.10
  -4   1  12    1.20    1.60
  -4   1  12    1.10    1.60
  -4   1  12    1.90    1.70
   4   1 -12    0.30    1.80
   3  -1 -12    0.20    1.40
  -3  -1  12    0.00    1.60
  -3  -1  12   -0.20    1.40
  -3  -1  12   -0.40    0.90
   3   1 -12    0.30    1.10
  -3   1  12    0.30    1.50
  -3   1  12    0.90    1.60
   3   1 -12   -1.60    1.30
  -3   1  12   -0.60    1.40
   2  -1 -12   15.70    2.50
  -2  -1  12   10.30    2.50
  -2  -1  12   15.00    2.30
  -2  -1  12   17.70    3.10
  -2  -1  12   18.80    2.60
  -2   1  12   16.20    2.70
   2   1 -12   20.70    2.80
   2   1 -12   19.30    2.70
  -2   1  12   14.30    2.60
  -2   1  12   23.80    3.30
   2   1 -12   23.00    3.50
   1  -1 -12   -0.50    1.60
  -1  -1  12    0.90    1.70
  -1  -1  12   -1.40    1.30
   1  -1 -12    0.80    1.20
  -1  -1  12   -0.20    1.70
  -1  -1  12    0.80    1.60
  -1   1  12    1.10    1.60
  -1   1  12    2.10    1.80
   1   1 -12   -0.40    1.20
  -1   1  12    0.10    1.70
   1   1 -12    0.60    1.60
   1   1 -12   -1.80    1.40
   0  -1 -12    0.20    1.50
   0  -1  12   -0.40    1.50
   0  -1  12    0.20    2.10
   0  -1 -12    0.30    1.70
   0  -1  12   -1.20    1.20
   0  -1  12    0.10    1.40
   0   1 -12   -0.80    1.40
   0   1  12    2.30    1.70
   0   1  12    0.00    1.30
   0   1 -12   -1.20    1.50
   0   1  12    1.60    1.50
   0   1  12    1.30    1.70
   0   1 -12   -0.50    1.50
   1  -1  12    0.70    1.50
   1  -1  12    1.50    1.80
  -1  -1 -12    4.50    1.90
   1  -1  12    2.00    2.00
   1  -1  12    2.10    1.70
  -1  -1 -12    2.60    2.30
   1   1  12    2.50    1.90
   1   1  12    4.40    2.10
   1   1  12    5.70    1.80
   1   1  12    2.60    2.00
  -1   1 -12    2.40    2.00
  -1   1 -12   -0.30    1.80
  -2  -1 -12   10.90    2.40
   2  -1  12   13.10    2.60
   2  -1  12   12.30    2.80
  -2  -1 -12   13.50    3.20
   2  -1  12    9.50    2.10
   2  -1  12    8.90    2.50
  -2   1 -12   10.80    2.50
  -2   1 -12   11.20    2.70
   2   1  12   12.20    2.90
   2   1  12   11.00    2.70
   2   1  12   12.70    2.30
   3  -1  12    0.50    1.70
   3  -1  12   -0.20    1.90
  -3  -1 -12   -0.70    1.90
  -3  -1 -12    1.10    2.30
   3   1  12   -3.60    2.00
  -3   1 -12   -2.40    1.50
   3   1  12   -2.50    1.30
   4  -1  12   15.70    3.30
  -4  -1 -12    3.90    2.40
  -4  -1 -12    5.90    2.40
  -4   1 -12    6.20    2.50
  -4   1 -12    6.40    2.80
   4   1  12   11.70    3.40
   4   1  12    1.70    2.00
  -5  -1 -12    4.80    2.90
  -5  -1 -12    0.50    2.50
  -5   1 -12   -2.80    2.40
  -5   1 -12    0.80    2.50
  -7  -2  12   48.60    4.40
  -7  -2  12   47.50    6.40
  -7  -2  12   37.90    5.40
  -7   2  12   53.89    4.60
  -7   2  12   47.30    5.60
  -7   2  12   44.80    7.20
  -7   2  12   42.80    4.10
  -6  -2  12   17.70    3.50
  -6  -2  12   16.50    3.50
   6  -2 -12   14.80    3.20
  -6  -2  12   24.50    3.40
  -6   2  12   14.60    3.40
  -6   2  12   16.20    3.40
  -6   2  12   10.70    2.30
  -6   2  12   12.90    2.20
  -5  -2  12   50.09    4.00
  -5  -2  12   47.10    5.80
  -5  -2  12   52.09    5.30
   5  -2 -12   59.19    4.90
  -5   2  12   42.80    5.40
  -5   2  12   54.19    4.40
  -5   2  12   54.49    4.60
   5   2 -12   57.79    4.40
   5   2 -12   58.59    5.70
  -4  -2  12    1.60    2.00
   4  -2 -12    2.60    1.90
  -4  -2  12    3.50    2.20
  -4  -2  12    4.50    2.20
   4   2 -12    3.50    1.70
   4   2 -12    1.00    1.80
  -4   2  12    1.70    1.70
  -4   2  12    3.50    1.70
  -4   2  12    0.70    1.80
   3  -2 -12   38.40    3.80
  -3  -2  12   40.00    4.90
  -3  -2  12   36.40    5.40
   3  -2 -12   26.40    3.80
  -3  -2  12   35.60    4.40
  -3   2  12   40.90    4.10
   3   2 -12   33.30    4.60
  -3   2  12   35.50    4.60
   3   2 -12   36.00    3.50
  -3   2  12   35.80    4.20
  -2  -2  12  252.17   10.10
  -2  -2  12  245.28    9.50
  -2  -2  12  240.78    6.80
   2  -2 -12  254.77    9.00
   2  -2 -12  241.58   10.10
  -2  -2  12  241.78   10.80
  -2   2  12  243.88    8.80
  -2   2  12  246.48   10.00
   2   2 -12  251.57    9.80
   2   2 -12  239.18    8.20
  -2   2  12  246.78    9.20
   2   2 -12  241.38    6.70
  -1  -2  12  711.13   19.90
   1  -2 -12  704.83   18.60
  -1  -2  12  727.63   18.70
  -1  -2  12  688.33   15.80
   1  -2 -12  705.63   17.80
   1  -2 -12  708.83   15.70
  -1  -2  12  722.53   18.50
   1  -2 -12  697.13   17.30
  -1   2  12  706.93   17.50
   1   2 -12  718.63   15.50
   1   2 -12  720.13   18.40
   1   2 -12  688.73   17.10
  -1   2  12  720.93   18.40
  -1   2  12  706.73   18.50
   0  -2  12   -1.10    1.40
   0  -2 -12    0.20    1.90
   0  -2  12   -0.40    1.70
   0  -2  12    0.20    2.00
   0  -2  12    0.40    1.60
   0  -2 -12    0.70    1.60
   0  -2 -12   -0.30    1.90
   0  -2 -12   -1.60    1.50
   0   2  12    0.80    1.90
   0   2  12    0.70    1.60
   0   2  12   -0.10    1.90
   0   2 -12    0.40    1.60
   0   2 -12   -0.30    1.70
   0   2 -12    2.80    1.80
   1  -2  12  303.07   12.60
  -1  -2 -12  316.07   11.20
   1  -2  12  296.87   10.50
  -1  -2 -12  304.97   10.50
  -1  -2 -12  323.17   11.30
   1  -2  12  323.87   10.50
  -1  -2 -12  304.97   11.20
   1  -2  12  301.87   11.20
  -1   2 -12  300.97   11.00
   1   2  12  301.97   11.60
   1   2  12  325.87   10.50
  -1   2 -12  299.97   11.20
  -1   2 -12  317.77   10.50
   1   2  12  305.47   11.00
   2  -2  12   92.69    5.10
  -2  -2 -12   86.99    6.80
   2  -2  12   91.89    6.20
   2  -2  12   73.29    6.90
  -2  -2 -12   77.19    6.30
   2  -2  12   90.09    6.20
  -2  -2 -12   89.59    6.80
  -2   2 -12   95.09    6.40
   2   2  12   88.49    5.20
   2   2  12   86.39    6.50
  -2   2 -12   85.59    5.90
   2   2  12   82.59    6.40
  -3  -2 -12   -0.10    1.70
   3  -2  12   -3.50    1.70
  -3  -2 -12   -2.30    2.20
  -3  -2 -12   -2.20    2.00
   3  -2  12    0.00    1.00
   3  -2  12   -0.70    1.70
   3   2  12    1.10    1.20
   3   2  12    1.40    2.00
  -3   2 -12    2.00    1.80
   3   2  12    0.00    1.50
  -3   2 -12   -0.40    3.20
  -4  -2 -12    1.40    2.80
  -4  -2 -12   -1.40    2.70
   4  -2  12    4.50    2.00
   4  -2  12   -3.30    1.90
  -4   2 -12   -1.30    2.10
   4   2  12   -1.00    1.60
  -4   2 -12   -1.00    1.90
  -4   2 -12    2.00    2.20
  -5  -2 -12    0.80    2.60
  -5  -2 -12   -1.30    2.50
  -5   2 -12   -0.90    2.50
   5   2  12   -1.80    1.70
  -5   2 -12    0.30    2.20
  -7  -3  12    5.00    2.40
  -7  -3  12    6.70    3.10
  -7  -3  12   -0.90    2.30
  -7  -3  12    5.50    3.10
  -7   3  12    6.30    3.10
  -7   3  12    0.70    1.60
  -7   3  12    8.20    2.10
  -7   3  12    4.60    2.60
  -6  -3  12   48.20    5.40
   6  -3 -12   50.79    5.00
  -6  -3  12   46.40    6.00
  -6  -3  12   64.29    5.00
  -6  -3  12   74.49    7.10
  -6   3  12   60.19    5.20
  -6   3  12   59.89    4.30
  -6   3  12   63.99    6.50
  -6   3  12   66.89    7.70
  -5  -3  12   11.50    3.20
   5  -3 -12   16.00    2.90
  -5  -3  12    6.90    2.60
  -5  -3  12   11.70    3.40
  -5  -3  12   14.40    2.70
   5   3 -12   11.90    2.80
  -5   3  12   13.30    2.30
  -5   3  12    7.40    2.40
  -5   3  12   14.10    3.10
  -4  -3  12  156.88    8.50
   4  -3 -12  152.78    6.60
  -4  -3  12  141.29    8.50
  -4  -3  12  145.69    6.80
  -4   3  12  142.09    6.50
  -4   3  12  137.19    7.10
   4   3 -12  143.29    7.00
  -4   3  12  158.18   11.40
   4   3 -12  124.69    8.00
  -3  -3  12   45.70    5.90
  -3  -3  12   58.59    5.30
   3  -3 -12   48.40    4.10
  -3   3  12   52.29    5.40
  -3   3  12   44.70    4.80
   3   3 -12   48.70    4.50
   3   3 -12   50.39    5.50
  -3   3  12   52.79    4.50
  -2  -3  12  268.57   10.20
   2  -3 -12  239.78   10.40
  -2  -3  12  250.07   11.20
   2  -3 -12  254.37    9.10
  -2   3  12  250.47    9.50
   2   3 -12  249.08   10.20
  -2   3  12  256.47    9.50
  -2   3  12  256.87   10.50
   2   3 -12  242.98    9.10
  -1  -3  12   41.20    4.90
   1  -3 -12   36.60    4.20
   1  -3 -12   33.00    4.80
   1  -3 -12   32.00    4.50
   1  -3 -12   35.90    3.40
   1   3 -12   36.90    3.90
  -1   3  12   36.30    4.60
  -1   3  12   34.00    4.90
   1   3 -12   36.80    4.40
   1   3 -12   41.60    5.00
  -1   3  12   40.90    5.00
   0  -3 -12  844.12   20.80
   0  -3 -12  859.31   19.90
   0  -3  12  868.31   21.30
   0  -3 -12  853.01   20.80
   0  -3  12  866.21   19.30
   0  -3  12  811.32   22.80
   0  -3 -12  844.82   21.10
   0   3 -12  843.62   18.80
   0   3 -12  826.72   21.10
   0   3  12  853.61   21.20
   0   3  12  845.42   21.00
   0   3 -12  856.71   21.20
   1  -3  12  103.29    6.10
  -1  -3 -12   97.09    6.40
  -1  -3 -12   95.99    6.50
  -1  -3 -12   96.59    7.10
  -1  -3 -12   92.79    5.90
   1  -3  12  104.39    6.50
  -1   3 -12   99.49    6.60
  -1   3 -12   95.39    6.30
   1   3  12   94.49    6.90
   1   3  12   98.99    6.10
   1   3  12   89.69    6.50
  -1   3 -12   99.79    6.00
   2  -3  12   11.10    2.30
  -2  -3 -12   13.90    3.60
  -2  -3 -12   11.00    2.30
  -2  -3 -12   12.70    3.30
   2  -3  12   14.40    3.00
  -2   3 -12    9.50    2.20
   2   3  12   14.60    3.20
  -2   3 -12    7.30    3.20
   2   3  12   13.10    2.40
  -2   3 -12   11.40    2.40
  -2   3 -12   10.90    2.70
   2   3  12    8.60    2.30
  -3  -3 -12   18.20    2.70
   3  -3  12   21.50    4.10
  -3  -3 -12    9.50    5.20
   3  -3  12   14.40    2.10
   3  -3  12   10.10    3.40
  -3  -3 -12   18.00    3.60
   3   3  12   14.10    2.30
  -3   3 -12   25.20    4.60
   3   3  12    6.50    2.70
   3   3  12   11.10    2.50
  -3   3 -12   10.90    3.30
  -3   3 -12    9.80    3.20
  -3   3 -12   12.60    3.00
  -4  -3 -12    2.20    3.20
  -4  -3 -12   -2.00    2.40
   4   3  12   -1.10    1.10
  -4   3 -12   -0.30    2.20
  -4   3 -12   -1.50    2.50
   4   3  12   -1.20    1.70
  -5  -3 -12    4.20    3.10
  -5  -3 -12    4.00    3.50
  -5   3 -12   -2.40    2.40
  -5   3 -12    2.10    2.70
  -5   3 -12   -0.40    2.10
  -7  -4  12    2.10    2.30
  -7  -4  12   -3.30    2.00
  -7  -4  12   -2.70    2.70
  -7  -4  12    3.70    2.40
  -7   4  12    2.20    2.70
  -7   4  12    0.00    2.30
  -7   4  12   10.10    2.20
  -6  -4  12    2.80    2.30
   6  -4 -12    1.30    1.90
  -6  -4  12   -1.10    2.40
  -6  -4  12    2.60    2.50
  -6  -4  12   -0.10    1.80
  -6   4  12    4.20    1.50
  -6   4  12    3.10    2.50
   6   4 -12   -0.80    2.30
  -6   4  12    3.00    2.80
   5  -4 -12   48.00    6.00
  -5  -4  12   56.29    5.10
  -5  -4  12   51.29    5.70
  -5  -4  12   45.80    5.80
  -5   4  12   52.29    6.40
  -5   4  12   49.80    4.00
   5   4 -12   48.10    5.50
  -5   4  12   58.69    7.20
  -5   4  12   48.00    5.10
   4  -4 -12   16.80    2.60
  -4  -4  12   21.90    3.90
  -4  -4  12   10.20    2.70
  -4  -4  12   19.10    3.20
  -4   4  12   13.80    2.90
  -4   4  12   18.20    3.50
  -4   4  12   18.50    2.80
   4   4 -12   16.50    3.30
  -3  -4  12   12.80    3.00
   3  -4 -12    6.30    2.10
  -3  -4  12    6.90    2.60
  -3   4  12    7.70    2.30
   3   4 -12    7.20    2.50
  -3   4  12    7.40    2.70
   2  -4 -12    2.10    1.80
   2  -4 -12    0.60    1.70
  -2  -4  12    3.10    2.20
  -2  -4  12   -1.10    1.60
   2   4 -12   -1.50    1.80
  -2   4  12   -0.10    1.90
  -2   4  12    1.70    1.90
   2   4 -12   -2.60    1.70
   1  -4 -12   71.69    5.10
  -1  -4  12   71.79    6.80
   1  -4 -12   77.89    6.20
   1  -4 -12   69.09    4.40
  -1  -4  12   70.69    5.90
  -1   4  12   65.99    5.80
   1   4 -12   66.19    6.00
   1   4 -12   62.59    3.90
   1   4 -12   70.19    5.80
  -1   4  12   70.49    6.20
   0  -4 -12   35.50    4.20
   0  -4  12   32.00    4.40
   0  -4 -12   35.50    5.00
   0  -4 -12   31.10    4.40
   0  -4 -12   37.20    4.50
   0   4  12   36.10    4.50
   0   4 -12   37.60    3.80
   0   4 -12   27.00    3.70
   0   4 -12   31.30    4.60
  -1  -4 -12    3.80    1.70
  -1  -4 -12   14.10    3.40
   1  -4  12    7.60    2.60
  -1  -4 -12   12.40    2.80
  -1  -4 -12    3.60    4.00
   1   4  12   12.50    2.50
   1   4  12    5.10    2.20
  -1   4 -12   11.20    2.60
  -1   4 -12   15.30    3.40
  -1   4 -12    6.90    2.10
  -1   4 -12    6.30    2.60
  -2  -4 -12   -0.10    1.60
  -2  -4 -12    0.00    2.30
   2  -4  12   -0.80    2.30
  -2  -4 -12    0.50    2.00
   2  -4  12    2.50    2.00
  -2  -4 -12    0.60    2.20
  -2   4 -12    0.40    1.80
   2   4  12    0.30    1.40
   2   4  12   -3.90    1.50
  -2   4 -12    1.00    1.70
  -2   4 -12    0.60    2.50
   2   4  12   -0.40    1.40
  -3  -4 -12    0.90    1.40
  -3  -4 -12   -0.10    2.50
  -3  -4 -12   -3.30    2.30
   3  -4  12    0.10    1.40
   3  -4  12   -1.00    1.20
   3  -4  12   -0.40    2.20
  -3   4 -12    3.60    2.80
  -3   4 -12    1.10    2.10
  -3   4 -12    5.40    2.60
   3   4  12   -2.40    1.30
  -3   4 -12    1.70    1.90
   3   4  12    0.90    1.50
  -4  -4 -12    6.20    2.10
  -4  -4 -12   14.80    4.10
  -4  -4 -12    7.50    3.10
   4  -4  12    7.30    1.40
   4   4  12    6.20    2.00
  -4   4 -12    2.30    2.60
   4   4  12    3.30    1.80
  -4   4 -12    4.10    3.00
  -4   4 -12    4.70    3.20
  -6  -5  12   -0.40    2.00
  -6  -5  12    0.10    2.10
  -6  -5  12    8.10    3.20
  -6   5  12    1.90    2.50
  -6   5  12   -0.40    2.30
   6   5 -12    0.80    2.90
  -6   5  12    3.80    3.50
  -5  -5  12    6.70    2.70
   5  -5 -12    4.40    1.70
  -5  -5  12    1.90    2.30
  -5  -5  12    1.60    2.50
  -5   5  12    0.80    2.10
  -5   5  12    2.90    2.40
  -5   5  12    6.60    2.60
   5   5 -12   -2.50    2.70
  -4  -5  12   48.50    5.60
   4  -5 -12   43.20    3.90
  -4  -5  12   49.10    5.30
  -4  -5  12   38.20    5.40
  -4   5  12   25.80    4.40
  -4   5  12   51.89    7.00
  -4   5  12   27.60    4.40
   4   5 -12   34.50    5.20
  -3  -5  12  174.08    9.00
  -3  -5  12  160.18    9.30
   3  -5 -12  181.38    7.30
  -3  -5  12  179.18    8.90
   3   5 -12  173.48    8.70
  -3   5  12  172.58    9.60
  -3   5  12  159.58    8.40
  -2  -5  12  103.59    7.80
   2  -5 -12  105.49    9.00
  -2  -5  12  115.59    7.40
   2  -5 -12  107.29    6.10
   2   5 -12  126.99    8.90
   2   5 -12  112.29    7.30
  -2   5  12  109.09    7.30
  -2   5  12  117.19    7.70
   1  -5 -12   47.90    3.90
  -1  -5  12   44.40    7.10
   1  -5 -12   48.90    5.40
  -1  -5  12   47.40    6.30
   1  -5 -12   43.10    4.60
  -1   5  12   46.40    5.60
   1   5 -12   43.10    5.30
   1   5 -12   49.90    5.50
   1   5 -12   50.59    3.40
  -1   5  12   43.50    7.20
   0  -5  12   12.30    2.60
   0  -5 -12   26.00    3.90
   0  -5 -12   19.60    3.40
   0  -5  12   21.70    3.20
   0  -5 -12   14.00    2.70
   0  -5 -12   31.70    4.30
   0   5 -12   22.40    3.80
   0   5  12   18.70    3.20
   0   5  12   23.20    4.70
   0   5 -12   24.80    3.50
   0   5 -12   18.30    2.50
  -1  -5 -12    4.20    2.40
  -1  -5 -12    5.80    2.40
   1  -5  12   -2.40    1.50
  -1  -5 -12    2.00    2.10
   1  -5  12    5.00    2.30
   1   5  12    1.00    2.10
  -1   5 -12    2.30    1.70
  -1   5 -12    1.50    2.40
   1   5  12    3.60    2.00
  -1   5 -12    2.60    2.00
  -2  -5 -12    0.30    1.70
   2  -5  12   -3.10    1.40
  -2  -5 -12    0.60    2.00
  -2  -5 -12    0.40    2.50
  -2  -5 -12    3.00    2.40
   2   5  12   -3.10    1.70
  -2   5 -12    0.00    1.90
  -2   5 -12   -2.30    1.50
  -2   5 -12    3.60    2.00
  -2   5 -12    4.00    2.40
   2   5  12   -1.60    1.40
   2   5  12   -0.50    1.40
  -3  -5 -12    1.80    2.50
   3  -5  12    0.60    1.60
  -3  -5 -12   -1.40    2.20
  -3  -5 -12   -0.60    1.50
   3  -5  12   -1.90    1.40
  -3   5 -12   -0.40    2.00
  -3   5 -12   -2.60    2.00
  -3   5 -12   -1.40    2.20
   3   5  12   -0.10    1.60
   3   5  12   -2.30    1.40
   4  -5  12    5.90    1.80
  -4  -5 -12    8.50    3.40
  -4  -5 -12    6.00    2.80
   4  -5  12   10.90    2.10
   4  -5  12   11.00    2.80
  -4  -5 -12   10.70    2.50
  -4   5 -12    5.00    3.40
   4   5  12    5.90    2.10
   4   5  12    4.50    2.00
  -4   5 -12   10.00    2.60
  -4   5 -12   11.50    3.30
  -6  -6  12    2.20    2.50
  -6  -6  12   -2.80    2.10
   6   6 -12   -3.90    3.40
  -6   6  12    0.80    2.20
  -6   6  12   -2.20    2.60
  -5  -6  12    4.60    2.80
  -5  -6  12   -1.00    1.90
  -5  -6  12    0.70    2.50
   5  -6 -12   -0.80    1.40
  -5   6  12    2.70    2.60
  -5   6  12   -0.80    2.60
  -4  -6  12    2.50    2.20
  -4  -6  12    4.70    2.10
  -4  -6  12   13.50    4.10
   4  -6 -12    7.30    1.90
  -4   6  12    9.30    3.30
  -4   6  12   10.80    3.10
  -4   6  12    2.30    2.50
  -3  -6  12   28.30    4.30
   3  -6 -12   36.70    4.00
   3  -6 -12   24.10    4.10
  -3  -6  12   39.20    5.20
  -3  -6  12   37.10    6.80
  -3   6  12   32.80    4.80
  -3   6  12   23.10    4.30
  -3   6  12   25.30    4.20
   3   6 -12   31.10    4.80
   3   6 -12   27.20    5.20
   2  -6 -12    2.90    1.70
  -2  -6  12   -0.40    1.90
  -2  -6  12    3.40    2.00
   2  -6 -12    4.20    1.80
   2  -6 -12    0.90    2.00
   2   6 -12   -1.40    2.30
  -2   6  12    3.80    2.40
   2   6 -12    1.30    2.90
  -2   6  12    3.90    2.50
  -2   6  12   -1.40    2.00
   1  -6 -12   17.10    2.80
   1  -6 -12   15.50    2.60
  -1  -6  12    8.70    3.10
   1  -6 -12   13.70    3.00
  -1  -6  12   14.20    3.10
   1   6 -12    9.50    2.80
  -1   6  12    7.80    2.50
  -1   6  12   12.40    2.80
   0  -6 -12    0.20    1.70
   0  -6  12    3.00    2.20
   0  -6  12    5.10    2.40
   0  -6 -12    7.40    2.60
   0   6 -12   -0.10    2.00
   0   6 -12    1.60    1.70
   0   6  12    1.00    1.90
   0   6 -12    3.80    2.80
   1  -6  12   -1.90    1.90
   1  -6  12    1.70    1.80
  -1  -6 -12    4.40    2.60
  -1  -6 -12    4.90    2.80
  -1  -6 -12    3.20    2.40
  -1  -6 -12    7.70    2.60
  -1   6 -12    2.10    3.40
  -1   6 -12    3.10    2.00
   1   6  12    6.30    2.30
  -1   6 -12    3.20    2.60
  -1   6 -12    1.30    2.40
   2  -6  12    3.10    2.10
   2  -6  12    1.00    1.70
  -2  -6 -12    1.40    2.20
  -2  -6 -12    5.30    3.40
  -2  -6 -12    0.90    2.10
  -2   6 -12    2.10    2.90
   2   6  12    0.20    1.70
  -2   6 -12    3.40    4.10
  -2   6 -12   12.00    4.70
   2   6  12   -0.20    1.70
  -3  -6 -12   -1.50    2.40
  -3  -6 -12   -0.10    2.80
   3  -6  12    5.10    2.10
  -3  -6 -12    1.80    2.70
   3  -6  12   -2.60    1.50
   3   6  12   -2.50    1.70
  -3   6 -12   -0.80    2.90
   3   6  12   -0.40    1.90
  -3   6 -12   -2.40    2.30
  -3   6 -12    0.00    2.30
  -5  -7  12    2.90    2.80
  -5  -7  12    4.90    2.70
  -5   7  12    4.70    2.60
  -5   7  12    6.40    3.10
  -4  -7  12    5.90    3.10
  -4  -7  12   -3.90    2.00
  -4  -7  12    0.40    2.40
  -4   7  12   -0.50    2.20
  -4   7  12    1.10    2.50
   3  -7 -12   22.00    3.10
  -3  -7  12    9.30    4.50
  -3  -7  12   24.30    4.40
  -3   7  12   19.30    3.70
  -3   7  12   15.60    3.70
   3   7 -12   18.70    4.60
  -2  -7  12   12.00    3.10
  -2  -7  12   10.10    2.70
  -2  -7  12    5.10    2.80
   2  -7 -12    8.90    2.50
   2  -7 -12   13.80    2.30
  -2   7  12   10.40    3.20
  -2   7  12   10.60    3.40
   2   7 -12    7.40    3.30
  -1  -7  12    0.80    2.10
  -1  -7  12   -1.40    1.80
   1  -7 -12    0.70    1.80
  -1   7  12    1.80    2.10
   1   7 -12   -1.80    2.30
   1   7 -12    3.30    2.80
   1   7 -12   -1.70    1.20
  -1   7  12    3.00    2.50
   0  -7  12    2.00    2.00
   0  -7 -12   -1.40    1.80
   0  -7 -12   -1.00    1.80
   0   7  12   -0.70    2.10
   0   7 -12   -1.80    2.30
   0   7  12    0.90    2.10
   0   7 -12    3.10    1.80
   0   7 -12   -0.50    2.50
  -1  -7 -12    4.90    3.20
   1  -7  12    9.10    3.10
  -1  -7 -12   18.10    5.40
   1  -7  12    9.10    2.60
  -1   7 -12   11.50    2.80
  -1   7 -12   11.60    3.20
   1   7  12   10.60    2.70
   1   7  12    7.00    2.60
  -1   7 -12    6.40    2.90
  -2  -7 -12   12.50    4.20
  -2  -7 -12    5.50    3.10
   2  -7  12    9.10    2.50
  -2  -7 -12   14.40    3.40
  -2   7 -12   10.70    3.90
   2   7  12    9.30    3.30
   2   7  12   10.00    2.70
  -2   7 -12    3.90    2.50
  -2   7 -12   10.30    2.90
   2   7  12    5.20    2.30
  -3  -8  12    4.70    2.70
  -3  -8  12    6.30    3.20
   3  -8 -12    1.00    1.60
  -3   8  12   -2.20    2.30
  -3   8  12    1.80    2.60
  -2  -8  12   -2.40    2.40
   2  -8 -12    3.20    1.70
  -2  -8  12    0.50    2.30
  -2  -8  12    0.60    2.20
   2  -8 -12    1.10    1.70
  -2   8  12   -0.10    2.70
  -2   8  12    1.70    2.30
   1  -8 -12    4.20    2.10
   1  -8 -12    6.10    2.20
  -1   8  12    6.90    2.60
  -1   8  12    7.30    3.00
   1   8 -12    4.40    1.80
   0  -8 -12    0.50    2.20
   0  -8  12    4.10    2.20
   0   8 -12   -1.60    2.40
   0   8  12    0.30    2.10
   0   8  12    0.30    2.50
   1  -8  12    2.60    2.40
  -1  -8 -12    0.20    2.50
   1   8  12    3.10    2.80
   1   8  12    1.10    2.70
  -1   8 -12    2.70    2.40
  -1   8 -12    1.30    2.80
  -7   0  13    0.80    2.10
  -7   0  13   -1.90    1.20
  -7   0  13   -0.40    2.10
  -7   0  13   -2.30    1.30
  -6   0  13   -1.40    1.90
   6   0 -13   -2.50    2.20
  -6   0  13   -1.40    1.40
  -6   0  13   -2.80    1.60
  -5   0  13   -0.20    1.30
  -5   0  13    0.70    1.80
   5   0 -13   -2.60    1.90
  -5   0  13   -0.80    2.00
  -4   0  13    0.80    1.20
  -4   0  13    0.70    1.90
  -4   0  13    0.10    1.60
   4   0 -13    0.00    1.50
  -3   0  13    0.50    1.60
   3   0 -13    0.90    1.50
  -3   0  13   -0.60    1.60
  -3   0  13    1.00    1.30
  -2   0  13   -0.80    1.50
   2   0 -13   -2.10    1.10
  -2   0  13   -1.40    1.20
   2   0 -13    0.60    1.10
  -2   0  13    2.20    1.80
   2   0 -13    0.70    1.40
   1   0 -13   -2.50    1.50
   1   0 -13   -2.90    1.40
   1   0 -13    0.40    1.20
  -1   0  13   -1.20    1.60
  -1   0  13   -1.90    1.40
  -1   0  13   -1.60    1.20
  -1   0  13   -1.00    1.80
   0   0  13   -2.60    1.20
   0   0  13   -0.50    1.30
   0   0  13   -0.90    1.70
   0   0  13    0.30    1.60
   0   0 -13    1.00    1.50
   0   0 -13    0.60    1.90
  -1   0 -13    0.20    1.40
   1   0  13   -2.20    1.30
  -1   0 -13   -0.70    1.90
   1   0  13    0.30    1.40
   1   0  13    1.20    1.50
   1   0  13   -1.10    1.90
   2   0  13   -0.30    1.60
   2   0  13   -0.60    1.10
  -2   0 -13   -1.40    2.00
  -2   0 -13   -3.00    1.30
   2   0  13    3.30    1.80
  -3   0 -13    0.60    2.20
  -3   0 -13    0.40    2.00
   3   0  13    2.10    1.20
   3   0  13   -2.70    1.90
  -4   0 -13   -3.10    2.20
  -5   0 -13   -0.10    2.60
   5   0  13   -2.20    2.20
  -7  -1  13   12.50    3.10
  -7  -1  13   17.70    3.50
  -7   1  13   13.60    2.70
  -7   1  13   11.50    3.40
  -7   1  13   12.50    3.10
  -7   1  13   15.20    2.40
  -6  -1  13    1.80    1.90
  -6  -1  13    4.20    2.50
   6  -1 -13   -3.60    1.90
  -6   1  13    1.20    2.10
  -6   1  13    1.80    1.70
  -6   1  13   -0.70    1.40
   5  -1 -13    2.90    2.00
  -5  -1  13    0.80    1.80
  -5  -1  13   -2.00    2.00
  -5   1  13    1.30    2.10
   5   1 -13    1.90    2.40
  -5   1  13    1.40    1.60
  -5   1  13   -0.10    1.60
  -4  -1  13   14.30    1.70
  -4  -1  13   18.70    3.20
  -4  -1  13    7.90    3.00
   4  -1 -13   23.10    3.30
  -4   1  13   16.70    3.90
  -4   1  13   14.40    2.80
   4   1 -13   25.80    4.20
  -4   1  13   16.30    2.40
  -3  -1  13  111.19    7.20
   3  -1 -13   97.29    5.90
  -3  -1  13   99.79    6.30
  -3  -1  13   97.49    4.30
   3   1 -13  100.39    4.40
   3   1 -13  110.09    6.70
  -3   1  13  104.59    6.20
  -3   1  13  103.79    5.40
  -3   1  13   97.09    6.70
  -2  -1  13  100.89    6.80
  -2  -1  13  101.69    4.80
  -2  -1  13   92.59    7.30
   2  -1 -13  101.59    5.90
  -2  -1  13  105.59    6.60
  -2   1  13  104.39    6.70
  -2   1  13  103.49    8.80
   2   1 -13  102.59    6.50
  -2   1  13  100.29    6.20
   2   1 -13   99.49    4.70
   2   1 -13   98.19    4.80
  -1  -1  13   17.50    3.00
   1  -1 -13   27.20    2.80
  -1  -1  13   16.40    3.50
  -1  -1  13   18.30    3.50
   1  -1 -13   18.00    2.70
  -1  -1  13   16.20    2.40
   1  -1 -13   21.20    2.80
  -1   1  13   29.60    4.10
   1   1 -13   21.00    2.90
   1   1 -13   17.50    2.60
  -1   1  13   20.00    2.90
   1   1 -13   18.10    3.00
  -1   1  13   20.70    3.20
   0  -1  13   49.40    4.60
   0  -1  13   53.19    5.10
   0  -1  13   51.19    6.10
   0  -1 -13   56.89    4.90
   0  -1  13   51.49    5.00
   0  -1 -13   58.59    5.20
   0   1  13   56.59    5.20
   0   1  13   58.89    6.10
   0   1  13   55.49    4.90
   0   1 -13   53.49    4.70
   0   1 -13   56.29    4.90
   0   1  13   56.79    4.70
   1  -1  13    8.80    2.20
   1  -1  13    8.00    2.30
   1  -1  13    8.10    2.80
  -1  -1 -13    9.70    2.60
   1  -1  13   10.60    2.40
   1   1  13   10.50    2.80
   1   1  13   10.40    2.40
   1   1  13    7.20    2.40
  -1   1 -13    8.60    2.50
   1   1  13    7.10    2.50
  -1   1 -13   15.60    3.20
  -2  -1 -13   82.39    7.20
   2  -1  13   70.69    6.00
   2  -1  13   74.59    6.80
   2  -1  13   83.69    4.90
   2   1  13   64.59    6.40
  -2   1 -13   78.19    5.90
   2   1  13   82.59    5.00
   2   1  13   77.09    6.40
  -2   1 -13   76.69    6.10
  -3  -1 -13   42.50    5.60
   3  -1  13   34.90    3.10
  -3  -1 -13   34.80    4.70
   3  -1  13   34.60    4.80
   3   1  13   40.70    5.40
  -3   1 -13   28.90    4.30
   3   1  13   36.20    3.20
  -3   1 -13   40.50    4.80
   3   1  13   38.10    5.30
  -4  -1 -13   -0.60    2.50
  -4   1 -13    0.80    2.60
  -4   1 -13   -1.00    2.20
  -5  -1 -13    5.10    3.60
  -5  -1 -13    0.20    2.90
   5   1  13   -1.00    2.20
  -5   1 -13   -0.10    2.90
  -7  -2  13    2.30    2.40
  -7  -2  13    4.00    1.60
  -7  -2  13    1.60    2.70
  -7   2  13    2.60    2.30
  -7   2  13    0.60    1.80
  -7   2  13    0.90    1.80
  -7   2  13    1.30    2.30
  -6  -2  13   55.29    6.50
  -6  -2  13   48.70    5.60
  -6  -2  13   50.59    3.90
   6  -2 -13   40.40    5.10
  -6   2  13   37.20    4.40
  -6   2  13   43.20    5.90
  -6   2  13   49.99    4.40
   5  -2 -13   17.80    3.30
  -5  -2  13   14.90    3.00
  -5  -2  13   11.50    3.20
  -5  -2  13   16.20    2.70
  -5   2  13   10.70    2.60
  -5   2  13   17.60    2.90
   5   2 -13   17.40    2.60
  -5   2  13   12.60    3.40
  -4  -2  13   18.50    3.00
   4  -2 -13   18.80    3.20
  -4  -2  13   11.70    2.90
  -4  -2  13   15.90    3.40
   4   2 -13   20.60    2.90
  -4   2  13   13.20    2.40
  -4   2  13   13.80    2.90
   4   2 -13   18.40    3.30
  -4   2  13   15.40    2.80
  -3  -2  13   48.30    5.20
  -3  -2  13   49.10    5.60
  -3  -2  13   45.80    6.10
   3  -2 -13   52.59    4.50
  -3   2  13   54.89    5.60
   3   2 -13   48.10    5.40
   3   2 -13   48.80    3.90
  -3   2  13   55.89    4.80
  -3   2  13   53.09    4.80
  -2  -2  13  211.68    6.70
  -2  -2  13  222.48    9.40
   2  -2 -13  215.38    8.70
  -2  -2  13  220.18    9.80
  -2  -2  13  202.88   10.40
  -2   2  13  206.58    8.40
  -2   2  13  215.28    9.60
   2   2 -13  220.28    9.60
   2   2 -13  193.88    9.40
   2   2 -13  202.58    6.40
  -2   2  13  226.18    9.10
   1  -2 -13    7.20    1.90
   1  -2 -13    7.70    2.10
  -1  -2  13    2.70    1.80
   1  -2 -13    5.00    2.50
  -1  -2  13    3.20    2.30
  -1  -2  13    3.90    2.30
   1  -2 -13    3.70    2.00
  -1  -2  13    3.40    1.60
   1   2 -13    4.80    2.10
  -1   2  13    6.40    2.20
   1   2 -13    8.40    2.80
  -1   2  13    7.90    2.30
  -1   2  13    5.80    2.10
   1   2 -13    2.70    1.70
   0  -2 -13  253.17   10.10
   0  -2  13  269.67   10.20
   0  -2 -13  261.47   10.10
   0  -2 -13  258.47    9.50
   0  -2  13  251.27   10.40
   0  -2 -13  263.27   10.00
   0   2 -13  258.27   10.30
   0   2 -13  254.97    8.80
   0   2  13  263.07   10.10
   0   2 -13  239.78    9.70
   0   2  13  261.07   10.60
   0   2  13  250.27    9.80
   0   2  13  249.08   11.20
  -1  -2 -13   34.40    4.70
  -1  -2 -13   40.40    5.20
   1  -2  13   41.30    4.70
   1  -2  13   35.30    4.30
   1  -2  13   28.80    4.40
   1  -2  13   39.10    4.30
   1   2  13   33.50    4.60
  -1   2 -13   46.30    4.90
  -1   2 -13   36.20    4.60
   1   2  13   31.40    5.00
  -1   2 -13   38.20    4.60
   1   2  13   35.20    4.20
   2  -2  13   10.60    2.80
  -2  -2 -13   15.10    3.60
  -2  -2 -13    7.50    2.70
   2  -2  13   12.30    2.30
   2  -2  13   11.20    4.40
   2   2  13    8.40    2.40
   2   2  13   12.30    2.10
   2   2  13   10.10    2.70
  -2   2 -13    7.50    2.60
  -2   2 -13    9.80    2.70
  -3  -2 -13   13.00    3.10
   3  -2  13    7.60    2.40
   3  -2  13   10.80    2.90
  -3  -2 -13    3.10    2.50
  -3  -2 -13    8.30    3.50
   3  -2  13   10.60    1.80
  -3   2 -13    8.90    3.00
   3   2  13    5.10    2.90
   3   2  13    4.50    2.10
  -3   2 -13    7.70    2.80
   3   2  13    8.20    1.90
  -4  -2 -13    1.70    2.50
  -4  -2 -13    2.50    2.60
  -4   2 -13    0.70    2.30
  -4   2 -13    1.70    2.70
   4   2  13    3.60    1.50
   4   2  13    2.60    2.00
  -5  -2 -13   -1.40    3.00
  -5  -2 -13   -2.30    3.60
  -5   2 -13   -5.80    2.70
  -7  -3  13   17.00    3.10
  -7  -3  13   10.20    3.30
  -7  -3  13   10.40    3.60
  -7   3  13   11.90    4.00
  -7   3  13   13.30    2.40
  -7   3  13   10.90    3.10
  -6  -3  13   25.00    3.90
  -6  -3  13    9.70    3.00
   6  -3 -13   19.70    3.30
  -6  -3  13   17.60    3.80
  -6  -3  13   12.70    3.20
  -6   3  13   15.50    2.50
  -6   3  13   17.80    3.60
  -6   3  13   15.20    2.70
  -6   3  13   14.70    3.70
  -5  -3  13   79.89    6.60
  -5  -3  13   83.09    7.40
  -5  -3  13   89.79    5.40
  -5  -3  13   70.59    6.90
   5  -3 -13   77.09    5.60
  -5   3  13   81.89    5.20
  -5   3  13   81.69    7.20
   5   3 -13   70.59    5.70
   5   3 -13   92.29    7.50
  -5   3  13   70.59    5.60
  -4  -3  13   42.50    5.40
  -4  -3  13   50.99    4.60
   4  -3 -13   48.20    4.50
  -4  -3  13   44.70    5.90
  -4  -3  13   45.90    6.00
  -4   3  13   54.99    4.60
  -4   3  13   57.69    6.10
  -4   3  13   45.20    4.90
   4   3 -13   47.00    4.60
  -3  -3  13   73.79   10.20
   3  -3 -13   78.89    5.20
  -3  -3  13   71.69    9.50
  -3  -3  13   78.99    7.20
  -3   3  13   80.99    5.60
  -3   3  13   72.79    5.80
  -3   3  13   75.69   10.40
   3   3 -13   73.29    5.20
  -2  -3  13   14.90    3.10
   2  -3 -13   11.60    2.90
  -2  -3  13   13.90    3.50
  -2  -3  13   15.90    3.20
   2  -3 -13   16.60    2.70
  -2   3  13   21.80    3.20
   2   3 -13   19.80    2.30
  -2   3  13   18.70    3.40
   2   3 -13   21.00    5.30
  -2   3  13    9.90    2.80
  -1  -3  13  436.66   14.30
   1  -3 -13  408.96   13.00
   1  -3 -13  425.56   10.90
  -1  -3  13  423.66   13.70
   1  -3 -13  417.56   14.10
  -1  -3  13  415.76   15.30
   1  -3 -13  415.86   13.00
   1   3 -13  407.86   12.90
  -1   3  13  450.15   13.90
   1   3 -13  418.26   10.70
  -1   3  13  407.66   13.20
   1   3 -13  389.96   13.50
  -1   3  13  440.26   14.30
   0  -3 -13    0.00    2.00
   0  -3 -13    1.40    2.00
   0  -3  13    0.20    2.00
   0  -3 -13    0.50    1.80
   0  -3  13    0.80    1.80
   0  -3  13    1.90    1.50
   0  -3 -13    1.60    1.90
   0   3 -13    1.60    2.00
   0   3  13    1.00    1.70
   0   3  13    0.20    1.90
   0   3 -13   -1.30    1.70
   0   3 -13    0.00    1.50
  -1  -3 -13    0.80    1.90
   1  -3  13    1.30    1.60
  -1  -3 -13   -2.20    3.50
   1  -3  13    0.60    1.70
  -1  -3 -13   -1.30    1.50
   1  -3  13    0.60    1.50
   1   3  13    1.90    1.80
  -1   3 -13    2.30    1.90
  -1   3 -13    5.90    2.20
   1   3  13    0.30    1.80
  -1   3 -13    0.60    1.80
   1   3  13   -2.80    1.50
  -2  -3 -13    3.90    2.60
   2  -3  13    2.20    1.80
   2  -3  13   -3.60    1.90
   2  -3  13    1.90    1.50
  -2  -3 -13    2.60    2.40
  -2  -3 -13   -0.50    1.50
   2   3  13    0.40    1.80
  -2   3 -13    0.40    2.00
   2   3  13   -0.60    1.40
   2   3  13    0.90    2.10
  -2   3 -13    2.90    2.10
  -3  -3 -13    3.60    1.80
  -3  -3 -13   -1.50    2.10
   3  -3  13    3.60    1.50
   3  -3  13    5.70    2.30
  -3  -3 -13    3.50    2.80
   3   3  13    0.80    1.40
  -3   3 -13   -0.10    2.20
   3   3  13   -1.20    1.70
  -3   3 -13    8.80    2.60
  -3   3 -13    2.10    2.20
  -4  -3 -13   -1.80    2.40
  -4  -3 -13    2.80    3.10
   4   3  13    1.50    1.40
  -4   3 -13   -3.80    1.80
  -4   3 -13    0.60    2.40
   4   3  13   -1.30    1.70
  -4   3 -13    2.20    2.60
  -6  -4  13    2.40    2.90
  -6  -4  13   -4.20    1.90
  -6  -4  13    0.90    2.00
  -6  -4  13    1.10    2.60
  -6   4  13    1.10    1.40
  -6   4  13    2.20    2.10
  -6   4  13    1.40    2.10
   6   4 -13   -2.30    2.20
  -6   4  13   -3.80    2.20
   5  -4 -13   33.90    4.40
  -5  -4  13   45.70    4.90
  -5  -4  13   30.10    4.40
  -5  -4  13   39.40    5.40
  -5   4  13   34.90    3.90
   5   4 -13   38.20    5.10
  -5   4  13   29.30    4.50
  -5   4  13   20.20    3.20
  -5   4  13   22.00    4.10
   4  -4 -13   29.00    4.90
  -4  -4  13   43.80    5.20
   4  -4 -13   39.00    4.00
  -4  -4  13   40.70    4.70
  -4  -4  13   23.60    3.80
   4   4 -13   34.90    4.80
   4   4 -13   28.90    4.70
  -4   4  13   19.50    3.10
  -4   4  13   28.00    4.20
  -4   4  13   35.20    4.30
  -3  -4  13  227.58   11.20
   3  -4 -13  226.88    8.70
  -3  -4  13  237.08   10.30
  -3   4  13  237.28   11.10
  -3   4  13  232.78    9.80
  -3   4  13  241.48    9.40
   3   4 -13  228.18    9.50
   2  -4 -13   50.09    4.70
  -2  -4  13   44.90    5.30
   2  -4 -13   44.40    5.40
  -2  -4  13   47.60    6.40
   2   4 -13   46.30    4.90
  -2   4  13   58.79    6.70
  -2   4  13   43.90    5.40
  -1  -4  13   -2.40    2.30
   1  -4 -13    1.70    1.70
   1  -4 -13   -0.20    1.70
   1  -4 -13    0.30    1.80
  -1  -4  13   -1.80    1.80
   1   4 -13    1.50    1.40
   1   4 -13   -0.20    2.00
  -1   4  13    4.60    2.10
  -1   4  13   -1.30    2.10
   0  -4 -13    1.30    1.80
   0  -4 -13    1.20    1.80
   0  -4 -13    2.30    2.50
   0  -4 -13   -0.50    1.80
   0  -4  13   -0.10    2.90
   0   4 -13    3.00    2.10
   0   4 -13    0.30    1.80
   0   4  13   -0.50    2.00
   0   4  13    2.00    1.80
   0   4 -13    1.20    1.60
  -1  -4 -13    7.80    2.70
  -1  -4 -13    4.20    2.30
  -1  -4 -13    6.00    2.30
  -1  -4 -13    1.40    1.80
   1  -4  13    4.20    1.80
   1   4  13    5.70    2.20
   1   4  13    4.00    2.10
  -1   4 -13    6.80    2.40
  -1   4 -13    5.70    2.20
   1   4  13    1.10    2.30
  -1   4 -13    5.20    2.20
   2  -4  13   -3.40    2.20
   2  -4  13   -2.10    1.40
  -2  -4 -13    1.50    2.20
   2  -4  13    3.70    1.90
  -2  -4 -13    2.30    2.20
  -2  -4 -13   -1.10    2.00
   2   4  13   -2.20    1.60
  -2   4 -13    2.20    2.50
  -2   4 -13    6.70    2.20
   2   4  13   -1.50    1.40
  -2   4 -13    5.50    4.00
   2   4  13   -1.70    2.00
  -2   4 -13   -0.80    2.00
  -3  -4 -13    1.80    2.00
  -3  -4 -13   -1.30    2.50
   3  -4  13    0.30    1.30
  -3  -4 -13    0.80    2.50
   3  -4  13   -0.80    1.80
  -3   4 -13   -2.10    2.40
   3   4  13   -2.10    1.40
  -3   4 -13   -2.20    2.20
  -3   4 -13   -0.30    1.90
   3   4  13   -0.40    1.80
  -4  -4 -13    0.40    2.70
  -4  -4 -13    6.90    2.10
  -4  -4 -13    6.10    3.50
  -4   4 -13    0.40    3.10
   4   4  13    1.90    1.80
  -4   4 -13    3.40    2.80
   4   4  13    0.80    1.90
  -4   4 -13    0.70    2.30
  -6  -5  13   -4.70    2.10
  -6  -5  13    0.50    2.10
  -6  -5  13    3.40    3.20
   6  -5 -13    2.30    1.90
   6   5 -13    1.40    3.40
  -6   5  13    0.60    2.40
  -6   5  13    2.60    2.50
  -5  -5  13    0.50    2.20
  -5  -5  13    9.80    2.70
  -5  -5  13    0.10    2.30
   5  -5 -13    3.20    2.00
   5   5 -13    1.20    2.80
  -5   5  13    1.40    2.40
  -5   5  13    2.40    2.60
  -5   5  13    4.30    2.70
  -4  -5  13   13.00    3.00
   4  -5 -13    5.20    1.90
  -4  -5  13    3.20    2.40
  -4  -5  13   10.70    3.10
  -4   5  13    3.50    2.30
  -4   5  13   10.40    3.10
  -4   5  13    8.30    2.70
   4   5 -13    4.80    2.80
  -3  -5  13   20.20    3.90
   3  -5 -13   25.90    3.70
  -3  -5  13   26.30    4.50
  -3  -5  13   35.30    5.10
  -3   5  13   26.00    5.90
   3   5 -13   31.20    4.90
   3   5 -13   21.70    4.80
  -3   5  13   22.50    3.80
   2  -5 -13   12.20    2.60
   2  -5 -13   15.60    2.70
  -2  -5  13    9.20    2.90
  -2  -5  13   17.20    3.50
  -2   5  13   12.50    3.00
   2   5 -13   12.40    3.00
   2   5 -13    6.00    2.90
   1  -5 -13    1.90    1.70
  -1  -5  13    1.90    2.40
   1  -5 -13    3.90    1.70
   1  -5 -13    2.70    2.50
  -1  -5  13    2.90    2.00
   1   5 -13    5.00    2.80
  -1   5  13    1.00    2.00
   1   5 -13    0.90    2.10
   1   5 -13    3.30    1.80
  -1   5  13    0.70    1.90
   0  -5  13   11.70    2.60
   0  -5  13    5.40    2.10
   0  -5 -13   13.00    2.60
   0  -5 -13    9.80    2.80
   0  -5 -13    8.60    2.70
   0   5 -13   11.30    2.20
   0   5  13    5.00    2.40
   0   5 -13    9.40    3.20
   0   5  13   11.10    2.90
  -1  -5 -13    9.90    2.50
  -1  -5 -13   11.30    3.10
  -1  -5 -13   12.10    2.90
   1  -5  13    2.90    2.70
  -1  -5 -13    9.80    2.90
   1  -5  13    7.90    2.70
   1   5  13    6.60    4.00
  -1   5 -13    4.10    2.80
  -1   5 -13    5.10    2.90
  -1   5 -13    2.20    2.70
  -1   5 -13    7.00    2.40
   1   5  13    5.10    2.70
  -2  -5 -13    4.70    4.90
  -2  -5 -13    4.60    2.10
   2  -5  13    5.60    2.30
  -2  -5 -13    7.50    2.60
   2   5  13    2.40    2.00
  -2   5 -13    6.20    3.70
  -2   5 -13    2.70    2.80
   2   5  13    3.10    2.10
  -2   5 -13    6.20    2.30
  -3  -5 -13    9.10    3.30
  -3  -5 -13    9.60    3.50
  -3  -5 -13   10.60    2.80
   3  -5  13   10.80    2.50
   3  -5  13    8.60    2.10
   3  -5  13   14.60    3.30
  -3   5 -13    6.40    2.70
   3   5  13    6.70    2.50
  -3   5 -13   11.00    2.90
  -3   5 -13   14.30    4.20
   3   5  13   10.70    2.50
  -5  -6  13   22.00    4.50
   5  -6 -13   19.70    3.10
  -5  -6  13   25.00    4.10
  -5   6  13   18.80    3.90
  -5   6  13   16.90    4.20
   5   6 -13   10.90    4.50
  -4  -6  13   25.70    6.10
   4  -6 -13   39.10    4.10
  -4  -6  13   44.00    5.80
  -4  -6  13   54.09    6.10
  -4   6  13   47.70    6.60
  -4   6  13   29.40    5.00
  -3  -6  13   12.80    3.30
   3  -6 -13   18.90    3.00
  -3  -6  13    8.80    3.50
  -3  -6  13   10.30    3.30
  -3   6  13    9.20    3.10
  -3   6  13   18.40    4.20
  -3   6  13   12.20    3.10
   2  -6 -13    1.00    1.70
  -2  -6  13    1.10    2.10
  -2  -6  13    2.30    2.10
  -2   6  13   -2.90    2.50
   2   6 -13    1.30    2.90
  -2   6  13    0.70    2.20
  -1  -6  13    5.30    2.40
   1  -6 -13    6.70    2.30
  -1  -6  13    3.80    2.60
   1  -6 -13    5.30    3.00
   1   6 -13    1.30    2.60
   1   6 -13    3.80    1.60
  -1   6  13    1.00    2.20
  -1   6  13    4.10    2.30
   1   6 -13    8.40    2.80
   0  -6 -13   11.70    3.00
   0  -6 -13    9.90    3.20
   0  -6 -13    4.20    2.20
   0  -6  13   11.60    2.90
   0   6 -13    4.70    2.70
   0   6 -13    6.50    2.00
   0   6  13    9.00    2.90
   0   6 -13    5.90    2.90
  -1  -6 -13    2.40    2.20
  -1  -6 -13    1.50    2.00
  -1  -6 -13    1.50    2.30
   1  -6  13    3.60    1.90
  -1   6 -13   -0.20    2.60
  -1   6 -13   -0.40    1.70
   1   6  13    4.70    2.50
  -1   6 -13    1.60    2.70
   2  -6  13    2.60    2.20
  -2  -6 -13    2.10    2.00
  -2  -6 -13    2.10    2.50
  -2  -6 -13    0.70    2.50
   2  -6  13    0.70    1.90
   2   6  13    0.20    2.00
   2   6  13    5.40    2.40
  -2   6 -13    1.40    2.60
  -2   6 -13    7.70    2.70
  -2   6 -13    0.00    2.00
   3  -6  13   -0.50    1.90
  -3  -6 -13    7.80    3.50
  -3  -6 -13   -1.10    2.10
  -3  -6 -13   -1.10    2.90
   3  -6  13    4.80    2.40
   3   6  13    2.80    2.40
  -3   6 -13    2.00    2.90
   3   6  13   -4.00    1.80
  -3   6 -13   -2.10    3.00
  -3   6 -13    0.50    2.70
  -4  -7  13    3.70    3.30
   4  -7 -13   -1.10    1.80
  -4  -7  13    3.50    2.70
  -4   7  13    5.30    3.00
  -4   7  13    0.60    2.40
  -3  -7  13    5.70    2.50
   3  -7 -13   -3.80    1.60
  -3  -7  13    3.30    3.00
  -3   7  13    1.50    2.60
  -3   7  13    0.10    2.50
   2  -7 -13   -1.70    2.00
   2  -7 -13    3.10    1.40
  -2  -7  13   -1.40    2.10
  -2   7  13   -2.40    1.90
   2   7 -13   -3.60    2.90
  -2   7  13    1.10    2.10
   1  -7 -13   -3.40    1.70
  -1  -7  13   -3.20    1.70
   1  -7 -13    1.30    1.80
  -1   7  13   -0.80    2.20
   1   7 -13   -1.80    1.30
  -1   7  13   -3.10    1.90
   0  -7 -13    6.10    3.20
   0  -7  13    3.60    2.30
   0  -7 -13    5.10    2.50
   0   7  13    5.60    2.60
   0   7  13    3.90    2.60
   0   7 -13    3.80    1.90
   1  -7  13   -1.20    1.80
  -1  -7 -13   -2.70    2.50
   1  -7  13    1.10    2.40
  -1   7 -13   -1.20    2.50
  -1   7 -13   -2.50    1.90
   1   7  13    0.60    2.30
   1   7  13    2.50    2.00
  -2  -7 -13    5.50    3.00
   2  -7  13   -1.70    1.90
   2  -7  13   -4.10    2.00
  -2   7 -13    0.10    3.30
   2   7  13   -4.90    2.00
  -2   7 -13    0.00    2.50
   2  -8 -13    4.80    1.70
  -2  -8  13   -4.40    2.40
  -2   8  13   -0.50    2.40
  -2   8  13   -1.80    2.40
   1  -8 -13    0.30    1.90
  -1  -8  13    0.30    2.50
   1  -8 -13   -1.50    1.80
  -1   8  13    1.00    2.40
  -1   8  13   -3.10    2.20
  -7   0  14    9.50    3.00
  -7   0  14    2.90    1.70
  -7   0  14    8.60    1.70
  -7   0  14    8.00    2.50
  -6   0  14    6.10    2.60
  -6   0  14    5.70    2.80
   5   0 -14   11.10    3.20
  -5   0  14    9.30    2.70
  -5   0  14    6.50    1.70
  -5   0  14   10.30    2.70
   4   0 -14    3.10    2.20
  -4   0  14    3.50    1.80
  -4   0  14    2.80    1.50
  -4   0  14    5.70    2.40
  -3   0  14   46.60    4.90
  -3   0  14   31.00    3.40
  -3   0  14   44.10    6.00
   3   0 -14   29.70    4.30
  -2   0  14    9.60    2.60
   2   0 -14    7.30    2.20
   2   0 -14   14.20    2.30
   2   0 -14    7.00    2.00
  -2   0  14    6.80    1.80
  -2   0  14    7.80    2.00
   1   0 -14    9.50    2.10
  -1   0  14   10.50    2.90
  -1   0  14    9.40    2.00
  -1   0  14    9.00    2.70
   1   0 -14    8.60    2.20
  -1   0  14    8.20    2.60
   1   0 -14   10.30    2.70
   0   0  14  158.98    7.60
   0   0  14  156.78    8.80
   0   0  14  166.58    9.40
   0   0  14  161.08    7.90
   0   0 -14  160.98    7.50
  -1   0 -14   95.39    6.40
   1   0  14   96.09    6.00
   1   0  14   99.59    6.40
   1   0  14  101.49    7.00
   2   0  14   10.30    2.90
  -2   0 -14    9.20    2.80
  -2   0 -14    8.60    2.80
   2   0  14   16.90    3.70
   2   0  14    9.90    2.10
  -3   0 -14    1.50    2.90
   3   0  14   -2.00    1.70
  -3   0 -14    0.90    2.30
   3   0  14    0.20    2.20
   3   0  14    2.50    1.40
   4   0  14   -2.80    2.10
  -4   0 -14   -0.30    2.60
  -7  -1  14   -0.70    2.30
  -7  -1  14   -1.30    2.00
  -7   1  14   -0.80    2.20
  -7   1  14    2.40    2.00
  -7   1  14   -3.70    1.80
  -7   1  14   -1.80    1.60
   6  -1 -14    4.70    2.90
  -6  -1  14    8.90    3.00
  -6  -1  14    8.40    2.70
  -6   1  14    4.70    2.00
  -6   1  14   10.20    2.60
  -6   1  14   13.80    3.00
   6   1 -14    5.60    3.10
  -5  -1  14   24.10    3.50
   5  -1 -14   19.90    3.90
  -5  -1  14   18.70    3.70
  -5   1  14   18.20    3.80
  -5   1  14   19.60    3.20
  -5   1  14   20.80    3.30
   4  -1 -14   50.39    5.20
  -4  -1  14   41.90    5.70
  -4  -1  14   47.20    8.10
  -4  -1  14   41.40    3.10
  -4   1  14   48.40    4.80
  -4   1  14   43.80    5.40
  -3  -1  14   40.20    6.30
   3  -1 -14   44.80    4.60
  -3  -1  14   41.70    4.80
  -3  -1  14   38.50    3.10
  -3  -1  14   31.30    5.50
  -3   1  14   36.10    6.70
  -3   1  14   44.00    4.80
  -3   1  14   40.50    4.90
   3   1 -14   40.10    5.00
  -2  -1  14    5.50    2.40
  -2  -1  14    7.80    2.50
  -2  -1  14   10.30    1.90
   2  -1 -14   15.20    3.10
  -2  -1  14    9.40    2.50
   2   1 -14   11.10    2.00
   2   1 -14   14.20    2.40
   2   1 -14   11.80    2.90
  -2   1  14   14.00    2.40
  -2   1  14   10.00    2.40
  -2   1  14   14.10    2.90
   1  -1 -14  100.29    6.30
  -1  -1  14   98.69    6.70
   1  -1 -14   93.69    5.90
   1  -1 -14  100.39    4.70
  -1  -1  14   94.29    5.60
  -1   1  14  104.09    7.90
  -1   1  14   95.39    5.90
  -1   1  14  104.69    6.70
  -1   1  14   93.29    6.60
   1   1 -14   91.49    5.30
   1   1 -14   98.19    5.50
   0  -1  14    2.30    2.50
   0  -1 -14    1.40    1.90
   0  -1  14    1.30    1.90
   0  -1  14    3.90    1.90
   0   1  14    3.40    1.80
   0   1 -14    3.10    1.80
   0   1  14    2.60    2.30
   0   1  14    3.50    2.00
   0   1 -14    2.00    1.80
   0   1  14    0.00    1.90
   1  -1  14   46.80    4.80
   1  -1  14   50.49    4.60
   1  -1  14   50.29    5.20
  -1  -1 -14   48.90    5.50
   1   1  14   54.79    5.50
  -1   1 -14   48.10    5.90
   1   1  14   56.39    4.70
   1   1  14   39.20    5.40
  -1   1 -14   50.49    5.10
   1   1  14   39.50    4.70
   2  -1  14   -0.20    1.20
  -2  -1 -14    0.10    2.40
   2  -1  14    0.70    1.90
   2  -1  14   -3.60    1.60
  -2  -1 -14    0.90    2.10
   2  -1  14   -2.60    1.80
   2   1  14    1.10    1.30
   2   1  14   -2.50    1.70
  -2   1 -14    1.20    2.10
   2   1  14   -2.90    1.70
  -3  -1 -14    3.20    2.70
   3  -1  14    2.10    2.60
   3  -1  14   -1.40    1.60
   3  -1  14    3.60    1.50
  -3   1 -14    1.40    2.40
  -3   1 -14   -1.90    2.10
   3   1  14    5.80    1.80
  -4  -1 -14    3.30    3.10
   4   1  14   -1.50    2.00
  -4   1 -14    0.70    2.70
  -7  -2  14   44.60    5.80
  -7  -2  14   31.90    4.60
  -7   2  14   27.60    4.50
  -7   2  14   28.10    3.50
  -7   2  14   26.50    5.10
   6  -2 -14   28.20    4.30
  -6  -2  14   21.60    4.20
  -6  -2  14   16.20    3.30
  -6   2  14   16.40    2.70
  -6   2  14   29.70    4.20
  -6   2  14   22.30    4.00
   5  -2 -14   -2.70    1.90
  -5  -2  14    4.70    2.50
  -5  -2  14    1.80    3.90
  -5  -2  14    2.80    2.50
  -5   2  14    1.50    2.00
   5   2 -14    2.90    2.50
  -5   2  14    2.10    1.70
  -5   2  14   -0.80    2.20
  -4  -2  14   99.79    8.00
   4  -2 -14  110.09    6.60
  -4  -2  14  108.49    7.10
  -4  -2  14  104.89    7.70
  -4   2  14  100.39    7.50
   4   2 -14  100.99    5.40
  -4   2  14  109.99    6.50
  -4   2  14   98.09    6.10
  -3  -2  14  122.09    8.70
  -3  -2  14  134.49    9.30
   3  -2 -14  133.29    7.10
  -3  -2  14  126.29    8.70
  -3   2  14  126.49    8.10
  -3   2  14  139.49    7.40
   3   2 -14  134.69    6.00
  -3   2  14  121.29    6.70
  -2  -2  14   17.80    3.40
  -2  -2  14   16.30    3.70
   2  -2 -14   20.00    3.50
  -2  -2  14   18.30    2.20
   2   2 -14   20.40    3.10
  -2   2  14   15.20    2.90
  -2   2  14   20.20    3.30
  -2   2  14   15.80    3.10
   1  -2 -14   74.09    5.60
   1  -2 -14   69.69    5.50
  -1  -2  14   77.89    6.20
   1  -2 -14   74.09    4.60
  -1  -2  14   76.49    4.70
  -1   2  14   77.69    6.00
  -1   2  14   54.59    5.40
   1   2 -14   66.09    5.20
   1   2 -14   72.99    4.70
  -1   2  14   75.39    5.90
   0  -2  14   60.29    5.10
   0  -2 -14   61.39    5.70
   0  -2  14   58.89    6.20
   0  -2  14   59.99    4.80
   0  -2 -14   62.39    4.90
   0   2 -14   50.59    5.20
   0   2 -14   62.19    5.10
   0   2  14   40.40    6.90
   0   2  14   48.50    5.90
   0   2 -14   57.59    4.90
   0   2  14   57.09    5.30
   0   2  14   58.89    5.20
  -1  -2 -14    5.40    2.20
   1  -2  14    1.80    1.90
   1  -2  14    5.10    2.00
   1  -2  14    4.20    2.00
   1   2  14   -0.40    1.80
  -1   2 -14    3.30    2.00
  -1   2 -14    4.90    2.10
   1   2  14    6.80    2.20
   1   2  14    2.00    2.10
  -1   2 -14    1.80    3.60
   2  -2  14    0.40    1.80
   2  -2  14   -1.10    2.10
  -2  -2 -14    2.30    2.30
  -2  -2 -14    1.40    2.40
   2  -2  14    4.20    2.30
   2  -2  14    3.00    1.50
  -2   2 -14   -0.30    3.20
   2   2  14   -1.90    1.70
   2   2  14    2.00    1.40
  -2   2 -14   -1.90    1.80
   2   2  14   -2.30    2.00
  -3  -2 -14    2.30    2.80
  -3  -2 -14    8.00    3.00
   3  -2  14   11.90    3.10
   3  -2  14    9.60    3.00
   3  -2  14    7.30    1.70
   3   2  14    6.80    1.90
  -3   2 -14    4.90    2.60
  -3   2 -14    6.50    2.60
  -4  -2 -14    2.00    3.20
  -4  -2 -14   -0.20    2.70
  -4   2 -14   -0.20    2.80
   4   2  14    0.00    1.50
  -6  -3  14   20.40    4.00
   6  -3 -14   12.50    3.10
  -6  -3  14   19.30    4.10
  -6   3  14   13.30    2.50
  -6   3  14   13.50    3.80
  -6   3  14   18.10    3.90
  -6   3  14   18.60    3.30
  -5  -3  14   18.00    5.60
  -5  -3  14   37.70    4.20
  -5  -3  14   43.20    6.00
   5  -3 -14   28.00    3.80
  -5  -3  14   22.50    3.70
   5   3 -14   26.70    4.30
   5   3 -14   30.80    5.40
  -5   3  14   32.90    4.10
  -5   3  14   27.00    4.40
  -5   3  14   21.90    3.40
  -4  -3  14   23.90    4.00
  -4  -3  14   15.80    3.70
  -4  -3  14   24.10    4.20
   4  -3 -14   19.50    2.90
  -4   3  14   15.90    2.80
  -4   3  14   21.60    3.90
  -4   3  14   33.60    4.20
   4   3 -14   25.30    3.70
   4   3 -14   24.60    4.40
  -3  -3  14   48.30    5.90
   3  -3 -14   46.40    4.70
  -3  -3  14   54.19    5.80
  -3  -3  14   46.30    6.50
   3   3 -14   43.10    6.20
  -3   3  14   47.30    5.70
   3   3 -14   39.30    6.30
  -3   3  14   43.80    5.30
  -3   3  14   46.50    5.00
   2  -3 -14  247.68   11.00
   2  -3 -14  229.88    9.40
  -2  -3  14  254.07   11.90
  -2  -3  14  251.67   10.60
  -2   3  14  255.87   10.10
  -2   3  14  248.68    9.90
  -2   3  14  233.28   11.20
   2   3 -14  232.98    9.30
   2   3 -14  243.48    6.70
  -1  -3  14    1.70    2.20
  -1  -3  14    1.00    1.90
   1  -3 -14    3.10    1.60
   1  -3 -14    3.00    1.90
  -1  -3  14    1.50    1.80
   1  -3 -14    4.00    2.10
   1  -3 -14    5.20    2.20
   1   3 -14    1.70    1.50
  -1   3  14    5.70    2.30
   1   3 -14    3.60    2.00
  -1   3  14    5.40    2.20
   1   3 -14   -2.60    1.70
  -1   3  14    1.10    1.80
   0  -3 -14   -3.00    1.40
   0  -3  14    0.50    1.30
   0  -3  14   -1.10    1.60
   0  -3 -14   -1.30    2.20
   0  -3  14   -0.60    1.60
   0   3 -14   -7.80    3.60
   0   3  14   -1.10    1.50
   0   3 -14    0.50    2.00
   0   3 -14    0.70    1.60
  -1  -3 -14   -0.30    1.60
   1  -3  14    1.30    1.50
   1  -3  14    1.20    1.90
  -1  -3 -14    0.20    2.00
   1  -3  14    2.40    1.80
  -1  -3 -14    1.50    2.10
   1  -3  14   -0.10    1.80
  -1  -3 -14   -0.50    2.00
   1   3  14   -2.00    2.10
  -1   3 -14   -0.40    1.70
   1   3  14   -0.40    1.60
  -1   3 -14    0.50    2.00
  -1   3 -14    2.90    2.00
   1   3  14   -0.70    1.70
   2  -3  14   22.40    3.50
  -2  -3 -14   27.40    4.90
  -2  -3 -14   19.50    3.20
   2  -3  14   34.30    4.00
   2  -3  14   14.80    3.80
  -2  -3 -14   32.80    4.60
  -2   3 -14   29.40    4.20
   2   3  14   22.60    4.00
   2   3  14   27.80    4.00
   2   3  14   20.50    3.60
  -3  -3 -14    5.40    3.10
   3  -3  14    7.30    1.90
   3  -3  14    7.00    2.60
  -3  -3 -14    5.20    3.00
   3   3  14    3.50    1.90
  -3   3 -14    5.60    2.70
  -3   3 -14    8.70    3.00
  -4  -3 -14   -3.70    2.80
  -4  -3 -14    1.20    3.20
   4   3  14   -1.60    1.40
  -4   3 -14   -1.40    2.40
  -6  -4  14   -0.50    2.50
  -6  -4  14    3.50    3.00
   6  -4 -14   -4.70    2.00
  -6  -4  14   -3.20    2.20
  -6   4  14   -3.60    1.80
  -6   4  14    0.00    2.50
   6   4 -14    1.30    2.60
  -6   4  14    2.70    2.80
  -6   4  14    1.60    1.70
   5  -4 -14    2.00    2.00
  -5  -4  14    7.50    2.80
  -5  -4  14   -3.50    2.50
  -5  -4  14    7.90    2.40
  -5  -4  14    3.10    2.90
  -5   4  14    6.60    2.10
   5   4 -14    2.30    2.40
  -5   4  14    3.60    2.60
  -5   4  14    4.30    2.90
  -4  -4  14   66.19    6.50
   4  -4 -14   58.49    4.90
  -4   4  14   61.69    6.00
   4   4 -14   67.99   10.60
   4   4 -14   51.79    5.70
  -4   4  14   70.19    5.50
  -4   4  14   70.89    7.10
  -3  -4  14   89.79    6.90
   3  -4 -14   88.69    5.90
   3  -4 -14   71.99    6.50
   3   4 -14   77.99    6.10
  -3   4  14   68.69    6.30
  -3   4  14   93.59    6.30
  -3   4  14   88.99    7.30
  -2  -4  14   64.39    6.00
   2  -4 -14   47.20    4.80
   2  -4 -14   54.39    6.00
  -2  -4  14   32.20    5.50
   2   4 -14   27.70    6.30
   2   4 -14   44.60    5.00
  -2   4  14   56.89    6.30
  -2   4  14   45.10    5.40
  -1  -4  14    1.50    2.30
   1  -4 -14    0.80    3.10
  -1  -4  14    1.70    1.90
   1  -4 -14    3.20    2.70
   1   4 -14   -1.50    2.10
   1   4 -14    2.20    1.40
  -1   4  14    1.50    1.90
  -1   4  14    0.80    1.90
   1   4 -14    2.60    2.30
   0  -4 -14    3.20    1.90
   0  -4  14    3.80    2.10
   0  -4  14   -0.20    1.90
   0  -4 -14    2.70    1.90
   0  -4 -14    4.10    1.90
   0  -4  14   -1.60    2.10
   0  -4 -14    0.50    2.20
   0   4 -14    3.60    2.10
   0   4  14    1.20    3.30
   0   4  14    0.90    2.50
   0   4 -14    5.30    2.50
   0   4 -14    2.90    1.70
   1  -4  14   -1.40    1.60
  -1  -4 -14    3.90    2.10
  -1  -4 -14    3.50    2.40
  -1  -4 -14    3.30    2.40
   1  -4  14    4.10    2.30
   1  -4  14    2.80    1.90
  -1  -4 -14    2.80    2.50
  -1   4 -14    1.40    1.90
  -1   4 -14    4.90    2.40
   1   4  14   -0.40    1.90
   1   4  14   -1.20    1.70
   1   4  14    1.60    2.00
  -2  -4 -14   12.30    2.80
  -2  -4 -14    9.90    3.00
   2  -4  14    9.00    2.40
   2  -4  14   14.20    2.90
  -2  -4 -14   13.50    4.60
   2   4  14   13.80    2.70
  -2   4 -14    9.00    2.70
   2   4  14    6.60    2.50
  -2   4 -14   14.50    3.40
  -2   4 -14   11.90    3.10
  -3  -4 -14   16.00    4.00
  -3  -4 -14   10.30    2.30
   3  -4  14   17.20    3.30
   3  -4  14   19.70    2.90
  -3  -4 -14   12.60    3.60
   3   4  14   13.80    2.70
  -3   4 -14    9.70    3.20
   3   4  14    7.50    2.70
  -5  -5  14   20.40    3.70
   5  -5 -14   33.80    3.90
  -5  -5  14   26.80    4.20
   5   5 -14   36.90    5.40
  -5   5  14   26.80    5.30
  -5   5  14   30.40    4.90
  -4  -5  14    3.10    2.30
   4  -5 -14   -0.40    1.50
  -4  -5  14    1.40    2.40
  -4  -5  14   -3.50    1.80
   4   5 -14   -2.70    2.40
  -4   5  14    5.00    2.80
  -4   5  14    0.40    2.40
  -4   5  14   -3.30    2.10
   3  -5 -14    1.80    1.90
  -3  -5  14    6.40    2.90
   3   5 -14    0.50    2.20
  -3   5  14    2.00    2.40
  -2  -5  14    3.20    2.40
  -2  -5  14    0.80    2.20
   2  -5 -14    1.50    1.70
   2  -5 -14    0.60    2.10
   2   5 -14   -1.00    2.60
  -2   5  14    0.70    2.50
   2   5 -14   -0.30    2.30
  -2   5  14    5.70    2.80
   1  -5 -14    7.10    2.00
  -1  -5  14    7.20    2.60
   1  -5 -14    5.20    2.70
  -1  -5  14    0.90    2.00
   1   5 -14    5.90    3.20
   1   5 -14    7.40    1.70
  -1   5  14    8.10    2.90
   1   5 -14    4.40    2.50
  -1   5  14    2.70    2.50
   0  -5  14    7.90    2.80
   0  -5 -14    6.00    2.40
   0  -5 -14    5.60    2.30
   0  -5 -14    5.60    2.30
   0  -5 -14   12.10    2.70
   0   5  14    7.00    2.50
   0   5 -14    6.50    2.00
   0   5  14    2.40    2.50
   0   5 -14    7.60    2.70
   0   5 -14    2.90    4.10
  -1  -5 -14    0.80    2.00
  -1  -5 -14    3.10    2.50
   1  -5  14    4.80    2.10
  -1  -5 -14    3.40    2.40
   1   5  14    1.70    2.00
  -1   5 -14    2.30    2.70
  -1   5 -14   -1.30    1.60
  -1   5 -14   -3.00    2.20
  -2  -5 -14    6.10    3.10
  -2  -5 -14    8.20    3.70
   2  -5  14    4.50    2.30
   2  -5  14    6.50    2.50
  -2  -5 -14    4.90    3.90
  -2   5 -14    1.30    2.40
   2   5  14    3.20    2.20
  -2   5 -14    0.90    2.30
  -2   5 -14    1.80    2.70
  -3  -5 -14    0.00    2.80
  -3  -5 -14    3.60    3.50
   3  -5  14    0.90    2.30
   3  -5  14   -3.70    1.70
  -3  -5 -14    4.60    2.00
   3  -5  14   -3.20    1.60
  -3   5 -14    2.20    3.50
  -3   5 -14    0.40    2.70
   3   5  14    2.50    3.50
  -5  -6  14    6.60    3.00
  -5  -6  14   15.30    3.90
  -5  -6  14   -1.10    2.60
   5  -6 -14    4.80    2.20
   5   6 -14    5.40    4.60
  -5   6  14    8.90    3.20
  -5   6  14    5.60    3.60
  -4  -6  14   19.10    3.80
   4  -6 -14   17.60    3.10
  -4  -6  14   15.10    3.40
   4   6 -14   19.40    5.70
  -4   6  14   14.80    3.60
  -4   6  14   20.40    3.90
   3  -6 -14    3.60    1.90
  -3  -6  14    5.00    2.90
  -3  -6  14   -4.30    2.20
   3   6 -14    0.50    3.80
  -3   6  14    0.90    2.50
  -3   6  14    3.70    2.70
  -2  -6  14   -0.90    2.40
  -2  -6  14   -1.50    2.60
  -2   6  14    1.60    2.50
   2   6 -14   -4.20    2.10
  -1  -6  14    0.10    2.20
   1  -6 -14    3.50    2.00
   1  -6 -14    0.40    1.50
  -1   6  14    0.20    2.20
   1   6 -14   -3.40    2.20
   0  -6 -14    1.30    2.20
   0  -6  14    4.20    2.60
   0   6 -14    2.70    1.70
   0   6  14    3.50    2.40
  -1  -6 -14   10.70    3.00
   1  -6  14    9.50    2.40
  -1  -6 -14    6.20    2.80
  -1  -6 -14   12.00    3.40
  -1   6 -14    3.60    2.30
   1   6  14    9.50    3.10
   2  -6  14    4.10    2.30
  -2  -6 -14    3.40    2.90
  -2  -6 -14    3.40    2.40
  -2   6 -14   -1.50    2.20
   2   6  14   -0.40    2.30
  -2   6 -14    3.90    3.20
  -3  -7  14    3.70    2.90
   3  -7 -14    1.00    2.00
  -3   7  14   14.20    3.80
  -3   7  14    2.60    2.70
   2  -7 -14   -1.90    2.00
  -2  -7  14    2.50    2.60
  -2   7  14   -0.50    2.40
  -2   7  14    3.10    2.70
   1  -7 -14    0.10    2.30
  -1  -7  14   -2.20    2.10
   1  -7 -14    6.50    2.10
  -1   7  14    0.60    2.10
  -1   7  14   -2.80    2.20
   0  -7 -14   -1.10    2.30
   0  -7  14    4.40    2.70
   0   7  14    1.30    2.60
  -7   0  15   -1.70    2.20
  -7   0  15   -1.70    1.10
  -7   0  15   -2.10    1.80
  -6   0  15    2.70    2.40
   6   0 -15   -3.20    2.30
  -6   0  15    0.10    1.90
  -6   0  15   -3.30    1.30
  -5   0  15   -0.30    2.10
  -5   0  15    0.60    2.00
  -5   0  15   -3.20    1.20
  -4   0  15    0.10    2.10
  -4   0  15    3.60    2.30
  -3   0  15   -2.90    1.10
  -3   0  15    2.30    2.30
  -3   0  15   -0.90    2.10
  -2   0  15   -1.30    1.30
  -2   0  15   -0.20    1.90
   2   0 -15    0.00    1.20
  -1   0  15    1.00    1.70
   1   0 -15   -1.40    1.60
  -1   0  15    0.90    1.70
   1   0 -15    0.50    1.30
  -1   0  15   -0.70    1.50
   0   0 -15    0.50    1.80
   0   0  15    2.30    2.20
   0   0 -15    2.40    1.60
   0   0  15   -0.60    1.60
   0   0  15   -0.90    1.50
   1   0  15    1.10    1.30
   1   0  15    1.00    2.10
  -1   0 -15   -2.10    1.80
  -1   0 -15   -0.20    2.10
   1   0  15   -1.50    1.70
   2   0  15   -2.50    1.70
  -2   0 -15    0.60    2.20
   2   0  15   -4.20    1.90
   2   0  15    0.70    1.30
   3   0  15   -0.10    1.30
  -3   0 -15   -2.00    2.20
   3   0  15   -1.30    2.20
  -4   0 -15   -3.60    2.60
  -6  -1  15   11.10    3.00
  -6  -1  15   11.40    3.30
   6   1 -15   27.60    5.00
  -6   1  15   13.90    3.00
  -6   1  15   10.40    2.50
  -6   1  15   17.50    3.90
  -5  -1  15   68.69    6.90
  -5  -1  15   59.09    5.70
  -5   1  15   57.19    6.20
  -5   1  15   38.40    4.40
  -5   1  15   60.89    6.40
   5   1 -15   49.30    6.40
   4  -1 -15   36.20    5.40
  -4  -1  15   26.60    4.30
  -4  -1  15   26.80    2.80
  -4  -1  15   34.90    5.00
  -4  -1  15   18.20    3.30
   4   1 -15   31.40    5.60
  -4   1  15   27.10    3.20
  -4   1  15   30.10    4.60
  -3  -1  15   10.80    3.10
   3  -1 -15    7.10    2.40
  -3  -1  15   10.60    3.20
  -3  -1  15   10.60    1.80
  -3  -1  15   10.30    3.40
  -3   1  15   12.20    2.30
  -3   1  15   17.90    3.50
  -2  -1  15   42.50    4.90
  -2  -1  15   41.50    3.80
  -2  -1  15   31.70    6.40
   2   1 -15   44.70    3.60
  -2   1  15   45.00    4.40
  -2   1  15   41.30    6.10
  -2   1  15   36.80    6.10
   2   1 -15   34.40    3.60
  -1  -1  15    4.00    2.00
  -1  -1  15    2.50    2.40
   1  -1 -15    3.70    1.50
  -1  -1  15   -0.20    1.40
   1  -1 -15    4.90    2.10
   1   1 -15    3.20    1.70
  -1   1  15   -0.30    1.50
  -1   1  15    1.60    2.00
  -1   1  15    2.60    1.90
   1   1 -15    3.30    1.80
   0  -1  15   33.00    4.00
   0  -1 -15   37.10    5.00
   0  -1  15   34.90    4.40
   0  -1  15   40.00    4.90
   0  -1  15   18.60    3.90
   0  -1 -15   25.50    3.90
   0   1  15   23.60    3.50
   0   1  15   34.50    4.50
   0   1 -15   38.50    4.10
   0   1 -15   23.00    3.10
   0   1  15   30.60    4.30
   1  -1  15   -1.30    1.80
   1  -1  15   -1.10    1.50
  -1  -1 -15   -0.20    2.20
  -1   1 -15    4.70    2.00
   1   1  15    0.10    1.90
  -1   1 -15   -2.90    1.90
  -1   1 -15   -0.10    1.80
   1   1  15    0.30    2.10
   1   1  15    0.70    1.40
  -2  -1 -15    2.40    2.70
   2  -1  15    1.80    1.60
   2  -1  15    1.00    2.00
   2  -1  15   -2.60    1.70
   2  -1  15   -2.10    1.90
  -2   1 -15   -0.70    2.60
   2   1  15    3.60    2.50
   2   1  15    3.00    1.70
  -2   1 -15   -1.30    2.00
   3  -1  15    9.70    1.90
  -3  -1 -15   10.60    3.20
  -3   1 -15   11.30    3.30
   3   1  15    9.60    2.00
  -4  -1 -15    3.80    3.10
  -4  -1 -15    0.80    3.20
  -4   1 -15    0.40    2.70
   4   1  15    0.90    1.40
   6  -2 -15    9.60    3.40
  -6  -2  15    6.50    2.70
  -6  -2  15    2.50    3.20
  -6  -2  15    6.90    2.70
  -6   2  15    8.90    2.80
  -5  -2  15    2.90    2.70
  -5  -2  15    2.30    2.90
   5  -2 -15    3.30    2.40
  -5  -2  15    9.70    2.90
   5   2 -15    1.20    3.20
  -5   2  15    5.10    2.40
  -5   2  15    4.70    2.40
  -5   2  15    1.30    1.90
   4  -2 -15   26.50    3.90
  -4  -2  15   26.50    4.20
  -4  -2  15   25.60    4.00
  -4  -2  15   16.40    3.60
   4   2 -15   23.30    3.40
   4   2 -15   26.80    4.70
  -4   2  15   22.20    3.90
  -4   2  15   17.40    2.90
  -3  -2  15   43.40    3.00
   3  -2 -15   49.40    5.10
  -3  -2  15   40.00    6.40
  -3  -2  15   53.59    5.70
  -3  -2  15   50.69    6.30
  -3   2  15   52.99    5.80
   3   2 -15   44.20    4.10
   3   2 -15   52.49    6.00
  -3   2  15   49.99    4.90
  -3   2  15   49.60    5.40
  -2  -2  15   53.79    5.70
  -2  -2  15   52.09    3.70
  -2  -2  15   50.69    6.60
  -2  -2  15   64.59    6.20
   2   2 -15   53.39    4.50
  -2   2  15   48.70    5.30
   2   2 -15   60.49    3.70
  -2   2  15   60.09    5.90
  -1  -2  15   35.50    4.80
   1  -2 -15   39.10    4.50
  -1  -2  15   27.00    4.00
  -1  -2  15   34.80    4.60
   1  -2 -15   33.00    4.00
   1   2 -15   29.90    3.80
   1   2 -15   32.00    3.90
  -1   2  15   27.50    3.90
  -1   2  15   23.70    3.30
  -1   2  15   31.70    5.70
   0  -2  15   17.20    3.10
   0  -2  15   10.40    2.50
   0  -2 -15   14.80    3.10
   0  -2 -15   19.50    3.20
   0  -2  15    8.80    2.20
   0  -2 -15   12.70    3.20
   0   2  15   14.20    2.80
   0   2 -15   13.20    2.60
   0   2  15   14.70    3.10
   0   2  15   10.60    2.40
   0   2 -15   19.70    3.50
   0   2 -15   16.30    3.40
   1  -2  15    6.30    2.80
   1  -2  15    4.40    1.90
  -1  -2 -15    4.00    2.60
   1  -2  15    1.40    2.30
  -1  -2 -15    9.90    2.70
   1  -2  15    6.00    2.10
  -1  -2 -15   -1.10    2.10
  -1   2 -15    4.80    2.20
  -1   2 -15   10.10    2.60
   1   2  15    6.70    2.10
  -1   2 -15    3.70    2.70
   1   2  15    4.20    2.20
   2  -2  15   -1.30    1.30
  -2  -2 -15   -2.00    2.30
  -2  -2 -15    3.90    2.60
   2  -2  15    0.60    1.90
   2  -2  15    2.20    1.90
   2   2  15   -2.90    2.20
  -2   2 -15   -2.40    2.00
  -2   2 -15    1.80    2.20
   2   2  15   -1.00    1.40
   3  -2  15    4.90    1.70
  -3  -2 -15    6.00    3.20
  -3  -2 -15   -0.50    2.70
   3   2  15    0.30    2.30
  -3   2 -15    0.70    2.30
   3   2  15    4.40    1.80
  -6  -3  15    1.50    2.60
  -6  -3  15   -1.70    2.50
  -6  -3  15    5.70    3.10
   6  -3 -15   -0.40    2.60
  -6   3  15    6.20    2.90
  -6   3  15    4.80    2.10
  -6   3  15   -0.20    2.50
  -6   3  15   -1.80    2.30
  -5  -3  15   -4.30    2.10
  -5  -3  15    1.90    2.30
   5  -3 -15    2.00    2.30
  -5  -3  15    1.00    2.30
   5   3 -15   -2.10    1.70
  -5   3  15   -0.10    1.80
  -5   3  15   -1.50    2.00
  -5   3  15   -0.40    2.10
   4  -3 -15   25.60    3.40
  -4  -3  15   14.80    3.10
  -4  -3  15   24.70    4.00
  -4  -3  15   25.00    4.30
  -4   3  15   23.30    4.10
  -4   3  15   15.10    2.90
  -4   3  15   20.90    3.30
   4   3 -15   26.00    3.80
  -3  -3  15   50.39    5.60
   3  -3 -15   44.80    5.00
  -3  -3  15   49.10    6.80
  -3  -3  15   54.59    6.60
  -3   3  15   36.30    5.10
  -3   3  15   55.79    6.00
   3   3 -15   51.69    4.90
   3   3 -15   54.09    6.20
  -3   3  15   48.10    5.20
  -2  -3  15   38.10    5.30
   2  -3 -15   37.20    5.10
  -2  -3  15   39.30    5.00
  -2   3  15   50.19    6.10
  -2   3  15   35.40    5.10
  -2   3  15   42.60    5.40
   2   3 -15   45.10    3.00
   2   3 -15   32.70    4.30
   1  -3 -15    7.90    3.20
  -1  -3  15   10.80    2.90
  -1  -3  15    3.60    2.60
  -1  -3  15   10.20    3.20
   1   3 -15   10.90    2.60
  -1   3  15    3.90    2.60
  -1   3  15   11.40    3.30
  -1   3  15   11.10    3.00
   1   3 -15    8.00    1.90
   0  -3  15    0.30    1.90
   0  -3  15    0.60    1.60
   0  -3 -15   -0.70    1.80
   0  -3 -15    2.40    2.10
   0  -3  15   -1.10    1.70
   0  -3 -15   -1.60    1.70
   0   3  15   -1.70    1.90
   0   3 -15    2.10    2.10
   0   3 -15   -2.10    2.10
   0   3 -15   -2.10    1.50
   1  -3  15    0.10    1.90
  -1  -3 -15    1.10    2.30
  -1  -3 -15   -0.40    2.00
   1  -3  15    0.30    2.10
  -1   3 -15   -1.90    1.70
   1   3  15   -2.50    1.70
  -1   3 -15   -3.20    2.10
   1   3  15    0.00    1.60
  -2  -3 -15    2.90    4.20
   2  -3  15   -0.10    1.70
  -2  -3 -15    2.10    2.60
   2  -3  15   -1.80    2.10
   2   3  15    3.00    1.90
  -2   3 -15    7.10    2.60
  -2   3 -15   -0.50    2.00
   3  -3  15    3.70    1.70
   3  -3  15    5.80    2.60
  -3  -3 -15    3.10    2.90
  -3  -3 -15    3.60    3.40
   3   3  15    2.80    1.90
  -3   3 -15   -1.20    2.70
   3   3  15   -2.90    2.20
  -6  -4  15    4.80    3.10
  -6  -4  15   -2.10    3.00
  -6  -4  15    3.80    2.00
  -6   4  15    5.00    2.20
   6   4 -15    6.30    3.10
   5  -4 -15   37.70    5.10
  -5  -4  15   33.70    5.30
  -5  -4  15   25.90    4.00
  -5   4  15   47.80    6.80
   5   4 -15   37.10    4.90
  -5   4  15   25.80    3.80
  -4  -4  15   53.79    6.00
  -4  -4  15   41.70    5.50
  -4  -4  15   54.69    7.00
   4  -4 -15   52.79    5.00
  -4   4  15   33.00    4.70
   4   4 -15   40.60    5.30
  -4   4  15   56.39    5.50
  -3  -4  15    6.40    2.80
  -3  -4  15   -0.70    2.30
  -3  -4  15    6.50    2.80
   3  -4 -15    4.40    2.40
   3   4 -15    6.20    2.60
  -3   4  15    1.70    2.30
  -3   4  15    6.20    2.80
  -2  -4  15   -0.10    2.50
  -2  -4  15   -2.30    1.80
   2  -4 -15   -2.70    2.10
  -2   4  15    1.80    2.00
   2   4 -15   -2.80    2.80
  -2   4  15    2.10    2.80
   2   4 -15   -0.20    1.90
   1  -4 -15    3.80    2.20
  -1  -4  15    2.40    2.10
   1  -4 -15   -0.50    1.50
   1  -4 -15    0.80    2.40
  -1  -4  15   -0.70    2.30
  -1   4  15   -4.00    1.70
   1   4 -15   -3.60    2.30
   1   4 -15   -0.50    1.40
   1   4 -15   -2.00    1.80
  -1   4  15   -1.10    1.90
   0  -4 -15    4.20    2.20
   0  -4  15   -1.50    2.10
   0  -4  15    2.00    2.10
   0  -4 -15    1.10    2.30
   0  -4 -15    2.00    2.10
   0  -4 -15    1.80    2.20
   0   4 -15    3.50    2.50
   0   4  15   -2.30    2.10
   0   4  15    3.60    2.20
   0   4 -15   -1.30    1.50
  -1  -4 -15   -4.40    3.10
  -1  -4 -15    2.70    2.40
   1  -4  15    2.20    2.00
   1  -4  15    8.20    3.10
  -1  -4 -15    5.10    2.50
   1   4  15    4.90    2.20
  -1   4 -15    5.30    2.70
  -1   4 -15    3.80    1.90
   1   4  15    0.40    2.60
   2  -4  15   -0.70    1.80
  -2  -4 -15   -3.30    2.20
  -2  -4 -15   -0.30    1.90
   2  -4  15   -2.20    1.80
  -2  -4 -15    0.40    2.20
  -2   4 -15   -1.40    2.40
   2   4  15   -2.90    2.20
  -3  -4 -15    3.70    2.20
  -3  -4 -15    7.80    3.50
   3  -4  15    7.20    2.10
  -3  -4 -15    3.90    2.90
   3  -4  15    4.50    2.50
   3   4  15   -0.50    1.80
  -3   4 -15   -2.50    2.70
   5  -5 -15   31.60    3.80
  -5  -5  15   16.80    4.60
  -5  -5  15   20.30    4.70
  -5  -5  15   34.40    5.20
  -5   5  15   22.50    4.60
  -5   5  15   27.80    4.70
   5   5 -15   38.80    5.90
  -4  -5  15    3.90    2.90
   4  -5 -15   -1.50    1.80
  -4   5  15   -0.30    2.40
  -3  -5  15   -2.20    2.30
  -3  -5  15   -3.90    2.20
  -3   5  15    0.50    2.30
   3   5 -15    1.80    2.70
   2  -5 -15   -2.80    1.80
  -2  -5  15    3.10    2.50
   2   5 -15   -2.30    2.90
  -2   5  15   -0.20    2.00
  -2   5  15   -3.80    2.20
  -1  -5  15    4.40    2.30
   1  -5 -15    7.70    2.50
   1  -5 -15    5.90    2.00
   1   5 -15    5.20    1.70
  -1   5  15    5.20    2.50
   0  -5 -15    3.40    2.30
   0  -5  15    1.80    2.10
   0  -5 -15    3.00    2.30
   0  -5 -15    7.80    2.70
   0   5 -15    5.70    3.00
   0   5 -15   -0.20    1.80
   0   5  15    4.70    2.60
   1  -5  15   18.80    3.50
  -1  -5 -15   21.40    3.90
  -1  -5 -15   18.20    3.50
  -1  -5 -15   21.40    3.80
   1  -5  15   22.60    4.10
   1   5  15   18.40    3.40
  -1   5 -15   21.60    3.50
   1   5  15   13.40    3.70
   2  -5  15    6.00    2.70
   2  -5  15    6.40    2.30
  -2  -5 -15    9.70    3.70
  -2  -5 -15    9.70    3.30
  -2  -5 -15    4.50    2.80
  -2   5 -15    4.30    2.70
   2   5  15    9.90    2.60
   2   5  15    0.30    2.40
   4  -6 -15   -3.40    1.70
  -4  -6  15    2.30    2.90
  -4   6  15    3.70    3.00
  -4   6  15   -1.70    2.20
   4   6 -15   -2.80    3.10
  -3  -6  15   -0.80    2.50
  -3   6  15    0.20    2.50
  -3   6  15   -3.90    2.30
   3   6 -15   -4.40    2.70
  -2  -6  15    6.70    2.90
   2  -6 -15    7.50    2.60
   2   6 -15    4.40    3.10
  -2   6  15    9.30    3.10
  -1  -6  15   -1.00    2.40
   1  -6 -15   -1.10    1.60
  -1   6  15   -0.40    2.40
   0  -6 -15    0.90    2.20
   0  -6  15    5.30    2.80
   0   6 -15   -0.20    1.90
   0   6  15    1.70    2.30
  -1  -6 -15    1.70    2.30
   1  -6  15    5.60    2.50
  -1   6 -15   -1.00    2.30
   1   6  15   -0.10    2.40
  -6   0  16   16.80    3.60
  -6   0  16   14.50    3.40
  -6   0  16   12.60    2.30
  -5   0  16   24.70    2.70
  -5   0  16   39.00    5.40
   5   0 -16   31.40    5.20
  -5   0  16   42.60    6.10
   4   0 -16    9.30    3.20
  -4   0  16    7.10    1.80
  -4   0  16    8.70    3.20
  -4   0  16    8.10    2.70
  -3   0  16   27.80    4.50
  -3   0  16   40.30    5.10
  -3   0  16   17.50    3.80
  -3   0  16   29.80    4.10
   3   0 -16   42.70    5.50
  -2   0  16   54.09    5.80
   2   0 -16   48.20    5.50
  -2   0  16   59.49    5.80
  -2   0  16   52.89    4.50
  -1   0  16   -3.10    1.30
   1   0 -16    3.50    1.90
  -1   0  16    0.00    1.90
   1   0 -16   -0.20    1.50
  -1   0  16   -1.20    1.90
  -1   0  16   -1.20    1.80
   1   0 -16   -1.90    2.00
   0   0  16    2.70    2.20
   0   0  16    2.20    1.80
   0   0 -16    1.50    2.30
   0   0 -16    1.40    1.80
   0   0 -16    3.60    1.60
   0   0  16   -3.30    1.60
   1   0  16   11.50    3.00
   1   0  16   14.60    2.90
  -1   0 -16    8.20    2.60
   1   0  16    8.90    3.30
   1   0  16    8.00    4.80
   2   0  16    3.50    3.10
   2   0  16    1.10    1.50
  -2   0 -16   -0.40    2.20
   3   0  16   10.20    2.20
  -3   0 -16    9.20    3.50
   6  -1 -16   16.10    4.30
  -6  -1  16   13.10    3.40
  -6  -1  16   21.00    4.10
  -6   1  16   18.00    3.80
  -6   1  16   19.40    4.30
  -5  -1  16   12.50    3.50
   5  -1 -16    5.10    3.00
  -5  -1  16    8.60    2.70
  -5   1  16    9.60    3.30
  -5   1  16    9.90    2.60
  -4  -1  16   15.80    1.90
  -4  -1  16   12.00    3.60
  -4  -1  16   20.90    4.10
   4  -1 -16   15.40    3.90
  -4  -1  16   17.80    3.50
  -4   1  16   15.50    3.00
   4   1 -16   19.50    4.10
  -4   1  16   18.20    3.50
  -4   1  16   17.80    2.70
   3  -1 -16   27.20    4.10
  -3  -1  16   24.60    4.20
  -3  -1  16   26.70    3.20
  -3  -1  16   22.60    4.50
  -3  -1  16   27.10    4.20
   3   1 -16   31.40    4.60
  -3   1  16   33.80    4.80
  -3   1  16   38.70    5.60
  -3   1  16   23.10    3.10
  -2  -1  16    1.00    2.30
  -2  -1  16    1.60    1.70
  -2  -1  16   -2.90    1.70
   2  -1 -16   -2.80    1.80
  -2  -1  16   -1.40    1.90
  -2   1  16    0.00    1.70
  -2   1  16   -0.30    2.10
  -2   1  16   -2.90    1.40
   2   1 -16    2.50    1.30
   2   1 -16    0.10    2.30
  -2   1  16   -1.90    1.50
   2   1 -16   -0.50    1.60
   1  -1 -16   34.70    3.80
  -1  -1  16   35.50    5.00
   1  -1 -16   27.50    3.10
  -1  -1  16   18.70    5.90
  -1  -1  16   24.80    4.00
   1  -1 -16   29.60    4.20
  -1  -1  16   18.10    2.80
   1  -1 -16   24.70    3.60
   1   1 -16   34.80    4.10
  -1   1  16   25.00    3.70
  -1   1  16   22.20    3.20
  -1   1  16   26.40    3.90
   1   1 -16   22.50    4.60
   1   1 -16   29.90    3.70
   0  -1  16   -2.90    1.50
   0  -1 -16   -3.50    1.90
   0  -1 -16   -0.20    3.20
   0  -1  16    2.70    1.80
   0  -1  16    0.10    1.90
   0   1 -16    0.00    2.10
   0   1  16    1.00    1.80
   0   1  16   -0.60    1.70
   0   1 -16    2.10    1.60
   0   1  16    0.50    1.90
   0   1  16    0.50    1.90
   0   1 -16    1.90    1.90
   1  -1  16    3.00    1.80
   1  -1  16    0.00    2.00
  -1  -1 -16   -0.70    2.00
   1  -1  16   -1.00    1.80
  -1   1 -16   -1.60    2.10
   1   1  16   -2.40    1.70
  -1   1 -16    1.90    1.70
   1   1  16   -1.00    1.50
   1   1  16    1.80    2.10
   2  -1  16   20.80    2.90
   2  -1  16   13.40    2.90
  -2  -1 -16   16.70    3.80
   2   1  16    6.60    3.20
  -2   1 -16   13.10    3.30
   2   1  16   18.50    2.90
   3  -1  16    1.50    1.60
  -3  -1 -16    2.20    2.80
  -3   1 -16    2.60    3.20
   3   1  16    3.40    1.50
  -6  -2  16    0.60    2.30
   6  -2 -16   -2.80    2.80
  -6  -2  16   -1.30    2.20
  -6   2  16    0.90    2.40
  -6   2  16    1.00    2.20
   5  -2 -16    8.00    3.80
  -5  -2  16    1.80    2.40
  -5  -2  16    4.80    2.50
  -5   2  16   -1.80    2.00
  -5   2  16    4.10    2.70
  -5   2  16    4.80    2.40
  -4  -2  16   -0.30    2.30
  -4  -2  16   -1.90    2.50
  -4  -2  16    1.90    2.30
  -4   2  16   -2.30    1.80
  -4   2  16   -0.30    1.80
  -4   2  16    0.40    2.00
  -3  -2  16    1.70    1.20
  -3  -2  16   -0.90    2.10
  -3  -2  16   -2.10    2.20
   3  -2 -16   -1.30    2.00
  -3  -2  16   -1.60    2.20
   3   2 -16    0.00    1.60
  -3   2  16   -2.80    1.60
  -3   2  16    0.50    2.20
  -3   2  16    4.30    2.30
   2  -2 -16   25.90    4.00
  -2  -2  16   26.70    3.10
  -2  -2  16   26.70    4.30
  -2  -2  16   18.60    3.60
  -2  -2  16   19.60    3.80
   2   2 -16   26.70    4.30
   2   2 -16   26.70    5.10
  -2   2  16   27.70    4.20
  -2   2  16   22.00    3.80
   2   2 -16   30.70    3.00
  -2   2  16   16.80    3.50
   1  -2 -16   18.60    2.70
  -1  -2  16   15.40    2.50
  -1  -2  16   15.10    3.00
   1  -2 -16   16.30    3.40
  -1  -2  16   10.30    3.70
   1  -2 -16   17.50    3.30
   1  -2 -16   23.80    2.70
  -1  -2  16   19.80    3.80
   1   2 -16   15.00    2.80
  -1   2  16   11.50    3.20
   1   2 -16   15.40    2.40
  -1   2  16   23.00    3.80
   1   2 -16   22.60    4.20
  -1   2  16   19.00    3.40
  -1   2  16   15.50    3.20
   0  -2  16    1.10    2.00
   0  -2 -16   -0.90    2.30
   0  -2  16    0.40    2.40
   0  -2  16    0.20    1.70
   0  -2 -16   -2.70    1.70
   0  -2 -16   -1.30    1.90
   0   2  16    0.70    2.00
   0   2  16    0.60    2.30
   0   2  16   -0.80    2.70
   0   2 -16   -0.70    1.60
   0   2 -16    0.70    2.00
   0   2  16   -1.30    1.70
   1  -2  16    2.30    1.70
   1  -2  16   -1.10    1.70
   1  -2  16   -0.20    2.10
  -1  -2 -16    1.00    2.40
  -1   2 -16   -0.40    3.50
   1   2  16   -0.70    1.70
   1   2  16   -0.70    2.40
   2  -2  16   -3.50    1.60
   2  -2  16    2.10    2.40
  -2  -2 -16   -2.90    2.40
   2  -2  16   -0.60    1.50
  -2  -2 -16   -1.20    2.20
   2   2  16    0.10    1.70
   2   2  16   -4.40    2.10
  -2   2 -16   -0.50    2.20
  -2   2 -16    5.90    2.40
   3  -2  16   -3.00    1.30
  -3  -2 -16   -1.90    3.00
  -3  -2 -16    1.20    2.90
  -3   2 -16   -1.30    2.50
   3   2  16   -0.90    1.50
  -5  -3  16   -2.70    2.20
  -5  -3  16   -2.60    2.50
  -5   3  16    1.70    1.80
   5   3 -16   -2.80    1.80
  -5   3  16   -1.50    2.20
  -4  -3  16   11.00    3.60
  -4  -3  16   13.90    3.60
  -4   3  16   15.00    3.50
  -4   3  16    8.00    2.80
  -4   3  16   14.40    3.30
  -3  -3  16   -3.00    3.10
  -3  -3  16   -1.90    2.00
  -3  -3  16   -2.40    2.10
   3  -3 -16   -2.90    1.90
  -3   3  16   -3.70    1.80
   3   3 -16   -3.80    1.70
  -3   3  16    1.50    2.20
  -3   3  16   -2.70    1.90
   2  -3 -16   -1.40    2.20
  -2  -3  16    0.50    2.20
  -2   3  16    3.30    2.40
  -2   3  16   -0.70    2.00
   2   3 -16    3.20    1.20
   2   3 -16   -0.50    2.00
   1  -3 -16   -0.10    1.60
  -1  -3  16    0.00    1.90
  -1  -3  16   -0.20    1.90
   1  -3 -16   -1.00    1.40
   1  -3 -16   -2.70    1.90
   1   3 -16   -0.30    1.60
  -1   3  16   -1.60    2.10
  -1   3  16   -1.80    1.80
   1   3 -16   -0.50    1.90
   0  -3  16    8.50    2.90
   0  -3 -16   18.40    3.30
   0  -3 -16   19.00    3.50
   0  -3  16   17.60    3.30
   0   3 -16   21.00    3.80
   0   3  16    9.20    3.10
   0   3 -16   16.20    2.70
   0   3  16   16.90    3.30
   0   3  16    9.10    3.20
   1  -3  16   15.00    3.30
  -1  -3 -16   17.50    3.60
  -1  -3 -16   19.80    3.80
   1  -3  16   14.40    2.70
   1   3  16   18.80    3.20
  -1   3 -16   20.90    3.90
   1   3  16    8.50    2.90
  -1   3 -16   15.50    3.40
   2  -3  16    0.40    1.70
  -2  -3 -16   -3.30    2.30
   2  -3  16   -2.90    2.10
  -2  -3 -16   -4.30    2.70
  -2   3 -16   -2.10    2.10
   2   3  16    1.30    2.30
  -5  -4  16   30.10    4.80
  -5  -4  16   24.40    4.10
  -5   4  16   26.70    4.40
   5   4 -16   29.10    4.60
  -4  -4  16   25.10    4.20
  -4  -4  16   29.10    4.50
   4   4 -16   26.80    4.20
  -4   4  16   29.60    4.10
  -4   4  16   28.80    4.70
  -3  -4  16    0.70    2.80
  -3  -4  16   -0.60    2.40
   3  -4 -16   -1.70    2.30
  -3   4  16    1.30    2.50
  -3   4  16   -4.50    1.90
   3   4 -16   -0.50    2.20
  -2  -4  16    3.30    2.40
  -2  -4  16   -3.30    1.80
   2  -4 -16   -3.80    1.90
  -2   4  16   -1.90    2.30
   2   4 -16   -1.70    2.20
  -2   4  16    2.00    2.50
   1  -4 -16   -0.80    2.60
  -1  -4  16    0.90    2.20
  -1  -4  16    2.30    2.20
  -1   4  16   -1.10    2.30
  -1   4  16    1.40    2.30
   1   4 -16   -1.30    1.30
   1   4 -16    0.20    2.40
   0  -4 -16   -1.30    1.70
   0  -4 -16    3.60    2.20
   0  -4  16   -0.40    2.20
   0  -4 -16   -3.60    2.20
   0  -4  16    0.70    1.90
   0   4 -16   -1.70    1.70
   0   4 -16   -1.90    2.00
   0   4  16   -1.20    1.80
   0   4  16   -1.30    2.10
  -1  -4 -16    1.70    2.50
  -1  -4 -16    0.80    2.40
   1  -4  16    6.20    2.70
   1  -4  16    0.40    1.90
  -1  -4 -16   -1.80    2.10
   1   4  16   -1.10    2.40
  -1   4 -16   -2.00    2.40
   1   4  16    3.40    2.30
   2  -4  16    1.00    2.30
  -2  -4 -16   -4.00    2.40
  -2  -4 -16    4.70    3.00
   2  -4  16   -0.40    2.00
  -2   4 -16   -2.90    2.20
   2   4  16   -2.30    2.00
  -4  -5  16   -1.40    2.90
  -4  -5  16   -0.60    2.70
  -4   5  16   -2.40    2.10
  -3  -5  16   -1.10    2.60
   3  -5 -16    3.20    2.20
  -3  -5  16   -1.60    2.60
  -3   5  16    1.40    2.70
  -2  -5  16    0.10    2.40
   2  -5 -16   -3.30    2.10
  -2   5  16    7.70    2.90
   1  -5 -16    5.90    2.00
  -1  -5  16    4.50    3.10
  -1  -5  16    6.60    2.80
   1   5 -16   -0.20    2.50
  -1   5  16    4.60    2.60
   1   5 -16    4.90    1.80
   0  -5 -16   -3.20    1.90
   0  -5  16   -1.80    2.00
   0  -5  16   -3.50    2.10
   0   5  16   -1.90    2.10
  -1  -5 -16    0.10    2.60
   1  -5  16    4.60    2.30
   1  -5  16    5.60    2.50
  -1  -5 -16    8.70    2.80
  -1   5 -16    2.70    4.10
   1   5  16    3.70    2.50
  -2  -6  16   -3.20    2.30
  -2   6  16   -0.30    2.40
  -1  -6  16   13.30    3.50
   1  -6 -16   20.00    3.00
   1   6 -16   12.20    2.00
  -1   6  16   19.50    4.50
  -5   0  17   -2.10    2.20
  -5   0  17   -0.10    2.00
  -4   0  17   -0.20    2.10
  -4   0  17   -1.00    2.20
  -3   0  17    0.30    1.90
  -3   0  17   -3.10    1.80
  -3   0  17   -2.30    1.40
   2   0 -17   -0.70    1.30
  -2   0  17   -1.50    1.70
  -2   0  17    0.60    2.10
  -1   0  17   -2.10    1.60
   1   0 -17   -2.20    1.60
  -1   0  17    1.30    1.80
  -1   0  17    0.00    2.20
   0   0 -17    2.90    1.60
   0   0  17    1.50    2.20
   0   0 -17   -1.70    2.30
   0   0  17   -0.60    1.80
   0   0  17   -0.40    1.80
  -1   0 -17   -2.60    2.10
   1   0  17    0.70    2.40
  -1   0 -17    5.40    2.20
   1   0  17    0.50    1.90
  -2   0 -17   -3.20    2.70
   2   0  17    1.80    1.80
  -5  -1  17   14.40    3.50
  -5  -1  17   12.80    3.40
  -5   1  17    7.40    2.70
  -5   1  17   14.30    3.70
  -5   1  17    9.20    2.50
  -4  -1  17   17.60    3.90
  -4  -1  17   12.50    1.90
   4  -1 -17   18.10    5.00
  -4  -1  17   13.90    3.60
  -4   1  17   17.80    3.90
  -4   1  17   17.80    3.60
  -4   1  17   11.20    2.70
   3  -1 -17    1.00    2.40
  -3  -1  17   -0.30    2.20
  -3  -1  17   -1.30    1.60
  -3  -1  17   -1.40    1.30
  -3   1  17    0.10    2.30
  -3   1  17    0.70    2.00
  -3   1  17   -3.30    1.60
  -2  -1  17    5.00    2.80
  -2  -1  17    6.10    2.30
  -2  -1  17    6.50    1.90
  -2   1  17    0.10    2.00
   2   1 -17    5.40    1.50
   2   1 -17    3.90    1.80
  -2   1  17    4.50    2.30
  -2   1  17    5.80    2.30
  -1  -1  17   -3.20    1.50
  -1  -1  17   -2.60    1.30
  -1  -1  17    1.90    2.40
   1  -1 -17    0.10    1.20
   1  -1 -17   -0.70    1.80
   1  -1 -17    1.90    1.70
  -1   1  17    0.60    2.20
  -1   1  17    0.80    1.90
  -1   1  17   -2.40    1.70
   1   1 -17    0.40    1.70
   1   1 -17    2.40    1.80
   0  -1 -17    4.50    2.20
   0  -1  17    5.20    2.70
   0  -1  17   -1.70    1.60
   0  -1  17    1.20    1.70
   0  -1 -17    0.90    2.00
   0   1  17    0.00    2.10
   0   1  17    1.70    2.00
   0   1 -17   -0.30    1.80
   0   1  17   -1.80    1.70
   0   1 -17    6.60    2.00
   1  -1  17    4.00    2.20
   1  -1  17    6.60    2.90
  -1  -1 -17    4.80    2.70
   1  -1  17    6.40    2.70
   1   1  17    3.50    2.50
   1   1  17    4.30    3.60
  -1   1 -17    2.50    2.40
  -2  -1 -17    9.50    3.60
   2  -1  17    6.60    2.30
   2  -1  17   15.70    3.80
  -2  -1 -17   10.00    3.30
  -2   1 -17    7.00    3.20
   2   1  17    6.40    2.10
   5  -2 -17    2.50    2.70
  -5  -2  17    6.70    2.70
  -5  -2  17    1.70    2.90
  -5   2  17    1.10    2.60
  -5   2  17    6.00    2.60
  -5   2  17   -1.10    2.10
   4  -2 -17   -1.50    2.80
  -4  -2  17    4.90    2.80
  -4  -2  17    1.60    2.30
  -4   2  17    2.20    2.40
  -4   2  17    3.50    2.30
  -3  -2  17    6.70    2.70
  -3  -2  17    7.00    2.60
   3  -2 -17    2.10    2.30
  -3  -2  17    3.40    1.40
  -3   2  17    4.80    2.70
   3   2 -17    0.00    1.90
  -3   2  17    2.40    2.20
  -3   2  17    3.00    2.40
  -2  -2  17    0.40    1.50
  -2  -2  17    6.50    2.80
  -2  -2  17    7.10    2.80
  -2   2  17    4.60    2.40
   2   2 -17    4.40    1.50
  -2   2  17   -1.00    1.90
  -2   2  17    5.40    2.50
   2   2 -17    2.60    2.10
  -1  -2  17    1.20    2.20
   1  -2 -17   -1.00    1.70
   1  -2 -17    2.10    1.80
   1  -2 -17    2.20    1.10
  -1  -2  17   -1.30    1.60
  -1  -2  17    0.00    1.50
   1   2 -17    3.70    2.30
  -1   2  17    4.70    2.30
  -1   2  17   -1.80    2.30
  -1   2  17    0.20    1.90
   1   2 -17   -0.90    1.50
   0  -2  17    4.10    2.30
   0  -2 -17    4.00    2.50
   0  -2  17    0.50    1.70
   0  -2 -17    2.50    2.30
   0  -2  17    0.40    1.80
   0   2 -17    3.10    2.10
   0   2  17    1.40    2.00
   0   2 -17    7.90    2.40
  -1  -2 -17   21.30    3.80
  -1  -2 -17   23.10    4.00
   1  -2  17   20.90    3.50
   1  -2  17   22.90    4.00
   1   2  17   13.10    3.00
   2  -2  17   -1.90    1.80
  -2  -2 -17    0.30    2.70
  -2  -2 -17    0.30    2.80
   2  -2  17    2.50    2.50
  -2   2 -17    1.30    2.50
   2   2  17   -1.20    2.00
  -5  -3  17    1.10    2.80
  -5  -3  17   -0.60    2.40
  -5   3  17    6.10    3.20
  -5   3  17    1.10    2.00
  -4  -3  17   12.40    3.70
  -4  -3  17    6.40    3.30
   4  -3 -17    5.40    2.50
  -4   3  17    8.80    3.30
  -4   3  17   14.60    3.40
   4   3 -17    5.30    2.70
  -4   3  17    9.90    3.00
  -3  -3  17    8.30    2.70
   3  -3 -17   12.20    3.10
  -3  -3  17   14.80    3.40
  -3   3  17    8.50    2.90
   3   3 -17   11.70    3.10
  -3   3  17   17.00    3.60
  -3   3  17   15.50    3.50
  -2  -3  17   -1.70    1.80
  -2  -3  17    0.60    2.20
   2   3 -17    0.60    1.10
  -2   3  17    1.10    2.30
  -2   3  17   -2.20    1.90
   1  -3 -17    0.40    1.70
  -1  -3  17   -1.00    2.10
  -1  -3  17   -2.30    1.90
  -1   3  17   -1.80    1.80
   1   3 -17   -1.80    1.90
   1   3 -17   -2.20    1.30
   0  -3  17    0.10    2.00
   0  -3 -17    0.60    2.00
   0  -3 -17   -3.70    2.00
   0  -3  17   -3.40    2.00
   0   3  17    0.30    2.00
   0   3 -17   -3.00    1.80
   1  -3  17   -0.70    1.70
   1  -3  17    0.40    2.10
  -1  -3 -17   -0.60    2.50
  -1  -3 -17   -1.60    2.20
  -1   3 -17    6.10    2.50
  -4  -4  17   -4.70    2.10
  -4  -4  17    0.00    2.60
   4  -4 -17   -0.30    2.10
  -4   4  17    0.40    2.60
  -4   4  17    5.70    2.30
  -3  -4  17   -1.30    2.50
  -3  -4  17   -1.50    2.10
  -3   4  17   -3.70    2.30
  -2  -4  17    3.70    2.80
  -2  -4  17   -1.00    2.20
   2   4 -17   -3.00    2.20
  -2   4  17    1.80    2.60
  -1  -4  17    7.70    3.20
  -1  -4  17    4.10    2.70
  -1   4  17    7.90    2.80
   1   4 -17    5.10    1.80
   0  -4 -17    2.20    2.50
   0  -4  17    1.20    2.10
   0  -4 -17    1.70    2.00
   0  -4  17   -0.90    2.10
   0   4 -17   -0.90    2.10
   0   4 -17    3.80    2.60
  -1  -4 -17    7.40    3.00
   1  -4  17   11.10    3.40
  -1  -4 -17    6.90    3.20
  -1   4 -17    3.00    2.70
   1   4  17    7.70    2.80
  -2  -5  17   -1.60    2.80
  -2  -5  17    2.20    2.30
  -2   5  17   -0.40    2.40
   2   5 -17   -4.00    2.70
  -1  -5  17   10.60    3.20
  -1  -5  17   13.50    3.70
  -1   5  17   14.30    3.50
   1   5 -17   12.00    2.30
   1   5 -17    3.60    3.80
  -5   0  18   10.10    3.00
  -5   0  18    9.30    2.60
  -4   0  18    9.50    3.10
  -4   0  18   14.10    3.60
  -3   0  18    1.50    2.70
  -3   0  18    7.30    2.40
  -3   0  18   -0.10    1.70
   2   0 -18    7.90    2.00
  -2   0  18   11.30    2.80
  -2   0  18    8.00    2.30
  -2   0  18    6.50    2.70
  -1   0  18    1.50    2.00
   1   0 -18    1.20    1.60
   1   0 -18    0.20    2.00
  -1   0  18    0.90    2.00
   0   0  18    1.80    2.60
   0   0  18    3.70    2.30
   0   0 -18    4.30    1.90
   0   0  18   -3.20    1.90
   0   0 -18    1.20    2.10
  -1   0 -18    0.60    2.30
   1   0  18   -1.20    2.20
   1   0  18    0.10    2.00
  -4  -1  18   -1.70    1.10
  -4  -1  18    1.60    2.40
  -4  -1  18    0.00    2.50
  -4   1  18    1.40    2.30
  -4   1  18   -3.10    2.00
  -3  -1  18    0.20    2.20
  -3  -1  18   -0.20    2.20
  -3  -1  18   -4.00    2.20
  -3   1  18    1.50    2.20
  -3   1  18   -2.70    1.90
  -3   1  18   -2.30    1.80
  -2  -1  18    4.10    2.40
  -2  -1  18   -2.40    1.80
  -2   1  18    2.10    2.30
  -2   1  18   -2.50    1.70
  -2   1  18   -0.30    2.00
   1  -1 -18    7.60    2.30
  -1  -1  18    3.60    1.90
   1  -1 -18    9.20    2.40
  -1  -1  18    6.10    2.50
  -1  -1  18   10.50    3.20
   1  -1 -18    5.30    1.70
  -1   1  18   10.20    2.80
   1   1 -18    2.20    1.90
  -1   1  18    1.80    2.80
  -1   1  18    7.20    2.90
   1   1 -18    3.60    1.80
   0  -1  18    4.00    2.50
   0  -1  18    2.80    2.40
   0  -1 -18    6.80    2.50
   0  -1  18    1.60    3.60
   0  -1 -18    3.40    2.20
   0   1  18    0.80    2.60
   0   1 -18    2.20    2.20
   0   1  18    1.90    1.80
   0   1 -18    6.90    2.30
   0   1  18    7.90    3.20
   1  -1  18    8.20    2.70
   1  -1  18   15.50    3.90
   1  -1  18   15.70    4.20
  -1  -1 -18    6.40    2.90
  -1  -1 -18   16.40    4.80
   1   1  18    7.50    2.50
  -4  -2  18    4.20    2.70
  -4  -2  18    7.60    3.00
  -4   2  18    2.40    2.50
  -4   2  18    5.90    2.80
  -3  -2  18    4.10    2.60
  -3  -2  18    2.50    1.40
  -3  -2  18    2.30    2.30
  -3   2  18    7.10    2.90
  -3   2  18   -3.00    2.40
  -3   2  18    5.10    2.80
   3   2 -18   -0.40    1.90
  -2  -2  18   -0.10    2.30
  -2  -2  18    2.10    2.40
  -2  -2  18   -0.50    1.40
   2   2 -18    0.60    2.00
  -2   2  18    1.00    2.40
  -2   2  18    0.50    2.20
  -1  -2  18    1.50    2.40
  -1  -2  18   -0.70    1.50
  -1  -2  18   -1.90    2.10
   1  -2 -18    0.10    1.60
   1  -2 -18    3.30    1.30
  -1   2  18   -2.00    2.30
  -1   2  18   -2.60    2.00
  -1   2  18    0.70    2.20
   1   2 -18   -2.30    1.80
   1   2 -18   -1.50    1.50
   0  -2 -18   11.50    2.90
   0  -2  18   15.20    2.80
   0  -2  18   10.10    2.90
   0  -2 -18   13.10    3.10
   0  -2  18   12.60    3.20
   0   2  18    8.80    2.70
  -1  -2 -18    3.50    2.60
  -1  -2 -18   -2.50    3.70
   1  -2  18   -3.00    2.20
  -1   2 -18   -4.70    2.10
  -1   2 -18    4.50    2.50
   1   2  18    1.20    2.10
  -3  -3  18   -1.00    2.60
  -3  -3  18   -0.70    2.50
  -3   3  18    3.60    2.50
  -3   3  18    1.00    2.50
  -2  -3  18    2.10    2.20
  -2  -3  18   -3.10    2.00
  -2   3  18   -1.80    2.10
   2   3 -18   -4.20    2.00
  -2   3  18    1.50    2.20
  -1  -3  18    6.90    2.80
  -1  -3  18    6.00    2.20
   1   3 -18    3.90    3.00
   1   3 -18    5.30    2.10
  -1   3  18    3.40    2.50
   0  -3 -18   -2.00    2.10
   0  -3 -18    1.00    2.30
   0  -3  18   -3.00    2.30
   0  -3  18    1.20    2.40
   0   3  18    0.40    2.20
   0   3 -18   -0.50    2.10
   0   3 -18    1.90    2.50
  -2  -4  18    1.00    2.70
  -3   0  19    0.10    2.20
  -3   0  19    3.30    2.80
  -2   0  19    0.20    2.10
  -2   0  19   -3.70    1.90
  -1   0  19   -0.70    2.50
  -1   0  19   -2.20    2.10
   1   0 -19   -0.20    1.70
   1   0 -19    1.80    1.80
  -1   0  19   -1.70    2.00
  -3  -1  19   -1.70    2.20
  -3  -1  19   -3.50    1.50
  -3  -1  19    2.30    2.60
  -3   1  19   -0.60    2.30
  -3   1  19    3.80    2.70
  -2  -1  19   -2.00    1.50
  -2  -1  19    0.10    2.10
  -2  -1  19    0.10    2.60
  -2   1  19   -2.20    2.30
  -2   1  19   -3.10    2.00
   1  -1 -19   -0.90    2.00
  -1  -1  19   -0.70    1.60
  -1  -1  19   -1.60    2.70
   1  -1 -19    1.20    1.70
  -1  -1  19   -2.70    2.00
   1   1 -19   -2.30    1.70
  -1   1  19   -5.10    2.20
  -1   1  19   -0.90    2.20
  -1   1  19    1.80    2.30
   1   1 -19   -2.70    3.30
  -2  -2  19   -2.50    3.20
  -2   2  19    1.40    2.20
   0   0   0    0.00    0.00

_computing_structure_solution     'SHELXT 2018/2 (Sheldrick, 2018)'
;
_shelx_hkl_checksum              61353
_olex2_submission_original_sample_id 1
_olex2_submission_special_instructions 'No special instructions were received'
loop_
_space_group_symop_operation_xyz
'x, y, z'
'-x, y+1/2, -z+1/2'
'-x, -y, -z'
'x, -y-1/2, z-1/2'
loop_
_atom_site_label
_atom_site_type_symbol
_atom_site_fract_x
_atom_site_fract_y
_atom_site_fract_z
_atom_site_U_iso_or_equiv
_atom_site_adp_type
_atom_site_occupancy
_atom_site_site_symmetry_order
_atom_site_calc_flag
_atom_site_refinement_flags_posn
_atom_site_refinement_flags_adp
_atom_site_refinement_flags_occupancy
_atom_site_disorder_assembly
_atom_site_disorder_group
F001 F 0.63381(17) 0.53992(15) 0.67761(7) 0.0842(4) Uani 1 1 d . . . . .
F002 F 0.50312(18) 0.26092(14) 0.61404(8) 0.0860(4) Uani 1 1 d . . . . .
C003 C 0.0415(2) 0.5586(2) 0.53013(11) 0.0533(4) Uani 1 1 d . . . . .
N004 N 0.3072(3) 0.0921(3) 0.40213(15) 0.0992(7) Uani 1 1 d . . . . .
C005 C 0.0712(2) 0.7085(2) 0.49819(13) 0.0649(5) Uani 1 1 d . . . . .
C006 C 0.5012(2) 0.3787(2) 0.55777(12) 0.0605(5) Uani 1 1 d . . . . .
C007 C 0.5677(2) 0.5202(2) 0.59006(11) 0.0603(4) Uani 1 1 d . . . . .
C008 C 0.4318(2) 0.3559(2) 0.46679(12) 0.0583(4) Uani 1 1 d . . . . .
C009 C 0.0970(2) 0.5254(2) 0.62325(12) 0.0655(5) Uani 1 1 d . . . . .
C00A C 0.3629(3) 0.2082(2) 0.43177(15) 0.0723(5) Uani 1 1 d . . . . .
C00B C 0.1560(3) 0.8211(3) 0.55967(17) 0.0829(6) Uani 1 1 d . . . . .
H00B H 0.177340 0.921856 0.539501 0.099 Uiso 1 1 calc R U . . .
C00C C -0.0143(3) 0.2623(3) 0.59538(15) 0.0761(6) Uani 1 1 d . . . . .
H00C H -0.033244 0.162507 0.617550 0.091 Uiso 1 1 calc R U . . .
C00D C 0.1806(3) 0.6417(3) 0.68152(14) 0.0845(7) Uani 1 1 d . . . . .
H00D H 0.218403 0.621085 0.743789 0.101 Uiso 1 1 calc R U . . .
C00E C 0.0654(3) 0.3725(3) 0.65279(14) 0.0771(6) Uani 1 1 d . . . . .
H00E H 0.102012 0.348741 0.714706 0.093 Uiso 1 1 calc R U . . .
C00F C 0.2087(3) 0.7857(3) 0.64958(18) 0.0922(8) Uani 1 1 d . . . . .
H00F H 0.265965 0.863344 0.690466 0.111 Uiso 1 1 calc R U . . .
loop_
_atom_site_aniso_label
_atom_site_aniso_U_11
_atom_site_aniso_U_22
_atom_site_aniso_U_33
_atom_site_aniso_U_23
_atom_site_aniso_U_13
_atom_site_aniso_U_12
F001 0.0883(8) 0.1028(10) 0.0547(6) -0.0020(6) 0.0001(5) 0.0108(7)
F002 0.0975(9) 0.0764(8) 0.0841(8) 0.0260(6) 0.0196(7) 0.0090(6)
C003 0.0411(7) 0.0659(10) 0.0553(9) -0.0111(7) 0.0158(6) -0.0007(7)
N004 0.0896(13) 0.0826(13) 0.1243(17) -0.0193(12) 0.0206(12) -0.0146(11)
C005 0.0506(9) 0.0724(12) 0.0756(12) -0.0116(9) 0.0223(8) -0.0006(8)
C006 0.0551(9) 0.0636(11) 0.0631(10) 0.0113(8) 0.0134(8) 0.0105(8)
C007 0.0530(9) 0.0740(12) 0.0515(9) -0.0005(8) 0.0062(7) 0.0102(8)
C008 0.0481(8) 0.0615(10) 0.0649(10) -0.0016(8) 0.0111(7) 0.0055(7)
C009 0.0485(9) 0.0922(14) 0.0569(10) -0.0158(9) 0.0141(7) 0.0001(9)
C00A 0.0599(10) 0.0700(13) 0.0871(14) -0.0060(11) 0.0157(10) -0.0003(9)
C00B 0.0691(12) 0.0733(13) 0.1123(18) -0.0293(12) 0.0328(12) -0.0095(10)
C00C 0.0705(12) 0.0785(13) 0.0832(14) 0.0082(11) 0.0247(10) 0.0024(10)
C00D 0.0681(12) 0.119(2) 0.0662(12) -0.0334(13) 0.0147(9) -0.0088(12)
C00E 0.0687(12) 0.1029(17) 0.0618(11) 0.0107(11) 0.0187(9) 0.0046(11)
C00F 0.0735(13) 0.108(2) 0.0972(17) -0.0523(15) 0.0224(12) -0.0131(13)
loop_
_atom_type_symbol
_atom_type_description
_atom_type_scat_dispersion_real
_atom_type_scat_dispersion_imag
_atom_type_scat_source
C C 0.0033 0.0016 'International Tables Vol C Tables 4.2.6.8 and 6.1.1.4'
H H 0.0000 0.0000 'International Tables Vol C Tables 4.2.6.8 and 6.1.1.4'
F F 0.0171 0.0103 'International Tables Vol C Tables 4.2.6.8 and 6.1.1.4'
N N 0.0061 0.0033 'International Tables Vol C Tables 4.2.6.8 and 6.1.1.4'
loop_
_geom_angle_atom_site_label_1
_geom_angle_atom_site_label_2
_geom_angle_atom_site_label_3
_geom_angle
_geom_angle_site_symmetry_1
_geom_angle_site_symmetry_3
_geom_angle_publ_flag
C003 C003 C005 120.4(2) 3_566 . ?
C003 C003 C009 119.6(2) 3_566 . ?
C005 C003 C009 119.96(16) . . ?
C003 C005 C00C 118.48(17) . 3_566 ?
C00B C005 C003 118.79(19) . . ?
C00B C005 C00C 122.7(2) . 3_566 ?
F002 C006 C007 119.89(16) . . ?
F002 C006 C008 119.38(17) . . ?
C007 C006 C008 120.72(16) . . ?
F001 C007 C006 119.88(17) . . ?
F001 C007 C008 119.01(17) . 3_666 ?
C006 C007 C008 121.11(16) . 3_666 ?
C006 C008 C00A 121.46(17) . . ?
C007 C008 C006 118.17(16) 3_666 . ?
C007 C008 C00A 120.37(17) 3_666 . ?
C003 C009 C00E 118.26(17) . . ?
C00D C009 C003 118.9(2) . . ?
C00D C009 C00E 122.8(2) . . ?
N004 C00A C008 178.5(3) . . ?
C005 C00B H00B 120.0 . . ?
C00F C00B C005 120.1(2) . . ?
C00F C00B H00B 120.0 . . ?
C005 C00C H00C 119.3 3_566 . ?
C00E C00C C005 121.5(2) . 3_566 ?
C00E C00C H00C 119.3 . . ?
C009 C00D H00D 119.8 . . ?
C00F C00D C009 120.4(2) . . ?
C00F C00D H00D 119.8 . . ?
C009 C00E H00E 119.1 . . ?
C00C C00E C009 121.75(19) . . ?
C00C C00E H00E 119.1 . . ?
C00B C00F H00F 119.1 . . ?
C00D C00F C00B 121.9(2) . . ?
C00D C00F H00F 119.1 . . ?
loop_
_geom_bond_atom_site_label_1
_geom_bond_atom_site_label_2
_geom_bond_distance
_geom_bond_site_symmetry_2
_geom_bond_publ_flag
F001 C007 1.333(2) . ?
F002 C006 1.334(2) . ?
C003 C003 1.415(3) 3_566 ?
C003 C005 1.420(3) . ?
C003 C009 1.424(2) . ?
N004 C00A 1.140(3) . ?
C005 C00B 1.400(3) . ?
C005 C00C 1.425(3) 3_566 ?
C006 C007 1.370(3) . ?
C006 C008 1.388(2) . ?
C007 C008 1.382(2) 3_666 ?
C008 C00A 1.434(3) . ?
C009 C00D 1.393(3) . ?
C009 C00E 1.434(3) . ?
C00B H00B 0.9500 . ?
C00B C00F 1.381(4) . ?
C00C H00C 0.9500 . ?
C00C C00E 1.340(3) . ?
C00D H00D 0.9500 . ?
C00D C00F 1.371(4) . ?
C00E H00E 0.9500 . ?
C00F H00F 0.9500 . ?
loop_
_geom_torsion_atom_site_label_1
_geom_torsion_atom_site_label_2
_geom_torsion_atom_site_label_3
_geom_torsion_atom_site_label_4
_geom_torsion
_geom_torsion_site_symmetry_1
_geom_torsion_site_symmetry_2
_geom_torsion_site_symmetry_3
_geom_torsion_site_symmetry_4
_geom_torsion_publ_flag
F002 C006 C007 F001 -0.1(2) . . . . ?
F002 C006 C007 C008 179.70(15) . . . 3_666 ?
F002 C006 C008 C007 -179.70(14) . . . 3_666 ?
F002 C006 C008 C00A -0.3(3) . . . . ?
C003 C003 C005 C00B -179.19(18) 3_566 . . . ?
C003 C003 C005 C00C 0.4(3) 3_566 . . 3_566 ?
C003 C003 C009 C00D 179.26(19) 3_566 . . . ?
C003 C003 C009 C00E -0.2(3) 3_566 . . . ?
C003 C005 C00B C00F -0.2(3) . . . . ?
C003 C009 C00D C00F 0.1(3) . . . . ?
C003 C009 C00E C00C -0.1(3) . . . . ?
C005 C003 C009 C00D -0.2(2) . . . . ?
C005 C003 C009 C00E -179.73(16) . . . . ?
C005 C00B C00F C00D 0.1(3) . . . . ?
C005 C00C C00E C009 0.2(3) 3_566 . . . ?
C007 C006 C008 C007 0.1(3) . . . 3_666 ?
C007 C006 C008 C00A 179.53(16) . . . . ?
C008 C006 C007 F001 -179.98(15) . . . . ?
C008 C006 C007 C008 -0.1(3) . . . 3_666 ?
C009 C003 C005 C00B 0.3(2) . . . . ?
C009 C003 C005 C00C 179.91(15) . . . 3_566 ?
C009 C00D C00F C00B 0.0(3) . . . . ?
C00C C005 C00B C00F -179.80(19) 3_566 . . . ?
C00D C009 C00E C00C -179.60(19) . . . . ?
C00E C009 C00D C00F 179.54(19) . . . . ?
