#------------------------------------------------------------------------------
#$Date: 2021-12-21 01:35:35 +0200 (Tue, 21 Dec 2021) $
#$Revision: 271547 $
#$URL: file:///home/coder/svn-repositories/cod/cif/7/24/40/7244090.cif $
#------------------------------------------------------------------------------
#
# This file is available in the Crystallography Open Database (COD),
# http://www.crystallography.net/
#
# All data on this site have been placed in the public domain by the
# contributors.
#
data_7244090
loop_
_publ_author_name
'Panikkattu, Vinu V.'
'Sinha, Abhijeet Shekhar'
'Aaker\"oy, Christer'
_publ_section_title
;
 A family of powerful halogen-bond donors: A structural and theoretical
 analysis of triply activated 3-iodo-1-phenylprop-2-yn-1-ones
;
_journal_name_full               CrystEngComm
_journal_paper_doi               10.1039/D1CE01583D
_journal_year                    2022
_chemical_formula_moiety         'C9 H4 I N O3'
_chemical_formula_sum            'C9 H4 I N O3'
_chemical_formula_weight         301.03
_chemical_name_systematic        3-iodo-1-(3-nitrophenyl)prop-2-yn-1-one
_space_group_crystal_system      triclinic
_space_group_IT_number           2
_space_group_name_Hall           '-P 1'
_space_group_name_H-M_alt        'P -1'
_atom_sites_solution_hydrogens   geom
_atom_sites_solution_primary     dual
_audit_creation_date             2021-03-15
_audit_creation_method
;
Olex2 1.3-ac4
(compiled 2020.11.27 svn.r5f609507 for Rigaku Oxford Diffraction, GUI svn.r6214)
;
_audit_update_record
;
2021-09-15 deposited with the CCDC.	2021-12-20 downloaded from the CCDC.
;
_cell_angle_alpha                82.581(7)
_cell_angle_beta                 74.932(9)
_cell_angle_gamma                77.837(9)
_cell_formula_units_Z            4
_cell_length_a                   6.8676(9)
_cell_length_b                   11.0423(10)
_cell_length_c                   13.0715(11)
_cell_measurement_reflns_used    3223
_cell_measurement_temperature    100.00(10)
_cell_measurement_theta_max      30.5320
_cell_measurement_theta_min      2.5640
_cell_volume                     932.79(17)
_computing_cell_refinement       'CrysAlisPro 1.171.41.85a (Rigaku OD, 2020)'
_computing_data_collection       'CrysAlisPro 1.171.41.85a (Rigaku OD, 2020)'
_computing_data_reduction        'CrysAlisPro 1.171.41.85a (Rigaku OD, 2020)'
_computing_molecular_graphics    'Olex2 1.3-ac4 (Dolomanov et al., 2009)'
_computing_publication_material  'Olex2 1.3-ac4 (Dolomanov et al., 2009)'
_computing_structure_refinement  'ShelXL (Sheldrick, 2015)'
_computing_structure_solution    'ShelXT (Sheldrick, 2015)'
_diffrn_ambient_environment      N~2~
_diffrn_ambient_temperature      100.15
_diffrn_detector                 'Hybrid Pixel Array Detector'
_diffrn_detector_area_resol_mean 10.0000
_diffrn_detector_type            HyPix
_diffrn_measured_fraction_theta_full 0.995
_diffrn_measured_fraction_theta_max 0.995
_diffrn_measurement_details
;
List of Runs (angles in degrees, time in seconds):

  # Type    Start    End  Width  t~exp~   \w     \q     \k     \f   Frames
#--------------------------------------------------------------------------
  1  \w    -52.00   3.00   0.50    5.10    --   12.33  -9.00 115.00  110
  2  \w     -6.00  85.00   0.50    5.10    --   12.33   9.00 -70.00  182
  3  \w     33.00  60.00   0.50    5.10    --  -12.49  57.00-120.00   54
  4  \w     16.00  53.00   0.50    5.10    --  -12.49   9.00 -70.00   74
  5  \w    -24.00  11.00   0.50    5.10    --  -12.49  57.00-120.00   70
  6  \w    -74.00   3.00   0.50    5.10    --  -12.49 -57.00 -60.00  154
  7  \w    -73.00  -3.00   0.50    5.10    --  -12.49 -57.00-180.00  140
  8  \w    -82.00   0.00   0.50    5.10    --  -12.49 -77.00  90.00  164
;
_diffrn_measurement_device       'four-circle diffractometer'
_diffrn_measurement_device_type  'XtaLAB Synergy, Dualflex, HyPix'
_diffrn_measurement_method       '\w scans'
_diffrn_orient_matrix_type
'CrysAlisPro convention (1999,Acta A55,543-557)'
_diffrn_orient_matrix_UB_11      0.0252730000
_diffrn_orient_matrix_UB_12      0.0386931000
_diffrn_orient_matrix_UB_13      -0.0473683000
_diffrn_orient_matrix_UB_21      0.1025272000
_diffrn_orient_matrix_UB_22      -0.0089550000
_diffrn_orient_matrix_UB_23      0.0050573000
_diffrn_orient_matrix_UB_31      0.0263615000
_diffrn_orient_matrix_UB_32      -0.0526060000
_diffrn_orient_matrix_UB_33      -0.0301379000
_diffrn_radiation_monochromator  mirror
_diffrn_radiation_probe          x-ray
_diffrn_radiation_type           MoK\a
_diffrn_radiation_wavelength     0.71073
_diffrn_reflns_av_R_equivalents  0.0415
_diffrn_reflns_av_unetI/netI     0.0437
_diffrn_reflns_Laue_measured_fraction_full 0.995
_diffrn_reflns_Laue_measured_fraction_max 0.995
_diffrn_reflns_limit_h_max       8
_diffrn_reflns_limit_h_min       -8
_diffrn_reflns_limit_k_max       13
_diffrn_reflns_limit_k_min       -13
_diffrn_reflns_limit_l_max       16
_diffrn_reflns_limit_l_min       -15
_diffrn_reflns_number            10762
_diffrn_reflns_point_group_measured_fraction_full 0.995
_diffrn_reflns_point_group_measured_fraction_max 0.995
_diffrn_reflns_theta_full        25.242
_diffrn_reflns_theta_max         26.369
_diffrn_reflns_theta_min         2.586
_diffrn_source                   'micro-focus sealed X-ray tube'
_diffrn_source_type              'PhotonJet (Mo) X-ray Source'
_exptl_absorpt_coefficient_mu    3.410
_exptl_absorpt_correction_T_max  1.000
_exptl_absorpt_correction_T_min  0.647
_exptl_absorpt_correction_type   gaussian
_exptl_absorpt_process_details
;
CrysAlisPro 1.171.41.85a (Rigaku Oxford Diffraction, 2020)
Numerical absorption correction based on gaussian integration over
a multifaceted crystal model
Empirical absorption correction using spherical harmonics,
implemented in SCALE3 ABSPACK scaling algorithm.
;
_exptl_crystal_colour            'clear pale colourless'
_exptl_crystal_density_diffrn    2.144
_exptl_crystal_description       block
_exptl_crystal_F_000             568
_exptl_crystal_recrystallization_method
'Re-crystallisation from solvent: Tetrahydrofuran'
_exptl_crystal_size_max          0.12
_exptl_crystal_size_mid          0.11
_exptl_crystal_size_min          0.09
_refine_diff_density_max         1.485
_refine_diff_density_min         -1.378
_refine_diff_density_rms         0.157
_refine_ls_extinction_method     none
_refine_ls_goodness_of_fit_ref   1.152
_refine_ls_hydrogen_treatment    constr
_refine_ls_matrix_type           full
_refine_ls_number_parameters     489
_refine_ls_number_reflns         3815
_refine_ls_number_restraints     478
_refine_ls_restrained_S_all      1.106
_refine_ls_R_factor_all          0.0614
_refine_ls_R_factor_gt           0.0539
_refine_ls_shift/su_max          0.000
_refine_ls_shift/su_mean         0.000
_refine_ls_structure_factor_coef Fsqd
_refine_ls_weighting_details
'w=1/[\s^2^(Fo^2^)+(0.0267P)^2^+9.4850P] where P=(Fo^2^+2Fc^2^)/3'
_refine_ls_weighting_scheme      calc
_refine_ls_wR_factor_gt          0.1161
_refine_ls_wR_factor_ref         0.1193
_reflns_Friedel_coverage         0.000
_reflns_number_gt                3414
_reflns_number_total             3815
_reflns_threshold_expression     'I > 2\s(I)'
_iucr_refine_instructions_details
;
    er_proc.res created by SHELXL-2014/7

TITL er_proc_a.res in P-1
REM Old TITL er_proc_a.res in P-1
REM SHELXT solution in P-1
REM R1 0.170, Rweak 0.009, Alpha 0.041, Orientation as input
REM Formula found by SHELXT: C20 I2D N2 O3B
CELL 0.71073 6.8676 11.0423 13.0715 82.581 74.932 77.837
ZERR 4 0.0009 0.001 0.0011 0.007 0.009 0.009
LATT 1
SFAC C H I N O
UNIT 36 16 4 4 12
SADI I2A C10A I2B C10B
SADI O4A C12A O4B C12B
SADI O5A N2A O5B N2B
SADI N2A O6A N2B O6B
SADI N2A C15A N2B C15B
SADI C14A C13 C14B C13
SADI C14A C15A C14B C15B
SADI C13 C12A C13 C12B
SADI C13 C18A C13 C18B
SADI C11A C10A C11B C10B
SADI C11A C12A C11B C12B
SADI C15A C16A C15B C16B
SADI C18A C17A C18B C17B
SADI C17A C16A C17B C16B
SADI 0.04 I2A C11A I2B C11B
SADI 0.04 O4A C13 O4B C13
SADI 0.04 O4A C11A O4B C11B
SADI 0.04 O5A O6A O5B O6B
SADI 0.04 O5A C15A O5B C15B
SADI 0.04 N2A C14A N2B C14B
SADI 0.04 N2A C16A N2B C16B
SADI 0.04 C14A C16A C14B C16B
SADI 0.04 C13 C11A C13 C11B
SADI 0.04 C13 C15A C13 C15B
SADI 0.04 C13 C17A C13 C17B
SADI 0.04 O6A C15A O6B C15B
SADI 0.04 C15A C17A C15B C17B
SADI 0.04 C10A C12A C10B C12B
SADI 0.04 C18A C16A C18B C16B
SADI I1A C1A I1C C1B
SADI O1A C3A O1B C3B
SADI O2A N1A O2B N1B
SADI O3A N1A O3B N1B
SADI C6A C5A C6B C5B
SADI C6A N1A C6B N1B
SADI C6A C7A C6B C7B
SADI C5A C4 C5B C4
SADI C4 C3A C4 C3B
SADI C4 C9A C4 C9B
SADI C3A C2A C3B C2B
SADI C1A C2A C1B C2B
SADI C9A C8A C9B C8B
SADI C7A C8A C7B C8B
SADI 0.04 I1A C2A I1C C2B
SADI 0.04 O1A C4 O1B C4
SADI 0.04 O1A C2A O1B C2B
SADI 0.04 O2A O3A O2B O3B
SADI 0.04 O2A C6A O2B C6B
SADI 0.04 O3A C6A O3B C6B
SADI 0.04 C6A C4 C6B C4
SADI 0.04 C6A C8A C6B C8B
SADI 0.04 C5A N1A C5B N1B
SADI 0.04 C5A C7A C5B C7B
SADI 0.04 N1A C7A N1B C7B
SADI 0.04 C4 C2A C4 C2B
SADI 0.04 C4 C8A C4 C8B
SADI 0.04 C3A C1A C3B C1B
SADI 0.04 C9A C7A C9B C7B
SADI 0.002 I1A C1A I1C C1B I1B C1A I1D C1B
SADI 0.1 I2A C10A I2C C10B I2B C10A I2D C10B
SIMU 0.001 0.002 2 I2A I2B
SIMU 0.001 0.002 2 C10A C10B
SIMU 0.001 0.002 2 C18A C18B
SIMU 0.001 0.002 2 C12A C12B
SIMU 0.001 0.002 2 N2A N2B
SIMU 0.001 0.002 2 O5A O5B
SIMU 0.001 0.002 2 O6B O6A
SIMU 0.001 0.002 2 C11B C18B
SIMU 0.001 0.002 2 C12A C14B
SIMU 0.001 0.002 2 C15B C15A
SIMU 0.001 0.002 2 C10A C18B
SIMU 0.001 0.002 2 C1A C1B
SIMU 0.001 0.002 2 I2B I2C
SIMU 0.001 0.002 2 I1A I1C
SIMU 0.001 0.002 2 C6B C6A
SIMU 0.001 0.002 2 C2B C1B
SIMU 0.001 0.002 2 O4A O4B
SIMU 0.001 0.002 2 C11A C11B
RIGU 0.001 0.001 I2A O4A O5A N2A C14A O6A C11A C15A C10A C12A C18A C17A C16A
RIGU 0.001 0.001 I2B C10B C11B C12B O4B C14B C18B C17B C15B C16B N2B O5B O6B
RIGU 0.001 0.001 C5B I1A C1A C2A C3A O1A C4 C5A C9A C3B C9B C6A C8A C2B O1B =
 C6B C8B N1A C7A C1B N1B C7B O2A O3A I1C O2B O3B
EADP C12A C14B
EADP C11A C13
EADP I1C I1B
EADP I1A I1C
EADP I1B I1D
EADP I2B I2D
 
L.S. 10
PLAN  40
SIZE 0.09 0.11 0.12
TEMP -173
FREE I2A I2B
BIND C10B I2D
BIND I1D C1B
BIND I1B C1A
FREE I1B C1B
BOND $H
list 4
fmap 2
acta
SHEL 999 0.8
OMIT -4 6 12
OMIT -5 4 11
OMIT -3 7 12
OMIT 1 3 1
OMIT -3 6 11
REM <olex2.extras>
REM <HklSrc "%.\\ER_proc.hkl">
REM </olex2.extras>
 
WGHT    0.026700    9.485000
FVAR       0.23639   0.66470   0.81251
PART 4
I1A   3   -0.119783    0.138709    1.388473    10.75000    0.02727    0.00937 =
         0.01785   -0.00069   -0.00564   -0.00083
 
PART 0
PART 1
I2A   3    0.385563    0.687492    0.871216    10.75000    0.02431    0.02010 =
         0.01479   -0.00248   -0.00437   -0.00144
 
PART 0
PART 4
O1A   5    0.194879   -0.103958    1.037769    31.00000    0.02479    0.01389 =
         0.02168   -0.00004   -0.00541   -0.00582
PART 0
PART 3
O2A   5    0.543837   -0.019747    0.664707    31.00000    0.03439    0.02431 =
         0.02269   -0.00303   -0.00107   -0.01248
 
PART 0
PART 1
O4A   5    0.683648    0.397382    0.541970    21.00000    0.02839    0.01797 =
         0.02266    0.00030   -0.00347   -0.00459
 
PART 0
PART 3
O3A   5    0.685849    0.143389    0.620704    31.00000    0.03612    0.02937 =
         0.02499    0.00080   -0.00076   -0.01524
 
PART 0
PART 1
O5A   5    1.046932    0.415989    0.181785    21.00000    0.04081    0.02071 =
         0.02583    0.00237   -0.00366   -0.00705
N2A   4    1.075182    0.520315    0.180765    21.00000    0.02320    0.01675 =
         0.02356    0.00485   -0.00711    0.00090
 
PART 0
PART 3
C6A   1    0.466562    0.129411    0.787712    31.00000    0.01685    0.01525 =
         0.01923    0.00246   -0.00806   -0.00360
C5A   1    0.374278    0.048549    0.866841    31.00000    0.01978    0.01539 =
         0.01925    0.00191   -0.00716   -0.00440
AFIX  43
H5A   2    0.376601   -0.034536    0.853980    31.00000   -1.20000
AFIX   0
N1A   4    0.573143    0.080931    0.683704    31.00000    0.02124    0.01935 =
         0.01949    0.00102   -0.00642   -0.00501
 
PART 0
PART 1
C14A  1    0.880179    0.526228    0.367937    21.00000    0.01229    0.01704 =
         0.02295    0.00558   -0.01072   -0.00098
AFIX  43
H14A  2    0.878129    0.440444    0.368127    21.00000   -1.20000
AFIX   0
PART 0
C13   1    0.783766    0.588403    0.459542    11.00000    0.02255    0.01892 =
         0.02234    0.00044   -0.00772   -0.00086
 
C4    1    0.278842    0.093373    0.965074    11.00000    0.01597    0.01493 =
         0.01921    0.00216   -0.00811   -0.00332
PART 4
C3A   1    0.186164    0.003945    1.052044    31.00000    0.01162    0.01254 =
         0.01821    0.00191   -0.00928   -0.00206
C1A   1    0.014723    0.088554    1.242973    31.00000    0.02715    0.01290 =
         0.01871    0.00053   -0.00498   -0.00587
PART 0
PART 3
C9A   1    0.270245    0.215999    0.982862    31.00000    0.01947    0.01587 =
         0.01975    0.00165   -0.00742   -0.00415
AFIX  43
H9A   2    0.201869    0.246181    1.050260    31.00000   -1.20000
AFIX   0
 
PART 0
PART 1
O6A   5    1.183398    0.578257    0.105154    21.00000    0.05310    0.02411 =
         0.03350    0.00047    0.00929   -0.01109
 
PART 0
PART 4
C2A   1    0.098385    0.050758    1.155638    31.00000    0.02410    0.01065 =
         0.01849    0.00192   -0.00572   -0.00571
 
PART 0
PART 1
C11A  1    0.598885    0.560368    0.651252    21.00000    0.02255    0.01892 =
         0.02234    0.00044   -0.00772   -0.00086
C15A  1    0.978511    0.588648    0.277048    21.00000    0.01447    0.01671 =
         0.02378    0.00499   -0.00865    0.00048
C10A  1    0.518455    0.619310    0.728310    21.00000    0.02995    0.01891 =
         0.02081    0.00080   -0.00644   -0.00013
C12A  1    0.683726    0.504373    0.550367    21.00000    0.01594    0.01661 =
         0.02141    0.00221   -0.00902   -0.00052
 
PART 0
PART 3
C7A   1    0.465001    0.250792    0.802590    31.00000    0.01912    0.01535 =
         0.01922    0.00244   -0.00756   -0.00448
AFIX  43
H7A   2    0.531736    0.303493    0.747307    31.00000   -1.20000
AFIX   0
C8A   1    0.362273    0.293470    0.901407    31.00000    0.02319    0.01498 =
         0.02009    0.00082   -0.00622   -0.00563
AFIX  43
H8A   2    0.355214    0.377578    0.913157    31.00000   -1.20000
AFIX   0
 
PART 0
PART 1
C18A  1    0.797396    0.712021    0.456532    21.00000    0.01509    0.02013 =
         0.02597    0.00021   -0.00190   -0.00696
AFIX  43
H18A  2    0.735797    0.755656    0.518426    21.00000   -1.20000
AFIX   0
C17A  1    0.899585    0.774797    0.364690    21.00000    0.01270    0.02011 =
         0.02764    0.00062   -0.00082   -0.00474
AFIX  43
H17A  2    0.905612    0.859820    0.365520    21.00000   -1.20000
AFIX   0
C16A  1    0.991266    0.715074    0.273378    21.00000    0.00956    0.01600 =
         0.02446    0.00416   -0.00439    0.00130
AFIX  43
H16A  2    1.060047    0.757070    0.210693    21.00000   -1.20000
AFIX   0
I2B   3    0.354224    0.637899    0.897463    10.14000    0.02663    0.01529 =
         0.01775   -0.00376   -0.00089    0.00109
PART 0
PART 2
C10B  1    0.505526    0.596079    0.745420   -21.00000    0.02995    0.01916 =
         0.02146    0.00088   -0.00648   -0.00003
C11B  1    0.580365    0.584792    0.650915   -21.00000    0.02270    0.01894 =
         0.02229    0.00050   -0.00756   -0.00068
C12B  1    0.683585    0.514200    0.558097   -21.00000    0.01594    0.01681 =
         0.02136    0.00208   -0.00907   -0.00035
O4B   5    0.671874    0.407060    0.557713   -21.00000    0.02835    0.01832 =
         0.02244    0.00051   -0.00345   -0.00459
C14B  1    0.866961    0.539190    0.361759   -21.00000    0.01594    0.01661 =
         0.02141    0.00221   -0.00902   -0.00052
AFIX  43
H14B  2    0.857891    0.458066    0.348893   -21.00000   -1.20000
AFIX   0
C18B  1    0.766040    0.709077    0.482620   -21.00000    0.01516    0.01996 =
         0.02617    0.00027   -0.00208   -0.00693
AFIX  43
H18B  2    0.693365    0.737701    0.550043   -21.00000   -1.20000
AFIX   0
C17B  1    0.861215    0.786162    0.401007   -21.00000    0.01609    0.01960 =
         0.02801    0.00072   -0.00098   -0.00630
AFIX  43
H17B  2    0.856908    0.869967    0.412592   -21.00000   -1.20000
AFIX   0
C15B  1    0.965417    0.620203    0.283920   -21.00000    0.01458    0.01686 =
         0.02379    0.00478   -0.00889    0.00068
C16B  1    0.962600    0.742155    0.302666   -21.00000    0.02980    0.01954 =
         0.02858    0.00073    0.00232   -0.00654
AFIX  43
H16B  2    1.030186    0.795186    0.248035   -21.00000   -1.20000
AFIX   0
N2B   4    1.072872    0.564501    0.182544   -21.00000    0.02360    0.01657 =
         0.02344    0.00518   -0.00692    0.00119
O5B   5    1.042806    0.465636    0.165731   -21.00000    0.04045    0.02052 =
         0.02505    0.00344   -0.00407   -0.00695
O6B   5    1.190907    0.630327    0.122355   -21.00000    0.05087    0.02539 =
         0.03436   -0.00198    0.00852   -0.01367
 
PART 0
PART 3
I1C   3   -0.113146    0.175387    1.379473    10.22000    0.02727    0.00937 =
         0.01785   -0.00069   -0.00564   -0.00083
C1B   1    0.030547    0.128570    1.234045   -31.00000    0.02720    0.01296 =
         0.01878    0.00033   -0.00487   -0.00579
C2B   1    0.083996    0.076382    1.152715   -31.00000    0.02717    0.01309 =
         0.01887    0.00039   -0.00484   -0.00582
C3B   1    0.198277    0.010060    1.060708   -31.00000    0.03046    0.01408 =
         0.01932    0.00028   -0.00406   -0.00595
O1B   5    0.171611   -0.093770    1.054494   -31.00000    0.04013    0.01625 =
         0.02069   -0.00167    0.00049   -0.01071
PART 0
PART 4
C5B   1    0.371157    0.032814    0.872790   -31.00000    0.03177    0.01624 =
         0.02087    0.00071   -0.00308   -0.00747
AFIX  43
H5B   2    0.368225   -0.052964    0.873775   -31.00000   -1.20000
AFIX   0
C9B   1    0.288363    0.219341    0.958494   -31.00000    0.03247    0.01634 =
         0.02095    0.00072   -0.00245   -0.00805
AFIX  43
H9B   2    0.224604    0.265290    1.018889   -31.00000   -1.20000
AFIX   0
C6B   1    0.467395    0.093072    0.779322   -31.00000    0.01690    0.01543 =
         0.01943    0.00243   -0.00802   -0.00345
C8B   1    0.388090    0.278659    0.866436   -31.00000    0.04133    0.01754 =
         0.02211   -0.00004    0.00063   -0.01070
AFIX  43
H8B   2    0.392300    0.364273    0.865312   -31.00000   -1.20000
AFIX   0
N1B   4    0.561296    0.023233    0.682864   -31.00000    0.03460    0.01923 =
         0.02236   -0.00086   -0.00223   -0.00900
C7B   1    0.482548    0.216613    0.775314   -31.00000    0.01232    0.01504 =
         0.01823    0.00299   -0.00965   -0.00200
AFIX  43
H7B   2    0.554550    0.257355    0.712853   -31.00000   -1.20000
AFIX   0
O2B   5    0.546710   -0.089505    0.689085   -31.00000    0.03861    0.01990 =
         0.02705   -0.00196   -0.00022   -0.01042
O3B   5    0.657290    0.077777    0.603595   -31.00000    0.07719    0.02490 =
         0.02855   -0.00671    0.01369   -0.02448
 
PART 0
PART 2
I2C   3    0.393652    0.643724    0.861010    10.10000    0.02223    0.01103 =
         0.02097   -0.00545    0.00224    0.00167
 
PART 0
PART 65
I1B   3   -0.067978    0.200960    1.359388    10.02000    0.02727    0.00937 =
         0.01785   -0.00069   -0.00564   -0.00083
PART 0
PART 7
I1D   3   -0.107026    0.249715    1.341598    10.01000    0.02727    0.00937 =
         0.01785   -0.00069   -0.00564   -0.00083
 
PART 0
PART 5
I2D   3    0.378212    0.571746    0.905728    10.01000    0.02663    0.01529 =
         0.01775   -0.00376   -0.00089    0.00109
HKLF 4
 
REM  er_proc_a.res in P-1
REM R1 =  0.0539 for    3414 Fo > 4sig(Fo)  and  0.0614 for all    3815 data
REM    489 parameters refined using    478 restraints
 
END  
     
WGHT      0.0275      9.1592 

REM Highest difference peak  1.485,  deepest hole -1.378,  1-sigma level  0.157
Q1    1  -0.0666  0.1654  1.3255  11.00000  0.05    1.49
Q2    1  -0.0990  0.2170  1.4011  11.00000  0.05    1.17
Q3    1  -0.0980  0.2639  1.3606  11.00000  0.05    1.16
Q4    1   0.5058  0.6629  0.8809  11.00000  0.05    0.89
Q5    1   0.6204  0.6531  0.6306  11.00000  0.05    0.84
Q6    1   0.3931  0.6412  0.8363  11.00000  0.05    0.84
Q7    1   0.7058  0.0958  0.5377  11.00000  0.05    0.80
Q8    1   0.6807  0.5847  0.5587  11.00000  0.05    0.79
Q9    1   0.8706  0.9558  0.3606  11.00000  0.05    0.78
Q10   1   0.3072  0.5824  0.8888  11.00000  0.05    0.75
Q11   1  -0.1022  0.0851  1.3405  11.00000  0.05    0.72
Q12   1   0.0430  0.1195  1.3864  11.00000  0.05    0.72
Q13   1   0.3414  0.6064  0.9655  11.00000  0.05    0.69
Q14   1   0.8259  0.5588  0.4176  11.00000  0.05    0.66
Q15   1  -0.2437  0.1676  1.3832  11.00000  0.05    0.65
Q16   1   0.2938  0.2679  0.9602  11.00000  0.05    0.64
Q17   1  -0.1867  0.0210  1.4032  11.00000  0.05    0.63
Q18   1   0.9239  0.3437  0.3813  11.00000  0.05    0.63
Q19   1  -0.2303  0.1126  1.4772  11.00000  0.05    0.63
Q20   1   0.3750  0.7243  0.8787  11.00000  0.05    0.62
Q21   1   1.2108  0.6140  0.0157  11.00000  0.05    0.60
Q22   1   0.4348  0.6025  0.9422  11.00000  0.05    0.60
Q23   1   0.2979  0.6613  0.9246  11.00000  0.05    0.60
Q24   1   0.1533  0.1377  1.1423  11.00000  0.05    0.57
Q25   1   1.1328  0.6842  0.1387  11.00000  0.05    0.55
Q26   1   1.1400  0.5465  0.0866  11.00000  0.05    0.55
Q27   1   0.6313 -0.0004  0.6048  11.00000  0.05    0.53
Q28   1  -0.2693  0.2785  1.3806  11.00000  0.05    0.53
Q29   1   0.4027  0.5170  0.8503  11.00000  0.05    0.52
Q30   1   0.8148  0.7871  0.4486  11.00000  0.05    0.51
Q31   1   0.6303  0.4826  0.5913  11.00000  0.05    0.49
Q32   1   0.8616  0.5999  0.3621  11.00000  0.05    0.49
Q33   1   0.1874  0.0747  1.0729  11.00000  0.05    0.49
Q34   1   0.4951  0.5453  0.8974  11.00000  0.05    0.48
Q35   1  -0.1706  0.2690  1.4618  11.00000  0.05    0.47
Q36   1   0.8333  0.8778  0.3749  11.00000  0.05    0.46
Q37   1   0.2112  0.7242  0.8790  11.00000  0.05    0.45
Q38   1   0.3891 -0.1770  0.6454  11.00000  0.05    0.45
Q39   1   0.5516  0.7550  0.6768  11.00000  0.05    0.45
Q40   1   0.6340 -0.1228  0.6448  11.00000  0.05    0.44

  REM The information below was added by Olex2.
  REM
  REM R1 = 0.0539 for 3414 Fo > 4sig(Fo) and 0.0614 for all 13809 data
  REM n/a parameters refined using n/a restraints
  REM Highest difference peak 1.49, deepest hole -1.38
  REM Mean Shift 0, Max Shift 0.000.

  REM +++ Tabular Listing of Refinement Information +++
  REM R1_all = 0.0614
  REM R1_gt = 0.0539
  REM wR_ref = 0.1193
  REM GOOF = 1.152
  REM Shift_max = 0.000
  REM Shift_mean = 0
  REM Reflections_all = 13809
  REM Reflections_gt = 3414
  REM Parameters = n/a
  REM Hole = -1.38
  REM Peak = 1.49
  REM Flack = n/a
;
_cod_data_source_file            d1ce01583d2.cif
_cod_data_source_block           er_proc
_cod_original_cell_volume        932.79(18)
_cod_database_code               7244090
_shelx_shelxl_version_number     2014/7
_chemical_oxdiff_formula         'C7 H3 I N3 O3'
_shelx_space_group_comment
;
The symmetry employed for this shelxl refinement is uniquely defined
by the following loop, which should always be used as a source of
symmetry information in preference to the above space-group names.
They are only intended as comments.
;
_shelx_estimated_absorpt_t_max   0.749
_shelx_estimated_absorpt_t_min   0.685
_reflns_odcompleteness_completeness 99.25
_reflns_odcompleteness_iscentric 1
_reflns_odcompleteness_theta     29.97
_olex2_refinement_description
;
1. Fixed Uiso
 At 1.2 times of:
  All C(H) groups
2. Restrained distances
 I2A-C10A \\sim I2B-C10B
 with sigma of 0.02
 O4A-C12A \\sim O4B-C12B
 with sigma of 0.02
 O5A-N2A \\sim O5B-N2B
 with sigma of 0.02
 N2A-O6A \\sim N2B-O6B
 with sigma of 0.02
 N2A-C15A \\sim N2B-C15B
 with sigma of 0.02
 C14A-C13 \\sim C14B-C13
 with sigma of 0.02
 C14A-C15A \\sim C14B-C15B
 with sigma of 0.02
 C13-C12A \\sim C13-C12B
 with sigma of 0.02
 C13-C18A \\sim C13-C18B
 with sigma of 0.02
 C11A-C10A \\sim C11B-C10B
 with sigma of 0.02
 C11A-C12A \\sim C11B-C12B
 with sigma of 0.02
 C15A-C16A \\sim C15B-C16B
 with sigma of 0.02
 C18A-C17A \\sim C18B-C17B
 with sigma of 0.02
 C17A-C16A \\sim C17B-C16B
 with sigma of 0.02
 I2A-C11A \\sim I2B-C11B
 with sigma of 0.04
 O4A-C13 \\sim O4B-C13
 with sigma of 0.04
 O4A-C11A \\sim O4B-C11B
 with sigma of 0.04
 O5A-O6A \\sim O5B-O6B
 with sigma of 0.04
 O5A-C15A \\sim O5B-C15B
 with sigma of 0.04
 N2A-C14A \\sim N2B-C14B
 with sigma of 0.04
 N2A-C16A \\sim N2B-C16B
 with sigma of 0.04
 C14A-C16A \\sim C14B-C16B
 with sigma of 0.04
 C13-C11A \\sim C13-C11B
 with sigma of 0.04
 C13-C15A \\sim C13-C15B
 with sigma of 0.04
 C13-C17A \\sim C13-C17B
 with sigma of 0.04
 O6A-C15A \\sim O6B-C15B
 with sigma of 0.04
 C15A-C17A \\sim C15B-C17B
 with sigma of 0.04
 C10A-C12A \\sim C10B-C12B
 with sigma of 0.04
 C18A-C16A \\sim C18B-C16B
 with sigma of 0.04
 I1A-C1A \\sim I1C-C1B
 with sigma of 0.02
 O1A-C3A \\sim O1B-C3B
 with sigma of 0.02
 O2A-N1A \\sim O2B-N1B
 with sigma of 0.02
 O3A-N1A \\sim O3B-N1B
 with sigma of 0.02
 C6A-C5A \\sim C6B-C5B
 with sigma of 0.02
 C6A-N1A \\sim C6B-N1B
 with sigma of 0.02
 C6A-C7A \\sim C6B-C7B
 with sigma of 0.02
 C5A-C4 \\sim C5B-C4
 with sigma of 0.02
 C4-C3A \\sim C4-C3B
 with sigma of 0.02
 C4-C9A \\sim C4-C9B
 with sigma of 0.02
 C3A-C2A \\sim C3B-C2B
 with sigma of 0.02
 C1A-C2A \\sim C1B-C2B
 with sigma of 0.02
 C9A-C8A \\sim C9B-C8B
 with sigma of 0.02
 C7A-C8A \\sim C7B-C8B
 with sigma of 0.02
 I1A-C2A \\sim I1C-C2B
 with sigma of 0.04
 O1A-C4 \\sim O1B-C4
 with sigma of 0.04
 O1A-C2A \\sim O1B-C2B
 with sigma of 0.04
 O2A-O3A \\sim O2B-O3B
 with sigma of 0.04
 O2A-C6A \\sim O2B-C6B
 with sigma of 0.04
 O3A-C6A \\sim O3B-C6B
 with sigma of 0.04
 C6A-C4 \\sim C6B-C4
 with sigma of 0.04
 C6A-C8A \\sim C6B-C8B
 with sigma of 0.04
 C5A-N1A \\sim C5B-N1B
 with sigma of 0.04
 C5A-C7A \\sim C5B-C7B
 with sigma of 0.04
 N1A-C7A \\sim N1B-C7B
 with sigma of 0.04
 C4-C2A \\sim C4-C2B
 with sigma of 0.04
 C4-C8A \\sim C4-C8B
 with sigma of 0.04
 C3A-C1A \\sim C3B-C1B
 with sigma of 0.04
 C9A-C7A \\sim C9B-C7B
 with sigma of 0.04
 I1A-C1A \\sim I1C-C1B \\sim I1B-C1A \\sim I1D-C1B
 with sigma of 0.002
 I2A-C10A \\sim I2C-C10B \\sim I2B-C10A \\sim I2D-C10B
 with sigma of 0.1
3. Uiso/Uaniso restraints and constraints
I2A \\sim I2B: within 2A with sigma of 0.001 and sigma for terminal atoms of
0.002 within 2A
C10A \\sim C10B: within 2A with sigma of 0.001 and sigma for terminal atoms of
0.002 within 2A
C18A \\sim C18B: within 2A with sigma of 0.001 and sigma for terminal atoms of
0.002 within 2A
C12A \\sim C12B: within 2A with sigma of 0.001 and sigma for terminal atoms of
0.002 within 2A
N2A \\sim N2B: within 2A with sigma of 0.001 and sigma for terminal atoms of
0.002 within 2A
O5A \\sim O5B: within 2A with sigma of 0.001 and sigma for terminal atoms of
0.002 within 2A
O6B \\sim O6A: within 2A with sigma of 0.001 and sigma for terminal atoms of
0.002 within 2A
C11B \\sim C18B: within 2A with sigma of 0.001 and sigma for terminal atoms of
0.002 within 2A
C12A \\sim C14B: within 2A with sigma of 0.001 and sigma for terminal atoms of
0.002 within 2A
C15B \\sim C15A: within 2A with sigma of 0.001 and sigma for terminal atoms of
0.002 within 2A
C10A \\sim C18B: within 2A with sigma of 0.001 and sigma for terminal atoms of
0.002 within 2A
C1A \\sim C1B: within 2A with sigma of 0.001 and sigma for terminal atoms of
0.002 within 2A
I2B \\sim I2C: within 2A with sigma of 0.001 and sigma for terminal atoms of
0.002 within 2A
I1A \\sim I1C: within 2A with sigma of 0.001 and sigma for terminal atoms of
0.002 within 2A
C6B \\sim C6A: within 2A with sigma of 0.001 and sigma for terminal atoms of
0.002 within 2A
C2B \\sim C1B: within 2A with sigma of 0.001 and sigma for terminal atoms of
0.002 within 2A
O4A \\sim O4B: within 2A with sigma of 0.001 and sigma for terminal atoms of
0.002 within 2A
C11A \\sim C11B: within 2A with sigma of 0.001 and sigma for terminal atoms of
0.002 within 2A
Uanis(C12A) = Uanis(C14B)
Uanis(C11A) = Uanis(C13)
Uanis(I1C) = Uanis(I1B)
Uanis(I1A) = Uanis(I1C)
Uanis(I1B) = Uanis(I1D)
Uanis(I2B) = Uanis(I2D)
4. Rigid body (RIGU) restrains
 I2A, O4A, O5A, N2A, C14A, O6A, C11A, C15A, C10A, C12A, C18A, C17A, C16A
 with sigma for 1-2 distances of 0.001 and sigma for 1-3 distances of 0.001
 I2B, C10B, C11B, C12B, O4B, C14B, C18B, C17B, C15B, C16B, N2B, O5B, O6B
 with sigma for 1-2 distances of 0.001 and sigma for 1-3 distances of 0.001
 C5B, I1A, C1A, C2A, C3A, O1A, C4, C5A, C9A, C3B, C9B, C6A, C8A, C2B, O1B, C6B,
  C8B, N1A, C7A, C1B, N1B, C7B, O2A, O3A, I1C, O2B, O3B
 with sigma for 1-2 distances of 0.001 and sigma for 1-3 distances of 0.001
5. Others
 Sof(C10B)=Sof(C11B)=Sof(C12B)=Sof(O4B)=Sof(C14B)=Sof(H14B)=Sof(C18B)=
 Sof(H18B)=Sof(C17B)=Sof(H17B)=Sof(C15B)=Sof(C16B)=Sof(H16B)=Sof(N2B)=Sof(O5B)=
 Sof(O6B)=1-FVAR(1)
 Sof(O4A)=Sof(O5A)=Sof(N2A)=Sof(C14A)=Sof(H14A)=Sof(O6A)=Sof(C11A)=Sof(C15A)=
 Sof(C10A)=Sof(C12A)=Sof(C18A)=Sof(H18A)=Sof(C17A)=Sof(H17A)=Sof(C16A)=
 Sof(H16A)=FVAR(1)
 Sof(C1B)=Sof(C2B)=Sof(C3B)=Sof(O1B)=Sof(C5B)=Sof(H5B)=Sof(C9B)=Sof(H9B)=
 Sof(C6B)=Sof(C8B)=Sof(H8B)=Sof(N1B)=Sof(C7B)=Sof(H7B)=Sof(O2B)=Sof(O3B)=1-
 FVAR(2)
 Sof(O1A)=Sof(O2A)=Sof(O3A)=Sof(C6A)=Sof(C5A)=Sof(H5A)=Sof(N1A)=Sof(C3A)=
 Sof(C1A)=Sof(C9A)=Sof(H9A)=Sof(C2A)=Sof(C7A)=Sof(H7A)=Sof(C8A)=Sof(H8A)=FVAR(2)
 Fixed Sof: I1A(0.75) I2A(0.75) I2B(0.14) I1C(0.22) I2C(0.1) I1B(0.02)
 I1D(0.01) I2D(0.01)
6.a Aromatic/amide H refined with riding coordinates:
 C5A(H5A), C14A(H14A), C9A(H9A), C7A(H7A), C8A(H8A), C18A(H18A), C17A(H17A),
 C16A(H16A), C14B(H14B), C18B(H18B), C17B(H17B), C16B(H16B), C5B(H5B), C9B(H9B),
  C8B(H8B), C7B(H7B)
;
_olex2_submission_special_instructions 'No special instructions were received'
_oxdiff_exptl_absorpt_empirical_details
;
Empirical correction (ABSPACK) includes:
- Absorption correction using spherical harmonics
- Frame scaling
;
_oxdiff_exptl_absorpt_empirical_full_max 1.612
_oxdiff_exptl_absorpt_empirical_full_min 0.676
loop_
_space_group_symop_operation_xyz
'x, y, z'
'-x, -y, -z'
loop_
_atom_site_label
_atom_site_type_symbol
_atom_site_fract_x
_atom_site_fract_y
_atom_site_fract_z
_atom_site_U_iso_or_equiv
_atom_site_adp_type
_atom_site_occupancy
_atom_site_site_symmetry_order
_atom_site_calc_flag
_atom_site_refinement_flags_posn
_atom_site_refinement_flags_adp
_atom_site_refinement_flags_occupancy
_atom_site_disorder_assembly
_atom_site_disorder_group
I1A I -0.11978(16) 0.13871(6) 1.38847(8) 0.01854(19) Uani 0.75 1 d D U P A 4
I2A I 0.38556(16) 0.68749(9) 0.87122(8) 0.0201(2) Uani 0.75 1 d D U P B 1
O1A O 0.1949(19) -0.1040(7) 1.0378(7) 0.0199(19) Uani 0.813(10) 1 d D U P A 4
O2A O 0.5438(10) -0.0197(7) 0.6647(5) 0.0270(16) Uani 0.813(10) 1 d D U P A 3
O4A O 0.684(3) 0.3974(10) 0.5420(10) 0.0236(14) Uani 0.665(12) 1 d D U P B 1
O3A O 0.6858(10) 0.1434(6) 0.6207(5) 0.0303(16) Uani 0.813(10) 1 d D U P A 3
O5A O 1.0469(14) 0.4160(10) 0.1818(7) 0.0301(17) Uani 0.665(12) 1 d D U P B 1
N2A N 1.0752(15) 0.5203(10) 0.1808(7) 0.0222(14) Uani 0.665(12) 1 d D U P B 1
C6A C 0.4666(14) 0.1294(8) 0.7877(6) 0.0167(12) Uani 0.813(10) 1 d D U P A 3
C5A C 0.374(3) 0.0485(9) 0.8668(7) 0.018(3) Uani 0.813(10) 1 d D U P A 3
H5A H 0.3766 -0.0345 0.8540 0.021 Uiso 0.813(10) 1 calc R . P A 3
N1A N 0.5731(11) 0.0809(8) 0.6837(5) 0.0198(13) Uani 0.813(10) 1 d D U P A 3
C14A C 0.880(4) 0.5262(11) 0.3679(8) 0.017(3) Uani 0.665(12) 1 d D U P B 1
H14A H 0.8781 0.4404 0.3681 0.021 Uiso 0.665(12) 1 calc R . P B 1
C13 C 0.7838(11) 0.5884(6) 0.4595(5) 0.0215(11) Uani 1 1 d D . . . .
C4 C 0.2788(10) 0.0934(6) 0.9651(5) 0.0162(10) Uani 1 1 d D U . . .
C3A C 0.186(2) 0.0039(8) 1.0520(6) 0.0134(17) Uani 0.813(10) 1 d D U P A 4
C1A C 0.0147(15) 0.0886(8) 1.2430(6) 0.0195(16) Uani 0.813(10) 1 d D U P A 4
C9A C 0.2702(18) 0.2160(7) 0.9829(8) 0.018(2) Uani 0.813(10) 1 d D U P A 3
H9A H 0.2019 0.2462 1.0503 0.022 Uiso 0.813(10) 1 calc R . P A 3
O6A O 1.1834(15) 0.5783(10) 0.1052(7) 0.0403(19) Uani 0.665(12) 1 d D U P B 1
C2A C 0.098(2) 0.0508(7) 1.1556(6) 0.018(2) Uani 0.813(10) 1 d D U P A 4
C11A C 0.599(2) 0.5604(11) 0.6513(8) 0.0215(11) Uani 0.665(12) 1 d D U P B 1
C15A C 0.979(2) 0.5886(10) 0.2770(8) 0.0187(13) Uani 0.665(12) 1 d D U P B 1
C10A C 0.518(3) 0.6193(12) 0.7283(8) 0.024(2) Uani 0.665(12) 1 d D U P B 1
C12A C 0.684(4) 0.5044(12) 0.5504(9) 0.0178(12) Uani 0.665(12) 1 d D U P B 1
C7A C 0.4650(13) 0.2508(8) 0.8026(7) 0.0175(16) Uani 0.813(10) 1 d D U P A 3
H7A H 0.5317 0.3035 0.7473 0.021 Uiso 0.813(10) 1 calc R . P A 3
C8A C 0.3623(14) 0.2935(7) 0.9014(8) 0.0191(17) Uani 0.813(10) 1 d D U P A 3
H8A H 0.3552 0.3776 0.9132 0.023 Uiso 0.813(10) 1 calc R . P A 3
C18A C 0.797(2) 0.7120(9) 0.4565(10) 0.0206(17) Uani 0.665(12) 1 d D U P B 1
H18A H 0.7358 0.7557 0.5184 0.025 Uiso 0.665(12) 1 calc R . P B 1
C17A C 0.8996(19) 0.7748(10) 0.3647(11) 0.021(2) Uani 0.665(12) 1 d D U P B 1
H17A H 0.9056 0.8598 0.3655 0.025 Uiso 0.665(12) 1 calc R . P B 1
C16A C 0.9913(17) 0.7151(10) 0.2734(10) 0.018(2) Uani 0.665(12) 1 d D U P B 1
H16A H 1.0600 0.7571 0.2107 0.021 Uiso 0.665(12) 1 calc R . P B 1
I2B I 0.3542(8) 0.6379(7) 0.8975(4) 0.0213(8) Uani 0.14 1 d D U P B 1
C10B C 0.506(7) 0.596(3) 0.7454(14) 0.024(2) Uani 0.335(12) 1 d D U P B 2
C11B C 0.580(5) 0.585(2) 0.6509(13) 0.0216(12) Uani 0.335(12) 1 d D U P B 2
C12B C 0.684(8) 0.514(2) 0.5581(17) 0.0179(13) Uani 0.335(12) 1 d D U P B 2
O4B O 0.672(6) 0.4071(19) 0.558(2) 0.0237(16) Uani 0.335(12) 1 d D U P B 2
C14B C 0.867(9) 0.539(3) 0.3618(18) 0.0178(12) Uani 0.335(12) 1 d D U P B 2
H14B H 0.8579 0.4581 0.3489 0.021 Uiso 0.335(12) 1 calc R . P B 2
C18B C 0.766(5) 0.7091(16) 0.4826(19) 0.0206(17) Uani 0.335(12) 1 d D U P B 2
H18B H 0.6934 0.7377 0.5500 0.025 Uiso 0.335(12) 1 calc R . P B 2
C17B C 0.861(4) 0.7862(17) 0.401(2) 0.022(4) Uani 0.335(12) 1 d D U P B 2
H17B H 0.8569 0.8700 0.4126 0.026 Uiso 0.335(12) 1 calc R . P B 2
C15B C 0.965(4) 0.6202(18) 0.2839(14) 0.0187(14) Uani 0.335(12) 1 d D U P B 2
C16B C 0.963(4) 0.7422(19) 0.303(2) 0.028(6) Uani 0.335(12) 1 d D U P B 2
H16B H 1.0302 0.7952 0.2480 0.033 Uiso 0.335(12) 1 calc R . P B 2
N2B N 1.073(3) 0.5645(19) 0.1825(13) 0.0223(14) Uani 0.335(12) 1 d D U P B 2
O5B O 1.043(3) 0.4656(19) 0.1657(14) 0.0297(18) Uani 0.335(12) 1 d D U P B 2
O6B O 1.191(3) 0.6303(18) 0.1224(14) 0.039(2) Uani 0.335(12) 1 d D U P B 2
I1C I -0.1131(7) 0.1754(3) 1.3795(3) 0.01854(19) Uani 0.22 1 d D U P A 3
C1B C 0.031(7) 0.129(3) 1.2340(14) 0.0196(16) Uani 0.187(10) 1 d D U P A 3
C2B C 0.084(11) 0.076(4) 1.153(2) 0.0197(17) Uani 0.187(10) 1 d D U P A 3
C3B C 0.198(12) 0.010(3) 1.061(2) 0.022(5) Uani 0.187(10) 1 d D U P A 3
O1B O 0.172(10) -0.094(3) 1.054(3) 0.026(9) Uani 0.187(10) 1 d D U P A 3
C5B C 0.371(14) 0.033(4) 0.873(3) 0.023(15) Uani 0.187(10) 1 d D U P A 4
H5B H 0.3682 -0.0530 0.8738 0.028 Uiso 0.187(10) 1 calc R . P A 4
C9B C 0.288(9) 0.219(2) 0.958(3) 0.024(11) Uani 0.187(10) 1 d D U P A 4
H9B H 0.2246 0.2653 1.0189 0.028 Uiso 0.187(10) 1 calc R . P A 4
C6B C 0.467(6) 0.093(3) 0.7793(18) 0.0168(13) Uani 0.187(10) 1 d D U P A 4
C8B C 0.388(7) 0.279(3) 0.866(3) 0.028(10) Uani 0.187(10) 1 d D U P A 4
H8B H 0.3923 0.3643 0.8653 0.033 Uiso 0.187(10) 1 calc R . P A 4
N1B N 0.561(5) 0.023(3) 0.6829(18) 0.026(7) Uani 0.187(10) 1 d D U P A 4
C7B C 0.483(5) 0.217(3) 0.775(2) 0.015(6) Uani 0.187(10) 1 d D U P A 4
H7B H 0.5546 0.2574 0.7129 0.017 Uiso 0.187(10) 1 calc R . P A 4
O2B O 0.547(4) -0.090(2) 0.689(2) 0.029(6) Uani 0.187(10) 1 d D U P A 4
O3B O 0.657(6) 0.078(3) 0.604(2) 0.046(9) Uani 0.187(10) 1 d D U P A 4
I2C I 0.3937(15) 0.6437(8) 0.8610(7) 0.0198(12) Uani 0.1 1 d D U P B 2
I1B I -0.068(4) 0.201(2) 1.3594(15) 0.01854(19) Uani 0.02 1 d D . P A 65
I1D I -0.107(6) 0.250(3) 1.342(3) 0.01854(19) Uani 0.01 1 d D . P A 7
I2D I 0.378(7) 0.572(5) 0.906(3) 0.0213(8) Uani 0.01 1 d D . P B 5
loop_
_atom_site_aniso_label
_atom_site_aniso_U_11
_atom_site_aniso_U_22
_atom_site_aniso_U_33
_atom_site_aniso_U_23
_atom_site_aniso_U_13
_atom_site_aniso_U_12
I1A 0.0273(3) 0.0094(4) 0.0178(3) -0.0007(4) -0.0056(2) -0.0008(4)
I2A 0.0243(4) 0.0201(5) 0.0148(4) -0.0025(4) -0.0044(3) -0.0014(4)
O1A 0.025(5) 0.0139(17) 0.022(3) 0.0000(15) -0.005(3) -0.006(2)
O2A 0.034(3) 0.024(3) 0.023(3) -0.0030(19) -0.001(2) -0.012(2)
O4A 0.028(3) 0.0180(18) 0.023(3) 0.0003(16) -0.003(3) -0.0046(17)
O3A 0.036(3) 0.029(3) 0.025(2) 0.0008(19) -0.001(2) -0.015(2)
O5A 0.041(3) 0.021(3) 0.026(3) 0.002(2) -0.004(2) -0.007(3)
N2A 0.023(3) 0.017(3) 0.0236(17) 0.0048(18) -0.0071(16) 0.001(3)
C6A 0.017(3) 0.015(2) 0.0192(14) 0.0025(13) -0.0081(14) -0.0036(18)
C5A 0.020(6) 0.015(2) 0.0192(16) 0.0019(15) -0.007(2) -0.004(3)
N1A 0.021(3) 0.019(2) 0.0195(17) 0.0010(15) -0.0064(16) -0.005(2)
C14A 0.012(6) 0.017(3) 0.023(2) 0.006(2) -0.011(3) -0.001(4)
C13 0.023(2) 0.019(2) 0.0223(15) 0.0004(15) -0.0077(15) -0.0009(19)
C4 0.016(2) 0.0149(15) 0.0192(13) 0.0022(11) -0.0081(12) -0.0033(13)
C3A 0.012(4) 0.0125(17) 0.0182(16) 0.0019(12) -0.0093(17) -0.0021(16)
C1A 0.027(3) 0.013(3) 0.0187(14) 0.0005(18) -0.0050(15) -0.006(3)
C9A 0.019(5) 0.0159(18) 0.020(2) 0.0016(15) -0.007(2) -0.0041(19)
O6A 0.053(3) 0.024(4) 0.033(2) 0.000(2) 0.009(2) -0.011(3)
C2A 0.024(4) 0.011(3) 0.0185(16) 0.0019(18) -0.0057(19) -0.006(4)
C11A 0.023(2) 0.019(2) 0.0223(15) 0.0004(15) -0.0077(15) -0.0009(19)
C15A 0.014(3) 0.017(2) 0.0238(17) 0.0050(16) -0.0086(16) 0.000(2)
C10A 0.030(4) 0.019(5) 0.0208(19) 0.001(3) -0.006(2) 0.000(4)
C12A 0.016(2) 0.0166(17) 0.0214(16) 0.0022(12) -0.0090(16) -0.0005(15)
C7A 0.019(4) 0.015(2) 0.019(2) 0.0024(15) -0.008(2) -0.004(2)
C8A 0.023(4) 0.015(2) 0.020(2) 0.0008(16) -0.006(2) -0.006(2)
C18A 0.015(4) 0.020(3) 0.026(3) 0.000(2) -0.002(3) -0.007(2)
C17A 0.013(5) 0.020(3) 0.028(3) 0.001(2) -0.001(3) -0.005(3)
C16A 0.010(4) 0.016(2) 0.024(3) 0.0042(18) -0.004(3) 0.001(2)
I2B 0.0266(16) 0.0153(16) 0.0177(18) -0.0038(16) -0.0009(14) 0.0011(14)
C10B 0.030(4) 0.019(5) 0.0215(19) 0.001(2) -0.006(2) 0.000(4)
C11B 0.023(3) 0.019(2) 0.0223(16) 0.0005(16) -0.0076(17) -0.001(2)
C12B 0.016(3) 0.0168(18) 0.0214(17) 0.0021(14) -0.0091(17) -0.0003(16)
O4B 0.028(3) 0.0183(19) 0.022(4) 0.0005(17) -0.003(3) -0.0046(19)
C14B 0.016(2) 0.0166(17) 0.0214(16) 0.0022(12) -0.0090(16) -0.0005(15)
C18B 0.015(4) 0.020(3) 0.026(3) 0.000(2) -0.002(3) -0.007(3)
C17B 0.016(10) 0.020(3) 0.028(4) 0.001(3) -0.001(4) -0.006(4)
C15B 0.015(3) 0.017(2) 0.0238(17) 0.0048(16) -0.0089(16) 0.001(2)
C16B 0.030(12) 0.020(3) 0.029(4) 0.001(2) 0.002(5) -0.007(5)
N2B 0.024(3) 0.017(3) 0.0234(17) 0.0052(19) -0.0069(16) 0.001(3)
O5B 0.040(4) 0.021(3) 0.025(3) 0.003(3) -0.004(3) -0.007(3)
O6B 0.051(3) 0.025(4) 0.034(3) -0.002(2) 0.009(3) -0.014(3)
I1C 0.0273(3) 0.0094(4) 0.0178(3) -0.0007(4) -0.0056(2) -0.0008(4)
C1B 0.027(3) 0.013(3) 0.0188(14) 0.0003(18) -0.0049(16) -0.006(3)
C2B 0.027(4) 0.013(3) 0.0189(15) 0.0004(19) -0.0048(17) -0.006(3)
C3B 0.030(11) 0.014(2) 0.019(2) 0.0003(16) -0.004(4) -0.006(3)
O1B 0.04(2) 0.016(3) 0.021(5) -0.002(3) 0.000(7) -0.011(7)
C5B 0.03(3) 0.016(4) 0.021(4) 0.001(3) -0.003(11) -0.007(10)
C9B 0.03(2) 0.016(3) 0.021(4) 0.001(3) -0.002(9) -0.008(7)
C6B 0.017(3) 0.015(2) 0.0194(15) 0.0024(15) -0.0080(15) -0.003(2)
C8B 0.04(2) 0.018(3) 0.022(4) 0.000(3) 0.001(8) -0.011(7)
N1B 0.035(16) 0.019(4) 0.022(3) -0.001(3) -0.002(6) -0.009(6)
C7B 0.012(12) 0.015(3) 0.018(4) 0.003(2) -0.010(5) -0.002(4)
O2B 0.039(14) 0.020(4) 0.027(6) -0.002(4) 0.000(7) -0.010(5)
O3B 0.077(19) 0.025(6) 0.029(4) -0.007(4) 0.014(8) -0.024(9)
I2C 0.022(2) 0.011(2) 0.021(3) -0.005(2) 0.002(2) 0.002(2)
I1B 0.0273(3) 0.0094(4) 0.0178(3) -0.0007(4) -0.0056(2) -0.0008(4)
I1D 0.0273(3) 0.0094(4) 0.0178(3) -0.0007(4) -0.0056(2) -0.0008(4)
I2D 0.0266(16) 0.0153(16) 0.0177(18) -0.0038(16) -0.0009(14) 0.0011(14)
loop_
_atom_type_symbol
_atom_type_description
_atom_type_scat_dispersion_real
_atom_type_scat_dispersion_imag
_atom_type_scat_source
C C 0.0033 0.0016 'International Tables Vol C Tables 4.2.6.8 and 6.1.1.4'
H H 0.0000 0.0000 'International Tables Vol C Tables 4.2.6.8 and 6.1.1.4'
I I -0.4742 1.8119 'International Tables Vol C Tables 4.2.6.8 and 6.1.1.4'
N N 0.0061 0.0033 'International Tables Vol C Tables 4.2.6.8 and 6.1.1.4'
O O 0.0106 0.0060 'International Tables Vol C Tables 4.2.6.8 and 6.1.1.4'
loop_
_exptl_crystal_face_index_h
_exptl_crystal_face_index_k
_exptl_crystal_face_index_l
_exptl_crystal_face_perp_dist
-1 -8 -16 0.0425
2 -9 13 0.0441
1 13 11 0.0532
-2 2 -18 0.0307
1 -10 -13 0.0385
-4 -15 -2 0.0592
-6 -10 7 0.0519
-5 0 13 0.0665
0 12 12 0.0575
6 9 -8 0.0477
1 -12 -11 0.0444
-8 -11 -6 0.0437
-9 -4 1 0.0494
-6 7 8 0.0538
9 5 0 0.0589
-3 1 -5 0.0551
4 -2 5 0.0535
2 1 5 0.0561
loop_
_geom_angle_atom_site_label_1
_geom_angle_atom_site_label_2
_geom_angle_atom_site_label_3
_geom_angle
_geom_angle_site_symmetry_1
_geom_angle_site_symmetry_3
_geom_angle_publ_flag
O5A N2A O6A 126.3(9) . . ?
O5A N2A C15A 118.2(8) . . ?
O6A N2A C15A 115.5(9) . . ?
C5A C6A N1A 117.7(7) . . ?
C7A C6A C5A 123.1(7) . . ?
C7A C6A N1A 119.2(7) . . ?
C6A C5A H5A 121.2 . . ?
C4 C5A C6A 117.6(8) . . ?
C4 C5A H5A 121.2 . . ?
O2A N1A C6A 118.6(7) . . ?
O3A N1A O2A 123.7(7) . . ?
O3A N1A C6A 117.8(7) . . ?
C13 C14A H14A 119.8 . . ?
C15A C14A H14A 119.8 . . ?
C15A C14A C13 120.5(9) . . ?
C14A C13 C12A 112.6(7) . . ?
C18A C13 C14A 117.6(8) . . ?
C18A C13 C12A 129.8(8) . . ?
C14B C13 C12B 123.1(12) . . ?
C18B C13 C12B 109.4(12) . . ?
C18B C13 C14B 127.4(14) . . ?
C5A C4 C9A 121.1(7) . . ?
C5A C4 C3B 122.2(11) . . ?
C9A C4 C3B 116.4(11) . . ?
C5B C4 C3A 109.9(13) . . ?
C5B C4 C9B 116.0(19) . . ?
C9B C4 C3A 134.1(14) . . ?
O1A C3A C4 122.0(7) . . ?
O1A C3A C2A 121.4(7) . . ?
C2A C3A C4 116.4(6) . . ?
C2A C1A I1A 176.3(7) . . ?
C4 C9A H9A 120.4 . . ?
C8A C9A C4 119.2(8) . . ?
C8A C9A H9A 120.4 . . ?
C1A C2A C3A 176.6(13) . . ?
C10A C11A C12A 172.2(16) . . ?
C14A C15A N2A 118.9(8) . . ?
C14A C15A C16A 122.1(9) . . ?
C16A C15A N2A 119.0(8) . . ?
I2A C10A I2B 16.9(2) . . ?
C11A C10A I2A 169.8(12) . . ?
C11A C10A I2B 153.3(12) . . ?
O4A C12A C13 122.9(9) . . ?
O4A C12A C11A 121.9(10) . . ?
C11A C12A C13 115.1(8) . . ?
C6A C7A H7A 121.2 . . ?
C6A C7A C8A 117.6(7) . . ?
C8A C7A H7A 121.2 . . ?
C9A C8A C7A 121.3(7) . . ?
C9A C8A H8A 119.4 . . ?
C7A C8A H8A 119.4 . . ?
C13 C18A H18A 119.1 . . ?
C13 C18A C17A 121.9(10) . . ?
C17A C18A H18A 119.1 . . ?
C18A C17A H17A 119.5 . . ?
C16A C17A C18A 121.0(9) . . ?
C16A C17A H17A 119.5 . . ?
C15A C16A H16A 121.5 . . ?
C17A C16A C15A 117.0(8) . . ?
C17A C16A H16A 121.5 . . ?
C11B C10B I2C 167(3) . . ?
C10B C11B C12B 154(3) . . ?
C11B C12B C13 115.8(14) . . ?
O4B C12B C13 122.5(17) . . ?
O4B C12B C11B 121.4(18) . . ?
C13 C14B H14B 123.2 . . ?
C13 C14B C15B 113.7(16) . . ?
C15B C14B H14B 123.2 . . ?
C13 C18B H18B 122.2 . . ?
C13 C18B C17B 115.7(16) . . ?
C17B C18B H18B 122.2 . . ?
C18B C17B H17B 119.6 . . ?
C16B C17B C18B 120.7(16) . . ?
C16B C17B H17B 119.6 . . ?
C14B C15B N2B 114.2(13) . . ?
C16B C15B C14B 121.9(15) . . ?
C16B C15B N2B 123.9(15) . . ?
C17B C16B C15B 120.1(15) . . ?
C17B C16B H16B 119.9 . . ?
C15B C16B H16B 119.9 . . ?
O5B N2B C15B 120.2(14) . . ?
O5B N2B O6B 127.3(16) . . ?
O6B N2B C15B 112.5(15) . . ?
C2B C1B I1C 162(3) . . ?
C1B C2B C3B 166(7) . . ?
C2B C3B C4 114(2) . . ?
O1B C3B C4 123(3) . . ?
O1B C3B C2B 119(3) . . ?
C4 C5B H5B 118.8 . . ?
C6B C5B C4 122(2) . . ?
C6B C5B H5B 118.8 . . ?
C4 C9B H9B 119.2 . . ?
C8B C9B C4 122(2) . . ?
C8B C9B H9B 119.2 . . ?
C5B C6B N1B 119.8(18) . . ?
C7B C6B C5B 120.8(18) . . ?
C7B C6B N1B 119.4(19) . . ?
C9B C8B H8B 119.1 . . ?
C9B C8B C7B 122(2) . . ?
C7B C8B H8B 119.1 . . ?
O2B N1B C6B 118.0(19) . . ?
O3B N1B C6B 118(2) . . ?
O3B N1B O2B 124(2) . . ?
C6B C7B C8B 117.2(19) . . ?
C6B C7B H7B 121.4 . . ?
C8B C7B H7B 121.4 . . ?
loop_
_geom_bond_atom_site_label_1
_geom_bond_atom_site_label_2
_geom_bond_distance
_geom_bond_site_symmetry_2
_geom_bond_publ_flag
I1A C1A 1.980(7) . ?
I2A C10A 2.019(10) . ?
O1A C3A 1.216(9) . ?
O2A N1A 1.237(10) . ?
O4A C12A 1.201(10) . ?
O3A N1A 1.225(9) . ?
O5A N2A 1.206(11) . ?
N2A O6A 1.262(11) . ?
N2A C15A 1.481(12) . ?
C6A C5A 1.388(10) . ?
C6A N1A 1.475(10) . ?
C6A C7A 1.376(11) . ?
C5A H5A 0.9500 . ?
C5A C4 1.383(10) . ?
C14A H14A 0.9500 . ?
C14A C13 1.397(12) . ?
C14A C15A 1.382(11) . ?
C13 C12A 1.517(11) . ?
C13 C18A 1.383(11) . ?
C13 C12B 1.519(16) . ?
C13 C14B 1.387(16) . ?
C13 C18B 1.378(16) . ?
C4 C3A 1.507(9) . ?
C4 C9A 1.390(9) . ?
C4 C3B 1.508(19) . ?
C4 C5B 1.392(19) . ?
C4 C9B 1.397(19) . ?
C3A C2A 1.445(10) . ?
C1A C2A 1.220(10) . ?
C1A I1B 1.980(7) . ?
C9A H9A 0.9500 . ?
C9A C8A 1.381(12) . ?
C11A C10A 1.213(12) . ?
C11A C12A 1.456(11) . ?
C15A C16A 1.411(13) . ?
C10A I2B 2.220(11) . ?
C7A H7A 0.9500 . ?
C7A C8A 1.390(13) . ?
C8A H8A 0.9500 . ?
C18A H18A 0.9500 . ?
C18A C17A 1.402(14) . ?
C17A H17A 0.9500 . ?
C17A C16A 1.376(16) . ?
C16A H16A 0.9500 . ?
C10B C11B 1.220(17) . ?
C10B I2C 1.607(15) . ?
C10B I2D 2.06(4) . ?
C11B C12B 1.465(16) . ?
C12B O4B 1.203(15) . ?
C14B H14B 0.9500 . ?
C14B C15B 1.398(16) . ?
C18B H18B 0.9500 . ?
C18B C17B 1.388(19) . ?
C17B H17B 0.9500 . ?
C17B C16B 1.39(2) . ?
C15B C16B 1.395(18) . ?
C15B N2B 1.480(16) . ?
C16B H16B 0.9500 . ?
N2B O5B 1.210(16) . ?
N2B O6B 1.254(16) . ?
I1C C1B 1.979(7) . ?
C1B C2B 1.210(19) . ?
C1B I1D 1.980(7) . ?
C2B C3B 1.45(2) . ?
C3B O1B 1.214(19) . ?
C5B H5B 0.9500 . ?
C5B C6B 1.388(19) . ?
C9B H9B 0.9500 . ?
C9B C8B 1.38(2) . ?
C6B N1B 1.490(19) . ?
C6B C7B 1.38(2) . ?
C8B H8B 0.9500 . ?
C8B C7B 1.39(2) . ?
N1B O2B 1.26(2) . ?
N1B O3B 1.23(2) . ?
C7B H7B 0.9500 . ?
loop_
_refln_index_h
_refln_index_k
_refln_index_l
_refln_F_squared_meas
_refln_F_squared_sigma
0 0 2 0.14 0.28
0 0 3 1.63 0.51
0 0 -4 2026.7 70.31
0 0 4 1836.46 70.66
0 0 5 22.21 1.85
0 0 -5 18.68 1.78
0 0 -6 4.44 0.85
0 0 -6 3.37 0.8
0 0 6 4.19 0.83
0 0 -7 26.02 1.58
0 0 -7 22.24 2.04
0 0 -8 523.63 9.07
0 0 8 545.68 11.23
0 0 9 17.45 1.89
0 0 -9 17.29 1.87
0 0 9 20.45 2.26
0 0 10 6.36 1.32
0 0 10 8.96 1.87
0 0 11 17.91 2.05
0 0 11 23.13 2.54
0 0 12 300.51 12.55
0 0 12 298.13 12.65
0 0 13 11.29 1.99
0 0 14 49.46 3.63
0 0 -15 43.2 4.04
0 0 -16 35.14 3.47
0 0 16 38.11 3.94
0 0 -17 19.4 3.08
0 0 17 30.4 3.95
0 1 -17 8.8 2.29
0 -1 17 5.69 2.67
0 1 -16 16.63 2.97
0 -1 16 22.41 3.26
0 -1 15 37.89 3.39
0 -1 15 45.35 3.97
0 -1 14 67.32 4.73
0 -1 14 85.04 5.33
0 -1 13 15.11 2.04
0 -1 13 19.35 2.64
0 -1 12 72.11 4.84
0 -1 12 102.72 5.54
0 -1 11 4.42 1.18
0 1 -11 2.51 0.66
0 -1 11 3.78 1.65
0 -1 11 3.65 1.68
0 1 -10 34.31 2.84
0 -1 10 41.5 2.92
0 1 -9 11.27 1.45
0 -1 9 10.72 1.43
0 -1 9 11.3 1.74
0 -1 8 91.49 5.01
0 1 -8 79.91 4.78
0 1 -8 97.31 4.16
0 -1 8 97.15 4.98
0 -1 7 979.62 37.27
0 1 -7 1052.18 36.5
0 -1 7 943.39 37.16
0 -1 6 18.94 1.74
0 1 -6 17.35 1.71
0 -1 6 22.74 2.03
0 1 -6 21.81 1.71
0 -1 5 45.5 2.43
0 -1 5 46.52 2.55
0 1 -5 41.88 2.01
0 -1 4 41.94 2.56
0 1 -4 46.4 2.14
0 -1 3 1884.5 66.82
0 -1 3 1894.06 66.86
0 1 -3 1823.3 66.56
0 -1 2 8.83 0.86
0 -1 2 11.65 1.11
0 1 -2 10.88 0.91
0 -1 1 68.36 2.74
0 -1 1 67.98 2.73
0 1 -1 67.21 2.59
0 -1 -3 50.46 2.19
0 1 3 51.93 2.2
0 1 3 57.49 2.35
0 1 4 3.34 0.6
0 -1 -4 3.33 0.62
0 -1 -5 1722.08 64.59
0 1 5 1772.18 64.6
0 1 5 1858.57 64.36
0 -1 -6 0.42 0.61
0 1 6 0.45 0.56
0 1 6 0.69 0.8
0 -1 -7 152.95 6.6
0 1 7 159.52 6.61
0 1 7 161.76 6.29
0 1 8 24.14 1.95
0 -1 -8 18.45 1.92
0 1 9 431.16 16.8
0 1 9 446.13 17.31
0 1 10 5.88 1.33
0 1 10 8.53 2.08
0 1 11 209.13 9.09
0 1 11 219.45 9.38
0 1 12 55.1 3.8
0 1 12 63.59 4.33
0 1 13 115.04 5.8
0 -1 -14 4.25 1.87
0 -1 -15 47.2 3.71
0 -1 -16 31.76 3.31
0 -1 -17 50.15 4.1
0 -1 -18 2.51 1.83
0 2 -17 22.59 3.52
0 -2 17 37.92 4
0 2 -16 -0.14 2.04
0 -2 16 1.22 2.29
0 -2 15 56.78 4.83
0 -2 15 90.35 5.54
0 -2 14 43.63 3.65
0 -2 14 50.1 3.91
0 -2 13 30.72 3.13
0 2 -13 32.25 2.06
0 -2 12 7.66 1.64
0 2 -12 7.8 1.07
0 -2 12 9.12 1.97
0 -2 11 64.51 3.99
0 -2 11 86.9 4.34
0 -2 10 442.16 13.38
0 2 -10 431.55 13.28
0 -2 10 439.21 13.21
0 -2 10 447.22 13.11
0 -2 9 40.89 3.02
0 2 -9 33.57 2.88
0 -2 9 41.78 3.14
0 2 -9 30.87 2.45
0 -2 9 49.83 3.17
0 2 -8 136.81 6.39
0 -2 8 144.02 6.52
0 2 -8 140.21 5.87
0 -2 8 129.06 6.3
0 -2 8 131.79 6.14
0 -2 7 151.15 7.48
0 2 -7 158.75 7.44
0 -2 7 182.3 7.56
0 2 -7 152.11 7.32
0 2 -7 179.62 6.93
0 -2 6 320.58 9.64
0 -2 6 311.96 9.5
0 2 -6 317.75 8.86
0 -2 5 35.51 2.49
0 -2 5 39.69 2.66
0 2 -5 30.09 2.17
0 -2 5 46.05 2.39
0 -2 4 2.36 0.69
0 2 -4 3.73 0.77
0 -2 4 1.61 0.96
0 -2 3 74.79 3.63
0 2 -3 78.96 3.29
0 -2 2 1296.56 45.91
0 -2 2 1307.69 45.89
0 2 -2 1239.84 45.58
0 2 -1 11.3 1.04
0 2 -1 10.92 0.68
0 2 0 26.65 1.46
0 2 0 28.21 1.35
0 2 0 27.88 1.32
0 2 1 7.21 0.81
0 2 1 7.37 0.68
0 2 2 1120.22 40.24
0 2 3 0.34 0.43
0 2 4 432.67 15.49
0 2 4 406.11 15.77
0 2 4 431.46 15.46
0 2 5 9.67 0.86
0 2 5 15.05 1.47
0 2 6 99.13 4.23
0 2 6 107.82 4.4
0 2 7 6.92 0.98
0 2 7 12.46 1.44
0 2 8 320.27 13.07
0 2 8 363.68 13.04
0 2 8 349.46 13.84
0 2 9 16.03 1.57
0 2 9 15.71 1.66
0 2 10 171.29 5.62
0 2 10 174.04 6.58
0 2 11 0.67 0.85
0 2 11 1.89 1.8
0 2 12 189.85 9.04
0 -2 -13 33.97 3.02
0 2 13 42.78 3.88
0 -2 -14 92.21 5.22
0 2 14 97.1 5.89
0 -2 -15 1.23 1.47
0 2 15 4.42 2.52
0 -2 -16 63.98 4.33
0 2 16 73.73 5.34
0 -2 -17 45.81 3.91
0 3 -17 10.12 2.6
0 -3 17 12.27 2.86
0 -3 16 4.76 2.1
0 -3 16 13.24 2.86
0 -3 15 18.72 2.67
0 -3 15 21.64 2.94
0 -3 14 85.61 5.71
0 3 -14 81.2 4.23
0 -3 13 24.08 2.58
0 -3 13 26.38 2.72
0 -3 12 6.33 1.76
0 -3 12 9.86 2.14
0 -3 11 65.01 3.84
0 -3 11 69.43 3.78
0 -3 10 233.88 10.71
0 3 -10 194.12 10.49
0 3 -10 244.49 10.02
0 -3 10 241.16 10.66
0 -3 10 286.54 10.69
0 -3 9 180.37 8.25
0 3 -9 184.35 8.23
0 3 -9 181.03 7.71
0 -3 9 176.02 8.09
0 -3 9 170.94 7.83
0 3 -8 7.52 1.52
0 -3 8 8.19 1.57
0 -3 8 8.72 1.85
0 -3 8 11.48 1.66
0 3 -8 7.73 1.37
0 -3 7 104.03 5.22
0 -3 7 103.52 5.1
0 3 -7 101.75 4.7
0 -3 6 221.36 8.52
0 3 -6 225.03 8.18
0 -3 5 1296.83 46.73
0 -3 5 1302.58 46.56
0 3 -5 1281.36 46.27
0 -3 5 1233.36 46.14
0 -3 4 7.45 1.17
0 -3 4 8.93 1.43
0 3 -4 9.11 1.26
0 -3 4 9.72 1.14
0 -3 3 792.81 28.62
0 -3 3 777.52 28.52
0 -3 3 770.4 28.06
0 3 -3 769.8 28.1
0 3 -2 114.21 6.08
0 3 -2 120.55 6.24
0 3 -1 1263.83 44.81
0 3 -1 1286.52 44.77
0 3 -1 1247.11 44.73
0 3 -1 1214.02 44.27
0 3 0 1.32 0.52
0 3 0 0.95 0.76
0 3 0 0.94 0.65
0 3 1 648.55 24.7
0 3 1 658.12 24.52
0 -3 -1 688.81 24.41
0 3 1 693.66 24.43
0 3 2 29.07 1.82
0 3 3 363.2 13.47
0 3 4 7.57 0.89
0 -3 -5 944.93 34.08
0 3 5 970.36 34.65
0 3 5 944.72 34.2
0 3 6 22.7 1.93
0 3 6 15.98 1.95
0 3 7 531.73 19.56
0 3 7 510.44 20.06
0 3 8 2.86 1.24
0 3 8 1.07 1.31
0 3 9 533.71 19.79
0 3 9 518.05 20.61
0 3 10 4.05 1.53
0 3 10 4.45 1.85
0 -3 -11 62.7 3.19
0 3 11 69.8 4.17
0 -3 -12 0.69 1
0 3 12 1.19 1.86
0 -3 -13 268.37 11.54
0 3 13 303.93 12.71
0 -3 -14 15.47 1.96
0 3 14 18 2.98
0 -3 -15 21.26 2.22
0 3 15 27.81 3.41
0 -3 -16 0.86 1.25
0 3 16 1.33 2.43
0 -3 -17 70.2 4.51
0 3 17 87.11 5.95
0 -4 16 1.06 1.77
0 -4 16 1.56 2.31
0 -4 15 2.78 2
0 -4 15 6.58 2.5
0 -4 14 2.62 1.72
0 -4 14 5.16 2.18
0 -4 13 115.96 6.06
0 -4 13 147.46 5.97
0 -4 12 36.21 3.14
0 -4 12 35.69 2.91
0 -4 11 4.26 1.67
0 4 -11 1.91 2.07
0 -4 11 7.47 1.95
0 -4 10 17.31 2.14
0 4 -10 14.6 2.26
0 -4 10 16.78 2.1
0 -4 9 220.62 10.24
0 -4 9 230.34 10.09
0 -4 8 175.58 7.8
0 -4 8 160.17 7.44
0 -4 8 159.45 7.03
0 4 -8 159.33 7.06
0 -4 7 7.89 1.53
0 4 -7 6.16 1.49
0 -4 7 9.48 1.73
0 -4 6 68.74 3.58
0 4 -6 69.07 3.63
0 -4 6 66.05 3.44
0 4 -6 61.72 3.18
0 -4 5 230.32 9.51
0 -4 5 237.04 9
0 4 -5 226.48 9.4
0 4 -4 70.03 3.25
0 -4 4 74.11 3.25
0 4 -4 77.24 3.73
0 4 -3 6.5 1.12
0 -4 3 9.2 1.01
0 4 -3 6.15 0.99
0 4 -3 6.33 1.34
0 4 -2 382.57 13.49
0 4 -2 361.4 13.49
0 -4 2 369.62 12.84
0 4 -1 154.74 6.83
0 4 -1 141.85 6.49
0 -4 1 145.2 6.5
0 4 -1 145.11 6.61
0 4 0 419.64 15.99
0 4 0 416.96 15.8
0 -4 0 416.72 15.73
0 -4 0 435.28 15.77
0 4 0 431.54 15.8
0 4 1 3.94 0.98
0 4 1 4.27 0.81
0 -4 -1 4.59 0.79
0 -4 -1 4.29 0.63
0 4 1 3.88 0.66
0 4 2 588.59 22.76
0 4 2 631.44 22.57
0 -4 -2 620.71 22.25
0 4 3 62.26 3.26
0 4 4 218.92 8.51
0 4 5 3.7 0.87
0 4 6 864.57 30.61
0 4 6 808.4 29.98
0 -4 -7 7.96 0.74
0 4 7 12.95 1.82
0 4 7 13.31 1.85
0 -4 -8 93.76 3.96
0 4 8 102.85 4.79
0 4 8 100.44 5.1
0 -4 -9 1.28 0.61
0 4 9 0.98 1.56
0 4 9 2.35 1.71
0 -4 -10 371.77 14.55
0 4 10 393.9 14.97
0 4 10 406.54 15.8
0 -4 -11 1.82 0.86
0 4 11 2.59 1.65
0 4 11 2.59 1.86
0 -4 -12 29.01 1.92
0 4 12 30.17 3.1
0 -4 -13 1.09 0.97
0 4 13 1.87 1.48
0 4 13 2.49 2.29
0 -4 -14 175.7 7.85
0 4 14 198.51 9.32
0 -4 -15 5.42 1.35
0 4 15 8.46 2.61
0 -4 -16 2.72 1.18
0 4 16 3.78 2.61
0 4 17 2.06 2.52
0 -5 16 65.65 5.43
0 -5 16 76.94 5.14
0 -5 15 6.96 2.25
0 -5 15 9.07 2.33
0 -5 14 0.63 1.71
0 -5 14 5.35 2.11
0 -5 13 2.01 1.63
0 5 -13 1.08 1.93
0 -5 13 4.62 1.99
0 -5 12 103.29 6.11
0 -5 12 122.91 5.84
0 -5 11 11.18 2.03
0 5 -11 9.04 2.32
0 -5 11 10.38 1.98
0 -5 10 6.28 1.77
0 -5 10 13.52 1.97
0 -5 9 21.7 2.37
0 -5 9 22.7 2.17
0 5 -9 23.05 2.23
0 -5 8 203.3 9.31
0 -5 8 225.82 8.84
0 5 -8 215.62 9.13
0 5 -7 59.29 3.8
0 -5 7 63 3.93
0 -5 7 62.71 3.84
0 5 -7 58.45 3.51
0 -5 6 9.86 1.68
0 5 -6 9.51 1.68
0 -5 6 11.42 1.32
0 5 -6 10.9 1.69
0 -5 6 11.21 1.89
0 5 -5 112.24 5.35
0 5 -5 112.13 5.51
0 -5 5 100.59 4.49
0 5 -5 107.43 5.07
0 5 -4 145.07 7.39
0 5 -4 157.88 7.6
0 5 -4 167.6 7.48
0 5 -3 112.9 4.85
0 5 -3 102.8 4.88
0 -5 3 101.6 4.02
0 -5 2 33.12 2.17
0 5 -2 25.24 2.1
0 5 -2 28.21 2.28
0 5 -2 34.68 1.65
0 5 -1 665.73 23.15
0 -5 1 699.77 22.98
0 5 -1 691.83 23.03
0 -5 1 635.56 22.82
0 5 -1 649.71 22.98
0 5 0 135 6
0 -5 0 128.66 5.58
0 5 0 122.78 5.66
0 5 0 127.25 5.54
0 -5 0 128.13 5.45
0 5 1 85.3 4.22
0 5 1 87.64 3.96
0 -5 -1 85.28 3.84
0 -5 -1 90.2 3.8
0 5 1 96.32 3.91
0 5 2 17.48 1.82
0 5 2 20.34 1.58
0 -5 -2 19.18 1.2
0 5 3 688.77 25.82
0 5 3 715.13 25.57
0 5 3 693.75 25.09
0 5 4 35.87 2.47
0 5 5 44.16 2.41
0 5 6 9.1 1.21
0 5 7 582.01 21.3
0 5 7 577.47 21.24
0 5 7 533.29 20.47
0 5 8 10.9 2.15
0 5 8 9.07 1.92
0 -5 -9 5.76 0.47
0 -5 -9 5.36 0.42
0 -5 -9 5.78 0.45
0 5 9 6.62 2.03
0 5 9 8.07 1.92
0 -5 -10 5.34 0.67
0 -5 -10 4.73 0.6
0 5 10 6.17 2.03
0 5 10 6.23 2.03
0 -5 -11 468.09 17.72
0 -5 -11 478.72 17.73
0 5 11 497.29 18.72
0 5 11 536.65 19.62
0 -5 -12 2.2 0.62
0 -5 -12 2.13 0.73
0 5 12 1.08 1.77
0 5 12 3.87 2.13
0 -5 -13 2.72 0.7
0 -5 -13 3.07 0.81
0 5 13 2.22 1.76
0 5 13 2.3 2.16
0 -5 -14 1.16 0.79
0 -5 -14 -0.07 0.67
0 5 14 0.42 2.24
0 -5 -15 101.92 4.85
0 5 15 140.93 7.12
0 5 16 2.92 2.55
0 5 17 1.03 2.63
0 -6 16 2.78 2.13
0 -6 15 52.73 4.75
0 -6 15 54.28 4.12
0 -6 14 4.11 1.78
0 -6 14 3.77 1.89
0 -6 13 18.17 2.83
0 -6 13 25.15 2.71
0 -6 12 2.12 1.67
0 6 -12 3.01 2.44
0 -6 12 5.39 1.92
0 -6 11 107.05 6.43
0 -6 11 118.95 5.81
0 -6 10 1.37 1.48
0 -6 10 2.7 1.44
0 -6 9 63.11 3.58
0 6 -9 65.28 4.03
0 -6 8 40.27 3.24
0 -6 8 41.33 2.62
0 6 -8 42.48 3.1
0 6 -7 111.51 6.48
0 6 -7 148.26 6.53
0 6 -6 3.94 1.3
0 6 -6 4.19 1.42
0 6 -6 2.49 1.73
0 -6 6 3.53 0.91
0 6 -5 86.67 5.23
0 6 -5 93.94 5.51
0 -6 5 115.61 4.69
0 6 -5 110.34 5.39
0 6 -4 261.06 10.27
0 6 -4 234.3 10.2
0 6 -4 236.74 9.98
0 -6 4 234.4 9.16
0 -6 3 142.56 6.2
0 6 -3 126.17 6.21
0 -6 3 153.34 6.25
0 6 -3 145.24 6.52
0 6 -3 118.96 5.18
0 -6 2 45.4 2.58
0 6 -2 50.11 2.73
0 -6 2 46.85 2.59
0 6 -2 43.6 2.73
0 6 -1 64.68 3.65
0 -6 1 61.15 3.27
0 6 -1 58.54 3.29
0 -6 1 60.39 3.27
0 6 -1 53.42 3.37
0 6 -1 60.01 2.46
0 6 0 82.93 4.14
0 -6 0 86.69 3.82
0 6 0 90.29 3.9
0 -6 0 83.22 3.84
0 6 0 83.19 3.95
0 6 0 74.32 3.17
0 6 1 23.69 2.18
0 6 1 22.94 1.9
0 -6 -1 26.51 1.8
0 -6 -1 22.03 1.52
0 6 2 10.25 1.48
0 6 2 13.13 1.32
0 -6 -2 11.51 0.92
0 6 3 87.07 4.44
0 6 3 72.81 3.46
0 6 4 775.31 28.14
0 6 4 753.22 28.42
0 6 5 29.96 2.28
0 6 6 17.69 1.6
0 6 7 67.4 4.22
0 6 7 68.67 3.96
0 6 8 460.98 18.56
0 6 8 479.33 18.45
0 6 9 7.08 2.35
0 6 9 6.1 1.94
0 6 10 36.21 3.34
0 6 10 32.68 3.05
0 6 11 7.66 2.33
0 6 11 8.04 2.33
0 6 12 197.51 9.51
0 6 12 253.56 10.45
0 6 13 1.61 1.84
0 6 13 1.2 2.07
0 6 14 14.14 2.67
0 6 15 0.11 2.27
0 6 16 149.6 8.39
0 -7 15 12.57 2.73
0 -7 15 17.48 2.77
0 -7 14 36.63 3.88
0 -7 14 37.74 3.4
0 -7 13 4.75 1.86
0 -7 13 5.44 1.91
0 -7 12 45.04 4.01
0 -7 12 45.18 3.43
0 -7 11 15.9 2.48
0 -7 11 10.35 2.07
0 -7 10 96.76 6.1
0 -7 10 114.84 5.49
0 -7 9 0.42 1.37
0 -7 9 0.16 1.36
0 -7 8 86.32 4.32
0 7 -8 84.41 4.99
0 7 -7 9.9 2.01
0 7 -6 117.13 6.39
0 7 -6 119.85 6.73
0 -7 6 121.45 5.37
0 7 -5 6.96 1.47
0 -7 5 4.4 1.26
0 7 -5 6.13 1.53
0 7 -5 5.2 1.89
0 -7 5 5.75 1.16
0 -7 4 151.18 7
0 7 -4 143.43 7.22
0 -7 4 154.01 6.91
0 7 -4 163.17 7.11
0 -7 3 156.41 6.89
0 7 -3 151.38 6.85
0 7 -3 137.7 6.96
0 -7 3 149.12 6.72
0 -7 2 78.14 3.7
0 7 -2 70.21 3.73
0 -7 2 80.09 3.76
0 7 -2 72.29 3.93
0 7 -2 83.14 4.15
0 7 -1 1.77 0.9
0 -7 1 1.7 0.82
0 7 -1 1.91 1.27
0 7 -1 1.91 1.25
0 -7 1 2.06 1.2
0 7 -1 0.97 0.5
0 7 0 255.57 9.82
0 -7 0 221.45 9.14
0 7 0 230.48 9.32
0 7 0 222.03 9.44
0 -7 0 250.71 9.31
0 7 0 213.87 8.35
0 7 1 401.75 16.18
0 7 1 408.69 15.91
0 -7 -1 424.2 15.61
0 7 2 48.58 3.13
0 -7 -2 39.98 2.2
0 7 2 42.24 2.67
0 7 3 42.4 2.01
0 7 3 38.09 2.39
0 7 3 41.29 2.73
0 7 4 144.63 4.45
0 7 4 93.27 4.33
0 7 4 109.37 4.36
0 7 4 154.09 5.52
0 7 4 134.72 5.86
0 7 5 190.45 7.66
0 7 5 181.1 7.87
0 7 6 6.66 1.38
0 7 6 6.39 1.42
0 7 6 6.36 1.2
0 7 7 6.98 1.26
0 7 7 6.05 2.13
0 7 7 6.55 1.54
0 7 8 49.32 4.09
0 7 8 39.62 2.69
0 7 8 50.27 3.49
0 7 9 255.61 11.57
0 7 9 274.5 11.33
0 7 10 7.01 2.75
0 7 10 6.05 2.03
0 7 11 32.34 3.29
0 7 11 36.13 3.08
0 7 12 20.68 3.37
0 7 12 29.38 3.31
0 7 13 94.06 6.02
0 7 13 140.12 6.89
0 7 14 0.63 2.11
0 7 15 70.46 5.12
0 7 16 2.31 2.48
0 -8 14 7.13 2.31
0 -8 14 12.45 2.34
0 -8 13 22.98 3.28
0 -8 13 22.07 2.7
0 -8 12 4.32 1.88
0 -8 12 5.89 1.85
0 -8 11 41.85 3.94
0 -8 11 50.03 3.42
0 -8 10 10.67 2.36
0 -8 10 13.91 2.04
0 -8 9 44.28 3.05
0 -8 8 4.51 1.47
0 -8 6 62.08 4.13
0 -8 6 66.3 3.34
0 8 -6 65.03 4.62
0 -8 5 33.75 2.97
0 8 -5 34.61 3.17
0 8 -5 40.74 3.65
0 -8 5 38.73 3.33
0 8 -4 30.32 2.64
0 -8 4 29.86 2.52
0 8 -4 32.15 2.98
0 -8 4 32.46 2.72
0 8 -4 28.29 2.72
0 8 -3 184.16 9.04
0 -8 3 198.83 8.9
0 -8 3 215.87 8.96
0 8 -3 209.64 9.37
0 -8 2 57.43 3.4
0 8 -2 58.35 3.54
0 8 -2 54.88 3.75
0 -8 2 57.96 3.49
0 8 -2 59.08 3.73
0 -8 1 35.21 2.14
0 -8 1 38.39 2.49
0 8 -1 38.89 2.63
0 8 -1 44.71 2.9
0 -8 0 0.71 0.77
0 8 0 2.38 1.38
0 8 0 0.48 0.46
0 -8 0 1.53 1.12
0 8 0 1.39 1.36
0 -8 -1 185.4 7.94
0 8 1 197.77 8.38
0 8 1 202.83 8.75
0 8 2 141.98 6.42
0 8 2 147.71 6.8
0 8 3 18.8 1.52
0 8 3 23.43 2.1
0 8 3 26.46 2.46
0 8 4 19.52 1.05
0 8 4 20.32 1.07
0 8 4 21.37 1.86
0 8 4 20.59 2.07
0 8 5 246.15 9.88
0 8 5 230.4 10.26
0 8 5 244.93 9.8
0 8 6 420.14 15.55
0 8 6 387.95 15.55
0 8 6 398.86 15.78
0 8 7 31.86 2.33
0 8 7 31.63 2.62
0 8 7 33.1 2.69
0 8 8 125.13 5.74
0 8 8 134.04 7.21
0 8 8 126.33 5.82
0 8 8 137.7 6.33
0 8 9 71.33 5.53
0 8 9 81.57 4.75
0 8 10 83.36 5.63
0 8 10 88.13 5.01
0 8 11 0.89 2.75
0 8 11 4 2.06
0 8 12 35.31 3.86
0 8 12 39.56 3.51
0 8 13 4.89 2.67
0 8 13 9.57 2.41
0 8 14 53.31 4.42
0 8 15 3.63 2.5
0 8 16 43.22 4.18
0 -9 13 13.7 2.68
0 -9 13 13.01 2.31
0 -9 12 4.64 2.02
0 -9 12 6.37 1.98
0 -9 11 1.61 1.7
0 -9 10 46.7 3.22
0 -9 9 6.38 1.69
0 -9 8 11.67 2.17
0 -9 8 9.28 1.71
0 -9 7 5.76 1.67
0 -9 6 66.39 4.39
0 9 -6 68.1 5.02
0 -9 5 23.87 2.54
0 9 -5 32.86 3.38
0 -9 4 2.61 1.34
0 9 -4 3.82 2.17
0 -9 3 48.08 3.28
0 -9 3 53.77 3.54
0 9 -3 48.53 3.82
0 -9 2 143.49 6.99
0 9 -2 154.4 7.54
0 -9 2 159.81 7.31
0 -9 1 54.12 3.29
0 9 -1 55.89 3.77
0 -9 1 60.04 3.5
0 9 -1 57.37 3.86
0 -9 0 3.78 1.02
0 9 0 6.13 1.78
0 9 0 6.95 1.74
0 -9 0 6.31 1.53
0 -9 -1 37.57 2.09
0 9 1 36.34 2.64
0 9 1 38.22 2.8
0 9 2 184.66 8.19
0 9 2 202.03 8.61
0 9 2 206.68 9.03
0 9 3 46.01 2.41
0 9 3 44.82 3
0 9 3 45.79 3.29
0 9 4 5.18 0.65
0 9 4 10.1 1.9
0 9 4 5.03 0.76
0 9 4 5.9 1.33
0 9 4 8.5 1.61
0 9 5 42.85 2.67
0 9 5 35.33 2.46
0 9 5 42.72 2.96
0 9 6 36.34 2.61
0 9 6 35.03 2.92
0 9 7 7.96 1.6
0 9 7 8.82 1.75
0 9 7 9.38 1.52
0 9 8 2.59 1.45
0 9 8 7.09 2.84
0 9 8 6.3 1.46
0 9 8 7.87 1.97
0 9 9 54.82 4.58
0 9 9 46.15 2.93
0 9 9 48.73 3.37
0 9 10 45.68 4.77
0 9 10 38.5 2.79
0 9 10 50.17 3.69
0 9 11 65.89 5.6
0 9 11 83.49 4.97
0 9 12 2.28 3.01
0 9 12 12.34 2.64
0 9 13 94.72 6.85
0 9 13 129.81 6.63
0 9 14 31.91 3.58
0 9 15 11.55 2.84
0 -10 11 2.18 1.7
0 -10 10 21.18 2.91
0 -10 10 16.44 2.24
0 -10 9 47.57 4.16
0 -10 9 49.35 3.3
0 -10 8 3.43 1.69
0 -10 7 1.29 1.47
0 -10 6 4.33 1.76
0 10 -6 4.71 2.71
0 -10 5 166.51 8.28
0 10 -5 173.37 9.01
0 -10 4 41.99 3.21
0 10 -4 37.1 3.78
0 -10 3 2.8 1.31
0 10 -3 2.26 2.2
0 -10 2 6.29 1.46
0 10 -2 5.97 2.19
0 -10 1 144.18 6.86
0 10 -1 143.06 7.36
0 -10 1 151.74 7.1
0 -10 0 3.6 1.19
0 10 0 3.78 1.87
0 10 1 6.68 1.85
0 10 2 4.59 1.09
0 10 2 6.38 1.76
0 10 2 1.62 0.77
0 10 3 94.48 4.08
0 10 3 106.21 4.94
0 10 4 61.26 2.59
0 10 4 59.3 2.61
0 10 4 63.73 3.62
0 10 5 11.3 2.08
0 10 5 15.9 1.84
0 10 5 11.09 1.87
0 10 6 13.78 2.06
0 10 6 12.73 1.78
0 10 6 10.19 1.61
0 10 7 63.92 3.68
0 10 7 64.56 3.76
0 10 7 58.42 4
0 10 8 35.51 4.15
0 10 8 31.32 2.4
0 10 8 33.11 2.68
0 10 8 32.67 2.65
0 10 9 27.31 2.48
0 10 9 26.55 4.12
0 10 10 71.88 4
0 10 10 69.74 5.85
0 10 10 79 4.55
0 10 11 17.79 2.06
0 10 11 19.01 4.33
0 10 11 24.08 2.9
0 10 12 3.85 3.19
0 10 12 4.65 2.13
0 10 13 12.69 4.03
0 10 13 22.05 3.28
0 10 14 46.63 4
0 -11 11 1.83 1.89
0 -11 10 1.62 1.79
0 -11 9 0.76 1.75
0 -11 8 49.94 4.22
0 -11 7 12.76 2.26
0 -11 6 5.04 1.68
0 -11 5 20.67 2.49
0 11 -5 16.18 3.23
0 -11 4 96.95 5.51
0 11 -4 86.69 6.07
0 -11 3 2.68 1.41
0 11 -3 3.99 2.37
0 -11 2 8.82 1.63
0 11 -2 7.69 2.47
0 -11 1 12.13 1.75
0 11 -1 9.37 2.52
0 11 0 114.75 6.36
0 11 1 22.26 2.1
0 11 1 22.94 2.68
0 11 2 22.08 2.05
0 11 2 23.14 2.64
0 11 3 32.54 1.88
0 11 3 31.7 2.75
0 11 4 81.65 3.69
0 11 4 88.48 3.77
0 11 4 79.66 3.82
0 11 5 13.61 2
0 11 5 8.04 1.42
0 11 6 32.16 2.72
0 11 6 38.61 2.72
0 11 7 26.4 2.39
0 11 7 23.7 2.26
0 11 8 52.36 3.52
0 11 8 59.57 5.94
0 11 8 58.41 3.64
0 11 9 8.6 3.33
0 11 9 6.12 1.5
0 11 9 6.26 1.84
0 11 10 30.29 2.68
0 11 10 37.05 4.9
0 11 11 13.35 4.1
0 11 11 22.3 2.68
0 11 12 34.59 5.55
0 11 12 49.43 3.87
0 11 13 5.86 2.27
0 -12 10 7.68 2.24
0 -12 9 1.07 1.75
0 -12 8 54.44 4.45
0 -12 7 12.9 2.49
0 -12 6 2.04 1.64
0 -12 5 3.73 1.69
0 12 -5 1.46 2.66
0 -12 4 23.99 2.69
0 12 -4 26.44 3.57
0 -12 3 27.99 2.85
0 12 -3 30.45 3.7
0 -12 2 1.45 1.32
0 12 -2 3.86 2.39
0 12 -1 14.45 2.22
0 12 -1 14.41 2.8
0 12 0 8.53 1.72
0 12 0 8.63 2.43
0 12 1 25.61 2.42
0 12 1 22.86 2.84
0 12 2 1.3 1.12
0 12 2 2.6 1.85
0 12 3 40.18 2.51
0 12 3 37.58 3.32
0 12 4 5.08 1.97
0 12 5 20.85 2.42
0 12 5 17.37 1.6
0 12 6 1.7 1.25
0 12 6 1.23 1.61
0 12 7 42.99 5.37
0 12 7 44.45 3.32
0 12 7 51.2 3.11
0 12 8 5.52 3.58
0 12 8 7.25 1.73
0 12 8 7.65 1.77
0 12 9 19.53 4.36
0 12 9 20.82 2.28
0 12 10 1.2 3.41
0 12 11 23.3 5.18
0 12 12 24.13 4.71
0 13 -8 5.05 2.19
0 13 -5 7.32 3
0 13 -4 13.46 2.65
0 13 -4 11.11 3.05
0 13 -3 10.67 2.29
0 13 -3 13.1 3.11
0 13 -2 21.26 2.75
0 13 -2 14.19 3.06
0 13 -1 3.94 1.6
0 13 -1 1.58 2.34
0 13 0 27.89 2.78
0 13 0 30.72 3.61
0 13 1 9.83 1.85
0 13 1 10.88 2.71
0 13 2 22.81 2.13
0 13 2 21.32 2.96
0 13 3 14.66 2.44
0 13 4 42.31 3.59
0 13 5 4.23 1.97
0 13 6 11.51 2.24
0 13 7 0.96 3.49
0 13 8 69.17 6.86
0 13 9 6.86 3.88
0 13 10 7.18 4.13
0 13 11 -0.68 3.74
0 14 -6 28.08 3.66
0 14 -5 7.24 2.3
0 14 -4 11.32 2.36
0 14 -4 9.83 3.16
0 14 -3 8.78 2.28
0 14 -3 9.91 3.24
0 14 -2 26.73 2.93
0 14 -2 19.28 3.53
0 14 -1 3.7 1.67
0 14 -1 6.52 2.76
0 14 0 16.84 3.17
0 14 1 43.72 4.19
0 14 2 8.94 2.62
0 14 3 13.33 2.68
0 14 4 6.9 2.29
0 14 6 3.89 3.82
0 14 7 3.06 3.95
0 14 8 8.34 4.06
0 14 9 43.44 6
0 15 -2 7.07 3.07
0 15 -1 19.91 3.5
0 15 0 3.26 2.67
0 15 1 10.42 2.85
0 15 2 8.75 2.74
0 15 5 15.07 4.74
-1 14 7 3.53 4.2
-1 14 6 40.68 5.97
-1 14 5 -0.71 3.91
-1 14 4 4.78 3.97
-1 14 3 5.08 4.14
-1 14 2 38.9 5.34
-1 14 1 2.24 3.87
-1 14 1 4.02 2.44
-1 14 0 10.03 2.74
1 -14 3 4.15 1.67
1 -14 4 3.7 1.78
1 -14 5 35.14 3.49
-1 13 9 46 6.34
-1 13 8 1.24 4.05
-1 13 7 25.84 5.4
-1 13 6 3.2 4.18
-1 13 5 44.78 5.68
-1 13 4 4.77 3.58
-1 13 3 21.12 2.85
-1 13 3 28 5.05
-1 13 2 10.03 4.16
-1 13 2 6.46 2.31
-1 13 1 27.42 3.28
-1 13 0 3.01 2.33
1 -13 1 26.5 2.69
-1 13 -1 29.34 3.56
1 -13 2 13.07 2.12
-1 13 -2 10.63 2.96
1 -13 3 14.89 2.27
1 -13 4 3.21 1.56
1 -13 5 23.77 3.04
1 -13 6 17.02 2.62
1 -13 7 7.82 2.26
1 -13 8 2.73 1.76
-1 12 11 0.94 3.65
-1 12 10 10.03 4.45
-1 12 9 10.8 4.7
-1 12 8 28.28 5.15
-1 12 8 32.35 3.02
-1 12 7 2.1 3.74
-1 12 7 1.84 1.79
-1 12 6 12.56 4.12
-1 12 6 11.53 2.04
-1 12 5 2.59 3.44
-1 12 5 4.79 1.69
-1 12 5 1.68 1.55
-1 12 4 19.34 2.47
-1 12 4 24.05 4.3
-1 12 3 6.91 3.69
-1 12 3 11.23 2.29
-1 12 2 45.69 3.02
-1 12 2 44.98 3.76
1 -12 -1 14.36 1.73
-1 12 1 11.13 2.49
1 -12 0 19.68 2.06
-1 12 0 18.74 2.82
1 -12 1 4.56 1.41
-1 12 -1 4.29 2.28
1 -12 2 35.61 3.03
-1 12 -2 34.35 3.8
1 -12 3 41.4 3.34
1 -12 4 8.35 1.82
1 -12 5 0.21 1.48
1 -12 6 36.02 3.47
1 -12 7 16.25 2.57
1 -12 8 3.5 1.9
1 -12 9 2.36 1.82
-1 11 12 34.69 5.18
-1 11 12 47.81 3.98
-1 11 11 13.59 4.35
-1 11 11 27.06 3.25
-1 11 10 1.4 4.07
-1 11 10 3.57 2.05
-1 11 9 61.09 6.7
-1 11 9 62.8 4.48
-1 11 8 51.12 5.51
-1 11 8 45.23 3.55
-1 11 7 21.29 2.08
-1 11 7 21.47 4.32
-1 11 7 26.66 2.77
-1 11 6 5.21 3.46
-1 11 6 4.92 1.51
-1 11 5 89.33 6.56
-1 11 5 62.94 3.95
-1 11 4 2.31 0.64
-1 11 4 4.08 3.47
-1 11 4 3.95 1.62
-1 11 3 12.76 1.41
-1 11 3 12.11 2.13
1 -11 -2 6.33 1.16
-1 11 2 2.97 1.27
-1 11 2 5.32 2.01
1 -11 -1 109.45 4.73
-1 11 1 104.88 5.53
1 -11 0 5.4 1.42
-1 11 0 4.57 2.15
-1 11 0 1.43 0.93
1 -11 1 22.78 2.19
-1 11 -1 19.84 2.81
1 -11 2 3.81 1.4
-1 11 -2 3.17 2.17
1 -11 3 61.73 4.14
-1 11 -3 56.05 4.69
1 -11 4 8.74 1.84
1 -11 5 6.18 1.79
1 -11 6 4.17 1.72
1 -11 7 30.78 3.28
1 -11 8 16.22 2.55
1 -11 9 1.39 1.67
1 -11 10 4.78 2.03
1 -11 11 17.25 2.93
-1 10 13 19.44 3
-1 10 12 12.54 4.15
-1 10 12 18.72 3.16
-1 10 11 20.05 3.99
-1 10 11 25.14 3.06
-1 10 10 4.49 3.36
-1 10 10 3.77 2.15
-1 10 9 20.2 4.36
-1 10 9 24.84 2.87
-1 10 8 83.28 6.63
-1 10 8 80.72 4.59
-1 10 7 32.11 4.42
-1 10 7 29.76 2.2
-1 10 6 8.68 3.46
-1 10 6 9.1 1.52
-1 10 5 15.93 3.56
-1 10 5 13.28 1.77
-1 10 4 115.18 5.15
-1 10 4 126.54 5.07
-1 10 3 26.33 1.92
-1 10 3 28.91 2.48
1 -10 -2 12.53 1.39
-1 10 2 13.76 2.1
1 -10 -1 26.88 1.96
-1 10 1 24.74 2.6
1 -10 0 112.04 5.16
-1 10 0 111.82 5.74
1 -10 0 119.46 5.27
1 -10 1 3.76 1.31
-1 10 -1 5.22 2.09
1 -10 1 3.22 1.64
-1 10 -1 2.14 0.94
1 -10 2 3.4 1.32
1 -10 2 5.76 1.81
-1 10 -2 2.59 2.06
-1 10 -2 0.94 0.93
1 -10 3 10.03 1.79
-1 10 -3 9.33 2.47
1 -10 4 105.53 5.2
-1 10 -4 60.38 3.21
1 -10 5 1.72 1.53
1 -10 6 5.7 1.79
1 -10 7 8.38 2.09
1 -10 8 46.26 3.95
1 -10 9 2.87 1.74
1 -10 10 6.11 2.1
1 -10 11 13.35 2.58
-1 10 -12 22.4 3.68
1 -10 12 23.9 2.84
-1 9 14 49.28 4.33
-1 9 13 1.59 3.05
-1 9 13 2.67 2.36
-1 9 12 14.22 3.64
-1 9 12 27.1 3.32
-1 9 11 53.24 5.63
-1 9 11 78.22 5.21
-1 9 10 63.14 5.34
-1 9 10 58.13 3.14
-1 9 10 72.17 4.59
-1 9 9 2.2 3.17
-1 9 9 3.55 1.13
-1 9 9 5.02 2.08
-1 9 8 67.5 3.32
-1 9 8 71.71 5.6
-1 9 8 60.91 3.78
-1 9 7 86.62 4.25
-1 9 7 88.64 4.96
-1 9 6 20.97 1.73
-1 9 6 25.08 3.63
-1 9 6 19.04 2.13
-1 9 5 3.23 1.51
-1 9 5 2.04 2.7
-1 9 5 1.55 1.16
-1 9 4 94.09 3.91
-1 9 4 94.52 5.13
-1 9 4 108.92 6.46
-1 9 4 100.3 4.68
-1 9 3 134.83 6.45
-1 9 3 125.05 5.46
1 -9 -3 116.86 5.07
-1 9 3 116.41 5.71
1 -9 -2 4.15 0.97
-1 9 2 3.56 1.67
-1 9 2 3.99 1.54
1 -9 -1 3.57 1.09
-1 9 1 6.38 1.87
-1 9 1 2.89 1.63
1 -9 0 39.54 2.54
1 -9 0 37.82 2.54
-1 9 0 38.59 3.04
1 -9 1 147.33 6.56
-1 9 -1 144.6 6.89
1 -9 2 1.22 1.14
-1 9 -2 2 0.93
1 -9 2 2.66 1.54
-1 9 -2 1.93 1.76
1 -9 3 8.99 1.6
1 -9 3 8.79 1.93
-1 9 -3 7.54 2.22
-1 9 -3 3.32 1.06
1 -9 4 3.18 1.46
-1 9 -4 2.61 1.14
-1 9 -4 4.31 2.22
1 -9 5 114.02 5.77
-1 9 -5 86.11 4.28
1 -9 6 6.23 1.75
1 -9 7 16.55 2.37
1 -9 8 7.93 2.04
1 -9 9 73.49 5.14
1 -9 9 69.02 4.34
1 -9 10 4.77 1.8
1 -9 11 11.08 2.15
1 -9 12 13.91 2.39
1 -9 13 35.74 3.91
1 -9 13 32.48 3.28
-1 8 15 42.87 4.36
-1 8 14 25.67 3.74
-1 8 13 38.14 4.58
-1 8 13 62.77 4.53
-1 8 12 3.21 2.66
-1 8 12 1.14 2.11
-1 8 11 115.73 7.05
-1 8 11 105.66 5.03
-1 8 10 36.82 2.42
-1 8 10 41.85 4.54
-1 8 9 62.66 2.99
-1 8 9 62.11 5.08
-1 8 9 62.61 3.99
-1 8 8 0.38 1.29
-1 8 8 1.15 3.01
-1 8 8 0.62 1.03
-1 8 7 142.06 6.04
-1 8 7 141.98 6.61
-1 8 6 106.04 5.71
-1 8 6 117.42 5.12
-1 8 5 20.1 2.12
-1 8 5 18.73 1.62
-1 8 5 19.46 3.29
-1 8 4 9.89 1.91
-1 8 4 4.26 0.7
-1 8 4 6.84 2.99
-1 8 4 6.34 1.38
-1 8 3 194.8 7.24
-1 8 3 173.56 8.02
-1 8 3 172.07 7.49
1 -8 -3 176.32 7.08
-1 8 2 131.1 6.41
-1 8 2 122.08 5.74
1 -8 -2 124.74 5.43
-1 8 1 16.95 2.05
1 -8 -1 17.13 1.51
-1 8 1 16.2 1.87
-1 8 0 18.78 2.33
1 -8 0 17.23 1.68
1 -8 0 19.82 1.87
-1 8 0 14.69 2.07
-1 8 -1 86.49 4.74
1 -8 1 88.56 4.38
-1 8 -1 94.11 4.72
1 -8 1 95.08 4.41
-1 8 -2 115 5.74
1 -8 2 111.09 5.34
-1 8 -2 96.81 5.48
1 -8 2 113.18 5.36
-1 8 -2 98.95 4.44
1 -8 3 4.17 1.26
-1 8 -3 3.82 1.78
1 -8 3 5.39 1.56
-1 8 -3 2.44 0.96
1 -8 4 98.79 4.94
1 -8 4 90.78 4.83
-1 8 -4 85.84 5.13
1 -8 5 148.95 6.72
1 -8 5 158.92 6.63
1 -8 6 167.88 7.74
-1 8 -6 140.91 6.45
1 -8 7 0.1 1.26
1 -8 7 1.19 1.37
1 -8 8 29.08 3.08
1 -8 8 29.86 2.59
1 -8 9 7.21 1.95
1 -8 10 74.13 4.4
1 -8 11 2.54 1.78
1 -8 11 3.34 1.76
1 -8 12 23.87 3.13
1 -8 12 23.31 2.67
1 -8 13 9.29 2.42
-1 8 -13 4.94 2.42
1 -8 13 7.25 2.25
1 -8 14 22.76 3.21
1 -8 14 18.75 2.81
-1 7 15 1.45 2.44
-1 7 14 127.18 7.38
-1 7 13 7.85 2.9
-1 7 13 12.99 2.86
-1 7 12 30.95 3.72
-1 7 12 36.28 3.62
-1 7 11 2.23 2.56
-1 7 11 1.92 2.1
-1 7 10 191.1 7.36
-1 7 10 221.91 7.27
-1 7 9 43.82 4.13
-1 7 9 23.26 2.11
-1 7 8 51.93 2.63
-1 7 8 55.83 4.55
-1 7 8 45.52 2.89
-1 7 7 0.45 1.12
-1 7 7 0.67 2.34
-1 7 7 1.07 0.91
-1 7 6 120.66 5.65
-1 7 6 131.6 6.85
-1 7 6 122.19 5.15
-1 7 5 26.01 2.37
-1 7 5 26.21 1.81
-1 7 5 32.02 3.44
-1 7 4 10.27 0.72
-1 7 4 11.49 1.58
-1 7 4 11.11 0.71
-1 7 4 9.63 2.48
-1 7 4 11.45 1.2
1 -7 -4 9.62 0.67
-1 7 3 41.32 3.05
-1 7 3 39 2.16
-1 7 3 39.05 2.39
1 -7 -3 31.67 1.94
-1 7 2 302.4 12.37
-1 7 2 307.9 11.92
1 -7 -2 305.17 11.64
-1 7 1 73.42 4.23
1 -7 -1 72.92 3.6
-1 7 1 67.46 3.79
1 -7 -1 81.71 3.66
1 -7 0 9.93 1.22
-1 7 0 11.49 1.65
1 -7 0 10.57 1.37
-1 7 0 10.89 1.58
-1 7 -1 119.03 5.7
1 -7 1 105.02 5.09
-1 7 -1 106.88 5.45
1 -7 1 116.4 5.16
-1 7 -1 100.94 4.56
-1 7 -2 94.69 4.9
1 -7 2 98.8 4.69
1 -7 2 99.93 4.64
-1 7 -2 95.63 4.87
-1 7 -2 84.21 3.92
1 -7 3 93.38 4.98
-1 7 -3 94.45 5.27
1 -7 3 105.36 5.1
-1 7 -3 99.02 4.32
1 -7 4 1.93 1.06
-1 7 -4 2.72 1.05
1 -7 4 1.89 1.44
-1 7 -4 2.68 1.76
-1 7 -5 104.88 5.15
1 -7 5 89.29 4.94
1 -7 5 100.06 5.1
1 -7 6 3.59 1.49
-1 7 -6 10.46 1.96
1 -7 6 5.92 2.08
-1 7 -6 5.82 1.48
-1 7 -7 55.43 3.71
1 -7 7 55.62 3.29
-1 7 -7 45.33 3.13
1 -7 8 6.16 1.5
1 -7 9 100.68 5.19
1 -7 10 9.42 2.19
1 -7 10 12.46 2.07
1 -7 11 31.48 3.4
1 -7 11 36.1 3.06
1 -7 12 3.73 1.79
1 -7 12 3.5 1.91
1 -7 13 44.75 4.1
1 -7 13 49.71 3.65
1 -7 14 10.44 2.39
1 -7 14 10.32 2.4
1 -7 15 6.25 2.2
1 -7 15 4.71 2.26
-1 6 16 4.28 2.63
-1 6 15 24.42 3.45
-1 6 14 0.11 2.25
-1 6 13 88.72 6.5
-1 6 13 165.75 7.54
-1 6 12 6.6 2.63
-1 6 12 9.29 2.57
-1 6 11 17.47 2.92
-1 6 11 19.54 2.86
-1 6 10 2.81 2.35
-1 6 10 2.76 1.81
-1 6 9 347 10.69
-1 6 9 183.76 8.32
-1 6 8 24.64 3.07
-1 6 8 12.88 1.56
-1 6 7 2.53 1.01
-1 6 7 3.05 2.28
-1 6 6 62.03 3.59
-1 6 6 65.2 3.08
-1 6 5 580.46 22.6
-1 6 5 611.19 22.11
-1 6 5 613.38 23.48
-1 6 4 44.48 1.89
-1 6 4 40.15 1.87
1 -6 -4 41.8 1.87
-1 6 3 23 1.33
1 -6 -3 21.81 1.26
-1 6 3 20.04 1.48
1 -6 -2 89.13 3.91
-1 6 2 89.5 4.17
1 -6 -1 284.27 10.78
-1 6 1 270.02 10.83
1 -6 -1 281.94 10.69
1 -6 0 59.55 3.16
-1 6 0 56.44 3.31
1 -6 1 10.41 1.22
1 -6 1 11.36 1.32
-1 6 -1 8.12 1.09
-1 6 -1 9.97 1.5
1 -6 2 202.04 8.84
1 -6 2 223.73 8.82
-1 6 -2 192.73 8.99
-1 6 -2 219.8 8.32
1 -6 3 307.96 11.93
1 -6 3 305.15 11.79
-1 6 -3 304.43 12.04
-1 6 -3 274.6 11.06
1 -6 4 82.83 4.58
1 -6 4 89.46 4.65
-1 6 -4 86.49 4.03
-1 6 -5 22.81 2.18
1 -6 5 26.68 2.41
-1 6 -5 24.29 1.84
1 -6 5 29.27 1.96
-1 6 -6 191.85 7.9
1 -6 6 186.08 8.03
-1 6 -7 48.21 3.23
-1 6 -7 42.72 2.86
-1 6 -8 44.77 3.26
1 -6 8 46.42 3.01
-1 6 -8 38.02 2.93
1 -6 9 16.15 2.23
1 -6 9 16.9 2.02
-1 6 -9 18.95 2.18
1 -6 10 144.29 7.96
1 -6 10 154.34 7.18
-1 6 -10 160.06 7.49
1 -6 11 3.13 1.78
-1 6 -11 5.2 1.94
1 -6 11 6.52 1.9
1 -6 12 15.36 2.61
1 -6 12 18 2.47
1 -6 13 1.56 1.72
1 -6 13 0.08 1.78
1 -6 14 58.93 5.03
1 -6 14 64.29 4.4
1 -6 15 6.83 2.3
1 -6 15 9.15 2.43
1 -6 16 3.93 2.13
1 -6 16 4.96 2.38
-1 5 16 101.71 6.65
-1 5 15 -0.12 2.38
1 -5 -14 3.61 0.89
-1 5 14 8.43 2.48
1 -5 -13 1 0.61
1 -5 -13 0.68 0.75
-1 5 13 0.42 2.14
-1 5 13 2.64 2.32
1 -5 -12 247.14 9.45
1 -5 -12 244.33 9.41
1 -5 -11 2.32 0.6
1 -5 -11 3.03 0.71
-1 5 11 2.83 2.22
-1 5 11 4.11 2.06
-1 5 10 2.7 0.54
1 -5 -10 6.19 0.74
-1 5 10 5.29 2.32
-1 5 9 1.22 0.76
-1 5 9 2.51 2.08
1 -5 -9 2.26 0.5
-1 5 8 172.59 7.69
-1 5 8 291.96 9.45
-1 5 7 12.49 1.53
-1 5 7 23.28 2.82
-1 5 6 65.4 4.17
-1 5 5 31.52 3
-1 5 4 637.51 23.18
-1 5 4 667.83 23.47
-1 5 4 685.68 24.69
1 -5 -4 634.26 23.17
-1 5 3 36.54 1.85
-1 5 3 36.97 1.97
1 -5 -3 33.04 1.77
-1 5 2 131.65 5.08
1 -5 -2 124.24 5
-1 5 2 117.14 5.02
1 -5 -1 125.9 5.56
-1 5 1 123.99 5.6
1 -5 0 795.93 28.86
1 -5 0 780.9 28.66
-1 5 0 780.16 28.83
1 -5 1 35.08 2.32
1 -5 1 36.22 2.3
-1 5 -1 33.44 2.49
1 -5 2 295.46 11.58
1 -5 2 300.78 11.46
-1 5 -2 276.08 11.55
-1 5 -2 293.31 11.04
1 -5 3 258.67 11.2
1 -5 3 286.59 11.31
-1 5 -3 249.2 11.39
-1 5 -3 297.27 10.67
1 -5 4 448.87 16.74
1 -5 4 447.78 16.25
-1 5 -4 406.97 16.08
-1 5 -5 33.07 2.61
1 -5 5 31.96 2.69
-1 5 -5 33.38 2.3
-1 5 -6 73.94 3.87
-1 5 -6 64.71 3.49
1 -5 7 232.25 10.83
-1 5 -7 247.84 10.35
1 -5 8 138.71 6.89
-1 5 -8 146.72 6.48
1 -5 8 134.06 6.16
-1 5 -8 132.16 6.22
1 -5 9 8.35 1.89
-1 5 -9 14.03 2
1 -5 9 13.93 1.97
1 -5 10 45.71 3.59
-1 5 -10 44.86 3.1
1 -5 10 43.67 3.08
1 -5 11 147.29 8.34
-1 5 -11 171.13 7.74
1 -5 11 169.34 7.74
1 -5 12 44.24 3.82
1 -5 12 39.13 3.2
-1 5 -12 45.61 3.2
1 -5 13 9.32 2.18
-1 5 -13 6.82 1.99
-1 5 -13 4.84 1.69
1 -5 14 0.65 1.71
1 -5 14 3.31 1.96
1 -5 15 64.69 5.27
1 -5 15 70.37 4.87
1 -5 16 0.98 1.83
1 -5 16 4.65 2.35
-1 4 16 7.77 2.92
1 -4 -15 134.67 6.53
-1 4 15 174.41 8.55
1 -4 -14 2.81 1.06
-1 4 14 2.57 2.36
1 -4 -13 8.65 1.2
1 -4 -13 9.47 1.29
-1 4 13 12.46 2.72
1 -4 -12 6.65 1.08
1 -4 -12 6.82 1.18
-1 4 12 4.11 2.23
-1 4 12 6.3 1.82
-1 4 12 10.13 2.58
1 -4 -11 276.06 10.75
1 -4 -11 276.76 10.8
-1 4 11 247.44 11.54
1 -4 -10 1.56 0.67
1 -4 -10 1.92 0.78
-1 4 10 0.38 1.92
-1 4 10 1.38 1.85
1 -4 -9 21.64 1.31
1 -4 -9 20.11 1.2
-1 4 9 18.43 2.31
-1 4 8 0.77 0.67
1 -4 -8 0.72 0.47
-1 4 8 0.36 1.7
1 -4 -8 0.5 0.54
1 -4 -8 0.55 0.52
1 -4 -7 364.32 13.44
1 -4 -7 358.13 13.43
-1 4 7 366.01 14.48
1 -4 -7 367.53 13.41
-1 4 6 1.48 1.61
1 -4 -6 0.65 0.43
1 -4 -6 0.39 0.37
1 -4 -5 134.62 5.11
1 -4 -5 130.38 5.06
-1 4 4 7.49 1.8
-1 4 4 4.66 0.53
-1 4 3 362.4 13.42
-1 4 3 377.54 13.44
-1 4 3 356.14 13.43
-1 4 3 379.31 14.44
-1 4 2 1.51 0.61
-1 4 2 1.84 1.37
-1 4 2 1.29 0.56
-1 4 1 129.5 5.14
1 -4 -1 128.47 5.04
1 -4 0 57.99 2.87
-1 4 0 50.73 2.86
1 -4 0 59.87 2.81
1 -4 1 196.98 7.61
1 -4 1 188.5 7.4
-1 4 -1 181.95 7.5
-1 4 -1 182.13 7.22
1 -4 2 1.6 0.79
-1 4 -2 1.23 1.06
1 -4 2 1.08 1.01
-1 4 -2 1.48 0.89
1 -4 3 341.83 13.12
-1 4 -3 330.96 12.67
1 -4 3 344.04 12.8
-1 4 -4 210.99 8.64
1 -4 4 226.21 8.88
1 -4 5 85.27 3.94
-1 4 -5 83.05 3.89
1 -4 6 4.5 1.26
-1 4 -6 7.4 1.37
-1 4 -6 5.69 1.45
1 -4 7 78.43 4.41
-1 4 -7 79.89 4.02
-1 4 -7 75.37 4.02
-1 4 -8 221.72 9.08
1 -4 8 202.46 9.45
1 -4 8 208.52 9.55
1 -4 8 221.13 8.94
-1 4 -8 198.27 9
1 -4 9 27.74 2.56
1 -4 9 28.02 2.82
-1 4 -9 30.89 2.35
1 -4 9 29.52 2.29
1 -4 10 2.68 1.49
-1 4 -10 4.71 1.51
1 -4 10 6.81 1.73
1 -4 11 18.77 2.37
-1 4 -11 16.91 1.99
1 -4 11 16.42 2.16
1 -4 12 130.73 6.74
1 -4 12 145.31 6.03
-1 4 -12 136.46 5.63
1 -4 13 11.77 2.19
-1 4 -13 0.74 0.9
-1 4 -13 0.11 1.03
1 -4 13 12.33 2.11
1 -4 14 8.56 2.2
1 -4 14 13.28 2.42
1 -4 15 5.38 1.97
1 -4 15 6.33 2.2
1 -4 16 63.22 5.39
1 -4 16 83.62 5.29
1 -4 17 1.53 1.94
1 -4 17 -0.21 2.31
1 -3 -16 20.99 2.26
-1 3 16 23.9 3.54
1 -3 -15 5.07 1.47
-1 3 15 7.48 2.69
1 -3 -14 130.83 6.33
1 -3 -14 121.89 6.1
1 -3 -13 1.65 1.17
-1 3 13 2.81 1.7
-1 3 13 2.79 2.27
1 -3 -12 89.3 4.1
-1 3 12 82.72 4.28
1 -3 -11 3.11 1.09
-1 3 11 2.78 1.98
-1 3 11 2.98 1.52
-1 3 11 5.8 2.09
1 -3 -10 327.42 12.45
1 -3 -10 321.12 12.51
-1 3 10 285.85 12.7
-1 3 10 319.9 12.62
-1 3 10 334.12 13.49
1 -3 -9 0.87 0.66
-1 3 9 0.84 1.81
1 -3 -9 0.57 0.77
1 -3 -9 0.98 0.75
1 -3 -8 232.6 8.41
-1 3 8 233.71 9.05
1 -3 -8 231.2 8.39
1 -3 -8 219.19 8.43
1 -3 -7 0.85 0.51
-1 3 7 0.51 1.39
1 -3 -7 0.66 0.54
1 -3 -7 1.04 0.58
1 -3 -6 547.61 20.81
1 -3 -6 575.21 20.8
-1 3 6 588.11 21.48
1 -3 -6 566.93 20.7
1 -3 -5 1.3 0.44
-1 3 5 2.5 1.41
1 -3 -5 1.6 0.51
1 -3 -5 1.05 0.44
1 -3 -4 1182.22 43.3
-1 3 4 1279.31 44.22
-1 3 3 46.07 2.15
-1 3 3 43.37 2.12
1 -3 -3 47.26 2.22
-1 3 2 790.86 28.32
-1 3 2 772.85 28.14
-1 3 2 812.33 29
-1 3 1 8.05 0.88
1 -3 -1 8.29 0.7
-1 3 1 5.7 0.69
1 -3 0 1475.42 52.47
-1 3 0 1446.01 52.57
1 -3 1 109.72 4.9
-1 3 -1 92.78 4.89
-1 3 -2 274.17 10.35
1 -3 3 2.34 0.96
-1 3 -3 1.82 0.87
1 -3 4 394.57 16.05
1 -3 4 423.75 15.68
-1 3 -4 426.3 15.64
-1 3 -5 159.13 6.69
1 -3 5 184.36 6.83
1 -3 6 214.28 9.18
-1 3 -6 217.49 8.75
1 -3 7 8.6 1.49
-1 3 -7 9.99 1.4
-1 3 -7 9.28 1.62
1 -3 7 9.6 1.8
-1 3 -8 264.22 10.32
1 -3 8 263.88 11.01
1 -3 8 259.81 10.89
1 -3 8 239.32 10.35
-1 3 -8 260.55 10.54
1 -3 9 132.33 6.82
1 -3 9 134.84 6.85
-1 3 -9 138.28 6.29
1 -3 9 146.55 6.61
1 -3 10 14.2 1.98
-1 3 -10 12.77 1.58
1 -3 10 11.6 1.82
1 -3 10 13.02 2.11
1 -3 11 10.1 2.02
-1 3 -11 5.14 1.53
-1 3 -11 5.15 1.27
1 -3 11 13.1 2.14
-1 3 -11 12.37 1.75
1 -3 12 23.75 2.7
1 -3 12 25.1 2.66
1 -3 13 83.33 5.75
1 -3 13 99.6 5.54
1 -3 14 12.39 2.28
1 -3 14 14.85 2.42
1 -3 15 25.85 3.23
1 -3 15 33.65 3.41
1 -3 16 9.71 2.37
1 -3 16 15.77 2.89
1 -3 17 48.78 4.58
1 -3 17 53.38 4.48
1 -2 -17 38.17 3.31
1 -2 -16 4.66 1.92
1 -2 -15 13.22 2.02
1 -2 -14 32.36 3.06
-1 2 14 43.01 4.17
1 -2 -13 87.67 5.02
-1 2 13 93.22 5.17
1 -2 -12 7.63 1.75
-1 2 12 7.33 2.08
-1 2 12 13.42 2.83
1 -2 -11 160.18 6.27
1 -2 -11 157.02 6.06
-1 2 11 146.99 6.15
1 -2 -10 6.29 1.28
-1 2 10 2.76 1.77
-1 2 10 7.03 1.62
-1 2 10 7.77 2.16
-1 2 9 154.97 6.52
-1 2 9 138.64 6.58
1 -2 -9 147.64 6.48
1 -2 -9 143.58 6.28
-1 2 8 4.23 1.8
1 -2 -8 4.46 1.06
1 -2 -8 3.19 0.96
-1 2 7 871.95 31.42
1 -2 -7 843.33 31.1
1 -2 -7 837.35 31.22
-1 2 6 1.78 1.4
1 -2 -6 0.79 1.26
1 -2 -6 0.84 0.65
1 -2 -6 1.22 0.59
1 -2 -5 127.87 4.95
-1 2 5 137.39 5.46
1 -2 -5 126.58 4.99
1 -2 -5 142.36 4.95
1 -2 -4 0.78 0.47
1 -2 -4 2.29 1.26
-1 2 4 2.91 1.35
1 -2 -4 1.43 0.57
1 -2 -4 0.88 0.47
1 -2 -3 1243.76 44.15
1 -2 -3 1213.36 44.16
-1 2 3 1235.91 44.63
-1 2 3 1223.41 44.16
-1 2 2 24.78 1.39
1 -2 -2 24.55 1.42
-1 2 2 21.81 1.34
-1 2 1 799.75 28.91
1 -2 0 2.78 0.61
-1 2 -1 3186.22 113.89
-1 2 -2 158.16 6.41
1 -2 3 1184.91 43.38
-1 2 -3 1194.61 43
1 -2 4 5.09 1.07
-1 2 -4 4.1 1.03
1 -2 5 701.47 26.4
-1 2 -5 707.44 26.02
1 -2 5 709.1 26.37
1 -2 6 96.32 4.91
-1 2 -6 102.04 4.69
1 -2 7 1.49 0.87
-1 2 -7 1.54 0.84
1 -2 7 2.05 1.28
-1 2 -7 2.16 1.35
1 -2 8 45.74 3.3
-1 2 -8 49.94 2.81
-1 2 -8 47.2 3.31
1 -2 8 49.12 3.45
1 -2 8 56.41 3.32
1 -2 9 372.28 14.91
1 -2 9 369.15 14.83
-1 2 -9 374.39 14
1 -2 9 343.89 14.43
1 -2 10 80.67 4.35
-1 2 -10 49.69 2.37
-1 2 -10 39.88 2.3
1 -2 10 89.82 4.54
1 -2 10 98.96 4.4
-1 2 -10 88.65 3.51
1 -2 11 3.15 1.37
-1 2 -11 2.25 1.16
1 -2 11 3.3 1.67
1 -2 12 50.31 3.98
1 -2 12 61.98 4.14
1 -2 13 127.97 7.05
1 -2 13 129.88 6.75
1 -2 14 51.34 4.34
1 -2 14 66.67 4.67
1 -2 15 0.8 1.52
1 -2 15 -0.82 2.05
1 -2 16 33.96 3.78
1 -2 16 53.35 4.37
1 -2 17 23.66 3.14
1 -2 17 25.82 3.31
1 -1 -17 27.57 3.23
1 -1 -16 50.63 4.02
1 -1 -15 3.2 1.68
1 -1 -14 86.81 5.17
1 -1 -13 44.02 3.6
1 -1 -12 60.7 3.67
1 -1 -12 56.34 3.74
-1 1 12 59.03 3.82
1 -1 -11 12.66 1.93
1 -1 -11 10.06 1.81
-1 1 11 11.44 2.18
1 -1 -10 112.2 5.43
1 -1 -10 116.72 5.64
-1 1 10 110.55 5.46
1 -1 -9 56.67 3.39
-1 1 9 34.81 3.19
1 -1 -9 33.93 2.81
-1 1 9 59.42 3.37
-1 1 9 60.89 3.99
1 -1 -8 34.26 2.02
1 -1 -8 10.49 1.77
-1 1 8 34.01 2.18
-1 1 8 24.53 2.22
1 -1 -7 7.9 1.28
1 -1 -7 4.94 1.12
-1 1 7 8.97 1.94
-1 1 7 6.06 1.41
1 -1 -6 984.29 32.52
1 -1 -6 932.82 32.66
-1 1 6 1026.17 32.71
-1 1 6 927.45 32.5
-1 1 5 2.65 0.54
1 -1 -5 2.23 0.73
1 -1 -5 1.95 0.67
1 -1 -5 4.85 1.42
-1 1 5 3.99 1.41
-1 1 5 2.22 0.89
1 -1 -4 816.41 29.52
1 -1 -4 827.55 29.36
-1 1 4 801.68 29.33
-1 1 4 884.43 29.71
1 -1 -3 1.46 0.51
1 -1 -3 1.57 0.57
-1 1 3 1.56 0.58
-1 1 3 1.53 1.18
-1 1 3 1.45 0.59
1 -1 -2 1563.78 57.17
-1 1 2 1606.07 57.18
-1 1 2 1656.41 57.43
-1 1 2 1569.97 57.17
-1 1 1 2.46 0.57
-1 1 1 2.4 0.5
-1 1 0 109.92 4.42
1 -1 0 115.43 4.68
1 -1 1 0.64 0.84
-1 1 -1 1.34 0.64
-1 1 -2 421.1 15.49
-1 1 -3 23.65 1.63
-1 1 -3 24.64 1.73
1 -1 4 4.89 0.86
-1 1 -4 5.66 0.91
-1 1 -4 4.83 1.22
1 -1 5 19.74 1.92
-1 1 -5 22.93 1.37
1 -1 6 607.65 20.17
-1 1 -6 615.83 19.91
-1 1 -7 44.45 1.92
-1 1 -7 38.89 2.84
1 -1 8 1.13 0.89
-1 1 -8 1.78 0.79
-1 1 -8 1.44 1.58
1 -1 9 75.63 4.51
-1 1 -9 81.45 3.7
1 -1 10 335.63 13.46
1 -1 10 327.91 13.45
-1 1 -10 319.4 12.26
1 -1 11 68.13 4.55
1 -1 11 70.53 4.67
1 -1 12 0.27 1.12
1 -1 12 -0.17 1.74
1 -1 13 80.7 5.35
1 -1 13 92.16 5.48
1 -1 14 121.77 6.58
1 -1 14 117.41 6.53
1 -1 15 41.47 3.88
1 -1 15 53.84 4.34
1 -1 16 3.41 1.71
1 -1 16 5.74 2.53
1 -1 17 28.23 3.54
1 -1 17 43.32 4.15
1 -1 18 15.7 2.59
1 -1 18 11.46 2.94
1 0 -17 14.65 2.49
-1 0 17 10.27 2.98
1 0 -16 43.12 4.32
-1 0 16 72.32 5.16
1 0 -15 1.79 1.54
-1 0 15 0.23 2.14
1 0 -14 21.25 2.94
-1 0 14 36.84 3.75
1 0 -13 110.22 6.15
1 0 -12 41.32 3.45
1 0 -12 50.6 3.8
-1 0 12 50.55 3.66
1 0 -11 21.72 2.07
1 0 -11 17.98 2.13
-1 0 11 20.18 2.24
1 0 -10 14.3 2
1 0 -10 10.33 1.76
-1 0 10 17.21 2.2
1 0 -10 12.75 2
1 0 -9 752.55 16.31
1 0 -9 751.43 16.92
-1 0 9 730.28 16.2
1 0 -8 19.08 1.98
-1 0 8 17.48 1.26
1 0 -7 61.65 2.73
1 0 -7 50.83 2.34
-1 0 7 62.51 2.7
-1 0 7 50.97 1.57
-1 0 6 26.12 2.27
-1 0 6 18.34 1.85
1 0 -6 28.71 2.25
1 0 -6 18.33 1.81
1 0 -6 15.73 1.61
1 0 -5 1263.72 45.8
-1 0 5 1251.22 46.02
-1 0 5 1236.55 45.76
1 0 -5 1264.51 46.01
1 0 -5 1298.4 45.84
1 0 -4 26.02 1.94
-1 0 4 25.04 1.99
-1 0 4 19.49 1.56
1 0 -4 17.02 1.55
1 0 -4 15.06 1.36
-1 0 3 10.46 0.85
1 0 -3 18.76 1.75
-1 0 3 16.35 1.64
-1 0 3 13.06 1.21
-1 0 2 0.98 0.54
-1 0 2 0.77 0.56
-1 0 2 1.66 1.21
-1 0 2 1.15 0.53
-1 0 1 1231.17 43.25
-1 0 1 1207.06 43.23
-1 0 1 1187.88 42.95
1 0 0 -0.03 0.33
1 0 0 0.04 0.78
1 0 1 14.51 0.94
1 0 1 16.44 1.12
-1 0 -1 14.52 1.03
1 0 2 1.45 0.76
-1 0 -2 1.65 0.68
-1 0 -3 1213.59 44.69
1 0 3 1302.7 44.67
-1 0 -3 1199.13 44.93
-1 0 -4 3.91 0.99
1 0 5 99.66 4.46
-1 0 -5 97.75 4.54
1 0 6 36.92 2.78
-1 0 -6 52.44 3
1 0 7 832.23 31.04
-1 0 -7 839 30.97
1 0 8 21.09 1.98
-1 0 -8 21.49 1.34
1 0 9 160.94 6.82
-1 0 -9 141.92 5.63
1 0 10 50.65 3.42
1 0 11 486.42 19.27
1 0 12 10.87 1.83
1 0 13 43.56 3.4
1 0 14 60.66 4.37
1 0 15 65.07 4.37
1 0 16 11.66 2.31
1 0 17 2.22 1.6
1 0 17 4.6 2.47
1 0 18 43.58 4.35
1 0 18 62.52 5.18
1 1 -17 23.15 3.37
-1 -1 17 32.98 3.95
1 1 -16 28.01 3.31
-1 -1 16 31.91 3.75
1 1 -15 24.76 3.29
-1 -1 15 41.35 3.94
1 1 -14 -0.12 1.62
-1 -1 14 0.73 2.16
1 1 -13 60.6 4.89
-1 -1 13 89.66 5.36
1 1 -12 202.17 6.57
-1 -1 12 239.38 6.78
1 1 -11 55.8 3.91
1 1 -11 52.99 3.5
-1 -1 11 51.83 3.55
1 1 -10 4.16 1.41
1 1 -10 5.79 1.26
1 1 -10 2.67 1.7
-1 -1 10 5.35 1.73
-1 -1 10 5.14 1.78
-1 -1 9 96.47 5.09
1 1 -9 92.91 4.89
1 1 -8 492.72 16.51
-1 -1 8 482.38 17.44
1 1 -8 496.27 17.35
-1 -1 8 475.75 17.24
1 1 -7 49.4 2.49
-1 -1 7 44.78 2.98
1 1 -7 48.8 2.96
-1 -1 7 40.48 2.39
1 1 -6 8.48 0.85
-1 -1 6 8.81 1.09
-1 -1 6 8.26 1.62
1 1 -6 11.07 1.62
-1 -1 6 10.6 0.95
1 1 -5 39.58 2.17
1 1 -5 31.71 2.44
-1 -1 5 35.85 2.53
1 1 -4 1008.38 36.75
-1 -1 4 975.99 36.94
1 1 -4 1115.59 37.16
1 1 -4 987.7 37.15
1 1 -3 8.03 0.91
1 1 -3 9.16 1.6
-1 -1 3 8.28 1.04
-1 -1 2 4.69 0.89
-1 -1 1 11.59 0.88
1 1 -1 10.31 1.02
1 1 0 712.63 26.59
1 1 0 722.37 26.52
1 1 0 727.69 26.59
1 1 0 787.55 26.73
1 1 1 0.06 0.42
1 1 1 0.3 0.37
1 1 1 0.4 0.77
1 1 1 0.73 0.5
1 1 2 301.08 10.96
1 1 2 289.71 10.91
1 1 4 1186.13 42.48
1 1 6 981.96 36.24
-1 -1 -6 997.48 36.32
1 1 7 8.97 1.4
-1 -1 -7 13.32 1.72
1 1 8 757.42 28.25
1 1 9 4.3 1.21
1 1 9 4.37 1.66
1 1 10 93.52 4.76
1 1 10 94.64 5.07
1 1 11 66.33 4.35
1 1 11 84.98 5.06
1 1 12 90.81 4.97
1 1 13 5.37 1.65
1 1 14 96.13 5.32
1 1 15 39.14 3.48
1 1 16 49.32 3.76
1 1 17 -0.19 1.39
-1 -1 -18 52.87 4.41
1 2 -17 0.29 1.94
-1 -2 17 0.98 2.49
1 2 -16 62.93 5.52
-1 -2 16 87.9 5.78
1 2 -15 37 3.75
-1 -2 15 37.68 3.74
1 2 -14 30.92 3.65
-1 -2 14 40.91 3.93
1 2 -13 0.36 1.52
1 2 -13 0.52 1.54
-1 -2 13 2.08 1.94
1 2 -12 78.48 5.3
1 2 -12 43.2 3.58
1 2 -11 162.98 4.92
1 2 -11 161.58 6.88
1 2 -11 163.87 6.37
-1 -2 11 173.3 6.51
1 2 -10 37.66 2.28
1 2 -10 30.92 2.86
-1 -2 10 31.77 2.86
1 2 -10 19.8 2.66
-1 -2 10 39.49 2.99
-1 -2 10 48.91 3.3
1 2 -9 3.69 0.98
1 2 -9 2.49 1.18
-1 -2 9 4.04 1.24
1 2 -9 2.78 1.92
-1 -2 9 4.85 1.6
-1 -2 9 3.66 1.63
1 2 -8 93.01 4.63
-1 -2 8 99.86 5.29
1 2 -8 84.15 5.13
-1 -2 8 105.59 5.17
1 2 -8 119.71 5.33
-1 -2 8 127.3 5.7
-1 -2 7 503.47 19.5
-1 -2 7 520.07 20.14
1 2 -7 547.89 20.13
-1 -2 7 507.37 19.89
1 2 -7 547.6 19.92
-1 -2 7 529.68 20.02
-1 -2 6 27.3 1.96
-1 -2 6 29.43 2.28
-1 -2 6 32.61 2.35
1 2 -6 30.6 2.68
-1 -2 5 2.28 0.76
-1 -2 5 2.33 0.78
1 2 -5 1.52 1.39
-1 -2 5 3.05 1.24
1 2 -5 2.21 1.25
-1 -2 4 68.68 3.72
-1 -2 4 70.94 3.79
1 2 -4 76.95 4.49
-1 -2 3 693.94 25.48
-1 -2 3 686.94 25.35
-1 -2 3 692.04 25.3
1 2 -2 1.89 0.76
-1 -2 2 2.71 0.81
-1 -2 2 1.78 0.78
1 2 -1 1497.4 53.19
-1 -2 1 1457.36 52.96
1 2 0 40.59 2.41
-1 -2 0 53.01 2.29
1 2 1 2755.38 103.74
1 2 1 2792.3 103.73
1 2 1 3064.8 103.58
1 2 2 1.01 0.53
1 2 2 1.54 0.6
1 2 3 776.48 28.39
-1 -2 -3 795.7 28.41
1 2 3 786.48 28.51
1 2 4 4.36 0.61
-1 -2 -4 4.2 0.7
1 2 4 5.63 1.05
1 2 5 933.31 34.1
1 2 6 0.38 0.58
1 2 6 0.94 1.09
1 2 7 233.18 9.58
1 2 7 248.31 9.06
1 2 8 9.39 1.31
1 2 8 12.13 1.97
1 2 9 583.88 21.84
1 2 9 572.73 22.26
1 2 10 2.13 1.03
1 2 10 2.21 1.6
1 2 11 181.01 8
1 2 11 187.77 8.58
1 2 12 16.19 2.03
1 2 12 19.45 2.68
1 2 13 93.92 4.98
1 2 13 94.14 5.66
1 2 14 3.62 1.36
1 2 14 4.49 2.38
1 2 15 79.7 4.68
1 2 15 85.2 5.58
1 2 16 26.47 2.89
1 2 16 40.74 4.26
1 2 17 6.44 2.68
-1 -2 -18 1.5 1.71
1 3 -16 3.49 2.12
-1 -3 16 4.66 2.47
1 3 -15 63.64 5.66
-1 -3 15 102.79 5.92
1 3 -14 18.07 2.92
-1 -3 14 26.89 3.16
1 3 -13 14.8 1.65
1 3 -13 17.15 2.8
1 3 -12 6.7 1.25
1 3 -12 3.95 1.66
1 3 -12 1.79 1.92
-1 -3 12 6.8 2.05
1 3 -11 112.2 4.93
-1 -3 11 101.58 5.78
1 3 -10 31.35 2.17
-1 -3 10 32.34 2.73
1 3 -10 29 2.65
-1 -3 10 32.24 2.8
-1 -3 10 36.41 2.89
1 3 -9 5.28 1.6
-1 -3 9 4.44 1.46
1 3 -9 4.11 2.2
-1 -3 9 9.34 1.96
-1 -3 9 9.32 1.96
1 3 -8 45.6 3.05
-1 -3 8 50.17 3.18
1 3 -8 45.38 3.32
-1 -3 8 44.18 3.08
-1 -3 8 46.37 3.01
-1 -3 7 132.02 5.89
1 3 -7 133.93 6.55
-1 -3 7 138.4 6.14
-1 -3 7 124.94 6.14
1 3 -7 112.22 6.01
-1 -3 6 234.12 9.32
-1 -3 6 237.12 9.71
1 3 -6 207.63 9.84
-1 -3 6 242.15 9.59
-1 -3 5 3.58 1.01
-1 -3 5 2.83 1.1
-1 -3 5 3.57 1.3
-1 -3 5 5.92 1.24
-1 -3 4 365.4 14.12
-1 -3 4 354.78 13.98
-1 -3 4 372.03 13.96
-1 -3 3 85.84 4.54
-1 -3 3 96.31 4.5
-1 -3 2 286.99 11.66
-1 -3 2 303.6 11.61
-1 -3 2 322.75 11.72
1 3 -1 2.86 0.92
1 3 -1 3.49 0.76
-1 -3 1 3.85 0.94
1 3 0 530.94 19.25
1 3 0 528.13 19.08
-1 -3 0 503.26 19.08
1 3 1 41.75 2.7
-1 -3 -1 39.51 2.61
1 3 1 37.35 2.54
-1 -3 -2 1145.32 40.76
1 3 2 1169.56 40.75
1 3 2 1128.65 40.76
1 3 2 1095.51 40.64
-1 -3 -2 1132.94 40.64
-1 -3 -3 2.47 0.54
1 3 3 2.05 0.56
-1 -3 -3 1.9 0.45
-1 -3 -3 2.43 0.79
1 3 3 2.56 0.78
-1 -3 -3 2.06 0.84
-1 -3 -4 1106.05 39.4
-1 -3 -4 1101.08 39.54
1 3 4 1083.93 39.72
-1 -3 -4 1081.5 39.67
-1 -3 -5 11.83 1.06
1 3 5 11.93 1.03
1 3 5 14.89 1.52
-1 -3 -5 12.83 1.19
1 3 6 691.81 23.99
-1 -3 -6 653.93 23.92
1 3 6 631.02 23.7
1 3 6 657.55 24.38
-1 -3 -6 657.74 23.73
1 3 7 1.09 0.63
1 3 7 2.29 1.22
1 3 8 666.57 24.42
1 3 8 664.4 24.15
1 3 8 644.52 24.94
1 3 9 0.94 0.71
1 3 9 1.97 0.97
1 3 9 2.9 1.49
1 3 10 142.5 6.08
1 3 10 137.03 5.38
1 3 10 138.2 6.76
1 3 11 1.47 0.91
1 3 11 2.71 1.81
1 3 12 340.79 13.7
1 3 12 357.47 14.66
1 3 13 6.48 1.35
1 3 13 12.21 2.45
1 3 14 39.43 2.82
1 3 14 48.74 4.04
1 3 15 2.53 1.23
1 3 15 4.42 2.34
1 3 16 122.86 7.21
-1 -3 -17 10.44 1.95
1 3 17 5.43 2.8
1 4 -16 1.77 2.14
-1 -4 16 6.62 2.65
1 4 -15 -0.77 2.09
-1 -4 15 3.82 2.38
1 4 -14 94.42 7.01
-1 -4 14 129.26 6.75
1 4 -13 4.92 1.32
1 4 -13 4.22 2.01
1 4 -13 1.18 2.06
-1 -4 13 5.94 2.16
1 4 -12 5.42 1.5
1 4 -12 2.79 1.95
1 4 -12 2.11 2.22
-1 -4 12 8.87 2.23
-1 -4 11 26.21 2.65
-1 -4 11 32.24 2.78
-1 -4 10 157.46 8.09
1 4 -10 142.05 7.92
-1 -4 9 13.86 1.9
1 4 -9 20.49 2.12
-1 -4 9 19.79 2.31
1 4 -9 13.94 2.54
-1 -4 9 18.06 2.04
-1 -4 8 8.84 1.73
1 4 -8 7.86 1.69
1 4 -8 9.89 2.56
-1 -4 8 12.43 1.88
-1 -4 8 10.97 1.98
-1 -4 7 77.3 4.29
-1 -4 7 81.44 4.41
-1 -4 6 215.48 8.93
-1 -4 6 220.58 8.93
-1 -4 5 79.95 3.95
-1 -4 5 76.23 4.03
-1 -4 5 78.96 4.01
-1 -4 5 72.75 3.56
-1 -4 4 37.49 2.61
-1 -4 4 29.68 2.32
-1 -4 4 33.62 2.41
-1 -4 4 34.46 2.12
-1 -4 3 256.47 9.75
-1 -4 3 240.21 9.57
-1 -4 3 233.29 9.1
1 4 -2 124.86 5.89
-1 -4 2 142.04 5.95
-1 -4 2 135.96 5.37
1 4 -1 242.42 8.98
1 4 -1 225.72 9.11
-1 -4 1 214.49 8.85
1 4 -1 223.74 9.02
1 4 0 11.72 1.4
1 4 0 15.48 1.26
1 4 0 15.51 1.47
1 4 0 16.32 1.63
1 4 1 386.1 14.42
1 4 1 387.86 14.59
1 4 1 398.09 14.68
1 4 1 387.49 14.75
1 4 2 25.05 1.61
1 4 2 22.33 1.5
-1 -4 -3 46.87 2.18
1 4 3 53.1 2.23
1 4 3 52.55 2.24
-1 -4 -3 47.29 2.6
1 4 3 50.79 2.34
-1 -4 -4 9.72 0.79
1 4 4 10.96 0.92
-1 -4 -4 10.3 1.25
-1 -4 -4 8.91 0.76
-1 -4 -5 591.14 21.51
-1 -4 -5 596.08 21.53
-1 -4 -5 602.57 21.88
1 4 5 587.8 22.01
1 4 6 1.83 0.54
-1 -4 -6 1.74 0.51
1 4 6 2.72 1.11
1 4 7 84.87 3.4
1 4 7 79.57 3.37
-1 -4 -7 76.26 3.37
1 4 7 80.1 4.07
-1 -4 -8 0.95 0.63
1 4 8 1.75 0.6
1 4 8 2.27 1.39
1 4 9 483.76 17.59
1 4 9 471.33 17.71
1 4 9 449.11 18.38
1 4 10 0.84 0.7
1 4 10 1.82 1.25
1 4 10 2.91 1.64
1 4 11 5.02 0.95
1 4 11 4.52 1.31
1 4 11 5.17 1.96
1 4 12 0.89 0.8
1 4 12 -0.02 0.88
1 4 12 1.75 1.92
1 4 13 249.96 10.35
1 4 13 283.03 11.89
1 4 14 16.77 3.08
-1 -4 -15 4.35 1.28
1 4 15 3.77 2.35
-1 -4 -16 3.69 1.33
1 4 16 6.7 2.58
-1 -4 -17 118.94 6.07
1 4 17 127.73 7.49
1 5 -16 0.17 1.99
-1 -5 16 0.52 2.23
1 5 -15 1.3 2.06
-1 -5 15 3.79 2.28
1 5 -14 7.66 2.45
-1 -5 14 7.31 2.35
1 5 -13 96.9 6.86
-1 -5 13 113.09 6.09
1 5 -12 1.42 1.86
1 5 -12 0.2 2.29
-1 -5 12 3.12 1.88
-1 -5 11 18.15 2.52
1 5 -11 15.08 3.14
-1 -5 10 80.24 4.86
1 5 -10 65.97 4.87
-1 -5 10 75.58 4.29
-1 -5 9 165.24 8.52
1 5 -9 157.82 8.89
-1 -5 8 56.12 3.74
-1 -5 8 57.41 3.7
-1 -5 8 57.02 3.29
-1 -5 7 27.46 2.51
-1 -5 7 31.87 2.73
-1 -5 6 236.4 10.2
1 5 -6 247.04 10.22
-1 -5 6 233.85 9.99
-1 -5 5 289.92 10.84
1 5 -5 221.75 10.53
-1 -5 5 224.57 10.54
-1 -5 5 261.54 10.56
-1 -5 5 271.07 9.98
-1 -5 4 57.52 3.27
1 5 -4 56.32 3.19
-1 -5 4 53.6 3.11
1 5 -4 55.16 3.18
-1 -5 4 50.97 2.55
-1 -5 3 73.79 4.07
1 5 -3 59.64 3.65
-1 -5 3 64.65 3.73
-1 -5 3 78.87 3.16
1 5 -2 666.55 23.56
-1 -5 2 676.04 23.77
-1 -5 2 610.82 22.64
1 5 -1 223.17 9.48
1 5 -1 256.73 9.9
1 5 0 295.85 11.64
1 5 0 305.89 11.47
1 5 0 287.18 11.56
1 5 0 301.31 11.74
1 5 1 70.43 3.25
1 5 1 74.44 3.63
1 5 1 70.21 3.79
1 5 2 1283.04 45.05
1 5 2 1235.44 45.17
1 5 2 1232.41 45.37
1 5 2 1232.36 45.52
1 5 2 1247.58 44.77
1 5 3 103.92 4.35
1 5 3 104.08 4.57
1 5 3 105.46 4.48
-1 -5 -3 113.49 5.43
1 5 3 117.75 4.61
1 5 4 72.52 2.98
1 5 4 77.49 3.07
-1 -5 -4 76.29 3.66
1 5 4 74.87 3.34
-1 -5 -5 40.05 2.68
1 5 5 47.12 2.74
-1 -5 -6 614.24 22.77
1 5 6 722.24 23.71
1 5 7 10.61 0.69
-1 -5 -7 9.72 0.71
-1 -5 -7 10.63 0.75
1 5 8 29.78 1.42
-1 -5 -8 30.06 1.46
1 5 8 28.55 1.7
1 5 8 31.75 2.44
-1 -5 -9 11.24 1.01
1 5 9 10.03 0.86
-1 -5 -10 249.05 9.6
1 5 10 243.43 9.46
1 5 10 269.1 10.3
1 5 10 266.21 10.84
-1 -5 -11 0.64 0.71
1 5 11 2.18 1.56
1 5 11 1.19 1.81
-1 -5 -12 4.73 0.96
1 5 12 3.12 1.63
1 5 12 6.6 2.17
-1 -5 -13 0.24 0.77
-1 -5 -13 0.89 0.82
1 5 13 0.56 1.28
1 5 13 0.19 1.95
-1 -5 -14 216.44 9.06
1 5 14 241.41 10.83
-1 -5 -15 1.91 0.92
1 5 15 1.78 2.34
-1 -5 -16 11.2 1.46
1 5 16 15.87 2.94
1 5 17 2.36 2.48
1 6 -15 2.4 2.21
-1 -6 15 3.56 2.13
1 6 -14 13.49 2.96
-1 -6 14 17.02 2.68
1 6 -13 8.2 2.51
-1 -6 13 8.24 2.24
1 6 -12 66.63 5.3
-1 -6 12 77.22 4.3
-1 -6 11 0.68 1.5
1 6 -11 0.09 2.5
-1 -6 11 4.69 1.8
-1 -6 10 28.12 3.12
1 6 -10 33.6 4.03
-1 -6 9 2.6 1.48
-1 -6 9 5.93 1.64
-1 -6 8 121.79 7.01
-1 -6 8 156.42 6.46
1 6 -7 14.03 1.93
-1 -6 7 14.98 1.91
-1 -6 7 13.92 2.05
1 6 -6 57.27 3.99
-1 -6 6 69.91 4.02
1 6 -5 80.58 4.32
-1 -6 5 78.82 4.23
1 6 -5 78.2 4.56
-1 -6 5 75.26 3.5
1 6 -4 118.96 6.17
1 6 -4 128.17 6.52
-1 -6 4 135.26 6.25
1 6 -4 142.03 6.41
-1 -6 4 133.08 5.35
-1 -6 3 13.44 1.78
1 6 -3 12.56 1.52
1 6 -3 12.6 1.71
-1 -6 3 12.44 0.95
-1 -6 2 140.17 7.02
-1 -6 2 125.74 6.54
1 6 -2 120.86 6.52
1 6 -2 131.78 6.73
1 6 -1 490.45 18.1
1 6 -1 458.7 18.19
1 6 -1 476.28 18.34
1 6 0 143.51 6.99
1 6 0 155.78 6.71
1 6 0 163.74 7.05
1 6 1 0.67 0.67
1 6 1 0.79 0.73
1 6 1 1.3 1.09
1 6 1 1.92 1.04
1 6 2 57.27 3.19
1 6 2 61.71 3.07
1 6 2 70.29 3.6
1 6 2 53.91 3.67
1 6 2 70.95 2.73
1 6 3 288.19 11.32
1 6 3 308.23 11.33
1 6 3 327.34 11.35
1 6 3 298.6 11.76
1 6 3 293.66 11.92
1 6 3 290.1 11.21
1 6 4 61.15 2.83
1 6 4 74.53 2.92
1 6 4 62.34 2.98
1 6 4 70.05 3.17
1 6 5 6.58 0.54
1 6 5 7.74 1.13
1 6 6 53.46 3.15
1 6 7 637.96 23.93
1 6 8 43.65 3.02
1 6 9 11.58 1.15
1 6 9 11.93 1.86
1 6 10 9.65 0.97
1 6 10 9.66 2.17
1 6 10 12.48 2.24
-1 -6 -11 203.05 7.57
-1 -6 -11 194.54 7.57
-1 -6 -11 205.77 7.58
1 6 11 325.19 9.83
1 6 11 321.96 10.22
-1 -6 -12 0.53 0.45
-1 -6 -12 0.53 0.43
1 6 12 0.71 1.77
1 6 12 0.7 1.84
-1 -6 -13 36.42 1.85
-1 -6 -13 35.92 1.85
1 6 13 45.41 3.03
1 6 13 49.77 3.78
-1 -6 -14 0.98 0.65
-1 -6 -14 0.84 0.62
1 6 15 118.63 6.96
1 6 16 -1.05 2.56
1 6 17 39.27 4.18
1 7 -14 1.37 2.02
-1 -7 14 1.44 1.87
1 7 -13 17.51 3.14
-1 -7 13 19.58 2.47
-1 -7 12 9.5 2.08
-1 -7 11 44.01 3.88
-1 -7 11 50.35 3.32
-1 -7 10 1.7 1.51
-1 -7 10 4.78 1.65
-1 -7 9 66.57 4.83
-1 -7 9 79.35 4.12
-1 -7 8 25.53 2.64
-1 -7 8 24.9 2.1
1 7 -6 0.74 1.19
-1 -7 6 4.07 1.01
-1 -7 6 1.23 1.62
1 7 -6 1.39 1.76
1 7 -5 90.03 5.32
1 7 -5 92.05 5.71
-1 -7 5 114.39 4.53
1 7 -5 110.63 5.6
-1 -7 4 2.93 1.31
1 7 -4 5.35 1.4
1 7 -4 7.67 1.75
1 7 -4 4.6 1.84
-1 -7 4 6.37 0.98
-1 -7 3 53.19 3.57
1 7 -3 54.48 3.68
1 7 -3 60.46 3.92
1 7 -2 -0.35 0.98
-1 -7 2 1.64 0.94
1 7 -2 1.3 1.31
1 7 -1 137.96 6.38
-1 -7 1 150.38 6.55
1 7 -1 148.76 6.7
1 7 -1 158.98 6.9
1 7 0 133.17 5.64
1 7 0 125.66 5.82
1 7 0 122.36 5.79
-1 -7 0 120.69 5.58
1 7 0 130.82 6.03
1 7 1 64.79 3.36
1 7 1 72.75 3.81
1 7 1 78.76 4.01
1 7 2 1.38 0.75
1 7 2 2.29 0.73
1 7 2 1.98 1.16
1 7 2 1.61 0.48
1 7 2 1.77 1.14
1 7 3 76.55 3.65
1 7 3 69.2 3.75
1 7 3 82.71 3.69
1 7 3 88.58 4.31
1 7 3 79.43 4.45
1 7 3 96.56 3.57
1 7 4 374.09 13.59
1 7 4 373.84 13.6
1 7 4 383.7 13.62
1 7 4 357.04 14.23
1 7 4 353.57 14.39
1 7 4 344.44 13.69
1 7 5 15.98 0.97
1 7 5 16.12 1.5
1 7 6 50.5 2.8
1 7 7 19.68 2.01
1 7 8 95.45 4.74
1 7 9 8.86 1.97
1 7 10 101.81 4.37
1 7 10 94.93 5.57
1 7 10 100.26 5.32
1 7 11 21.11 3.12
1 7 11 29.93 3.09
1 7 12 156.68 7.91
1 7 12 185.39 8.33
1 7 13 0.37 2.12
1 7 13 1.15 2.11
1 7 14 64.92 4.67
1 7 15 7.91 2.61
1 7 16 100.32 6.45
1 7 17 0.85 2.53
-1 -8 14 11.91 2.23
-1 -8 13 4.07 1.87
-1 -8 12 47.03 3.37
1 8 -11 5.01 2.51
-1 -8 11 7.33 1.8
-1 -8 10 21.31 2.83
-1 -8 10 27.15 2.3
-1 -8 9 2.48 1.68
-1 -8 9 6.49 1.47
-1 -8 8 142.11 6.2
1 8 -7 6.39 2.53
1 8 -6 23 3
-1 -8 6 24.48 1.81
-1 -8 5 1.36 1.21
1 8 -5 1.15 1.24
1 8 -5 0.87 1.58
-1 -8 5 3.18 1.01
1 8 -5 3.22 2.05
-1 -8 4 261.46 12
1 8 -4 235.12 11.97
1 8 -4 269.17 12.37
-1 -8 4 310.59 10.79
1 8 -4 304.3 12.32
1 8 -3 255.91 10.62
-1 -8 3 250.99 10.61
1 8 -3 241.92 10.77
1 8 -2 71.91 4.29
-1 -8 2 73.43 4.26
1 8 -2 81.1 4.66
1 8 -1 1.28 0.95
1 8 -1 0.85 1.01
1 8 -1 1.23 1.39
-1 -8 1 0.55 1.28
1 8 -1 2.61 1.52
1 8 0 145.93 6.64
1 8 0 134.3 6.9
1 8 0 147.93 6.97
-1 -8 0 157.7 6.75
1 8 0 169.54 7.28
1 8 1 120.05 5.25
1 8 1 115.73 5.36
1 8 1 111.34 5.48
1 8 1 114.7 5.72
1 8 2 8.42 1.18
1 8 2 7.09 1.23
1 8 2 11.33 1.72
1 8 2 11.5 1.94
1 8 3 38.69 2.11
1 8 3 39.73 2.15
1 8 3 40.28 2.19
1 8 3 38.03 2.63
1 8 3 43.12 2.87
1 8 3 35.26 1.81
1 8 4 125.05 5.17
1 8 4 110.49 5.27
1 8 4 130.01 5.3
1 8 4 135.44 6.04
1 8 4 139.21 5.33
1 8 4 120.08 6.13
1 8 5 167.28 6.14
1 8 5 152.88 7.04
1 8 5 157.67 6.59
1 8 6 9.41 1.61
1 8 6 7.93 1.65
1 8 7 36.87 2.51
1 8 8 149.16 6.85
1 8 9 145.84 6.78
1 8 10 2.53 2.41
1 8 10 5.87 2.02
1 8 11 107.38 4.63
1 8 11 98.83 6.09
1 8 11 110.02 5.77
1 8 12 38.99 4.37
1 8 12 44.67 3.8
1 8 13 89.13 5.71
1 8 13 117 6.16
1 8 14 2.76 2.18
1 8 15 87.42 5.65
1 8 16 17.34 3.25
-1 -9 13 5.63 1.91
1 9 -12 3.58 2.2
-1 -9 12 5.51 1.9
1 9 -11 59.96 5.32
-1 -9 11 67.1 3.93
1 9 -10 9.49 2.6
-1 -9 10 9.32 1.79
-1 -9 9 16.43 1.89
-1 -9 7 105.58 6.28
1 9 -7 116.1 6.87
-1 -9 6 3.24 1.63
1 9 -6 4.42 2.5
-1 -9 6 5.49 1.24
-1 -9 5 13.33 2.03
1 9 -5 15.23 2.69
-1 -9 4 4.39 1.41
1 9 -4 4.24 2.09
-1 -9 3 145.58 6.95
1 9 -3 132.37 6.91
1 9 -3 154.58 7.43
1 9 -2 2.96 1.55
1 9 -2 4.81 1.45
-1 -9 2 3.31 1.8
1 9 -2 4.56 1.94
1 9 -1 6.21 1.38
1 9 -1 7.27 1.62
1 9 -1 6.23 1.87
1 9 -1 10.34 2.11
-1 -9 1 7.98 1.78
1 9 0 2.63 1.1
1 9 0 2.77 1.18
1 9 0 3.84 1.65
1 9 0 2.46 1.56
1 9 1 141.45 6.8
1 9 1 147.11 6.7
1 9 1 155.78 7.13
1 9 1 160.31 7.39
1 9 2 43.6 2.68
1 9 2 47.94 2.7
1 9 2 41.07 3.03
1 9 2 45.13 3.25
1 9 3 7.87 1.22
1 9 3 7.83 1.24
1 9 3 8.46 1.95
1 9 3 6.6 1.06
1 9 3 7.97 1.75
1 9 3 11.8 0.94
1 9 4 13.6 1.12
1 9 4 12.1 1.97
1 9 4 17 1.26
1 9 4 14.43 1.89
1 9 4 15.54 1.26
1 9 5 138.12 5.37
1 9 5 131.05 6.42
1 9 5 139.77 5.77
1 9 6 103.28 5.08
1 9 6 98.82 4.54
1 9 7 7.88 1.63
1 9 7 13.99 1.77
1 9 8 47.59 3.11
1 9 8 52.01 3.14
1 9 9 97.07 5.15
1 9 10 42.48 4.25
1 9 10 52.92 3.52
1 9 11 5.49 2.85
1 9 11 12.95 2.43
1 9 12 78.72 5.85
1 9 12 92.45 5.23
1 9 13 39.07 4.93
1 9 13 59.88 4.37
1 9 14 16.74 2.86
1 9 15 0.85 2.3
1 9 16 61.86 4.76
1 10 -12 2.82 2.33
1 10 -11 4.06 2.45
-1 -10 11 8.06 1.78
1 10 -10 38.26 4.2
-1 -10 10 42.27 2.91
1 10 -9 13.88 2.9
-1 -10 9 15.62 1.88
1 10 -8 6.57 2.21
1 10 -7 5.77 2.12
1 10 -7 6.18 2.66
1 10 -6 62.89 4.92
1 10 -5 11.35 2.8
1 10 -4 3.13 1.87
1 10 -4 5.96 2.53
1 10 -3 0.82 1.47
1 10 -3 3.99 2.11
1 10 -2 109.92 6.02
1 10 -2 107.13 5.74
1 10 -2 105.16 6.04
1 10 -1 13.4 2
1 10 -1 14.84 1.93
1 10 -1 13.46 2.32
1 10 0 8.07 1.56
1 10 0 10.44 1.72
1 10 0 11.11 2.16
1 10 1 8.32 1.45
1 10 1 6.45 1.38
1 10 1 6.93 1.96
1 10 2 95.88 5.27
1 10 2 96.05 4.78
1 10 2 99.98 4.89
1 10 3 21.6 1.62
1 10 3 23.79 1.75
1 10 3 21.52 2.28
1 10 4 33.63 2.33
1 10 4 34.22 2.16
1 10 4 40.1 3.07
1 10 4 36.06 3.21
1 10 5 46.18 2.14
1 10 5 46.37 3.26
1 10 5 48.73 2.45
1 10 6 125.49 6.41
1 10 6 141.39 5.86
1 10 7 9.36 1.77
1 10 7 9.9 1.5
1 10 8 23.83 2.45
1 10 8 34.32 2.67
1 10 9 45.33 3.2
1 10 9 50.75 3.21
1 10 10 57.65 3.75
1 10 10 47.55 5.4
1 10 11 13.07 3.3
1 10 11 12.45 1.91
1 10 11 15.05 2.32
1 10 12 3.39 3.17
1 10 12 9.02 2.28
1 10 13 39.2 4.62
1 10 13 38.3 3.6
1 10 14 12.88 2.76
1 10 15 9.82 2.57
1 11 -11 -0.17 2.09
1 11 -10 9.85 2.71
1 11 -9 35.55 4.06
1 11 -8 2.44 1.99
1 11 -7 3.02 1.97
1 11 -7 1.39 2.56
1 11 -6 12.64 2.59
1 11 -6 15.33 3.12
1 11 -5 38.26 3.86
1 11 -5 46.34 4.31
1 11 -4 8.15 2.03
1 11 -4 8.12 2.69
1 11 -3 13.93 2.35
1 11 -3 14.37 2.98
1 11 -2 5.48 1.82
1 11 -2 3.76 2.28
1 11 -1 60.81 4.1
1 11 -1 67.39 4.37
1 11 -1 69.66 4.66
1 11 0 5.35 1.4
1 11 0 5.02 1.43
1 11 0 5.64 2.12
1 11 1 53.64 3.51
1 11 1 56.76 3.62
1 11 1 52.32 3.94
1 11 2 6.21 1.44
1 11 2 9.43 2.31
1 11 3 104.42 4.93
1 11 3 112.14 5.14
1 11 3 105.64 5.79
1 11 4 8.37 1.11
1 11 4 8.21 0.98
1 11 4 8.96 1.95
1 11 4 5.75 0.71
1 11 5 38.72 2.1
1 11 5 35.05 3.15
1 11 6 5.59 1.83
1 11 6 8.05 1.3
1 11 7 66.89 4.16
1 11 7 68.36 3.57
1 11 8 6.79 1.45
1 11 8 5.03 1.64
1 11 9 34.02 3.1
1 11 9 53.63 3.33
1 11 10 71.24 4.22
1 11 10 72.67 4.14
1 11 11 38.62 3.22
1 11 11 44.9 5.35
1 11 11 51.28 3.64
1 11 12 1.85 3.27
1 11 12 5.06 2.06
1 11 12 1.02 1.48
1 11 13 37.77 3.64
1 11 14 49.61 4.03
1 12 -9 20.83 3.37
1 12 -8 9.14 2.63
1 12 -7 3.29 2.14
1 12 -7 1.03 2.79
1 12 -6 11.73 2.54
1 12 -6 12.44 3.25
1 12 -5 19.95 2.95
1 12 -5 18.06 3.53
1 12 -4 39.16 3.83
1 12 -4 42.3 4.28
1 12 -3 0.57 1.58
1 12 -3 1.1 2.25
1 12 -2 22.71 2.78
1 12 -2 20.57 3.2
1 12 -1 42.16 3.43
1 12 -1 45.53 3.98
1 12 0 35.24 3.13
1 12 0 38.75 3.64
1 12 1 10.9 1.68
1 12 1 10.06 2.27
1 12 2 40.09 2.97
1 12 2 42.33 3.61
1 12 3 10.85 1.52
1 12 3 10.79 2.4
1 12 4 46.69 2.67
1 12 4 44.54 3.62
1 12 5 9.42 2
1 12 6 32.34 2.98
1 12 7 1.52 1.74
1 12 7 5.84 1.28
1 12 8 11.82 2.11
1 12 8 12.75 1.66
1 12 9 4.6 1.52
1 12 9 3.7 1.63
1 12 10 32.13 4.9
1 12 10 32.41 2.91
1 12 11 8.59 3.51
1 12 12 6.3 3.92
1 13 -8 16.85 3.14
1 13 -7 8.34 2.54
1 13 -6 -1.46 1.97
1 13 -6 0.3 2.7
1 13 -5 26.56 3.26
1 13 -5 21.8 3.73
1 13 -4 13.84 2.62
1 13 -4 19.14 3.47
1 13 -3 30.79 3.37
1 13 -3 32.3 4.05
1 13 -2 3.87 1.72
1 13 -2 5.15 2.59
1 13 -1 23.4 2.82
1 13 -1 26.33 3.48
1 13 0 11.57 2.08
1 13 0 10.86 2.76
1 13 1 26.31 2.59
1 13 1 27.87 3.27
1 13 2 1.31 1.2
1 13 2 1.29 2.07
1 13 3 52.19 3.14
1 13 3 46.45 4
1 13 4 5.75 2.29
1 13 5 19.8 2.68
1 13 6 7.54 2.01
1 13 7 48.72 3.7
1 13 8 7.77 2.16
1 13 9 16.96 2.48
1 13 10 3.9 3.54
1 13 11 36.59 5.21
1 14 -6 2.74 2.13
1 14 -6 5.72 3.22
1 14 -5 2.01 2.01
1 14 -5 2.91 2.86
1 14 -4 4.43 2.02
1 14 -4 -0.43 2.93
1 14 -3 37.94 3.66
1 14 -3 42.88 4.48
1 14 -2 1.66 1.73
1 14 -2 0.67 2.7
1 14 -1 12 2.17
1 14 -1 11.19 3.06
1 14 0 25.66 2.82
1 14 0 25.41 3.65
1 14 1 11.68 1.94
1 14 1 9.71 2.75
1 14 2 6 2.44
1 14 3 5.58 2.34
1 14 4 51.41 4.28
1 14 5 4.77 2.21
1 14 6 4.37 2.05
1 14 7 2.23 1.9
1 14 9 0.97 3.65
1 14 10 2.73 3.64
1 15 -3 9.33 2.41
1 15 -3 6.59 3.2
1 15 -2 5.54 2.06
1 15 -2 6.18 3.12
1 15 -1 3.39 2.57
1 15 0 5.86 2.95
1 15 1 11.53 3.01
1 15 2 21.24 3.21
1 15 3 -0.43 2.23
1 15 4 32.91 3.45
1 15 5 10.78 2.54
-2 14 3 19.44 4.96
-2 14 2 1.54 4.24
-2 14 1 20.44 5.18
2 -14 1 24.76 2.6
2 -14 2 8.44 1.83
-2 14 -2 6.58 4.11
2 -14 3 4.52 1.78
-2 14 -3 3.16 4.21
-2 13 7 7.47 4.72
-2 13 6 56.04 7.05
-2 13 5 0.75 4.12
-2 13 4 22.54 5.16
-2 13 3 7.61 4.26
-2 13 2 24.47 5.08
2 -13 -1 12.99 1.64
-2 13 1 9.2 4.18
2 -13 0 23.66 2.37
2 -13 1 12.38 1.95
2 -13 2 13.98 2.23
-2 13 -2 16.71 4.4
2 -13 3 1.4 1.45
-2 13 -3 -0.49 3.64
2 -13 4 11.94 2.28
-2 13 -4 17.27 4.47
2 -13 5 10.09 2.17
-2 13 -5 11.59 3.95
2 -13 6 6.43 2.05
-2 13 -6 3.67 3.88
2 -13 7 2.79 1.82
-2 13 -7 0.63 3.56
-2 12 9 25.19 5.07
-2 12 8 6.31 4.18
-2 12 7 37.14 5.77
-2 12 6 7.03 4.59
-2 12 5 37.84 5.52
-2 12 4 0.34 3.66
-2 12 3 27.29 5.05
2 -12 -2 7.89 1.32
-2 12 2 8.57 4.11
2 -12 -1 20.21 2.06
-2 12 1 21.11 4.42
2 -12 0 2.17 1.21
2 -12 1 29.04 2.69
2 -12 2 8.05 1.88
-2 12 -2 15.26 4.02
2 -12 3 7.05 1.82
-2 12 -3 6.89 3.73
2 -12 4 4.17 1.78
-2 12 -4 3.21 3.53
2 -12 5 28.63 3.15
-2 12 -5 31.48 4.78
2 -12 6 18.27 2.74
-2 12 -6 28.4 4.58
2 -12 7 1.63 1.75
-2 12 -7 2.9 3.25
2 -12 8 3.53 2.12
-2 12 -8 4.44 3.65
2 -12 9 8.48 2.37
-2 12 -9 12.64 3.96
-2 11 11 1.41 3.75
-2 11 11 8.32 2.79
-2 11 10 36.67 5.91
-2 11 10 51.39 4.4
-2 11 9 10.35 4.25
-2 11 9 9.83 2.51
-2 11 8 20.26 4.76
-2 11 7 11.03 4.27
-2 11 6 78.28 7.29
-2 11 5 14.81 4.32
-2 11 4 16.07 2.04
-2 11 4 23.03 4.34
2 -11 -3 15.47 1.36
-2 11 3 18.14 4.08
2 -11 -2 83.83 4.39
-2 11 2 104.71 7.42
2 -11 -1 18.51 1.98
-2 11 1 10.51 3.98
2 -11 0 9.36 1.66
2 -11 1 21.29 2.27
2 -11 2 83.87 5.14
-2 11 -2 105.71 7.39
2 -11 3 11.09 1.99
-2 11 -3 11.23 3.85
2 -11 4 2.73 1.52
-2 11 -4 0.57 3.18
2 -11 5 4.67 1.71
-2 11 -5 11.34 3.67
2 -11 6 66.05 4.95
-2 11 -6 74.99 6.18
2 -11 7 17.49 2.75
-2 11 -7 15.95 3.98
2 -11 8 1.47 1.73
-2 11 -8 -2.36 3.32
2 -11 9 13.35 2.51
-2 11 -9 15.17 3.74
2 -11 10 29.16 3.56
-2 11 -10 37.3 4.62
-2 11 -11 7.85 3.61
-2 10 12 22.58 4.57
-2 10 12 36.49 3.78
-2 10 11 8.02 4.4
-2 10 11 14.86 3.19
-2 10 10 5.94 3.91
-2 10 10 9.26 2.53
-2 10 9 25.34 4.64
-2 10 8 48.68 5.41
-2 10 7 16.89 4.39
-2 10 6 38.66 5.06
-2 10 5 53.87 3.11
-2 10 5 74.27 6.22
-2 10 4 3.14 0.73
2 -10 -4 3.02 0.7
-2 10 4 2.98 3.35
-2 10 4 3.26 1.36
2 -10 -3 3.51 1.02
-2 10 3 3.05 1.13
-2 10 3 5.05 3.3
-2 10 3 2.88 1.55
-2 10 2 49.77 2.98
2 -10 -2 45.93 2.77
-2 10 2 46.88 4.89
-2 10 2 42.55 3.13
-2 10 1 81.48 4.53
2 -10 -1 77.99 4.21
-2 10 1 91.63 6.63
2 -10 0 5.05 1.33
-2 10 0 3.52 1.42
2 -10 1 2.46 1.25
2 -10 1 1.37 1.49
-2 10 -1 1.75 1.34
2 -10 2 5.4 1.5
-2 10 -2 5.51 3.44
2 -10 2 5.23 1.81
-2 10 -2 1.84 1.35
2 -10 3 93.22 5.09
-2 10 -3 66.34 3.92
2 -10 4 3.24 1.58
-2 10 -4 3.06 3.04
-2 10 -4 1.33 1.34
2 -10 5 9.25 2
-2 10 -5 11.86 3.45
2 -10 6 28.49 3.06
-2 10 -6 34.28 4.42
2 -10 7 109.34 6.75
-2 10 -7 124.53 7.84
2 -10 8 6.78 2.12
-2 10 -8 1.57 2.99
2 -10 9 0.93 1.68
-2 10 -9 -0.23 2.8
2 -10 10 6.08 2.27
-2 10 -10 7.56 3.17
2 -10 11 24.93 3.42
-2 10 -11 31.13 4.16
2 -10 12 12.67 2.57
-2 10 -12 11.2 3.39
-2 9 13 23.46 3.54
-2 9 12 17.41 4.6
-2 9 12 36.81 4.11
-2 9 11 54.57 5.74
-2 9 11 76.11 5.1
-2 9 10 0.13 3.35
-2 9 9 65.35 5.84
-2 9 8 48.17 5.29
-2 9 7 19.98 2.26
-2 9 7 17.4 1.18
-2 9 6 1.99 3.5
-2 9 6 1.62 0.91
-2 9 5 7.38 3.51
-2 9 5 8.31 1.24
-2 9 4 25.38 1.77
-2 9 4 28.29 1.81
2 -9 -4 28.8 1.74
-2 9 3 19.62 1.63
2 -9 -3 19.63 1.52
-2 9 3 20.52 1.86
-2 9 3 23.46 3.71
-2 9 2 11.05 1.65
2 -9 -2 12.65 1.43
-2 9 2 13.07 3.34
-2 9 2 10.77 1.8
-2 9 1 43.07 2.88
2 -9 -1 39.54 2.62
-2 9 1 36.01 2.89
-2 9 1 42.39 4.5
2 -9 0 148.76 6.92
-2 9 0 136.76 6.68
2 -9 1 11.86 1.6
2 -9 1 13.35 1.8
-2 9 -1 9.08 1.58
2 -9 2 14.12 1.86
-2 9 -2 16.25 3.43
2 -9 2 12.44 2
-2 9 -2 8.25 1.56
2 -9 3 32.18 2.68
-2 9 -3 34.27 4.13
2 -9 3 34.58 2.83
2 -9 4 88.66 5.01
-2 9 -4 72.22 4.06
2 -9 5 40.85 3.16
-2 9 -5 45.81 4.45
-2 9 -5 32.23 2.47
2 -9 6 8.61 1.84
-2 9 -6 10.14 3.09
-2 9 -6 5.31 1.53
2 -9 7 31.64 3.17
-2 9 -7 36.92 4.13
-2 9 -7 24.07 2.37
2 -9 8 43.58 3.93
-2 9 -8 50.36 4.66
2 -9 9 5.68 1.9
-2 9 -9 8.08 2.96
2 -9 10 20.82 2.95
-2 9 -10 20.56 3.49
-2 9 -11 2.94 2.88
-2 9 -12 30.51 3.71
2 -9 12 20.21 2.87
2 -9 13 4.26 2.03
-2 8 14 21.23 3.36
-2 8 13 0.84 2.55
-2 8 12 26.52 4.87
-2 8 12 60.9 4.72
-2 8 11 8.63 3.53
-2 8 11 12.58 2.83
-2 8 10 17.22 3.74
-2 8 9 1.11 3.24
-2 8 8 55.32 3.61
-2 8 8 75.66 5.48
-2 8 7 58.34 3.63
-2 8 7 42.99 2.09
-2 8 6 66.16 4.09
-2 8 6 68.6 2.99
-2 8 5 35.16 1.81
-2 8 5 44.35 4.78
2 -8 -5 21.89 1.22
-2 8 5 19.87 1.2
-2 8 4 349.58 13.23
-2 8 4 348.32 13.25
-2 8 4 357.71 13.31
-2 8 4 394.3 15.82
2 -8 -4 345.86 13.2
-2 8 3 203.36 8.14
2 -8 -3 175.76 7.84
-2 8 3 198.74 8
2 -8 -2 3.48 0.94
-2 8 2 3.38 1.06
-2 8 2 2.59 2.53
-2 8 2 2.28 1.24
-2 8 1 30.43 2.64
2 -8 -1 36.32 2.4
-2 8 1 39.76 4.28
-2 8 1 35.08 2.66
2 -8 0 97.13 4.89
2 -8 0 103.45 4.69
2 -8 1 139.46 6.79
-2 8 -1 143.05 6.56
2 -8 2 2.12 1.06
2 -8 2 1.02 1.34
-2 8 -2 1.82 1.15
2 -8 3 51.08 3.47
-2 8 -3 56.88 4.71
2 -8 3 60.27 3.58
2 -8 4 35.76 2.9
2 -8 4 37.76 2.97
-2 8 -4 28.61 2.32
2 -8 5 137.25 6.95
2 -8 5 144.5 7.07
-2 8 -5 128.86 6.1
2 -8 6 10.85 1.87
-2 8 -6 8.72 1.66
2 -8 7 40.95 3.52
-2 8 -7 34.59 2.9
2 -8 8 39.86 3.46
-2 8 -8 44.24 4.15
-2 8 -8 32.45 2.82
2 -8 9 51.12 4.26
-2 8 -9 45.12 4.48
-2 8 -9 49.64 3.55
-2 8 -10 -0.09 2.52
2 -8 10 1.84 1.8
-2 8 -11 34.33 3.87
2 -8 11 34.19 3.26
-2 8 -12 16.34 3.05
2 -8 12 8.78 2.41
2 -8 13 23.81 3.46
-2 8 -13 28.61 3.47
2 -8 13 25.11 3.13
2 -8 14 3.35 2.04
2 -8 14 3.59 2.08
-2 7 14 2.64 2.58
-2 7 13 21.8 4.46
-2 7 13 46.69 4.22
-2 7 12 0.65 2.88
-2 7 12 -0.32 2.09
-2 7 11 91.14 6.62
-2 7 10 23.32 4
-2 7 9 4.73 1.4
-2 7 9 6.6 0.69
-2 7 9 6.31 0.77
-2 7 8 6.14 1.54
-2 7 8 7.86 3.12
-2 7 8 3.71 0.6
-2 7 7 153.19 5.84
-2 7 7 201.13 8.79
-2 7 6 27.58 1.44
-2 7 6 47.55 4.51
-2 7 5 17.86 1.18
-2 7 5 18.99 3.35
-2 7 5 16 1.04
2 -7 -5 16.95 1.06
-2 7 4 10.5 1.07
-2 7 4 9.67 1.03
-2 7 4 12.44 3.08
-2 7 4 11.3 1.15
2 -7 -4 10.84 1.05
-2 7 3 126.24 5.45
-2 7 3 137 7.27
-2 7 3 126.29 5.32
2 -7 -3 132.2 5.47
-2 7 2 95.06 4.8
2 -7 -2 92.4 4.5
-2 7 2 94.15 4.43
-2 7 1 11.2 1.37
2 -7 -1 8.92 1.22
-2 7 1 10.32 2.5
2 -7 -1 10.38 1.13
-2 7 1 9.13 1.41
2 -7 0 58.3 3.55
2 -7 0 72.25 3.48
2 -7 1 272.52 10.96
2 -7 1 285.02 10.65
-2 7 -1 248.07 10.47
2 -7 2 136.85 6.75
2 -7 2 158 6.67
-2 7 -2 144.01 6.4
2 -7 3 7.97 1.43
-2 7 -3 8.57 2.41
2 -7 3 9.58 1.71
-2 7 -3 8.76 1.4
2 -7 4 87.78 4.94
2 -7 4 101.37 5.12
-2 7 -4 97.28 5.89
-2 7 -4 80.65 4.3
2 -7 5 80.96 4.57
2 -7 5 85.75 4.61
2 -7 6 85 5.13
2 -7 6 92.7 5.29
-2 7 -6 84.23 4.51
2 -7 7 5.28 1.5
-2 7 -7 4.22 2.39
-2 7 -7 4.03 1.46
-2 7 -8 116.26 6.1
2 -7 8 100.54 5.36
-2 7 -9 6.75 2.46
2 -7 9 9.42 2.12
-2 7 -9 5.35 1.99
-2 7 -10 32.39 3.54
2 -7 10 36.09 3.12
2 -7 11 0.26 1.74
-2 7 -11 -0.62 2.35
2 -7 11 1.28 1.82
2 -7 12 69.79 5.3
-2 7 -12 61.75 4.66
2 -7 12 68 4.62
2 -7 13 8.39 2.48
-2 7 -13 7.46 2.62
2 -7 13 8.2 2.36
2 -7 14 20.41 3.13
2 -7 14 19.05 2.83
2 -7 15 1.53 1.94
2 -7 15 6.13 2.24
-2 6 15 1.63 2.4
-2 6 14 166.52 9.15
-2 6 13 -0.51 2.92
-2 6 13 1.41 2.41
-2 6 12 3.15 2.88
-2 6 12 4.12 2.37
-2 6 11 -1.4 2.79
-2 6 10 165.04 8.67
-2 6 9 2.8 1.29
-2 6 9 3.85 0.96
-2 6 8 8.07 0.79
-2 6 8 8.01 0.9
-2 6 8 8.49 2.88
2 -6 -7 5.05 0.5
-2 6 7 7.49 0.64
2 -6 -6 283.31 10.04
-2 6 6 261.47 9.9
-2 6 5 31.73 1.65
-2 6 5 25.79 1.34
-2 6 4 5.33 0.74
-2 6 4 4.21 0.77
-2 6 4 5.95 0.73
-2 6 3 57.44 3.07
-2 6 3 60.91 2.73
-2 6 2 530.1 19.12
-2 6 2 564.66 20.57
-2 6 1 62.11 4.42
2 -6 -1 56.19 2.72
-2 6 0 43.04 2.63
2 -6 0 40.29 2.55
2 -6 0 40.87 2.24
2 -6 1 56.66 3.42
2 -6 1 67.05 3.25
-2 6 -1 56.52 3.32
2 -6 2 43.51 2.84
2 -6 2 47.03 2.75
-2 6 -2 40.85 2.55
2 -6 3 26.51 2.34
-2 6 -3 31.37 3.13
2 -6 3 29.3 2.39
-2 6 -3 27.12 2.22
2 -6 4 53.28 3.33
-2 6 -4 56.89 3.92
2 -6 4 56.95 3.36
-2 6 -4 44.04 2.72
2 -6 5 152.35 7.49
2 -6 5 164.24 7.53
-2 6 -5 174.88 8.01
-2 6 -5 150.02 6.88
2 -6 6 96.87 5.53
2 -6 6 114.66 5.66
-2 6 -6 112.17 5.98
-2 6 -6 102.53 5.01
2 -6 7 44.93 3.55
-2 6 -7 45.04 3.73
2 -6 7 47.97 3.23
-2 6 -7 43.46 3.08
-2 6 -8 8.39 1.74
-2 6 -8 5.76 2.17
2 -6 8 7.02 1.72
-2 6 -8 4.74 1.67
-2 6 -9 116.51 5.94
-2 6 -9 115.09 6.02
2 -6 9 117.88 5.76
2 -6 10 8.16 1.96
-2 6 -10 12.07 2.44
2 -6 10 14.49 2.17
2 -6 11 18.52 2.61
-2 6 -11 21.14 2.73
2 -6 11 20.32 2.47
2 -6 12 1.46 1.68
-2 6 -12 -0.45 2.19
2 -6 12 -0.64 1.99
2 -6 13 74.25 5.64
2 -6 13 78.64 5.03
2 -6 14 6.17 2.25
2 -6 14 8.89 2.39
2 -6 15 3.49 2.16
2 -6 15 5.18 2.25
2 -6 16 3.69 2.11
2 -6 16 2.53 2.41
-2 5 15 1.5 2.51
-2 5 14 3.84 2.67
2 -5 -13 102.98 4.32
-2 5 13 128.95 6.7
2 -5 -12 2.5 0.9
-2 5 12 1.89 2.84
-2 5 12 4.57 2.24
2 -5 -11 8.22 1.07
-2 5 11 3.58 2.68
2 -5 -10 8.58 1.04
-2 5 10 6.52 1.12
-2 5 10 7.29 2.64
-2 5 10 6.48 1.26
2 -5 -9 446.11 15.89
2 -5 -9 447.98 15.8
-2 5 9 392.8 15.76
-2 5 9 399.04 17.45
2 -5 -8 5.96 0.91
2 -5 -8 4.95 0.8
-2 5 8 4.86 0.98
2 -5 -7 41.17 1.94
-2 5 7 38.57 3.57
2 -5 -7 39.49 1.8
-2 5 6 15.29 0.86
2 -5 -6 21.07 1.22
-2 5 5 422.47 17.26
-2 5 5 428.54 15.85
-2 5 4 7.49 0.94
-2 5 4 8.25 1.01
-2 5 3 117.66 5.03
-2 5 3 120.03 5.08
-2 5 3 124.51 6.46
-2 5 2 95 4.71
-2 5 2 117.07 6.12
-2 5 1 568.17 20.75
2 -5 -1 544.8 20.13
-2 5 0 13.37 1.64
2 -5 0 15.91 1.34
2 -5 1 157.64 6.49
2 -5 2 198.99 8.27
-2 5 -2 207.7 8.15
2 -5 3 395.71 16.05
-2 5 -3 446.73 16.46
2 -5 3 412.9 15.81
-2 5 -3 396.07 15.52
2 -5 4 13.83 1.77
2 -5 4 14.9 1.95
-2 5 -4 13.96 1.66
2 -5 5 115.81 5.6
-2 5 -5 108.77 5.06
2 -5 6 185.43 8.31
-2 5 -6 172.72 7.66
2 -5 7 61.09 3.89
2 -5 7 55.21 3.38
-2 5 -7 54.29 3.3
2 -5 8 1.96 1.32
2 -5 8 4.65 1.59
2 -5 8 2.07 1.83
-2 5 -8 3.62 1.61
2 -5 9 50.31 3.75
-2 5 -9 49.69 3.37
2 -5 9 51.7 3.38
-2 5 -9 50.92 3.43
2 -5 10 148.52 8.19
-2 5 -10 174.4 7.73
-2 5 -10 150.7 7.75
2 -5 10 167.58 7.71
2 -5 11 8.15 1.92
-2 5 -11 7.91 1.79
2 -5 11 10.47 2.1
2 -5 12 5.1 1.77
-2 5 -12 3.35 1.66
2 -5 12 2.53 1.84
-2 5 -13 7.84 1.97
2 -5 13 7.75 2.21
-2 5 -13 6.61 1.75
2 -5 13 7.26 2.27
2 -5 14 68.96 5.52
2 -5 14 78.16 5.12
2 -5 15 2.39 2.07
2 -5 15 2.68 2.33
2 -5 16 5.52 2.18
2 -5 16 7.77 2.48
-2 4 15 2.49 2.51
2 -4 -14 3.27 1.22
-2 4 14 5.17 2.76
2 -4 -13 3.85 1.22
-2 4 13 1.16 2.7
-2 4 13 3.78 2.37
2 -4 -12 154.43 6.31
2 -4 -12 151 6.2
2 -4 -11 1.29 0.81
2 -4 -11 -0.04 0.77
2 -4 -11 1.24 0.99
-2 4 11 1.96 2.76
-2 4 11 1.62 1.31
2 -4 -10 62.5 3.15
2 -4 -10 60.37 3.03
2 -4 -10 64.28 3.09
-2 4 10 45.31 4.25
-2 4 10 51.68 2.99
-2 4 9 0.52 0.86
2 -4 -9 0.65 0.61
2 -4 -9 0.5 0.69
2 -4 -9 0.64 0.73
-2 4 9 0.58 2.24
-2 4 9 0.66 1
2 -4 -8 299.62 11.38
2 -4 -8 307.41 11.28
-2 4 8 294.6 12.64
-2 4 8 280 11.1
2 -4 -7 3.03 0.87
2 -4 -7 3.06 0.78
-2 4 7 2.3 0.86
2 -4 -6 164.16 6.16
-2 4 6 163.05 7.31
2 -4 -6 163.93 5.97
2 -4 -5 23.55 1.72
-2 4 5 22.24 1.58
2 -4 -4 623.11 23.43
-2 4 4 651.29 23.44
-2 4 4 646.76 24.45
-2 4 4 630.73 23.38
-2 4 3 6.24 0.99
-2 4 3 6.24 0.98
-2 4 2 298.33 11.81
-2 4 2 334.36 12.93
-2 4 1 96.02 5.03
2 -4 -1 113.5 4.34
-2 4 0 447.59 16.77
2 -4 0 437.41 16.23
2 -4 1 4.16 1.03
2 -4 2 321.57 12.26
-2 4 -2 310.94 12.15
2 -4 3 184.33 8.25
-2 4 -3 198.62 8.03
2 -4 4 239.33 9.78
-2 4 -4 233.71 9.4
-2 4 -5 1.43 1.17
2 -4 5 1.79 1.42
2 -4 6 63.26 3.78
-2 4 -6 58.47 3.34
2 -4 7 168.88 8.39
2 -4 7 178.16 8.42
2 -4 7 188.52 8.15
-2 4 -7 189.72 8.07
2 -4 8 29.24 2.64
-2 4 -8 30.9 2.44
-2 4 -8 26.88 2.42
2 -4 8 30.15 2.45
2 -4 9 11.7 2
-2 4 -9 14 1.93
2 -4 9 12.91 1.96
-2 4 -9 11.02 2.01
-2 4 -10 110.31 5.47
2 -4 10 101.91 6.05
-2 4 -10 116.53 5.43
2 -4 10 109.53 5.63
-2 4 -10 112.44 5.84
-2 4 -11 178.1 7.77
-2 4 -11 162.54 7.2
2 -4 11 177.6 8.06
-2 4 -12 6.31 1.67
2 -4 12 2.27 1.5
-2 4 -12 3.43 1.53
2 -4 12 3.39 1.87
-2 4 -13 7.68 1.85
2 -4 13 9.53 2.28
-2 4 -13 3.81 0.97
-2 4 -13 4 1.05
2 -4 13 9.51 2.22
2 -4 14 22.33 2.98
2 -4 14 22.97 2.92
-2 4 -14 26.92 2.45
2 -4 15 77.22 6.02
2 -4 15 88.04 5.65
2 -4 16 0.15 2.04
2 -4 16 4.31 2.33
2 -4 17 5.16 2.35
2 -4 17 5.34 2.61
-2 3 16 20.63 3.67
2 -3 -15 64.48 4.09
-2 3 15 74.62 5.5
2 -3 -14 1.19 1.22
-2 3 14 1.1 2.53
2 -3 -13 44.14 2.79
2 -3 -13 45.64 2.96
2 -3 -12 6.98 1.38
2 -3 -12 10.96 1.68
2 -3 -12 10.42 1.62
-2 3 12 12.84 2.71
2 -3 -11 225.48 9.01
2 -3 -11 212.87 8.81
2 -3 -11 234.95 8.91
-2 3 11 205.67 8.6
2 -3 -10 1.08 0.84
2 -3 -10 1.06 1.06
-2 3 10 1.52 2.39
-2 3 10 2.61 1.23
2 -3 -9 114.83 4.88
2 -3 -9 113.25 4.96
-2 3 9 102.42 4.38
2 -3 -9 92.26 4.6
-2 3 9 96.64 5.75
-2 3 9 105.11 4.63
-2 3 8 1.14 0.83
2 -3 -8 0.45 0.64
2 -3 -8 0.52 0.75
2 -3 -8 1.47 0.82
-2 3 8 2.5 2.2
-2 3 8 1.11 0.96
2 -3 -7 333.37 12.64
2 -3 -7 331.63 12.7
2 -3 -7 343.44 12.58
-2 3 7 323.1 13.5
-2 3 7 315.29 12.26
2 -3 -6 0.65 0.56
2 -3 -6 0.7 0.59
2 -3 -6 0.74 0.66
2 -3 -6 2.56 1.91
-2 3 6 1.63 1.86
-2 3 6 0.95 0.64
2 -3 -5 546.54 18.39
-2 3 5 553.83 19.31
-2 3 5 560.97 18.42
2 -3 -4 23.28 1.8
2 -3 -4 29.64 2.67
-2 3 4 32.71 2.8
-2 3 4 23.36 1.73
-2 3 3 669.14 23.85
2 -3 -3 606.74 23.76
-2 3 3 651.3 23.77
-2 3 3 667.12 24.55
2 -3 -2 4.89 0.95
-2 3 2 5.69 0.96
-2 3 2 5.33 0.9
-2 3 2 7.8 1.86
-2 3 1 321.93 12.04
2 -3 -1 310.48 11.32
-2 3 0 38.06 2.46
2 -3 0 37.22 1.95
-2 3 -1 309.99 12.19
2 -3 1 316.65 11.9
-2 3 -2 2.86 1.02
2 -3 2 2.6 1.08
-2 3 -3 781.77 27.71
2 -3 3 731.5 27.46
-2 3 -3 720.5 27.23
-2 3 -4 139.99 6.55
2 -3 4 151.32 6.43
-2 3 -4 144.06 6.2
2 -3 5 215.67 9.51
-2 3 -5 241.26 9.29
-2 3 -5 215.98 8.97
2 -3 5 222.74 9.39
2 -3 6 20.81 2.22
-2 3 -6 23.74 2.28
-2 3 -6 23.64 2.14
2 -3 7 658.12 25.89
-2 3 -7 733.1 25.21
-2 3 -7 651.5 25.31
2 -3 7 643.04 25.31
2 -3 8 152.87 7.81
2 -3 8 166.4 7.55
-2 3 -8 148.61 7.46
2 -3 9 18.73 2.18
-2 3 -9 21.28 2.05
2 -3 9 20.45 2.16
-2 3 -9 20.83 2.24
-2 3 -10 20.79 2.09
2 -3 10 21.46 2.52
-2 3 -10 19.03 1.9
2 -3 10 25.04 2.47
-2 3 -10 19.77 2.59
-2 3 -11 88.11 4.49
2 -3 11 86.56 5.28
-2 3 -11 87.17 3.93
2 -3 11 86.7 4.92
2 -3 12 154.37 8.51
2 -3 12 176.13 8.27
-2 3 -12 172.29 7.68
2 -3 13 27.65 3.05
2 -3 13 26.77 2.87
-2 3 -13 30.76 2.4
2 -3 14 12.51 2.52
-2 3 -14 10.07 1.76
2 -3 14 16.09 2.67
2 -3 15 12.54 2.49
2 -3 15 13.07 2.61
2 -3 16 51.87 4.99
2 -3 16 67.02 4.96
2 -3 17 9.29 2.43
2 -3 17 6.59 2.67
2 -2 -16 15.84 2.2
2 -2 -15 38.26 3.33
2 -2 -14 44.16 3.26
2 -2 -13 2.03 1.45
2 -2 -13 3.63 1.53
2 -2 -13 2.04 1.26
-2 2 13 6.82 2.88
2 -2 -12 152.21 6.35
2 -2 -12 151.83 6.52
2 -2 -12 161.54 6.44
-2 2 12 134.09 5.99
-2 2 12 179.28 7.74
2 -2 -11 15.58 1.83
-2 2 11 16.99 1.99
-2 2 11 10.75 2.82
2 -2 -11 16.13 1.9
2 -2 -11 18.14 2.06
2 -2 -10 128.76 5.83
2 -2 -10 128.79 5.96
2 -2 -10 139.72 5.81
-2 2 10 128.09 5.61
2 -2 -9 0.64 0.82
2 -2 -9 2.1 1.1
-2 2 9 3.03 2.32
2 -2 -9 2.38 2.27
-2 2 9 1.8 1.23
2 -2 -8 265.63 8.18
2 -2 -8 265.52 8.06
-2 2 8 259.88 7.57
-2 2 8 248.83 8.74
-2 2 7 2.95 0.86
2 -2 -7 4.45 0.93
2 -2 -7 3.75 0.9
2 -2 -7 4.48 1.09
2 -2 -7 3.72 1.86
-2 2 7 3.91 1.97
-2 2 7 3.51 0.95
2 -2 -6 220.2 8.31
2 -2 -6 213.97 8.35
-2 2 6 209.53 7.81
-2 2 6 233.01 9.08
2 -2 -6 217.69 8.13
2 -2 -5 4.97 0.92
2 -2 -5 5.96 1.06
-2 2 5 5.03 0.82
-2 2 5 5.66 1.07
2 -2 -4 186.34 7.29
2 -2 -4 187.24 7.25
-2 2 4 172.31 6.57
-2 2 4 199.84 7.97
2 -2 -4 162.98 7.71
-2 2 4 195.17 7.31
-2 2 3 0.44 0.54
-2 2 3 0.92 1.55
2 -2 -3 0.67 0.65
-2 2 3 0.35 0.62
-2 2 2 170.62 6.85
2 -2 -2 163.35 6.82
-2 2 2 175.18 6.95
-2 2 2 169.85 7.35
-2 2 1 1.35 0.63
2 -2 -1 1.77 0.66
-2 2 1 1.27 0.68
-2 2 0 992.94 37.03
2 -2 0 986.96 37.06
2 -2 0 1088.28 37.38
-2 2 -1 15.74 1.54
2 -2 1 20.64 1.94
-2 2 -2 11.7 1.24
2 -2 2 14.18 1.55
-2 2 -2 12.67 1.25
-2 2 -3 45.67 2.94
-2 2 -3 42.01 2.63
-2 2 -4 1004.5 35.08
-2 2 -4 913.46 34.86
-2 2 -5 83.76 4.32
-2 2 -5 83.56 4.25
2 -2 6 10.66 1.45
-2 2 -6 9.79 1.51
-2 2 -6 10.83 1.51
2 -2 7 61.2 4.12
-2 2 -7 65.14 3.46
2 -2 7 72.67 3.93
-2 2 -7 67.66 3.92
2 -2 8 262.91 11.43
-2 2 -8 285.85 10.42
2 -2 8 249.48 10.92
-2 2 -8 263.97 11.01
2 -2 9 119.69 6.72
2 -2 9 126.7 6.53
-2 2 -9 121.42 6.55
2 -2 10 21.46 2.3
-2 2 -10 23.96 1.53
2 -2 10 19.9 2.19
-2 2 -10 21.43 2.49
2 -2 11 56.44 4.17
-2 2 -11 55.29 3.34
2 -2 11 64.04 4.02
2 -2 12 316.51 13.24
-2 2 -12 298.35 11.83
2 -2 12 286.04 12.51
2 -2 13 38.44 3.63
2 -2 13 49.05 3.71
-2 2 -13 43.27 2.82
2 -2 14 1.68 1.55
-2 2 -14 1.23 1.13
2 -2 14 2.56 1.96
2 -2 15 38.43 3.91
2 -2 15 44.67 3.84
2 -2 16 29.53 3.42
2 -2 16 25.34 3.21
2 -2 17 38.24 4.17
2 -2 17 49.42 4.45
2 -2 18 -0.13 2.05
2 -2 18 3.79 2.56
2 -1 -16 2.17 1.77
2 -1 -15 76.35 4.93
2 -1 -14 21.31 2.63
2 -1 -13 38.19 3.16
2 -1 -12 6.56 1.75
2 -1 -12 11.53 2.09
2 -1 -12 6.54 1.63
-2 1 12 8.01 2.1
2 -1 -11 183 6.13
2 -1 -11 200.16 6.14
2 -1 -11 186.98 6.52
-2 1 11 180.02 5.67
2 -1 -10 32.43 2.47
2 -1 -10 41.51 2.95
2 -1 -10 32.24 2.52
-2 1 10 18.73 3.06
-2 1 10 34.58 2.44
2 -1 -10 16.2 2.78
-2 1 10 13.34 1.34
2 -1 -9 177.98 6.2
-2 1 9 167.93 5.73
2 -1 -9 182.06 6.5
2 -1 -9 183.3 6.09
2 -1 -8 7.94 1.42
-2 1 8 10.04 1.53
-2 1 8 10.48 2.78
2 -1 -8 10.03 1.67
2 -1 -7 521.84 17.34
-2 1 7 526.65 16.85
-2 1 7 544.38 17.96
2 -1 -7 528.85 17.5
2 -1 -6 6.08 1.06
-2 1 6 7.19 1.03
-2 1 6 7.15 1.09
-2 1 6 9.61 2
2 -1 -6 5.66 1.85
2 -1 -6 6.25 1.17
2 -1 -6 5.71 0.97
-2 1 5 74.75 3.37
2 -1 -5 72.49 3.53
2 -1 -5 67.03 3.53
2 -1 -5 73.92 3.41
-2 1 5 78.14 4.16
2 -1 -5 62.66 3.9
-2 1 5 72.74 3.14
2 -1 -4 1.21 0.64
-2 1 4 1.91 0.78
2 -1 -4 1.12 0.74
-2 1 4 1.42 1.67
2 -1 -4 1.94 1.67
-2 1 4 1.53 0.58
2 -1 -3 1445.21 52.28
2 -1 -3 1451.42 52.34
-2 1 3 1497.16 52.34
2 -1 -3 1488.31 52.65
-2 1 3 1514.54 52.78
-2 1 3 1403.85 51.66
-2 1 2 -0.04 0.48
2 -1 -2 0.06 0.47
2 -1 -2 -0.03 0.58
-2 1 2 0.39 0.62
-2 1 2 0.53 1.42
2 -1 -2 0.32 0.39
-2 1 1 73.68 3.46
-2 1 1 76 3.5
-2 1 0 4.66 0.89
2 -1 0 5.18 1.44
-2 1 -1 369.26 14.32
2 -1 1 389.48 14.48
-2 1 -2 13.41 1.45
2 -1 2 15.78 1.85
-2 1 -2 12.36 1.51
-2 1 -3 5.03 1.29
2 -1 3 3.5 1.17
-2 1 -3 3.45 1
2 -1 4 33.09 2.23
-2 1 -4 32.85 2.4
-2 1 -5 1415.6 50.63
-2 1 -5 1379.84 50.84
-2 1 -6 55.18 2.95
-2 1 -6 51.65 3.28
2 -1 7 2.47 1.05
-2 1 -7 1.51 1.09
-2 1 -7 2.44 1.29
2 -1 8 47.37 3.46
-2 1 -8 52.64 2.61
-2 1 -8 49.96 3.39
2 -1 9 652.97 25.32
-2 1 -9 659.75 25.01
2 -1 10 62.89 4.37
-2 1 -10 70.04 4.57
2 -1 11 24.06 2.48
-2 1 -11 20.87 1.73
2 -1 12 50.45 3.91
-2 1 -12 41.64 2.73
2 -1 13 4.12 1.53
-2 1 -13 2.11 1
2 -1 13 2.44 1.88
2 -1 14 44.08 4.02
2 -1 14 47.27 3.96
2 -1 15 18.13 2.59
2 -1 15 19.87 2.74
2 -1 16 51.68 4.89
2 -1 16 68.05 4.89
2 -1 17 22.98 2.99
2 -1 17 23.97 3.38
2 -1 18 6.08 2.18
2 -1 18 5.77 2.66
2 0 -16 13.82 2.37
-2 0 16 17.66 3.17
2 0 -15 32.94 3.8
-2 0 15 48.57 4.61
2 0 -14 59.68 4.33
-2 0 14 56.24 4.52
2 0 -13 32.56 3.38
-2 0 13 52.05 4.34
2 0 -12 37.6 3.05
-2 0 12 35.48 2.72
2 0 -11 16.35 2.19
2 0 -11 21.55 2.64
-2 0 11 17.83 2.34
2 0 -11 20.34 3.09
2 0 -10 357.59 8.73
2 0 -10 363.1 7.92
-2 0 10 332.6 7.35
-2 0 9 6.38 1.09
2 0 -9 11.06 1.76
2 0 -9 8.79 1.43
2 0 -9 4.72 2.24
-2 0 9 10.35 1.62
2 0 -8 3.71 1.27
2 0 -8 4.08 1.15
-2 0 8 2.58 1.91
2 0 -8 2.79 2.03
-2 0 8 3.21 1.28
-2 0 7 20.09 1.82
-2 0 7 14.47 2.75
2 0 -7 16.83 2
-2 0 6 481.03 17.39
-2 0 6 498.63 18.36
2 0 -6 488.63 18.08
-2 0 5 11.51 1.23
2 0 -5 9.09 1.26
2 0 -5 10.99 1.49
2 0 -5 8.68 1.18
2 0 -5 9.7 1.94
-2 0 5 10.86 2.1
-2 0 5 9.85 1.18
2 0 -4 1.78 0.68
-2 0 4 1.66 0.76
-2 0 4 2.07 0.78
2 0 -4 1.44 0.75
2 0 -4 2.79 1.66
-2 0 4 1.84 1.65
-2 0 4 1.64 0.73
2 0 -4 3.21 0.99
2 0 -3 12.54 1.39
2 0 -3 15.77 1.59
-2 0 3 17.41 1.6
-2 0 3 15.36 1.2
2 0 -3 15.87 1.41
-2 0 3 15.6 2.54
-2 0 3 14.67 1.56
-2 0 2 1346.14 48.32
-2 0 2 1348.31 48.29
2 0 -2 1294.98 47.73
-2 0 2 1403.67 48.66
-2 0 1 0.4 0.66
-2 0 1 -0.04 0.5
2 0 -1 0.56 0.45
-2 0 0 37.35 2.14
-2 0 0 40.84 2.21
2 0 0 42.65 2.59
2 0 1 3.76 0.88
2 0 1 4.03 1.45
2 0 2 9993.05 355.77
2 0 2 9999 355.63
-2 0 -2 9922.92 355.54
-2 0 -3 5.39 1.44
2 0 3 4.46 1.18
-2 0 -3 4.91 1.18
2 0 4 43.39 2.25
-2 0 -4 44.18 2.44
-2 0 -4 41.26 2.34
-2 0 -5 20.32 1.75
2 0 5 22.02 1.62
-2 0 -5 19.79 1.86
-2 0 -6 1061.97 38.12
-2 0 -6 1035.67 38.59
-2 0 -7 24.11 2.32
2 0 8 10.99 1.5
-2 0 -8 9.76 1.65
2 0 9 50.42 3.67
-2 0 -9 55.78 3.72
2 0 10 349.75 14.47
-2 0 -10 355.44 14.43
2 0 11 12.12 1.92
2 0 12 9.81 1.77
-2 0 -12 5.25 1.01
2 0 13 25.38 2.77
2 0 14 189.99 9.26
2 0 15 6.79 2.01
2 0 16 44.06 3.93
2 0 17 36.35 3.83
2 0 18 13.76 2.34
2 0 18 9.12 2.74
2 1 -16 32.45 3.75
-2 -1 16 43.87 4.23
2 1 -15 -0.38 1.91
-2 -1 15 2.24 2.47
2 1 -14 24.19 3.16
-2 -1 14 34.59 3.63
2 1 -13 48.17 3.64
-2 -1 13 56.05 3.96
2 1 -12 47.22 3.84
-2 -1 12 67.5 4.47
2 1 -11 6.51 1.67
2 1 -11 7.2 1.55
2 1 -11 1.15 2.19
-2 -1 11 7.13 1.74
-2 -1 11 8.11 2.26
-2 -1 10 68.05 3.74
2 1 -10 83.29 5.15
2 1 -10 85.73 4.7
2 1 -10 69.87 5
-2 -1 10 82.5 4.59
-2 -1 9 3.76 0.95
2 1 -9 2.84 1.28
2 1 -9 2.01 0.99
2 1 -9 2.2 2
-2 -1 9 4.4 1.36
2 1 -8 21.28 2.43
2 1 -8 20.67 2.09
2 1 -8 14.15 2.55
-2 -1 8 24.28 2.15
-2 -1 8 13.82 1.61
2 1 -7 1.86 1.04
2 1 -7 1.95 0.91
2 1 -7 3.58 1.88
-2 -1 7 3.03 1.1
-2 -1 6 74.84 3.87
2 1 -6 67.79 4.4
-2 -1 5 758.69 29.97
2 1 -5 827.8 29.47
2 1 -5 837.61 29.71
-2 -1 5 765.07 29.09
2 1 -5 789.76 29.77
-2 -1 4 4.31 1
2 1 -4 6.88 1.86
-2 -1 4 6.11 1.77
2 1 -4 5.71 1.23
2 1 -4 4.18 0.89
2 1 -4 3.93 1.14
-2 -1 3 223.39 8.66
-2 -1 3 211.41 9.37
2 1 -3 214.32 8.49
-2 -1 3 206.24 8.4
-2 -1 3 225.98 8.9
-2 -1 2 18.78 1.62
-2 -1 2 18.99 1.33
2 1 -2 18.56 1.44
-2 -1 2 16.9 2.53
-2 -1 2 16.31 1.56
-2 -1 1 1150.65 42.25
-2 -1 1 1182.62 42.08
2 1 -1 1140.61 41.77
-2 -1 1 1174.6 42.17
2 1 0 3.93 0.91
2 1 0 2.48 0.78
2 1 0 3.86 1.46
2 1 1 223.45 8.82
2 1 1 225.9 8.94
2 1 2 0.47 0.68
2 1 2 1.27 1.2
2 1 3 284.9 10.62
-2 -1 -3 285.29 10.69
2 1 3 262.57 10.4
2 1 3 259.86 10.52
2 1 4 -0.05 0.97
-2 -1 -4 0.4 1.05
2 1 4 0.76 0.9
-2 -1 -5 5.08 0.87
2 1 5 4.95 0.96
2 1 6 19.68 1.38
2 1 7 849.05 30.53
2 1 8 0.55 0.94
2 1 8 1.78 1.13
-2 -1 -8 0.38 1.23
2 1 9 226.56 9.38
2 1 9 197.3 9.1
-2 -1 -9 223.04 9.38
2 1 10 38.46 3.11
-2 -1 -10 35.64 2.17
2 1 10 47.2 3.44
-2 -1 -10 43.82 3.42
2 1 11 236.05 9.2
2 1 11 215.39 9.12
2 1 12 2.39 1.37
2 1 12 3.84 1.95
2 1 13 175.82 8.34
2 1 13 177.15 8.57
2 1 14 70.06 4.85
2 1 15 50.65 3.83
2 1 16 0.95 1.62
2 1 17 34.57 3.38
2 1 18 25.61 3.07
2 2 -16 1.58 1.95
-2 -2 16 1.08 2.45
2 2 -15 19.24 3.26
-2 -2 15 34.03 3.74
2 2 -14 0.26 1.65
-2 -2 14 -0.11 2.29
2 2 -13 82.32 6.04
-2 -2 13 107.17 6.19
2 2 -12 65.03 4.21
-2 -2 12 71.49 4.17
2 2 -11 16.45 2.47
-2 -2 11 27.72 3.08
2 2 -10 33.29 2.96
2 2 -10 34 2.59
-2 -2 10 30.15 2.5
2 2 -9 57.59 4.16
2 2 -9 53.5 3.8
-2 -2 9 68.2 3.73
2 2 -9 55.1 4.18
-2 -2 9 53.37 3.23
2 2 -8 439.8 15.38
2 2 -8 448.28 16.03
2 2 -8 422.28 16.53
-2 -2 8 427.17 15.75
2 2 -8 336.22 15.74
-2 -2 8 355.65 15.29
2 2 -7 18.68 1.66
2 2 -7 15.54 1.84
2 2 -7 14.25 2
-2 -2 7 18.3 1.91
2 2 -7 14.01 2.45
-2 -2 7 13.88 1.62
2 2 -6 287.44 11.05
2 2 -6 280.85 11.83
-2 -2 6 280.04 11.15
2 2 -6 281.55 11.57
-2 -2 6 258.6 11.03
2 2 -5 119.59 5.08
-2 -2 5 135.04 5.08
2 2 -4 251.19 10.02
2 2 -4 252.12 10.16
-2 -2 4 245.81 9.95
2 2 -3 9.46 1.31
2 2 -3 10.63 2.05
-2 -2 3 9.55 1.22
2 2 -3 10.25 1.39
-2 -2 2 68.5 3.07
2 2 -2 62.7 3.05
2 2 -2 67.02 3.44
2 2 -1 34.58 2.39
2 2 -1 45.68 2.69
2 2 0 1011.65 37.13
2 2 0 1002.86 37.17
2 2 0 976.4 36.98
2 2 0 1110.71 37.45
2 2 1 2.09 0.91
2 2 1 2.47 0.89
2 2 1 1.93 0.76
2 2 1 2.85 1.51
2 2 2 239.77 9.17
2 2 2 251.12 9.37
2 2 3 2.64 0.86
2 2 3 3.49 1.27
2 2 3 3.94 1.08
-2 -2 -4 713.96 26.65
-2 -2 -4 714.19 26.72
2 2 4 740.06 26.75
2 2 4 745.03 26.76
-2 -2 -5 2.03 0.78
-2 -2 -5 2.28 0.83
2 2 5 2.87 1.09
2 2 5 3.16 1.19
-2 -2 -6 486.91 18.75
-2 -2 -6 510.04 18.52
2 2 6 512.78 18.43
2 2 6 475.78 18.79
-2 -2 -7 16.72 1.68
-2 -2 -7 14.87 1.38
2 2 7 19.17 1.41
2 2 7 19.3 2.03
-2 -2 -8 58.25 2.48
2 2 8 59.62 3.25
2 2 9 3.21 1.23
2 2 9 4.18 1.6
2 2 10 299.96 11.96
2 2 10 279.5 12.06
2 2 11 21.1 2.31
2 2 11 29.67 2.97
2 2 12 69.95 4.23
2 2 12 78.01 4.68
2 2 13 0.77 1.15
2 2 13 1.29 1.88
2 2 14 185.02 8.51
2 2 14 170.9 8.76
2 2 15 34.61 3.4
2 2 15 44.27 4.17
2 2 16 31.13 3.02
2 2 16 35.42 3.73
2 2 17 1.78 1.47
2 2 17 2.12 2.27
2 2 18 58.2 4.92
2 3 -16 42.5 4.56
-2 -3 16 51.4 4.57
2 3 -15 10.11 2.61
-2 -3 15 16.08 2.92
2 3 -14 4.27 2.2
-2 -3 14 5.85 2.46
2 3 -13 26.87 3.3
-2 -3 13 36.36 3.44
2 3 -12 89.25 5.66
-2 -3 12 132.39 5.87
2 3 -11 34.68 2.27
2 3 -11 33.67 3.19
-2 -3 11 37.94 3.11
-2 -3 10 3.25 1.39
2 3 -10 3.76 1.31
2 3 -10 3.94 1.75
2 3 -10 2.6 2.48
-2 -3 10 4.29 1.73
-2 -3 10 6.26 2.12
2 3 -9 93.21 4.29
-2 -3 9 77.57 4.18
2 3 -9 84.07 5.17
2 3 -9 99.7 4.9
-2 -3 9 84.77 4.57
-2 -3 9 96.25 4.93
2 3 -8 223.87 8.9
2 3 -8 199.84 9.9
2 3 -8 190.86 9.23
2 3 -8 205.65 9.62
-2 -3 8 226.69 9.12
-2 -3 8 200.1 8.91
2 3 -7 207.29 8.25
2 3 -7 217.62 8.74
2 3 -7 203.52 9.14
2 3 -7 186.47 8.83
-2 -3 7 188.33 8.34
-2 -3 7 184.94 8.22
2 3 -6 6.11 1.27
-2 -3 6 3.41 1.28
2 3 -6 2.84 1.15
2 3 -6 4.97 2.23
-2 -3 6 4.74 1.34
2 3 -6 7.34 1.65
2 3 -5 190.62 7.95
2 3 -5 204.94 8.74
-2 -3 5 187.21 7.93
-2 -3 5 191.51 7.99
2 3 -4 161.46 7.46
-2 -3 4 174.94 7.35
2 3 -3 1248.68 44.72
2 3 -3 1250.22 45.21
-2 -3 3 1212.71 44.57
2 3 -3 1190.04 45.37
2 3 -2 2.63 1.02
-2 -3 2 3.3 1.05
2 3 -1 1034.13 37.43
-2 -3 1 999.28 37.06
2 3 -1 1037.97 37.56
2 3 0 77.53 4.34
2 3 0 78.71 4.06
2 3 1 1026.36 37.3
2 3 1 1008.46 37.28
2 3 1 1016.98 37.28
-2 -3 -1 1028.26 36.89
2 3 2 1.82 0.84
-2 -3 -2 1.64 0.8
2 3 2 2.05 0.72
2 3 2 1.87 0.89
-2 -3 -2 3.12 0.93
-2 -3 -3 658.52 24.1
2 3 3 630.1 24.06
2 3 3 641.72 24.13
-2 -3 -3 652.4 24.05
-2 -3 -3 668.89 23.88
2 3 3 661.96 23.98
-2 -3 -4 19.54 1.59
2 3 4 18.12 1.7
2 3 4 16.24 1.54
-2 -3 -4 17.69 1.52
2 3 4 25.51 1.89
-2 -3 -4 24.37 1.77
2 3 5 275.25 11.13
-2 -3 -5 300.7 11.26
2 3 5 284.78 11.25
-2 -3 -5 311.91 11.33
-2 -3 -6 3.48 0.93
2 3 6 5.28 1.41
-2 -3 -6 6.28 1.39
-2 -3 -7 713.83 27.31
2 3 7 736.6 27.6
-2 -3 -7 780.68 27.62
-2 -3 -8 3.82 1
2 3 8 5.28 1.58
-2 -3 -8 4.59 1.57
-2 -3 -9 231.97 9.82
2 3 9 284.56 10.27
2 3 9 227.36 9.29
2 3 9 252.77 10.38
-2 -3 -9 276 10.42
2 3 10 0.9 0.9
2 3 10 0.14 1.4
2 3 11 386.37 15.06
2 3 11 369.72 15.42
2 3 12 3.61 1.31
2 3 12 5.76 2.08
2 3 13 17.22 1.92
2 3 13 20.6 2.73
2 3 14 1.95 1.21
2 3 14 1.79 2.12
2 3 15 238.48 10.42
2 3 15 226.32 11
2 3 16 11 2.04
2 3 16 17.59 3.1
2 3 17 6.7 2.6
2 3 18 6.09 2.64
2 4 -15 80.07 6.33
-2 -4 15 98.5 6.05
2 4 -14 0.3 1.98
-2 -4 14 0.2 2.19
2 4 -13 5.4 2.4
-2 -4 13 9.22 2.54
2 4 -12 3.9 1.38
2 4 -12 3.07 1.83
2 4 -12 0.92 2.36
-2 -4 12 4.55 2.19
2 4 -11 131.51 5.93
2 4 -11 120.67 7.16
2 4 -10 33.03 2.38
2 4 -10 28 3.02
-2 -4 10 26.84 2.7
2 4 -9 9.5 1.66
-2 -4 9 6.71 1.71
2 4 -9 5.44 1.93
2 4 -9 7.48 2.8
-2 -4 9 8.32 1.9
-2 -4 9 10.29 2.15
2 4 -8 29.55 2.33
-2 -4 8 31.41 2.43
2 4 -8 31.64 3.06
2 4 -8 31.38 2.62
2 4 -8 30.96 3.29
-2 -4 8 29.95 2.56
-2 -4 8 37.63 2.76
2 4 -7 184.64 8.53
-2 -4 7 207.05 8.7
2 4 -7 177.31 8.75
2 4 -7 196.42 9.59
-2 -4 7 199.69 8.6
2 4 -7 217.03 9.3
-2 -4 7 213.95 8.69
2 4 -6 109.08 6.17
-2 -4 6 111.62 5.42
2 4 -6 124 5.85
-2 -4 6 116.56 5.47
2 4 -5 7.54 2.44
-2 -4 5 9.61 1.62
-2 -4 5 6.74 1.5
2 4 -5 7.92 1.69
2 4 -4 88.16 4.7
-2 -4 4 82.47 4.18
-2 -4 4 92.61 4.41
-2 -4 3 163.32 6.86
-2 -4 3 174.4 7.2
2 4 -2 44.29 2.82
-2 -4 2 41.92 2.5
-2 -4 2 44.53 2.65
-2 -4 1 11.25 1.37
2 4 -1 11.95 1.27
2 4 -1 7.95 1.53
2 4 0 369.33 14.24
2 4 0 365.77 14.14
-2 -4 -1 71.81 4.11
2 4 1 70.06 4.02
2 4 1 72.57 4.25
-2 -4 -2 269.58 10.49
2 4 2 258.64 10.46
2 4 2 266.97 10.52
-2 -4 -2 278.16 10.09
-2 -4 -3 3.01 0.82
2 4 3 2.49 0.85
2 4 3 2.21 0.76
-2 -4 -3 2.1 0.73
2 4 3 3.03 0.96
2 4 3 2.95 1.05
-2 -4 -3 4.83 0.96
2 4 4 482.54 18.28
-2 -4 -4 483.19 18.25
2 4 4 479.41 18.34
-2 -4 -4 484.08 18.21
2 4 4 502.92 18.18
-2 -4 -4 499.97 18.13
2 4 5 20.61 1.78
-2 -4 -5 17.75 1.52
2 4 5 16.93 1.66
-2 -4 -5 19.09 1.55
2 4 5 22.67 1.8
-2 -4 -5 22.6 1.79
2 4 6 65.31 3.22
-2 -4 -6 68.44 3.22
-2 -4 -6 70.73 3.52
2 4 6 73.17 3.5
-2 -4 -7 1.33 0.78
2 4 7 2.1 1.36
-2 -4 -7 2.02 1.34
-2 -4 -8 597.12 21.97
2 4 8 597.79 22.43
-2 -4 -8 617.41 22.4
-2 -4 -8 567.54 21.71
2 4 9 0.83 0.85
-2 -4 -9 0.43 0.75
-2 -4 -9 0.65 0.79
2 4 9 0.97 1.44
2 4 10 19.71 1.73
-2 -4 -10 20.12 1.65
2 4 10 23.13 2.36
2 4 11 1.39 0.92
2 4 11 0.7 0.9
2 4 11 1.06 0.93
2 4 11 0.23 1.62
2 4 12 295.77 11.83
2 4 12 286.04 12.51
2 4 13 5.34 1.38
-2 -4 -13 5.08 1.4
2 4 13 8.35 2.32
2 4 14 3.06 1.22
-2 -4 -14 3.64 1.24
2 4 14 4.36 2.15
-2 -4 -15 0.33 1.25
2 4 15 2 1.17
2 4 15 3.22 2.41
2 4 16 129.26 6.46
2 4 16 148.97 7.9
2 4 17 3.37 2.54
2 4 18 6.48 2.62
2 5 -15 3.87 2.3
-2 -5 15 4.92 2.44
2 5 -14 70.65 5.91
-2 -5 14 92.54 5.59
2 5 -13 4.35 2.17
-2 -5 13 7.9 2.4
2 5 -12 5.33 1.7
2 5 -12 6.15 2.27
2 5 -12 0.08 2.88
-2 -5 12 8.05 2.26
2 5 -11 10.26 1.77
2 5 -11 9.25 2.27
-2 -5 11 12.68 2.2
2 5 -10 101.96 5.31
2 5 -10 96.76 6.34
2 5 -9 5.94 1.56
2 5 -9 4.4 2.73
-2 -5 9 7.63 1.84
-2 -5 8 38.78 2.98
2 5 -8 34.53 4.14
-2 -5 8 30.34 2.86
2 5 -8 32.12 3.31
-2 -5 8 43.91 2.96
-2 -5 7 49.39 3.24
2 5 -7 48.55 4.1
-2 -5 7 46.19 3.25
2 5 -7 53.21 3.74
-2 -5 7 52.12 3.12
-2 -5 6 187.49 7.73
2 5 -6 145.13 8.11
-2 -5 6 160.71 7.49
2 5 -6 153.99 8.56
2 5 -6 174.51 7.95
2 5 -5 39.87 3.17
2 5 -5 46.12 2.99
-2 -5 5 41.19 2.83
-2 -5 5 45.41 2.97
2 5 -4 26.74 2.75
2 5 -4 28.79 2.43
-2 -5 4 36.02 2.51
-2 -5 4 41.72 2.81
2 5 -3 168.76 7.88
2 5 -3 186.95 7.65
-2 -5 3 172.9 7.45
-2 -5 3 174.66 7.67
2 5 -2 85.71 5.17
2 5 -2 93.87 4.8
2 5 -1 36 2.21
2 5 -1 38.01 2.56
-2 -5 1 34.51 2.26
2 5 0 35.6 3.02
2 5 0 41.6 2.63
2 5 1 635.66 24.64
-2 -5 -1 651.05 24.61
2 5 1 646.72 24.58
-2 -5 -1 675.09 23.85
-2 -5 -2 48.22 2.93
2 5 2 49.99 3.1
2 5 2 52.81 2.9
-2 -5 -2 55.68 2.42
-2 -5 -3 18.81 1.47
2 5 3 19.25 1.51
2 5 3 18.95 1.43
-2 -5 -3 21.61 1.75
-2 -5 -3 20.78 1.34
2 5 3 19.04 1.46
-2 -5 -4 18.93 1.66
2 5 4 21.6 1.82
-2 -5 -4 19.77 2.09
-2 -5 -4 25.91 1.82
2 5 5 607.52 21.39
-2 -5 -5 555.67 21.24
-2 -5 -5 570.62 21.3
2 5 5 587.4 21.58
-2 -5 -5 559.95 21.6
-2 -5 -5 582.57 21.39
2 5 5 573.37 21.31
-2 -5 -6 6.88 0.99
2 5 6 6.78 1.21
-2 -5 -6 4.8 0.85
2 5 6 8.32 1.4
-2 -5 -6 7.26 1.35
-2 -5 -6 6.03 1.3
-2 -5 -7 3.35 0.75
2 5 7 3.89 0.94
-2 -5 -7 3.42 0.69
-2 -5 -7 4.34 1.07
2 5 7 4.26 1.3
-2 -5 -8 4.81 0.9
2 5 8 6.46 1.1
-2 -5 -8 6.98 1.02
2 5 8 8.88 1.76
-2 -5 -8 5.89 1.18
2 5 9 481.41 16.97
-2 -5 -9 444.84 16.8
-2 -5 -9 421.3 16.67
2 5 9 454.63 17.49
2 5 10 0.35 0.77
-2 -5 -10 1.24 0.82
2 5 10 1.15 1.58
-2 -5 -11 7.95 1.12
2 5 11 8.8 1.17
2 5 11 6.24 1.53
2 5 11 9.31 1.93
2 5 12 1.96 0.93
-2 -5 -12 0.79 0.72
2 5 12 2.09 1.27
2 5 12 4.14 1.95
2 5 13 390.79 15.12
2 5 13 387.76 16.25
-2 -5 -14 0.36 0.99
2 5 14 0.34 0.92
2 5 14 0.2 1.97
2 5 15 6.51 1.23
2 5 15 10.53 2.63
2 5 16 0.92 2.35
2 5 17 93.01 6.23
2 6 -14 2.85 2.37
-2 -6 14 5.3 2.42
2 6 -13 57.81 5.29
-2 -6 13 72.64 4.67
2 6 -12 1.22 1.9
-2 -6 12 2.84 1.97
2 6 -11 43.71 4.28
-2 -6 11 56.25 3.69
2 6 -10 5.07 1.8
2 6 -10 4.06 3
-2 -6 10 6.94 1.9
2 6 -9 93.71 6.94
-2 -6 9 125.16 5.77
-2 -6 8 2.28 1.6
2 6 -8 2.48 2.6
2 6 -8 1.95 2.04
-2 -6 8 3.49 1.48
-2 -6 7 110.78 5.75
2 6 -7 93.33 6.05
2 6 -7 90.95 5.82
-2 -6 7 114.43 5.1
-2 -6 6 81.65 4.56
2 6 -6 76.7 4.96
2 6 -6 85.22 4.62
-2 -6 6 75.74 4.4
-2 -6 5 137.12 6.28
2 6 -5 108.25 6.42
2 6 -5 108.94 5.91
-2 -6 5 120.94 5.9
-2 -6 5 126.66 5.31
2 6 -4 0.78 1.16
2 6 -4 1.5 1.05
-2 -6 4 1.7 1.26
-2 -6 4 1.99 0.98
-2 -6 4 2.09 1.32
-2 -6 3 142.64 6.46
2 6 -3 118.73 6.41
2 6 -3 121.21 5.95
-2 -6 3 126.5 5.9
-2 -6 3 123.45 5.16
2 6 -2 305.11 13.05
2 6 -2 353.61 12.87
2 6 -2 309.86 12.77
-2 -6 2 312.88 12.59
-2 -6 2 310.28 12.91
2 6 -1 91.22 5.21
2 6 -1 96.02 4.83
2 6 0 29.02 1.75
2 6 0 28.86 2.03
2 6 1 51.79 3.26
2 6 1 58.14 3.53
-2 -6 -1 57.78 2.37
2 6 2 114.07 4.5
2 6 2 115.18 4.42
2 6 2 120.75 4.27
2 6 2 119.85 4.76
2 6 3 6.29 1.1
2 6 3 7.15 0.96
-2 -6 -3 6.52 1.06
2 6 3 9.25 1.46
-2 -6 -3 4.22 0.84
2 6 3 4.28 1.01
-2 -6 -4 3.48 0.77
2 6 4 3.62 0.87
2 6 4 3.89 0.74
2 6 4 6.24 1.01
-2 -6 -5 72.79 3.87
2 6 5 82.99 4.09
-2 -6 -6 649.85 10.6
2 6 6 656.61 11.16
-2 -6 -7 6.98 0.88
2 6 7 12.9 1.46
-2 -6 -7 7.66 0.96
-2 -6 -7 10.59 1.65
2 6 7 10.66 1.62
-2 -6 -8 53.81 3.01
-2 -6 -8 56.32 2.59
-2 -6 -8 51.1 2.55
2 6 8 53.43 2.91
2 6 8 58.36 3.31
2 6 9 47.31 2.54
-2 -6 -9 40.11 2.38
-2 -6 -9 44.5 2.43
2 6 10 340.52 12.81
-2 -6 -10 333.06 12.8
-2 -6 -10 337.14 12.78
2 6 10 353.11 13.83
2 6 11 1.81 0.73
-2 -6 -11 1.87 0.79
-2 -6 -11 1.5 0.66
2 6 11 3.12 1.8
-2 -6 -12 51.05 2.64
2 6 12 49.07 2.57
2 6 12 47.88 3.23
2 6 12 57.06 3.87
2 6 13 2.65 0.84
-2 -6 -13 2.96 0.91
2 6 13 3.27 1.58
2 6 13 4.22 2.1
2 6 14 144.81 6.28
-2 -6 -14 157.8 6.55
2 6 15 0.74 2.16
2 6 16 15.8 3.04
2 6 17 0.36 2.46
2 7 -14 19.83 3.48
-2 -7 14 22.05 2.89
2 7 -13 12.42 2.88
-2 -7 13 16.93 2.55
2 7 -12 33.38 4.05
-2 -7 12 46.62 3.43
-2 -7 11 6.97 1.91
-2 -7 10 76.41 4.39
2 7 -9 12.98 3.35
-2 -7 9 17.67 2.13
2 7 -8 99.73 6.48
2 7 -8 101.58 6.47
-2 -7 8 115.12 5.26
2 7 -7 1.18 1.64
-2 -7 7 1.56 1.62
-2 -7 7 1.22 1.26
2 7 -6 83.49 5.64
-2 -7 6 106.14 5.58
2 7 -5 8.87 1.93
2 7 -5 12.6 1.85
-2 -7 5 10.91 2.1
-2 -7 5 10.29 1.91
-2 -7 5 10.76 1.34
-2 -7 4 105.33 5.53
2 7 -4 84.41 5.46
2 7 -4 90.21 5.02
-2 -7 4 105.85 5.24
-2 -7 4 97.65 4.12
2 7 -3 4.33 1.16
2 7 -3 2.93 1.34
-2 -7 3 4.81 1.64
2 7 -3 4.69 1.67
-2 -7 3 3.21 1.48
-2 -7 3 4.71 0.79
-2 -7 2 152.19 6.77
2 7 -2 114.38 6.54
2 7 -2 123.46 6.15
-2 -7 2 143.08 6.23
2 7 -2 143.55 6.51
-2 -7 2 127.92 4.94
-2 -7 1 137.56 6.64
2 7 -1 133.98 6.44
2 7 -1 135.68 6.6
2 7 -1 149.59 6.34
-2 -7 0 42.37 3.11
2 7 0 38.18 2.56
2 7 0 32.31 2.72
2 7 0 39.43 2.88
2 7 1 10.5 1.36
2 7 1 8.72 1.13
2 7 1 9.55 1.18
2 7 1 6.79 1.44
2 7 2 179.18 7.41
2 7 2 180.68 7.77
2 7 3 338.93 13.01
-2 -7 -3 343.89 13.53
2 7 3 327.25 12.92
2 7 3 325.56 12.74
2 7 3 338.59 13.36
2 7 3 340.36 12.47
-2 -7 -4 20.26 2.22
2 7 4 14.02 1.5
2 7 4 14.25 1.36
2 7 4 15.78 1.29
2 7 4 22.3 2.13
2 7 4 17.07 1.43
2 7 5 69.97 3.18
2 7 5 75.61 3.4
2 7 5 73.07 3.34
2 7 6 103.02 4.96
2 7 6 131.06 5.29
-2 -7 -7 146.45 5.87
2 7 7 157.01 6.5
-2 -7 -8 1.4 0.54
2 7 8 1.78 1.1
2 7 8 1.86 1.4
2 7 9 0.35 0.48
-2 -7 -9 1.12 0.48
2 7 9 1.92 1.02
2 7 9 1.76 1.5
2 7 10 13.14 0.93
-2 -7 -10 13.81 0.99
2 7 10 28.12 1.84
2 7 10 33.37 2.75
2 7 11 121.89 4.99
-2 -7 -11 140.21 5.1
-2 -7 -12 1.1 0.43
-2 -7 -12 0.89 0.46
2 7 12 2.47 2.1
2 7 12 2.27 1.88
-2 -7 -13 34.47 1.62
-2 -7 -13 31.75 1.6
2 7 13 50.45 3.42
2 7 13 55.19 3.74
-2 -7 -14 5.42 0.61
-2 -7 -14 2.92 0.55
2 7 15 80 5.33
2 7 16 -0.34 2.44
2 7 17 70.58 5.3
2 8 -13 16.42 3.27
-2 -8 13 23.68 2.68
-2 -8 12 9.7 2.12
-2 -8 11 21.88 2.39
2 8 -10 3.63 2.19
-2 -8 10 8.87 1.79
2 8 -9 57.48 5.01
-2 -8 9 67.98 3.71
2 8 -8 6.96 2.1
-2 -8 8 10.82 1.64
2 8 -7 24.25 3.08
2 8 -6 1.06 1.59
-2 -8 5 104.83 5.74
2 8 -5 86.9 5.74
2 8 -5 82.12 5.64
-2 -8 5 100.93 4.2
-2 -8 4 66.24 4.24
2 8 -4 57.95 4.22
2 8 -4 66.33 3.94
2 8 -4 63.92 4.21
-2 -8 4 59.57 2.7
-2 -8 3 18.39 2.62
2 8 -3 15.3 2.06
2 8 -3 13.36 2.22
2 8 -3 16.22 2.51
-2 -8 3 20.71 1.12
-2 -8 2 67.32 4.17
2 8 -2 62.09 3.96
2 8 -2 58.34 3.55
2 8 -2 63.4 4.07
2 8 -1 188.99 9.01
2 8 -1 182.54 8.49
2 8 -1 199 8.88
2 8 0 55.07 3.54
2 8 0 62.93 3.39
2 8 0 56.32 3.6
2 8 1 8.68 1.52
2 8 1 11.16 1.39
2 8 1 12.74 1.94
2 8 2 8.24 1.15
2 8 2 7.63 1.25
2 8 2 8.6 1.14
-2 -8 -2 9.73 1.75
2 8 2 10.33 1.7
2 8 3 157.51 7.18
2 8 3 152.38 6.95
-2 -8 -3 187.8 7.98
2 8 3 162.7 6.95
2 8 3 179.53 7.67
-2 -8 -4 144.58 7.01
2 8 4 154.94 6.36
2 8 4 147.11 6.28
2 8 4 153.45 6.25
2 8 4 149.95 6.91
2 8 4 154.13 5.99
2 8 5 5.27 1.07
2 8 5 4.74 0.88
-2 -8 -5 6.74 1.77
2 8 5 7.12 1.63
2 8 5 8.12 1.25
2 8 6 55.55 2.58
-2 -8 -6 63.01 3.61
2 8 6 62.04 2.74
2 8 7 143.17 6.05
2 8 7 209.42 7.15
2 8 8 218.88 8.36
2 8 8 316.36 9.85
2 8 9 11.19 1.67
2 8 9 15.74 2.04
2 8 10 170.2 7.16
2 8 10 165.14 7.58
2 8 11 44.85 2.7
2 8 11 46.84 3.57
2 8 12 31.67 3.49
2 8 12 50.5 3.56
2 8 13 1.5 2.37
2 8 13 3.51 2.07
2 8 14 42.35 3.68
2 8 15 1.66 2.21
2 8 16 28.54 3.45
-2 -9 12 34.53 2.86
2 9 -11 13.28 2.95
-2 -9 11 14.62 2.01
2 9 -10 3.65 2.21
-2 -9 10 4.29 1.58
2 9 -9 0.15 1.93
-2 -9 9 4.97 1.51
2 9 -8 60.54 5.17
-2 -9 8 68.26 3.5
2 9 -7 4.15 1.96
2 9 -6 4.9 1.92
-2 -9 6 4.49 1.1
2 9 -6 4.61 2.31
2 9 -5 6.22 1.92
-2 -9 5 9.79 1.1
2 9 -5 8.61 2.48
2 9 -4 81.01 5.42
2 9 -4 92.46 5.45
2 9 -3 11.21 2.05
2 9 -3 12.03 1.83
-2 -9 3 15.28 2.32
2 9 -3 13.88 2.38
2 9 -2 9.55 1.92
2 9 -2 9.33 1.79
-2 -9 2 14.07 2.37
2 9 -2 12.83 2.27
-2 -9 1 38.44 3.28
2 9 -1 33.3 2.92
2 9 -1 35.92 2.65
2 9 -1 36.22 3.13
-2 -9 1 37.58 2.87
2 9 0 157.76 7.49
2 9 0 148.46 6.95
2 9 0 163.28 7.54
2 9 1 69.3 3.95
2 9 1 70.3 3.66
2 9 1 65.94 4.11
2 9 2 8.66 1.31
2 9 2 7.3 1.4
-2 -9 -2 10.73 2.09
2 9 2 6.66 1.22
2 9 2 7.87 1.88
2 9 3 67.4 3.55
-2 -9 -3 72.92 4.31
2 9 3 66.11 3.45
2 9 3 65.02 3.36
2 9 3 66.58 4
2 9 4 177.32 8.17
2 9 4 170.81 7.97
-2 -9 -4 220.79 9.31
2 9 4 175.11 7.95
2 9 4 209.32 8.99
2 9 4 235.11 7.7
2 9 5 36.81 2.11
2 9 5 34.46 2.01
2 9 5 37.38 2.91
2 9 5 39.42 2.12
2 9 6 2.85 0.94
2 9 6 5.2 0.85
2 9 6 5.51 1.68
2 9 7 49.55 2.24
2 9 7 57.6 3.49
2 9 7 57.08 2.92
2 9 8 34.19 2.49
2 9 9 7.79 1.7
2 9 10 8.7 1.55
2 9 10 15.9 2.23
2 9 11 64.65 4.01
2 9 12 20.08 3.56
2 9 12 29.18 3
2 9 13 30.77 3.77
2 9 13 51.05 3.76
2 9 14 11.23 2.75
2 9 15 115.86 6.66
2 9 16 16.07 2.92
2 10 -11 32.58 4.06
2 10 -10 11.38 2.73
-2 -10 10 17.71 1.95
2 10 -9 1.58 2.01
-2 -10 9 1.97 1.33
2 10 -8 20.48 3.21
2 10 -7 64.07 5.29
2 10 -7 63.96 5.24
-2 -10 7 74.5 3.46
2 10 -6 1.73 1.73
2 10 -6 0.61 2.3
-2 -10 6 2.66 0.98
2 10 -5 9.48 2.2
2 10 -5 7.06 2.51
2 10 -4 6.12 2.07
2 10 -4 7.34 2.56
2 10 -3 182.77 9.28
2 10 -3 198.03 9.36
2 10 -2 36.09 3.2
2 10 -2 40.37 3.54
2 10 -1 5.2 1.4
2 10 -1 3.77 1.64
2 10 -1 6.94 2.12
2 10 0 7.91 1.74
2 10 0 7.94 1.5
2 10 0 11.51 2.27
2 10 1 162.41 7.55
2 10 1 154.91 7.12
2 10 1 158.62 7.69
2 10 2 4.32 1.16
2 10 2 5.18 1.36
2 10 2 4.2 1.09
2 10 2 4.12 1.84
2 10 3 17.31 1.62
2 10 3 13.5 1.67
2 10 3 11.23 1.45
2 10 3 13.9 2.17
2 10 4 5.02 1.06
2 10 4 4.45 1.02
2 10 4 3.17 0.9
2 10 4 4.75 1.75
2 10 5 84.12 4.27
2 10 5 82.97 4.15
2 10 5 85.06 4.16
2 10 5 98.21 5.28
2 10 6 55.92 2.66
2 10 6 54.55 2.66
2 10 6 57.04 3.78
2 10 6 56.71 2.81
2 10 7 17.62 2.38
2 10 7 25.91 2.03
2 10 8 18.8 2.32
2 10 8 18.66 1.82
2 10 9 46.07 3.52
2 10 9 51.76 3.17
2 10 10 18.85 2.16
2 10 11 41.34 3.35
2 10 12 72.79 4.47
2 10 13 7.94 3.15
2 10 13 11.1 2.38
2 10 14 1.73 1.94
2 10 15 25.28 3.3
2 11 -10 15.23 3.05
2 11 -9 1.29 2
2 11 -8 2.63 2.03
2 11 -8 6.04 3.04
2 11 -7 3.53 2.12
2 11 -7 6.94 2.96
2 11 -6 59.41 4.93
2 11 -6 60.07 5.08
2 11 -5 8.06 2.17
2 11 -5 10.44 2.9
2 11 -4 15.1 2.47
2 11 -4 15.82 2.94
2 11 -3 17.25 2.61
2 11 -3 17.9 2.99
2 11 -2 110.45 6.3
2 11 -2 103.15 6.29
2 11 -1 1.77 1.54
2 11 -1 1.43 2.12
2 11 0 16.73 1.97
2 11 0 18.43 2.3
2 11 0 19.15 2.65
2 11 1 7.32 1.69
2 11 1 5.48 1.44
2 11 1 8.05 1.42
2 11 1 5.99 2.2
2 11 2 90.44 4.85
2 11 2 97.57 4.91
2 11 2 98.8 5.13
2 11 2 101.09 5.67
2 11 3 17.66 1.75
2 11 3 18.4 1.8
2 11 3 16.45 1.66
2 11 3 16.3 2.38
2 11 4 35.61 2.34
2 11 4 37.43 2.5
2 11 4 36.11 3.24
2 11 4 34.56 2.37
2 11 5 43.85 2.43
2 11 5 45.44 2.49
2 11 5 43.68 2.55
2 11 5 44.57 3.46
2 11 6 60.82 3.36
2 11 6 71.42 4.61
2 11 7 7.07 1.98
2 11 7 7.59 1.29
2 11 8 37.02 3.38
2 11 8 48.89 2.85
2 11 9 29.05 2.84
2 11 9 30.17 2.31
2 11 10 31.14 3.11
2 11 10 36.22 2.74
2 11 11 3.41 1.73
2 11 11 2.79 1.65
2 11 12 27.88 3.07
2 11 12 20.84 4.34
2 11 13 13.96 3.68
2 11 13 25.97 2.75
2 11 14 24.09 2.97
2 12 -9 13.87 3
2 12 -8 4.36 2.08
2 12 -8 7.66 3.31
2 12 -7 3.23 2.11
2 12 -7 1.8 2.88
2 12 -6 62.72 5.1
2 12 -6 65.04 5.44
2 12 -5 15.68 2.76
2 12 -5 14.83 3.19
2 12 -4 2.89 1.91
2 12 -4 0.79 2.62
2 12 -3 10.08 2.2
2 12 -3 7.71 2.69
2 12 -2 23.25 2.77
2 12 -2 21.99 3.15
2 12 -1 24.43 2.85
2 12 -1 26.63 3.31
2 12 0 2.2 1.51
2 12 0 2.15 2.28
2 12 1 28.78 2.5
2 12 1 30.65 2.58
2 12 1 31.83 2.8
2 12 1 29.5 3.34
2 12 2 5.43 1.4
2 12 2 5.33 1.45
2 12 2 5.07 1.24
2 12 2 7.09 2.24
2 12 3 19.72 2
2 12 3 19.07 1.83
2 12 3 16.72 1.92
2 12 3 16.69 2.63
2 12 4 1.89 1.07
2 12 4 3.2 2.01
2 12 5 45.93 2.74
2 12 5 49.37 3.84
2 12 6 2.04 1.85
2 12 7 11.36 2.24
2 12 8 3.03 1.86
2 12 9 40.83 3.59
2 12 10 13.9 2.33
2 12 11 7.68 2.07
2 12 12 1.13 3.27
2 12 12 1 1.68
2 12 13 23.86 2.94
2 13 -8 10.36 2.89
2 13 -7 -0.32 2.05
2 13 -7 0.16 2.92
2 13 -6 7.89 2.44
2 13 -6 6.68 3.2
2 13 -5 7.03 2.44
2 13 -5 5.39 2.85
2 13 -4 19.36 3.06
2 13 -4 20.66 3.77
2 13 -3 3.75 1.94
2 13 -3 2.31 2.65
2 13 -2 21.91 2.9
2 13 -2 19.64 3.32
2 13 -1 9.98 2.18
2 13 -1 9.62 2.88
2 13 0 20.52 2.59
2 13 0 15.64 3.03
2 13 1 5.18 1.59
2 13 1 3.59 2.35
2 13 2 49.34 3.42
2 13 2 44.87 4.04
2 13 3 6.9 1.58
2 13 3 6.32 2.36
2 13 4 14.15 1.65
2 13 4 11.34 2.51
2 13 5 14.64 2.46
2 13 6 53.24 4.13
2 13 7 3.35 1.99
2 13 8 6.22 2.08
2 13 9 1.04 1.8
2 13 10 63.54 4.5
2 13 11 6.83 2.12
2 13 12 5.41 3.54
2 14 -6 3.67 2.07
2 14 -5 13.7 2.82
2 14 -5 12.22 3.28
2 14 -4 26.5 3.39
2 14 -4 25.49 4
2 14 -3 4.33 2.09
2 14 -3 3.64 2.87
2 14 -2 16.62 2.57
2 14 -2 12.11 3.19
2 14 -1 12.67 2.44
2 14 -1 18.51 3.29
2 14 0 16.02 2.38
2 14 0 18.93 3.15
2 14 1 3.68 1.59
2 14 1 4.93 2.51
2 14 2 15.57 1.99
2 14 2 11.72 2.83
2 14 3 45.4 4.16
2 14 4 4.78 2.46
2 14 5 10.07 2.49
2 14 6 7.74 2.3
2 14 7 30.8 3.29
2 14 8 1.96 2.09
2 14 9 3.22 2.03
2 14 10 4.97 2.08
2 15 -3 11.83 2.68
2 15 -3 12.78 3.55
2 15 -2 2.22 1.87
2 15 -2 2.82 2.91
2 15 -1 8.22 2.01
2 15 -1 3.94 2.99
2 15 0 9.98 3.15
2 15 1 18.91 3.21
2 15 2 0.48 2.43
2 15 3 10.83 2.84
2 15 4 12.9 2.8
2 15 5 0.97 2.32
2 15 6 4.3 2.13
2 15 7 13.03 2.7
-3 13 4 5.38 4.77
-3 13 3 30.5 5.88
-3 13 2 2.06 4.44
-3 13 1 25.13 5.76
3 -13 0 2.81 1.57
3 -13 1 13.42 2.1
-3 13 -2 2.24 4.02
3 -13 2 1.2 1.42
-3 13 -3 31.49 5.48
3 -13 3 24.89 2.96
-3 13 -4 16.62 4.88
3 -13 4 11.6 2.44
-3 13 -5 8.91 4.27
3 -13 5 5.53 2.04
-3 12 7 5.23 4.26
-3 12 6 17.46 4.85
-3 12 5 2.91 3.97
-3 12 4 27.29 5.48
-3 12 3 7.29 4.73
-3 12 2 11.54 4.53
3 -12 -2 7.7 1.45
-3 12 1 9.78 4.8
3 -12 -1 8.94 1.65
3 -12 0 32.38 2.96
3 -12 1 15.01 2.23
-3 12 -2 6.58 3.92
3 -12 2 4.75 1.71
-3 12 -3 2.04 3.84
3 -12 3 2.84 1.57
-3 12 -4 33.59 5.3
3 -12 4 30.77 3.27
-3 12 -5 29.99 5.14
3 -12 5 24.14 2.95
-3 12 -6 -2.45 3.98
3 -12 6 1.49 1.67
-3 12 -7 1.45 3.68
3 -12 7 3.15 1.91
-3 12 -8 31.82 5.17
3 -12 8 22.92 3.4
-3 11 9 4.46 4.64
-3 11 8 8 4.15
-3 11 7 50.22 6.36
-3 11 6 31.42 5.07
-3 11 5 10.35 4.3
-3 11 4 4.79 4.18
3 -11 -4 3.92 0.86
-3 11 3 65.79 6.66
3 -11 -3 45.72 2.93
-3 11 2 8.16 4.4
3 -11 -2 3.34 1.27
-3 11 1 4.53 3.97
3 -11 -1 2.89 1.28
3 -11 0 3.76 1.44
3 -11 1 82.75 5
-3 11 -2 9.4 4
3 -11 2 2.61 1.58
-3 11 -3 5.83 3.6
3 -11 3 6.31 1.75
-3 11 -4 4.82 3.61
3 -11 4 1.77 1.56
-3 11 -5 58.7 5.81
3 -11 5 38.94 3.69
-3 11 -6 11.19 3.94
3 -11 6 11.44 2.42
-3 11 -7 1.34 3.32
3 -11 7 1.17 1.78
-3 11 -8 5.14 3.81
3 -11 8 1.08 1.77
-3 11 -9 19.4 4.43
3 -11 9 14.49 2.86
-3 11 -10 13.73 4.34
3 -11 10 11.29 2.6
-3 10 10 9.31 4.48
-3 10 9 12.22 4.07
-3 10 8 -0.64 3.66
-3 10 7 15.25 4.29
-3 10 6 68.28 6.53
-3 10 5 17.34 4.36
3 -10 -5 12.66 1
-3 10 4 1.76 3.58
3 -10 -4 1.41 0.82
-3 10 3 13.82 1.59
3 -10 -3 15.1 1.54
-3 10 3 12.32 4.28
3 -10 -2 127.74 6.42
-3 10 2 195.37 10.34
3 -10 -1 8.21 1.52
-3 10 1 6.22 2.02
-3 10 0 3.01 1.46
3 -10 0 2.46 1.24
-3 10 0 4.92 1.67
-3 10 -1 19.08 2.32
3 -10 1 18.92 2.18
3 -10 1 23.58 2.12
3 -10 2 98.02 4.95
-3 10 -2 101.46 7.22
3 -10 3 5.47 1.7
-3 10 -3 10.27 3.58
3 -10 4 2.16 1.52
-3 10 -4 2.43 3.28
3 -10 5 5.86 1.92
-3 10 -5 8.32 3.84
3 -10 6 58.18 4.65
-3 10 -6 85.94 6.38
3 -10 7 0.71 1.62
-3 10 -7 4.36 3.43
3 -10 8 6.43 2.03
-3 10 -8 8.72 3.58
3 -10 9 5.68 2.36
-3 10 -9 5.73 3.72
3 -10 10 27.5 3.58
-3 10 -10 34.54 4.84
3 -10 11 4.49 2.15
-3 10 -11 0.51 3.3
-3 9 12 25.06 3.63
-3 9 11 -1.09 3.98
-3 9 10 17.15 4.51
-3 9 9 43.95 5.76
-3 9 8 34.91 4.95
-3 9 7 0.45 3.37
-3 9 6 65.99 5.83
-3 9 5 84.82 6.28
3 -9 -5 47.47 2.59
-3 9 4 2.55 0.86
3 -9 -4 2.96 0.91
-3 9 3 0.54 0.8
-3 9 3 2.4 3.13
3 -9 -3 0.83 0.94
-3 9 3 0.92 0.95
-3 9 2 59.3 3.57
-3 9 2 59.93 5.92
3 -9 -2 61.41 3.48
-3 9 1 85.13 5.01
3 -9 -1 80.62 4.6
-3 9 0 0.86 1.38
3 -9 0 1.15 1.13
-3 9 0 -1.11 1.5
3 -9 0 2.61 1.23
3 -9 1 4.79 1.42
-3 9 -1 5.45 1.63
-3 9 -1 2.77 1.68
3 -9 1 7.19 1.56
-3 9 -2 23.48 2.58
3 -9 2 22.95 2.4
3 -9 2 28.46 2.43
3 -9 3 107.88 5.21
-3 9 -3 116.77 7.11
3 -9 4 1.16 1.34
-3 9 -4 3.25 2.93
3 -9 4 2.46 1.73
-3 9 -4 0.98 1.4
3 -9 5 10.89 2.04
-3 9 -5 14.74 3.62
-3 9 -5 9.07 1.78
3 -9 6 5.53 1.92
-3 9 -6 5.43 3.43
-3 9 -6 4.48 1.87
-3 9 -7 79.9 5.99
3 -9 7 58.4 4.72
-3 9 -8 4.27 3.16
3 -9 8 3.93 1.79
-3 9 -9 15.48 3.76
3 -9 9 11 2.31
-3 9 -10 18.09 3.99
3 -9 10 9.3 2.38
-3 9 -11 40.98 4.63
3 -9 11 29.7 3.71
-3 9 -12 3.17 2.95
-3 8 12 2.14 4.59
-3 8 11 16.94 4.31
-3 8 10 0.57 3.42
-3 8 9 89.52 6.86
-3 8 8 31.1 4.83
-3 8 7 19.5 3.93
-3 8 6 2.4 3.15
3 -8 -6 2.54 0.69
-3 8 5 107.22 6.89
3 -8 -5 96.99 4.4
-3 8 5 99.1 4.35
-3 8 4 67.43 3.82
-3 8 4 72.32 3.92
3 -8 -4 77.94 3.83
-3 8 3 4.97 1.09
-3 8 3 5.68 3.41
3 -8 -3 4.72 1.12
-3 8 3 3.52 1.13
-3 8 2 14.02 1.88
3 -8 -2 16.46 1.81
-3 8 1 135.35 6.28
-3 8 1 136.94 8.18
3 -8 -1 126.46 6.17
-3 8 0 81.24 5.27
3 -8 0 87.26 4.99
3 -8 1 2.45 1.19
-3 8 -1 2.65 1.32
3 -8 1 3.86 1.23
-3 8 -1 1.49 1.43
-3 8 -2 23.98 2.69
3 -8 2 26.85 2.52
3 -8 2 32.7 2.47
-3 8 -2 29.28 4
-3 8 -2 19.46 2.34
3 -8 3 40.08 3.17
-3 8 -3 55.22 4.78
3 -8 3 50.46 3.19
-3 8 -3 37.07 2.93
3 -8 4 49.82 3.76
-3 8 -4 62.48 5.17
3 -8 4 61.72 3.87
-3 8 -4 42.57 3.35
3 -8 5 6.08 1.6
-3 8 -5 7.74 2.96
-3 8 -5 6.44 1.6
3 -8 5 7.2 1.95
3 -8 6 73.91 5
-3 8 -6 65.91 4.27
3 -8 7 64.99 4.62
-3 8 -7 56.01 3.91
3 -8 8 78.98 5.48
-3 8 -8 94.3 6.18
3 -8 9 0.13 1.53
-3 8 -9 1.91 2.78
3 -8 10 25.79 3.26
-3 8 -10 33.93 4.21
-3 8 -11 9.51 3.3
-3 8 -12 31.63 3.71
3 -8 13 -0.18 2.28
3 -8 14 15.9 3
-3 7 13 1.58 2.56
-3 7 12 17.37 5.56
-3 7 11 3.71 3.75
-3 7 10 5.57 3.62
-3 7 9 3.96 3.23
-3 7 8 144.49 7.92
3 -7 -8 111.79 4.32
-3 7 7 46.11 4.86
3 -7 -7 25.79 1.54
-3 7 6 19.23 3.45
-3 7 6 12.93 1.16
-3 7 5 5.81 2.94
-3 7 5 4.03 0.91
-3 7 4 107.22 4.78
-3 7 4 102.23 4.8
-3 7 4 99.35 6.57
-3 7 3 24.46 2.19
-3 7 3 26.71 2.19
-3 7 2 0.96 2.66
-3 7 2 0.53 0.94
-3 7 1 55.99 3.73
-3 7 1 72.91 5.75
-3 7 0 192.19 8.65
3 -7 0 201.06 7.92
-3 7 -1 47.02 3.6
3 -7 1 52.58 3.48
3 -7 1 55.56 3.1
-3 7 -1 47.73 3.44
-3 7 -2 15.47 1.93
3 -7 2 12.2 1.74
3 -7 2 17.1 1.76
-3 7 -2 13.3 1.83
3 -7 3 100.49 5.8
-3 7 -3 134.1 7.23
3 -7 3 129.66 5.73
-3 7 -3 91.64 5.37
3 -7 4 57.44 3.93
3 -7 4 62.36 3.77
-3 7 -4 68.04 4.98
3 -7 5 47.97 3.71
3 -7 5 54.81 3.84
-3 7 -5 46.01 3.27
3 -7 6 6.52 1.61
-3 7 -6 6.54 2.75
-3 7 -6 3.47 1.57
3 -7 6 7.65 2
3 -7 7 77.53 5.07
-3 7 -7 67.71 4.41
3 -7 8 8.04 2.12
-3 7 -8 11.45 3.22
-3 7 -8 7.64 2.13
-3 7 -9 20.9 3.38
-3 7 -10 8.26 2.77
-3 7 -11 87.64 5.56
3 -7 11 74.39 5.2
3 -7 12 8.23 2.29
-3 7 -12 9.5 2.73
3 -7 12 5.66 2.31
3 -7 13 5.2 2.07
-3 7 -13 11.75 2.58
3 -7 13 7.55 2.41
3 -7 14 1.75 2.02
3 -7 14 2.39 2.22
3 -7 15 35.97 3.91
-3 6 14 9.12 3.04
-3 6 13 6.46 2.84
-3 6 12 2.12 3.29
-3 6 11 65.35 6.43
-3 6 10 7.77 3.48
3 -6 -10 7.13 0.94
-3 6 9 3.68 3.01
3 -6 -9 1.77 0.69
-3 6 8 6.63 3.13
3 -6 -8 4.31 0.82
-3 6 7 244.58 11.91
3 -6 -7 255.15 9.69
-3 6 6 23.04 3.77
-3 6 6 17.33 1.51
-3 6 5 11.67 3
-3 6 5 11.48 1.23
-3 6 4 56.03 3.3
-3 6 4 61.92 3.36
-3 6 3 433.2 16.65
-3 6 3 437.35 16.75
-3 6 3 429.45 18.08
-3 6 2 46.15 3.12
-3 6 2 41.79 3.1
-3 6 1 25.89 2.17
-3 6 1 29.55 3.53
-3 6 0 86.42 5.19
3 -6 0 105.71 4.39
-3 6 -1 183.56 8.06
3 -6 1 178.75 7.36
-3 6 -2 37.28 3.12
3 -6 2 44.5 2.83
-3 6 -2 39.51 2.98
3 -6 3 13.69 1.83
3 -6 3 16.59 1.91
-3 6 -3 19.45 3.06
-3 6 -3 13.33 1.76
3 -6 4 149.37 7.81
-3 6 -4 151.01 7.41
3 -6 5 121.72 6.48
-3 6 -5 148.84 7.3
3 -6 5 134.31 6.33
-3 6 -5 110.95 5.74
3 -6 6 31.74 3.04
3 -6 6 31.69 3.09
-3 6 -6 28.92 2.69
3 -6 7 15.92 2.27
3 -6 7 19.41 2.55
-3 6 -7 17.58 2.99
-3 6 -7 14.12 2.05
-3 6 -8 157.88 7.6
-3 6 -8 110.62 6.28
-3 6 -9 27.91 3.51
3 -6 9 20.12 2.63
-3 6 -10 12.25 2.67
3 -6 10 10.13 2.17
3 -6 11 9.44 2.18
-3 6 -11 10.81 2.44
3 -6 11 8.76 2.16
3 -6 12 94.36 6.36
-3 6 -12 98.86 5.59
3 -6 12 93.11 5.85
3 -6 13 3.75 2.11
-3 6 -13 5.79 2.28
3 -6 13 5.88 2.42
3 -6 14 5.26 2.19
3 -6 14 1.56 2.12
3 -6 15 0.95 1.95
3 -6 15 1.42 2.19
-3 5 14 88.89 6.29
-3 5 13 -0.71 2.47
-3 5 12 0.83 3.04
3 -5 -12 2.07 1.02
-3 5 11 2.45 3.15
3 -5 -11 0.33 0.85
3 -5 -10 207.5 8.11
3 -5 -10 209.17 7.93
-3 5 9 4.56 3.03
3 -5 -9 3.41 0.87
3 -5 -9 3.06 1.03
3 -5 -8 17.59 1.58
3 -5 -8 16.57 1.37
-3 5 7 5.76 2.8
3 -5 -7 6.04 1.09
3 -5 -7 4.4 0.88
3 -5 -6 216.16 8.47
-3 5 6 207.09 8.35
-3 5 5 17.58 3.24
-3 5 5 13.21 1.46
-3 5 4 81.27 3.97
-3 5 4 79.84 3.91
-3 5 4 81.37 5.28
-3 5 3 33.45 2.48
-3 5 3 32.03 2.44
-3 5 2 375.67 14.68
-3 5 2 386.02 14.81
-3 5 2 361.37 15.67
-3 5 1 17.11 1.99
-3 5 1 18.95 2.94
3 -5 -1 21.39 1.21
-3 5 0 112.83 5.4
3 -5 0 112.13 4.61
-3 5 -1 108.52 6.1
3 -5 1 133.48 5.51
-3 5 -2 327.91 13.01
3 -5 2 337.01 12.51
-3 5 -2 295.14 12.52
-3 5 -3 6.4 1.49
-3 5 -3 6.66 2.41
-3 5 -3 6.82 1.51
3 -5 3 6.77 1.52
3 -5 4 202.46 8.65
-3 5 -4 182.3 8.3
3 -5 5 193.99 9.65
-3 5 -5 194.35 9.19
-3 5 -6 215.39 9.12
3 -5 6 196.96 8.58
-3 5 -7 4.02 2.22
-3 5 -7 2.44 1.55
3 -5 7 3.03 1.89
3 -5 8 60.73 3.94
-3 5 -8 58.05 3.84
3 -5 9 152.49 8.58
-3 5 -9 193.72 8.38
3 -5 9 178.29 8.31
-3 5 -9 160.03 8.15
3 -5 10 44.47 3.85
-3 5 -10 51.41 3.73
3 -5 10 51.21 3.68
3 -5 11 1.96 1.49
3 -5 11 0.92 1.77
3 -5 12 21.36 2.91
3 -5 12 23.18 2.84
3 -5 13 91.65 6.27
3 -5 13 92.87 5.78
3 -5 14 15.22 2.72
3 -5 14 13.34 2.66
3 -5 15 1.08 1.87
3 -5 15 1.94 2.16
3 -5 16 1.74 1.95
3 -5 16 5.9 2.46
-3 4 14 1.4 2.76
3 -4 -13 115.9 4.98
-3 4 13 137.37 6.99
-3 4 12 0.12 3.13
3 -4 -12 0.49 1.1
3 -4 -11 22.5 1.96
3 -4 -11 23.29 1.92
-3 4 10 1.52 1.14
-3 4 10 3.01 3.06
3 -4 -10 0.3 0.98
-3 4 9 199.96 8.44
3 -4 -9 216.34 8.55
-3 4 8 2.79 2.96
3 -4 -8 2.92 1.07
3 -4 -7 42.85 2.55
-3 4 7 38.95 3.8
3 -4 -7 39.54 2.25
-3 4 6 4.12 0.98
3 -4 -6 2.81 0.98
3 -4 -5 190.62 7.98
-3 4 5 186.55 9.1
-3 4 5 195.41 7.97
-3 4 4 0.19 0.68
-3 4 4 1.67 2.15
3 -4 -4 0.5 0.83
-3 4 4 0.18 0.77
3 -4 -3 144.43 6.47
-3 4 3 153.16 6.52
-3 4 3 153.17 6.59
-3 4 3 144.04 7.39
-3 4 2 16.12 1.72
-3 4 2 17.25 1.84
-3 4 1 142.41 6.47
3 -4 -1 149.32 5.5
-3 4 1 139.54 7.21
-3 4 0 1.02 0.94
-3 4 0 0.78 1.72
3 -4 0 1.15 0.71
-3 4 -1 174.58 7.7
3 -4 1 178.07 7.16
-3 4 -2 78.5 4.95
-3 4 -2 89.34 4.72
-3 4 -3 61.33 3.65
-3 4 -3 67.72 4.2
3 -4 3 61.58 3.48
-3 4 -3 61.78 3.39
-3 4 -4 8.05 2.08
3 -4 4 7.59 1.6
-3 4 -4 7.35 1.54
3 -4 5 294.78 12.21
-3 4 -5 282.88 11.88
3 -4 6 177.78 8.02
-3 4 -6 155.98 7.48
-3 4 -7 17.52 2.06
3 -4 7 15.48 2.27
3 -4 7 16.17 2.18
3 -4 8 1.96 1.42
-3 4 -8 1.96 1.61
3 -4 8 2.51 1.84
3 -4 8 1.5 1.63
3 -4 9 63.24 4.37
3 -4 9 61.31 3.99
-3 4 -9 63.06 4.07
3 -4 10 134.51 7.61
3 -4 10 146.37 7.25
3 -4 11 7.57 1.89
3 -4 11 7.67 2.05
-3 4 -12 8.25 1.83
3 -4 12 9.97 2.12
-3 4 -12 8.12 1.98
3 -4 12 6.93 2.12
-3 4 -13 16.67 2.28
3 -4 13 18.31 2.77
-3 4 -13 18.34 2.03
3 -4 13 19.64 2.7
3 -4 14 72.63 5.61
3 -4 14 77.74 5.29
3 -4 15 0.86 1.87
3 -4 15 2.09 2.12
3 -4 16 14.45 2.97
3 -4 16 16.3 3.06
3 -4 17 0.95 2.2
3 -4 17 1.84 2.49
-3 3 15 4.61 2.96
3 -3 -14 37.37 2.98
-3 3 14 51.07 4.65
3 -3 -13 1.73 1.25
-3 3 13 1.3 2.8
-3 3 13 2.66 2.47
3 -3 -12 109.92 5.07
3 -3 -12 106.52 4.87
3 -3 -11 1.74 1.02
-3 3 11 1.76 2.97
3 -3 -11 1.21 1.24
3 -3 -11 2.54 1.13
3 -3 -10 110.24 4.9
3 -3 -10 111.88 5.11
3 -3 -10 113.89 4.86
3 -3 -9 -0.16 0.83
-3 3 9 0.22 1.02
3 -3 -9 0.57 0.88
3 -3 -9 0.29 0.96
-3 3 9 1.01 2.74
-3 3 9 1.15 0.82
3 -3 -8 228.57 7.82
3 -3 -8 225.79 7.67
-3 3 8 246.25 7.72
-3 3 8 192.33 8.9
-3 3 8 164.82 6.43
3 -3 -7 0.93 0.84
-3 3 7 0.68 2.57
3 -3 -7 3.39 2.32
3 -3 -7 1.23 0.98
3 -3 -6 218.29 8.19
-3 3 6 203.62 9.19
3 -3 -5 7.13 1.31
3 -3 -5 12.66 2.74
-3 3 5 13.94 3.03
-3 3 5 8.92 1.26
-3 3 4 332.28 12.57
3 -3 -4 316.38 12.46
-3 3 4 327.11 13.48
-3 3 4 326.35 12.49
-3 3 3 1.44 0.82
-3 3 3 2.07 2.01
3 -3 -3 2.14 1.9
3 -3 -3 2.26 0.9
-3 3 3 1.63 0.89
-3 3 2 1004.77 36.08
-3 3 2 1012.55 36.21
3 -3 -2 948.33 36.06
-3 3 2 935.88 36.67
3 -3 -1 69.56 4.29
-3 3 1 76.74 4.27
-3 3 1 73.08 4.2
3 -3 -1 79.36 3.03
-3 3 0 281.74 11.88
3 -3 0 292.98 12.21
3 -3 0 306.67 11.17
-3 3 -1 13.59 1.76
3 -3 1 16.99 2.35
3 -3 1 13.92 1.54
-3 3 -2 876.07 33.17
-3 3 -2 844.04 32.82
-3 3 -3 118.37 6.39
-3 3 -3 142.07 6.25
-3 3 -4 83.51 4.42
-3 3 -4 80.57 4.1
-3 3 -5 9.17 1.61
-3 3 -6 305.23 12.54
3 -3 6 328.16 12.86
-3 3 -7 132.92 6.71
3 -3 7 146.19 7.01
3 -3 8 93.27 5.41
3 -3 8 95.23 5.09
-3 3 -8 100.2 5.07
3 -3 9 17.89 2.54
-3 3 -9 15.58 2.38
3 -3 9 18.96 2.36
3 -3 10 187.09 9.23
-3 3 -10 201.73 8.23
3 -3 10 181.14 8.64
3 -3 11 88.17 5.89
-3 3 -11 98.28 4.82
3 -3 11 101.51 5.72
3 -3 12 1.54 1.53
-3 3 -12 1.53 1.43
3 -3 12 2.2 1.8
3 -3 13 17.1 2.7
-3 3 -13 14.02 2.17
3 -3 13 17.92 2.77
3 -3 14 11.49 2.43
-3 3 -14 9.94 1.86
3 -3 14 13.58 2.67
3 -3 15 39.47 4.16
3 -3 15 50.26 4.31
3 -3 16 13.37 2.77
3 -3 16 12.86 2.86
3 -3 17 27.56 3.75
3 -3 17 26.94 3.67
3 -2 -15 29.46 2.85
3 -2 -14 6.35 1.91
3 -2 -13 19.38 2.24
3 -2 -12 21.69 2.44
3 -2 -12 15.95 2.18
3 -2 -12 22.94 2.33
3 -2 -11 67.36 3.95
3 -2 -11 64.07 3.75
3 -2 -11 69.51 3.74
3 -2 -10 9.52 1.68
-3 2 10 10.14 3.5
3 -2 -10 16.63 3.07
-3 2 10 10.94 1.59
3 -2 -10 10.35 1.7
3 -2 -10 8.56 1.83
3 -2 -9 162.6 6.13
3 -2 -9 173.77 6.38
3 -2 -9 181.26 6.09
3 -2 -8 0.23 0.82
-3 2 8 0.92 1.16
3 -2 -8 1 1.03
3 -2 -8 0.87 0.84
-3 2 8 3.24 2.86
-3 2 8 1 0.97
3 -2 -7 66.84 3.57
3 -2 -7 67.92 3.47
-3 2 7 75.51 3.52
-3 2 7 61.43 2.73
-3 2 7 61.01 4.52
-3 2 6 4.58 1.42
3 -2 -6 3.43 0.99
-3 2 6 5.06 2.74
3 -2 -6 5.93 2.64
-3 2 6 2 1.08
3 -2 -6 2.78 1.13
3 -2 -5 651.74 24.01
3 -2 -5 660.33 23.9
-3 2 5 674.84 24.91
-3 2 5 675.18 23.97
-3 2 4 6.45 2.65
3 -2 -4 6.86 2.85
-3 2 4 0.73 0.84
3 -2 -4 0.44 0.85
-3 2 3 30.42 2.15
3 -2 -3 33.02 2.21
-3 2 3 33.76 3
3 -2 -3 32.74 3.14
-3 2 3 31.78 2.14
-3 2 2 2.34 0.99
-3 2 2 3.6 2.12
3 -2 -2 2.21 0.99
-3 2 2 2.22 1.1
-3 2 1 793.96 29.36
-3 2 1 800.83 29.22
3 -2 -1 761.84 29.19
3 -2 0 30.19 2.56
-3 2 0 31.05 2.53
-3 2 -1 283.36 11.79
3 -2 1 312.75 12.12
-3 2 -2 11.54 1.64
3 -2 2 15.22 2.23
-3 2 -2 10.93 1.67
-3 2 -3 1732.89 65.42
-3 2 -3 1714.7 65.13
3 -2 4 133.1 5.79
-3 2 -4 117.47 5.54
-3 2 -5 411.41 15.76
-3 2 -5 392.84 15.52
-3 2 -6 19.55 2.23
-3 2 -6 13.74 1.88
-3 2 -7 443.56 16.72
-3 2 -7 417.39 16.78
-3 2 -8 81.22 4.42
-3 2 -8 67.92 4.46
3 -2 9 3.74 1.33
-3 2 -9 6.6 1.7
-3 2 -9 4.29 1.73
3 -2 9 5.29 1.61
3 -2 10 48.32 3.99
-3 2 -10 60.57 3.4
3 -2 10 56.3 3.92
-3 2 -10 45.62 3.95
3 -2 11 174.7 8.5
-3 2 -11 168.57 6.88
3 -2 11 162.25 8
3 -2 12 41.53 3.87
3 -2 12 50.99 3.99
3 -2 13 -0.48 1.51
-3 2 -13 2.73 1.35
3 -2 13 3.2 1.93
3 -2 14 46.25 4.11
-3 2 -14 35.8 2.95
3 -2 14 47.65 3.95
3 -2 15 58.9 4.79
3 -2 15 68.37 4.83
3 -2 16 19.81 3.16
3 -2 16 22.56 3.39
3 -2 17 0.58 1.86
3 -2 17 -0.72 2.32
3 -1 -15 23.21 2.99
3 -1 -14 33.64 3.24
3 -1 -13 3.63 1.58
3 -1 -12 90.06 4.3
3 -1 -12 5.29 2.78
3 -1 -11 21.02 2.32
3 -1 -11 24.11 2.69
-3 1 11 22.36 2.09
3 -1 -11 15.61 3.16
3 -1 -11 22.91 2.36
3 -1 -10 18.1 2.06
3 -1 -10 15.62 1.81
-3 1 10 16.5 1.66
3 -1 -10 18.49 1.81
3 -1 -9 8.62 1.73
3 -1 -9 12.31 2.06
-3 1 9 15.24 1.74
-3 1 9 9.7 3.44
3 -1 -9 10.33 1.77
3 -1 -8 97.37 4.73
3 -1 -8 96.05 4.53
-3 1 8 85.1 3.77
3 -1 -8 94.81 4.29
3 -1 -7 25.82 2.38
3 -1 -7 33.97 2.77
-3 1 7 32.19 2.49
3 -1 -7 31.65 2.35
3 -1 -7 39.16 3.91
-3 1 7 29.58 2.06
-3 1 7 34.38 3.99
-3 1 6 1.99 1.03
3 -1 -6 1.36 0.77
3 -1 -6 1.89 0.98
-3 1 6 2.06 2.11
3 -1 -6 1.3 2.08
-3 1 6 1.72 0.75
-3 1 5 6.64 1.5
3 -1 -5 2.82 1.06
3 -1 -5 11.47 2.82
-3 1 5 9.06 2.9
-3 1 5 6.25 0.95
-3 1 5 4.36 1.31
3 -1 -5 4.11 1.32
3 -1 -4 701.9 26.32
3 -1 -4 701.48 26.45
-3 1 4 737.89 26.46
3 -1 -4 635.94 26.69
-3 1 4 745.16 27.12
-3 1 3 0.54 0.69
3 -1 -3 0.24 0.72
3 -1 -3 0.2 0.83
-3 1 3 0.1 0.78
3 -1 -3 7.9 2.77
-3 1 3 6.57 2.8
3 -1 -3 0.98 0.69
-3 1 2 229.23 9.24
-3 1 2 226.89 9.11
3 -1 -2 212.09 9.06
-3 1 2 242.76 9.88
3 -1 -2 216.69 8.19
-3 1 1 1.65 0.88
3 -1 -1 1.17 0.93
-3 1 1 0.58 0.98
-3 1 0 1124.67 41.22
-3 1 0 1112.13 41.07
3 -1 0 1119.76 41.25
-3 1 -1 9.62 1.51
3 -1 1 22.77 2.54
-3 1 -2 2.39 0.91
3 -1 2 1.54 1.54
-3 1 -2 3.4 1.08
3 -1 3 17.76 2.22
-3 1 -3 16.73 2.28
-3 1 -3 12.65 1.75
-3 1 -4 243.67 10.19
-3 1 -4 225.91 9.84
3 -1 5 35.05 2.67
-3 1 -5 34.64 2.85
-3 1 -5 26.59 2.46
3 -1 6 22.39 1.95
-3 1 -6 25.71 2.32
-3 1 -6 20.88 1.96
-3 1 -7 55.05 3.35
-3 1 -7 41.53 3.2
-3 1 -8 327.38 12.53
-3 1 -8 305.5 12.87
3 -1 9 22.18 2.57
-3 1 -9 26.51 2.25
-3 1 -9 21.65 2.51
3 -1 10 7.85 1.7
-3 1 -10 8.44 1.47
-3 1 -10 10.16 2.08
3 -1 11 70.6 4.95
3 -1 12 157.79 8.08
3 -1 13 29.95 3.29
3 -1 14 6.09 1.89
-3 1 -14 5.67 1.38
3 -1 14 7.85 2.21
3 -1 15 72.89 5.48
3 -1 15 79.71 5.47
3 -1 16 38.24 3.83
3 -1 16 40.37 3.99
3 -1 17 11.11 2.71
3 -1 17 13.15 3.21
3 -1 18 8.01 2.31
3 -1 18 6.18 2.8
3 0 -15 22.82 2.91
-3 0 15 32.87 3.83
3 0 -14 29.61 3.38
-3 0 14 44.83 4.46
3 0 -13 4.88 1.74
-3 0 13 6.76 2.44
3 0 -12 23.19 3.02
3 0 -12 15.52 3.54
3 0 -11 120.45 5.03
-3 0 11 104.66 3.77
3 0 -10 20.4 2.3
3 0 -10 23.4 2.59
3 0 -10 22.22 2.27
-3 0 10 19.35 2.08
3 0 -9 1.97 1.05
3 0 -9 3.98 1.26
3 0 -9 3.11 1.31
-3 0 9 2.07 2.47
3 0 -9 1.44 2.45
-3 0 9 1.97 1.23
3 0 -8 12.48 1.95
3 0 -8 9.01 1.55
-3 0 8 13.02 1.63
-3 0 8 9.18 3.05
3 0 -8 15.46 3.07
3 0 -8 11.14 1.67
3 0 -7 780.01 26.52
3 0 -7 758.94 26.28
-3 0 7 727.27 25.4
3 0 -7 786.93 26
3 0 -6 4.52 1.17
-3 0 6 5.86 1.29
3 0 -6 5.96 1.16
3 0 -6 5 1.35
-3 0 6 4.83 1.13
-3 0 6 6.64 2.53
3 0 -6 7.55 2.41
3 0 -5 1.52 0.77
-3 0 5 1.75 0.94
-3 0 5 0.93 0.89
3 0 -5 1.35 0.94
3 0 -5 2.66 1.94
-3 0 5 1.37 1.94
-3 0 5 1.59 0.81
3 0 -4 6.79 1.5
3 0 -4 7.21 1.33
-3 0 4 9.92 1.74
3 0 -4 8.69 1.44
-3 0 4 10.55 1.2
-3 0 4 7.98 1.45
-3 0 3 1070.83 39.28
3 0 -3 1046.17 39.34
3 0 -3 1036.19 39.45
3 0 -3 1076.94 38.65
-3 0 3 1079.81 40.11
3 0 -3 1070.62 39.69
-3 0 3 1096.78 39.46
-3 0 2 2.84 1.01
3 0 -2 4.09 1.26
3 0 -2 3.19 0.97
-3 0 2 5.33 1.53
-3 0 2 5.41 2.5
3 0 -2 4.17 0.87
-3 0 2 3.53 1.1
-3 0 1 21.31 1.78
-3 0 1 19.66 1.73
3 0 -1 17.91 1.24
-3 0 0 0.74 0.79
-3 0 0 0.58 1
-3 0 -1 780.71 28.99
-3 0 -1 763.66 28.84
3 0 1 785.05 28.95
3 0 2 1.95 1.26
-3 0 -2 3.94 1.29
3 0 3 53.69 3.17
-3 0 -3 57.35 3.51
3 0 3 55.24 3.17
-3 0 -3 52.38 2.9
3 0 4 15.45 1.99
-3 0 -4 13.72 2.2
-3 0 -4 10.36 1.59
-3 0 -5 839.75 29.86
3 0 5 784.39 29.46
-3 0 -5 783.21 29.62
-3 0 -6 6.76 1.76
3 0 6 5.62 1.52
-3 0 -6 4.17 1.37
-3 0 -7 124.03 6.09
3 0 7 130.86 5.64
-3 0 -7 149.37 6.07
-3 0 -7 127.58 6.08
3 0 7 128.57 6.15
-3 0 -8 71.16 3.76
3 0 8 62.49 4.2
-3 0 -8 57.23 4.1
-3 0 -9 391.41 15.66
3 0 10 8.76 1.88
-3 0 -10 10.74 2.21
3 0 11 175.82 8.55
3 0 12 47.79 3.92
3 0 13 217.09 10.25
3 0 14 2.47 1.59
-3 0 -14 2.08 1.09
-3 0 -14 2.89 1.16
3 0 15 47.87 3.76
-3 0 -15 34.22 1.92
3 0 16 48.87 4.48
3 0 17 29.15 3.44
3 0 18 6.3 2.28
3 1 -15 29.17 3.65
-3 -1 15 40.16 4.19
3 1 -14 34.15 3.56
-3 -1 14 44.57 4.19
3 1 -13 13.37 2.41
-3 -1 13 19.36 3.18
3 1 -12 0.67 1.42
3 1 -12 0.42 2.57
-3 -1 12 2.27 2.21
3 1 -11 57.76 4.32
-3 -1 11 52.59 3.54
-3 -1 11 46.91 2.94
3 1 -10 217.89 7.42
-3 -1 10 196.26 5.91
3 1 -9 19.05 2.31
-3 -1 9 21.21 2.18
3 1 -9 23.7 2.68
3 1 -9 26.64 2.47
3 1 -8 19.33 1.99
-3 -1 8 18.81 1.78
3 1 -8 20.64 2.21
3 1 -8 21.87 1.98
3 1 -7 65.66 4.45
3 1 -7 76.87 4.93
3 1 -7 72.06 4.42
3 1 -6 408.68 15.5
-3 -1 6 387.8 14.67
-3 -1 6 366.64 16.07
3 1 -6 397.2 15.65
3 1 -6 416.38 15.15
3 1 -5 13.62 1.79
3 1 -5 16.09 2.09
-3 -1 5 19.03 1.81
3 1 -5 21.55 2.1
-3 -1 5 20.01 3.17
3 1 -5 20.33 3.11
3 1 -5 17.12 1.81
-3 -1 4 22.65 1.87
3 1 -4 22.7 1.86
3 1 -4 20.03 1.95
-3 -1 4 18.05 1.47
3 1 -4 19.6 1.65
3 1 -4 22.93 2.5
-3 -1 4 21.51 2.76
-3 -1 4 21.45 1.88
-3 -1 3 27.11 2.51
3 1 -3 25.91 2.49
3 1 -3 20.86 2.09
-3 -1 3 30.72 3.99
3 1 -3 26.93 2.08
-3 -1 3 27.06 2.34
-3 -1 2 902.98 32.43
3 1 -2 832.21 31.82
-3 -1 2 926.69 33.35
-3 -1 2 904.41 32.59
-3 -1 1 2 1.17
-3 -1 1 2 0.93
3 1 -1 2.2 0.94
-3 -1 1 2.24 0.99
-3 -1 0 19.37 1.78
-3 -1 0 19.55 1.69
3 1 0 24.66 2.46
3 1 1 3.5 1.23
3 1 1 11.4 2.3
3 1 2 630.23 23.97
3 1 2 642.45 23.91
3 1 3 0.99 1.52
-3 -1 -3 3.71 1.81
3 1 3 0.99 0.93
3 1 4 241.79 10.03
3 1 4 226.78 9.63
3 1 5 21.03 2.3
-3 -1 -5 15.47 2.39
3 1 6 548.19 21.33
-3 -1 -6 616.66 21.84
-3 -1 -7 1.06 0.96
3 1 7 1.32 1.17
3 1 7 1.85 1.3
-3 -1 -8 518.42 20.74
3 1 8 556.16 20.03
3 1 8 534.28 20.89
-3 -1 -9 20.4 2.31
3 1 9 23.55 2.62
3 1 10 388.82 15.32
3 1 10 343.33 14.89
-3 -1 -10 375.15 14.99
3 1 11 0.92 1.45
3 1 11 2.15 1.73
3 1 12 86.98 5.12
-3 -1 -12 87.21 4.09
3 1 12 80.22 5.05
3 1 13 58.98 4.33
3 1 13 63.37 4.54
3 1 14 36.69 3.04
3 1 14 34.64 3.29
3 1 15 -0.87 1.69
3 1 16 76.28 5.17
3 1 17 29.35 3.75
3 1 18 21.33 2.98
3 2 -15 -0.28 1.82
-3 -2 15 1.7 2.44
3 2 -14 58.67 5.35
-3 -2 14 86.74 5.78
3 2 -13 26.44 3.22
-3 -2 13 36.84 3.79
3 2 -12 17.39 2.85
-3 -2 12 25.69 3.37
-3 -2 11 1.53 1.27
3 2 -11 2.37 1.63
3 2 -11 -1.32 2.66
-3 -2 11 6.28 2.18
3 2 -10 87.96 5.44
-3 -2 10 82.67 4.43
-3 -2 10 71.8 4.07
3 2 -9 128.15 6.12
-3 -2 9 120.73 5.03
-3 -2 8 9.05 1.64
3 2 -8 10.97 1.84
3 2 -8 16.9 2.32
3 2 -8 13.16 1.95
3 2 -8 10.78 2.92
-3 -2 8 16.1 1.87
3 2 -7 9.17 1.53
3 2 -7 8.38 1.43
3 2 -7 8.05 1.74
3 2 -7 4.29 2.39
-3 -2 7 7.02 1.43
-3 -2 6 80.8 3.89
3 2 -6 85.93 5.38
3 2 -6 73.71 4.66
3 2 -6 68.96 4.09
3 2 -5 391.94 15.96
3 2 -5 392.23 16.24
-3 -2 5 395.52 15.35
3 2 -5 402.15 16.21
3 2 -5 426.76 15.75
3 2 -4 10.31 1.58
-3 -2 4 11.06 1.54
3 2 -4 10.03 2.51
3 2 -4 14.95 1.62
-3 -2 4 9.14 1.71
3 2 -3 12.66 1.36
3 2 -3 16.12 2.29
-3 -2 3 15.47 1.37
-3 -2 3 16.72 1.69
-3 -2 2 42.05 3.06
3 2 -2 39.73 2.58
-3 -2 2 39.71 4.19
-3 -2 2 37.73 2.83
-3 -2 1 329.25 12.72
3 2 -1 306.63 12.78
3 2 -1 325.13 12.31
3 2 0 2.28 0.93
3 2 0 3.49 1.85
3 2 0 3.12 1.03
3 2 0 2.09 1.02
3 2 1 787.47 30.23
3 2 1 811.98 30.18
3 2 1 842.12 30.38
3 2 2 12.1 1.86
-3 -2 -2 15.39 1.78
3 2 3 900.6 33.29
3 2 3 894.85 33.18
-3 -2 -4 0.91 0.97
3 2 4 1.73 1
-3 -2 -4 1.39 0.87
3 2 4 1.45 1.52
3 2 4 1.46 1.26
-3 -2 -5 426.85 10.01
3 2 5 418.05 9.81
-3 -2 -6 2.62 1.52
3 2 6 3.9 1.58
-3 -2 -7 335.87 13.21
3 2 7 332.67 12.93
3 2 7 354.61 13.6
-3 -2 -8 1.21 0.9
-3 -2 -8 0.77 0.89
3 2 8 1.41 1.14
3 2 8 1.88 1.42
-3 -2 -9 216.35 8.16
-3 -2 -9 196.17 8.43
3 2 9 206.27 8.71
-3 -2 -10 20.87 2.46
-3 -2 -10 25.45 2.19
3 2 10 29.45 3.03
3 2 11 214.99 9.46
-3 -2 -11 206.67 9.02
-3 -2 -11 204.49 8.31
3 2 11 202.44 9.32
3 2 12 0.09 1.24
-3 -2 -12 0.07 1.07
-3 -2 -12 0.75 0.84
3 2 12 0.91 1.7
3 2 13 141.89 6.88
-3 -2 -13 120.11 6.43
3 2 13 124.83 6.7
3 2 14 23.34 2.78
3 2 14 24.82 3.13
3 2 15 30.47 2.98
3 2 15 31.05 3.34
3 2 16 0.62 1.51
3 2 16 1.44 2.26
3 2 17 54.54 4.33
3 2 17 54.86 4.76
3 2 18 19.38 3.17
3 2 18 24.59 3.79
3 3 -15 2.9 2.14
-3 -3 15 4.15 2.69
3 3 -14 5.65 2.21
-3 -3 14 9.56 2.69
3 3 -13 72.82 5.99
-3 -3 13 103.62 6.07
3 3 -12 26.64 3.12
-3 -3 12 29.83 3.33
-3 -3 11 0.96 1.36
3 3 -11 6.93 2.15
3 3 -11 0.68 2.67
-3 -3 11 7.24 2.35
-3 -3 10 1.55 1.33
3 3 -10 0.24 1.47
3 3 -10 3.07 2.62
3 3 -9 94.9 5.86
-3 -3 9 100.28 4.93
-3 -3 9 88.56 4.79
3 3 -8 29.07 2.84
3 3 -8 30.91 2.58
3 3 -8 20.63 3.26
-3 -3 8 26.56 2.3
-3 -3 8 23.91 2.26
3 3 -7 5.68 1.57
-3 -3 7 9.3 1.74
3 3 -7 6.44 1.91
3 3 -7 4.19 1.58
3 3 -7 7.78 2.96
-3 -3 7 7.98 1.68
3 3 -7 10.06 2.21
3 3 -6 96.98 4.75
3 3 -6 103.14 5.09
3 3 -6 82.14 5.43
-3 -3 6 95.77 4.71
3 3 -6 102.72 5.58
3 3 -6 103.97 5.02
3 3 -5 94.47 4.64
3 3 -5 104.37 4.96
-3 -3 5 94.01 4.52
3 3 -5 95.76 5.71
3 3 -5 86.9 4.68
3 3 -4 133.57 6.15
-3 -3 4 146.19 6.07
3 3 -4 130.91 6.93
3 3 -3 4.48 1.32
3 3 -3 6.43 2.41
-3 -3 3 6.58 1.27
-3 -3 3 5.06 1.35
3 3 -2 360.06 10.27
3 3 -2 353.23 9.84
3 3 -2 373.95 10.5
3 3 -1 41.52 3.06
3 3 -1 45.62 3.41
3 3 0 134.51 6.36
3 3 0 146.23 6.5
3 3 0 148.11 6.15
3 3 0 151.78 6.94
3 3 1 6.88 1.42
3 3 1 7.21 1.53
3 3 1 6.45 1.3
3 3 1 11.42 2.42
3 3 2 516.38 20.18
3 3 2 535.84 20.33
3 3 2 523.76 20.36
3 3 2 585.85 20.75
-3 -3 -2 535.01 19.98
-3 -3 -3 17.74 1.91
3 3 3 14.85 1.96
-3 -3 -3 19.92 1.89
-3 -3 -4 386.91 15.33
3 3 4 410.7 15.53
-3 -3 -4 390.66 15.38
-3 -3 -4 375.36 15.45
3 3 4 408.64 15.61
-3 -3 -4 404.56 15.14
3 3 4 413.46 15.34
-3 -3 -5 3.57 1.07
-3 -3 -5 3.54 1.31
3 3 5 3.6 1.24
3 3 5 6.85 1.86
3 3 5 2.83 1.5
-3 -3 -5 3.78 1.37
3 3 6 878.27 20.38
-3 -3 -6 903.84 20.43
3 3 6 853.92 20.51
-3 -3 -7 0.98 1.22
-3 -3 -7 2.21 1.5
3 3 7 1.85 1.49
-3 -3 -8 193.37 7.86
3 3 8 179.64 7.68
3 3 8 184.48 8.26
-3 -3 -8 205.68 8.28
-3 -3 -9 1.04 1.01
3 3 9 1.9 1.27
3 3 9 1.5 1.56
-3 -3 -9 2.61 1.72
-3 -3 -10 484.12 17.59
3 3 10 481.82 17.94
-3 -3 -10 531.75 18.13
-3 -3 -11 6.43 1.43
3 3 11 9.48 1.79
3 3 11 7.75 2.08
3 3 12 39.73 3.11
-3 -3 -12 37.82 2.81
3 3 12 39.82 3.3
3 3 13 3.45 1.44
-3 -3 -13 2.55 1.35
3 3 13 4.76 2.01
3 3 14 262.69 11.2
-3 -3 -14 247.91 10.91
3 3 14 239.63 11.27
3 3 15 8.42 1.98
3 3 15 8.69 2.65
3 3 16 11.1 2.05
3 3 16 12.78 2.72
3 3 17 2.43 1.73
3 3 17 5.68 2.48
3 3 18 64.35 5.24
3 4 -14 4.44 2.31
-3 -4 14 3.6 2.65
3 4 -13 3.2 2.1
-3 -4 13 6.57 2.4
3 4 -12 104.3 7.22
-3 -4 12 131.93 6.9
-3 -4 11 4.15 1.57
3 4 -11 5.46 2.03
3 4 -11 3 2.75
-3 -4 11 8.8 2.38
3 4 -10 4.57 1.6
-3 -4 10 2.29 1.67
3 4 -10 2.45 1.87
3 4 -10 1.19 2.87
-3 -4 10 7.48 2.23
3 4 -9 45.36 2.92
3 4 -9 40.01 3.57
-3 -4 9 36.48 2.89
3 4 -8 151.66 6.9
3 4 -8 144.9 7.97
-3 -4 8 146 6.9
-3 -4 8 149.37 7.01
3 4 -8 163.36 7.79
3 4 -7 20.23 2.02
3 4 -7 15.56 2.31
3 4 -7 17.95 2.01
-3 -4 7 18.2 1.96
3 4 -7 13.48 3.02
3 4 -7 17.12 2.42
-3 -4 7 17.17 2
3 4 -6 17.52 2.08
3 4 -6 14.21 2.06
-3 -4 6 18.91 2.06
3 4 -6 19.52 3.63
3 4 -6 18.6 2.5
-3 -4 6 22.11 2.32
3 4 -5 115.45 5.46
3 4 -5 119 5.58
-3 -4 5 105.49 5.3
3 4 -5 112.9 6.29
-3 -4 5 110.63 5.46
3 4 -4 150.36 6.93
-3 -4 4 148.95 6.76
3 4 -4 131.26 8.07
3 4 -3 65.15 3.65
3 4 -3 61.97 3.74
-3 -4 3 64.4 3.42
3 4 -3 68.97 3.58
3 4 -3 61.92 4.53
3 4 -3 66.49 3.57
3 4 -3 64.8 3.95
3 4 -2 34.53 2.92
3 4 -2 30.27 2.64
3 4 -2 35.94 3.08
3 4 -1 306.99 12.27
3 4 -1 291.25 12.08
3 4 0 68 4.25
3 4 0 60.15 3.88
3 4 1 84.61 4.22
3 4 1 83.49 4.32
3 4 1 83.66 4.26
3 4 1 95.76 4.97
-3 -4 -1 86.08 3.86
3 4 2 19.41 1.75
-3 -4 -2 4.66 1.11
3 4 2 21.26 2.1
3 4 2 22.81 2.08
-3 -4 -2 6.38 1.22
3 4 2 31.19 3.08
-3 -4 -2 27.83 1.98
3 4 3 360.66 14.86
-3 -4 -3 383.7 14.93
-3 -4 -3 390.04 15.08
3 4 3 384.43 14.99
-3 -4 -3 405.53 14.61
-3 -4 -4 10.47 1.54
3 4 4 9.89 1.62
-3 -4 -4 8.94 1.47
3 4 4 11.27 1.8
-3 -4 -4 13.55 1.51
3 4 4 13.95 1.72
3 4 5 11.43 1.4
3 4 5 11.43 1.38
-3 -4 -5 10.96 1.29
-3 -4 -5 11.49 1.3
-3 -4 -5 13.57 1.51
3 4 5 11.68 1.59
-3 -4 -6 12.34 1.49
-3 -4 -6 13.21 1.51
3 4 6 15.95 2.2
3 4 6 16.3 2.11
-3 -4 -6 14.78 2.04
3 4 7 548.95 15.73
3 4 7 549.85 15.72
-3 -4 -7 564.54 15.62
3 4 8 1.79 1.57
-3 -4 -8 1.49 1.59
3 4 9 25.09 2.37
-3 -4 -9 24.05 2.31
-3 -4 -10 0.32 1
3 4 10 2.57 1.42
3 4 10 2.62 1.69
-3 -4 -10 1.04 1.84
-3 -4 -11 358.45 13.21
3 4 11 379.53 13.64
3 4 11 337.37 13.56
3 4 12 1.19 1.25
-3 -4 -12 1.84 1.19
-3 -4 -12 0.93 0.85
3 4 12 1.85 1.77
3 4 13 4.62 1.43
-3 -4 -13 3.7 1.27
3 4 13 5.78 2.08
-3 -4 -14 0.76 1.2
3 4 14 1.09 1.31
3 4 14 0.85 1.97
3 4 15 152.72 7.45
-3 -4 -15 152.13 7.34
3 4 15 153.58 8
3 4 16 8.35 1.95
3 4 16 9.66 2.79
3 4 17 5.42 2.5
3 4 18 6.67 2.84
3 5 -14 -0.17 2.23
-3 -5 14 2.97 2.4
3 5 -13 3.21 2.25
-3 -5 13 8.88 2.5
3 5 -12 4.44 2.11
-3 -5 12 6.07 2.28
3 5 -11 84.88 6.3
3 5 -11 85.14 5.02
3 5 -10 3.6 1.58
-3 -5 10 3.56 1.69
3 5 -10 2.07 1.82
3 5 -10 1.35 2.86
-3 -5 10 4.46 2.02
-3 -5 9 30.03 2.84
3 5 -9 26.12 2.57
3 5 -9 22.75 3.07
3 5 -9 23.65 3.77
-3 -5 9 33.25 3.04
3 5 -8 87.22 4.56
3 5 -8 88.49 5.15
-3 -5 8 72.73 4.45
3 5 -7 129.18 6.46
-3 -5 7 127.02 6.37
3 5 -7 149.06 7.12
-3 -5 7 139.62 6.63
3 5 -6 44.39 3.03
-3 -5 6 39.08 2.94
3 5 -6 39.48 4
3 5 -6 45.92 3.37
-3 -5 6 40.25 3.01
3 5 -5 34.5 2.86
3 5 -5 31.02 3.21
3 5 -5 35.78 2.95
-3 -5 5 34.55 2.71
3 5 -5 31.79 4.03
-3 -5 5 43.03 3.08
3 5 -4 204.13 8.89
3 5 -4 204.63 9.5
3 5 -4 212.67 8.9
-3 -5 4 208.8 8.73
3 5 -4 204.34 8.89
3 5 -4 198.59 9.83
-3 -5 4 201.2 8.93
3 5 -3 145.13 7.08
3 5 -3 139.04 6.89
3 5 -3 130.92 7.49
-3 -5 3 153.96 6.79
3 5 -3 174.28 7.11
3 5 -3 140.44 8.28
-3 -5 3 172.43 7.27
3 5 -2 17.29 1.8
-3 -5 2 18.56 1.73
3 5 -2 19.38 2.01
3 5 -2 18.06 1.69
3 5 -1 56.49 3.77
3 5 -1 51.47 3.38
3 5 0 471.24 18.57
3 5 0 481.33 18.47
3 5 0 475.39 18.43
3 5 1 108.06 5.65
3 5 1 99.4 5.38
3 5 1 98.38 5.66
3 5 2 118.54 5.62
3 5 2 114.76 5.56
3 5 2 115.51 5.48
-3 -5 -2 130.41 5.1
-3 -5 -3 17.56 2.06
3 5 3 58.1 3.15
3 5 3 60.54 3.24
3 5 3 53.96 2.89
-3 -5 -3 68 2.69
-3 -5 -4 956.72 35.92
-3 -5 -4 968.16 36.04
3 5 4 970.6 36.02
3 5 4 944.99 36.05
-3 -5 -4 986.42 35.59
3 5 4 1014.29 35.76
-3 -5 -5 56.37 3.42
3 5 5 55.97 3.62
-3 -5 -5 50.79 3.37
3 5 5 58.4 3.61
-3 -5 -5 58.81 3.27
-3 -5 -6 12.49 1.34
3 5 6 12.86 1.45
-3 -5 -6 11.89 1.29
3 5 6 13.86 1.5
3 5 6 11.94 1.62
-3 -5 -6 13.21 1.58
3 5 7 22.18 2.16
-3 -5 -7 21.16 1.89
-3 -5 -7 20.94 1.96
-3 -5 -7 25.65 2.38
-3 -5 -8 391.84 16.54
-3 -5 -8 413.73 16.66
3 5 8 481.31 17.07
-3 -5 -8 481.73 17.04
3 5 9 6.22 1.76
-3 -5 -9 5.18 1.9
-3 -5 -10 6.78 1.24
3 5 10 6.13 1.76
3 5 10 10.25 1.89
-3 -5 -10 8.48 1.92
-3 -5 -11 3 1.13
3 5 11 2.62 1.3
3 5 11 5.74 1.73
3 5 11 3.2 1.83
-3 -5 -12 148.29 5.76
3 5 12 161.74 6.17
3 5 12 148.97 6.46
3 5 13 0.13 1.14
-3 -5 -13 0.58 1.04
3 5 13 1.04 1.9
-3 -5 -14 7.8 1.45
3 5 14 5.21 1.42
3 5 14 4.8 2.1
3 5 15 0.87 1.11
3 5 15 0.4 1.99
3 5 16 132.21 7.45
3 5 17 -0.46 2.33
3 5 18 16.9 3.08
3 6 -14 32.85 4.15
-3 -6 14 32.67 3.57
3 6 -13 2.54 2.3
-3 -6 13 3.39 2.29
3 6 -12 19.25 3.27
-3 -6 12 25.41 2.96
3 6 -11 3.08 2.11
-3 -6 11 4.06 2.21
3 6 -10 40.58 4.24
-3 -6 10 42.97 3.64
-3 -6 9 1.43 1.62
-3 -6 9 1.83 1.76
3 6 -8 49.11 3.65
-3 -6 8 49.7 3.79
3 6 -8 46.77 4.98
3 6 -8 52.11 4.21
-3 -6 8 58.04 3.67
3 6 -7 4.41 1.75
-3 -6 7 4.64 1.75
3 6 -7 1.88 2.97
3 6 -7 3.81 2.18
-3 -6 7 2.73 1.55
3 6 -6 74.7 4.51
3 6 -6 70.74 5.02
-3 -6 6 73.76 4.54
-3 -6 5 5.36 1.63
3 6 -5 4.66 1.55
3 6 -5 3.74 1.58
3 6 -5 3.52 1.31
3 6 -5 2.1 2.7
3 6 -5 3.47 1.65
-3 -6 5 3.11 1.55
3 6 -4 88.68 4.93
3 6 -4 76.93 5.28
3 6 -4 73.63 4.7
-3 -6 4 93.86 4.79
3 6 -4 94.28 5
3 6 -4 86.48 6.35
-3 -6 4 102.69 5.14
3 6 -3 90.48 5.33
3 6 -3 100.18 4.89
-3 -6 3 91.44 4.72
-3 -6 3 98.01 5.12
3 6 -2 42 3.24
3 6 -2 42.53 3.54
3 6 -2 49.24 3.16
-3 -6 2 52.92 3.15
-3 -6 2 53.95 3.6
3 6 -1 2.35 0.96
3 6 -1 2.28 1.17
3 6 -1 2.6 1.09
-3 -6 1 2.84 1.35
3 6 0 108.45 6.21
-3 -6 0 111.36 6.06
3 6 0 95.03 5.75
-3 -6 0 142.65 6.38
-3 -6 0 151.23 5.35
3 6 1 429.2 17.55
3 6 1 446.57 17.49
3 6 1 431.37 17.62
3 6 1 432.93 17.44
-3 -6 -1 473.15 16.63
3 6 2 68.76 3.99
3 6 2 63.45 3.59
3 6 2 62.57 3.88
-3 -6 -2 62.04 3.02
3 6 3 12.08 1.42
3 6 3 12.49 1.33
3 6 3 14.02 1.71
-3 -6 -3 13.95 1.27
-3 -6 -3 11.09 1.6
3 6 4 52.16 3
3 6 4 49.05 3.16
-3 -6 -4 49.2 2.62
-3 -6 -5 209.93 8.97
-3 -6 -5 217.93 9.07
3 6 5 232.29 9.16
3 6 5 223.33 9.29
3 6 5 247.79 9.01
-3 -6 -5 204.99 8.73
3 6 6 21.7 2.02
-3 -6 -6 20.25 1.87
-3 -6 -6 20.28 1.84
3 6 6 21.69 2.25
3 6 6 27.06 2.18
-3 -6 -6 15.53 1.9
-3 -6 -7 2.44 0.89
-3 -6 -7 2.1 0.76
3 6 7 2.2 1.16
3 6 7 2.87 1.35
-3 -6 -7 1.09 1.32
3 6 8 25.58 2.17
-3 -6 -8 18.93 1.86
-3 -6 -8 20.05 1.9
-3 -6 -8 21.75 2.48
-3 -6 -9 444.61 16.88
-3 -6 -9 448.93 16.95
3 6 9 458.61 17.35
-3 -6 -9 416.47 17.16
-3 -6 -10 8.62 1.26
-3 -6 -10 8.67 1.35
-3 -6 -10 11.08 1.76
3 6 11 33 2.33
3 6 11 31.74 2.76
-3 -6 -11 27.33 2.09
3 6 12 1.82 1.12
3 6 12 6.48 1.79
3 6 12 3.53 2.02
3 6 13 170.46 6.24
3 6 13 173.93 7.2
3 6 14 -0.38 1.05
-3 -6 -14 0.62 0.97
3 6 14 1.67 2.02
3 6 15 56.44 4.37
3 6 16 0.21 2.17
3 6 17 50.37 4.38
3 7 -13 44.4 4.9
-3 -7 13 56.29 4.11
3 7 -12 4.07 2.29
-3 -7 12 1.96 2.05
3 7 -11 28.8 3.81
-3 -7 11 43.55 3.33
-3 -7 10 7.39 2
-3 -7 9 23.19 2.88
3 7 -9 30.35 3.64
-3 -7 9 31.54 2.74
-3 -7 8 1.77 1.77
3 7 -8 -0.44 2.21
-3 -7 8 1.95 1.6
-3 -7 7 100.7 5.76
3 7 -7 88.24 6.18
3 7 -7 97.49 5.99
-3 -7 7 104.42 5.03
-3 -7 6 44.99 3.49
3 7 -6 37.79 3.61
3 7 -6 39.18 3.6
-3 -7 6 38.76 2.75
-3 -7 5 40.08 3.3
3 7 -5 35.42 3.42
3 7 -5 38.71 3.4
3 7 -4 2.24 1.53
3 7 -4 3.42 1.35
-3 -7 4 5.84 1.75
-3 -7 4 2.71 1.6
3 7 -3 125.13 6.93
3 7 -3 120.14 6.22
-3 -7 3 123.22 6.11
3 7 -2 3.39 1.53
3 7 -2 2.6 1.28
-3 -7 2 3.56 1.72
-3 -7 2 4.47 1.6
3 7 -1 21.95 2.47
3 7 -1 19.19 1.96
3 7 -1 17.74 2.02
-3 -7 1 23.12 2.51
3 7 0 3.96 1.07
3 7 0 3.76 1.19
3 7 0 4.83 1.13
-3 -7 0 4.78 1.48
3 7 0 4.78 1.52
-3 -7 0 3.64 0.85
3 7 1 153.36 7.21
3 7 1 156.76 6.7
3 7 1 172.53 7.29
-3 -7 -1 148.75 5.81
3 7 2 125.53 5.24
3 7 2 127.46 5.41
-3 -7 -2 121.24 5.26
3 7 2 137.93 5.68
3 7 3 20.27 1.88
3 7 3 24.13 2.2
3 7 3 28.9 2.56
-3 -7 -3 27.6 2.59
-3 -7 -3 16.51 1.43
3 7 4 3.9 1.07
-3 -7 -4 6.84 1.46
3 7 4 4.89 0.98
3 7 4 6.28 1.41
3 7 4 7.04 1.53
-3 -7 -4 3.88 1.04
-3 -7 -5 44.15 3.27
3 7 5 71 3.81
3 7 5 66.36 4.06
3 7 5 91.77 3.85
-3 -7 -5 82.68 4.34
-3 -7 -5 61.29 3.35
-3 -7 -6 263.88 10.32
3 7 6 282 10.79
3 7 6 285.6 10.47
3 7 6 276.04 10.32
-3 -7 -6 268.02 10.79
3 7 7 5.2 1.31
-3 -7 -7 3.88 1.09
3 7 7 7.23 1.59
3 7 7 7.53 1.61
-3 -7 -7 4.2 1.42
-3 -7 -7 6.6 1.75
-3 -7 -8 75.01 3.69
-3 -7 -8 74.96 3.71
3 7 8 77.9 4.03
3 7 8 77.82 4.12
-3 -7 -8 83.5 4.21
-3 -7 -9 5.27 1.1
3 7 9 8.24 1.6
-3 -7 -9 5.06 1.01
3 7 9 9.85 1.92
-3 -7 -10 41.82 2.46
-3 -7 -10 42.55 2.44
3 7 10 46.07 3.05
3 7 11 6.56 1.28
-3 -7 -11 8.42 1.22
-3 -7 -11 7.6 1.14
3 7 12 90.32 4.29
-3 -7 -12 90.55 4.22
-3 -7 -12 87.26 4.16
3 7 12 88.77 5.07
3 7 13 4.64 1.17
-3 -7 -13 7.23 1.15
-3 -7 -13 5.85 1.01
3 7 14 92.66 5.55
3 7 15 2.95 2.25
3 7 16 66.88 4.82
3 7 17 2.34 2.27
3 8 -12 9.39 2.83
-3 -8 12 10.44 2.18
-3 -8 11 5.97 1.96
-3 -8 10 65.27 4.04
3 8 -9 2.91 2.26
-3 -8 9 4.47 1.75
3 8 -9 6.04 2.94
3 8 -8 12.62 2.75
-3 -8 8 17.27 2.63
3 8 -8 18.74 3.18
-3 -8 8 15.15 1.96
3 8 -7 3.01 2.01
-3 -8 7 3.84 2.08
3 8 -7 4.38 2.25
-3 -8 7 3.92 1.44
-3 -8 6 166.7 8.14
3 8 -6 162.95 8.46
3 8 -6 144.49 8.44
3 8 -5 4.62 2.01
-3 -8 5 7.4 2.24
3 8 -4 11.36 2.21
-3 -8 4 14.98 2.29
-3 -8 4 10.21 1.27
3 8 -3 2.12 1.61
3 8 -3 3.74 1.4
-3 -8 3 1.47 1.68
-3 -8 3 1.82 0.96
3 8 -2 262.93 12.6
3 8 -2 284.89 12.04
-3 -8 2 280.13 11.86
3 8 -1 264.2 9.17
3 8 -1 270.12 9.6
3 8 -1 283.92 8.97
3 8 -1 277.61 9.33
-3 -8 1 281.63 9.58
3 8 0 37.54 2.64
3 8 0 39.85 3
3 8 0 39.93 2.52
3 8 0 53.17 3.33
-3 -8 0 51.17 3.37
3 8 1 5.67 1.13
3 8 1 6.17 1.46
3 8 1 6.63 1.22
3 8 1 7.75 1.71
3 8 2 137.07 6.55
3 8 2 126.4 6.21
3 8 2 123.78 5.92
3 8 3 87.65 4.48
3 8 3 86.03 4.34
3 8 3 85.97 4.19
3 8 3 96.21 4.97
-3 -8 -3 83.94 4.84
3 8 4 4.98 1.05
3 8 4 5.56 1.28
3 8 4 4.26 1.05
-3 -8 -4 7.56 1.96
3 8 4 7.63 1.86
3 8 5 45.88 2.75
3 8 5 46.51 3.23
3 8 5 44.89 2.62
-3 -8 -5 48.17 3.3
-3 -8 -6 65.94 3.91
3 8 6 73.91 4.65
3 8 6 73.46 4.16
3 8 6 96.06 4.23
-3 -8 -6 95.63 4.89
-3 -8 -7 89.16 4.37
3 8 7 106.58 4.61
3 8 7 98.03 5.04
3 8 7 97.06 4.65
-3 -8 -7 99.89 5.16
-3 -8 -8 4.91 1.1
-3 -8 -8 9.65 1.89
3 8 8 8.3 1.73
3 8 8 12.98 2.1
-3 -8 -9 33.98 2.1
3 8 9 39.74 2.74
3 8 9 37.8 2.82
-3 -8 -10 79.15 4.16
3 8 10 69.93 3.84
3 8 10 83.94 4.32
3 8 11 74.16 3.52
-3 -8 -11 71.47 3.39
3 8 11 82.31 4.44
3 8 12 2.34 0.84
-3 -8 -12 2.75 0.82
-3 -8 -13 84.82 3.78
3 8 13 106.91 5.44
3 8 14 20.94 2.97
3 8 15 52.07 4.07
3 8 16 0.41 2.27
3 8 17 68.96 5.02
-3 -9 11 2.25 1.64
3 9 -10 3.71 2.52
-3 -9 10 9.75 1.95
3 9 -9 71.15 5.78
3 9 -9 64.69 5.66
-3 -9 9 75.98 4.03
3 9 -8 4.87 2.28
-3 -9 8 6.54 1.61
3 9 -8 4.25 2.66
3 9 -7 3.03 2.02
-3 -9 7 8.87 2.27
3 9 -7 2.19 2.48
3 9 -6 3.83 1.92
-3 -9 6 6.09 2.18
3 9 -5 117.3 7.08
-3 -9 5 112.88 4.95
3 9 -4 2.41 1.88
-3 -9 4 1.63 2.02
-3 -9 4 2.64 0.96
3 9 -3 8.21 1.94
-3 -9 3 9.6 2.15
3 9 -3 7.92 2.36
-3 -9 3 3.35 0.68
3 9 -2 7.04 1.84
-3 -9 2 7.34 2.01
3 9 -2 7.08 2.06
-3 -9 1 128.11 6.61
3 9 -1 114.42 6.36
3 9 -1 115.72 5.82
3 9 -1 123.76 6.35
3 9 0 2.89 1.35
3 9 0 3.81 1.54
3 9 0 3.53 1.32
-3 -9 0 4.84 2.05
3 9 0 6.81 2.1
3 9 1 4.82 1.32
3 9 1 5.06 1.51
3 9 1 4.66 1.27
3 9 1 6.82 1.99
3 9 2 4.19 1.35
3 9 2 3.6 1.12
3 9 2 3.82 1.17
3 9 2 6.15 1.86
-3 -9 -3 114.59 5.86
3 9 3 101.82 5.24
3 9 3 111.06 5.72
3 9 3 100.51 4.85
-3 -9 -4 33.27 2.93
3 9 4 33.67 2.39
3 9 4 31.78 2.2
3 9 4 31.56 2.13
3 9 4 35.92 3.05
3 9 5 12.51 1.35
3 9 5 10.06 1.55
-3 -9 -5 15.21 2.29
3 9 5 13.72 2.29
-3 -9 -6 30.93 2.79
3 9 6 31.59 2.14
3 9 6 29.02 1.89
3 9 6 32.15 2.82
3 9 6 33.72 2.23
3 9 7 58.36 3.11
3 9 7 57.86 3.52
3 9 7 61.74 4.16
-3 -9 -7 86.56 4.6
3 9 7 81.85 3.8
3 9 8 55.62 2.72
3 9 8 60.07 3.67
-3 -9 -8 60.48 3.8
3 9 8 60.55 3.4
3 9 9 9.28 0.97
-3 -9 -9 13.7 2.03
3 9 9 12.99 1.87
3 9 10 68.77 3.91
3 9 10 68.99 4.01
3 9 11 39.95 3.22
3 9 12 18.53 2.36
3 9 13 9.84 2.48
3 9 14 68.62 4.58
3 9 15 26.34 3.17
3 9 16 3.51 2.25
3 10 -10 -0.53 2.25
3 10 -9 4.85 2.57
-3 -10 9 7.61 1.57
3 10 -9 8.04 3.21
3 10 -8 42.46 4.54
3 10 -8 41.13 4.7
-3 -10 8 48.19 2.74
3 10 -7 12.75 2.75
3 10 -6 0.72 1.89
-3 -10 6 3.5 1.02
3 10 -5 7.47 2.23
-3 -10 5 7.23 2.34
-3 -10 5 7.85 0.97
-3 -10 4 69.09 4.92
3 10 -4 64.7 4.87
3 10 -4 62.92 4.79
3 10 -3 6.21 2.04
-3 -10 3 9.53 2.41
3 10 -3 9.52 2.56
3 10 -2 9.26 2.19
-3 -10 2 11.14 2.57
3 10 -2 9.32 2.49
3 10 -1 1.54 1.6
-3 -10 1 3.44 1.96
3 10 -1 3.51 2.06
3 10 0 77.8 4.81
3 10 0 91.25 5.31
3 10 0 89.61 4.84
3 10 0 96.65 5.44
3 10 1 12.92 1.7
3 10 1 12.46 1.89
3 10 1 10.8 1.62
3 10 1 16.83 2.43
3 10 2 18.5 1.92
3 10 2 18.9 2.2
-3 -10 -2 21.59 2.71
3 10 2 19.71 2
3 10 2 17.12 2.56
3 10 3 14.61 1.7
3 10 3 17.06 1.91
-3 -10 -3 14.73 2.32
3 10 3 17.06 2.5
3 10 3 15.73 1.7
-3 -10 -4 64.2 4.21
3 10 4 47.2 3.14
3 10 4 54.73 3.4
3 10 4 52.86 3.14
3 10 4 65.8 4.15
3 10 5 11.48 1.35
3 10 5 10.49 1.38
-3 -10 -5 11.16 2.05
3 10 5 11.73 2.15
3 10 6 46.86 2.97
3 10 6 47.15 2.76
3 10 6 51.39 3.83
3 10 6 49.46 2.96
3 10 7 56.99 2.97
-3 -10 -7 57.81 3.94
3 10 7 54.98 2.8
3 10 7 53.33 3.83
3 10 7 49.55 3.01
-3 -10 -8 69.87 4.46
3 10 8 57.9 4.06
3 10 8 67.87 4.34
3 10 8 70.45 3.58
3 10 9 3.48 1.49
3 10 9 2.91 1.48
3 10 10 40.58 3.17
3 10 11 39.37 3.18
3 10 12 23.04 2.77
3 10 13 7.47 2.14
3 10 14 9.58 2.43
3 10 15 38.58 3.65
3 11 -9 1.74 2.13
3 11 -9 -0.31 3.06
3 11 -8 13.99 2.92
3 11 -7 37.63 4.25
3 11 -6 1.66 1.96
3 11 -5 5.14 2.16
3 11 -5 6.05 2.75
3 11 -4 9.4 2.39
3 11 -4 10.97 2.86
-3 -11 3 50.39 4.32
3 11 -3 47.16 4.15
3 11 -3 45.08 4.17
3 11 -2 11.93 2.27
-3 -11 2 13.66 2.69
3 11 -2 15.09 2.8
-3 -11 1 29.44 3.38
3 11 -1 27.77 2.94
3 11 -1 27.64 3.32
3 11 0 3.63 1.73
3 11 0 8.32 2.53
3 11 1 48.57 3.49
3 11 1 56.91 3.88
3 11 1 51.94 3.36
3 11 1 54.5 4.15
3 11 2 3.92 1.23
3 11 2 4.27 1.48
3 11 2 2.96 1.16
-3 -11 -2 4.97 2.1
3 11 2 5.97 2.15
3 11 3 67.07 4.08
-3 -11 -3 75.11 4.91
3 11 3 64.02 3.86
3 11 3 66.34 3.76
3 11 3 71.6 4.73
3 11 4 6.95 1.35
3 11 4 6.92 1.51
-3 -11 -4 9.56 2.29
3 11 4 5.67 1.26
3 11 4 9.24 2.43
3 11 5 71.75 3.98
3 11 5 66.77 3.82
3 11 5 72.17 3.74
3 11 5 78.26 4.95
3 11 6 7.03 1.12
3 11 6 8.92 1.33
-3 -11 -6 7.72 2.09
3 11 6 6.88 2.07
3 11 7 50.34 3.98
3 11 7 54.98 3.04
3 11 8 13.15 2.36
3 11 8 9.6 1.68
3 11 9 38.46 3.57
3 11 9 40.99 2.95
3 11 10 2.31 1.84
3 11 10 4.5 1.66
3 11 11 45.69 3.54
3 11 12 52.56 3.81
3 11 13 26.01 2.93
3 11 14 1.1 2.01
3 12 -8 2.24 2.12
3 12 -7 21.12 3.29
3 12 -6 16.65 2.88
3 12 -6 11.78 3.36
3 12 -5 5.51 2.12
3 12 -5 4.55 3.02
3 12 -4 15.96 2.82
3 12 -4 16.42 3.26
3 12 -3 18.35 2.93
3 12 -3 18.87 3.31
3 12 -2 34.36 3.51
3 12 -2 30.41 3.7
3 12 -1 1.81 1.68
3 12 -1 3.91 2.38
3 12 0 27.08 3.38
3 12 0 30.14 3.03
3 12 1 35.13 3.11
3 12 1 35.37 3.64
3 12 2 24.92 2.61
3 12 2 23.33 2.31
3 12 2 27.36 2.34
3 12 2 24.79 3.16
3 12 3 10.51 1.67
3 12 3 6.67 1.4
3 12 3 9.04 1.44
3 12 4 50.44 3.29
3 12 4 46.84 4.02
3 12 5 5.12 1.36
3 12 5 7.2 2.46
3 12 6 22.03 1.99
3 12 6 27.16 3.07
3 12 7 6.95 2.16
3 12 8 35.75 3.53
3 12 9 5.41 2.25
3 12 10 5.57 2.07
3 12 11 2.53 2.01
3 12 12 26.49 3.25
3 12 13 9.55 2.32
3 13 -7 3.24 2.24
3 13 -6 17.12 3.11
3 13 -6 17.62 3.58
3 13 -5 8.75 2.58
3 13 -5 4.85 3.13
3 13 -4 1.33 1.91
3 13 -4 2.94 2.96
3 13 -3 28.52 3.47
3 13 -3 29.59 4.02
3 13 -2 6.71 2.16
3 13 -2 9.42 3
3 13 -1 18.44 2.72
3 13 -1 20.79 3.31
3 13 0 5.94 1.85
3 13 0 3.32 2.45
3 13 1 36.85 3.29
3 13 1 38.64 3.86
3 13 2 7.16 1.8
3 13 2 4.98 2.59
3 13 3 9.9 1.8
3 13 3 14.04 2.75
3 13 4 1.8 1.23
3 13 4 2.71 2.14
3 13 5 57 4.45
3 13 6 4.14 2.29
3 13 7 6.45 2.33
3 13 8 4.55 2.17
3 13 9 52.4 4.31
3 13 10 9.25 2.47
3 13 11 7.36 2.52
3 13 12 0.6 2.14
3 14 -5 14.64 2.96
3 14 -4 2.6 2.11
3 14 -4 4.86 3.13
3 14 -3 5.75 2.25
3 14 -3 2.98 2.83
3 14 -2 9.35 2.32
3 14 -2 5.86 2.85
3 14 -1 30.17 3.26
3 14 -1 25.45 3.69
3 14 0 1.24 1.69
3 14 0 2.73 2.6
3 14 1 20.54 2.6
3 14 1 17.31 3.18
3 14 2 37.19 3.26
3 14 2 34.32 3.95
3 14 3 1.88 2.47
3 14 4 1.24 2.41
3 14 5 3.24 2.35
3 14 6 53.45 4.48
3 14 7 3.84 2.28
3 14 8 1.95 2.11
3 14 9 3.55 2.18
3 14 10 30.44 3.47
3 15 -2 24.76 3.21
3 15 -2 24.38 3.96
3 15 -1 12.98 2.59
3 15 -1 11.54 3.33
3 15 0 2.75 1.8
3 15 0 2.6 2.83
3 15 1 0.67 2.59
3 15 2 7.77 2.92
3 15 3 13.18 3.1
3 15 4 19.26 3.27
3 15 5 1.52 2.32
3 15 6 36.11 3.78
3 15 7 9.12 2.59
-4 12 3 9.22 4.49
-4 12 2 2.25 4.07
-4 12 1 24.51 5.36
4 -12 0 7.7 1.81
4 -12 1 7.06 1.83
-4 12 -2 1.68 4.12
4 -12 2 0.4 1.45
-4 12 -3 22.07 5.22
4 -12 3 19.93 2.63
-4 12 -4 7.01 4.52
4 -12 4 3.75 1.89
-4 12 -5 1.82 4.16
4 -12 5 2.17 1.66
-4 11 7 1.84 4.44
-4 11 6 11.37 4.67
-4 11 5 6.8 4.3
-4 11 4 57.58 6.6
-4 11 3 9.2 4.38
-4 11 2 8.95 4.14
4 -11 -2 6.66 1.54
-4 11 1 10.69 4.43
4 -11 -1 10.18 1.75
4 -11 0 59.04 4.13
4 -11 1 4.1 1.7
-4 11 -2 0.53 3.9
4 -11 2 2.21 1.56
-4 11 -3 10.5 4.38
4 -11 3 8.72 2.05
-4 11 -4 50.45 6.4
4 -11 4 42.65 3.96
-4 11 -5 11.11 4.51
4 -11 5 8.21 2.2
-4 11 -6 3.84 3.7
4 -11 6 0.63 1.65
-4 11 -7 6.92 4.01
4 -11 7 5.11 2.12
-4 11 -8 31.7 5.07
4 -11 8 22.62 3.28
-4 10 8 7.21 4.46
-4 10 7 18.17 5.01
-4 10 6 19 4.52
-4 10 5 4.12 4
-4 10 4 29.05 4.94
4 -10 -4 23.8 1.97
-4 10 3 52.4 5.98
4 -10 -3 42.44 3.08
-4 10 2 1 1.16
-4 10 2 0.65 3.47
4 -10 -2 0.76 1.23
-4 10 1 1.14 3.67
4 -10 -1 1.86 1.39
4 -10 0 23.02 2.52
4 -10 1 47.53 3.77
-4 10 -2 4.54 3.66
4 -10 2 5.79 1.71
-4 10 -3 2.92 3.76
4 -10 3 2.81 1.49
-4 10 -4 7.04 4.03
4 -10 4 4.29 1.8
-4 10 -5 57.86 5.96
4 -10 5 45.56 4.06
-4 10 -6 -0.93 3.66
4 -10 6 2.1 1.67
-4 10 -7 20.48 4.25
4 -10 7 11.84 2.49
-4 10 -8 14.73 4.26
4 -10 8 15.8 2.84
-4 10 -9 64.59 5.78
4 -10 9 43.67 4.52
-4 10 -10 -2.48 3.69
4 -10 10 1.73 1.84
-4 9 10 13.1 4.96
-4 9 9 19.06 5.17
-4 9 8 -1.33 3.72
-4 9 7 48.12 5.73
-4 9 6 40.04 5.48
-4 9 5 6.2 3.7
4 -9 -5 5.91 1.15
-4 9 4 2.23 3.74
4 -9 -4 1.23 1.08
-4 9 3 5.11 1.26
-4 9 3 5.28 3.58
4 -9 -3 3.66 1.28
-4 9 2 23.63 2.61
4 -9 -2 25.68 2.51
-4 9 2 26.27 4.56
4 -9 -1 5.78 1.5
-4 9 1 6.14 3.36
4 -9 0 13.05 2.07
-4 9 0 13.12 2.21
4 -9 1 20.26 2.54
4 -9 1 24.53 2.09
4 -9 2 99.27 4.89
-4 9 -2 104.47 7.3
4 -9 3 2.44 1.51
-4 9 -3 4.13 3.42
4 -9 3 3.95 1.53
-4 9 -4 21.7 4.39
4 -9 4 18.06 2.54
-4 9 -5 14.96 3.98
4 -9 5 15.04 2.53
-4 9 -6 55.12 5.44
4 -9 6 42.27 3.99
-4 9 -7 26.14 4.24
4 -9 7 24.6 3
-4 9 -8 14.29 3.86
4 -9 8 9.23 2.38
-4 9 -9 33.14 4.51
4 -9 9 27.5 3.41
-4 9 -10 15.53 3.73
4 -9 10 12.06 2.74
-4 9 -11 5.89 3.03
4 -9 11 1.2 1.87
-4 9 -12 25.46 3.87
-4 8 11 -2.5 4.43
-4 8 10 13.72 4.94
-4 8 9 12.72 4.49
-4 8 8 3.73 4.01
-4 8 7 1.07 3.33
-4 8 6 62.66 5.87
-4 8 5 50.27 5.64
-4 8 4 26.8 2.14
-4 8 4 25.25 4.29
-4 8 3 30.63 2.8
-4 8 3 45.49 5.32
-4 8 2 230.47 9.91
-4 8 2 234.99 10.12
-4 8 2 218.07 11.72
-4 8 1 117.85 6.56
-4 8 1 142.26 8.48
4 -8 0 0.92 1.18
-4 8 0 1.03 1.38
4 -8 0 1.61 0.98
-4 8 -1 27.75 3.09
4 -8 1 32.22 3
4 -8 2 42.72 3.45
4 -8 2 48.42 2.99
-4 8 -2 48.32 5.05
-4 8 -3 88.28 6.4
4 -8 3 82.01 4.4
4 -8 4 1.62 1.41
-4 8 -4 0.53 2.95
4 -8 4 2.65 1.65
-4 8 -5 51.18 5.07
4 -8 5 42.99 3.83
-4 8 -6 21.76 3.98
4 -8 6 16.49 2.49
-4 8 -7 68.3 5.6
4 -8 7 56.39 4.57
-4 8 -8 1.55 3.03
4 -8 8 3.6 1.76
-4 8 -9 35.26 4.57
4 -8 9 33.01 3.63
-4 8 -10 18.43 3.75
4 -8 10 23.8 3.21
-4 8 -11 26.49 3.91
4 -8 11 21.32 3.28
-4 8 -12 -0.49 2.78
-4 7 11 6.05 4.36
-4 7 10 -0.78 3.77
-4 7 9 55.07 6.18
-4 7 8 15.35 4.44
-4 7 7 1.61 3.3
-4 7 6 7.58 3.59
-4 7 5 121.66 7.66
-4 7 4 16.8 2.02
-4 7 4 16.15 1.96
-4 7 3 23.7 2.15
-4 7 3 22.29 2.08
-4 7 3 22.41 3.88
-4 7 2 15.72 2.03
-4 7 2 15.85 2.04
-4 7 2 19.85 3.83
-4 7 1 54.47 3.54
-4 7 1 54.38 5.05
-4 7 0 42.26 3.56
4 -7 0 47.59 2.51
-4 7 -1 1.92 1.32
4 -7 1 0.84 1.09
-4 7 -1 1.17 1.57
-4 7 -2 51.13 4.25
-4 7 -2 72.64 5.58
4 -7 2 69.34 3.6
-4 7 -2 51.74 3.97
4 -7 3 116.89 6.44
4 -7 3 135.3 5.94
-4 7 -3 137.72 7.55
-4 7 -3 106.1 5.83
4 -7 4 46.84 3.91
4 -7 4 56.7 3.76
-4 7 -4 59.83 5.16
-4 7 -4 46.67 3.63
4 -7 5 12.84 2.13
-4 7 -5 12.05 3.31
4 -7 5 15.37 2.24
-4 7 -5 9.01 1.99
-4 7 -6 92.68 6.23
4 -7 6 74.12 5.34
-4 7 -7 34.2 4.08
4 -7 7 29.19 3.24
-4 7 -8 32.22 3.89
4 -7 8 27.36 3.24
-4 7 -9 5.19 2.79
4 -7 9 2.09 1.66
-4 7 -10 75.35 5.55
-4 7 -11 3.16 2.95
-4 7 -12 10.67 2.93
-4 7 -13 -2.34 2.72
4 -7 13 0.93 2.01
-4 6 12 10.27 6.58
-4 6 11 -1.01 3.36
-4 6 10 1.5 3.59
-4 6 9 3.04 3.49
-4 6 8 84.68 6.47
-4 6 7 4.12 3.48
-4 6 6 5.49 3.2
-4 6 6 3.15 1.08
-4 6 5 12.8 3.59
-4 6 5 17.16 1.82
-4 6 4 179.36 7.68
-4 6 4 178.09 7.79
-4 6 4 156.83 9.15
-4 6 3 14.32 1.9
-4 6 3 13.59 1.88
-4 6 3 16.56 3.39
-4 6 2 18.31 1.94
-4 6 2 18.1 1.93
-4 6 2 13.41 3.2
-4 6 1 73.41 4.6
-4 6 1 70.3 4.61
-4 6 1 77.07 5.91
-4 6 0 242.96 10.22
4 -6 0 230.11 8.87
-4 6 -1 18.95 2.39
4 -6 1 19.08 1.72
-4 6 -2 47 3.4
-4 6 -2 41.33 3.12
-4 6 -3 57.79 4.58
-4 6 -3 88.53 5.75
4 -6 3 86.35 4.34
-4 6 -3 69.39 4.37
-4 6 -4 15.44 2.21
4 -6 4 17.54 2.13
-4 6 -4 18.13 3.2
-4 6 -4 13.47 2.15
-4 6 -5 7.33 2.76
4 -6 5 5.1 1.8
-4 6 -5 4.58 1.67
4 -6 6 39.51 3.47
-4 6 -6 44.1 4.12
4 -6 6 47.21 3.52
-4 6 -6 35.2 2.92
4 -6 7 112.7 7.04
-4 6 -7 142.96 7.52
4 -6 8 36.72 3.63
-4 6 -8 40.95 3.95
-4 6 -9 14.02 3.05
-4 6 -10 7.02 2.72
-4 6 -11 69.71 5
4 -6 12 3.89 2
-4 6 -12 4.77 2.56
4 -6 13 2.58 1.88
-4 6 -13 3.3 2.39
4 -6 13 3.57 2.21
4 -6 14 3.15 2.15
4 -6 14 -1.05 2.46
4 -6 15 36.09 4.15
-4 5 12 0.3 4.1
4 -5 -11 72.24 3.7
-4 5 11 21.13 5.42
-4 5 10 4.77 3.7
4 -5 -10 2.71 1.23
4 -5 -9 15.85 1.76
-4 5 9 17.07 2.2
4 -5 -9 15.67 1.66
4 -5 -8 14.24 1.77
4 -5 -8 11.01 1.42
4 -5 -7 294.32 11.23
-4 5 7 223.81 12.49
-4 5 6 6.6 3.15
-4 5 6 6.74 1.36
4 -5 -6 4.92 1.43
-4 5 5 49.55 4.81
-4 5 5 63.43 3.49
-4 5 4 32.41 2.68
-4 5 4 36.71 4.27
-4 5 4 35.99 2.75
-4 5 3 241.48 10.18
-4 5 3 247.71 10.07
-4 5 2 4.42 1.43
-4 5 2 6.27 2.85
-4 5 2 5.32 1.49
-4 5 1 124.67 6.01
-4 5 1 120.53 6.12
-4 5 1 119.22 6.95
-4 5 0 99.69 5.8
4 -5 0 108.35 4.46
-4 5 -1 279.5 12.14
4 -5 1 297.16 11.26
-4 5 -2 4.19 1.5
4 -5 2 4.65 1.42
-4 5 -2 5.61 1.58
-4 5 -3 133.36 6.61
4 -5 3 145.62 6.29
-4 5 -3 132.12 7.28
-4 5 -3 120.51 6.18
-4 5 -4 134.03 7.74
-4 5 -4 181.12 8.59
4 -5 4 176.53 7.55
-4 5 -4 136.88 7.28
-4 5 -5 162.27 8.05
4 -5 5 182.75 7.97
-4 5 -5 179.52 8.64
-4 5 -5 165.97 7.67
-4 5 -6 5.23 2.53
-4 5 -6 4.54 1.76
4 -5 6 4.68 1.9
4 -5 7 80.99 4.8
-4 5 -7 83.15 5.2
-4 5 -8 131.33 7.23
-4 5 -9 25.53 3.09
4 -5 10 1.43 1.73
-4 5 -10 4.23 2.31
4 -5 11 25.11 3.13
-4 5 -11 29.23 3.24
4 -5 11 24.72 3.14
4 -5 12 85.1 6.08
-4 5 -12 97.48 5.5
4 -5 12 78.36 5.64
4 -5 13 2.63 1.94
-4 5 -13 2.61 2.19
4 -5 13 1.31 2.17
4 -5 14 2.92 2.02
4 -5 14 0.64 2.26
4 -5 15 7.9 2.39
4 -5 15 6.11 2.53
4 -5 16 28.63 3.94
-4 4 12 -0.14 3.71
4 -4 -12 8.67 1.62
-4 4 11 0.29 3.5
4 -4 -11 1.08 1.22
4 -4 -10 86.99 4.4
-4 4 10 81.6 4.31
-4 4 9 1.6 1.65
-4 4 9 5.15 3.44
4 -4 -9 1.54 1.26
4 -4 -9 1.03 1.11
-4 4 8 66.01 4.04
4 -4 -8 71.11 3.83
4 -4 -8 63.13 3.42
-4 4 7 2.26 2.95
4 -4 -7 1.82 1.07
4 -4 -6 146.17 6.64
-4 4 6 152.54 6.59
-4 4 5 3.02 2.93
-4 4 5 1.52 1.22
4 -4 -5 2.52 1.21
4 -4 -4 162.02 7.35
-4 4 4 164.42 7.44
-4 4 4 159.12 8.62
-4 4 4 167.22 7.32
4 -4 -3 30.94 2.66
-4 4 3 31.18 2.66
-4 4 3 30.68 2.73
4 -4 -3 27.8 3.7
-4 4 3 33.61 3.93
-4 4 2 293.46 11.87
-4 4 2 283.52 11.96
-4 4 2 281.54 12.77
-4 4 1 2.02 1.19
-4 4 1 4.03 2.62
-4 4 1 2.64 1.33
-4 4 0 215.2 9.64
4 -4 0 210.76 10.13
4 -4 0 233.34 8.61
-4 4 -1 84.7 5.17
4 -4 1 95.39 4.42
-4 4 -2 167.08 7.75
-4 4 -2 154.13 7.36
-4 4 -3 0.53 1.13
-4 4 -3 -0.09 2.16
-4 4 -3 0.17 1.32
4 -4 3 0.05 1.31
-4 4 -4 158.39 7.69
-4 4 -4 172.48 8.22
4 -4 4 182.23 7.55
-4 4 -4 151.99 7.29
-4 4 -5 103.33 6.31
-4 4 -5 132.1 6.86
4 -4 5 123.6 6.18
-4 4 -5 114.17 6.06
-4 4 -6 87.63 5.04
-4 4 -6 96.43 5.46
4 -4 6 95.39 5.05
-4 4 -6 81.72 4.69
-4 4 -7 -2.07 2.29
-4 4 -7 0.88 1.5
4 -4 7 1.03 1.66
-4 4 -8 32.68 3.38
-4 4 -9 108.83 5.96
4 -4 9 108.28 6.1
4 -4 10 5.69 1.91
-4 4 -10 8.91 2.43
4 -4 10 4.45 2.02
4 -4 11 12 2.44
-4 4 -11 16.41 2.68
4 -4 12 48.1 4.21
4 -4 12 46.3 4.01
4 -4 13 77.32 5.82
4 -4 13 76.14 5.44
4 -4 14 -1.18 1.91
4 -4 14 -0.32 2.26
4 -4 15 9.75 2.67
4 -4 15 11.28 2.88
4 -4 16 7.39 2.49
4 -4 16 8.95 2.84
4 -3 -13 35.26 2.98
-4 3 12 -0.96 3.32
4 -3 -12 0.07 1.25
4 -3 -11 49.77 3.2
-4 3 11 7.14 4.35
-4 3 10 -0.14 3.28
4 -3 -10 2.2 1.15
4 -3 -10 2.44 1.31
-4 3 9 102.99 5.36
4 -3 -9 113.46 5.49
4 -3 -9 114.49 5.22
-4 3 8 1.24 1.54
-4 3 8 3.07 3.16
4 -3 -8 2.09 1.24
4 -3 -8 0.1 1.01
-4 3 7 137.13 6.29
4 -3 -7 135.68 6.15
-4 3 6 2.49 2.94
-4 3 6 1.94 1.13
4 -3 -6 1.73 1.04
4 -3 -5 134.41 5.79
-4 3 5 136.58 5.8
-4 3 4 0.34 0.94
-4 3 4 2.55 2.71
4 -3 -4 2.55 2.79
4 -3 -4 0.75 1.04
-4 3 4 0.62 1.07
-4 3 3 443.97 16.84
4 -3 -3 424.42 16.81
-4 3 3 452.42 17.05
-4 3 3 407.35 17.65
4 -3 -3 391.87 17.45
4 -3 -2 29.03 2.63
-4 3 2 32.33 2.76
-4 3 2 31.56 2.72
-4 3 2 37.91 3.92
4 -3 -1 246.62 10.3
-4 3 1 249.64 10.45
-4 3 1 254.41 10.3
4 -3 -1 240.29 8.85
-4 3 1 235.07 11.04
-4 3 0 0.38 0.97
-4 3 0 1.2 2.24
4 -3 0 0.08 1.99
-4 3 0 -0.33 1.01
-4 3 -1 242.19 10.39
4 -3 1 247.68 10.7
-4 3 -2 36.91 3.06
4 -3 2 41.85 3.54
-4 3 -2 37.74 2.96
-4 3 -3 79.48 4.48
4 -3 3 88.32 4.81
-4 3 -3 82.75 4.99
-4 3 -3 76 4.19
-4 3 -4 9.11 1.72
-4 3 -4 10.59 2.52
-4 3 -4 10.4 1.84
-4 3 -5 319.84 13.52
-4 3 -5 341.16 13.78
-4 3 -5 321.44 13.16
-4 3 -6 69.66 4.73
-4 3 -6 73.43 4.61
-4 3 -7 31.86 2.7
-4 3 -7 33.5 3.13
-4 3 -7 26.67 2.45
-4 3 -8 36.14 3.46
-4 3 -8 29.82 3.05
4 -3 8 35.94 3.3
4 -3 9 271.02 12.44
4 -3 9 275.87 11.89
4 -3 10 73.04 5.27
4 -3 10 78.74 5.12
4 -3 11 1.55 1.56
4 -3 11 0.56 1.95
4 -3 12 27.26 3.35
-4 3 -12 34.01 2.78
4 -3 12 28.33 3.29
4 -3 13 25.5 3.28
-4 3 -13 26.86 2.53
4 -3 14 73.23 5.76
4 -3 14 72.46 5.41
4 -3 15 7.42 2.36
4 -3 15 10.36 2.59
4 -3 16 13.82 2.91
4 -3 16 15.04 3.03
4 -3 17 3.87 2.29
4 -3 17 6.09 2.69
4 -2 -14 24.3 2.7
4 -2 -13 18.64 2.53
4 -2 -12 17.28 2.12
-4 2 12 1.87 3.55
-4 2 11 5.29 3.58
4 -2 -11 3.82 1.64
4 -2 -10 157.3 7.3
4 -2 -10 160.87 7.13
4 -2 -10 169.47 7.1
4 -2 -9 3.81 1.26
-4 2 9 2.05 3.12
4 -2 -9 3.85 1.45
4 -2 -9 4.31 1.3
4 -2 -8 60.67 3.73
4 -2 -8 58.33 3.52
-4 2 8 57.34 3.59
-4 2 8 47.51 5.05
4 -2 -8 59.67 3.38
4 -2 -7 0.59 1.01
-4 2 7 2.74 1.49
-4 2 7 3.96 3.03
4 -2 -7 0.86 1.04
4 -2 -7 0.85 1.14
4 -2 -6 274.18 10.42
-4 2 6 285.11 10.45
-4 2 6 278.3 10.44
-4 2 5 -1.07 2.46
4 -2 -5 2.4 2.55
-4 2 5 1.02 1.06
4 -2 -5 0.8 1.08
4 -2 -4 102.75 5.16
-4 2 4 102.41 6.26
-4 2 4 106.84 5.16
-4 2 3 1.71 1.18
-4 2 3 5.32 2.91
4 -2 -3 5.97 3.1
4 -2 -3 1.03 1.19
-4 2 3 2.13 1.33
-4 2 2 258.27 10.56
4 -2 -2 233.65 10.42
-4 2 2 267.86 10.8
-4 2 2 238.21 11.22
-4 2 1 3.81 1.16
4 -2 -1 2.53 1.16
-4 2 1 3.6 1.23
-4 2 1 4.42 2.28
4 -2 -1 2.92 0.6
4 -2 0 41.34 2.89
-4 2 0 45.02 2.96
-4 2 0 44.86 3.04
4 -2 0 47.75 3.73
-4 2 0 39.98 3.49
4 -2 1 6.74 1.55
4 -2 1 5.98 2.37
-4 2 -1 8.04 1.5
-4 2 -2 586.64 23.99
4 -2 2 679.36 24.39
-4 2 -3 20.64 2.25
4 -2 3 23.32 2.85
-4 2 -3 29.06 3.12
-4 2 -3 21.81 2.21
-4 2 -4 19.82 2.05
4 -2 4 22.89 2.49
-4 2 -4 23.17 2.71
-4 2 -4 19.99 1.97
-4 2 -5 41.22 3.29
4 -2 5 45.64 3.56
-4 2 -5 45.14 3.39
-4 2 -6 456.1 18.63
4 -2 6 505.76 18.47
-4 2 -6 452.86 18.29
-4 2 -7 36.94 3.28
-4 2 -7 37.59 3.17
-4 2 -8 12.29 2.12
4 -2 10 149.73 7.87
4 -2 10 144.82 7.38
4 -2 11 62.2 4.87
-4 2 -11 63.53 4.08
4 -2 11 60.28 4.59
4 -2 12 1.42 1.51
-4 2 -12 1.03 1.73
4 -2 12 2.2 1.87
4 -2 13 51.74 4.6
4 -2 13 60.32 4.57
4 -2 14 163.39 8.82
4 -2 14 154.24 8.17
4 -2 15 13.2 2.72
4 -2 15 16.97 3.05
4 -2 16 4.46 2.12
4 -2 16 7.09 2.54
4 -2 17 29.09 3.83
4 -2 17 29.71 3.85
4 -1 -14 3.61 2.01
4 -1 -13 72.31 4.84
4 -1 -12 13.24 2.21
4 -1 -11 23.92 2.56
-4 1 11 5.61 3.37
-4 1 10 5.07 3.8
4 -1 -10 10.96 2.26
4 -1 -9 177.48 7.6
4 -1 -9 174.87 7.83
4 -1 -9 184.47 7.45
4 -1 -8 14.27 2.07
4 -1 -8 10.64 1.7
-4 1 8 7.18 3.41
4 -1 -8 11.25 1.73
-4 1 7 97.48 4.68
4 -1 -7 93.46 4.64
4 -1 -7 96.71 4.89
4 -1 -7 97.53 4.49
4 -1 -6 8.37 1.6
4 -1 -6 10.02 1.94
-4 1 6 11.94 2.1
4 -1 -6 16.36 3.76
-4 1 6 16.08 3.87
-4 1 6 9.01 1.84
4 -1 -5 399.06 15.38
-4 1 5 423.1 15.35
4 -1 -5 399.03 15.21
-4 1 5 414.93 15.35
-4 1 4 2.58 1.34
4 -1 -4 1.08 0.93
-4 1 4 1.24 2.44
4 -1 -4 1.12 2.26
-4 1 4 0.2 1.1
4 -1 -4 0.61 1.01
-4 1 3 19.86 1.95
4 -1 -3 18.92 1.91
-4 1 3 18.07 2.9
4 -1 -3 21.03 1.3
4 -1 -3 17.96 2.73
-4 1 3 17.84 1.84
-4 1 2 2.39 1.02
-4 1 2 2.85 2.41
4 -1 -2 2.31 0.77
4 -1 -2 2.39 1.11
-4 1 2 1.4 1.1
-4 1 1 809.19 29.36
-4 1 1 827.15 29.61
4 -1 -1 757.09 29.28
-4 1 1 801.46 30.06
4 -1 -1 752.99 28.11
-4 1 0 1.16 0.97
-4 1 0 1.48 2.1
4 -1 0 3.65 2.12
4 -1 0 1.73 1.05
-4 1 0 1.41 1.09
-4 1 -1 31.38 2.37
-4 1 -1 26.39 2.31
4 -1 1 31.77 2.87
-4 1 -2 8.31 1.49
4 -1 2 8.63 2.11
-4 1 -3 228.76 9.96
4 -1 3 254.46 10.18
-4 1 -3 254.03 10.56
-4 1 -3 213.99 9.55
-4 1 -4 14.88 2.01
4 -1 4 14.46 2.64
-4 1 -4 12.91 2.04
-4 1 -5 2.35 1.09
4 -1 5 1.52 1.81
-4 1 -5 1.27 1.43
-4 1 -6 33.51 2.92
4 -1 6 41.71 3.19
-4 1 -6 33.9 3.07
4 -1 7 605.06 21.98
-4 1 -7 546.68 22.03
-4 1 -8 17.84 2.62
-4 1 -9 16.46 2.15
-4 1 -9 17.66 2.46
-4 1 -10 64.56 4.13
4 -1 11 299.08 13.17
-4 1 -11 284.95 11.69
4 -1 12 28.25 3.36
4 -1 13 19.92 2.77
4 -1 14 49.45 4.51
4 -1 15 1.75 1.78
4 -1 15 1.47 2.28
4 -1 16 15.42 2.98
4 -1 16 13.1 3.16
4 -1 17 15.26 2.78
4 -1 17 13.38 3.08
4 0 -14 3.82 1.78
-4 0 14 7.73 2.79
4 0 -13 30.52 3.64
4 0 -12 53.66 4.1
-4 0 11 5.74 1.58
4 0 -11 17.63 2.52
4 0 -10 14.56 2.22
4 0 -9 15.47 2.43
-4 0 9 17.75 1.87
-4 0 9 13.3 4.04
4 0 -8 270.56 10
4 0 -8 272.67 9.77
4 0 -8 271.63 9.35
4 0 -7 1.67 1.2
-4 0 7 2.25 2.67
4 0 -7 3.82 2.55
4 0 -7 2.94 1.16
4 0 -7 4.26 1.46
-4 0 6 9.03 1.66
4 0 -6 7.15 1.35
-4 0 6 5.71 3.01
4 0 -6 1.75 2.65
-4 0 6 9.03 1.65
4 0 -6 8.41 1.68
-4 0 5 8.63 1.83
4 0 -5 6.65 1.4
-4 0 5 9.68 3.45
4 0 -5 11.31 3.14
-4 0 5 7.29 1.69
4 0 -5 7.16 1.63
-4 0 4 309.49 12.32
4 0 -4 290.64 12.22
4 0 -4 292.64 12.41
4 0 -4 322.39 11.58
-4 0 4 298.08 13.37
-4 0 4 311.4 12.43
-4 0 3 4.8 1.4
4 0 -3 4.39 1.17
-4 0 3 3.46 1.37
4 0 -3 3.42 1.3
4 0 -3 3.13 2.15
4 0 -3 4.67 1.07
-4 0 3 2.81 2.42
-4 0 2 4.48 1.1
-4 0 2 3.58 1.24
4 0 -2 3.26 1.1
-4 0 2 3.72 1.18
-4 0 2 4.26 2.32
4 0 -2 3.02 0.82
-4 0 1 3.19 1.2
4 0 -1 5.06 1.16
-4 0 1 2.99 2.48
4 0 -1 3.15 1.37
-4 0 1 3.91 1.37
-4 0 0 600.14 22.97
-4 0 0 618.8 23.26
4 0 0 577.73 23.04
-4 0 -1 1.64 1.02
4 0 1 3.16 1.97
-4 0 -1 1.07 1.07
-4 0 -2 76.55 4.28
-4 0 -2 72.3 4.07
4 0 2 76.59 4.34
4 0 3 10.91 1.88
4 0 3 14.94 2.62
4 0 4 3045.82 104.67
-4 0 -4 2775.42 104.33
4 0 5 5.58 1.94
-4 0 -5 5.56 1.97
4 0 6 90.5 4.6
-4 0 -6 85.47 4.6
4 0 6 90.71 4.86
4 0 7 33.22 2.89
-4 0 -7 30.69 2.87
4 0 7 30.41 3.05
-4 0 -8 327.83 14.44
4 0 8 362.6 13.99
-4 0 -8 352.84 14.42
4 0 8 346.24 14.7
-4 0 -9 6.79 1.63
4 0 9 10.01 1.8
-4 0 -9 10.89 2.3
4 0 9 8.26 2.18
-4 0 -9 8.52 2.28
-4 0 -10 17.24 2.14
4 0 12 143.74 7.69
4 0 13 4.68 1.99
4 0 14 8.67 2.17
4 0 15 26.68 3.27
-4 0 -15 21.51 2.28
4 0 16 75.11 5.46
4 0 17 -1.64 1.97
4 0 18 20.84 3.06
4 1 -14 16.88 3.01
-4 -1 14 25.84 3.85
4 1 -13 1.65 1.83
-4 -1 13 1.06 2.43
4 1 -12 22.77 3.08
-4 -1 11 9.55 1.91
4 1 -11 48.69 3.63
4 1 -10 21.04 2.86
4 1 -9 2.13 1.45
-4 -1 9 2.38 1.36
4 1 -8 62.92 4.56
-4 -1 8 61.61 3.49
4 1 -7 3.47 1.14
4 1 -7 2.08 1.01
4 1 -7 4.26 1.48
4 1 -7 0.83 2.54
-4 -1 7 2.87 2.57
-4 -1 7 4.7 1.17
4 1 -6 7.54 1.67
4 1 -6 4.31 2.86
-4 -1 6 5.6 3.01
-4 -1 6 8.67 1.47
4 1 -6 7.05 1.67
4 1 -6 9.52 1.98
4 1 -5 18.29 2.15
-4 -1 5 21.96 2.13
4 1 -5 19.42 2
4 1 -5 14.05 2.83
-4 -1 5 15.78 3.07
4 1 -5 19.72 1.81
-4 -1 5 18.41 2.04
-4 -1 4 39.12 3.08
4 1 -4 34.01 3.02
4 1 -4 29.62 2.68
4 1 -4 37.05 4.06
-4 -1 4 40.55 4.62
4 1 -4 31.68 2.61
-4 -1 4 34.04 2.93
4 1 -3 455.44 18.07
4 1 -3 443.09 17.83
-4 -1 3 476.72 17.94
-4 -1 3 477.4 18.09
4 1 -3 449.41 17.12
4 1 -3 429.02 18.26
-4 -1 3 463.65 18.99
-4 -1 2 1.51 1.06
-4 -1 2 3.05 1.38
4 1 -2 2.52 1.08
-4 -1 2 0.75 1.29
4 1 -2 1.92 1.2
-4 -1 2 5.26 2.62
4 1 -2 2.41 1.12
-4 -1 1 304.1 12.37
-4 -1 1 286.32 12.07
4 1 -1 285.72 11.35
-4 -1 1 319.01 13.13
-4 -1 1 299.56 12.18
-4 -1 0 3.08 1.22
-4 -1 0 3.15 1.38
4 1 0 5.94 2.24
-4 -1 0 3.18 1.21
4 1 1 476.76 18.71
4 1 2 4.87 2.15
4 1 2 2.09 1.24
4 1 3 245.67 10.48
4 1 3 248.33 10.44
4 1 4 5.94 1.56
4 1 4 7.12 1.98
4 1 5 150.04 6.78
-4 -1 -6 1.5 1.11
4 1 6 2.55 1.62
4 1 6 1.94 1.61
-4 -1 -7 63.13 3.91
4 1 7 70.91 3.87
-4 -1 -7 79.71 4.34
4 1 7 72.69 4.31
-4 -1 -8 20.54 2.41
4 1 8 28.98 2.5
4 1 8 27.22 2.93
-4 -1 -9 352.81 15.45
4 1 9 381.03 15.76
-4 -1 -10 0.38 1.22
4 1 10 1.51 1.37
4 1 10 1.22 1.73
-4 -1 -11 173.83 8.39
4 1 11 189 8.74
4 1 12 30.44 3.41
-4 -1 -12 35.6 2.99
4 1 13 91.48 5.69
4 1 13 84.52 5.45
4 1 14 0.24 1.5
4 1 14 -0.43 2.03
4 1 15 120.5 6.93
4 1 15 109.15 6.8
4 1 16 39.22 4.15
4 1 17 11.67 2.46
4 1 18 3.78 1.97
4 2 -14 4.45 2.01
-4 -2 14 2.56 2.6
4 2 -13 8.53 2.47
-4 -2 13 17.88 3.31
4 2 -12 2.06 1.76
4 2 -11 66.61 4.96
-4 -2 11 45.17 3.42
4 2 -10 64.22 4.41
-4 -2 10 57.24 3.36
-4 -2 9 8.67 1.84
4 2 -9 8.26 2.07
4 2 -8 47.55 3.58
-4 -2 8 41.21 2.74
4 2 -7 37.34 3.44
-4 -2 7 39.9 2.73
4 2 -7 31.75 4.2
4 2 -7 42.01 3.09
4 2 -6 313.78 12.94
4 2 -6 306.47 12.6
4 2 -6 332.66 12.2
-4 -2 6 279.31 11.58
4 2 -6 326.19 12.28
4 2 -5 4.19 1.47
4 2 -5 4.2 2.69
-4 -2 5 6.69 1.64
4 2 -5 7.07 1.78
4 2 -4 256.05 11.04
4 2 -4 268.93 10.91
4 2 -4 218.12 10.96
-4 -2 4 233.48 11.73
-4 -2 4 271.8 10.91
4 2 -3 54 3.89
-4 -2 3 61.1 4.09
-4 -2 3 64.5 5.58
-4 -2 3 60.75 4.15
-4 -2 2 161.44 7.28
4 2 -2 151.57 6.63
-4 -2 2 164.39 8.36
-4 -2 2 167.54 7.43
-4 -2 1 3.2 1.36
-4 -2 1 4.6 1.62
4 2 -1 5.04 1.29
-4 -2 1 6.08 2.6
-4 -2 1 4.08 1.5
-4 -2 0 114.94 5.61
4 2 0 107.85 5.54
4 2 0 109.14 5.85
4 2 0 114.04 4.99
4 2 1 17.01 2.13
4 2 1 21.57 2.94
4 2 2 469.35 18.31
4 2 2 473.52 18.37
-4 -2 -2 457.67 17.77
4 2 3 3.99 1.51
4 2 3 6.12 2.18
-4 -2 -3 4.08 1.84
4 2 4 298.43 12.18
4 2 4 288.75 11.97
-4 -2 -4 292.2 11.68
4 2 5 0.79 1.05
-4 -2 -5 0.31 0.94
4 2 5 0.23 1.7
-4 -2 -6 302.75 12.52
4 2 6 294.67 12.23
4 2 6 327.53 12.72
-4 -2 -7 1.8 1.1
4 2 7 3.37 1.72
4 2 7 2.12 1.77
-4 -2 -8 345.11 14.15
4 2 8 348.41 13.65
4 2 8 359.71 14.42
-4 -2 -9 13.79 2
4 2 9 15.88 2.02
4 2 9 17.82 2.55
-4 -2 -10 25.47 2.36
4 2 10 27.03 2.13
4 2 10 29.33 2.83
-4 -2 -11 -0.08 1.12
4 2 11 0.74 1.12
4 2 11 0.69 1.79
4 2 12 184.85 8.85
4 2 12 169.44 8.61
4 2 13 19.09 2.87
4 2 13 22.27 3.15
4 2 14 19.19 2.65
4 2 14 22.79 3.04
4 2 15 3.46 1.77
4 2 15 2.25 2.27
4 2 16 88.41 5.9
4 2 16 93.44 6.25
4 2 17 18.73 3.21
4 2 17 27.19 3.98
4 2 18 6.18 2.11
4 3 -14 35.28 4.04
-4 -3 14 43.32 4.37
4 3 -13 11.18 2.69
-4 -3 13 19.51 3.2
4 3 -12 3.77 2.13
-4 -3 12 5.58 2.56
4 3 -11 31.11 3.29
-4 -3 11 9.58 2.06
4 3 -10 64.39 4.97
-4 -3 10 52.21 3.8
4 3 -9 24.44 2.9
-4 -3 9 22.61 2.28
4 3 -8 4.02 1.83
-4 -3 8 4.69 1.71
-4 -3 7 75.8 3.98
4 3 -7 83.87 4.54
4 3 -7 78.27 4.91
4 3 -6 126.19 6.88
4 3 -6 104.18 6.21
-4 -3 6 126.39 5.72
4 3 -6 97.91 7
4 3 -6 133.62 6.39
4 3 -6 119.58 6.13
4 3 -5 129.5 6.69
4 3 -5 126.32 6.38
4 3 -5 130.16 6.02
-4 -3 5 125.52 5.7
4 3 -5 134.24 6.13
4 3 -4 5.63 1.54
4 3 -4 9.99 3.06
4 3 -4 8.4 1.85
-4 -3 4 5.18 1.68
4 3 -3 164.66 8.4
-4 -3 3 183.28 8.13
-4 -3 2 72.3 4.51
4 3 -1 563.49 22.34
-4 -3 1 581.64 22.4
4 3 -1 577.08 22.57
-4 -3 1 602.17 22.51
4 3 0 1.82 1.07
-4 -3 0 3.14 1.43
4 3 0 2.45 1.31
4 3 1 687.05 26.06
4 3 1 681.91 25.9
4 3 1 677.53 26.17
4 3 2 36.59 3.07
4 3 2 38.96 3.48
-4 -3 -2 37.16 2.82
4 3 3 407.91 16.32
4 3 3 407.27 16.33
-4 -3 -3 415.1 15.81
-4 -3 -4 1.59 1.16
4 3 4 1.83 1.3
-4 -3 -4 3.23 1.28
4 3 4 4.71 2.1
-4 -3 -4 3.09 1.63
4 3 5 429.9 16.7
-4 -3 -5 412.41 16.64
-4 -3 -5 419.22 16.43
-4 -3 -5 415.29 16.52
4 3 5 397.19 16.37
-4 -3 -5 431.28 16.2
-4 -3 -6 5.42 1.47
4 3 6 5.59 1.53
-4 -3 -6 4.22 1.28
4 3 6 4.52 1.79
-4 -3 -6 4.81 1.58
4 3 6 5.68 1.75
-4 -3 -7 138.82 6.53
4 3 7 135.2 6.42
-4 -3 -7 147.91 6.58
4 3 7 145.74 6.8
-4 -3 -8 3.24 1.26
4 3 8 1.69 1.69
4 3 8 2.28 1.8
-4 -3 -8 1.81 1.83
-4 -3 -9 380.56 15.51
4 3 9 363.88 14.94
4 3 9 395.67 15.8
-4 -3 -10 0.28 1.12
4 3 10 0.6 1.47
4 3 10 0.63 1.8
-4 -3 -11 85.26 4.57
4 3 11 91.86 5.13
-4 -3 -12 1.44 1.24
4 3 12 1.94 1.89
4 3 13 197.44 9.3
4 3 13 183.88 9.22
4 3 14 2.34 1.78
4 3 14 3.12 2.35
4 3 15 0.11 1.6
4 3 15 1.88 2.29
4 3 16 4.14 1.84
4 3 16 4.82 2.54
4 3 17 117.46 6.9
4 3 17 120.9 7.47
4 3 18 8.28 3.01
4 4 -13 57.04 5.3
-4 -4 13 82.5 5.55
4 4 -12 3.29 2.03
-4 -4 12 6.62 2.64
4 4 -11 9.45 2.63
-4 -4 11 8.05 2.08
-4 -4 11 11.61 2.86
4 4 -10 1.78 1.85
-4 -4 10 3.74 1.66
4 4 -9 85.07 5.68
-4 -4 9 71 4.57
4 4 -8 10.97 2.16
-4 -4 8 8.92 1.92
4 4 -8 12.2 2.41
4 4 -7 13.64 2.59
-4 -4 7 16.42 2.19
4 4 -7 11.74 2.48
-4 -4 7 20.84 2.52
4 4 -6 41.37 3
-4 -4 6 37.58 2.77
4 4 -6 47.1 3.32
4 4 -6 42.63 3.56
4 4 -5 108.93 5.45
4 4 -5 87.26 5.6
4 4 -5 79.01 6.25
4 4 -5 118.27 5.59
-4 -4 5 106.61 5.1
4 4 -5 97.48 5.32
4 4 -4 35.41 2.69
4 4 -4 37.78 2.72
4 4 -3 17.02 2.1
4 4 -3 15.92 2.07
4 4 -3 13.07 3.31
-4 -4 3 11.25 2
4 4 -2 107.15 5.72
4 4 -2 104.02 5.23
4 4 -2 106.76 5.49
4 4 -2 108.27 5.09
-4 -4 2 100.78 5.42
4 4 -1 71.62 4.53
4 4 -1 60 4.16
-4 -4 1 62.93 4.33
4 4 0 9.51 1.61
4 4 0 7.93 1.37
4 4 0 9.58 2.38
4 4 0 10.58 1.5
4 4 1 11.46 1.8
4 4 1 13.9 2.02
4 4 1 15.61 2.15
4 4 1 18.92 3.14
4 4 2 297.02 12.28
4 4 2 297.65 12.5
4 4 2 298.84 12.37
-4 -4 -2 310.4 12.44
4 4 2 314.67 12.93
-4 -4 -2 307.36 11.97
-4 -4 -3 24.02 2.46
4 4 3 26.31 2.58
-4 -4 -3 27.63 2.5
4 4 3 28.45 3.23
-4 -4 -3 27.61 2.34
-4 -4 -4 76.91 4.15
-4 -4 -4 72.34 4.19
4 4 4 76.68 4.23
-4 -4 -4 79.98 4.35
4 4 4 74.52 4.55
-4 -4 -4 81.98 3.96
-4 -4 -5 2.11 1.11
-4 -4 -5 2.14 1.31
4 4 5 2.43 1.3
-4 -4 -5 3.47 1.28
4 4 5 3.32 2.21
-4 -4 -5 3.99 1.59
4 4 6 304.3 12.47
-4 -4 -6 293.95 12.21
-4 -4 -6 284.77 12.36
-4 -4 -6 298.47 12.33
4 4 6 303.07 12.47
-4 -4 -6 313.84 12.09
4 4 6 306.82 12.31
-4 -4 -7 2.85 1.12
-4 -4 -7 2.83 1.38
-4 -4 -7 3.16 1.24
4 4 7 2.85 2.03
4 4 7 2.11 1.68
-4 -4 -7 2.4 1.59
-4 -4 -8 8.76 1.41
4 4 8 8.27 1.94
4 4 8 8.9 1.85
-4 -4 -8 10.8 1.91
-4 -4 -9 0.58 1.17
4 4 9 2.96 1.79
-4 -4 -9 1.69 1.88
4 4 9 1.43 1.82
-4 -4 -10 331.13 13.17
4 4 10 309.06 12.67
4 4 10 327.73 13.49
-4 -4 -11 1.17 1.18
4 4 11 0.11 1.45
4 4 11 1.35 1.91
-4 -4 -12 2.14 1.34
4 4 12 2.46 1.26
4 4 12 2.79 1.91
4 4 13 2.56 1.52
-4 -4 -13 2.69 1.37
4 4 13 3.27 2.17
4 4 14 162.55 7.99
4 4 14 148.58 8.08
4 4 15 7.45 2.04
-4 -4 -15 0.19 1
4 4 15 6.34 2.75
4 4 16 3.97 1.67
4 4 16 3.61 2.4
4 4 17 3.9 1.81
4 4 17 7.39 2.83
4 5 -13 2.96 2.37
-4 -5 13 6.86 2.58
4 5 -12 51.22 4.86
-4 -5 12 63.46 4.83
4 5 -11 5.77 2.18
-4 -5 11 4.05 1.9
-4 -5 11 7.84 2.54
4 5 -10 7.39 2.39
-4 -5 10 10.11 2.19
-4 -5 10 14.21 2.55
4 5 -9 19.58 2.82
-4 -5 9 13.26 2.25
4 5 -8 67.28 5.04
4 5 -8 74.51 5
-4 -5 8 62.19 4.32
-4 -5 7 2.71 1.75
4 5 -7 1.48 1.48
4 5 -7 2.61 2.05
4 5 -6 49.25 3.61
-4 -5 6 52.57 3.54
4 5 -6 54.78 4.07
-4 -5 6 61.42 4.02
4 5 -5 77.94 4.38
4 5 -5 76.38 4.46
-4 -5 5 75.37 4.17
-4 -5 5 78.01 4.57
4 5 -4 91.57 5.06
4 5 -4 73.63 6.19
4 5 -4 106.33 5.31
-4 -5 4 92.64 4.72
4 5 -4 86.49 5.64
4 5 -3 18.3 2.03
4 5 -3 20.41 2.13
4 5 -3 20.98 2.2
4 5 -3 14.75 3.28
4 5 -3 20.38 1.99
4 5 -3 14.92 2.12
4 5 -2 46.12 3.4
4 5 -2 48.81 3.72
4 5 -2 54.58 3.36
4 5 -1 186.79 8.43
4 5 -1 186 8.69
4 5 -1 187.33 8.1
4 5 0 47.87 3.72
4 5 0 42.7 3.34
4 5 0 47.88 4.39
4 5 1 4.61 1.4
4 5 1 5.69 1.25
-4 -5 -1 4.82 1.3
4 5 1 4.88 1.32
4 5 1 6.02 2.27
-4 -5 -1 5.22 1.39
4 5 2 42.97 3.24
4 5 2 34.28 2.96
4 5 2 33.74 2.87
-4 -5 -2 39.79 3.1
4 5 2 42.41 4.2
-4 -5 -2 40.71 2.94
4 5 3 418.39 17.04
4 5 3 416.64 16.91
-4 -5 -3 426.08 17.16
-4 -5 -3 429 17
4 5 3 456.04 17.7
-4 -5 -3 450.38 16.55
4 5 4 21.21 2.25
-4 -5 -4 23.67 2.27
-4 -5 -4 21.32 2.21
4 5 4 21.93 2.37
-4 -5 -4 19.05 2.06
-4 -5 -5 2.98 1.09
4 5 5 3.2 1.22
-4 -5 -5 2.97 1.12
4 5 5 5.49 2.19
-4 -5 -5 3.94 1.33
4 5 6 14.7 2.07
-4 -5 -6 11.51 1.81
-4 -5 -6 13.38 1.87
4 5 6 17.41 2.79
-4 -5 -6 15.13 2.18
4 5 6 14.45 2.39
4 5 7 374.49 14.9
-4 -5 -7 354.81 14.71
-4 -5 -7 363.26 14.57
4 5 7 353.36 14.95
4 5 7 375.42 14.72
-4 -5 -7 378.96 14.53
-4 -5 -8 1.9 1.07
-4 -5 -8 2.35 1.17
4 5 8 3.51 2.17
-4 -5 -8 1.41 1.73
4 5 8 1.88 1.7
-4 -5 -9 10.37 1.5
-4 -5 -9 8.19 1.36
4 5 9 7.61 2.13
4 5 9 9.31 1.92
-4 -5 -9 7.86 1.86
-4 -5 -10 2.25 1.13
-4 -5 -10 4.56 1.36
4 5 10 2.34 1.97
4 5 10 2.89 2.08
-4 -5 -10 1.39 1.94
-4 -5 -11 239.31 9.93
4 5 11 218.11 9.56
4 5 11 247.76 10.5
-4 -5 -12 3.17 1.35
4 5 12 1.92 1.63
4 5 12 4.32 2.16
4 5 13 24.1 2.59
-4 -5 -13 24.32 2.34
4 5 13 28.47 3.16
4 5 14 1.42 1.54
-4 -5 -14 1.76 1.35
-4 -5 -14 0.41 1.08
4 5 14 0.3 2.2
4 5 15 215.26 9.79
4 5 15 203.44 10.2
4 5 16 0.53 1.44
4 5 16 0.11 2.36
4 5 17 16.39 3.18
4 6 -13 23.5 3.51
-4 -6 13 23.72 3.2
4 6 -12 3.69 2.38
-4 -6 12 4.93 2.45
4 6 -11 33.72 4.2
-4 -6 11 31.72 3.45
4 6 -10 2.34 2.06
-4 -6 10 0.55 1.76
-4 -6 10 1.92 2.07
4 6 -9 54.9 5.01
-4 -6 9 58.94 4.36
4 6 -9 60.88 4.91
-4 -6 9 69.78 4.35
-4 -6 8 8.35 2.13
4 6 -8 10.94 2.67
4 6 -7 81.19 5.19
-4 -6 7 67.08 4.61
-4 -6 6 2.23 1.75
4 6 -6 0.09 1.99
4 6 -5 93.37 6.16
4 6 -5 100.69 5.74
-4 -6 5 111.22 5.91
4 6 -4 85.77 4.76
4 6 -4 82.15 5.15
4 6 -4 81.29 4.71
4 6 -4 65.28 5.78
-4 -6 4 75.38 4.29
-4 -6 4 75.69 4.66
4 6 -3 79.63 4.63
4 6 -3 65.82 4.5
4 6 -3 70.01 5.01
4 6 -3 76.68 4.43
4 6 -3 90.06 4.79
-4 -6 3 80.98 4.73
4 6 -2 0.75 1.07
4 6 -2 1.44 1.3
4 6 -2 1.19 1.1
4 6 -2 1.07 1.37
4 6 -2 1.24 1.43
4 6 -1 111.84 5.99
4 6 -1 86.66 5.43
4 6 -1 125.23 5.7
-4 -6 1 91.96 5.69
4 6 0 253.68 11.09
4 6 0 252.16 10.8
-4 -6 0 252.92 10.83
4 6 0 253.48 11.74
4 6 1 53.55 3.85
4 6 1 58.37 3.85
4 6 1 50.71 3.49
-4 -6 -1 53.14 3.67
4 6 1 56.8 4.84
-4 -6 -1 54.24 3.2
4 6 2 11.51 1.5
4 6 2 11.67 1.82
4 6 2 13.08 1.74
-4 -6 -2 13.65 1.68
4 6 2 13.82 2.71
-4 -6 -2 12.37 1.58
4 6 3 39.89 3.02
4 6 3 43.14 3.2
4 6 3 49.32 3.42
-4 -6 -3 42.3 3.23
4 6 3 52.57 4.52
-4 -6 -3 45.87 2.92
4 6 4 106.68 5.33
-4 -6 -4 104.53 5.35
4 6 4 105.49 5.31
-4 -6 -4 107.97 5.28
4 6 4 113.69 6.21
-4 -6 -4 103.15 4.78
-4 -6 -5 2.38 1.13
4 6 5 3.9 1.43
4 6 5 1.91 1.21
-4 -6 -5 3.12 1.23
4 6 5 1.27 2.4
-4 -6 -5 2.18 1.37
4 6 6 13.27 1.72
4 6 6 14.13 1.85
-4 -6 -6 11.9 1.54
-4 -6 -6 12.33 1.57
4 6 6 18 2.71
4 6 6 14.88 1.96
-4 -6 -6 13.25 1.83
4 6 7 42.37 3.23
-4 -6 -7 36.2 3.03
-4 -6 -7 42.82 3.1
4 6 7 49.37 4.24
4 6 7 51.02 3.61
-4 -6 -7 38.43 3.26
-4 -6 -8 368.44 14.13
-4 -6 -8 361.09 14.3
4 6 8 349.55 14.73
4 6 8 352.64 14.25
-4 -6 -8 335.9 14.04
-4 -6 -9 3.4 1.18
-4 -6 -9 3.7 1.28
4 6 9 4.89 2.28
-4 -6 -9 1.87 1.74
4 6 9 3.57 1.8
-4 -6 -10 66.99 3.78
-4 -6 -10 66.91 3.68
4 6 10 59.96 4.23
4 6 10 65.12 4.17
-4 -6 -10 57.47 4.06
-4 -6 -11 21.41 2.32
-4 -6 -11 21.62 2.31
4 6 11 21.31 2.89
4 6 11 30.68 3.39
-4 -6 -11 22.77 2.35
-4 -6 -12 183.79 7.99
-4 -6 -12 189.29 8.16
4 6 12 163.21 7.87
4 6 12 183.36 8.64
4 6 13 0.55 1.39
-4 -6 -13 0.64 1.21
-4 -6 -13 1.69 1.08
4 6 13 0.92 2.17
4 6 14 54.84 3.51
-4 -6 -14 55.55 3.23
-4 -6 -14 53.65 3.34
4 6 14 55.36 4.11
4 6 15 -0.08 1.35
4 6 15 0.63 2.26
4 6 16 95.51 6.19
4 6 17 0.72 2.46
4 7 -12 25.58 3.72
-4 -7 12 32.89 3.35
4 7 -11 10.47 2.87
-4 -7 11 9.56 2.46
-4 -7 11 16 2.54
4 7 -10 24.52 3.54
-4 -7 10 21.26 2.92
-4 -7 10 27.98 2.92
-4 -7 9 3.39 2.05
4 7 -9 8.31 2.83
-4 -7 9 5.5 2.07
-4 -7 8 65.34 4.71
4 7 -8 65.55 5
-4 -7 8 67.95 4.22
-4 -7 7 12.19 2.46
4 7 -7 12.67 2.77
4 7 -6 56.03 4.71
4 7 -6 65.08 4.78
-4 -7 6 62.75 4.48
4 7 -5 0.5 1.64
-4 -7 5 1.6 1.79
4 7 -5 -0.09 1.89
4 7 -4 73.7 5.29
4 7 -4 81.89 5.04
-4 -7 4 90.84 5.24
4 7 -3 7.05 1.83
-4 -7 3 8.24 2.01
4 7 -3 9.06 2.09
4 7 -2 52.08 3.64
4 7 -2 37.52 3.33
4 7 -2 43.67 3.74
4 7 -2 45.6 3.29
4 7 -2 50.88 3.62
-4 -7 2 51.21 3.83
4 7 -1 1.28 1.14
4 7 -1 2.02 1.46
4 7 -1 2.13 1.21
-4 -7 1 1.96 1.54
-4 -7 0 65.95 4.48
4 7 0 75.82 4.8
4 7 0 71.67 4.52
4 7 0 63.33 4.31
-4 -7 0 74.54 3.71
-4 -7 0 81.09 4.74
-4 -7 -1 70 4.2
4 7 1 74.71 4.43
4 7 1 75.21 4.45
4 7 1 72.53 4.22
-4 -7 -1 77.9 3.57
-4 -7 -1 71.89 4.46
-4 -7 -2 7.85 1.67
4 7 2 9.25 1.75
4 7 2 10.46 1.59
4 7 2 10.81 1.98
-4 -7 -2 6.37 1.38
4 7 3 23.64 2.38
4 7 3 24.34 2.2
4 7 3 21.98 2
-4 -7 -3 20.29 2.03
4 7 3 23.71 2.38
-4 -7 -3 20.15 1.71
-4 -7 -4 78.13 4.77
4 7 4 93.55 4.93
4 7 4 92.22 5.07
-4 -7 -4 83.99 4.23
-4 -7 -5 164.28 6.96
4 7 5 159.62 7.13
4 7 5 155.68 6.98
4 7 6 5.2 1.41
-4 -7 -6 4.48 1.33
-4 -7 -6 3.33 1.17
4 7 6 5.15 1.64
4 7 6 2.78 1.69
-4 -7 -6 2.7 1.56
-4 -7 -7 75.62 3.98
4 7 7 82.66 4.21
4 7 7 74.69 4.18
-4 -7 -7 72.55 4.02
4 7 7 77.48 4.18
4 7 8 45.87 3.29
-4 -7 -8 42.91 3.02
-4 -7 -8 36.33 2.94
4 7 8 53.47 3.58
-4 -7 -8 37.85 3.25
-4 -7 -8 50.14 3.45
-4 -7 -9 87.32 4.28
-4 -7 -9 82.21 4.36
4 7 9 84.83 4.58
-4 -7 -9 69.19 4.45
-4 -7 -9 82.01 4.46
-4 -7 -10 1.19 0.98
-4 -7 -10 1.22 1.38
-4 -7 -10 1.07 1.09
4 7 10 1.73 2.26
-4 -7 -10 0.07 1.88
4 7 10 1.92 1.84
-4 -7 -11 5.16 1.51
-4 -7 -11 4.33 1.14
-4 -7 -11 6.63 1.31
4 7 11 5.98 2.28
4 7 11 7.59 2.06
-4 -7 -12 6.79 1.68
-4 -7 -12 6.43 1.38
-4 -7 -12 5.09 1.45
4 7 12 7.79 2.39
4 7 12 5.22 2.23
4 7 13 88.81 4.91
-4 -7 -13 88.62 4.65
-4 -7 -13 87.67 4.6
4 7 13 92.03 5.42
4 7 14 0.33 1.25
-4 -7 -14 0.91 1.03
4 7 14 -0.29 2.05
-4 -7 -15 44.25 3.14
4 7 15 54.73 4.28
4 7 16 4.87 2.48
4 7 17 29.92 3.7
4 8 -11 23.73 3.67
-4 -8 11 30.18 2.98
-4 -8 10 3.65 2.2
-4 -8 10 3.93 1.98
-4 -8 9 5.68 2.34
4 8 -9 10.68 3
-4 -8 9 8.89 2.03
4 8 -8 3.16 2.12
-4 -8 8 3.43 2.06
4 8 -8 3.55 2.57
-4 -8 8 6.16 1.86
-4 -8 7 68.54 4.84
4 8 -7 62.54 5.28
4 8 -7 63.3 5.02
-4 -8 7 68.89 3.98
4 8 -6 4.26 2.11
-4 -8 6 2.95 1.96
4 8 -6 5.32 2.43
-4 -8 6 2.77 1.55
4 8 -5 6.65 2.15
-4 -8 5 10.28 2.32
4 8 -5 10.89 2.53
4 8 -4 1.49 1.71
-4 -8 4 3.04 1.88
4 8 -4 2.3 2.11
4 8 -3 69.1 5.1
4 8 -3 82.63 5.02
-4 -8 3 79.18 5
4 8 -2 44.61 3.63
-4 -8 2 44.42 3.57
4 8 -1 6.88 1.66
4 8 -1 6.38 2
4 8 -1 4.62 1.53
-4 -8 1 9.92 2.3
-4 -8 1 3.73 1.44
4 8 0 73.57 4.15
4 8 0 75.94 4.77
4 8 0 78.18 4.54
-4 -8 0 70.23 3.45
-4 -8 0 83.26 4.85
4 8 1 124.47 5.94
4 8 1 131.45 6.63
4 8 1 112.56 6.11
-4 -8 -1 114.68 5.06
4 8 2 42.93 3.08
4 8 2 45.23 3.34
4 8 2 40.28 2.81
-4 -8 -2 41.19 2.94
4 8 2 41.57 3.2
-4 -8 -3 2.29 1.33
4 8 3 5.14 1.52
-4 -8 -3 5.38 1.9
4 8 3 5.28 1.74
4 8 3 4.33 1.23
-4 -8 -3 1.33 1.18
4 8 3 5.69 1.89
4 8 4 17.53 1.92
4 8 4 19.3 2.3
4 8 4 17.95 1.78
-4 -8 -4 17.01 1.85
4 8 4 21.47 2.41
-4 -8 -4 22.87 2.4
4 8 5 90.01 5.08
4 8 5 87.39 4.81
-4 -8 -5 72.85 4.54
4 8 5 99.03 5.23
-4 -8 -5 104.09 5.34
-4 -8 -5 69.32 4.01
-4 -8 -6 89.99 4.35
4 8 6 95.08 4.84
4 8 6 95.5 4.51
-4 -8 -6 101.44 5
-4 -8 -7 3.71 1.31
4 8 7 3.68 1.43
-4 -8 -7 4.69 1.84
4 8 7 4.43 1.71
4 8 7 4.84 1.82
-4 -8 -7 5.75 1.76
-4 -8 -8 76.71 3.81
4 8 8 73.35 4.09
4 8 8 73.1 4.02
-4 -8 -8 77.01 4.28
-4 -8 -9 79.17 4.41
4 8 9 89.38 4.9
-4 -8 -9 74.05 4.35
4 8 9 97.2 5.03
-4 -8 -9 62.09 4.57
-4 -8 -9 100.81 5.18
-4 -8 -10 164.31 7.25
-4 -8 -10 175.5 7.74
4 8 10 164.99 7.75
-4 -8 -11 2.78 1.17
-4 -8 -11 4.6 1.81
4 8 11 3.78 1.97
-4 -8 -12 114.5 5.87
-4 -8 -12 126.06 5.67
4 8 12 131.95 6.65
4 8 13 11.45 1.82
-4 -8 -13 12.94 2.1
-4 -8 -13 11.61 1.58
4 8 13 17 2.83
-4 -8 -14 16.74 1.65
4 8 14 21.99 2.95
4 8 15 -0.81 2.35
4 8 16 32.47 3.59
-4 -9 10 38.09 3.09
4 9 -9 10.52 2.75
-4 -9 9 10.24 2.64
4 9 -9 10.31 3.05
-4 -9 9 11.52 1.97
4 9 -8 0.83 1.97
-4 -9 8 1.99 2.15
4 9 -8 6.05 2.8
-4 -9 8 2 1.57
4 9 -7 4.56 2.22
-4 -9 7 5.02 2.27
4 9 -7 3.65 2.54
-4 -9 7 3.75 1.56
-4 -9 6 75.3 5.11
4 9 -6 62.28 5.18
4 9 -6 70.4 5.32
-4 -9 6 59.22 3.46
4 9 -5 2.39 1.89
-4 -9 5 4.12 2.26
4 9 -5 3.1 2.31
4 9 -4 2.22 1.86
-4 -9 4 2.52 1.92
4 9 -4 3.77 2.33
4 9 -3 4.55 2
-4 -9 3 5.36 2.14
4 9 -2 72.92 4.97
-4 -9 2 86.7 5.12
4 9 -1 4.51 1.76
-4 -9 1 4 1.88
-4 -9 1 1.94 1.01
4 9 0 22.4 2.69
-4 -9 0 23.44 2.84
4 9 1 16.86 2.04
4 9 1 15.27 1.76
4 9 1 14.48 2.14
4 9 1 20.2 2.58
4 9 2 95.58 4.72
4 9 2 111.58 5.2
4 9 2 104.73 4.56
4 9 2 119.21 5.58
4 9 3 48.36 2.86
4 9 3 49.58 3.06
4 9 3 48.1 2.66
4 9 3 53.73 3.52
-4 -9 -3 52.27 3.49
4 9 4 18.29 2.14
4 9 4 16.82 1.89
4 9 4 18.84 2.7
-4 -9 -4 13.37 1.5
4 9 5 67.31 3.51
-4 -9 -5 67.08 3.41
4 9 5 78.18 4.21
-4 -9 -5 74.06 4.12
4 9 6 112.15 5.41
-4 -9 -6 104.51 5.19
4 9 6 134.01 6.18
-4 -9 -6 145.11 6.26
-4 -9 -7 14.83 1.65
4 9 7 17.44 2.29
4 9 7 18.62 1.89
-4 -9 -7 18.34 2.41
4 9 7 13.56 1.98
-4 -9 -8 5.91 1.31
4 9 8 6.29 1.57
-4 -9 -8 8.19 1.97
4 9 8 8.83 1.92
4 9 8 9.32 2.01
4 9 9 44.56 3.25
4 9 9 48.17 3.24
-4 -9 -9 51.65 3.56
4 9 10 14.99 2.15
-4 -9 -10 19.98 2.45
4 9 10 16.79 2.27
-4 -9 -11 2.09 1.51
4 9 11 3.6 1.88
-4 -9 -12 7.58 1.89
4 9 12 13.02 2.54
4 9 13 52.26 3.99
4 9 14 13.04 2.69
4 9 15 19.59 3.04
4 9 16 8.14 2.75
4 10 -9 34.16 4.23
4 10 -9 30.45 4.3
4 10 -8 8.75 2.55
-4 -10 8 12.35 2.71
-4 -10 8 11.67 1.73
4 10 -8 10.28 3.2
4 10 -7 0.33 2.03
-4 -10 7 1.87 2.15
-4 -10 7 0.39 1.28
4 10 -7 2.16 2.65
4 10 -6 27.4 3.48
-4 -10 6 23.25 3.25
4 10 -6 23.73 3.63
-4 -10 5 58.52 4.56
4 10 -5 59.76 4.9
4 10 -5 54.59 4.68
-4 -10 5 47.79 2.63
4 10 -4 2.19 1.78
-4 -10 4 3.77 2.15
-4 -10 4 1.54 0.95
-4 -10 3 5.93 1
-4 -10 3 2.75 0.87
-4 -10 2 7.91 2.46
4 10 -2 4.12 1.91
-4 -10 1 148.83 7.92
4 10 -1 135.27 7.66
4 10 -1 145.99 7.76
4 10 0 25.67 2.79
4 10 0 27.11 3.01
-4 -10 0 28.24 3.1
4 10 1 9.1 2.01
4 10 1 11.21 2.43
4 10 2 9.29 1.81
4 10 2 8.57 1.53
4 10 2 5.88 1.5
4 10 2 7.86 2.23
4 10 3 87.13 5.09
4 10 3 96.33 5.44
4 10 3 90.43 4.92
4 10 3 122.01 6.18
-4 -10 -3 119.24 6.24
4 10 4 3.4 1.35
4 10 4 2.98 1.09
-4 -10 -4 6.04 2.07
4 10 4 3.48 1.19
4 10 4 4.29 2.07
4 10 5 18.54 2.07
4 10 5 14.66 1.68
4 10 5 22.9 2.86
-4 -10 -5 22.2 2.74
4 10 6 3.36 1.29
4 10 6 2.61 1.06
-4 -10 -6 3.53 1.89
4 10 6 2.68 1.92
-4 -10 -7 52.99 4.02
4 10 7 44.84 3.16
4 10 7 41.4 2.71
4 10 7 53.27 4.01
4 10 8 32.65 2.37
-4 -10 -8 32.24 3
4 10 8 30.39 3.01
-4 -10 -9 20.08 2.59
4 10 9 19.36 2.41
-4 -10 -10 18.33 2.37
4 10 10 10.24 2.12
-4 -10 -11 21.02 2.81
4 10 11 12.55 2.4
4 10 12 4.13 1.88
4 10 13 21.76 3.03
4 10 14 45.44 3.94
4 10 15 -0.48 2.19
4 11 -8 15.44 3.16
4 11 -8 14.48 3.49
4 11 -7 0.34 2.23
4 11 -7 2.9 2.68
4 11 -6 7.74 2.49
-4 -11 6 8.08 2.76
4 11 -6 6.97 3.24
4 11 -5 0.31 1.97
-4 -11 5 3.25 2.49
4 11 -4 42.04 4.2
-4 -11 4 50.59 4.5
4 11 -3 4.33 1.99
-4 -11 3 8.02 2.44
4 11 -2 21.43 2.9
-4 -11 2 27.7 3.29
4 11 -2 20.55 3.21
4 11 -1 11.3 2.3
-4 -11 1 9.18 2.46
4 11 -1 8.66 2.69
-4 -11 0 73.67 5.35
4 11 0 66.26 4.85
4 11 0 73.18 5.12
4 11 1 2.83 1.65
4 11 1 4.9 2.24
-4 -11 -2 31.79 3.4
4 11 2 29.29 2.91
4 11 2 25.24 3.21
4 11 3 4.54 1.42
4 11 3 3.94 1.48
-4 -11 -3 3.84 2.11
4 11 3 4.18 1.33
4 11 3 5.24 2.26
4 11 4 51.06 3.51
4 11 4 53.8 3.75
4 11 4 55.15 3.41
4 11 4 61.71 4.5
4 11 5 7.72 1.51
4 11 5 8.17 1.38
-4 -11 -5 14.44 2.53
4 11 5 13.87 2.56
4 11 6 36.45 2.86
-4 -11 -6 40.93 3.7
4 11 6 40.98 3.75
4 11 6 34.74 2.49
4 11 7 45.61 2.97
-4 -11 -7 44.11 3.74
4 11 7 44.46 3.83
-4 -11 -8 42.36 3.69
4 11 8 41.84 3.72
-4 -11 -9 3.16 1.95
4 11 9 3.64 2.02
4 11 9 2.02 1.62
-4 -11 -10 32.15 3.28
4 11 10 30.06 3.35
4 11 10 25.91 2.96
4 11 11 19.71 2.51
4 11 12 10.19 2.26
4 11 13 1.56 1.92
4 11 14 23.32 3.11
4 12 -7 14.29 3.08
4 12 -7 10.11 3.44
4 12 -6 2.65 2.3
4 12 -5 8.76 2.5
4 12 -4 47.59 4.49
-4 -12 4 55.23 4.66
4 12 -3 8.04 2.27
-4 -12 3 14.3 2.93
4 12 -3 11.8 2.9
4 12 -2 -0.13 1.8
-4 -12 2 0.26 2.26
4 12 -2 4.87 2.6
4 12 -1 16.21 2.63
-4 -12 1 23 3.21
4 12 -1 15.59 2.98
4 12 0 16.11 2.54
4 12 0 15.82 2.95
4 12 1 13.88 2.37
4 12 1 13.73 2.85
4 12 2 1.08 1.54
-4 -12 -2 0.36 2.04
4 12 2 1.32 2.25
-4 -12 -3 41.8 3.96
4 12 3 35.99 3.17
4 12 3 38.08 3.82
4 12 4 3.69 1.45
-4 -12 -4 4.41 2.16
4 12 4 3.51 2.29
4 12 5 10.26 1.66
-4 -12 -5 12.23 2.64
4 12 5 7.2 2.36
4 12 6 1.77 1.24
-4 -12 -6 1.24 2.08
4 12 6 2.45 2.19
-4 -12 -7 53.06 4.27
4 12 7 49 4.13
-4 -12 -8 2.76 2.07
4 12 8 0.65 2.1
4 12 9 2.52 2.08
4 12 10 1.56 2.07
4 12 11 34.31 3.72
4 12 12 7.29 2.45
4 12 13 1.81 2.25
4 13 -6 11.31 2.81
4 13 -5 4.52 2.23
4 13 -4 6.94 2.34
4 13 -4 6.21 3.1
4 13 -3 7.59 2.47
4 13 -3 7.44 3.02
4 13 -2 14.45 2.62
-4 -13 2 15.34 3.02
4 13 -2 14.2 3.29
4 13 -1 6 2.15
-4 -13 1 7.54 2.55
4 13 -1 6.09 2.87
4 13 0 30.19 3.38
4 13 0 27.93 3.71
4 13 1 8.57 2.06
4 13 1 9.87 2.84
4 13 2 11.35 2.15
-4 -13 -2 10.5 2.65
4 13 2 10.3 2.73
4 13 3 2.92 1.52
-4 -13 -3 4.2 2.33
4 13 3 4.27 2.34
-4 -13 -4 42.13 4.07
4 13 4 40.38 3.22
4 13 4 40.92 4.04
4 13 5 5.22 1.48
-4 -13 -5 4.79 2.38
4 13 5 6.06 2.49
4 13 6 2.21 2.37
4 13 7 9.59 2.57
4 13 8 40.86 4.03
4 13 9 1.34 2.27
4 13 10 0.34 2.2
4 13 11 1.88 2.28
4 13 12 43.28 4.27
4 14 -4 4.12 2.23
4 14 -3 14.14 2.85
4 14 -3 14.5 3.48
4 14 -2 21.08 3.08
4 14 -2 11.43 3.3
4 14 -1 2.79 1.86
4 14 -1 3.11 2.75
4 14 0 9.05 2.25
4 14 0 9.96 3.1
4 14 1 14.75 2.45
4 14 1 15.39 3.3
4 14 2 13.42 2.22
4 14 2 13.23 3.13
4 14 3 2.23 1.52
4 14 3 1.88 2.36
4 14 4 11.49 2.91
4 14 5 43.46 4.31
4 14 6 1.9 2.44
4 14 7 4.23 2.35
4 14 8 3.41 2.34
4 14 9 27.03 3.5
4 14 10 2.06 2.29
4 15 0 1.43 1.91
4 15 0 0.15 2.84
4 15 1 9.19 2.18
4 15 1 8.08 3.13
4 15 2 12.17 3.23
4 15 3 8.61 2.92
4 15 4 2.72 2.52
4 15 5 8.41 2.66
4 15 6 5.46 2.52
4 15 7 0.97 2.3
-5 11 1 34.66 5.87
5 -11 0 3.48 1.61
5 -11 1 0.81 1.56
-5 11 -2 -1.3 4.31
5 -11 2 2.38 1.76
-5 11 -3 52.98 6.59
5 -11 3 45.38 4.15
-5 11 -4 4.3 4.17
5 -11 4 4.23 1.88
-5 11 -5 -0.18 4
5 -11 5 1.53 1.78
-5 10 5 11.43 4.55
-5 10 4 38.07 5.98
-5 10 3 7.99 4.1
-5 10 2 0.36 3.73
5 -10 -2 1.14 1.25
-5 10 1 6.08 4.3
5 -10 -1 9.94 1.96
-5 10 0 65.73 5.22
5 -10 0 68.68 4.85
5 -10 1 4.43 1.8
-5 10 -2 -0.7 3.91
5 -10 2 1.62 1.54
-5 10 -3 4.82 4.27
5 -10 3 5.91 2
-5 10 -4 42.2 5.78
5 -10 4 34.83 3.61
-5 10 -5 7.83 4.16
5 -10 5 4.58 1.97
-5 10 -6 14.79 4.36
5 -10 6 3.04 1.9
-5 10 -7 3.51 4.05
5 -10 7 4.94 2.16
-5 10 -8 39.55 5.23
5 -10 8 24.98 3.52
-5 9 7 18.2 5.36
-5 9 6 15.73 4.6
-5 9 5 -1.06 3.97
-5 9 4 36.74 5.4
5 -9 -4 40.6 3.04
-5 9 3 39.65 5.75
5 -9 -3 32.3 3.05
-5 9 2 -0.54 1.24
-5 9 2 3.02 3.79
5 -9 -2 -0.25 1.33
-5 9 1 3.16 1.49
-5 9 1 2.49 3.76
5 -9 -1 4.38 1.57
-5 9 0 22.43 2.73
5 -9 0 20.08 2.55
5 -9 1 31.41 3.26
-5 9 -2 3.09 3.72
5 -9 2 0.55 1.54
-5 9 -3 10.45 4.01
5 -9 3 8.75 2.15
-5 9 -4 12.9 4.07
5 -9 4 8.89 2.18
-5 9 -5 47.27 5.46
5 -9 5 33.14 3.66
-5 9 -6 0.15 3.53
5 -9 6 0.39 1.69
-5 9 -7 6.83 4.01
5 -9 7 12.37 2.53
-5 9 -8 5.61 3.8
5 -9 8 3.55 2.09
-5 9 -9 26.12 4.57
5 -9 9 28.05 3.6
-5 9 -10 5.53 3.28
5 -9 10 3.82 2.07
-5 8 8 0.53 4.37
-5 8 7 35.66 5.71
-5 8 6 19.5 5.01
-5 8 5 8.37 3.97
-5 8 4 7.61 1.56
-5 8 4 10.05 4.13
-5 8 3 52.47 3.64
-5 8 3 45.29 5.53
-5 8 2 37.61 3.53
-5 8 2 45.17 5.5
-5 8 1 0.1 1.2
-5 8 1 0.77 3.6
-5 8 0 25.98 3.09
5 -8 1 62.92 3.13
5 -8 2 51.46 3.09
-5 8 -2 52.87 5.63
5 -8 3 -0.8 1.63
-5 8 -3 0.3 3.32
5 -8 3 1.24 1.33
-5 8 -4 26.7 4.69
5 -8 4 21.55 2.94
-5 8 -5 15.99 3.99
5 -8 5 13.45 2.48
-5 8 -6 24.36 4.21
5 -8 6 18.69 2.89
-5 8 -7 8.38 3.42
5 -8 7 5.17 1.97
-5 8 -8 64.2 5.92
5 -8 8 51.22 4.67
-5 8 -9 27.3 4.35
5 -8 9 21.33 3.35
-5 8 -10 37.53 4.51
5 -8 10 21.18 3.31
-5 8 -11 -2.59 3.36
5 -8 11 0.93 1.74
-5 8 -12 16.07 3.64
-5 7 9 5.37 4.4
-5 7 8 -0.34 4.04
-5 7 7 2.64 3.92
-5 7 6 73.4 6.74
-5 7 5 28.88 5.22
-5 7 4 2.48 1.1
-5 7 4 -0.16 3.48
-5 7 3 6.62 1.7
-5 7 3 9.13 3.81
-5 7 2 53.34 3.64
-5 7 2 51.5 3.7
-5 7 2 45.17 5.15
-5 7 1 15.08 2.41
-5 7 1 17.39 2.44
-5 7 1 14.62 4.01
-5 7 0 4.31 1.58
5 -7 1 56.14 2.92
-5 7 -2 79.14 6.24
5 -7 2 83.85 4.04
5 -7 3 34.43 2.64
-5 7 -3 22.88 4.19
-5 7 -4 9.59 3.52
5 -7 4 13.72 1.99
-5 7 -5 73.72 6.18
5 -7 5 79.65 4.63
5 -7 5 61.77 4.98
-5 7 -6 25.67 4.09
5 -7 6 22.25 2.97
-5 7 -7 19.66 3.94
5 -7 7 20.87 2.93
-5 7 -8 4.16 3.21
5 -7 8 1.13 1.76
-5 7 -9 48.63 5.1
5 -7 9 47.63 4.51
-5 7 -10 5.05 3.31
5 -7 10 2.64 2.01
-5 7 -11 5.14 3.05
5 -7 11 2.32 2.1
-5 7 -12 4.03 3.12
-5 6 10 -3.03 4.35
-5 6 9 30.76 5.86
-5 6 8 9.43 4.45
-5 6 7 3.23 3.83
-5 6 6 3.07 3.64
-5 6 5 106.26 7.58
-5 6 4 11.01 1.85
-5 6 4 12.52 4
-5 6 3 16.39 2.04
-5 6 3 16.1 3.72
-5 6 3 14.52 1.99
-5 6 2 52.14 3.89
-5 6 2 48.34 3.91
-5 6 2 45.22 5.1
-5 6 1 204.03 9.36
-5 6 1 200.49 9.15
-5 6 1 180.74 10.26
-5 6 0 24.13 2.74
-5 6 0 19.94 2.65
5 -6 1 23.25 1.63
5 -6 2 72.66 3.74
-5 6 -2 53.58 5.52
-5 6 -3 68.14 5.65
5 -6 3 76.43 4.05
-5 6 -4 11.35 3.46
5 -6 4 16.81 2.22
-5 6 -5 6.6 3.08
5 -6 5 11.13 2.01
5 -6 6 82.55 5.29
-5 6 -6 87.86 6.38
-5 6 -7 37.37 4.26
5 -6 7 30.92 3.39
-5 6 -8 10.82 3.26
5 -6 8 7.58 2.19
-5 6 -9 10.24 3.04
5 -6 9 5.77 2.2
-5 6 -10 63.86 5.29
-5 6 -11 6.1 3.11
-5 6 -12 2.23 2.61
5 -6 13 1.6 2.13
-5 5 11 0.52 3.9
-5 5 10 -0.99 4.29
-5 5 9 1.28 3.49
5 -5 -9 2.29 1.31
5 -5 -8 112.76 5.48
-5 5 8 115.42 6.12
-5 5 7 3.16 3.54
5 -5 -7 1.77 1.3
-5 5 6 12.41 3.87
-5 5 5 11.16 3.66
-5 5 5 15.2 2
-5 5 4 107.98 5.68
-5 5 4 93.8 6.82
-5 5 4 110.38 5.58
-5 5 3 4.83 1.53
-5 5 3 3.83 3.38
-5 5 3 5.98 1.58
-5 5 2 83.64 4.76
-5 5 2 84.09 4.95
-5 5 2 69.45 5.96
-5 5 1 36.81 3.4
-5 5 1 40.62 3.4
-5 5 1 37.85 4.65
-5 5 0 144.39 7.16
-5 5 0 147.97 7.02
5 -5 0 132.87 5.19
-5 5 -1 2.89 1.5
5 -5 1 4.55 1.17
-5 5 -2 68.26 4.55
5 -5 2 75.77 3.8
5 -5 3 90.22 4.8
-5 5 -3 81.61 6.16
-5 5 -4 100.7 6.48
5 -5 4 105.47 5.33
-5 5 -5 0.69 2.7
5 -5 5 0.56 1.67
-5 5 -6 100.98 6.45
5 -5 6 100.1 5.56
-5 5 -7 123.68 7.52
-5 5 -8 54.31 4.68
-5 5 -9 0.43 2.75
-5 5 -10 36.14 4.11
-5 5 -11 90.91 5.91
5 -5 11 77.78 6.12
-5 5 -12 13.89 3.03
5 -5 12 8.17 2.4
-5 5 -13 3.78 2.51
5 -5 13 0.79 1.92
5 -5 14 10.06 2.65
-5 4 11 2 6.28
-5 4 10 1.5 3.81
5 -4 -10 -0.75 1.43
-5 4 9 30.52 3.06
5 -4 -9 31.04 2.72
-5 4 8 1.59 1.58
-5 4 8 0.92 3.57
5 -4 -8 0.67 1.22
5 -4 -8 0.78 0.98
-5 4 7 114.35 6.14
5 -4 -7 110.7 5.67
-5 4 6 3.65 3.58
-5 4 6 1.12 1.28
5 -4 -6 0.98 1.38
5 -4 -5 48.84 3.39
-5 4 5 47.57 3.31
-5 4 4 9 1.67
-5 4 4 8.74 3.48
5 -4 -4 8.21 1.66
-5 4 4 8.43 1.7
5 -4 -3 80.1 4.64
-5 4 3 80.51 4.61
-5 4 3 86.53 4.84
-5 4 3 67.96 5.73
-5 4 2 1.29 1.31
-5 4 2 1.11 2.84
-5 4 2 -0.56 1.49
-5 4 1 106.27 5.73
-5 4 1 103.25 5.58
-5 4 1 91.76 6.43
-5 4 0 20.98 2.57
-5 4 0 20.14 2.54
5 -4 0 23.34 1.5
-5 4 -1 43.28 3.4
-5 4 -1 49.82 3.76
5 -4 1 52.34 2.75
-5 4 -2 2.95 1.51
5 -4 2 3.48 1.4
-5 4 -3 122.9 6.62
-5 4 -3 129.58 7.44
5 -4 3 132.49 6.04
-5 4 -4 71.05 5.56
5 -4 4 71.91 4.37
-5 4 -5 14.62 3.07
5 -4 5 11.7 2.05
-5 4 -6 16.59 3.31
5 -4 6 13.93 2.41
-5 4 -7 159.93 8.43
5 -4 7 157.54 7.8
-5 4 -8 108.21 6.8
-5 4 -9 2.21 2.52
5 -4 10 9.92 2.28
-5 4 -10 8.2 2.88
5 -4 11 24.97 3.35
-5 4 -11 31.75 3.59
5 -4 12 68.98 5.58
-5 4 -12 66.75 4.95
5 -4 13 3.67 2.12
-5 4 -13 1.02 2.26
5 -4 13 -0.11 2.25
5 -4 14 9.61 2.69
5 -4 14 9.21 2.91
5 -4 15 7.33 2.53
5 -4 15 11.12 3.04
-5 3 12 -2.1 5.53
-5 3 11 -0.82 3.81
5 -3 -11 0.92 1.33
5 -3 -10 64.47 3.93
-5 3 10 17.39 5.46
-5 3 9 2.18 1.83
-5 3 9 2.06 3.8
5 -3 -9 2.85 1.55
-5 3 8 89.74 5.18
5 -3 -8 85.84 4.87
5 -3 -8 89.66 4.6
-5 3 7 1.42 1.51
-5 3 7 0.72 3.19
-5 3 7 0.98 1.26
5 -3 -7 1.03 1.28
-5 3 6 138.06 6.81
5 -3 -6 130.66 6.44
-5 3 6 132.27 6.38
-5 3 5 3.79 3.23
-5 3 5 0.08 1.31
5 -3 -5 0.95 1.2
5 -3 -4 155.34 7.33
-5 3 4 158.38 7.54
-5 3 4 159.69 7.44
-5 3 3 11.27 1.89
-5 3 3 12.66 3.4
-5 3 3 11.48 1.89
5 -3 -3 9.84 1.79
5 -3 -2 134.33 6.77
-5 3 2 146.83 6.96
-5 3 2 142.92 7.07
-5 3 2 122.28 7.77
-5 3 1 1.5 1.29
-5 3 1 2.89 2.77
5 -3 -1 3.3 1.39
-5 3 1 3.7 1.55
-5 3 0 510.83 20.55
-5 3 0 510.45 20.27
-5 3 -1 57.61 4.14
-5 3 -1 52.72 4.18
-5 3 -2 67.81 4.2
5 -3 2 68.6 4.65
-5 3 -2 62.84 3.92
-5 3 -3 12.54 2.08
-5 3 -3 17.41 3.23
5 -3 3 10.83 2.8
-5 3 -3 12.81 2.19
-5 3 -4 340.29 13.95
5 -3 4 365.15 14.18
-5 3 -4 333.57 14.49
5 -3 5 76.01 5.45
-5 3 -5 84.42 5.75
-5 3 -6 15.86 2.95
-5 3 -7 15.67 3.08
-5 3 -8 152.38 7.93
-5 3 -9 86.04 5.85
-5 3 -10 31.72 3.57
5 -3 11 15.82 2.79
-5 3 -11 24.61 3.1
5 -3 11 19.2 2.99
5 -3 12 91.97 6.24
-5 3 -12 85.39 5.31
5 -3 12 89.29 5.75
5 -3 13 40.43 4.37
5 -3 13 40.3 4.15
5 -3 14 1.23 1.82
5 -3 14 0.46 2.19
5 -3 15 12.63 2.86
5 -3 15 11.04 3.09
5 -3 16 0.65 2.11
5 -3 16 2.5 2.65
-5 2 12 3.99 4.48
5 -2 -12 5.42 2.06
5 -2 -11 17.93 2.29
-5 2 11 -1.57 4.1
-5 2 10 3.31 3.83
5 -2 -10 12.75 2.19
-5 2 9 26.99 2.71
5 -2 -9 26.51 2.62
-5 2 8 7.24 2.25
-5 2 8 6.22 4.34
5 -2 -8 6.33 1.89
-5 2 7 124.06 6.33
5 -2 -7 132.17 6.32
-5 2 6 0.25 1.47
-5 2 6 -0.56 3.07
-5 2 6 -0.23 1.38
5 -2 -6 1.6 1.22
-5 2 5 14.55 2.17
5 -2 -5 13.29 1.88
-5 2 5 16.11 3.69
-5 2 5 15.32 1.97
-5 2 4 0.64 3
-5 2 4 1.35 1.37
5 -2 -4 0.81 1.22
5 -2 -3 361.26 14.98
-5 2 3 382.14 15.33
-5 2 3 385.64 15.1
-5 2 2 2.39 1.32
5 -2 -2 2.27 1.29
-5 2 2 2.83 1.45
-5 2 2 1.1 2.66
-5 2 1 0.56 1
5 -2 -1 0.65 1.1
-5 2 1 1.12 1.23
-5 2 1 3.65 2.79
5 -2 -1 0.94 0.65
-5 2 0 5.05 1.64
-5 2 0 4.03 3.05
5 -2 0 2.43 2.91
5 -2 0 5.27 1.65
-5 2 0 4.76 1.72
5 -2 1 337.23 14.54
-5 2 -1 348.53 14.48
-5 2 -1 353.71 14.77
5 -2 1 359.24 15.04
-5 2 -2 21.44 2.53
-5 2 -2 21.86 2.64
5 -2 2 19.97 3.29
-5 2 -3 53.24 3.65
5 -2 3 57.6 4.16
-5 2 -3 59.47 4.61
-5 2 -3 45.53 3.27
-5 2 -4 15.01 2.33
5 -2 4 22.05 3.25
-5 2 -4 24.65 3.68
-5 2 -4 16.6 2.4
-5 2 -5 777.68 29.72
5 -2 5 823.8 29.72
-5 2 -5 802.72 30.31
-5 2 -5 717.81 29.18
5 -2 6 64.31 4.69
-5 2 -6 70.35 5.31
5 -2 7 78.82 4.72
-5 2 -7 79.55 5.36
-5 2 -8 25.15 3.49
-5 2 -9 183.06 8.84
-5 2 -10 38.65 3.78
5 -2 10 29.34 3.59
-5 2 -11 10.85 2.68
5 -2 11 9.43 2.42
5 -2 12 45.31 4.37
5 -2 12 41.98 4.09
5 -2 13 49.54 4.55
5 -2 13 54.61 4.43
5 -2 14 16.28 3.04
5 -2 14 21.2 3.25
5 -2 15 0.15 1.85
5 -2 15 0.49 2.43
5 -2 16 22.88 3.59
5 -2 16 25.12 3.87
5 -1 -12 18.26 2.45
5 -1 -11 2.76 1.66
5 -1 -10 78.78 4.62
-5 1 10 19.71 5.23
-5 1 9 2.14 3.52
5 -1 -9 8.09 1.99
-5 1 8 3.57 1.56
-5 1 8 0.76 3.48
5 -1 -8 2.34 1.38
-5 1 7 8.68 2.25
-5 1 7 8.66 4.01
5 -1 -7 4.52 1.84
5 -1 -6 47.77 3.52
-5 1 6 54.81 3.79
-5 1 6 51.95 3.61
-5 1 5 14.57 2.35
5 -1 -5 15 2.18
-5 1 5 7.36 3.55
-5 1 5 12.33 2.11
-5 1 4 9.55 1.86
-5 1 4 7.62 1.63
5 -1 -4 9.18 1.67
-5 1 4 6.4 3.18
-5 1 3 1.85 1.39
-5 1 3 3.04 1.8
5 -1 -3 2.26 1.48
-5 1 3 1.86 1.55
-5 1 3 2.76 3.12
5 -1 -3 3 0.98
5 -1 -2 408.07 16.85
-5 1 2 445.19 17.29
-5 1 2 441.83 16.96
-5 1 2 386.77 17.71
5 -1 -2 411.24 15.38
-5 1 1 2 1.3
5 -1 -1 2.48 1.37
-5 1 1 2.3 1.45
-5 1 1 2.34 2.8
5 -1 -1 2.81 0.99
-5 1 0 21.5 2.23
5 -1 0 19.43 2.16
-5 1 0 23.08 2.39
-5 1 0 22.01 3.4
5 -1 0 21.16 3.05
-5 1 -1 4.72 1.58
5 -1 1 4.08 2.58
5 -1 1 5.28 1.62
-5 1 -1 6.67 1.7
-5 1 -2 564.17 21.82
-5 1 -2 550.97 22.08
5 -1 2 548.23 21.94
-5 1 -3 9.45 1.8
-5 1 -3 9.42 2.91
5 -1 3 8.37 2.69
-5 1 -3 5.79 1.82
-5 1 -4 19.64 2.27
5 -1 4 25 3.08
-5 1 -4 22.77 3.3
-5 1 -4 22.37 2.29
-5 1 -5 19.84 2.44
5 -1 5 22.85 3.24
-5 1 -5 25.4 3.51
-5 1 -5 18.34 2.51
-5 1 -6 108.75 5.81
5 -1 6 116.11 6
-5 1 -6 115.6 6.46
-5 1 -6 106.79 5.66
-5 1 -7 14.36 3.04
5 -1 7 14.24 2.67
5 -1 8 34.98 3.01
-5 1 -8 37.53 3.67
-5 1 -9 48.45 4.31
5 -1 12 15.34 2.66
5 -1 13 52.14 4.71
5 -1 14 61.04 5.02
5 -1 15 8.56 2.63
5 -1 16 11.65 2.61
5 -1 16 9.59 2.95
5 -1 17 49.45 4.83
5 -1 17 35.34 4.82
5 0 -13 18.93 2.71
5 0 -12 14.76 2.64
5 0 -11 5.35 1.82
5 0 -10 20.01 2.96
5 0 -9 96.49 5.26
-5 0 9 36.04 5.83
-5 0 8 3.37 3.12
5 0 -8 5.78 1.84
-5 0 7 1.3 3.37
5 0 -7 0.98 1.31
-5 0 6 3.43 1.79
-5 0 6 5.57 3.48
5 0 -6 3.68 1.69
5 0 -5 526.14 21.03
-5 0 5 570.74 21.03
5 0 -5 527.83 20.79
-5 0 5 547.5 20.99
-5 0 4 0.83 1.56
-5 0 4 0.25 1.34
5 0 -4 0.26 1.27
-5 0 4 2.95 2.9
5 0 -4 0.77 1.21
-5 0 3 11.78 1.93
-5 0 3 10.56 1.82
5 0 -3 9.95 1.76
5 0 -3 11.08 1.32
-5 0 3 9.92 3.32
5 0 -3 6.49 2.86
-5 0 2 1.77 1.43
-5 0 2 3.73 1.77
5 0 -2 2.65 1.42
-5 0 2 0.56 1.41
-5 0 2 2.68 3.29
5 0 -2 2.39 1.12
-5 0 1 573.76 22.73
5 0 -1 559.93 22.65
-5 0 1 586.88 22.65
-5 0 1 590.84 22.97
5 0 -1 578.37 21.46
-5 0 1 583.74 23.77
-5 0 0 1.03 1.27
-5 0 0 0.36 2.64
5 0 0 0.87 2.29
5 0 0 1.51 1.35
-5 0 0 2.36 1.4
-5 0 -1 42.21 3.1
-5 0 -1 42.31 3.26
5 0 1 39.26 3.64
-5 0 -2 2.28 1.29
5 0 2 1.79 2.32
-5 0 -2 1.81 1.29
-5 0 -3 387.19 15.83
-5 0 -3 385.95 16.1
5 0 3 377.36 15.88
-5 0 -3 414.95 16.77
-5 0 -4 3.03 2.6
5 0 4 2.59 2.19
-5 0 -4 2.17 1.23
-5 0 -5 48.35 3.49
5 0 5 54.82 3.78
-5 0 -6 19.17 3.33
5 0 6 17.22 2.69
-5 0 -6 10.47 2.14
5 0 7 429.54 16.53
-5 0 -7 450.31 17.34
-5 0 -8 5.06 2.53
5 0 8 0.13 2.07
5 0 9 93.76 4.98
5 0 9 88.88 5.5
5 0 10 33.68 3.2
5 0 10 44.86 3.99
5 0 13 91.03 6.07
5 0 14 37.36 4.25
-5 0 -15 62.53 4.2
5 0 15 69.37 5.34
-5 0 -16 -0.21 1.42
5 0 16 0.44 1.8
5 0 17 22.25 3.31
5 1 -13 28.6 3.56
5 1 -12 25.83 3.2
5 1 -11 4.55 2
5 1 -10 6.07 1.89
5 1 -9 32.98 3.61
5 1 -8 138.9 7.51
-5 -1 7 2.2 3.33
5 1 -7 8.82 2.09
5 1 -6 30.05 2.83
-5 -1 6 14.39 3.7
-5 -1 5 46 3.8
5 1 -5 42.24 3.78
-5 -1 5 39.81 5.42
5 1 -4 192.29 8.98
-5 -1 4 197.54 8.86
5 1 -4 188.5 8.67
-5 -1 4 199.52 8.93
-5 -1 3 5.29 1.85
5 1 -3 4.42 1.45
-5 -1 3 4.65 1.75
5 1 -3 5.31 1.67
5 1 -3 3.07 2.69
-5 -1 3 2.92 3.07
5 1 -3 7.45 1.33
5 1 -2 31.95 2.78
-5 -1 2 31.71 2.86
-5 -1 2 31.6 2.86
5 1 -2 33.32 2.12
-5 -1 2 33.54 4.24
-5 -1 2 34.42 2.9
-5 -1 1 8.05 1.9
-5 -1 1 10.61 2.16
5 1 -1 8.35 2
5 1 -1 10.45 1.35
-5 -1 1 11.03 3.49
-5 -1 1 9.94 2
-5 -1 0 448.92 17.97
-5 -1 0 468.82 18.05
-5 -1 0 462.24 18.32
-5 -1 0 487.12 19.29
-5 -1 -1 0.37 1.09
-5 -1 -1 2.11 1.54
5 1 1 0.58 2.22
-5 -1 -1 0.16 1.27
-5 -1 -2 42.34 3.06
-5 -1 -2 38.27 3.09
-5 -1 -2 40.43 3.13
5 1 2 35.71 3.42
-5 -1 -3 0.63 0.97
5 1 3 0.46 2.14
-5 -1 -3 1.03 2.53
5 1 3 0.85 1.15
-5 -1 -3 0.47 1.09
5 1 4 321.93 13.38
-5 -1 -4 306.68 13.05
-5 -1 -4 304.38 13.34
5 1 4 296.86 13.03
5 1 5 2.43 2.11
-5 -1 -5 3.17 2.61
5 1 6 130.48 6.73
-5 -1 -6 161.53 7.86
-5 -1 -7 9.2 1.83
-5 -1 -7 12.88 2.85
5 1 7 10.36 2.36
-5 -1 -8 163.6 8.44
5 1 8 186.16 8.24
5 1 8 186.3 8.88
5 1 9 1.95 2
5 1 9 1.08 1.85
5 1 10 216.67 9.48
5 1 10 235.49 10.52
5 1 11 17.21 2.24
5 1 11 22.9 3.25
-5 -1 -12 123.56 6.42
5 1 12 119 6.87
5 1 13 0.4 1.7
-5 -1 -13 1.27 1.52
5 1 13 0.87 2.21
5 1 14 53.85 4.51
-5 -1 -14 49.85 3.62
5 1 14 50.07 4.39
5 1 15 33.08 3.9
-5 -1 -15 26.36 2.96
5 1 15 29.96 3.95
5 1 16 5.73 2.09
-5 -1 -16 5.59 1.62
5 1 16 9.35 2.88
5 1 17 1.28 2.07
5 2 -12 41.99 4.36
5 2 -11 16.67 2.69
5 2 -10 8.24 2.32
-5 -2 10 2.47 2
5 2 -9 8.03 2.07
5 2 -8 55.18 4.57
5 2 -7 65.98 4.65
5 2 -6 4.57 1.7
5 2 -6 5.19 1.84
5 2 -5 28.42 2.89
5 2 -5 25.07 2.44
-5 -2 4 39.73 3.45
5 2 -4 32.2 3.3
-5 -2 4 30.72 4.7
5 2 -3 196.33 9.12
-5 -2 3 212.64 9.07
5 2 -3 194.47 8.85
-5 -2 3 187.39 10.18
-5 -2 3 213.58 9.18
5 2 -2 4.03 1.47
-5 -2 2 5.11 1.82
-5 -2 2 3.28 3.01
-5 -2 2 3.32 1.72
-5 -2 1 52.72 3.63
-5 -2 1 48.26 3.62
-5 -2 1 48.55 4.55
-5 -2 1 51.38 3.57
-5 -2 0 12.19 2.23
-5 -2 0 9.33 1.92
5 2 0 12.71 2.86
-5 -2 0 13.52 3.33
-5 -2 0 14.43 2.15
-5 -2 -1 116.94 6
5 2 1 99.63 5.63
-5 -2 -1 104.72 5.71
-5 -2 -1 120.29 5.8
5 2 1 94.33 5.72
-5 -2 -2 1.66 1.22
-5 -2 -2 3.16 1.69
5 2 2 3.13 1.57
-5 -2 -2 3.32 1.5
5 2 2 2.42 2.31
-5 -2 -2 3.47 1.64
5 2 3 395.47 15.75
-5 -2 -3 384.76 15.79
5 2 3 345 15.39
-5 -2 -3 365.53 15.03
5 2 4 -0.09 1.18
5 2 4 1.63 2.18
-5 -2 -4 0.34 2.46
-5 -2 -4 0.39 1.44
5 2 5 254.84 11.14
-5 -2 -5 240.88 10.94
5 2 5 242.79 10.86
-5 -2 -5 250.31 10.59
-5 -2 -6 1.37 1.5
-5 -2 -6 1.22 1.26
5 2 6 0.41 2.12
-5 -2 -6 2.45 2.49
-5 -2 -6 1.04 1.67
-5 -2 -7 218.31 9.75
-5 -2 -7 218.26 9.66
5 2 7 216.46 9.46
-5 -2 -7 215.58 9.36
-5 -2 -8 4.94 1.75
-5 -2 -8 4.41 1.56
5 2 8 6.53 2.1
5 2 8 5.52 2.28
-5 -2 -9 79.64 4.73
-5 -2 -9 73.92 4.54
5 2 9 81.07 4.47
5 2 9 77.98 4.94
-5 -2 -10 1.37 1.5
5 2 10 2.77 1.8
5 2 10 3.35 2.09
-5 -2 -11 136.55 6.56
5 2 11 119.04 5.97
5 2 11 128.25 7.01
-5 -2 -12 27.75 2.91
5 2 12 16.71 2.15
5 2 12 24.45 3.39
-5 -2 -13 46.64 3.44
5 2 13 45.31 4.08
5 2 14 0.64 1.57
-5 -2 -14 0.71 1.36
5 2 14 0.78 2.12
5 2 15 67.74 5.24
-5 -2 -15 68.92 4.08
5 2 15 66 5.18
5 2 16 12.11 2.82
5 2 16 17.42 3.36
5 2 17 4.46 2.12
5 2 17 6.65 2.85
5 3 -12 10.67 2.6
5 3 -11 50.68 4.8
-5 -3 10 7.09 2.28
5 3 -10 23.15 3.11
-5 -3 9 2.6 1.85
5 3 -9 4.18 2.14
5 3 -8 11.33 2.38
5 3 -7 61.37 4.7
5 3 -7 58.32 4.32
5 3 -6 19.34 2.6
5 3 -6 20.25 2.44
5 3 -5 7.77 2.17
5 3 -5 9.32 2.11
5 3 -4 120.46 6.6
5 3 -4 116.71 5.72
5 3 -3 41.48 3.44
-5 -3 3 42.33 3.64
5 3 -3 51.4 3.32
-5 -3 2 76.53 4.66
5 3 -2 75.81 4.03
-5 -3 1 4.35 1.79
-5 -3 1 5.08 1.94
5 3 -1 7.47 1.68
5 3 0 268.46 11.86
5 3 0 269.69 11.67
-5 -3 0 271.1 11.82
-5 -3 0 281 12.1
5 3 0 295.22 11.24
5 3 0 239.93 11.94
-5 -3 0 277.01 11.82
-5 -3 -1 19.94 2.59
-5 -3 -1 19.94 2.54
5 3 1 18.33 2.44
-5 -3 -1 18.97 2.4
5 3 1 19.33 3.25
5 3 1 26.09 2.28
-5 -3 -2 66.48 4.1
5 3 2 64.37 4.05
5 3 2 59.9 4.37
-5 -3 -2 57.85 3.6
5 3 3 6.8 1.87
5 3 3 6.67 2.73
-5 -3 -3 6.92 2.1
-5 -3 -4 344.73 14.31
5 3 4 359.19 14.55
5 3 4 344.95 14.44
-5 -3 -4 342.9 13.83
-5 -3 -5 1.41 1.42
-5 -3 -5 0.88 1.12
5 3 5 2.53 1.38
-5 -3 -5 1.74 1.29
5 3 5 1.82 2.14
-5 -3 -5 1.68 1.6
5 3 6 104.28 5.55
-5 -3 -6 100.71 5.26
-5 -3 -6 96.66 5.38
-5 -3 -6 93.15 5.34
5 3 6 91.85 5.27
-5 -3 -6 101.4 5.09
-5 -3 -7 3.04 1.72
-5 -3 -7 2.18 1.31
-5 -3 -7 2.14 1.4
5 3 7 1.45 2.18
-5 -3 -7 1.72 1.81
-5 -3 -8 412.54 17.34
-5 -3 -8 453.22 17.71
5 3 8 407.88 17.11
-5 -3 -8 463.59 17.41
5 3 8 446.6 17.77
-5 -3 -9 0.99 1.55
-5 -3 -9 0.32 1.19
5 3 9 0.7 1.87
5 3 9 1.96 2.01
-5 -3 -10 39.84 3.11
-5 -3 -10 32.33 2.85
5 3 10 33.87 2.86
5 3 10 38.37 3.51
-5 -3 -11 1.09 1.53
5 3 11 1.38 1.77
5 3 11 0.28 2.17
-5 -3 -12 285.14 11.33
5 3 12 268.03 11.94
-5 -3 -13 6.63 1.78
5 3 13 7.11 2.56
5 3 14 6.06 2.01
5 3 14 5.7 2.34
5 3 15 3.83 2
5 3 15 2.54 2.46
5 3 16 136.21 7.94
5 3 16 142.36 8.13
5 3 17 7.2 2.29
5 3 17 6.65 2.8
5 4 -12 4.54 2.43
-5 -4 12 6.86 2.69
5 4 -11 9.1 2.51
5 4 -10 69.71 5.45
-5 -4 10 46.68 4.14
5 4 -9 5.38 2.17
-5 -4 9 4.44 1.95
5 4 -8 4.04 2.21
-5 -4 8 7.28 2.14
5 4 -8 5.31 2.41
5 4 -7 37.35 3.7
5 4 -7 37.34 3.32
5 4 -6 95.81 6.37
5 4 -6 101.15 5.8
5 4 -5 13.55 2.31
5 4 -5 12.46 2.07
5 4 -4 16.43 2.37
5 4 -3 89.86 4.77
5 4 -2 76.13 4.23
-5 -4 2 60.06 4.5
5 4 -1 35.35 2.86
5 4 -1 35.87 3.07
5 4 -1 39.05 2.73
-5 -4 1 35.62 3.01
5 4 0 18.94 2.34
5 4 0 19.91 2.67
5 4 0 28.05 2.59
5 4 0 22.01 3.58
5 4 1 189.65 8.81
5 4 1 187.03 8.6
5 4 1 174.64 8.99
5 4 1 198.19 8.3
-5 -4 -2 27.84 2.93
5 4 2 25.4 2.75
5 4 2 20.39 3.2
-5 -4 -2 21.39 2.46
-5 -4 -3 21.52 2.18
5 4 3 20.86 2.29
5 4 3 20.72 2.88
-5 -4 -3 18.22 2.12
5 4 4 11.13 2.14
-5 -4 -4 9.92 1.97
-5 -4 -4 12.21 2.01
5 4 4 12.61 2.9
-5 -4 -4 9.02 2.2
5 4 5 210.6 9.3
-5 -4 -5 206.04 9.09
-5 -4 -5 205.5 9.27
-5 -4 -5 203.28 9.3
5 4 5 191.18 9.22
-5 -4 -5 197.34 8.71
-5 -4 -6 1.99 1.5
-5 -4 -6 2.01 1.22
5 4 6 0.95 1.44
-5 -4 -6 2.93 1.36
5 4 6 3.22 2.18
-5 -4 -6 1.63 1.61
-5 -4 -7 2.1 1.18
-5 -4 -7 1.89 1.41
-5 -4 -7 1.51 1.15
5 4 7 1.22 2.09
-5 -4 -7 1.89 1.67
-5 -4 -8 3.36 1.47
-5 -4 -8 5.36 1.82
-5 -4 -8 5.83 1.68
5 4 8 4.92 2.3
-5 -4 -8 4.43 2.07
5 4 8 3.42 2.21
-5 -4 -9 294.02 12.56
-5 -4 -9 294.81 12.84
-5 -4 -9 315 12.75
5 4 9 279.96 12.29
5 4 9 315.3 12.93
-5 -4 -10 0.55 1.4
-5 -4 -10 0.46 1.25
5 4 10 1.53 1.91
5 4 10 0.26 1.99
5 4 11 2.97 1.84
5 4 11 2.3 2.09
5 4 12 1.65 1.71
5 4 12 1.46 2.22
5 4 13 179.52 9.08
5 4 14 0.12 1.71
5 4 14 -0.11 2.29
5 4 15 5.71 1.99
5 4 15 7.87 2.62
5 4 16 1.87 1.78
5 4 16 2.18 2.72
5 4 17 71.01 5.08
5 4 17 66.62 5.57
5 5 -12 -0.17 2.2
-5 -5 12 2.36 2.62
5 5 -11 9.37 2.69
-5 -5 11 10.84 2.74
5 5 -10 2.96 2.14
-5 -5 10 0.93 1.95
5 5 -9 51.84 4.67
-5 -5 9 44.48 3.93
5 5 -8 1.16 1.78
-5 -5 8 1.17 1.87
5 5 -8 1.11 2.24
5 5 -7 23.47 3.12
5 5 -7 23.74 3.09
-5 -5 7 24.06 2.89
5 5 -6 74.22 4.79
5 5 -5 68.88 4.51
5 5 -4 19.24 2.39
5 5 -3 22.29 2.96
5 5 -3 27.27 2.75
5 5 -2 113.72 6.31
5 5 -2 108.98 5.6
5 5 -1 49.67 3.79
5 5 -1 53.5 4.28
5 5 0 1.59 1.13
5 5 0 2.21 1.38
5 5 0 2.01 2.6
5 5 0 1.49 1.52
5 5 1 32.81 3.1
5 5 1 25.51 2.62
5 5 1 37.69 2.98
5 5 1 27.46 4.09
-5 -5 -1 27.3 2.71
5 5 2 236.7 10.78
-5 -5 -2 234.24 10.89
-5 -5 -2 247.27 10.77
5 5 2 251.11 11.44
5 5 2 261.09 10.52
-5 -5 -2 243.44 10.14
-5 -5 -3 21.14 2.59
5 5 3 25.85 2.72
-5 -5 -3 26.65 2.73
5 5 3 21.66 3.49
-5 -5 -3 21.84 2.41
5 5 4 20.12 2.15
-5 -5 -4 15.53 2.03
-5 -5 -4 16.85 1.96
5 5 4 18.6 2.99
-5 -5 -4 18.28 2.09
-5 -5 -5 29.19 2.86
5 5 5 32.63 3.06
-5 -5 -5 23.41 2.83
5 5 5 28.75 3.75
-5 -5 -5 25.84 2.84
5 5 6 506.67 19.29
-5 -5 -6 489.47 19.05
-5 -5 -6 483.41 19.3
5 5 6 464.84 19.3
-5 -5 -6 461.54 18.55
5 5 7 14.64 2.32
-5 -5 -7 16.87 2.25
-5 -5 -7 10.81 1.99
5 5 7 12 2.86
-5 -5 -7 11.32 2.28
-5 -5 -8 1.47 1.11
-5 -5 -8 3.12 1.33
5 5 8 3.02 2.25
-5 -5 -8 2.24 1.74
5 5 8 2.15 1.87
-5 -5 -9 7.32 1.69
-5 -5 -9 7.9 1.74
5 5 9 6.59 2.39
5 5 9 7.4 2.42
-5 -5 -10 213.11 9.68
-5 -5 -10 216.55 9.52
5 5 10 201.5 9.33
5 5 10 219.51 9.9
-5 -5 -11 0.73 1.18
-5 -5 -11 0.85 1.27
5 5 11 1.91 2.03
5 5 11 -0.9 2.02
-5 -5 -12 0.95 1.21
5 5 12 1.52 2.11
5 5 13 0.7 2.16
5 5 14 63.61 4.77
5 5 15 0.99 1.59
5 5 15 -0.11 2.44
5 5 16 8.38 2.03
5 5 16 6.23 2.76
5 5 17 2.65 2.72
5 6 -11 4.04 2.44
-5 -6 11 6.9 2.49
5 6 -10 19.7 3.32
-5 -6 10 17.74 2.91
-5 -6 10 26.32 3.15
5 6 -9 1.72 1.96
-5 -6 9 1.12 1.93
5 6 -9 -0.46 2.55
-5 -6 8 18.41 2.87
5 6 -8 22.87 3.33
5 6 -8 27.21 3.44
-5 -6 7 2.87 1.93
5 6 -7 2.36 2.24
5 6 -6 48.85 4.13
-5 -6 6 47.1 3.97
-5 -6 5 4.14 2.06
5 6 -5 2.81 1.95
5 6 -4 30.73 3.5
5 6 -4 31.41 3.19
5 6 -3 -0.73 1.54
5 6 -3 1.54 1.75
5 6 -2 70.24 4.98
5 6 -2 76.81 4.64
5 6 -1 84.28 5.3
5 6 -1 92.12 5.02
-5 -6 0 10.59 2.07
5 6 0 9.54 2.03
5 6 0 11.02 1.86
5 6 0 13.1 2.2
5 6 1 20.15 2.35
5 6 1 21.05 2.37
5 6 1 18.78 2.12
-5 -6 -1 20.63 2.33
5 6 1 21.74 2.49
-5 -6 -1 17.73 2.08
5 6 2 79.2 4.84
5 6 2 78.36 5.07
5 6 2 69.98 4.59
-5 -6 -2 82.17 5.06
5 6 2 75.6 6.22
-5 -6 -2 73.66 4.49
5 6 3 245.95 11.13
5 6 3 249.71 11.04
-5 -6 -3 257.65 11.16
5 6 3 252.48 11.93
-5 -6 -3 269.2 10.5
5 6 4 14.72 2.17
-5 -6 -4 12.69 2.04
-5 -6 -4 15.66 2.11
5 6 4 14.46 3.35
-5 -6 -4 9.48 1.94
5 6 5 30.33 2.71
-5 -6 -5 29.39 2.66
-5 -6 -5 30.06 2.6
5 6 5 32.38 3.68
-5 -6 -5 30.24 2.41
5 6 6 27.92 2.81
-5 -6 -6 29.05 2.75
-5 -6 -6 23.37 2.69
5 6 6 26.35 3.83
-5 -6 -6 24.56 2.77
-5 -6 -7 130.98 6.33
5 6 7 135.67 6.5
-5 -6 -7 126.93 6.47
5 6 7 117.46 6.83
-5 -6 -7 117.19 6.01
-5 -6 -8 3.88 1.44
-5 -6 -8 3.54 1.54
5 6 8 5.68 2.65
-5 -6 -8 2.99 1.98
5 6 8 0.44 1.91
-5 -6 -9 7.13 1.44
-5 -6 -9 6.94 1.55
5 6 9 9.89 2.56
5 6 9 6.52 2.01
-5 -6 -10 7.47 1.7
-5 -6 -10 10.79 1.94
5 6 10 8.49 2.59
5 6 10 11.78 2.73
-5 -6 -11 248.1 10.75
-5 -6 -11 243.87 10.49
5 6 11 226.88 10.44
5 6 11 245.71 10.95
-5 -6 -12 5.79 1.69
-5 -6 -12 6.35 1.64
5 6 12 5.62 2.34
-5 -6 -13 32.55 2.9
5 6 13 34.9 3.54
-5 -6 -14 0.11 1.37
-5 -6 -14 0.19 1.16
5 6 14 1.14 2.2
5 6 15 70.6 4.95
-5 -6 -15 70.84 4.67
5 6 15 77.7 5.41
-5 -6 -16 -0.1 1.35
5 6 16 -0.23 2.43
-5 -6 -17 41.09 3.53
5 6 17 44.14 4.48
5 7 -11 28.41 4.1
-5 -7 11 38.49 3.71
5 7 -10 4.47 2.42
-5 -7 10 4.72 2.42
-5 -7 10 2.09 2.35
5 7 -9 28.64 3.83
-5 -7 9 27.84 3.47
5 7 -9 30.63 3.92
-5 -7 9 40.47 3.39
-5 -7 8 3.04 2.17
5 7 -8 2.11 2.47
-5 -7 7 8.42 2.44
5 7 -7 12.12 2.81
-5 -7 6 2.45 2.06
5 7 -6 3.28 2.26
5 7 -5 71.33 5.5
5 7 -5 77.37 5.2
-5 -7 5 83.91 5.39
5 7 -4 44.55 4
5 7 -4 44.64 3.7
-5 -7 4 33.98 3.48
5 7 -3 12.58 2.53
-5 -7 3 15.37 2.55
5 7 -3 16.89 2.57
5 7 -2 7.92 2.04
5 7 -2 8.02 2.04
5 7 -1 100.4 6.17
5 7 -1 104.93 5.82
5 7 0 3.39 1.67
5 7 0 3.03 1.81
-5 -7 0 0.63 1.51
-5 -7 -1 3.53 1.7
5 7 1 3.16 1.66
5 7 1 4.83 1.51
-5 -7 -1 3.69 1.66
5 7 1 5.54 1.98
-5 -7 -2 5.25 1.52
5 7 2 5.66 1.63
5 7 2 4.48 1.32
-5 -7 -2 4.2 1.54
-5 -7 -3 88.86 5.52
5 7 3 95.97 5.61
5 7 3 94.91 5.32
-5 -7 -3 93.22 4.89
5 7 4 84.02 4.73
-5 -7 -4 80.7 4.61
5 7 4 82.6 5.69
-5 -7 -4 69.92 3.95
-5 -7 -5 5.46 1.51
5 7 5 5.37 1.89
-5 -7 -5 5.09 1.62
5 7 5 9.13 1.85
5 7 5 2.39 2.96
-5 -7 -5 1.95 1.61
-5 -7 -6 12.8 1.78
5 7 6 15.21 1.95
-5 -7 -6 12.28 1.78
5 7 6 16.47 3.2
-5 -7 -6 12.41 1.92
5 7 7 44.72 3.43
-5 -7 -7 37.61 3.3
-5 -7 -7 37.23 3.19
5 7 7 42.39 4.43
-5 -7 -7 34.01 3.24
5 7 8 150.24 6.8
-5 -7 -8 135.74 6.61
-5 -7 -8 138.07 6.46
5 7 8 139.93 7.48
5 7 8 125.6 6.58
-5 -7 -9 1.7 1.23
-5 -7 -9 3.31 1.44
5 7 9 3.02 2.65
5 7 9 2.59 2.05
-5 -7 -9 -0.8 1.94
-5 -7 -10 70.16 4.21
-5 -7 -10 68.9 4.07
5 7 10 61.94 4.79
5 7 10 59.45 4.39
-5 -7 -11 1.26 1.16
-5 -7 -11 2.67 1.36
5 7 11 2.45 2.42
5 7 11 2.03 2.1
-5 -7 -12 11.87 1.77
-5 -7 -12 9.07 1.83
-5 -7 -12 10.68 1.66
5 7 12 11.36 2.41
-5 -7 -13 6.02 1.65
-5 -7 -13 5.74 1.79
-5 -7 -13 5.92 1.6
5 7 13 10.09 2.65
-5 -7 -14 58.5 3.72
5 7 14 53.24 4.34
-5 -7 -15 0.17 1.21
5 7 15 2.35 2.42
-5 -7 -16 31.5 2.89
5 7 16 34.83 3.84
5 8 -10 5 2.57
-5 -8 10 5.7 2.51
-5 -8 10 4.78 2.1
-5 -8 9 4.05 2.38
5 8 -9 6.79 2.78
-5 -8 9 2.98 2.06
-5 -8 8 41.64 4.08
5 8 -8 42.82 4.55
-5 -8 8 43.53 3.45
5 8 -7 -1.12 2.15
-5 -8 7 5.08 2.27
5 8 -7 3.53 2.6
5 8 -6 4.71 2.15
-5 -8 6 5.4 2.35
5 8 -6 8.18 2.62
5 8 -5 1.44 1.92
-5 -8 5 2.68 2.14
5 8 -5 0.96 2.19
5 8 -4 106.38 7.06
5 8 -4 113.78 6.72
-5 -8 4 125.59 6.91
5 8 -3 3.48 2
-5 -8 3 4.83 2.15
5 8 -3 5.31 2.33
5 8 -2 2.04 1.89
-5 -8 2 4.8 2.13
5 8 -2 1.52 1.92
5 8 -1 1.18 1.61
-5 -8 1 3.21 1.97
5 8 -1 1 1.85
-5 -8 1 1.38 1.48
5 8 0 169.08 8.84
5 8 0 214.51 9
-5 -8 0 153.37 7.57
-5 -8 0 194.62 9.06
5 8 1 194.4 9.17
-5 -8 -1 184.96 7.89
-5 -8 -1 193.16 9.15
5 8 2 15.72 2.39
-5 -8 -2 11.02 1.78
-5 -8 -3 14 1.95
5 8 3 16.86 2.15
5 8 3 15.83 1.93
-5 -8 -3 11.86 1.62
-5 -8 -4 63.64 4.35
-5 -8 -4 54.56 3.53
5 8 5 41.63 3.06
-5 -8 -5 39.32 2.91
5 8 5 41.77 3.31
-5 -8 -6 5.59 1.52
5 8 6 3.28 1.47
-5 -8 -6 1.92 1.64
-5 -8 -7 32.6 2.6
5 8 7 32.63 2.7
-5 -8 -8 30.57 2.83
5 8 8 35.55 3.07
-5 -8 -8 27.84 2.74
-5 -8 -8 42.08 3.39
-5 -8 -8 21.97 2.75
-5 -8 -9 34.95 2.75
-5 -8 -9 36.71 2.72
5 8 9 44.86 4.2
5 8 9 35.62 3.1
-5 -8 -9 39.05 3.21
-5 -8 -10 6.13 2.1
-5 -8 -10 2.6 1.4
-5 -8 -10 4.89 1.49
5 8 10 4.24 2.87
5 8 10 10.58 2.44
-5 -8 -11 29.19 2.47
-5 -8 -11 27.89 2.38
5 8 11 26.62 3.59
-5 -8 -11 26.89 2.78
5 8 11 25.66 3.03
-5 -8 -12 20.14 2.43
-5 -8 -12 26.32 2.49
5 8 12 22.9 3.29
-5 -8 -12 25.53 2.87
-5 -8 -13 29.86 2.57
-5 -8 -13 25.15 2.65
5 8 13 29.32 3.28
-5 -8 -14 1.85 1.3
-5 -8 -14 2.74 1.62
5 8 14 2.24 2.45
-5 -8 -15 70.24 4.25
5 8 15 62.64 4.98
5 8 16 3.52 2.53
-5 -9 9 2.33 2.32
5 9 -9 0.14 2.95
-5 -9 9 2.67 1.93
5 9 -8 6.03 2.55
-5 -9 8 7.77 2.64
5 9 -8 4.06 2.83
-5 -9 8 7.59 1.99
-5 -9 7 56.18 4.68
5 9 -7 58.38 5.14
5 9 -7 54.19 5.01
-5 -9 7 48.31 3.57
5 9 -6 2.38 2.15
-5 -9 6 2.32 2.18
5 9 -6 1.89 2.56
-5 -9 6 2.48 1.62
5 9 -5 1.51 1.97
-5 -9 5 0.96 2.13
5 9 -5 -1.97 2.45
5 9 -4 2.87 1.96
-5 -9 4 3.33 2.35
5 9 -4 2.89 2.37
5 9 -3 72.18 5.65
5 9 -3 88.39 5.66
-5 -9 3 89.99 5.7
5 9 -2 1.2 1.76
-5 -9 2 3.61 2.15
-5 -9 2 1.89 1.45
5 9 -2 3.16 2.26
5 9 -1 0.37 1.73
-5 -9 1 2.23 2.01
5 9 -1 1.7 2.11
-5 -9 1 0.7 1.35
5 9 0 5.77 1.88
-5 -9 0 8.16 2.35
-5 -9 0 5.44 1.42
5 9 1 69.77 4.47
-5 -9 -1 37.78 2.73
5 9 2 3.42 1.64
-5 -9 -2 3.04 1.28
5 9 3 4.37 1.72
-5 -9 -3 8.49 2.25
-5 -9 -3 5.39 1.41
-5 -9 -4 4.01 1.38
5 9 4 5.41 1.51
-5 -9 -4 5.39 1.94
-5 -9 -4 1.03 1.33
5 9 4 5.66 2.07
5 9 5 45.72 3.49
-5 -9 -5 45.62 3.44
5 9 5 54.39 4.07
-5 -9 -5 59.87 4.14
-5 -9 -6 17.33 1.99
-5 -9 -6 19.03 2.57
5 9 6 23.03 2.29
5 9 6 17.13 2.59
-5 -9 -7 10.99 1.89
5 9 7 9.79 1.93
-5 -9 -7 15.59 2.51
-5 -9 -7 10.03 1.94
-5 -9 -8 36.29 2.69
5 9 8 37.71 2.84
-5 -9 -8 37.67 3.27
-5 -9 -9 22.19 2.33
-5 -9 -9 27.65 3.02
5 9 9 19.21 2.71
-5 -9 -10 23.31 2.16
-5 -9 -10 26.46 2.72
-5 -9 -11 9.03 1.67
-5 -9 -11 9.34 2.18
5 9 11 5.98 2.36
-5 -9 -12 47.09 3.2
5 9 12 45.69 3.85
-5 -9 -12 51.09 3.69
-5 -9 -13 6.33 1.48
-5 -9 -13 9.13 2.22
5 9 13 9.25 2.48
-5 -9 -14 2.46 1.09
-5 -9 -14 1.7 1.61
5 9 14 3.22 2.19
5 9 15 8.61 2.78
5 10 -8 -0.71 2.29
-5 -10 8 0.26 2.35
5 10 -8 0.29 2.88
5 10 -7 6.87 2.42
-5 -10 7 1.68 2.39
5 10 -7 3.37 2.83
-5 -10 6 41.47 4.19
5 10 -6 42.23 4.46
5 10 -6 37.8 4.42
-5 -10 6 34.26 2.59
5 10 -5 7.39 2.45
-5 -10 5 6.52 2.55
5 10 -5 9.59 2.82
-5 -10 5 5.83 1.51
5 10 -4 2.83 1.96
-5 -10 4 2.27 2.22
5 10 -4 -0.12 2.34
5 10 -3 8.76 2.37
-5 -10 3 8.27 2.47
-5 -10 3 5.78 1.5
5 10 -3 10 2.65
5 10 -2 42.15 3.96
5 10 -2 40 3.86
-5 -10 2 50.98 4.17
5 10 -1 5.33 2.09
-5 -10 1 5.63 2.25
-5 -10 1 0.87 1.19
5 10 0 15.05 2.55
-5 -10 0 17.78 2.83
5 10 1 1.69 1.72
-5 -10 -1 2.71 1.02
5 10 2 50.96 3.68
-5 -10 -2 19.58 1.71
5 10 3 9.43 1.89
-5 -10 -3 9.45 2.28
5 10 3 10.15 2.34
-5 -10 -3 3.11 1.15
5 10 4 19.21 2.41
5 10 4 21.02 3.02
-5 -10 -4 28.38 3.09
-5 -10 -5 13.69 1.95
5 10 5 14.53 1.99
-5 -10 -5 16.23 2.57
5 10 5 19.83 2.79
5 10 6 20.49 2.34
-5 -10 -6 18.84 2.26
5 10 6 24.26 2.98
-5 -10 -6 23.92 2.93
-5 -10 -7 2.92 1.29
5 10 7 1.74 1.35
-5 -10 -7 1.73 1.82
5 10 7 2.75 2.03
-5 -10 -7 0.27 1.47
5 10 8 34.32 3.03
-5 -10 -8 30.46 2.79
5 10 8 39.51 3.76
-5 -10 -8 41.95 3.7
-5 -10 -9 30.43 2.56
-5 -10 -9 36.5 3.36
-5 -10 -10 27.31 3.09
5 10 10 12.69 2.6
-5 -10 -11 1.18 1.78
5 10 11 -0.22 1.9
-5 -10 -12 19.06 2.79
5 10 12 21.92 3.1
-5 -10 -13 25.46 2.82
5 10 13 24.18 3.06
5 10 14 6.55 2.42
5 10 15 1.84 2.34
5 11 -7 4.96 2.45
-5 -11 7 6.11 2.68
5 11 -7 5.98 3.11
5 11 -6 12.1 2.97
-5 -11 6 13.1 3.11
5 11 -6 13.85 3.53
-5 -11 5 34.3 4.07
5 11 -5 33.17 4
5 11 -5 37.13 4.3
5 11 -4 3.39 2.16
-5 -11 4 1.73 2.29
5 11 -4 2.61 2.64
5 11 -3 8.05 2.41
-5 -11 3 7.86 2.66
5 11 -3 8.5 2.91
5 11 -2 4.77 2.21
-5 -11 2 4.93 2.4
-5 -11 1 38.87 3.99
5 11 -1 33.72 3.69
5 11 0 8.49 2.13
-5 -11 0 10.63 2.6
5 11 1 27.68 3.11
5 11 1 25.94 3.48
5 11 2 3.24 1.77
5 11 2 1.6 2.25
5 11 3 32.65 3.14
5 11 3 32.83 3.64
-5 -11 -3 34.32 3.64
5 11 4 1.97 1.44
-5 -11 -4 2.43 1.98
5 11 4 2.97 2.15
5 11 5 48.78 3.78
5 11 5 46.95 4.38
-5 -11 -5 60.26 4.54
5 11 6 6.76 1.7
-5 -11 -6 8.7 2.48
5 11 6 6.28 2.59
5 11 7 26.8 2.73
5 11 7 33.38 3.69
-5 -11 -7 37.45 3.71
5 11 8 3.95 1.44
-5 -11 -8 4.21 2.14
5 11 8 3.46 2.25
-5 -11 -9 33.66 3.6
5 11 9 33.27 3.75
-5 -11 -10 12.19 2.44
5 11 10 7.4 2.48
-5 -11 -11 20.89 2.84
5 11 11 4.88 2.27
-5 -11 -12 1.02 1.91
5 11 12 1.27 1.92
5 12 -6 3.68 2.38
-5 -12 6 3.61 2.66
5 12 -6 1.1 3.09
5 12 -5 13.18 2.93
-5 -12 5 12.53 3.08
5 12 -5 17.32 3.54
5 12 -4 10.4 2.58
-5 -12 4 7.61 2.72
5 12 -4 3.53 2.95
5 12 -3 2.31 2.13
-5 -12 3 1.93 2.32
5 12 -2 18.23 3.08
-5 -12 2 18.28 3.19
5 12 -1 12.43 2.58
-5 -12 1 9.84 2.71
-5 -12 0 16.93 3.08
5 12 0 20.94 2.92
5 12 0 20.64 3.43
5 12 1 0.24 1.64
5 12 1 3.17 2.35
5 12 2 23.48 2.84
5 12 2 22.33 3.35
5 12 3 18.15 2.49
-5 -12 -3 17.91 3.01
5 12 3 20.05 3.11
5 12 4 8.05 1.79
-5 -12 -4 8.68 2.6
5 12 4 7.55 2.6
5 12 5 3.37 1.55
-5 -12 -5 3.52 2.2
5 12 5 8.68 2.37
-5 -12 -6 39.65 3.91
5 12 6 34.83 3.05
5 12 6 35.29 3.97
5 12 7 3 1.49
-5 -12 -7 3.51 2.3
5 12 7 2.47 2.45
-5 -12 -8 8.36 2.44
5 12 8 10.05 2.75
-5 -12 -9 0.66 1.92
5 12 9 5.84 2.33
-5 -12 -10 27.88 3.37
5 12 10 27.54 3.44
-5 -12 -11 5.51 2.15
5 12 11 2.77 2.32
5 12 12 -0.12 2.21
5 13 -4 17.01 3.05
-5 -13 4 11.75 3.08
5 13 -3 1.93 2.17
-5 -13 3 4.6 2.56
5 13 -2 1.23 2.19
-5 -13 2 2.19 2.51
-5 -13 1 37.73 4.07
5 13 -1 32.78 3.81
5 13 -1 25.14 3.9
5 13 0 4.38 2.14
5 13 0 2.73 2.65
5 13 1 8.19 2.19
5 13 1 8.39 2.87
5 13 2 2.17 1.71
-5 -13 -2 3.51 2.35
5 13 2 4.69 2.69
-5 -13 -3 28.3 3.77
5 13 3 32.77 3.24
5 13 3 31.53 3.79
5 13 4 1.36 1.58
-5 -13 -4 1.7 2.21
5 13 4 3.65 2.54
5 13 5 2.06 1.5
-5 -13 -5 4.88 2.42
5 13 5 1.58 2.47
5 13 6 2.47 1.49
-5 -13 -6 2.4 2.24
5 13 6 1.93 2.38
-5 -13 -7 41.91 4.14
5 13 7 38.47 4.08
-5 -13 -8 2.83 2.25
5 13 8 1.71 2.46
-5 -13 -9 0.83 2.2
5 13 9 1.6 2.31
-5 -13 -10 2.87 2.23
5 13 10 4.28 2.49
5 13 11 39.76 4.24
5 14 -2 2.35 2.1
5 14 -1 5.37 2.23
-5 -14 1 6.3 2.76
5 14 -1 8.26 3.05
5 14 0 8.84 2.42
5 14 0 11.94 3.33
5 14 1 15.71 2.57
5 14 1 15.94 3.39
5 14 2 1.63 1.64
-5 -14 -2 2.18 2.2
5 14 2 3.44 2.69
5 14 3 19.8 2.62
-5 -14 -3 18.32 3.23
5 14 3 16.27 3.24
5 14 4 30.16 3.08
-5 -14 -4 31.84 4.02
5 14 4 30.88 4.01
-5 -14 -5 1.1 2.46
5 14 5 0.26 2.6
-5 -14 -6 3.1 2.35
5 14 6 0.51 2.38
-5 -14 -7 1.85 2.46
5 14 7 3.49 2.6
5 14 8 47.38 4.55
5 14 9 0.75 2.52
6 -10 0 1.53 1.68
6 -10 1 5.29 1.9
6 -10 2 7.26 2.17
6 -10 3 26.22 3.36
6 -10 4 1.43 1.85
-6 9 2 2.35 4.26
-6 9 1 0.37 4.41
-6 9 0 13.36 2.61
6 -9 0 15.87 2.57
-6 9 -1 1.91 1.7
6 -9 1 1.62 1.66
-6 9 -2 14.06 4.4
6 -9 2 11.96 2.42
-6 9 -3 15.24 4.52
6 -9 3 11.35 2.51
-6 9 -4 37.88 5.59
6 -9 4 34.59 3.91
-6 9 -5 0.85 3.75
6 -9 5 -0.28 1.71
-6 9 -6 15.23 4.45
6 -9 6 12.1 2.64
-6 9 -7 10.38 4.22
6 -9 7 3.69 2.36
6 -9 8 14.42 2.89
-6 8 5 3.39 4.11
-6 8 4 28.58 5.29
-6 8 3 28.9 5.53
-6 8 2 6.43 1.79
-6 8 2 7.77 4.16
-6 8 1 20.44 3.12
-6 8 1 26.26 5.48
-6 8 0 104.4 6.45
-6 8 -1 46.49 4.56
-6 8 -2 -0.17 4.02
-6 8 -3 20.47 4.69
-6 8 -4 17.95 4.44
6 -8 4 12.85 2.59
-6 8 -5 30.61 5
6 -8 5 24.94 3.35
-6 8 -6 0.63 3.58
6 -8 6 0.57 1.74
-6 8 -7 22.59 4.75
6 -8 7 23.66 3.41
-6 8 -8 1.04 3.84
6 -8 8 4 2.35
-6 8 -9 26.36 4.74
6 -8 9 13.66 3
-6 8 -10 1.86 3.44
6 -8 10 0.8 2.06
-6 7 7 19.72 5.82
-6 7 6 7.28 4.72
-6 7 5 1.11 4.04
-6 7 4 10.44 4.41
-6 7 3 58.07 4.11
-6 7 3 46.48 5.83
-6 7 2 11.09 2.22
-6 7 2 12.7 4.42
-6 7 1 26.13 2.89
-6 7 1 20.72 4.45
-6 7 0 11.79 2.39
-6 7 -1 14.81 2.43
-6 7 -2 10.81 4.09
-6 7 -3 2.5 3.47
-6 7 -4 43.4 5.5
-6 7 -5 37.63 5.02
-6 7 -6 11.24 3.92
6 -7 6 8.62 2.56
-6 7 -7 10.52 3.8
6 -7 7 12.41 2.56
-6 7 -8 55.06 5.82
6 -7 8 45.25 4.61
-6 7 -9 15.26 4.01
6 -7 9 9.66 2.63
-6 7 -10 10.24 3.56
6 -7 10 4.24 2.32
-6 7 -11 0.5 3.25
6 -7 11 3.92 2.1
-6 6 8 -0.92 4.19
-6 6 7 -0.73 4.23
-6 6 6 27.9 5.56
-6 6 5 2.53 4.21
-6 6 4 0.68 1.24
-6 6 4 1.21 3.78
-6 6 3 11.39 2.24
-6 6 3 10.04 4.11
-6 6 2 70.46 4.7
-6 6 2 54.44 5.81
-6 6 1 3.01 1.69
-6 6 1 4.87 3.65
-6 6 0 16.23 2.36
-6 6 -1 54.45 4.54
6 -6 1 41.25 2.16
-6 6 -2 74.04 5.34
-6 6 -2 78.23 6.44
6 -6 2 79.34 3.8
-6 6 -3 4.78 3.54
6 -6 3 5.51 1.56
-6 6 -4 29.13 4.57
6 -6 4 35.72 2.77
-6 6 -5 56.57 5.9
6 -6 5 53.03 3.85
-6 6 -6 5.24 3.55
-6 6 -7 -1.28 3.34
-6 6 -8 29.5 4.26
6 -6 8 24.92 3.34
-6 6 -9 72.23 6.01
6 -6 9 59.13 5.4
-6 6 -10 10.03 3.46
6 -6 10 10.68 2.67
-6 6 -11 0.24 3.18
-6 6 -12 5.89 3.21
-6 5 9 7.84 5.36
-6 5 8 0.73 4.19
-6 5 7 17.71 2.88
-6 5 7 6.55 4.38
-6 5 6 4.49 4.34
-6 5 5 87.65 7.64
-6 5 4 2.4 1.42
-6 5 4 -0.86 3.81
-6 5 3 46.61 3.69
-6 5 3 33.59 5
-6 5 2 25.82 3.19
-6 5 2 23.99 4.63
-6 5 1 92.02 5.58
-6 5 1 70.96 6.42
-6 5 0 1.29 1.6
-6 5 -1 73.05 5.12
6 -5 1 75.9 3.37
-6 5 -2 62.48 5.18
-6 5 -2 64.2 6.13
6 -5 2 75.47 3.84
6 -5 3 107.67 5.06
-6 5 -3 86.27 6.77
-6 5 -4 1.12 3.24
6 -5 4 3.26 1.74
6 -5 5 69.9 4.28
-6 5 -5 63.74 5.7
-6 5 -6 92.77 6.94
-6 5 -7 45.75 4.73
-6 5 -8 -2.42 3.19
-6 5 -9 31.93 4.32
-6 5 -10 62.02 5.64
-6 5 -11 10.52 3.47
-6 5 -12 2.91 2.92
6 -5 12 3.21 2.2
6 -5 13 11.46 2.95
-6 4 9 -0.19 4.11
6 -4 -9 1.91 1.36
6 -4 -8 36.51 3.09
-6 4 8 33.46 3.46
-6 4 7 1.53 2.19
-6 4 7 3.32 4.14
6 -4 -7 -0.27 1.61
6 -4 -6 47.54 3.62
-6 4 6 55.87 4.3
-6 4 5 -1.45 3.56
6 -4 -5 2.36 1.47
6 -4 -4 48.11 3.61
-6 4 4 34.48 4.92
-6 4 3 0.11 1.38
-6 4 3 -0.16 3.61
-6 4 2 115.15 6.38
-6 4 2 90.11 7.36
-6 4 1 28.35 3.15
-6 4 1 15.02 4.21
-6 4 0 73.68 4.96
-6 4 -1 -0.24 1.38
6 -4 1 2.05 1.13
-6 4 -2 105.08 6.42
-6 4 -2 97.1 7.26
6 -4 2 114.35 5.13
6 -4 3 53.1 3.53
-6 4 -3 48.33 5.26
-6 4 -4 40.28 4.53
6 -4 4 40.24 3.04
-6 4 -5 0.13 3.18
6 -4 5 1.99 1.77
-6 4 -6 75.65 5.98
6 -4 6 80.49 4.8
-6 4 -7 66.57 5.85
-6 4 -8 28.43 4.1
-6 4 -9 5.87 3.2
-6 4 -10 13.26 3.55
-6 4 -11 42.07 4.54
6 -4 11 33.4 4.08
-6 4 -12 1.14 2.73
6 -4 12 0.33 1.85
-6 4 -13 12.81 3.28
6 -4 13 12.13 2.89
6 -4 14 15.91 3.09
-6 3 10 4.32 3.89
6 -3 -10 -0.09 1.62
6 -3 -9 44.45 3.52
-6 3 9 4.81 5.07
-6 3 8 0.79 1.67
-6 3 8 1.99 3.89
6 -3 -8 -0.19 1.41
-6 3 7 41.79 3.72
6 -3 -7 39.98 3.35
-6 3 6 1.53 1.94
-6 3 6 -2.06 3.9
6 -3 -6 0.47 1.46
-6 3 5 97.66 5.78
6 -3 -5 90.07 5.19
-6 3 4 4.26 3.54
6 -3 -4 3.41 1.59
6 -3 -3 24.97 2.71
-6 3 3 29.55 2.91
-6 3 3 23.15 4.23
-6 3 2 4.9 1.73
-6 3 2 2.98 3.44
6 -3 -2 4.53 1.72
6 -3 -1 245.25 11.31
-6 3 1 226.01 12.36
-6 3 0 27.58 3.18
6 -3 0 27.62 1.86
6 -3 0 25.1 1.62
-6 3 -1 76.48 5.07
-6 3 -2 0.71 1.37
-6 3 -3 142 7.75
-6 3 -3 140.36 8.43
-6 3 -4 35.06 4.56
-6 3 -5 16.36 3.69
-6 3 -6 14.36 3.72
-6 3 -7 132.57 8.01
-6 3 -8 38.14 4.66
-6 3 -9 -0.7 2.9
-6 3 -10 24.27 3.94
-6 3 -11 97.77 6.42
-6 3 -12 34.23 4.19
6 -3 12 24.38 3.71
-6 3 -13 0.18 2.58
6 -3 13 -0.33 2.01
6 -3 14 21.05 3.46
6 -3 15 6.98 2.65
-6 2 10 0.18 3.88
6 -2 -10 3.96 1.63
-6 2 9 2.55 4.29
6 -2 -9 3.42 1.95
-6 2 8 108.92 6.09
6 -2 -8 110.05 5.88
-6 2 7 -1.1 2
-6 2 7 -0.53 3.73
6 -2 -7 -0.1 1.46
6 -2 -6 16.04 2.28
-6 2 6 19.9 2.68
-6 2 5 0.91 2.03
-6 2 5 1.51 3.74
6 -2 -5 1.07 1.53
-6 2 4 189.95 8.8
6 -2 -4 177.07 8.44
-6 2 3 2.87 1.55
-6 2 3 5.04 3.36
6 -2 -3 3.78 1.69
6 -2 -2 34.34 3.06
-6 2 2 38.47 3.32
-6 2 2 28.92 4.31
-6 2 1 1.05 1.54
6 -2 -1 1.68 1.52
-6 2 1 1.01 3.29
6 -2 -1 1.2 0.83
6 -2 0 164.82 8.2
-6 2 0 171.51 8.6
6 -2 0 162.79 6.61
-6 2 -1 6.46 1.88
6 -2 1 8.01 2.02
-6 2 -2 6.92 1.72
-6 2 -3 9.49 2.07
-6 2 -3 9.54 3.32
-6 2 -4 293.09 13.69
-6 2 -5 15.76 3.69
-6 2 -6 21.38 3.62
-6 2 -7 37.32 4.51
-6 2 -8 209.11 10.55
-6 2 -9 25.65 3.98
-6 2 -10 10 3.14
-6 2 -11 48.02 4.77
-6 2 -12 58.94 4.81
6 -2 13 23.14 3.48
-6 2 -13 19.06 3.3
6 -2 14 1.85 1.96
6 -2 15 34.87 4.33
6 -2 15 29.73 4.19
6 -1 -11 49.56 4.19
-6 1 10 1.64 3.81
6 -1 -10 2.96 1.74
-6 1 9 1.6 3.82
6 -1 -9 6.3 1.94
-6 1 8 10.58 4.6
6 -1 -8 7.92 2.33
-6 1 7 118.95 6.38
6 -1 -7 112.33 6.19
-6 1 6 3.63 1.9
-6 1 6 4.13 3.69
6 -1 -6 2.39 1.57
-6 1 5 28.98 3.06
6 -1 -5 25.25 2.76
-6 1 4 5.83 2.23
-6 1 4 9.37 4.23
6 -1 -4 5.21 1.96
-6 1 3 196.09 9.23
6 -1 -3 191.14 9.09
6 -1 -3 189.75 7.25
-6 1 2 -0.11 1.3
-6 1 2 1.33 1.81
6 -1 -2 1.3 1.46
-6 1 2 0.15 3.24
6 -1 -2 0.16 0.89
-6 1 1 0.11 1.15
6 -1 -1 0.4 1.26
-6 1 1 1.93 3.25
6 -1 -1 0.9 0.88
6 -1 0 2.71 1.52
-6 1 0 1.96 1.51
6 -1 0 1.46 1.08
6 -1 1 331.7 14.29
-6 1 -1 330.35 14.57
-6 1 -2 1.82 1.35
6 -1 2 1.98 1.66
-6 1 -3 13.67 2.13
-6 1 -3 16.96 3.46
-6 1 -4 6.41 1.81
-6 1 -4 10.6 3.48
-6 1 -5 95.79 6.54
-6 1 -6 17.24 3.71
-6 1 -7 4.05 3.07
6 -1 7 3.47 2.42
6 -1 8 32.49 3.67
-6 1 -8 40.7 4.6
6 -1 9 181.51 8.91
-6 1 -9 205.65 10.05
-6 1 -10 9.4 3.2
-6 1 -11 19.14 3.29
-6 1 -12 41.49 4.22
6 -1 13 92.49 6.47
6 -1 14 4.95 2.28
6 -1 15 15.46 3.12
6 -1 16 23.5 3.79
-6 1 -16 22.49 3.23
6 -1 16 18.81 4.14
6 0 -11 21.04 3.17
6 0 -10 38.13 3.63
6 0 -9 7.64 2.13
-6 0 8 1.07 3.58
6 0 -8 1.12 1.46
-6 0 7 5.12 3.96
6 0 -7 4.79 1.88
-6 0 6 156.86 7.63
6 0 -6 150.99 7.52
-6 0 5 1.01 1.66
-6 0 5 2.17 3.35
6 0 -5 1.5 1.47
-6 0 4 18.04 2.66
6 0 -4 21.19 2.61
6 0 -4 17.36 1.76
-6 0 4 11.82 3.97
-6 0 3 0.71 1.7
6 0 -3 2.17 1.53
-6 0 3 3.2 3.67
6 0 -3 2.22 1.17
6 0 -2 153.41 7.75
-6 0 2 157.86 7.84
-6 0 2 159.13 8.13
6 0 -2 152.32 6.35
-6 0 1 0.81 1.42
-6 0 1 0.99 1.68
6 0 -1 0.81 1.51
-6 0 1 1.97 3.27
6 0 -1 2.47 1.06
-6 0 0 13.55 2.17
-6 0 0 12.17 2.25
-6 0 0 9.77 3.41
6 0 0 13.19 2.11
-6 0 -1 -0.46 1.36
-6 0 -1 -0.31 1.7
6 0 1 -0.3 1.49
-6 0 -2 216.92 10.34
-6 0 -3 1.46 1.43
-6 0 -3 6.45 3.41
-6 0 -4 74.42 4.99
-6 0 -4 88.11 6.23
-6 0 -5 15.76 2.51
6 0 5 13.32 3.3
6 0 6 898.35 35.59
-6 0 -6 994.8 36.88
-6 0 -7 5.37 3.21
6 0 7 3.42 2.73
6 0 8 81.87 5.22
-6 0 -8 81.38 6.01
6 0 9 26.04 3.33
-6 0 -9 32.3 4.18
6 0 10 90.25 5.32
-6 0 -10 99.75 6.29
-6 0 -14 38.19 3.68
6 0 14 41.63 4.25
-6 0 -15 1.74 1.84
6 0 15 -0.81 1.95
-6 0 -16 9.52 2.19
6 0 16 8.62 2.56
6 1 -11 2.22 1.93
6 1 -10 14.85 2.7
6 1 -9 31.24 3.43
6 1 -8 3.65 2.08
6 1 -7 3.78 1.67
6 1 -6 32.98 3.45
-6 -1 6 19.38 5.08
-6 -1 5 1.62 1.8
-6 -1 5 2.97 3.54
6 1 -5 1.22 1.54
-6 -1 4 3.36 2.23
-6 -1 4 4.22 3.57
6 1 -4 4.94 1.97
-6 -1 3 29.22 3.05
6 1 -3 27.09 2.89
-6 -1 2 10.93 2.5
-6 -1 2 9.07 3.89
6 1 -2 10.47 2.17
-6 -1 1 222.66 10.29
6 1 -1 218.11 10.2
-6 -1 1 217.81 10.46
-6 -1 1 209.85 11.54
-6 -1 0 2.41 1.62
-6 -1 0 1.67 1.76
-6 -1 0 2.12 3.47
6 1 0 2.66 1.62
-6 -1 -1 193.7 9.33
-6 -1 -1 197.89 9.71
-6 -1 -2 -0.49 1.64
-6 -1 -2 -0.46 1.32
-6 -1 -3 168.47 8.69
-6 -1 -3 176.22 8.83
-6 -1 -3 198.87 10.16
-6 -1 -4 1.66 1.5
-6 -1 -4 4.22 3.33
6 1 4 -0.44 2.79
6 1 4 2.1 1.73
-6 -1 -5 163.34 8.51
6 1 5 158.04 8.29
-6 -1 -6 14.59 3.67
6 1 6 10.15 3
6 1 7 51.22 4.13
-6 -1 -7 67.5 5.24
-6 -1 -8 0.61 2.71
6 1 8 1.83 2.27
6 1 9 73.61 5.01
-6 -1 -9 83.01 5.77
-6 -1 -10 18.2 3.02
6 1 10 20.29 3.06
-6 -1 -11 130.57 6.92
6 1 11 112.8 6.09
-6 -1 -12 1.12 1.8
6 1 12 1.62 2.3
-6 -1 -13 126.06 6.85
6 1 13 114.25 7.22
-6 -1 -14 16.96 2.86
6 1 14 22.31 3.8
6 1 15 26.84 3.49
-6 -1 -15 29.1 3.08
6 1 15 23.2 3.59
6 1 16 1.74 1.9
-6 -1 -16 2.57 1.74
6 1 16 3.08 2.61
6 1 17 48.88 4.74
6 2 -11 2.1 2.18
6 2 -10 2.05 1.78
6 2 -9 40.11 4.11
6 2 -8 47.83 4.17
6 2 -7 1.51 1.88
6 2 -6 32.06 3.35
6 2 -6 37.33 2.97
6 2 -5 16.56 2.63
6 2 -5 17.39 2.39
6 2 -4 160.03 8.44
-6 -2 4 162.06 8.34
6 2 -4 168.52 7.36
-6 -2 3 1.43 1.95
6 2 -3 3.31 1.72
-6 -2 3 4.24 3.56
6 2 -3 2.25 1.61
6 2 -2 150.62 7.69
-6 -2 2 152.24 7.73
6 2 -2 147.86 6.57
-6 -2 1 24.81 3.16
-6 -2 1 20.72 2.95
6 2 -1 25.8 2.42
-6 -2 1 22.45 4.43
-6 -2 0 64.13 4.62
-6 -2 0 69.19 4.74
6 2 0 71.57 3.97
-6 -2 0 73.71 6.01
-6 -2 -1 1.14 1.53
-6 -2 -1 4.32 2.08
6 2 1 3 1.73
-6 -2 -2 70.98 4.72
6 2 2 70.3 4.66
-6 -2 -2 77.91 4.95
-6 -2 -2 65.54 4.16
-6 -2 -3 3.47 1.92
-6 -2 -3 3.85 1.64
6 2 3 4.23 1.7
-6 -2 -3 1.71 3.04
-6 -2 -3 1.56 1.78
6 2 4 162.49 7.98
-6 -2 -4 147.85 7.9
6 2 4 137.1 7.71
6 2 5 2.2 2.63
-6 -2 -5 5.72 3.41
6 2 5 4.34 1.94
-6 -2 -6 177.86 8.89
6 2 6 169.86 8.61
-6 -2 -7 0.3 1.62
-6 -2 -7 1.34 1.33
6 2 7 1.32 2.34
-6 -2 -8 92.32 5.65
6 2 8 97.32 5.55
-6 -2 -9 1.81 1.81
6 2 9 1.5 2.22
-6 -2 -10 178.82 8.94
6 2 10 183.16 8.49
-6 -2 -11 13.26 2.5
6 2 11 14.63 2.83
6 2 11 9.69 2.92
-6 -2 -12 6.07 2.05
6 2 12 5.97 2.48
-6 -2 -13 0.29 1.72
6 2 13 2.66 2.38
-6 -2 -14 75.48 4.95
6 2 14 66.64 5.43
6 2 15 10.49 2.72
-6 -2 -15 10.45 2.31
6 2 15 8.18 3.04
6 2 16 4.29 2.21
-6 -2 -16 4.78 1.75
6 2 16 4.83 2.69
6 2 17 2.1 2.13
6 3 -11 9.53 2.41
6 3 -10 3.25 2.01
6 3 -9 29.88 3.5
6 3 -8 39.22 4.05
6 3 -7 11.21 2.31
6 3 -7 11.29 2.38
6 3 -6 2.96 1.91
6 3 -6 3.17 1.99
6 3 -5 57.26 4.47
6 3 -5 57.7 3.82
6 3 -4 46.38 4.22
6 3 -4 52.65 3.76
6 3 -3 38.69 3.58
6 3 -3 43.29 3.1
-6 -3 2 8.15 2.42
6 3 -2 6.87 1.82
-6 -3 1 112.94 6.52
6 3 -1 120.2 5.74
-6 -3 0 17.79 2.93
-6 -3 0 18.83 2.76
6 3 0 24.12 2.5
-6 -3 -1 173.18 8.58
6 3 1 163.39 8.46
-6 -3 -1 177.7 8.8
6 3 1 176.39 7.81
6 3 2 2.59 1.64
-6 -3 -2 2.13 1.4
-6 -3 -2 1.92 1.8
-6 -3 -2 2.37 1.9
6 3 3 344.41 14.15
-6 -3 -3 309.97 13.29
6 3 4 9.83 2.08
6 3 4 2.38 2.64
-6 -3 -4 4.79 1.99
6 3 5 109.42 6.11
-6 -3 -5 105.83 6.12
6 3 5 104.38 6.17
-6 -3 -6 2.54 1.98
-6 -3 -6 0.86 1.4
6 3 6 2.83 2.61
6 3 6 2.98 1.8
-6 -3 -7 228.59 10.35
-6 -3 -7 202.43 10.1
6 3 7 217.8 10.04
-6 -3 -8 1.12 1.72
-6 -3 -8 -0.22 1.2
6 3 8 -0.92 2.37
-6 -3 -9 39.41 3.44
-6 -3 -9 36.08 3.22
6 3 9 32.98 3.19
-6 -3 -10 1.53 1.87
6 3 10 0.55 2.13
-6 -3 -11 193.9 8.96
6 3 11 168.13 8.08
6 3 11 174.03 9.1
-6 -3 -12 0.29 1.74
6 3 12 -0.44 2.37
-6 -3 -13 21.84 2.75
6 3 13 21.87 3.31
-6 -3 -14 2.51 1.78
6 3 14 2.54 2.51
6 3 15 76.04 5.61
6 3 15 72.79 5.68
6 3 16 3.9 2.2
6 3 16 3.03 2.76
6 3 17 1.43 2.08
6 4 -10 3.14 2.07
-6 -4 9 9.45 2.61
6 4 -9 14.5 3.02
6 4 -8 3.4 2.09
6 4 -7 36.06 4.02
6 4 -7 42.65 3.84
6 4 -6 0.83 1.78
6 4 -6 2.87 1.96
6 4 -5 12.64 2.65
6 4 -5 12.8 2.47
6 4 -4 35.99 3.6
6 4 -4 36.77 3.07
6 4 -3 45.67 3.52
6 4 -2 3.11 1.58
6 4 -1 13.63 2.27
6 4 0 85.52 5.46
6 4 0 94.07 5.02
-6 -4 -1 20.81 2.85
-6 -4 -1 16.6 2.67
6 4 1 21.47 2.75
6 4 1 25.56 2.65
6 4 2 0.85 1.47
-6 -4 -2 2.46 1.7
6 4 2 1.46 1.52
-6 -4 -2 0.67 1.59
6 4 3 12.33 2.36
-6 -4 -3 9.91 2.38
6 4 4 197.26 9.2
-6 -4 -4 183.07 8.42
-6 -4 -5 3.95 1.61
-6 -4 -5 3.59 1.92
6 4 5 5.85 1.9
6 4 5 3.18 2.61
-6 -4 -5 4.86 1.95
-6 -4 -6 9.68 2.04
-6 -4 -6 12.02 1.91
6 4 6 10.71 2.74
6 4 6 11.18 1.96
-6 -4 -7 2.14 1.81
-6 -4 -7 1.82 1.39
6 4 7 1.51 2.44
6 4 7 2.26 1.75
-6 -4 -8 145.45 7.4
-6 -4 -8 133.87 7.2
6 4 8 130.02 6.96
-6 -4 -9 1.3 1.34
-6 -4 -9 1.01 1.71
6 4 9 0.78 2.31
-6 -4 -10 0.88 1.24
-6 -4 -10 2.4 1.74
6 4 10 2.48 2.19
-6 -4 -11 1.13 1.32
-6 -4 -11 1.94 1.83
6 4 11 0.78 2.12
6 4 11 3.64 2.4
-6 -4 -12 155.49 7.8
6 4 12 144.91 8.06
6 4 13 1.91 2.4
6 4 14 2.62 2.46
6 4 15 2.74 2.68
6 4 16 65.9 5.15
6 4 16 59.84 5.39
6 4 17 5.96 2.39
6 5 -10 29.51 3.88
6 5 -9 5.16 2.29
-6 -5 9 4.44 2.28
6 5 -8 12.01 2.74
-6 -5 8 8.1 2.43
6 5 -8 9.63 2.81
6 5 -7 19.74 3.06
6 5 -7 18.43 2.94
6 5 -6 33.79 3.8
6 5 -6 27.85 3.46
6 5 -5 0.25 1.89
6 5 -4 45.91 3.81
6 5 -3 86 5.04
6 5 -2 38.28 3.76
6 5 -2 40.17 3.36
6 5 -1 4.61 1.79
6 5 -1 6.94 1.9
6 5 0 36.4 3.67
6 5 0 39.68 3.4
6 5 1 114.74 6.38
-6 -5 -1 96.46 5.69
6 5 2 22.35 2.79
6 5 2 22.9 2.71
6 5 3 1.16 1.47
-6 -5 -3 1.78 1.36
-6 -5 -3 0.97 1.71
6 5 4 24.34 2.96
-6 -5 -4 20.67 2.86
-6 -5 -4 17.96 2.84
6 5 5 219.61 9.94
-6 -5 -5 211.52 10.02
-6 -5 -5 199.96 9.12
6 5 6 9.34 2.12
-6 -5 -6 6.93 1.94
-6 -5 -6 5.74 1.95
-6 -5 -7 3.25 1.43
6 5 7 1.81 2.3
6 5 7 2.67 1.6
-6 -5 -8 5.26 1.74
6 5 8 6.22 2.76
-6 -5 -9 158.18 8.07
6 5 9 157.87 7.96
-6 -5 -10 0.64 1.42
6 5 10 2.2 2.38
-6 -5 -11 13.28 2.14
6 5 11 13.48 2.62
6 5 11 12.59 2.73
-6 -5 -12 0.44 1.32
6 5 12 1.24 2.39
-6 -5 -13 87.14 5.57
6 5 13 92.69 5.99
-6 -5 -14 0.47 1.42
6 5 14 0.58 2.61
-6 -5 -15 21.77 2.79
6 5 15 23.23 3.61
6 5 16 0.38 1.82
-6 -5 -16 0.61 1.61
6 5 16 5.35 2.83
-6 -5 -17 76.63 5.47
6 6 -10 2.27 2.3
6 6 -9 18.17 3.28
-6 -6 9 14.41 2.85
6 6 -8 0.49 1.97
-6 -6 8 2.63 2.11
6 6 -8 0.78 2.39
6 6 -7 46 4.53
6 6 -7 40.27 4.18
-6 -6 7 39.59 4.04
-6 -6 6 8.11 2.49
6 6 -6 9.72 2.66
6 6 -5 37.3 3.6
6 6 -4 2.01 1.93
6 6 -3 63.33 5.12
6 6 -3 67.93 4.66
6 6 -2 45.08 4.05
6 6 -2 52.09 3.77
6 6 -1 31.86 3.49
6 6 -1 32.88 3.25
6 6 0 0.94 1.56
6 6 0 1.15 1.77
6 6 1 59.42 4.59
-6 -6 -1 50.92 3.9
6 6 2 141.26 7.61
6 6 2 162.87 7.52
-6 -6 -2 139.5 6.86
6 6 3 24.83 2.9
6 6 3 26.52 2.94
6 6 4 5.27 1.72
-6 -6 -4 3.81 1.47
-6 -6 -4 4.27 1.76
6 6 5 17 2.52
-6 -6 -5 14.89 2.46
-6 -6 -5 12.14 2.42
6 6 6 59.54 4.09
-6 -6 -6 54.16 4.07
-6 -6 -6 54.64 3.55
-6 -6 -7 1.73 1.33
6 6 7 2.14 1.62
-6 -6 -8 17.69 2.29
6 6 8 17.07 2.44
-6 -6 -9 8.1 1.94
6 6 9 13.3 3
-6 -6 -10 126.03 6.88
6 6 10 128.74 7.02
-6 -6 -11 2.1 1.54
6 6 11 2.74 2.34
-6 -6 -12 52.12 3.93
6 6 12 48.18 4.27
-6 -6 -13 6.23 1.84
6 6 13 5.76 2.82
-6 -6 -14 64.19 4.6
6 6 14 68.15 5.23
-6 -6 -15 0.78 1.4
6 6 15 -0.24 2.49
-6 -6 -16 38.06 3.52
6 6 16 32.85 4.09
6 7 -9 12.22 2.92
-6 -7 9 6.72 2.48
6 7 -9 9.29 3.11
6 7 -8 10.75 2.87
-6 -7 8 8.42 2.54
6 7 -8 8.92 2.91
-6 -7 7 6.1 2.44
6 7 -7 5.46 2.54
6 7 -6 50.81 4.48
-6 -7 6 46.92 4.41
-6 -7 5 9.84 2.6
6 7 -5 6.49 2.5
-6 -7 4 18.57 3.02
6 7 -4 22.81 3.29
6 7 -4 27.02 3.31
6 7 -3 -0.28 1.85
6 7 -3 1.15 1.96
6 7 -2 47.63 4.35
6 7 -2 53.38 4.17
6 7 -1 6.22 2.1
6 7 -1 7.01 2.26
6 7 0 12.7 2.44
6 7 0 14.94 2.61
-6 -7 0 11.58 2.14
6 7 1 3.49 1.73
-6 -7 -1 2.11 1.68
6 7 1 3.26 1.93
6 7 2 31.31 3.25
-6 -7 -2 23.76 2.73
6 7 3 26.72 2.83
6 7 3 29.65 3.06
-6 -7 -3 24.17 2.54
6 7 4 2.01 1.63
6 7 4 3.81 2.05
-6 -7 -4 0.29 1.82
6 7 5 24 2.65
-6 -7 -5 24.98 2.66
-6 -7 -5 20.62 2.35
-6 -7 -6 25.53 3.07
-6 -7 -6 24.4 2.89
6 7 7 56.79 3.99
-6 -7 -7 52.33 4
6 7 8 2.79 1.79
-6 -7 -8 3.19 1.5
-6 -7 -9 55.07 4.04
-6 -7 -10 11.94 2.16
-6 -7 -11 28.36 2.9
6 7 11 27.3 3.3
-6 -7 -12 3.35 1.53
6 7 12 1.66 2.38
-6 -7 -13 9.72 1.93
6 7 13 10.51 2.71
-6 -7 -14 1.75 1.37
6 7 14 1.43 2.49
-6 -7 -15 29.45 2.99
6 7 15 30.12 3.66
-6 -7 -16 0.31 1.42
6 7 16 -0.12 2.77
-6 -8 8 1 2.28
6 8 -8 0.91 2.85
-6 -8 7 3.78 2.34
6 8 -7 4.65 2.76
6 8 -6 1.18 2.16
-6 -8 6 3.36 2.3
6 8 -6 1.83 2.52
6 8 -5 55.93 5.01
6 8 -5 53.46 4.57
-6 -8 5 45.5 4.5
6 8 -4 2.46 2.16
-6 -8 4 2.21 2.35
6 8 -4 2.62 2.35
6 8 -3 2.79 2.03
-6 -8 3 4.31 2.32
6 8 -3 4.45 2.29
6 8 -2 4.2 1.96
-6 -8 2 4.49 2.14
6 8 -2 3.92 2.28
6 8 -1 44.98 4.07
6 8 -1 46.26 3.91
6 8 0 21.02 2.82
6 8 0 28.58 3.13
-6 -8 0 22.03 2.43
6 8 1 7.71 2.22
6 8 1 9.17 2.48
-6 -8 -1 4.76 1.91
6 8 2 63.98 4.55
6 8 2 70.77 4.66
6 8 3 61.52 4.62
-6 -8 -3 49.44 3.89
6 8 4 23.25 2.63
-6 -8 -4 19.38 2.24
6 8 5 4.89 1.8
-6 -8 -5 5.75 1.87
6 8 6 18.75 2.37
-6 -8 -6 12.29 2.16
6 8 7 32.21 3.19
-6 -8 -7 28.24 3.08
-6 -8 -7 20.96 2.85
6 8 8 38.74 3.3
-6 -8 -8 42.27 3.37
-6 -8 -9 3.39 1.61
-6 -8 -10 57.56 4.13
-6 -8 -11 32.13 3.23
-6 -8 -12 65.21 4.28
-6 -8 -12 58.12 4.23
-6 -8 -13 2.39 1.58
-6 -8 -13 0.87 1.86
6 8 13 0.59 2.26
-6 -8 -14 57.95 4.44
6 8 14 62.22 5.16
-6 -8 -15 3.23 1.77
6 8 15 4.7 2.6
-6 -9 8 19.93 3.48
6 9 -8 33.28 4.29
6 9 -7 7.49 2.71
-6 -9 7 6.23 2.55
6 9 -7 3.25 2.85
6 9 -6 0.18 2.1
-6 -9 6 0.13 2.27
6 9 -6 1.31 2.74
6 9 -5 3.86 2.28
-6 -9 5 3.89 2.4
6 9 -5 1.47 2.52
6 9 -4 44.75 4.6
6 9 -4 41.26 4.33
-6 -9 4 50.56 4.55
6 9 -3 0.15 1.92
-6 -9 3 -0.13 2.18
6 9 -3 0.7 2.42
6 9 -2 2.75 1.96
-6 -9 2 2.03 2.23
6 9 -2 0.34 2.27
-6 -9 2 1.2 1.64
6 9 -1 3.04 1.92
-6 -9 1 5.94 2.24
-6 -9 1 1.37 1.72
6 9 -1 2.5 2.31
6 9 0 42.61 3.98
6 9 0 46.99 4.08
-6 -9 0 44.87 4.05
6 9 1 2.48 1.77
-6 -9 -1 1.19 2.07
6 9 1 2.21 2.22
-6 -9 -1 1.9 1.67
6 9 2 18.09 2.71
6 9 2 20.91 3.04
-6 -9 -2 12.73 2.17
6 9 3 7.2 1.98
-6 -9 -3 1.61 1.64
6 9 4 50.39 3.92
-6 -9 -4 55.97 4.26
6 9 5 24.09 2.6
-6 -9 -5 9.87 2
6 9 6 18.47 2.47
-6 -9 -6 11.94 2.2
6 9 7 51.53 3.63
-6 -9 -7 55.85 4.16
6 9 8 51.3 4.16
-6 -9 -8 56.7 4.61
-6 -9 -9 7.38 2.26
-6 -9 -10 2.81 1.55
-6 -9 -10 7.29 2.41
-6 -9 -11 29.14 2.82
-6 -9 -11 31.19 3.23
-6 -9 -12 3.35 1.48
-6 -9 -12 7.13 2.26
6 9 12 6.26 2.32
-6 -9 -13 1.42 1.23
-6 -9 -13 0.18 1.96
6 9 13 1.8 2.13
-6 -9 -14 3.51 1.47
-6 -9 -14 2.17 1.93
6 9 14 4.4 2.57
6 9 15 21.83 3.36
-6 -10 7 19.57 3.49
6 10 -7 24.85 3.94
6 10 -6 6.35 2.66
-6 -10 6 5.81 2.58
6 10 -6 5.86 3.24
6 10 -5 2.79 2.47
-6 -10 5 1.09 2.26
6 10 -5 -0.13 2.45
6 10 -4 11.77 2.87
-6 -10 4 11.51 2.91
6 10 -4 12.33 3.08
6 10 -3 25.38 3.6
6 10 -3 30.94 3.91
-6 -10 3 30.22 3.62
6 10 -2 3.74 2.03
-6 -10 2 2.49 2.22
6 10 -2 0.85 2.32
6 10 -1 12.83 2.66
-6 -10 1 12.41 2.8
6 10 -1 13.72 3.06
6 10 0 4.56 2.12
-6 -10 0 8.46 2.55
6 10 0 6.28 2.55
6 10 1 55.88 4.43
6 10 1 72.2 4.99
-6 -10 -1 68.75 5.05
6 10 2 10.05 2.18
-6 -10 -2 3.12 1.47
6 10 3 10.28 2.12
-6 -10 -3 9.41 2.82
-6 -10 -3 6.64 1.61
6 10 4 4.99 1.85
-6 -10 -4 7.52 2.51
-6 -10 -4 0.56 1.53
6 10 5 36.03 3.38
-6 -10 -5 43.37 3.97
6 10 6 2.7 1.57
-6 -10 -6 2.37 2.13
6 10 6 4.02 2.21
-6 -10 -6 0.29 1.55
6 10 7 12.68 2.27
-6 -10 -7 16.59 2.91
6 10 7 17.85 2.91
6 10 8 1.89 1.55
-6 -10 -8 2.41 2.11
6 10 8 0.11 2.18
-6 -10 -8 -0.63 1.92
6 10 9 15.1 2.39
-6 -10 -9 19.13 3.04
-6 -10 -10 12.81 2.53
-6 -10 -11 7.88 2.36
-6 -10 -12 11.38 2.5
-6 -10 -13 9.05 2.37
6 10 13 5.46 2.26
6 10 14 0.09 2.31
6 11 -5 3.04 2.26
-6 -11 5 1.57 2.51
6 11 -5 0.14 2.86
6 11 -4 10.4 2.87
-6 -11 4 14.26 3.06
6 11 -4 13.45 3.14
6 11 -3 3.89 2.26
-6 -11 3 2.68 2.6
6 11 -3 4.89 2.74
6 11 -2 17.63 3.28
-6 -11 2 25.38 3.54
6 11 -2 27.5 3.83
6 11 -1 1.91 2.05
-6 -11 1 2.89 2.44
6 11 -1 3.11 2.55
6 11 0 25.33 3.34
6 11 0 23.72 3.59
-6 -11 0 35.39 3.91
6 11 1 2.36 2.01
6 11 2 31.57 3.45
6 11 3 2.69 1.65
-6 -11 -3 3.33 2.07
6 11 4 27.75 3.01
-6 -11 -4 29.64 3.64
6 11 5 3.71 1.77
-6 -11 -5 3.99 2.25
6 11 5 8.13 2.59
6 11 6 23.34 2.74
6 11 6 24.27 3.55
-6 -11 -6 25.28 3.43
6 11 7 2.88 1.57
-6 -11 -7 4.1 2.25
6 11 7 4.16 2.46
6 11 8 26.92 2.99
6 11 8 30.75 3.69
-6 -11 -8 28.53 3.57
6 11 9 27.74 2.8
6 11 9 27.06 3.57
-6 -11 -9 29.13 3.46
-6 -11 -10 14.34 2.93
6 11 10 13.36 3.03
-6 -11 -11 1.97 2.09
-6 -11 -12 13.15 2.86
-6 -11 -13 11.44 2.58
6 12 -4 0.35 2.06
-6 -12 4 0.45 2.56
6 12 -4 3.1 2.96
6 12 -3 13.48 2.85
-6 -12 3 12.9 3.18
6 12 -3 11.59 3.18
6 12 -2 30.31 3.81
-6 -12 2 31.26 3.91
6 12 -2 36.34 4.38
6 12 -1 5.28 2.29
-6 -12 1 5.48 2.57
6 12 -1 7.16 3.02
6 12 0 3.28 2.06
-6 -12 0 3.29 2.49
6 12 1 15.27 2.77
6 12 2 7.74 2.28
6 12 3 5.24 1.91
-6 -12 -3 7.31 2.52
6 12 4 0.11 1.72
-6 -12 -4 0.93 2.3
6 12 4 0.75 2.31
6 12 5 28.93 3.15
6 12 5 29.71 3.75
-6 -12 -5 35.36 3.82
6 12 6 4.18 1.69
-6 -12 -6 3.37 2.41
6 12 6 4.87 2.65
6 12 7 3.13 1.64
-6 -12 -7 4.09 2.44
6 12 7 5.49 2.6
6 12 8 2.53 1.54
-6 -12 -8 1.01 2.32
6 12 8 3.05 2.53
6 12 9 32.32 3.91
-6 -12 -9 30.27 3.83
-6 -12 -10 1.07 2.2
6 12 10 0.5 2.28
-6 -12 -11 1.95 2.1
6 12 11 0.13 2.26
-6 -12 -12 2.29 2.17
6 13 -2 6.47 2.45
6 13 -1 3.09 2.23
-6 -13 1 4.36 2.54
6 13 0 7.4 2.46
-6 -13 0 8.45 2.82
6 13 1 6.57 2.21
6 13 2 24.29 3.27
6 13 2 26.03 3.86
6 13 3 1.33 1.88
-6 -13 -3 4.57 2.63
6 13 3 1.63 2.79
6 13 4 3.69 1.89
-6 -13 -4 3.81 2.52
6 13 4 5.91 2.73
6 13 5 1.28 1.67
-6 -13 -5 5 2.59
6 13 5 4.07 2.6
-6 -13 -6 26.46 3.65
6 13 6 20.82 2.66
6 13 6 25.49 3.78
-6 -13 -7 2.94 2.47
6 13 7 3.82 2.53
-6 -13 -8 1.71 2.25
6 13 8 0.79 2.35
-6 -13 -9 4.76 2.51
6 13 9 5.8 2.89
-6 -13 -10 21.18 3.24
6 14 2 6.67 2.08
-6 -14 -3 6.09 2.91
6 14 3 9.27 2.32
-6 -14 -4 3.96 2.47
6 14 4 5.07 1.93
-6 -14 -5 4.62 2.5
-6 -14 -6 4.54 2.64
-6 -14 -7 32.42 3.99
-7 8 0 16.85 3.04
-7 8 -1 0.7 1.66
-7 8 -2 23.57 3.44
-7 8 -2 16.05 5.01
-7 8 -3 27.79 3.49
-7 8 -3 16.82 4.88
-7 8 -4 21.57 4.83
-7 8 -5 -0.53 3.85
7 -8 5 0.15 1.73
7 -8 6 15.72 3.12
-7 7 2 -0.6 3.98
-7 7 1 7.86 2.23
-7 7 1 4.26 4.49
-7 7 0 22.12 3.01
-7 7 -1 5.65 2.26
-7 7 -2 3.35 1.93
-7 7 -2 6.53 4.3
-7 7 -3 30.08 3.81
-7 7 -3 28.74 5.48
-7 7 -4 26.01 4.98
-7 7 -5 7.88 4.09
-7 7 -6 8.05 4.13
-7 7 -7 36.53 5.48
7 -7 7 31.77 4.02
-7 7 -8 10.21 4.07
7 -7 8 7.83 2.5
-7 6 4 4.09 4.35
-7 6 3 56.51 4.34
-7 6 3 32.86 5.85
-7 6 2 3.05 1.73
-7 6 2 5.08 4.2
-7 6 1 14.28 2.56
-7 6 1 12.41 4.39
-7 6 0 28.18 3.67
-7 6 -1 70.41 5.34
-7 6 -2 4.17 2.11
-7 6 -2 4.78 4.1
-7 6 -3 14.19 2.57
-7 6 -3 12.38 4.35
-7 6 -4 30.61 3.93
-7 6 -4 33.36 5.37
-7 6 -5 16.32 4.63
-7 6 -6 0.66 3.75
-7 6 -7 2.12 3.99
-7 6 -8 33.1 5.47
-7 6 -9 4.55 3.91
7 -6 9 3.54 2.3
-7 6 -10 -1.81 4.07
7 -6 10 1.2 2
-7 5 6 45.54 4.22
-7 5 6 10.37 5.49
-7 5 5 0.65 2.26
-7 5 5 2.15 4.05
-7 5 4 11.14 4.68
-7 5 3 13.24 2.57
-7 5 3 4.07 4.26
-7 5 2 40.94 3.75
-7 5 2 26.5 5.05
-7 5 1 0.96 1.69
-7 5 1 0.73 3.85
-7 5 0 50.8 4.44
-7 5 -1 27.66 3.6
-7 5 -2 44.24 4.11
-7 5 -2 43.04 5.46
-7 5 -3 1.46 1.52
-7 5 -3 -0.17 3.78
-7 5 -4 29.28 3.55
-7 5 -4 33.55 5.14
-7 5 -5 39.73 5.54
-7 5 -6 34.79 4.93
-7 5 -7 9.15 3.96
-7 5 -8 41.42 5.41
-7 5 -9 51.45 5.88
-7 5 -10 14.98 3.83
7 -5 10 11.47 2.89
-7 5 -11 5.28 3.55
-7 5 -12 11.69 3.98
7 -4 -7 25.68 2.98
-7 4 7 25.44 3.45
-7 4 6 1.33 2.22
-7 4 6 -1.01 4.22
7 -4 -6 3.74 1.79
-7 4 5 43.84 4.1
-7 4 5 20.43 5.41
-7 4 4 4.09 2.49
-7 4 4 1.88 4
-7 4 3 29.19 3.26
-7 4 3 16.29 4.53
-7 4 2 5.25 2.04
-7 4 2 4.42 3.84
-7 4 1 28.06 3.17
-7 4 1 14.59 4.18
-7 4 0 0.69 1.73
-7 4 -1 45.1 3.96
7 -4 1 32.93 1.82
-7 4 -2 16.1 2.88
-7 4 -2 14.71 4.37
-7 4 -3 8.58 2.16
-7 4 -3 14.66 4.07
-7 4 -4 3.65 1.85
-7 4 -4 4.09 3.76
7 -4 4 6.78 1.86
-7 4 -5 53.49 5.84
7 -4 5 61.12 3.94
-7 4 -6 33.19 4.91
-7 4 -7 -1.21 3.76
-7 4 -8 12.82 4.01
-7 4 -9 63.19 5.85
-7 4 -10 46.52 5.35
-7 4 -11 4.01 3.36
-7 4 -12 8.57 3.74
7 -4 12 5.32 2.32
-7 3 7 0.71 2.32
-7 3 7 0.61 4.4
7 -3 -7 0.21 1.64
7 -3 -6 59.49 4.33
-7 3 6 50.39 4.59
-7 3 5 0.12 1.98
-7 3 5 2.96 4.01
7 -3 -5 1.95 1.59
7 -3 -4 52.56 4.1
-7 3 4 53.64 4.46
-7 3 3 1.15 1.51
-7 3 3 -0.25 1.96
-7 3 3 0.54 3.87
7 -3 -3 0.44 1.53
7 -3 -2 73.51 4.96
-7 3 2 74.55 5.29
-7 3 2 59.44 6.38
-7 3 1 5.91 2.06
-7 3 1 7.11 4.11
7 -3 0 26.39 1.26
7 -3 0 24.33 1.18
-7 3 -1 4.45 1.97
7 -3 1 2.63 1.09
7 -3 1 4.73 1.34
-7 3 -2 212.47 10.25
-7 3 -2 163.92 10.54
-7 3 -3 25.65 3.4
-7 3 -3 24.26 4.66
-7 3 -4 9.6 2.15
-7 3 -4 9.44 3.85
-7 3 -5 15.25 2.77
-7 3 -5 10.13 3.95
-7 3 -6 93.43 7
-7 3 -7 33.58 4.98
-7 3 -8 -0.73 3.56
-7 3 -9 13.12 4.12
-7 3 -10 51.1 5.35
-7 3 -11 32.88 4.7
-7 3 -12 14.02 3.58
7 -3 13 11.81 2.99
-7 2 8 -1.02 4.54
7 -2 -8 1.01 1.81
-7 2 7 8.6 2.44
-7 2 7 2.23 4.4
7 -2 -7 7.72 2.04
-7 2 6 3.47 2.42
7 -2 -6 1.23 1.73
7 -2 -5 78.29 5.07
-7 2 5 81.97 5.46
-7 2 4 1.42 1.88
-7 2 4 0.76 3.75
7 -2 -4 -0.67 1.6
-7 2 3 1.91 1.95
-7 2 3 3.18 3.95
7 -2 -3 -0.91 1.59
-7 2 2 0.66 1.49
-7 2 2 -0.61 2.01
-7 2 2 1.27 3.86
7 -2 -2 0.34 1.63
7 -2 -1 157.5 7.45
-7 2 1 174.45 8.16
-7 2 1 124.81 8.78
7 -2 -1 114.08 4.56
7 -2 0 1.3 1.75
-7 2 0 2.38 1.65
7 -2 0 2.03 0.99
-7 2 -1 4.44 1.74
-7 2 -2 5.31 2.09
-7 2 -2 3.92 3.97
-7 2 -3 115.61 6.91
-7 2 -3 102.03 7.65
-7 2 -4 9.16 2.37
-7 2 -4 10.76 4.11
-7 2 -5 5.34 1.83
-7 2 -5 4.5 3.64
-7 2 -6 19.76 4.49
-7 2 -7 323.3 15.37
-7 2 -8 35.46 5.02
-7 2 -9 9.7 3.78
-7 2 -10 21.03 4.25
-7 2 -11 48.08 5.19
-7 2 -12 10.02 3.52
-7 2 -13 5.89 3.09
7 -2 13 7.58 2.55
7 -2 14 20.74 3.8
7 -1 -8 52.45 4.13
-7 1 8 -0.6 5.54
-7 1 7 1.84 2.15
-7 1 7 -1.8 4.21
7 -1 -7 1.65 1.87
-7 1 6 1.3 1.93
-7 1 6 -0.78 4
7 -1 -6 0.12 1.68
-7 1 5 3.71 2.46
-7 1 5 5.85 4.53
7 -1 -5 0.58 1.79
7 -1 -4 22.45 2.85
-7 1 4 21.11 3.08
-7 1 3 5.36 2.18
7 -1 -3 4.76 2
-7 1 3 1.12 3.8
-7 1 2 11.24 2.25
-7 1 2 11.78 2.57
7 -1 -2 10.03 2.1
-7 1 2 9.27 4.22
7 -1 -2 9.45 1.15
-7 1 1 0.27 1.65
-7 1 1 0.24 2.11
7 -1 -1 1.63 1.76
-7 1 1 0.54 4.09
7 -1 -1 1.45 1.09
7 -1 0 178.38 9.27
-7 1 0 186.21 9.53
-7 1 0 190.66 9.83
-7 1 -1 2.06 1.76
7 -1 1 3.44 1.92
-7 1 -2 0.69 1.5
7 -1 2 0.74 1.6
-7 1 -3 7.75 2.17
-7 1 -3 6.06 4.11
-7 1 -4 205.96 10.57
-7 1 -4 220.97 11.75
-7 1 -5 4.24 1.88
-7 1 -5 5.03 3.72
-7 1 -6 27.67 3.31
-7 1 -6 41.04 5.06
-7 1 -7 28.88 4.69
-7 1 -8 35.68 4.77
-7 1 -9 5.73 3.58
-7 1 -10 24.3 4.22
-7 1 -11 26.06 4.45
-7 1 -12 47.38 4.85
7 -1 14 7.58 2.58
-7 1 -15 28.46 3.77
7 -1 15 24.95 4.08
7 0 -9 3.84 1.89
7 0 -8 10.15 2.51
7 0 -7 49.39 4.2
-7 0 7 8.87 5.34
-7 0 6 2.23 2.14
-7 0 6 -1.95 4.37
7 0 -6 0.74 1.67
-7 0 5 1.68 2.02
-7 0 5 1.35 3.91
7 0 -5 1.82 1.7
-7 0 4 1.19 2
-7 0 4 1.32 3.74
7 0 -4 0.24 1.53
-7 0 3 287.17 12.58
7 0 -3 267.63 12.27
7 0 -3 266.52 10.27
-7 0 2 2.5 2.14
7 0 -2 1.31 1.71
-7 0 2 3.7 3.85
7 0 -2 1.95 1.15
-7 0 1 16.3 2.67
-7 0 1 18.86 2.72
-7 0 1 18.14 4.44
7 0 -1 15.32 2.43
-7 0 0 1.09 1.64
-7 0 0 2.45 1.92
7 0 0 1.77 1.67
7 0 1 193.34 9.99
-7 0 -1 195.16 10.07
-7 0 -1 214.03 10.62
7 0 1 211.7 8.68
-7 0 -2 1.09 1.69
-7 0 -2 1.9 1.95
7 0 2 2.05 1.85
-7 0 -3 30.3 3.43
-7 0 -3 28.02 3.21
-7 0 -3 33.16 4.88
-7 0 -4 3.34 1.64
-7 0 -4 4.46 3.9
-7 0 -5 135.53 7.81
-7 0 -5 146.79 9.02
-7 0 -6 -0.27 1.53
-7 0 -6 0.32 3.62
-7 0 -7 26.46 3.16
-7 0 -7 42.16 4.95
-7 0 -8 21.3 4.25
-7 0 -9 154.29 9.26
-7 0 -10 3.28 3.05
-7 0 -12 22.53 3.62
-7 0 -13 38.81 4.02
-7 0 -14 1.67 2
-7 0 -15 36.35 3.83
7 0 15 35.45 4.26
7 1 -9 2.4 1.85
7 1 -8 5.94 2.05
7 1 -7 17.18 2.88
7 1 -6 61.2 4.88
-7 -1 5 1.78 2.23
-7 -1 5 2.55 4.07
7 1 -5 2.31 2.01
-7 -1 4 28.93 3.35
7 1 -4 33.44 3.37
7 1 -3 18.38 2.87
-7 -1 3 17.57 3.21
-7 -1 3 11.84 4.54
-7 -1 2 56.06 4.41
7 1 -2 51.94 4.18
-7 -1 1 2.46 1.76
-7 -1 1 2.05 2.17
7 1 -1 3.88 1.93
-7 -1 1 0.9 3.73
7 1 -1 1.38 1.45
-7 -1 0 29.55 3.38
7 1 0 32.62 3.27
-7 -1 0 34.36 3.5
7 1 0 30.14 2.48
-7 -1 0 26.26 4.83
7 1 1 3.85 1.85
-7 -1 -1 1.08 1.58
-7 -1 -1 1.29 2.18
7 1 1 1.95 1.57
-7 -1 -2 159.88 8.6
-7 -1 -2 173.45 9.07
-7 -1 -3 1.86 1.96
-7 -1 -3 0.14 1.49
-7 -1 -3 1.02 3.53
-7 -1 -4 44.05 3.95
-7 -1 -4 48.43 5.27
-7 -1 -5 2.1 1.43
-7 -1 -5 5.07 3.71
-7 -1 -6 98.26 6.33
-7 -1 -6 96.85 6.25
-7 -1 -7 2.05 2.04
-7 -1 -7 -0.78 3.42
-7 -1 -8 63 4.96
-7 -1 -8 75.06 6.14
-7 -1 -9 8.06 2.51
-7 -1 -9 15.04 3.84
-7 -1 -10 41.15 3.95
-7 -1 -11 2.17 2.19
-7 -1 -12 90.2 6.04
-7 -1 -13 10.16 2.74
-7 -1 -14 29.51 3.56
-7 -1 -15 2.26 2.12
7 1 15 0.84 2.04
7 2 -9 7.04 2.29
7 2 -8 1.97 2.07
7 2 -7 14.38 2.69
7 2 -6 25.44 3.33
7 2 -5 18.91 2.79
7 2 -5 23.83 2.5
7 2 -4 2.35 1.83
7 2 -4 2.95 1.65
-7 -2 3 32.64 3.65
7 2 -3 28.6 3.3
7 2 -3 31.49 2.76
-7 -2 2 10.04 2.66
7 2 -2 11.42 2.43
-7 -2 2 8.46 4.36
7 2 -2 11.09 2.02
-7 -2 1 72.47 5.26
7 2 -1 74.52 5.13
7 2 -1 75.96 4.23
-7 -2 1 68.81 6.75
-7 -2 0 2.3 1.78
-7 -2 0 3.82 2.23
-7 -2 0 5.3 3.85
7 2 0 1.38 1.72
-7 -2 -1 50.56 4.43
-7 -2 -1 55.88 4.53
7 2 1 57.49 3.67
-7 -2 -2 1.89 1.67
-7 -2 -2 1.78 1.97
7 2 2 1.68 1.59
7 2 3 26.79 3
-7 -2 -3 25.59 3.18
-7 -2 -3 26.57 3.05
-7 -2 -3 32.54 4.83
-7 -2 -4 2.68 1.72
-7 -2 -4 2.58 3.69
7 2 4 1.36 1.74
7 2 5 192.45 9.98
-7 -2 -5 223.15 11.65
-7 -2 -6 -0.12 1.96
-7 -2 -6 1.81 3.61
-7 -2 -7 62.64 4.75
-7 -2 -8 2.25 1.96
-7 -2 -8 1.18 1.51
-7 -2 -9 99.69 6.22
-7 -2 -9 95.27 6.17
-7 -2 -10 6.82 2.36
-7 -2 -10 3.67 1.85
-7 -2 -11 15.99 2.73
-7 -2 -12 4.06 2.28
-7 -2 -13 54.41 4.58
-7 -2 -14 13.28 2.98
-7 -2 -15 8.13 2.4
7 2 16 -0.33 2.18
7 3 -9 25.36 3.66
7 3 -8 11.35 2.67
7 3 -7 3.65 2.16
7 3 -6 14.58 2.78
7 3 -6 12.53 2.38
7 3 -5 22.8 3.2
7 3 -5 25.54 2.93
7 3 -4 8 2.1
7 3 -4 12.03 2.05
7 3 -3 9.31 2.42
7 3 -3 6.75 2.16
-7 -3 2 83.98 5.74
7 3 -2 85.1 5.77
7 3 -2 86.36 4.79
-7 -3 1 13.14 2.81
7 3 -1 18.34 2.47
-7 -3 0 32.26 3.53
7 3 0 36.54 2.95
-7 -3 -1 4.32 1.83
-7 -3 -1 4.82 2.23
7 3 1 4.39 1.98
-7 -3 -2 150.56 8.24
7 3 2 145.6 8.05
-7 -3 -2 155.33 8.5
7 3 2 157.48 7.37
7 3 3 8.79 2.13
-7 -3 -3 4.67 1.88
-7 -3 -3 5.75 2.3
7 3 4 24.7 2.9
7 3 5 5.8 2.11
7 3 6 180.01 9.19
-7 -3 -6 174.47 9.25
-7 -3 -7 0.12 1.94
-7 -3 -7 0.26 1.42
-7 -3 -8 18.41 2.56
-7 -3 -8 20.8 2.94
-7 -3 -9 1.97 2.15
-7 -3 -9 1.95 1.71
-7 -3 -10 187.43 9.34
-7 -3 -10 162.27 9.01
-7 -3 -11 0.84 2.1
-7 -3 -11 1.07 1.54
-7 -3 -12 3.9 2.11
-7 -3 -12 5.07 1.88
-7 -3 -13 -0.23 2.19
-7 -3 -14 123.56 7.2
-7 -3 -15 5.09 2.23
7 3 15 4.17 2.99
7 3 16 0.32 1.99
7 4 -8 34.02 4.12
7 4 -7 1.86 2.05
7 4 -7 3.31 2.26
7 4 -6 6.02 2.34
7 4 -6 3.94 2.25
7 4 -5 21.96 2.89
7 4 -5 22.63 3.09
7 4 -4 46.33 4.37
7 4 -4 38.99 3.59
7 4 -3 5.93 2.12
7 4 -3 6.8 2.06
7 4 -2 8.68 2.31
7 4 -1 52.92 3.75
7 4 0 20.42 2.74
7 4 1 10.48 2.15
-7 -4 -1 9.74 2.1
-7 -4 -1 12 2.44
7 4 1 13.54 2.2
7 4 2 8.92 2.19
-7 -4 -2 4.8 2.09
-7 -4 -2 8.35 2.45
7 4 2 11.08 2.26
7 4 3 82.93 5.5
7 4 3 86.25 4.97
7 4 4 8.42 2.22
7 4 5 4.15 1.82
-7 -4 -5 2.77 1.64
-7 -4 -5 4.02 2.22
7 4 6 4.64 1.91
-7 -4 -6 2.2 1.76
-7 -4 -6 5.46 2.3
7 4 7 66.1 4.97
-7 -4 -7 71.04 5.23
-7 -4 -7 75.42 5.2
-7 -4 -8 0.36 2.02
-7 -4 -8 0.25 1.48
-7 -4 -9 3.63 2.17
-7 -4 -9 1.91 1.47
-7 -4 -10 1.94 2.07
-7 -4 -10 0.13 1.44
-7 -4 -11 120 6.98
-7 -4 -11 108.55 6.77
-7 -4 -12 1.58 1.58
-7 -4 -12 1.97 2.15
-7 -4 -13 2.94 1.66
-7 -4 -13 2.94 2.11
-7 -4 -14 1.78 1.7
-7 -4 -15 69.84 5.25
7 4 15 58.96 5.55
7 4 16 0.76 1.92
-7 -4 -16 2.01 1.74
7 5 -8 4.47 2.48
-7 -5 8 1.93 2.3
7 5 -7 26.35 3.6
7 5 -7 21.99 3.42
7 5 -6 0.95 1.93
7 5 -6 2.91 2.28
7 5 -5 16.57 3.09
7 5 -5 13.77 2.75
7 5 -4 41.22 4.26
7 5 -4 51.85 3.87
7 5 -3 23.41 3.01
7 5 -2 2.07 1.95
7 5 -1 9.84 2.57
7 5 -1 10.76 2.34
7 5 0 55.66 4.44
7 5 0 51.66 3.89
7 5 1 14.67 2.61
7 5 1 18 2.7
7 5 2 1.39 1.62
7 5 2 1.81 1.79
7 5 3 9.88 2.46
7 5 3 14.31 2.49
7 5 4 100.19 6.09
-7 -5 -4 96.15 6.23
7 5 5 4.95 2.05
-7 -5 -5 2.32 1.79
7 5 6 0.24 1.64
-7 -5 -6 1.05 1.47
-7 -5 -6 1.34 2.09
7 5 7 12.11 2.51
-7 -5 -7 7.93 2.17
-7 -5 -7 7.43 2.5
-7 -5 -8 200.63 9.96
-7 -5 -8 188.54 9.83
-7 -5 -9 0.75 1.53
-7 -5 -10 9.16 2.04
-7 -5 -11 1.39 1.52
-7 -5 -12 76.53 5.4
-7 -5 -13 0.65 1.53
-7 -5 -14 1.05 1.53
-7 -5 -15 0.13 1.42
7 5 15 -0.13 2.78
-7 -6 8 9.9 3.01
7 6 -8 13.99 3.27
7 6 -7 2.86 2.21
-7 -6 7 2.52 2.31
7 6 -7 0.87 2.29
7 6 -6 10.49 2.72
7 6 -6 11.81 2.91
7 6 -5 0.99 2.17
7 6 -4 26.35 3.39
7 6 -3 -1.12 2.22
7 6 -2 7.67 2.28
7 6 -2 7.55 2.38
7 6 -1 1.96 1.76
7 6 -1 4.41 2.02
7 6 0 37.45 3.94
7 6 0 40.06 3.68
7 6 1 55.71 4.56
7 6 1 64.51 4.39
7 6 2 3.1 1.92
7 6 2 4.28 2.19
7 6 3 31.02 3.25
7 6 3 31.09 3.18
7 6 4 40.78 3.97
7 6 4 44.02 3.95
7 6 5 113.45 6.71
-7 -6 -5 116.44 6.85
7 6 6 3.57 1.85
-7 -6 -6 2.31 1.63
7 6 7 25.29 2.97
-7 -6 -7 27.51 3.04
7 6 8 10.12 2.48
-7 -6 -8 9.67 2.31
-7 -6 -9 48.12 4.03
-7 -6 -10 1.14 1.67
-7 -6 -11 7.3 1.95
-7 -6 -12 3.97 1.83
-7 -6 -13 113.13 6.83
-7 -6 -14 3.82 1.82
-7 -6 -15 24.85 3.04
7 6 15 26.22 3.86
7 7 -7 20.67 3.46
-7 -7 7 16.35 3.27
7 7 -7 17.99 3.49
-7 -7 6 2.63 2.32
7 7 -6 2.82 2.58
-7 -7 5 2.99 2.4
7 7 -5 1.63 2.35
7 7 -4 1.05 2.28
7 7 -3 38.17 4.38
7 7 -3 39.73 3.97
7 7 -2 28.56 3.56
7 7 -2 27.72 3.35
7 7 -1 5.19 2.25
7 7 -1 3.91 2.25
7 7 0 5.69 2.14
7 7 0 6.27 2.35
7 7 1 39.83 4.14
7 7 1 52.05 4.3
7 7 2 2.49 1.93
7 7 2 1.63 2.18
7 7 3 4.47 2.09
7 7 3 1.96 2.17
7 7 4 5.91 2.04
7 7 4 2.9 2.17
7 7 5 44.34 4.02
7 7 5 54.29 4.26
7 7 6 35.55 3.39
-7 -7 -6 30.67 3.23
7 7 7 -0.48 1.85
-7 -7 -7 0.75 1.43
7 7 8 17.66 2.59
-7 -7 -8 15.71 2.48
-7 -7 -9 13.88 2.52
-7 -7 -10 55.32 4.37
-7 -7 -11 0.37 1.45
-7 -7 -12 40.66 3.77
-7 -7 -13 -0.12 1.39
-7 -7 -14 2 1.46
-7 -7 -15 3.25 1.73
7 7 15 2.67 2.7
-7 -8 6 21.35 3.45
7 8 -6 21.68 3.68
7 8 -5 0.52 2.26
-7 -8 5 2.34 2.46
7 8 -5 -0.59 2.47
7 8 -4 2.32 2.16
-7 -8 4 -0.67 2.37
7 8 -4 1.26 2.5
7 8 -3 1.44 2.14
-7 -8 3 1.73 2.41
7 8 -3 0.11 2.41
7 8 -2 48.84 4.75
7 8 -2 60.16 4.83
7 8 -1 3.43 2.12
7 8 -1 1.49 2.25
7 8 0 2.29 1.96
7 8 0 1.52 2.13
7 8 1 2.6 1.87
7 8 1 1.49 2.29
7 8 2 75.95 5.76
7 8 2 82.82 5.71
7 8 3 99.22 6.46
7 8 3 120.55 6.75
7 8 4 5.22 2.06
7 8 4 5.01 2.41
7 8 5 18.14 2.74
7 8 5 18.44 2.94
7 8 6 32.58 3.51
7 8 6 29.44 3.52
7 8 7 10.97 2.16
-7 -8 -7 9.17 1.98
7 8 8 4.61 1.85
-7 -8 -8 2.65 1.58
-7 -8 -9 15.99 2.44
-7 -8 -10 9.86 2.29
-7 -8 -11 7.74 1.96
-7 -8 -12 1.88 1.63
-7 -8 -13 13.87 2.37
-7 -8 -14 5.86 2.04
-7 -8 -14 6.77 2.51
-7 -9 5 23.49 3.79
7 9 -5 29.52 4.07
7 9 -5 33.24 4.1
7 9 -4 3.95 2.17
-7 -9 4 -0.28 2.4
7 9 -4 0.12 2.52
7 9 -3 5.78 2.42
-7 -9 3 5.78 2.72
7 9 -3 3.13 2.67
7 9 -2 3.18 2.16
-7 -9 2 2.33 2.46
7 9 -2 1.44 2.48
7 9 -1 37.01 4.34
7 9 -1 45.98 4.3
-7 -9 1 42.66 4.33
7 9 0 -1.03 2.09
-7 -9 0 0.67 2.26
7 9 0 1.49 2.29
7 9 1 2.39 2.06
7 9 1 2.08 2.32
7 9 2 7.83 2.28
7 9 2 8.99 2.72
7 9 3 27.18 3.4
7 9 3 34.49 3.83
7 9 4 5.06 1.96
7 9 4 1.65 2.4
7 9 5 5.45 2.09
7 9 5 9.24 2.67
7 9 6 2.72 1.74
7 9 6 3.54 2.36
7 9 7 17.54 2.68
7 9 8 13.89 2.26
7 9 9 9.01 2.24
-7 -9 -10 26.11 2.96
-7 -9 -11 4.54 1.77
-7 -9 -12 6.26 1.78
-7 -9 -12 4.95 2.18
-7 -9 -13 3.08 1.65
-7 -9 -13 3.68 2.31
-7 -9 -14 22.21 3.24
-7 -9 -14 29.83 3.09
-7 -10 4 28.84 3.9
7 10 -4 26.11 3.89
7 10 -4 28.4 3.97
7 10 -3 1.19 2.21
-7 -10 3 2.6 2.58
7 10 -3 2.94 2.67
7 10 -2 5.87 2.34
-7 -10 2 4.61 2.52
7 10 -2 2.07 2.59
7 10 -1 5.82 2.46
-7 -10 1 6.9 2.79
7 10 -1 5.75 2.78
7 10 0 22.31 3.36
-7 -10 0 26.57 3.77
7 10 0 26.12 3.6
7 10 1 1.73 2.01
-7 -10 -1 2.51 2.6
7 10 1 2.48 2.5
7 10 2 10.89 2.58
7 10 2 17.59 3.24
7 10 3 1.45 1.77
7 10 3 1.82 2.44
-7 -10 -4 24.7 3.51
7 10 4 23.52 3.24
7 10 4 25.56 3.64
7 10 5 7.14 2.01
-7 -10 -5 4.92 2.45
7 10 6 15.82 2.66
-7 -10 -6 17.88 3.17
7 10 7 8.56 2.16
-7 -10 -7 12.33 2.87
7 10 8 5.27 1.94
-7 -10 -8 6.91 2.56
7 10 9 0.66 1.62
-7 -10 -9 1.01 2.1
7 10 9 -1.45 2.44
-7 -10 -10 19.47 3.32
-7 -10 -11 16.57 3.02
-7 -10 -12 6.2 2.57
-7 -10 -13 -0.33 2.13
7 11 -3 20.63 3.72
7 11 -2 4.66 2.21
-7 -11 2 3.57 2.68
7 11 -2 3.37 2.77
7 11 -1 8.68 2.68
-7 -11 1 11.59 3.03
7 11 -1 6.19 2.94
7 11 0 0.46 1.97
-7 -11 0 1.46 2.51
7 11 0 3.08 2.74
7 11 1 15.24 2.99
-7 -11 -1 16.94 3.38
7 11 1 15.27 3.27
7 11 2 6.27 2.23
7 11 2 5.55 2.75
7 11 3 15.77 2.72
7 11 3 20.72 3.47
7 11 4 2.45 1.83
-7 -11 -4 5.11 2.68
7 11 5 12.34 2.42
-7 -11 -5 14.74 3.17
7 11 6 0.24 1.73
-7 -11 -6 0.14 2.42
-7 -11 -7 28.04 3.82
7 11 7 25.93 3.19
7 11 8 2.98 1.85
-7 -11 -8 6.18 2.71
7 11 8 3.31 2.7
7 11 9 7.7 2.18
-7 -11 -9 15 3.17
7 11 9 8.97 2.91
-7 -11 -10 0.89 2.34
7 11 10 5.98 2.62
-7 -11 -11 15.67 3.15
-7 -11 -12 5.16 2.44
7 12 -1 -0.16 2.17
7 12 -1 4.35 2.87
7 12 0 11.77 2.79
-7 -12 0 12.49 3.2
7 12 0 15.34 3.48
7 12 1 5.51 2.38
7 12 1 5.39 2.79
7 12 2 5.95 2.15
7 12 2 6.56 2.76
7 12 3 0.8 1.84
-7 -12 -3 1.32 2.37
7 12 4 12.2 2.65
-7 -12 -4 14.77 3.19
7 12 5 8.59 2.2
-7 -12 -5 9.6 2.83
7 12 6 -0.12 1.75
-7 -12 -6 -0.99 2.56
7 12 7 1.57 1.68
-7 -12 -7 1.81 2.36
7 12 7 3.54 2.55
7 12 8 16.57 2.72
-7 -12 -8 25.53 3.63
7 12 8 18.65 3.47
-7 -12 -9 1.92 2.5
7 12 9 3.49 2.67
-7 -12 -10 0.66 2.54
7 13 3 0.94 1.72
-7 -13 -4 2.87 2.61
7 13 4 3.13 1.95
-7 -13 -5 21.99 3.63
7 13 5 17.52 2.97
-7 -13 -6 1.78 2.41
7 13 6 3.48 1.92
-7 -13 -7 2.48 2.43
-8 6 -1 0.32 1.96
-8 6 -2 6.54 2.32
-8 6 -3 31.09 3.92
-8 6 -4 16.99 2.98
-8 6 -4 18.69 4.92
-8 6 -5 1.19 1.72
-8 5 2 1.58 1.6
-8 5 1 21.46 3.16
-8 5 0 15.2 2.98
-8 5 -1 24.11 3.45
-8 5 -2 -0.16 1.98
-8 5 -2 -0.58 4.16
-8 5 -3 31.67 3.86
-8 5 -3 24.5 5.17
-8 5 -4 31.48 4.1
-8 5 -4 29.29 5.47
-8 5 -5 23.21 3.43
-8 5 -5 18.38 4.75
-8 5 -6 3.26 2
-8 5 -6 -0.72 4.2
-8 5 -7 27.35 5.17
-8 5 -8 41.63 5.93
-8 4 3 1.14 2.28
-8 4 2 10.86 2.39
-8 4 2 12.4 2.98
-8 4 2 6.12 4.42
-8 4 1 0.15 1.8
-8 4 1 0.2 4.17
-8 4 0 57.69 5.07
-8 4 -1 14.04 2.89
-8 4 -2 12.19 2.66
-8 4 -2 14.62 4.44
-8 4 -3 1.29 1.93
-8 4 -3 1.9 4.19
-8 4 -4 36.63 4.16
-8 4 -4 32.87 5.65
-8 4 -5 18.03 3.36
-8 4 -5 13.38 4.7
-8 4 -6 7.35 2.29
-8 4 -6 4.33 4.1
-8 4 -7 2.06 1.93
-8 4 -7 3.18 3.88
-8 4 -8 23.81 5.05
-8 4 -9 29.72 5.1
-8 4 -10 5.04 4.1
-8 3 4 0.14 2.33
8 -3 -4 2.37 1.91
-8 3 3 44.64 4.51
-8 3 3 26.19 6.02
-8 3 2 0.75 1.79
-8 3 2 4.2 2.42
-8 3 2 0.21 4.63
-8 3 1 4.61 1.98
-8 3 1 2.86 2.33
-8 3 1 2.08 4.31
-8 3 0 4.81 2.18
-8 3 -1 111.21 7.38
-8 3 -2 16.67 3.06
-8 3 -2 10.83 4.76
-8 3 -3 15.26 2.78
-8 3 -3 20.14 4.8
-8 3 -4 2.25 1.92
-8 3 -4 2.22 4.07
-8 3 -5 54.28 4.92
-8 3 -5 55.44 6.25
-8 3 -6 12.44 2.9
-8 3 -6 17.05 4.75
-8 3 -7 0.84 1.66
-8 3 -7 3.07 4
-8 3 -8 11.04 4.69
-8 3 -9 48.19 5.77
-8 3 -10 20.52 4.61
-8 3 -11 -1.9 3.66
-8 2 5 0.27 2.27
8 -2 -5 0.5 1.78
-8 2 4 2.89 2.35
-8 2 4 1.75 4.69
8 -2 -4 3.79 1.8
-8 2 3 -1.24 2.6
-8 2 3 2.57 4.21
8 -2 -3 1.78 1.79
8 -2 -2 88.69 5.89
-8 2 2 93.31 6.2
-8 2 2 94.37 6.33
-8 2 1 4.75 2.19
-8 2 1 2.87 2.25
-8 2 1 3.5 4.28
8 -2 -1 1.73 1.93
-8 2 0 7.54 2.22
-8 2 0 8.67 2.53
-8 2 -1 0.64 1.8
-8 2 -1 0.57 2.29
-8 2 -2 74.37 5.67
8 -2 2 68.14 3.69
-8 2 -3 2.86 2.07
-8 2 -3 6.06 4.16
-8 2 -4 -0.48 1.78
-8 2 -4 3.27 4.07
-8 2 -5 8.39 2.46
-8 2 -5 8.31 4.47
-8 2 -6 90.92 6.45
-8 2 -6 91.8 7.81
-8 2 -7 4.36 2.28
-8 2 -7 6.33 4.17
-8 2 -8 8.27 2.23
-8 2 -8 12.16 4.32
-8 2 -9 24.34 4.99
-8 2 -10 65.87 6.5
-8 2 -11 11.82 4.03
-8 2 -12 6.27 3.55
8 -1 -5 55.79 4.5
-8 1 5 54.83 4.81
-8 1 4 -0.96 2.36
-8 1 4 2.36 4.16
8 -1 -4 0.13 1.8
-8 1 3 7.33 2.48
8 -1 -3 4.06 1.78
-8 1 2 1.51 2.49
-8 1 2 0.85 4.47
8 -1 -2 0.26 1.93
8 -1 -1 73.34 5.24
-8 1 1 70.59 5.45
-8 1 1 69.55 5.49
8 -1 0 -0.4 1.77
-8 1 0 1.42 1.92
-8 1 0 0.41 2.1
8 -1 1 3.31 1.93
-8 1 -1 3 1.99
-8 1 -1 1.09 2.13
-8 1 -2 4.79 2.2
-8 1 -2 3.46 2.46
-8 1 -2 -2.76 4.62
8 -1 2 4.3 1.54
-8 1 -3 99.9 6.73
-8 1 -3 101.35 6.92
-8 1 -3 98.34 8.15
-8 1 -4 0.93 1.61
-8 1 -4 1.34 4.06
-8 1 -5 11.1 2.4
-8 1 -5 13.4 4.35
-8 1 -6 5.14 2.22
-8 1 -6 6.7 4.28
-8 1 -7 18.54 2.93
-8 1 -7 20.26 4.61
-8 1 -8 2.24 2.05
-8 1 -8 8.23 4.17
-8 1 -9 2.12 1.97
-8 1 -9 0.35 3.77
-8 1 -10 20.34 4.71
-8 1 -11 36.48 5.1
-8 1 -12 1.76 3.38
-8 1 -13 6.04 2.98
8 0 -6 2.99 2.03
-8 0 5 0.27 2.33
8 0 -5 3.12 2.12
8 0 -4 69.62 5.16
-8 0 4 76.68 5.57
-8 0 3 1.23 2.21
-8 0 3 -0.85 4.21
8 0 -3 -1.48 1.92
-8 0 2 22.6 3.4
-8 0 2 13.6 4.78
8 0 -2 18.94 2.94
-8 0 1 -0.16 1.75
-8 0 1 0.14 2.16
-8 0 1 0.41 4.12
8 0 -1 -0.13 1.84
8 0 0 73.69 5.2
-8 0 0 59.94 5.17
-8 0 0 65.46 5.29
8 0 0 62.8 3.62
8 0 1 1.36 1.82
-8 0 -1 0.79 1.78
-8 0 -1 2.41 2.16
8 0 1 0.05 1.52
-8 0 -2 9.43 2.45
-8 0 -2 10.37 2.71
8 0 2 10.26 2.4
-8 0 -2 7.21 4.35
8 0 2 11.55 1.87
-8 0 -3 1.26 1.64
-8 0 -3 2.56 2.23
-8 0 -3 -1.98 4.25
-8 0 -4 61.87 5.19
-8 0 -4 63.22 5.25
-8 0 -4 72.43 6.83
-8 0 -5 0.77 1.7
-8 0 -5 1.34 3.87
-8 0 -6 44.92 4.25
-8 0 -6 50.27 5.89
-8 0 -7 12.69 3.2
-8 0 -7 9.87 2.68
-8 0 -7 14.54 4.84
-8 0 -8 248.12 12.41
-8 0 -8 230.67 12.25
-8 0 -8 267.54 13.72
-8 0 -9 2.99 2.44
-8 0 -9 4.92 4
-8 0 -10 42.26 4.39
-8 0 -10 37.86 5.24
-8 0 -11 12.03 3.09
-8 0 -12 18.5 3.25
-8 0 -13 -1.92 2.51
8 1 -6 2.54 2.02
8 1 -5 2.96 1.9
-8 -1 4 12.37 3.03
-8 -1 4 8.08 4.94
8 1 -4 12.04 2.66
-8 -1 3 4.83 2.43
8 1 -3 1.26 1.93
-8 -1 3 5.84 4.09
-8 -1 2 2.19 2.47
8 1 -2 3.2 2.13
-8 -1 2 5.55 4.48
8 1 -2 1.64 1.61
-8 -1 1 16.88 3.06
8 1 -1 17.95 2.81
8 1 -1 19.96 2.13
-8 -1 1 14.48 4.57
8 1 0 4.38 2.1
-8 -1 0 1.72 1.85
-8 -1 0 1.95 2.33
8 1 0 1.58 1.6
8 1 1 84.52 5.89
-8 -1 -1 84.11 6.11
-8 -1 -1 84.62 6.22
8 1 1 97.36 4.93
8 1 2 0.98 1.94
-8 -1 -2 0.78 1.76
-8 -1 -2 1.64 2.15
8 1 2 1.16 1.72
-8 -1 -3 98.63 6.5
-8 -1 -3 101.61 6.72
-8 -1 -3 83.31 7.81
-8 -1 -4 -0.31 1.61
-8 -1 -4 0.4 2.15
-8 -1 -4 1.36 4.07
-8 -1 -5 50.76 4.57
-8 -1 -5 55.14 6.01
-8 -1 -6 0.54 2.38
-8 -1 -6 -0.15 1.67
-8 -1 -6 0.19 4.24
-8 -1 -7 71.79 5.66
-8 -1 -7 71.73 5.57
-8 -1 -7 86.42 7.27
-8 -1 -8 5.36 2.54
-8 -1 -8 9.96 4.17
-8 -1 -9 8.43 2.65
-8 -1 -10 2.63 2.3
-8 -1 -10 0.31 1.64
-8 -1 -11 35.35 3.92
-8 -1 -11 33 3.81
-8 -1 -12 9.03 2.86
-8 -1 -12 8.9 2.64
-8 -1 -13 30.38 3.94
-8 -1 -14 1.89 2.43
8 2 -6 22.09 3.28
8 2 -5 2.82 2.12
8 2 -4 24.03 3.29
8 2 -3 4.02 2.21
-8 -2 3 6.59 2.59
8 2 -3 5.16 1.82
-8 -2 2 64.92 5.25
8 2 -2 63.63 5.08
8 2 -2 66.67 4.02
8 2 -1 0.14 1.9
-8 -2 1 2.22 2.27
8 2 -1 -0.06 1.61
8 2 0 63.07 5.01
-8 -2 0 65.99 5.31
-8 -2 0 69.62 5.43
8 2 0 67.88 4.1
8 2 1 5.17 2.25
-8 -2 -1 5.45 2.13
-8 -2 -1 6.04 2.53
8 2 1 5.48 1.99
-8 -2 -2 16.84 2.75
-8 -2 -2 16.89 2.99
8 2 2 17.99 2.38
-8 -2 -3 1.7 1.87
-8 -2 -3 2.78 2.39
-8 -2 -3 4.67 4.26
8 2 3 2.44 1.97
8 2 4 24.77 3.31
-8 -2 -4 33.46 3.67
-8 -2 -4 26.81 5.08
8 2 5 -0.43 1.93
-8 -2 -5 -0.31 1.65
-8 -2 -6 31.87 3.74
-8 -2 -7 0.42 2.41
-8 -2 -8 67.61 5.35
-8 -2 -9 2.52 2.4
-8 -2 -9 1.49 1.58
-8 -2 -10 24.72 3.51
-8 -2 -10 21.16 2.98
-8 -2 -11 0.7 2.29
-8 -2 -11 1.54 1.7
-8 -2 -12 70.86 5.57
-8 -2 -12 58.59 5.1
-8 -2 -13 7.36 2.76
-8 -2 -13 6.21 2.24
-8 -2 -14 -0.54 2.47
-8 -2 -14 2.11 1.82
8 3 -6 14.58 3.08
8 3 -5 0.93 2.12
8 3 -4 1.07 1.99
8 3 -4 3.18 2.02
8 3 -3 30.08 3.61
8 3 -3 32.07 3.01
8 3 -2 17.05 3.02
8 3 -2 13.6 2.41
8 3 -1 11.14 2.49
-8 -3 1 14.24 2.85
8 3 -1 10.5 2.06
-8 -3 0 2.9 2.48
8 3 0 2.96 1.89
-8 -3 -1 64.72 5.17
-8 -3 -1 59.13 5.14
8 3 1 66.09 4.26
-8 -3 -2 3.4 1.96
-8 -3 -2 3.46 2.25
8 3 2 2.97 2.01
8 3 3 34.32 3.71
-8 -3 -3 34.42 3.84
-8 -3 -3 35.33 3.81
8 3 3 39.71 3.29
8 3 4 1.98 2.09
-8 -3 -4 1.99 1.82
8 3 5 144.66 8.26
8 3 6 1.16 2.04
-8 -3 -6 -1.12 2.35
-8 -3 -7 21.02 3.19
-8 -3 -8 2.25 2.27
-8 -3 -8 2.07 1.72
-8 -3 -9 101.25 6.72
-8 -3 -9 94.13 6.4
-8 -3 -10 -0.84 2.25
-8 -3 -10 0.44 1.53
-8 -3 -11 6.26 2.59
-8 -3 -11 6.28 2.02
-8 -3 -12 0.41 2.28
-8 -3 -12 1.06 1.71
-8 -3 -13 59.49 5.28
-8 -3 -13 62.93 5.21
-8 -3 -14 0.47 1.77
-8 -3 -14 1.99 2.18
8 4 -6 2.72 2.35
8 4 -5 13.32 2.79
8 4 -5 12.64 2.73
8 4 -4 -0.16 1.85
8 4 -4 1.37 1.89
8 4 -3 7.93 2.6
8 4 -3 5.72 2.35
8 4 -2 16.08 2.94
8 4 -2 19.48 2.67
8 4 -1 11.7 2.37
8 4 0 -0.32 1.89
-8 -4 -1 5.17 2.55
8 4 1 8.33 2.38
8 4 2 46.91 4.47
-8 -4 -2 50.11 4.65
-8 -4 -2 52.4 4.69
8 4 2 58.42 4.15
8 4 3 3.97 2.1
-8 -4 -3 2.92 2.43
8 4 3 6.64 2.2
8 4 4 1.54 1.81
8 4 4 4.25 1.95
8 4 5 2.26 2.24
8 4 6 103.19 6.5
-8 -4 -6 95.65 6.64
-8 -4 -6 91.57 6.5
-8 -4 -7 0.15 1.68
-8 -4 -7 0.71 2.24
-8 -4 -8 1.42 2.2
-8 -4 -8 0.3 1.67
-8 -4 -9 2.12 2.27
-8 -4 -9 0.88 1.53
-8 -4 -10 55.11 4.82
-8 -4 -10 51.26 4.57
-8 -4 -11 0.42 2.1
-8 -4 -11 0.74 1.57
-8 -4 -12 1.03 1.67
-8 -4 -12 0.14 2.31
-8 -4 -13 0.3 1.55
-8 -4 -13 3.19 2.28
-8 -4 -14 45.98 4.39
8 5 -5 11.52 2.9
8 5 -5 12.07 2.79
8 5 -4 7.05 2.52
8 5 -4 8.77 2.53
8 5 -3 -2.06 2.27
8 5 -3 -0.46 2.21
8 5 -2 19.96 3.02
8 5 -1 46.74 3.9
8 5 0 10.56 2.64
8 5 0 8.88 2.49
8 5 1 2.34 1.98
8 5 1 -0.18 2.01
8 5 2 17.93 3.06
8 5 2 18.29 2.98
8 5 3 48.16 4.44
8 5 3 53.01 4.19
8 5 4 3.53 2.06
8 5 4 7.56 2.47
8 5 5 1.68 1.87
-8 -5 -5 0.91 1.68
8 5 6 8.12 2.57
-8 -5 -6 8.73 2.54
-8 -5 -6 9.19 2.96
8 5 7 80.78 5.67
-8 -5 -7 79.13 5.86
-8 -5 -7 74.18 5.65
-8 -5 -8 1.93 1.94
-8 -5 -8 1.27 2.23
-8 -5 -9 3.68 1.78
-8 -5 -9 3.24 2.25
-8 -5 -10 3.26 1.97
-8 -5 -11 62.06 4.99
-8 -5 -12 1.3 1.55
-8 -5 -13 8.97 2.35
-8 -5 -14 1.03 1.61
8 6 -5 25.07 3.83
8 6 -5 21.04 3.47
8 6 -4 6.7 2.55
8 6 -3 6 2.56
8 6 -2 2.59 2.29
8 6 -1 27.53 3.81
8 6 -1 28.72 3.44
8 6 0 19.68 3.25
8 6 0 20.92 2.95
8 6 1 7.39 2.45
8 6 1 5 2.39
8 6 2 2.19 1.98
8 6 2 2.25 2.17
8 6 3 22.78 3.37
8 6 3 23.47 3.41
8 6 4 68.7 5.3
-8 -6 -4 62.44 5.24
8 6 4 75.08 5.04
8 6 5 5.15 2.28
-8 -6 -5 8.43 2.35
8 6 5 5.96 2.51
-8 -6 -6 1.47 1.67
8 6 6 1.4 1.84
-8 -6 -7 4.57 2.02
8 6 7 4.25 2.2
-8 -6 -8 21.62 3
8 6 8 20.86 3.01
-8 -6 -9 1.92 1.63
-8 -6 -10 15.88 2.64
-8 -6 -11 2.32 1.67
-8 -6 -12 38.46 3.87
-8 -6 -13 0.29 1.77
8 7 -4 27.47 3.81
8 7 -3 5.44 2.67
8 7 -2 6.02 2.38
8 7 -2 7.04 2.54
8 7 -1 1.12 2.04
8 7 -1 -0.21 2.31
8 7 0 27.78 3.72
8 7 0 27.91 3.49
8 7 1 4.32 2.2
8 7 1 4.87 2.42
8 7 2 3.28 2.01
8 7 2 2.04 2.27
8 7 3 3.91 2.03
8 7 3 3.86 2.46
8 7 4 10.69 2.66
8 7 4 10.4 2.78
8 7 5 6.02 2.14
8 7 5 6.69 2.37
8 7 6 3.28 1.95
-8 -7 -6 -0.44 1.71
8 7 6 1.31 2.21
-8 -7 -7 15.67 2.64
8 7 7 21.6 3.01
8 7 8 11.47 2.66
-8 -7 -8 9.06 2.31
-8 -7 -9 16.94 2.72
-8 -7 -10 1.41 1.67
-8 -7 -11 31.17 3.53
-8 -7 -12 2.47 1.85
-8 -7 -13 7.7 2.24
8 8 -3 30.13 4
8 8 -3 30.91 4
8 8 -2 3.23 2.33
8 8 -2 1.64 2.5
8 8 -1 -0.16 2.07
8 8 -1 1.28 2.31
8 8 0 5.08 2.18
8 8 0 3.28 2.36
8 8 1 20.65 3.35
8 8 1 23.76 3.4
8 8 2 9.74 2.5
8 8 2 12.9 2.75
8 8 3 2.05 2.23
8 8 3 2.8 2.64
8 8 4 32.7 3.78
8 8 4 38.3 3.97
8 8 5 28.99 3.69
8 8 5 35.28 4
8 8 6 14.45 2.58
8 8 6 11.79 2.81
8 8 7 1.76 1.97
8 8 7 3.36 2.42
8 8 8 12.75 2.54
-8 -8 -8 10.04 2.31
-8 -8 -9 8.06 2.23
-8 -8 -10 12.05 2.39
-8 -8 -11 5.42 2
-8 -8 -12 32.05 3.59
8 9 -2 16.2 3.48
-8 -9 2 14.29 3.43
8 9 -2 21.45 3.69
8 9 -1 1.01 1.97
-8 -9 1 -0.15 2.6
8 9 -1 0.25 2.56
8 9 0 1.28 2.14
8 9 0 1.46 2.38
8 9 1 0.63 1.97
8 9 1 0.12 2.65
8 9 2 17.61 3.13
8 9 2 18.79 3.26
8 9 3 0.75 1.92
8 9 3 0.61 2.42
8 9 4 8.03 2.58
8 9 4 15.27 3.24
8 9 5 2.1 1.95
8 9 5 1.8 2.58
8 9 6 14.16 2.8
8 9 6 13.73 3.14
8 9 7 5.33 2.1
8 9 7 5.43 2.51
8 9 8 9.54 2.47
8 9 8 13.86 3.05
8 9 9 27.05 3.4
-8 -9 -10 12.48 2.66
-8 -9 -11 1.74 1.54
8 10 -1 10.7 3.14
8 10 0 0.98 2.01
-8 -10 0 2.45 2.63
8 10 0 0.66 2.5
8 10 1 12.55 2.84
-8 -10 -1 10.79 3.02
8 10 1 12.94 3.1
8 10 2 2.65 2.25
8 10 2 4.62 2.73
8 10 3 20.06 3.3
8 10 3 23.87 3.64
8 10 4 3.01 1.97
-8 -10 -4 1.34 2.62
8 10 4 1.95 2.57
8 10 5 7.28 2.32
8 10 5 8.63 2.98
8 10 6 6.53 2.27
8 10 6 4.83 2.82
8 10 7 8.37 2.46
8 10 7 13.72 3.07
8 10 8 3.23 1.88
8 10 8 2.34 2.56
8 10 9 11.38 2.46
-8 -10 -9 8.65 3.02
-8 -10 -10 2.52 2.43
8 11 1 0.16 1.99
8 11 1 -0.14 2.66
8 11 2 19.51 3.32
8 11 2 14.8 3.69
8 11 3 0.15 2.1
8 11 3 5.76 2.77
8 11 4 8.67 2.54
-8 -11 -4 5.58 2.93
8 11 4 10.03 3.13
8 11 5 0.56 1.85
-8 -11 -5 1.38 2.65
8 11 5 -0.68 2.86
8 11 6 19.06 3.04
-8 -11 -6 15.5 3.46
8 11 6 17.66 3.54
8 11 7 4.78 2.04
-8 -11 -7 1.35 2.59
8 11 7 1.13 2.82
-8 -11 -8 4.18 2.75
8 11 8 5.84 2.07
-9 3 -3 6.86 2.4
-9 3 -4 73.96 6.05
-9 3 -5 4.83 2.53
-9 2 0 0.86 1.97
-9 2 -1 59.83 5.41
-9 2 -1 62.7 5.54
-9 2 -2 0.9 2.07
-9 2 -2 -0.62 2.6
-9 2 -2 2.01 4.31
-9 2 -3 1.99 2.1
-9 2 -3 2.83 2.57
-9 2 -4 4.31 2.78
-9 2 -4 3.26 2.29
-9 2 -4 0.65 5.02
-9 2 -5 30.11 4.16
-9 2 -5 27.07 3.79
-9 2 -5 25.92 5.69
-9 2 -6 4.12 2.26
-9 2 -6 10.36 4.73
-9 2 -7 1.25 1.89
-9 2 -7 2.91 4.22
-9 1 1 2.47 2.6
9 -1 -1 4.02 2.26
-9 1 0 6.42 2.31
-9 1 0 4.01 2.64
-9 1 -1 0.35 1.98
-9 1 -1 4.58 2.63
-9 1 -2 62.97 5.43
-9 1 -2 58.64 5.4
-9 1 -3 2.38 2.25
-9 1 -3 2.14 2.53
-9 1 -3 1.78 4.37
-9 1 -4 2.33 2.09
-9 1 -4 3.37 2.58
-9 1 -4 0.22 4.69
-9 1 -5 5.74 2.49
-9 1 -5 1.51 4.77
-9 1 -6 71.03 5.84
-9 1 -6 64.15 7.21
-9 1 -7 0.79 2.63
-9 1 -7 2.82 1.94
-9 1 -7 -2.05 4.58
-9 1 -8 17.22 3.64
-9 1 -8 16.87 3.09
-9 1 -8 17.84 5.06
-9 1 -9 12.3 3.24
-9 1 -9 9.89 4.71
-9 0 2 0.31 2.42
9 0 -2 0.75 1.98
9 0 -1 109.65 7.24
-9 0 1 109.21 7.44
-9 0 0 0.53 2.06
-9 0 0 -0.78 2.59
9 0 0 0.45 2.12
-9 0 -1 10.16 2.69
-9 0 -1 13.65 3.17
9 0 1 11.44 2.59
-9 0 -2 -0.18 2.03
-9 0 -2 1.85 2.42
-9 0 -2 -0.22 4.66
-9 0 -3 52.46 5
-9 0 -3 57.49 5.19
9 0 3 57.48 3.76
-9 0 -4 1.08 2
-9 0 -4 1.52 2.41
-9 0 -4 0.22 4.33
-9 0 -5 10.98 2.62
-9 0 -5 18.27 4.92
-9 0 -6 1.94 1.98
-9 0 -6 0.42 4.74
-9 0 -7 30.08 3.96
-9 0 -7 25.42 3.52
-9 0 -7 25.81 5.47
-9 0 -8 0.77 2.44
-9 0 -8 0.17 1.71
-9 0 -8 -0.41 4.07
-9 0 -9 13.36 3.23
-9 0 -9 14.37 2.87
-9 0 -9 19.41 4.97
-9 0 -10 4.2 2.71
-9 -1 2 25.39 3.83
9 1 -2 22.62 3.3
-9 -1 1 5.69 2.78
-9 -1 1 3.53 4.76
9 1 -1 5.22 2.37
9 1 0 13.46 2.84
-9 -1 0 9.54 2.9
9 1 1 0.46 1.94
-9 -1 -1 -1.75 2.16
-9 -1 -1 1.24 2.54
-9 -1 -2 25.27 3.6
-9 -1 -2 23.69 3.69
9 1 2 21.25 3.25
-9 -1 -2 19.72 5.25
9 1 2 18.94 2.49
-9 -1 -3 -0.35 1.92
-9 -1 -3 -0.78 2.59
9 1 3 -1.12 2.18
-9 -1 -3 0.91 5
9 1 3 -0.29 1.76
-9 -1 -4 43.66 4.65
-9 -1 -4 45.73 4.66
-9 -1 -4 38.55 6.31
9 1 4 47.92 3.64
-9 -1 -5 0.18 1.94
-9 -1 -5 -0.44 4.56
-9 -1 -6 25.62 3.66
-9 -1 -6 29.88 5.67
-9 -1 -7 0.47 2.55
-9 -1 -7 1.56 2.03
-9 -1 -7 0.63 4.38
-9 -1 -8 25.1 3.76
-9 -1 -9 -0.31 2.47
-9 -1 -10 31.82 4.02
-9 -1 -11 5.8 2.96
-9 -2 2 3.38 2.56
9 2 -2 1.42 2.22
-9 -2 1 18.75 3.44
9 2 -1 20.57 3.29
-9 -2 0 1.24 2.45
9 2 0 1.09 2.03
-9 -2 -1 20.35 3.43
-9 -2 -1 25.34 3.68
9 2 1 20.41 3.3
9 2 1 23.15 2.62
9 2 2 1.58 2.26
-9 -2 -2 0.52 1.99
-9 -2 -2 2.01 2.65
9 2 2 0.99 1.91
-9 -2 -3 35.16 4.16
-9 -2 -3 31.4 4.01
9 2 3 32.83 3.18
-9 -2 -4 0.69 1.67
-9 -2 -4 2.49 2.42
9 2 4 -0.5 2.09
-9 -2 -5 4.94 2.2
-9 -2 -6 1.9 1.85
-9 -2 -7 69.47 5.88
-9 -2 -8 0.64 2.49
-9 -2 -9 16.91 3.27
-9 -2 -10 2.55 2.67
-9 -2 -10 0.85 1.8
-9 -2 -11 33.8 4.31
-9 -2 -11 30.74 3.81
9 3 -2 3.74 2.22
9 3 -1 3.4 2.23
9 3 0 42.31 4.47
-9 -3 0 45.96 4.74
9 3 0 44.76 3.58
9 3 1 3.8 2.43
-9 -3 -1 6.51 2.79
9 3 1 5.46 2.18
-9 -3 -2 9.31 2.52
-9 -3 -2 9.02 2.68
9 3 2 10.78 2.37
-9 -3 -3 1.56 2.04
-9 -3 -3 0.63 2.43
9 3 3 4.36 2.3
9 3 4 61.58 5.27
-9 -3 -4 59.65 5.42
9 3 4 62.36 4.47
9 3 5 -1.62 2.13
-9 -3 -5 -0.34 1.82
-9 -3 -6 3.77 2.62
-9 -3 -7 0.31 2.59
-9 -3 -8 62.62 5.6
-9 -3 -8 64.93 5.54
-9 -3 -9 -0.47 2.38
-9 -3 -9 1.19 1.84
-9 -3 -10 2.99 2.45
-9 -3 -10 3.32 1.93
-9 -3 -11 1.41 2.49
-9 -3 -11 0.17 1.92
9 4 -2 15.01 3.05
9 4 -1 3.3 2.29
9 4 -1 -0.75 2.16
9 4 0 3.34 2.12
9 4 1 21.65 2.86
9 4 2 4.64 2.28
9 4 3 3.2 2.06
-9 -4 -3 0.87 1.91
-9 -4 -3 1.41 2.24
9 4 3 2.22 2.12
9 4 4 2.08 2.13
9 4 4 2.87 2.2
9 4 5 32.81 3.87
9 4 5 27.4 3.23
-9 -4 -6 1.26 2.44
9 4 6 -0.16 2.12
-9 -4 -7 1.02 1.86
-9 -4 -7 0.95 2.37
-9 -4 -8 -0.68 1.8
-9 -4 -8 1.74 2.5
-9 -4 -9 18.27 3.05
-9 -4 -9 20.94 3.62
-9 -4 -10 -0.79 2.57
-9 -4 -10 0.17 1.74
-9 -4 -11 5.78 2.57
-9 -4 -11 5.18 2.2
9 5 -2 30.98 3.43
9 5 -1 5.32 2.48
9 5 0 2.22 2.1
9 5 1 2.15 2.41
9 5 1 4.31 2.33
9 5 2 20.26 3.23
9 5 2 24.15 3.11
9 5 3 2.25 2.15
9 5 3 4.09 2.5
9 5 4 2.55 2.12
9 5 4 2.39 2.29
9 5 5 1.27 2.23
-9 -5 -5 1.01 2.07
9 5 5 4.39 2.32
9 5 6 33.8 3.94
-9 -5 -6 26.85 3.68
-9 -5 -7 1.67 1.95
-9 -5 -8 0.17 1.83
-9 -5 -9 2.88 2.02
-9 -5 -10 67.15 5.55
-9 -5 -11 1.15 1.92
9 6 -1 2.37 2.35
9 6 0 2.38 2.3
9 6 0 1.51 2.27
9 6 1 3.35 2.32
9 6 1 0.63 2.35
9 6 2 11.22 2.97
9 6 2 17.05 3.02
9 6 3 22.76 3.53
9 6 3 32.94 3.64
9 6 4 1.11 2.14
9 6 4 1.47 2.39
-9 -6 -5 20.93 3.39
9 6 5 26.45 3.6
9 6 5 25.95 3.34
9 6 6 16.58 3.16
-9 -6 -6 9.76 2.81
9 6 6 15.97 3.13
9 6 7 43.05 4.39
-9 -6 -7 40.9 4.26
-9 -6 -8 0.83 1.79
-9 -6 -9 17.35 2.96
-9 -6 -10 2.28 2.06
-9 -6 -11 20.57 3.16
9 7 0 12.75 2.89
9 7 1 0.17 2.04
9 7 1 2.38 2.36
9 7 2 5.66 2.41
9 7 2 7 2.48
9 7 3 15.22 3.07
9 7 3 15.2 3.14
9 7 4 3.37 2.27
9 7 4 3.08 2.54
9 7 5 3.44 2.27
9 7 5 1.31 2.42
9 7 6 2.5 2.22
9 7 6 5.3 2.59
9 7 7 15.98 3.1
-9 -7 -7 12.61 2.96
9 7 7 15.15 3.22
9 7 8 12.72 2.81
-9 -7 -8 9.65 2.48
-9 -7 -9 0.64 1.73
-9 -7 -10 10.15 2.5
9 8 1 3.84 2.5
9 8 2 0.17 2.17
9 8 2 2.3 2.65
9 8 3 4.12 2.32
9 8 3 2.92 2.61
9 8 4 28.87 4.03
9 8 4 32.68 4.12
9 8 5 38.76 4.36
9 8 5 52.04 4.72
9 8 6 1.4 2.08
9 8 6 -0.88 2.6
9 8 7 14.19 2.82
9 8 7 16.85 3.23
9 8 8 6.67 2.55
9 8 8 8.07 2.87
-9 -8 -9 2.85 1.78
9 9 4 5.97 2.42
9 9 4 4.15 2.75
9 9 5 8.02 2.62
9 9 5 10.66 3.15
9 9 6 1.37 2.13
9 9 6 0.14 2.63
loop_
_exptl_oxdiff_crystal_face_indexfrac_h
_exptl_oxdiff_crystal_face_indexfrac_k
_exptl_oxdiff_crystal_face_indexfrac_l
_exptl_oxdiff_crystal_face_x
_exptl_oxdiff_crystal_face_y
_exptl_oxdiff_crystal_face_z
-1.3714 -8.4116 -16.3294 0.4134 -0.1479 0.8985
1.7760 -9.0337 13.3315 -0.9361 0.3304 0.1203
0.5987 13.1049 10.8284 0.0093 -0.0012 -1.0000
-1.9578 2.0045 -17.8158 0.8720 -0.3088 0.3799
1.3793 -9.5609 -13.3434 0.2970 0.1596 0.9415
-4.3976 -14.9913 -1.9771 -0.5975 -0.3266 0.7323
-5.8289 -9.7242 7.3127 -0.8700 -0.4736 0.1375
-4.6263 -0.0279 13.3328 -0.7496 -0.4066 -0.5223
-0.1069 11.9384 11.9964 -0.1090 -0.0572 -0.9924
5.8286 8.9094 -8.1096 0.8762 0.4768 -0.0706
0.9051 -12.0685 -10.8829 0.0714 0.1458 0.9867
-8.0051 -11.2134 -5.9158 -0.3560 -0.7502 0.5572
-9.1966 -4.1467 0.7705 -0.4294 -0.9019 -0.0475
-5.6834 6.5624 8.3801 -0.2867 -0.5991 -0.7476
9.2472 5.0706 0.0058 0.4296 0.9027 -0.0231
-2.9995 0.9981 -5.0016 0.1997 -0.3418 0.0192
3.9991 -1.9974 5.0022 -0.2132 0.4532 0.0597
1.9998 1.0011 5.0006 -0.1476 0.2214 -0.1507
