#------------------------------------------------------------------------------
#$Date: 2022-02-04 21:21:59 +0200 (Fri, 04 Feb 2022) $
#$Revision: 272620 $
#$URL: file:///home/coder/svn-repositories/cod/cif/7/24/41/7244151.cif $
#------------------------------------------------------------------------------
#
# This file is available in the Crystallography Open Database (COD),
# http://www.crystallography.net/
#
# All data on this site have been placed in the public domain by the
# contributors.
#
data_7244151
loop_
_publ_author_name
'Rixson, Daniel'
'G\"unay Sezer, G\"une\,s'
'Alp, Emre'
'Mahon, Mary F.'
'Burrows, Andrew D.'
_publ_section_title
;
 Synthesis, structures and properties of metal--organic frameworks
 prepared using a semi-rigid tricarboxylate linker
;
_journal_issue                   4
_journal_name_full               CrystEngComm
_journal_page_first              863
_journal_page_last               876
_journal_paper_doi               10.1039/D1CE01284C
_journal_volume                  24
_journal_year                    2022
_chemical_formula_moiety         'C10 H11 Cd N O8'
_chemical_formula_sum            'C10 H11 Cd N O8'
_chemical_formula_weight         385.60
_space_group_crystal_system      triclinic
_space_group_IT_number           2
_space_group_name_Hall           '-P 1'
_space_group_name_H-M_alt        'P -1'
_atom_sites_solution_hydrogens   mixed
_atom_sites_solution_primary     iterative
_audit_creation_date             2018-08-02
_audit_creation_method
;
Olex2 1.2
(compiled 2018.05.29 svn.r3508 for OlexSys, GUI svn.r5506)
;
_audit_update_record
;
2021-07-19 deposited with the CCDC.	2021-12-20 downloaded from the CCDC.
;
_cell_angle_alpha                101.892(6)
_cell_angle_beta                 95.728(5)
_cell_angle_gamma                114.776(8)
_cell_formula_units_Z            2
_cell_length_a                   7.2467(6)
_cell_length_b                   8.5509(7)
_cell_length_c                   10.9978(6)
_cell_measurement_reflns_used    3496
_cell_measurement_temperature    150.0(2)
_cell_measurement_theta_max      30.0720
_cell_measurement_theta_min      4.0560
_cell_volume                     592.04(9)
_computing_cell_refinement       'CrysAlisPro 1.171.39.46 (Rigaku OD, 2018)'
_computing_data_collection       'CrysAlisPro 1.171.39.46 (Rigaku OD, 2018)'
_computing_data_reduction        'CrysAlisPro 1.171.39.46 (Rigaku OD, 2018)'
_computing_molecular_graphics    'Olex2 (Dolomanov et al., 2009)'
_computing_publication_material  'Olex2 (Dolomanov et al., 2009)'
_computing_structure_refinement  'ShelXL (Sheldrick, 2015)'
_computing_structure_solution    'olex2.solve (Bourhis et al., 2015)'
_diffrn_ambient_environment      N~2~
_diffrn_ambient_temperature      150.0(2)
_diffrn_detector                 'CCD plate'
_diffrn_detector_area_resol_mean 8.0734
_diffrn_detector_type            EosS2
_diffrn_measured_fraction_theta_full 0.998
_diffrn_measured_fraction_theta_max 0.839
_diffrn_measurement_device       'four-circle diffractometer'
_diffrn_measurement_device_type  'New Xcalibur, EosS2'
_diffrn_measurement_method       '\w scans'
_diffrn_radiation_monochromator  graphite
_diffrn_radiation_probe          x-ray
_diffrn_radiation_type           MoK\a
_diffrn_radiation_wavelength     0.71073
_diffrn_reflns_av_R_equivalents  0.0323
_diffrn_reflns_av_unetI/netI     0.0588
_diffrn_reflns_Laue_measured_fraction_full 0.998
_diffrn_reflns_Laue_measured_fraction_max 0.839
_diffrn_reflns_limit_h_max       9
_diffrn_reflns_limit_h_min       -10
_diffrn_reflns_limit_k_max       12
_diffrn_reflns_limit_k_min       -8
_diffrn_reflns_limit_l_max       15
_diffrn_reflns_limit_l_min       -15
_diffrn_reflns_number            5470
_diffrn_reflns_point_group_measured_fraction_full 0.998
_diffrn_reflns_point_group_measured_fraction_max 0.839
_diffrn_reflns_theta_full        25.242
_diffrn_reflns_theta_max         30.339
_diffrn_reflns_theta_min         3.348
_diffrn_source                   'fine-focus sealed X-ray tube'
_diffrn_source_type              'Enhance (Mo) X-ray Source'
_exptl_absorpt_coefficient_mu    1.886
_exptl_absorpt_correction_T_max  1.00000
_exptl_absorpt_correction_T_min  0.94691
_exptl_absorpt_correction_type   multi-scan
_exptl_absorpt_process_details
;
CrysAlisPro 1.171.39.46 (Rigaku Oxford Diffraction, 2018)
Empirical absorption correction using spherical harmonics,
 implemented in SCALE3 ABSPACK scaling algorithm.
;
_exptl_crystal_colour            'light brown'
_exptl_crystal_density_diffrn    2.163
_exptl_crystal_description       block
_exptl_crystal_F_000             380
_exptl_crystal_size_max          0.344
_exptl_crystal_size_mid          0.24
_exptl_crystal_size_min          0.083
_refine_diff_density_max         0.953
_refine_diff_density_min         -0.711
_refine_diff_density_rms         0.147
_refine_ls_extinction_method     none
_refine_ls_goodness_of_fit_ref   1.069
_refine_ls_hydrogen_treatment    mixed
_refine_ls_matrix_type           full
_refine_ls_number_parameters     205
_refine_ls_number_reflns         2988
_refine_ls_number_restraints     6
_refine_ls_restrained_S_all      1.068
_refine_ls_R_factor_all          0.0376
_refine_ls_R_factor_gt           0.0335
_refine_ls_shift/su_max          0.000
_refine_ls_shift/su_mean         0.000
_refine_ls_structure_factor_coef Fsqd
_refine_ls_weighting_details
'w=1/[\s^2^(Fo^2^)+(0.0162P)^2^+0.3140P] where P=(Fo^2^+2Fc^2^)/3'
_refine_ls_weighting_scheme      calc
_refine_ls_wR_factor_gt          0.0636
_refine_ls_wR_factor_ref         0.0668
_reflns_Friedel_coverage         0.000
_reflns_number_gt                2721
_reflns_number_total             2988
_reflns_threshold_expression     'I > 2\s(I)'
_iucr_refine_instructions_details
;

    e18adb5.res created by SHELXL-2014/7

TITL e18adb5
CELL 0.71073 7.2467 8.5509 10.9978 101.892 95.728 114.776
ZERR 2 0.0006 0.0007 0.0006 0.006 0.005 0.008
LATT 1
SFAC C H Cd N O
UNIT 20 22 2 2 16
EQIV $1 -1+X,-1+Y,+Z
EQIV $2 1-X,1-Y,-Z
EQIV $3 +X,-1+Y,+Z
EQIV $4 2-X,1-Y,1-Z
EQIV $5 1-X,-Y,-Z
DFIX 0.98 0.005 N1 H1
DFIX 0.98 0.005 O8 H8b O8 H8a
DFIX 0.98 0.005 O5 H5
DFIX 0.98 0.005 O7 H7b O7 H7a
 
L.S. 10 0 0
PLAN  4
SIZE 0.083 0.24 0.344
HTAB O5 O3_$1
HTAB N1 O2_$2
HTAB O7 O2_$3
HTAB O7 O3_$4
HTAB O7 O4_$4
HTAB O8 O6_$5
HTAB O8 O7_$5
list 4
more -3
fmap 2 53
acta
REM <olex2.extras>
REM <HklSrc "%.\\e18adb5.hkl">
REM </olex2.extras>
 
WGHT    0.016200    0.314000
FVAR       0.50022
CD1   3    0.866318    0.334409    0.086627    11.00000    0.01046    0.00999 =
         0.00758    0.00253    0.00181    0.00324
O1    5    0.889610    0.587567    0.032052    11.00000    0.01677    0.01704 =
         0.01940    0.01005    0.01091    0.00987
O2    5    0.780724    0.791458    0.025272    11.00000    0.02451    0.01249 =
         0.01409    0.00594    0.00438    0.00846
O3    5    1.016529    0.755821    0.631674    11.00000    0.01371    0.00998 =
         0.01011    0.00350    0.00188    0.00064
O4    5    0.891285    0.546606    0.735372    11.00000    0.01367    0.01551 =
         0.00878    0.00495   -0.00098    0.00006
O5    5    0.238118    0.019938    0.543402    11.00000    0.02220    0.01095 =
         0.01066    0.00355    0.00476   -0.00306
H5    2    0.134011   -0.101444    0.537999    11.00000    0.09474
O6    5    0.155886   -0.104614    0.332657    11.00000    0.01478    0.01197 =
         0.01468    0.00127    0.00228   -0.00273
O7    5    0.735236    0.073219    0.145521    11.00000    0.01518    0.00800 =
         0.01120    0.00050    0.00017    0.00211
H7A   2    0.762160   -0.025572    0.104099    11.00000    0.03228
H7B   2    0.820387    0.126589    0.231745    11.00000    0.04559
O8    5    0.669960    0.174655   -0.114901    11.00000    0.01413    0.02424 =
         0.01297   -0.00279    0.00204   -0.00104
H8A   2    0.746511    0.166123   -0.182329    11.00000    0.06165
H8B   2    0.529871    0.074852   -0.141058    11.00000    0.07494
N1    4    0.615544    0.423882    0.171612    11.00000    0.01155    0.00701 =
         0.00758    0.00315    0.00068    0.00267
H1    2    0.489983    0.332251    0.110749    11.00000    0.01001
C1    1    0.783417    0.666716    0.066073    11.00000    0.01268    0.01141 =
         0.00818   -0.00136   -0.00247    0.00394
C2    1    0.654889    0.606677    0.164602    11.00000    0.01629    0.01298 =
         0.01122    0.00598    0.00392    0.00733
AFIX  23
H2A   2    0.727519    0.690895    0.247381    11.00000   -1.20000
H2B   2    0.522849    0.608664    0.143412    11.00000   -1.20000
AFIX   0
C3    1    0.599865    0.392483    0.294442    11.00000    0.01017    0.01188 =
         0.00976    0.00446    0.00487    0.00575
C4    1    0.747297    0.511695    0.403001    11.00000    0.00836    0.00852 =
         0.01135    0.00328    0.00168    0.00205
AFIX  43
H4    2    0.853861    0.617655    0.397714    11.00000   -1.20000
AFIX   0
C5    1    0.735253    0.472325    0.519518    11.00000    0.00671    0.00839 =
         0.00967    0.00114    0.00202    0.00324
C6    1    0.893436    0.601607    0.636961    11.00000    0.00609    0.01279 =
         0.00824    0.00041    0.00141    0.00401
C7    1    0.579159    0.312313    0.527555    11.00000    0.01168    0.00940 =
         0.00899    0.00346    0.00431    0.00425
AFIX  43
H7    2    0.573608    0.285186    0.605181    11.00000   -1.20000
AFIX   0
C8    1    0.432067    0.193447    0.419966    11.00000    0.00775    0.00741 =
         0.01070    0.00052    0.00305    0.00377
C9    1    0.261292    0.021356    0.424880    11.00000    0.01161    0.01243 =
         0.01346    0.00420    0.00385    0.00449
C10   1    0.440712    0.233480    0.302697    11.00000    0.00906    0.01043 =
         0.00853    0.00091    0.00033    0.00536
AFIX  43
H10   2    0.340654    0.154275    0.230645    11.00000   -1.20000
AFIX   0
HKLF 4
 
REM  e18adb5
REM R1 =  0.0335 for    2721 Fo > 4sig(Fo)  and  0.0376 for all    2988 data
REM    205 parameters refined using      6 restraints
 
END  
     
WGHT      0.0162      0.3140 

REM Highest difference peak  0.953,  deepest hole -0.711,  1-sigma level  0.147
Q1    1   0.8763  0.2414  0.0656  11.00000  0.05    0.95
Q2    1   0.8471  0.7363  0.0230  11.00000  0.05    0.93
Q3    1   0.5466  0.2170  0.4665  11.00000  0.05    0.61
Q4    1   0.7506  0.3257  0.0364  11.00000  0.05    0.60

  REM The information below was added by Olex2.
  REM
  REM R1 = 0.0335 for 2721 Fo > 4sig(Fo) and 0.0376 for all 5470 data
  REM n/a parameters refined using n/a restraints
  REM Highest difference peak 0.95, deepest hole -0.71
  REM Mean Shift 0, Max Shift 0.000.

  REM +++ Tabular Listing of Refinement Information +++
  REM R1_all = 0.0376
  REM R1_gt = 0.0335
  REM wR_ref = 0.0668
  REM GOOF = 1.069
  REM Shift_max = 0.000
  REM Shift_mean = 0
  REM Reflections_all = 5470
  REM Reflections_gt = 2721
  REM Parameters = n/a
  REM Hole = -0.71
  REM Peak = 0.95
  REM Flack = n/a

  
;
_cod_data_source_file            d1ce01284c2.cif
_cod_data_source_block           e18adb5
_cod_depositor_comments
'Adding full bibliography for 7244143--7244152.cif.'
_cod_original_cell_volume        592.04(8)
_cod_database_code               7244151
_shelx_shelxl_version_number     2014/7
_chemical_oxdiff_usercomment     'Light Brown Block'
_shelx_space_group_comment
;
The symmetry employed for this shelxl refinement is uniquely defined
by the following loop, which should always be used as a source of
symmetry information in preference to the above space-group names.
They are only intended as comments.
;
_shelx_estimated_absorpt_t_max   0.859
_shelx_estimated_absorpt_t_min   0.563
_olex2_refinement_description
;
1. Fixed Uiso
 At 1.2 times of:
  All C(H) groups, All C(H,H) groups
2. Restrained distances
 N1-H1
 0.98 with sigma of 0.005
 O8-H8B = O8-H8A
 0.98 with sigma of 0.005
 O5-H5
 0.98 with sigma of 0.005
 O7-H7B = O7-H7A
 0.98 with sigma of 0.005
3.a Secondary CH2 refined with riding coordinates:
 C2(H2A,H2B)
3.b Aromatic/amide H refined with riding coordinates:
 C4(H4), C7(H7), C10(H10)
;
_olex2_submission_special_instructions 'No special instructions were received'
loop_
_space_group_symop_operation_xyz
'x, y, z'
'-x, -y, -z'
loop_
_atom_site_label
_atom_site_type_symbol
_atom_site_fract_x
_atom_site_fract_y
_atom_site_fract_z
_atom_site_U_iso_or_equiv
_atom_site_adp_type
_atom_site_occupancy
_atom_site_site_symmetry_order
_atom_site_calc_flag
_atom_site_refinement_flags_posn
_atom_site_refinement_flags_adp
_atom_site_refinement_flags_occupancy
_atom_site_disorder_assembly
_atom_site_disorder_group
Cd1 Cd 0.86632(3) 0.33441(3) 0.08663(2) 0.00983(8) Uani 1 1 d . . . . .
O1 O 0.8896(3) 0.5876(3) 0.0321(2) 0.0155(5) Uani 1 1 d . . . . .
O2 O 0.7807(4) 0.7915(3) 0.0253(2) 0.0166(5) Uani 1 1 d . . . . .
O3 O 1.0165(3) 0.7558(3) 0.6317(2) 0.0129(5) Uani 1 1 d . . . . .
O4 O 0.8913(3) 0.5466(3) 0.7354(2) 0.0150(5) Uani 1 1 d . . . . .
O5 O 0.2381(4) 0.0199(3) 0.5434(2) 0.0182(5) Uani 1 1 d D . . . .
H5 H 0.134(7) -0.101(3) 0.538(5) 0.09(2) Uiso 1 1 d D . . . .
O6 O 0.1559(3) -0.1046(3) 0.3327(2) 0.0174(5) Uani 1 1 d . . . . .
O7 O 0.7352(3) 0.0732(3) 0.1455(2) 0.0131(5) Uani 1 1 d D . . . .
H7A H 0.762(6) -0.026(3) 0.104(3) 0.032(12) Uiso 1 1 d D . . . .
H7B H 0.820(5) 0.127(5) 0.2317(15) 0.046(13) Uiso 1 1 d D . . . .
O8 O 0.6700(4) 0.1747(3) -0.1149(2) 0.0220(6) Uani 1 1 d D . . . .
H8A H 0.747(6) 0.166(6) -0.182(3) 0.062(16) Uiso 1 1 d D . . . .
H8B H 0.530(3) 0.075(5) -0.141(5) 0.075(18) Uiso 1 1 d D . . . .
N1 N 0.6155(4) 0.4239(3) 0.1716(2) 0.0092(5) Uani 1 1 d D . . . .
H1 H 0.490(3) 0.332(3) 0.111(2) 0.010(9) Uiso 1 1 d D . . . .
C1 C 0.7834(5) 0.6667(4) 0.0661(3) 0.0123(6) Uani 1 1 d . . . . .
C2 C 0.6549(5) 0.6067(4) 0.1646(3) 0.0127(7) Uani 1 1 d . . . . .
H2A H 0.7275 0.6909 0.2474 0.015 Uiso 1 1 calc R . . . .
H2B H 0.5228 0.6087 0.1434 0.015 Uiso 1 1 calc R . . . .
C3 C 0.5999(5) 0.3925(4) 0.2944(3) 0.0099(6) Uani 1 1 d . . . . .
C4 C 0.7473(5) 0.5117(4) 0.4030(3) 0.0100(6) Uani 1 1 d . . . . .
H4 H 0.8539 0.6177 0.3977 0.012 Uiso 1 1 calc R . . . .
C5 C 0.7353(4) 0.4723(4) 0.5195(3) 0.0085(6) Uani 1 1 d . . . . .
C6 C 0.8934(5) 0.6016(4) 0.6370(3) 0.0095(6) Uani 1 1 d . . . . .
C7 C 0.5792(5) 0.3123(4) 0.5276(3) 0.0099(6) Uani 1 1 d . . . . .
H7 H 0.5736 0.2852 0.6052 0.012 Uiso 1 1 calc R . . . .
C8 C 0.4321(5) 0.1934(4) 0.4200(3) 0.0087(6) Uani 1 1 d . . . . .
C9 C 0.2613(5) 0.0214(4) 0.4249(3) 0.0126(7) Uani 1 1 d . . . . .
C10 C 0.4407(5) 0.2335(4) 0.3027(3) 0.0094(6) Uani 1 1 d . . . . .
H10 H 0.3407 0.1543 0.2306 0.011 Uiso 1 1 calc R . . . .
loop_
_atom_site_aniso_label
_atom_site_aniso_U_11
_atom_site_aniso_U_22
_atom_site_aniso_U_33
_atom_site_aniso_U_23
_atom_site_aniso_U_13
_atom_site_aniso_U_12
Cd1 0.01046(13) 0.00999(12) 0.00758(11) 0.00253(9) 0.00181(8) 0.00324(9)
O1 0.0168(12) 0.0170(12) 0.0194(12) 0.0100(10) 0.0109(10) 0.0099(10)
O2 0.0245(13) 0.0125(12) 0.0141(11) 0.0059(10) 0.0044(10) 0.0085(10)
O3 0.0137(11) 0.0100(11) 0.0101(10) 0.0035(9) 0.0019(9) 0.0006(9)
O4 0.0137(12) 0.0155(12) 0.0088(10) 0.0050(9) -0.0010(9) 0.0001(9)
O5 0.0222(13) 0.0110(12) 0.0107(11) 0.0035(9) 0.0048(10) -0.0031(10)
O6 0.0148(12) 0.0120(12) 0.0147(11) 0.0013(10) 0.0023(9) -0.0027(10)
O7 0.0152(12) 0.0080(11) 0.0112(11) 0.0005(9) 0.0002(9) 0.0021(9)
O8 0.0141(13) 0.0242(14) 0.0130(11) -0.0028(10) 0.0020(10) -0.0010(11)
N1 0.0115(13) 0.0070(12) 0.0076(11) 0.0031(10) 0.0007(10) 0.0027(10)
C1 0.0127(16) 0.0114(15) 0.0082(14) -0.0014(12) -0.0025(12) 0.0039(13)
C2 0.0163(16) 0.0130(16) 0.0112(14) 0.0060(13) 0.0039(12) 0.0073(13)
C3 0.0102(15) 0.0119(15) 0.0098(14) 0.0045(12) 0.0049(12) 0.0057(12)
C4 0.0084(15) 0.0085(15) 0.0114(14) 0.0033(12) 0.0017(11) 0.0020(12)
C5 0.0067(14) 0.0084(14) 0.0097(13) 0.0011(12) 0.0020(11) 0.0032(12)
C6 0.0061(14) 0.0128(15) 0.0082(13) 0.0004(12) 0.0014(11) 0.0040(12)
C7 0.0117(15) 0.0094(15) 0.0090(14) 0.0035(12) 0.0043(12) 0.0042(12)
C8 0.0078(14) 0.0074(14) 0.0107(14) 0.0005(12) 0.0031(11) 0.0038(12)
C9 0.0116(16) 0.0124(16) 0.0135(15) 0.0042(13) 0.0038(12) 0.0045(13)
C10 0.0091(15) 0.0104(15) 0.0085(13) 0.0009(12) 0.0003(11) 0.0054(12)
loop_
_atom_type_symbol
_atom_type_description
_atom_type_scat_dispersion_real
_atom_type_scat_dispersion_imag
_atom_type_scat_source
C C 0.0033 0.0016 'International Tables Vol C Tables 4.2.6.8 and 6.1.1.4'
H H 0.0000 0.0000 'International Tables Vol C Tables 4.2.6.8 and 6.1.1.4'
Cd Cd -0.8075 1.2024 'International Tables Vol C Tables 4.2.6.8 and 6.1.1.4'
N N 0.0061 0.0033 'International Tables Vol C Tables 4.2.6.8 and 6.1.1.4'
O O 0.0106 0.0060 'International Tables Vol C Tables 4.2.6.8 and 6.1.1.4'
loop_
_geom_angle_atom_site_label_1
_geom_angle_atom_site_label_2
_geom_angle_atom_site_label_3
_geom_angle
_geom_angle_site_symmetry_1
_geom_angle_site_symmetry_3
_geom_angle_publ_flag
O1 Cd1 O1 71.36(9) 2_765 . ?
O1 Cd1 O7 125.71(8) 2_765 . ?
O1 Cd1 O8 78.71(8) 2_765 . ?
O1 Cd1 N1 69.92(8) . . ?
O1 Cd1 N1 141.25(8) 2_765 . ?
O4 Cd1 O1 91.45(8) 2_766 2_765 ?
O4 Cd1 O1 101.42(8) 2_766 . ?
O4 Cd1 O7 87.60(8) 2_766 . ?
O4 Cd1 O8 164.52(9) 2_766 . ?
O4 Cd1 N1 97.25(9) 2_766 . ?
O7 Cd1 O1 160.92(8) . . ?
O7 Cd1 O8 88.53(9) . . ?
O7 Cd1 N1 92.45(8) . . ?
O8 Cd1 O1 86.84(9) . . ?
O8 Cd1 N1 97.89(9) . . ?
Cd1 O1 Cd1 108.64(9) 2_765 . ?
C1 O1 Cd1 127.3(2) . 2_765 ?
C1 O1 Cd1 124.1(2) . . ?
C6 O4 Cd1 128.25(19) . 2_766 ?
C2 N1 Cd1 112.24(17) . . ?
C3 N1 Cd1 109.8(2) . . ?
C3 N1 C2 115.8(2) . . ?
O1 C1 C2 117.3(3) . . ?
O2 C1 O1 123.5(3) . . ?
O2 C1 C2 119.2(3) . . ?
N1 C2 C1 112.7(3) . . ?
C4 C3 N1 121.3(3) . . ?
C4 C3 C10 119.8(3) . . ?
C10 C3 N1 118.8(3) . . ?
C3 C4 C5 120.0(3) . . ?
C4 C5 C6 120.0(3) . . ?
C7 C5 C4 120.3(3) . . ?
C7 C5 C6 119.7(3) . . ?
O3 C6 O4 124.7(3) . . ?
O3 C6 C5 118.7(3) . . ?
O4 C6 C5 116.6(3) . . ?
C8 C7 C5 119.9(3) . . ?
C7 C8 C9 121.6(3) . . ?
C7 C8 C10 120.2(3) . . ?
C10 C8 C9 118.3(3) . . ?
O5 C9 C8 112.0(3) . . ?
O6 C9 O5 123.4(3) . . ?
O6 C9 C8 124.6(3) . . ?
C3 C10 C8 119.8(3) . . ?
loop_
_geom_bond_atom_site_label_1
_geom_bond_atom_site_label_2
_geom_bond_distance
_geom_bond_site_symmetry_2
_geom_bond_publ_flag
Cd1 O1 2.307(2) . ?
Cd1 O1 2.260(2) 2_765 ?
Cd1 O4 2.224(2) 2_766 ?
Cd1 O7 2.291(2) . ?
Cd1 O8 2.301(2) . ?
Cd1 N1 2.444(3) . ?
O1 Cd1 2.260(2) 2_765 ?
O1 C1 1.257(4) . ?
O2 C1 1.246(4) . ?
O3 C6 1.263(4) . ?
O4 Cd1 2.224(2) 2_766 ?
O4 C6 1.265(4) . ?
O5 C9 1.333(4) . ?
O6 C9 1.216(4) . ?
N1 C2 1.487(4) . ?
N1 C3 1.437(4) . ?
C1 C2 1.528(4) . ?
C3 C4 1.392(4) . ?
C3 C10 1.394(4) . ?
C4 C5 1.392(4) . ?
C5 C6 1.503(4) . ?
C5 C7 1.390(4) . ?
C7 C8 1.383(4) . ?
C8 C9 1.490(4) . ?
C8 C10 1.402(4) . ?
loop_
_geom_hbond_atom_site_label_D
_geom_hbond_atom_site_label_H
_geom_hbond_atom_site_label_A
_geom_hbond_distance_DH
_geom_hbond_distance_HA
_geom_hbond_distance_DA
_geom_hbond_angle_DHA
_geom_hbond_site_symmetry_A
O5 H5 O3 0.979(5) 1.76(4) 2.607(3) 143(5) 1_445
O7 H7A O2 0.978(5) 1.691(7) 2.665(3) 174(4) 1_545
O7 H7B O3 0.978(5) 1.640(9) 2.611(3) 171(4) 2_766
O7 H7B O4 0.978(5) 2.62(4) 3.126(3) 113(3) 2_766
O8 H8A O6 0.978(5) 1.923(12) 2.887(3) 168(4) 2_655
O8 H8B O7 0.978(5) 1.793(16) 2.742(3) 163(5) 2_655
N1 H1 O2 0.977(5) 2.056(12) 3.002(4) 162(3) 2_665
loop_
_refln_index_h
_refln_index_k
_refln_index_l
_refln_F_squared_meas
_refln_F_squared_sigma
0 0 -2 1000.48 27.73
0 0 2 986.67 27.6
0 0 2 1005.39 29.96
0 0 -3 1.59 0.78
0 0 3 2.81 1.15
0 0 3 0.37 0.38
0 0 -4 849.76 27.24
0 0 4 837.97 30.83
0 0 4 916.51 26.92
0 0 -5 1070.47 34.27
0 0 5 1101.99 39.15
0 0 5 1140.06 33.74
0 0 -6 545.33 23.72
0 0 6 527.97 25.22
0 0 -6 536.23 21.18
0 0 6 577.22 20.33
0 0 7 185.58 9.81
0 0 7 159.99 13.35
0 0 -7 164.91 12.2
0 0 -7 152.32 9.98
0 0 8 78.66 9.78
0 0 -8 57.48 7.42
0 0 -8 70.52 6.73
0 0 -9 -1.89 1.58
0 0 9 -0.6 1.82
0 0 -9 1.75 1.47
0 0 -10 90.44 10.59
0 0 10 83.61 11.64
0 0 -10 104.64 8.72
0 0 11 411.18 28.79
0 0 -11 418.16 25.54
0 0 12 259.96 23.45
0 0 -12 236.38 19.41
0 0 13 121.5 16.91
0 0 -13 139.84 17.54
0 -1 14 248.84 24.82
0 1 -14 247.35 24.96
0 -1 13 -1.35 2.52
0 1 -13 -0.32 2.04
0 1 -13 3.18 3.43
0 1 -12 48.61 8.34
0 1 -12 27.23 7.51
0 -1 12 29.13 7.63
0 1 -11 404.13 28.71
0 1 -11 468.92 26.77
0 -1 11 378.37 27.01
0 1 -10 809.76 36.38
0 -1 10 767.86 38.38
0 1 -10 754.35 39.64
0 1 -9 170.55 13.97
0 -1 9 198.56 11.67
0 -1 9 188.53 15.99
0 -1 8 293.36 14.18
0 1 -8 294.38 17.75
0 1 -8 279.01 14.53
0 -1 8 259.71 18.08
0 1 -7 59.9 6.99
0 -1 7 51.33 6.87
0 1 -7 53.37 5.59
0 -1 7 67.81 5.84
0 -1 6 110.6 7.52
0 1 -6 106.66 7.63
0 1 -6 128.14 9.64
0 1 -5 225.5 12.63
0 1 -5 238.78 11.38
0 -1 5 223.8 10.99
0 -1 4 384.04 15.32
0 1 -4 408.05 15.27
0 1 -4 365.19 16.14
0 -1 4 396.89 16.64
0 1 -3 344.42 13.74
0 1 -3 308.83 14.72
0 -1 3 352.46 13.87
0 -1 3 315.78 12.85
0 -1 2 49.24 3.78
0 1 -2 40.91 3.88
0 1 -2 48.35 3.79
0 -1 2 40.35 3.96
0 -1 -1 2637.81 70.9
0 1 1 2579.5 70.87
0 1 2 188.9 9.91
0 -1 -2 190.57 9.82
0 -1 -3 727.8 26.14
0 -1 -3 694.91 22.83
0 1 3 706.93 26.17
0 1 4 394.9 19.37
0 -1 -4 445.01 16.47
0 -1 -5 105.23 7.04
0 1 5 101.43 9.46
0 1 5 93.54 4.99
0 -1 -6 349.43 15.8
0 1 6 316.02 19.57
0 1 6 354.99 11.62
0 -1 -7 1337.61 42.69
0 1 7 1259.09 50.23
0 1 8 357.23 23.44
0 -1 -8 337.56 17.07
0 -1 -9 1104.82 39.16
0 1 9 1082.26 48.96
0 1 10 51.64 9.55
0 -1 -10 48.38 7.88
0 -1 -11 30.51 6.36
0 1 11 34.19 8.02
0 -1 -12 170.96 16.65
0 1 12 191.58 20.83
0 1 13 95.16 15.31
0 2 -15 13.04 6.56
0 2 -14 312.84 28.78
0 -2 14 321.12 27.62
0 2 -13 286.8 22.38
0 2 -13 287.05 26.17
0 -2 13 274.03 24.09
0 2 -12 254.68 23.42
0 2 -12 257.83 20.12
0 -2 12 213.19 20.06
0 2 -11 33.78 6.74
0 2 -11 31.05 7.49
0 -2 11 31.09 6.88
0 2 -10 3.11 2.25
0 -2 10 9.88 4.02
0 2 -10 5.7 3.03
0 -2 9 300.23 19.92
0 2 -9 275.17 21.38
0 2 -9 285.83 18.85
0 -2 9 305.39 16.21
0 2 -8 816.17 39.15
0 2 -8 851.52 35.47
0 -2 8 883.95 32.31
0 2 -7 1340.34 52.6
0 2 -7 1412.23 49.02
0 -2 7 1396.84 46.31
0 2 -7 1417.67 40.11
0 -2 6 536.78 23.46
0 -2 6 483.71 21.48
0 2 -6 455.96 24.65
0 2 -6 528.01 17.97
0 2 -6 488.8 22.65
0 -2 5 181.43 11.53
0 2 -5 177.62 11.49
0 -2 5 175.49 11
0 2 -5 179.88 13.16
0 2 -4 602.5 22.87
0 -2 4 542.07 22.19
0 -2 4 556.61 21.86
0 2 -4 552.28 24.32
0 -2 3 1477.8 44.45
0 2 -3 1397.77 47.23
0 -2 3 1523.1 48.12
0 -2 3 1570.12 46.42
0 2 -2 1160.63 34.05
0 2 -2 1073.42 36.24
0 -2 2 1181.09 37.11
0 -2 2 1109.52 35.57
0 -2 2 1109.21 34.19
0 -2 1 3029.78 80.84
0 -2 1 3049.91 82.6
0 2 -1 2930.22 82.32
0 2 -1 2872.18 80.85
0 -2 0 118.67 7.16
0 2 0 116.7 6.96
0 2 0 117.82 7.09
0 -2 0 108.72 6.62
0 -2 -1 2.81 1.26
0 -2 -1 1.06 0.89
0 2 1 1.29 0.82
0 -2 -2 137.79 9.07
0 2 2 118.91 8.73
0 -2 -3 72.21 7.06
0 2 3 57.97 6.51
0 2 4 2264.37 71.54
0 -2 -4 2261.09 66.31
0 -2 -5 305.17 15.29
0 2 5 345.93 14.64
0 2 5 297.74 18.81
0 2 6 59.42 5.18
0 2 6 55.48 8.05
0 -2 -6 63.61 6.45
0 2 7 2.69 1.25
0 2 7 1.91 2.27
0 -2 -7 0.17 0.87
0 2 8 403.74 26.71
0 -2 -8 428.46 20.72
0 2 9 511.76 32.09
0 -2 -9 516.65 23.84
0 2 10 477.86 32.35
0 -2 -11 90.57 11.99
0 2 11 128.9 16.81
0 2 12 33.31 9.24
0 3 -15 8.32 4.12
0 -3 15 15.44 6.49
0 -3 14 53.53 10.55
0 3 -14 37.75 9.7
0 3 -13 287.92 26.64
0 3 -13 285.3 22.54
0 -3 13 286.04 23.95
0 3 -12 312.4 26.76
0 3 -12 303.85 22.68
0 -3 12 328.95 24.34
0 3 -11 424.85 30.8
0 -3 11 468.78 28.38
0 3 -11 505.22 28.74
0 3 -10 47.56 7.83
0 3 -10 31.86 7.61
0 -3 10 59.06 8.63
0 3 -9 22.87 5.89
0 3 -9 38.82 6.68
0 3 -9 28.84 3.4
0 3 -8 136.87 14.17
0 3 -8 128.52 8.36
0 3 -8 120.23 11.5
0 3 -7 837.68 39.04
0 3 -7 900.2 36.34
0 3 -7 902.72 31.07
0 3 -6 1180.11 47.32
0 -3 6 1303.45 44.02
0 3 -6 1234.83 44.71
0 -3 6 1208.49 43.99
0 3 -5 896.09 37.64
0 -3 5 926.64 34.97
0 -3 5 984.07 34.25
0 -3 4 605.33 23.3
0 -3 4 572.27 24.52
0 3 -4 548.13 25.82
0 -3 3 334.55 15.37
0 -3 3 347.35 18
0 3 -3 329.86 17.49
0 3 -3 318.95 14.6
0 -3 3 328.92 16.6
0 -3 2 1331.86 42.73
0 3 -2 1378.88 42.88
0 3 -2 1360.04 45.5
0 -3 2 1472.8 46.47
0 -3 1 995.25 33.78
0 -3 1 935.52 31.37
0 3 -1 935.57 33.24
0 3 -1 918.92 31.93
0 3 0 944.29 33.99
0 -3 0 1020.49 33.79
0 -3 0 1038.18 34.67
0 3 0 1000.47 34.26
0 -3 -1 570.16 22.79
0 -3 -1 561.27 23.17
0 3 1 586.3 23.82
0 -3 -2 70.89 7.28
0 3 2 69.77 7.32
0 -3 -2 70.22 6.68
0 3 3 4.63 2.32
0 3 4 124.45 11.52
0 3 5 796.24 35.96
0 -3 -5 773 30.72
0 3 6 426.16 26.05
0 -3 -6 457.85 21.63
0 3 6 401.08 19.27
0 -3 -7 285.28 16.95
0 3 7 297.08 15.38
0 3 7 291.33 22.06
0 3 8 280.02 14.38
0 3 8 271.57 22.59
0 -3 -8 292.98 17.56
0 3 9 -0.95 2.5
0 3 10 78.99 13.03
0 3 11 427.34 33.27
0 -4 15 298.05 26.61
0 -4 14 107.32 14.9
0 4 -14 130.06 18.77
0 -4 13 29.79 7.3
0 4 -13 22.35 7.42
0 4 -12 34.62 8.76
0 -4 12 59.26 9.72
0 4 -11 80.35 12.81
0 4 -10 96.09 13.28
0 4 -10 93.24 7.73
0 4 -9 266.58 22.23
0 4 -9 282.14 15.29
0 4 -8 45.58 8.41
0 4 -8 55.34 6.49
0 4 -7 2.86 2.23
0 4 -6 52.83 8.21
0 4 -5 628.19 30.67
0 -4 5 645.41 27.07
0 4 -4 1362.02 50.58
0 -4 4 1368.41 46.35
0 4 -4 1424.27 45.74
0 4 -3 1374.86 48.63
0 -4 3 1316.05 44.38
0 4 -3 1345.26 44.12
0 4 -2 1768.34 58.96
0 -4 2 1817.47 55.7
0 4 -2 1767.86 56.56
0 4 -1 558.07 24.01
0 -4 1 566.25 22.99
0 -4 1 592.03 25.31
0 4 0 201.7 13.36
0 -4 0 223.73 13.3
0 -4 0 215.63 13.83
0 4 0 214.22 13.69
0 -4 -1 1318.78 45.42
0 4 1 1297.29 46.25
0 4 2 1217.11 45.37
0 4 3 809.95 35.42
0 4 4 41.49 7.09
0 4 5 104.65 12.14
0 4 6 77.65 10.99
0 -4 -6 68.94 8.38
0 4 6 61.73 7.57
0 4 7 468.28 23.45
0 4 7 503.05 31.59
0 -4 -7 497.42 25.67
0 -4 -8 307.81 19.45
0 4 8 273.19 23.84
0 4 9 103.26 14.84
0 4 10 1.39 1.73
0 4 11 44.19 10.69
0 5 -14 207.68 24.44
0 5 -13 394.02 33.43
0 -5 13 449.76 29.43
0 5 -12 251.96 24.99
0 5 -11 14.28 5.59
0 5 -10 6.61 2.24
0 5 -10 1 1.65
0 5 -9 244.78 22.24
0 5 -9 317.29 18.68
0 5 -8 506.06 31.53
0 5 -7 685.73 36.38
0 5 -6 170.78 15.78
0 5 -5 8.29 3.45
0 5 -4 83.4 8.08
0 -5 4 95.22 8.87
0 5 -4 81.29 9.93
0 5 -3 444.3 24.42
0 -5 3 434.95 20.83
0 5 -3 409.25 20.87
0 -5 2 487.56 22.72
0 5 -2 499.19 25.6
0 5 -2 495.29 23.88
0 5 -1 43.1 6.37
0 5 -1 35.4 5.99
0 5 0 5.6 2.68
0 5 0 2.27 1.66
0 5 1 33.24 6.11
0 5 2 211.96 16.44
0 5 3 569.28 30.51
0 5 4 425.12 26.64
0 5 5 687.45 32.86
0 5 5 671.15 36.56
0 -5 -6 62.67 8.83
0 5 6 80.29 9.72
0 5 6 75.19 11.63
0 5 7 13.13 3.86
0 -5 -7 15.82 4.68
0 5 7 13.01 5.33
0 5 8 242.33 23.5
0 5 9 282.49 26.69
0 5 10 134.7 18.85
0 6 -13 80.47 14.9
0 6 -12 157.71 20.32
0 6 -11 260.18 25.34
0 6 -10 276.11 25.13
0 6 -10 281.49 19.41
0 6 -9 16.81 5.76
0 6 -9 17.55 4.66
0 6 -8 188.75 19
0 6 -7 347.62 25.59
0 6 -6 1399.48 58.33
0 6 -5 847.38 34.33
0 6 -5 785.53 39.6
0 6 -4 85.71 10.94
0 6 -4 78.46 8.73
0 6 -3 22.82 5.66
0 6 -3 29.33 5.36
0 6 -2 162 13.74
0 6 -2 179.24 15.47
0 6 -1 358.92 22.55
0 6 -1 354.52 21.94
0 6 0 384.37 23.66
0 6 1 164.33 15.12
0 6 2 800.07 38.76
0 6 3 148.32 15.38
0 6 4 80.02 11.71
0 6 5 274.63 20.87
0 6 5 307.15 24.69
0 -6 -6 585.35 32.85
0 6 6 629.47 33.29
0 6 6 639.43 38.98
0 -6 -7 168.92 16.41
0 6 7 202.32 21.45
0 6 8 15.26 6.18
0 7 -12 -1.07 2.02
0 7 -11 251.18 25.67
0 7 -10 217.89 22.82
0 7 -10 154.47 15.5
0 7 -9 418.53 31.99
0 7 -9 458.69 28.39
0 7 -8 42.43 9.27
0 7 -7 13.74 5.38
0 7 -6 111.86 14.31
0 7 -5 278.75 22.94
0 7 -5 336.76 20.19
0 7 -4 601.24 29.37
0 7 -4 553.03 33.03
0 7 -3 130.03 12.75
0 7 -3 121.27 13.77
0 7 -2 140.71 14.72
0 7 -2 131.98 13.42
0 7 -1 18.24 4.92
0 7 -1 17.71 5.06
0 7 0 167.25 16.19
0 7 1 306.8 23.21
0 7 2 466.15 30.27
0 7 3 192.22 19.24
0 7 4 18.09 6.16
0 7 4 8.65 3.87
0 7 5 4.78 3.21
0 7 5 13.14 5.05
0 7 6 87.24 12.33
0 -7 -6 69.6 11.09
0 7 6 66.64 12.5
0 7 7 180.21 21.81
0 8 -11 8.7 4.84
0 8 -10 55.75 9.97
0 8 -10 48.12 11.15
0 8 -9 151.78 16.75
0 8 -9 113.42 16.69
0 8 -8 265.44 22.58
0 8 -8 211.73 22.58
0 8 -7 243.64 23.46
0 8 -6 181.88 19.69
0 8 -5 -2.25 1.76
0 8 -5 3.07 3.36
0 8 -4 116.18 12.65
0 8 -4 115.32 14.77
0 8 -3 100.69 13.41
0 8 -3 87.5 11.24
0 8 -2 608.46 33.62
0 8 -2 545.56 33.92
0 8 -1 516.21 31.69
0 8 0 90.68 12.85
0 8 1 22.86 6.49
0 8 2 136.76 17.02
0 8 3 348.66 28.34
0 8 3 302.14 25.63
0 8 4 162.67 19.74
0 8 4 157.83 18.1
0 8 5 154.15 19.76
0 8 5 149.69 17.65
0 -8 -6 6.23 3.98
0 8 6 8.61 5.21
0 9 -10 107.39 15.11
0 9 -9 29.75 7.92
0 9 -9 33.22 9.23
0 9 -8 57.47 11.98
0 9 -8 63.8 11.82
0 9 -7 238.99 24.41
0 9 -7 255.71 24.16
0 9 -6 192.64 21.44
0 9 -5 191.77 20.82
0 9 -4 8.93 4.53
0 9 -3 8.13 4.54
0 9 -2 91.46 12.7
0 9 -1 237.69 21.99
0 9 0 321.96 26.85
0 9 1 153.61 18.42
0 9 1 134.04 17.76
0 9 2 78.45 13.45
0 9 2 54.87 11.59
0 9 3 9.68 5.56
0 9 3 5.85 4.26
0 9 4 100.23 15.39
0 9 4 114.49 17.51
0 9 5 236.1 24.27
0 10 -9 240.51 24.84
0 10 -8 98.83 15.6
0 10 -7 3.81 3.93
0 10 -7 -1.86 2.39
0 10 -6 110.19 16.87
0 10 -6 112.52 16.98
0 10 -5 136.12 18.71
0 10 -5 148.14 19.72
0 10 -4 140.65 19.22
0 10 -4 156.86 19.68
0 10 -3 161 20.64
-1 11 -4 262.42 26.17
-1 11 -5 88.91 15.25
-1 10 3 -2.98 4.03
-1 10 2 10.85 5.38
-1 10 1 115.82 17.36
-1 10 0 159.48 19.75
-1 10 -1 105.31 15.57
-1 10 -2 1.44 2.21
-1 10 -3 7.68 4.22
-1 10 -3 9.34 4.28
-1 10 -4 94.34 14.56
-1 10 -5 218.87 22.85
-1 10 -6 268.88 26.01
-1 10 -7 83.58 14.53
-1 10 -8 16.96 6.51
-1 10 -10 163.49 19.74
-1 9 5 288.71 28.96
-1 9 5 236.4 23.75
-1 9 4 359.61 31.98
-1 9 3 380.66 31.97
-1 9 2 156.34 19.44
-1 9 1 0.99 2.36
-1 9 0 258.4 23.87
-1 9 -1 226.74 21.89
-1 9 -2 205.27 19.77
-1 9 -2 250.27 22.06
-1 9 -3 169.51 17.95
-1 9 -3 177.33 17.87
-1 9 -4 13.51 5.34
-1 9 -4 4.51 2.32
-1 9 -5 17.83 6.27
-1 9 -5 18.91 5.43
-1 9 -6 63.04 11.85
-1 9 -6 56.02 9.35
-1 9 -7 114.29 16.33
-1 9 -8 251.17 25.15
-1 9 -9 79.1 14.19
-1 9 -10 18.27 7.07
-1 8 6 3.5 2.8
-1 8 6 -0.48 1.54
-1 8 5 2.21 2.24
-1 8 4 36.66 9.03
-1 8 3 91.48 14.09
-1 8 2 679.11 40.58
-1 8 1 34.23 8.17
-1 8 0 158.67 17.29
-1 8 -1 157.99 16.63
-1 8 -1 123.65 13.94
-1 8 -2 144.33 15.03
-1 8 -2 145.28 15.73
-1 8 -3 484.38 30.05
-1 8 -3 474.47 29.16
-1 8 -4 675.74 37.83
-1 8 -4 725.32 36.61
-1 8 -5 133.64 15.74
-1 8 -5 150.6 14.68
-1 8 -6 13.63 5.01
-1 8 -6 6.89 3.6
-1 8 -7 -0.26 2.44
-1 8 -8 126.29 16.67
-1 8 -9 344.16 29.36
-1 8 -10 123.29 17.85
-1 8 -11 147.21 20.01
-1 7 8 28.34 8.45
-1 7 7 131.59 18.35
-1 7 6 309.17 27.33
-1 7 5 131.38 16.79
-1 7 4 57.72 10.61
-1 7 3 125.68 15.31
-1 7 2 202.71 19.08
-1 7 1 565.37 33.23
-1 7 0 331.89 23.78
-1 7 -1 465.66 28.02
-1 7 -1 414.33 24.94
-1 7 -2 92.39 11.42
-1 7 -2 54.96 8.52
-1 7 -3 17.36 4.91
-1 7 -3 23.92 5.59
-1 7 -4 423.85 27.04
-1 7 -4 452.63 26.04
-1 7 -5 659.9 32.3
-1 7 -5 626.08 35.17
-1 7 -6 46.95 8.95
-1 7 -7 581.86 35.61
-1 7 -8 18.56 6.07
-1 7 -9 51.44 10.7
-1 7 -10 229.88 23.62
-1 7 -11 220.43 24.04
-1 7 -12 168.62 21.75
-1 6 9 214.57 23.91
-1 6 8 72.92 13.24
1 -6 -7 11.89 3.9
-1 6 7 2.07 2.94
-1 6 6 140.86 16.99
-1 6 5 240.71 21.48
-1 6 4 436.82 28.88
-1 6 3 470.65 29.21
-1 6 2 -0.92 1.01
-1 6 1 83.61 10.74
-1 6 0 410.42 24.65
-1 6 0 376.47 21.38
-1 6 -1 340.62 20.59
-1 6 -1 395.62 23.68
-1 6 -2 480.12 25.56
-1 6 -2 480.71 26.44
-1 6 -3 216.03 15.96
-1 6 -3 196.63 15.89
-1 6 -4 228.4 16.43
-1 6 -4 229.4 17.93
-1 6 -5 122.6 11.78
-1 6 -5 117.47 12.98
-1 6 -6 8.46 3.31
-1 6 -7 423.1 28.34
-1 6 -8 1351.63 59.89
-1 6 -9 225.39 21.84
-1 6 -10 13.05 5.12
-1 6 -11 10.81 5.62
-1 6 -12 205.99 23.45
-1 6 -13 322.02 30.8
1 -6 14 151.07 17.96
-1 5 10 23.24 7.92
-1 5 9 251.65 24.57
-1 5 8 142.21 17.38
-1 5 7 508.18 33.68
1 -5 -7 594.53 28.02
-1 5 6 188.36 18.33
-1 5 5 3.02 2.47
-1 5 4 248.94 19.45
1 -5 -3 1187.36 41.35
-1 5 3 1068.89 46.66
1 -5 -2 1744.76 56.33
-1 5 2 1702.17 62.05
1 -5 -1 323.4 17.12
-1 5 1 277.66 19.01
-1 5 0 93.96 8.77
-1 5 0 102.15 10.54
1 -5 0 118.71 9.88
-1 5 -1 23.61 4.46
-1 5 -1 30.79 5.47
-1 5 -2 280.03 17.78
-1 5 -2 291.57 17.64
-1 5 -3 603.34 28.14
-1 5 -3 547.95 26.44
-1 5 -4 208.35 14.51
-1 5 -4 230.61 16.78
-1 5 -5 168.41 14.95
-1 5 -6 40.92 7.44
-1 5 -7 207.39 18.47
-1 5 -8 461.36 30.15
-1 5 -9 1038.41 50.96
-1 5 -10 188.96 19.98
-1 5 -11 211.63 22.22
-1 5 -12 -0.31 1.66
1 -5 13 58.42 10.7
-1 5 -13 61.43 12.9
1 -5 14 236.71 22.89
-1 5 -14 214.09 25.17
-1 4 11 160.34 20.26
-1 4 10 100.68 15.11
-1 4 9 3.23 2.97
1 -4 -8 145.05 11.09
-1 4 8 139.11 16.19
-1 4 8 122.31 10.24
1 -4 -7 160.98 11.65
-1 4 7 144.06 15.81
-1 4 6 282.35 21.25
-1 4 5 258.83 19.35
1 -4 -4 117.24 9
-1 4 4 113.91 11.81
1 -4 -3 527.79 21.41
-1 4 3 485.42 25.68
-1 4 2 198.8 14.18
1 -4 -2 158.6 10.15
1 -4 -1 1003.23 33.58
-1 4 1 997.39 37.91
-1 4 1 907.31 32.76
1 -4 0 1424.45 45.28
-1 4 0 1405.83 48.55
-1 4 0 1327.46 44.5
1 -4 0 1417.06 47.37
1 -4 1 1024.47 35.33
-1 4 -1 991.45 36.75
1 -4 1 974.03 35.76
-1 4 -2 447.13 21.12
1 -4 2 478.37 21.93
-1 4 -2 425.03 21.07
1 -4 2 452.34 21.39
1 -4 3 7.86 2.76
-1 4 -3 4.18 2.05
-1 4 -3 6.47 2.29
1 -4 4 182.71 13.2
-1 4 -4 196.48 13.1
-1 4 -4 218.76 15.31
-1 4 -5 735.6 33.78
-1 4 -6 652.62 32.65
-1 4 -7 402.54 25.76
-1 4 -8 1.29 2.03
-1 4 -9 70.08 11.25
-1 4 -10 114.6 15.08
-1 4 -11 70.79 12.45
-1 4 -12 264.81 25.53
-1 4 -13 33.93 9.03
1 -4 13 30.24 7.49
1 -4 14 3.7 3.1
-1 4 -14 6.17 4.89
-1 3 12 69.7 13.06
-1 3 11 351.88 29.26
-1 3 10 433.5 31.29
-1 3 9 336.5 25.91
-1 3 8 221.63 19.71
1 -3 -8 240.13 13.19
-1 3 8 240.06 12.61
-1 3 7 1.54 1.23
1 -3 -7 0.71 0.87
-1 3 6 145.8 13.85
1 -3 -6 141.59 9.39
-1 3 5 588.99 29.06
-1 3 4 1301.75 47.85
1 -3 -3 504.4 18.71
-1 3 3 466.45 23.11
1 -3 -2 222.09 10.28
1 -3 -2 207.66 13.06
-1 3 2 196.35 13.03
-1 3 1 20.6 3.83
1 -3 -1 15.93 2.41
1 -3 -1 10.14 2.65
-1 3 1 13.73 2.28
-1 3 0 292.08 12.83
1 -3 0 301.83 13.19
-1 3 0 297.57 15.39
1 -3 0 280.14 14.52
1 -3 1 1698.79 52.39
-1 3 -1 1639.83 50.45
1 -3 1 1731.39 51.11
-1 3 -1 1626.02 52.41
1 -3 2 2924.41 85.13
-1 3 -2 2854.71 84.46
1 -3 2 3049.94 85.91
-1 3 -2 2825.04 84.6
1 -3 2 3059.42 85.41
-1 3 -3 406.03 20.21
1 -3 3 446.09 19.98
-1 3 -3 446.01 19.64
1 -3 3 450.19 20.68
1 -3 4 29.73 4.16
1 -3 4 28.66 4.73
-1 3 -4 22.35 4.53
1 -3 4 28.47 4.47
1 -3 5 22.03 3.78
1 -3 5 13.05 3.63
-1 3 -5 18.78 4.37
-1 3 -6 2504.92 85.2
1 -3 6 2714.11 79.19
-1 3 -7 1010.81 44.5
-1 3 -8 822.51 33.22
-1 3 -8 753.71 38.75
-1 3 -9 190.25 18.56
-1 3 -9 204.51 14.88
-1 3 -9 208.65 9.26
-1 3 -10 37.97 8.39
-1 3 -10 35.98 6.07
-1 3 -11 40.5 9.17
1 -3 11 65.55 10.46
-1 3 -11 53.02 7.99
1 -3 12 176.92 18.27
-1 3 -12 167.79 15.15
-1 3 -12 150.39 18.88
1 -3 13 152.82 17.84
-1 3 -13 135.2 18.65
1 -3 14 146.49 18.47
-1 3 -14 139.67 19.57
-1 2 13 188.63 22.13
1 -2 -13 197.89 20.3
1 -2 -12 100.51 13.66
-1 2 12 101.43 15.19
1 -2 -11 23.89 6.61
-1 2 11 27.02 7.36
-1 2 10 21.67 6.23
-1 2 9 201.14 18.49
1 -2 -8 960.75 31.76
-1 2 8 1007.42 29.24
-1 2 8 970.7 44.5
1 -2 -7 283.55 12.72
-1 2 7 275.83 19.58
-1 2 6 148.9 12.96
1 -2 -6 144.72 8.04
-1 2 5 15.09 3.92
1 -2 -5 20.16 2.64
-1 2 4 2190.93 68.73
1 -2 -3 637.08 25.42
-1 2 3 604.2 25.12
-1 2 2 775.39 28.37
1 -2 -2 778.81 28.06
1 -2 -1 155.65 6.37
-1 2 1 148.14 9.18
1 -2 -1 157 9.11
-1 2 1 161.16 6.38
1 -2 0 24.37 2.48
1 -2 0 22.02 3.11
-1 2 0 17.53 2.99
-1 2 0 23.98 2.43
1 -2 1 570.81 20.9
-1 2 -1 522.31 20.17
1 -2 1 572.9 20.77
-1 2 -1 531.93 19.41
-1 2 -2 13.71 2.61
-1 2 -2 12.25 2.56
1 -2 2 11.65 2.37
1 -2 2 11.36 2.41
1 -2 3 967.95 32.03
-1 2 -3 853.08 31.34
1 -2 3 938.2 28.89
1 -2 3 843.32 31.42
1 -2 4 410.65 16.25
1 -2 4 401.35 18.52
-1 2 -4 368.31 18.02
1 -2 5 1021.05 33.88
1 -2 5 1025.94 36.35
-1 2 -5 1033.05 33.8
-1 2 -5 969.92 36.37
1 -2 6 354.07 18.16
-1 2 -6 361.81 17.07
-1 2 -6 365.84 18.99
-1 2 -7 322.51 16.4
-1 2 -7 287.83 17.32
-1 2 -8 406.3 19.99
-1 2 -8 357.15 20.31
-1 2 -9 486.75 24.74
-1 2 -9 490.77 24.05
-1 2 -10 731.77 32.4
1 -2 10 699.03 36.92
-1 2 -10 737.22 32.52
-1 2 -11 222.98 16.76
1 -2 11 252.3 21.37
1 -2 12 -0.59 1.49
-1 2 -12 2.4 3.21
1 -2 13 104.96 15.14
-1 2 -13 89.82 15.06
1 -2 14 156.21 19.59
-1 2 -14 153.63 20.51
1 -1 -13 52.85 9.99
-1 1 13 47.01 10.44
1 -1 -12 221.95 20.38
1 -1 -12 266.25 21.98
-1 1 12 246.92 23.31
-1 1 11 382.63 28.12
1 -1 -11 407.62 26.78
1 -1 -11 414.02 27.2
1 -1 -10 0.1 2.18
-1 1 10 3.54 2.68
-1 1 9 372.25 24.91
1 -1 -9 412.69 24.84
-1 1 8 344.02 22.42
1 -1 -8 365.29 12.85
-1 1 7 917.41 38.49
1 -1 -7 896.31 26.77
1 -1 -6 1556.56 43.08
-1 1 6 1592.71 54.48
-1 1 5 1222.14 43.03
1 -1 -5 1224.88 33.64
1 -1 -4 1113.11 37.97
-1 1 4 1119.39 38.27
-1 1 3 0.31 0.53
1 -1 -3 1.27 1.05
1 -1 -2 448.55 16.65
-1 1 2 423.58 16.45
1 -1 -2 435.62 13.23
1 -1 -1 809.65 24.78
-1 1 1 796.6 23.03
-1 1 1 833.41 25.06
1 -1 -1 735.3 23.01
-1 1 -1 1272.9 39.77
1 -1 1 1308.99 39.73
-1 1 -1 1373.36 39.74
1 -1 2 27.52 2.01
-1 1 -2 24.37 3.24
1 -1 2 20.24 2.8
1 -1 3 213.79 11.09
-1 1 -3 224.72 8.85
1 -1 3 234.43 9.01
-1 1 -3 232.98 11.87
1 -1 4 569.05 21.49
-1 1 -4 531.25 18.7
-1 1 -4 537.21 21.93
-1 1 -5 1676.35 49.36
1 -1 5 1679.54 51.88
-1 1 -5 1637.03 52.93
-1 1 -6 711.28 29.3
1 -1 6 755.15 28.56
-1 1 -6 741.53 21.03
-1 1 -6 777.03 27.32
-1 1 -7 164.42 11
1 -1 7 153.17 11.02
-1 1 -7 168.17 12.29
1 -1 8 218.5 17.25
-1 1 -8 230.97 14.33
-1 1 -8 228.42 15.38
-1 1 -9 26.73 5.22
1 -1 9 26.55 6.16
-1 1 -9 33.63 5.44
1 -1 10 765.27 39.55
-1 1 -10 780.46 33.34
-1 1 -10 739.81 33.5
-1 1 -11 266.71 18.26
1 -1 11 270.4 22.88
1 -1 12 199.14 20.63
1 -1 13 91.3 14.63
-1 1 -14 1.41 2.29
-1 0 14 248.68 24.81
1 0 -14 237.92 22.2
1 0 -13 16.17 5.56
1 0 -13 12.05 4.93
-1 0 13 4.33 3.1
-1 0 12 79.23 12.23
1 0 -12 98.6 12.81
1 0 -12 83.47 12.17
-1 0 11 420.83 28.51
1 0 -11 440.97 28.35
1 0 -11 430.25 27.47
1 0 -10 318.44 22.12
-1 0 10 315.9 22.67
1 0 -10 298.38 21.81
1 0 -9 328.39 21.61
1 0 -9 359.86 22.22
-1 0 9 290.01 20.63
1 0 -8 67.61 8.67
1 0 -8 63.45 8.33
-1 0 8 60.77 8.27
1 0 -7 504.81 25.27
-1 0 7 509.31 25.06
1 0 -7 517.47 25.07
1 0 -6 765.05 31.34
1 0 -6 754.71 30.66
-1 0 6 729.89 30.24
-1 0 6 774.56 21.74
-1 0 5 776.72 29.26
1 0 -5 786.84 30.47
-1 0 5 792.33 23.07
1 0 -5 781.68 29.4
-1 0 4 927.73 30.39
1 0 -4 889.43 30.21
-1 0 4 891.72 26
1 0 -4 815.86 31.18
1 0 -3 245.56 10.71
1 0 -3 259.23 11.27
-1 0 3 244.74 9.43
1 0 -3 220.65 11.79
-1 0 3 247.81 10.92
-1 0 2 1126.76 32.65
1 0 -2 1178.91 33.49
1 0 -2 1121.16 32.52
1 0 -2 1175.14 35.18
-1 0 2 1159.99 33.58
-1 0 1 38.21 3.14
1 0 1 2024.28 57.66
-1 0 -1 2078.74 57.92
-1 0 -1 2110.84 56.77
-1 0 -2 3739.7 102.49
-1 0 -2 3856.33 100.19
1 0 2 3737.27 102.29
-1 0 -3 3469.93 98.35
1 0 3 3534.94 98.21
-1 0 -3 3658.22 94.86
1 0 4 36.1 4.31
-1 0 -4 33.72 4.29
-1 0 -4 35.23 3.02
-1 0 -5 1.18 1.83
1 0 5 0.33 1.01
1 0 5 -0.4 0.91
-1 0 -6 290.18 15.75
1 0 6 286.59 18.04
1 0 6 273.21 14.79
1 0 7 780.04 29.79
1 0 7 749.46 34.69
-1 0 -7 781.76 31.35
-1 0 -7 721.8 28.95
-1 0 -8 32.5 5.09
1 0 8 35.01 6.98
-1 0 -8 36.74 5.7
-1 0 -9 112.57 10.45
-1 0 -9 142.82 12.33
1 0 9 119.65 13.76
-1 0 -10 98.57 10.22
1 0 10 90.8 12.62
-1 0 -10 101.46 10.56
-1 0 -11 106.13 11.15
1 0 11 97.44 13.86
1 0 12 124.45 16.56
1 0 13 159.32 20
-1 -1 15 120.63 17.24
1 1 -14 176.64 20.04
1 1 -14 161.84 18.08
-1 -1 14 189.03 20.52
1 1 -13 425.38 31.03
1 1 -13 438.4 29.88
-1 -1 13 438.04 30.92
1 1 -12 156.4 16.43
1 1 -12 159.66 17.39
-1 -1 12 166.72 17.24
1 1 -11 1.99 2.62
1 1 -11 2.99 2.02
-1 -1 11 1.06 1.6
1 1 -10 81.45 11.12
-1 -1 10 107.82 12.02
1 1 -10 108.16 12.19
-1 -1 9 472.31 17.05
1 1 -9 465.68 26.35
-1 -1 9 464.09 25.7
1 1 -9 452.07 26.73
-1 -1 8 864.28 36.6
1 1 -8 884.2 38.12
1 1 -8 925.38 39.43
-1 -1 8 918.54 28.83
-1 -1 7 1130.26 34.49
-1 -1 7 1099.4 40.74
1 1 -7 1149.47 43.19
1 1 -7 1094.86 43.3
-1 -1 6 135.56 9.86
1 1 -6 154.14 11.67
1 1 -6 123.92 10.77
-1 -1 6 132.47 7.65
-1 -1 5 441.27 18.48
1 1 -5 456.5 21.13
1 1 -5 453.13 21.16
-1 -1 5 446.58 16.59
1 1 -4 63.49 6.26
1 1 -4 63.53 6.34
-1 -1 4 67.54 5.09
1 1 -4 65.49 4.87
-1 -1 4 67.4 6.68
-1 -1 4 76.94 6.98
-1 -1 3 737.28 25.98
1 1 -3 692.17 23.2
-1 -1 3 724.85 25.84
1 1 -3 677.49 25.47
-1 -1 3 694.27 21.44
1 1 -3 695.2 25.39
-1 -1 3 708.61 23.48
1 1 -2 617.48 21.41
1 1 -2 617.77 22.37
-1 -1 2 652.84 22.6
-1 -1 2 635.96 22.68
1 1 -2 618.64 22.46
-1 -1 2 633.84 21.58
1 1 -1 750.63 23.83
-1 -1 1 714.39 23.95
1 1 -1 737.37 23.95
1 1 -1 723.76 24.39
-1 -1 1 745.32 24.54
1 1 0 48.09 4.32
-1 -1 0 49.56 4.57
1 1 0 46.83 3.27
-1 -1 0 51.67 4.53
1 1 1 683.27 23.48
-1 -1 -1 701.3 23.7
1 1 1 685.97 22.98
1 1 2 1306.51 41.44
1 1 2 1317.73 39.91
-1 -1 -2 1313.42 41.33
1 1 3 3517.28 95.47
1 1 3 3539.92 99.7
-1 -1 -3 3423.77 98.06
-1 -1 -4 1839.72 56.42
1 1 4 1820.46 59
1 1 4 1802.38 52.91
-1 -1 -5 418.41 19.96
1 1 5 425.41 16.7
1 1 5 459.56 23.11
-1 -1 -6 23.66 4.34
1 1 6 26.13 5.35
1 1 7 232.65 17.76
-1 -1 -7 178.24 13.25
-1 -1 -8 289.19 17.72
1 1 8 271.38 20.99
-1 -1 -9 665.85 30.79
1 1 9 651.12 36.66
-1 -1 -10 442.75 24.69
1 1 10 450.91 30.95
-1 -1 -10 437.72 24.71
1 1 11 117.88 16.03
1 1 12 0.09 1.95
-1 -2 15 38.4 9.42
1 2 -15 30.76 8.69
1 2 -14 57.27 10.52
-1 -2 14 57.33 11.09
1 2 -14 74.2 12.94
-1 -2 13 322.58 25.12
1 2 -13 338.91 27.61
1 2 -13 264.58 22.98
1 2 -12 206.04 20.39
-1 -2 12 217.96 19.2
1 2 -12 190.43 18.34
1 2 -11 374.83 27.03
1 2 -11 394.99 26.1
-1 -2 11 374.16 24.54
1 2 -10 175.8 16.98
-1 -2 10 184.7 15.43
1 2 -10 180.47 16.16
1 2 -9 2.43 2.45
-1 -2 9 5.32 1.78
-1 -2 9 5.54 2.75
1 2 -9 2.13 1.56
-1 -2 8 373.16 20.19
1 2 -8 382.75 22.65
1 2 -8 396.33 24.05
-1 -2 8 378.62 18.11
1 2 -7 934.28 39.14
-1 -2 7 865.14 32.42
-1 -2 7 893.54 33.89
1 2 -7 928.7 30.53
1 2 -7 951.61 38.1
1 2 -6 1362.21 48.58
1 2 -6 1337.33 42.3
-1 -2 6 1388.01 43.94
1 2 -6 1312.1 49.2
1 2 -5 606.35 23.02
1 2 -5 634.34 27.55
1 2 -5 603.46 26.62
-1 -2 4 617.86 25.81
1 2 -4 549.02 24.54
1 2 -4 564.91 24.4
-1 -2 4 586.8 24.62
-1 -2 4 551.77 19.8
1 2 -4 595.66 22.47
1 2 -3 86.72 7.59
-1 -2 3 97.44 7.87
-1 -2 3 79.57 4.82
-1 -2 3 90.34 8.05
1 2 -3 90.01 7.15
1 2 -3 83.24 7.69
-1 -2 2 531.57 16.55
1 2 -2 540.83 16.73
1 2 -2 527.87 22.25
-1 -2 2 561.59 22
-1 -2 2 521.1 22.24
1 2 -2 554.66 21.75
-1 -2 1 1347.62 43.98
1 2 -1 1331.08 43.97
1 2 -1 1313.08 38.72
-1 -2 1 1413.66 38.59
1 2 -1 1394.95 43.76
1 2 0 215.49 10.18
-1 -2 0 214.98 10.06
-1 -2 0 234.24 12.69
1 2 0 206.97 11.97
-1 -2 -1 127.73 8.11
1 2 1 108.55 8.32
-1 -2 -1 121.93 9.15
1 2 1 126.42 8.27
-1 -2 -2 443.64 19.38
1 2 2 435.23 19.67
1 2 2 440.17 19.26
1 2 3 271.1 16
-1 -2 -3 308.07 16.01
1 2 3 267.44 14.22
1 2 4 58.06 7.42
-1 -2 -4 68.75 7.33
1 2 4 66.98 6.38
1 2 5 178.36 14.42
-1 -2 -5 184.17 12.92
1 2 5 154.06 10.33
1 2 6 248.83 13.51
1 2 6 263.78 19.14
-1 -2 -6 272.53 16.65
1 2 7 309.74 22.23
-1 -2 -7 311.49 18.87
-1 -2 -8 5.67 2.75
1 2 8 14.41 5.37
-1 -2 -9 27.14 5.51
1 2 9 36.19 8.23
1 2 10 326.95 27.15
1 2 11 418.19 32.58
1 2 12 226.7 24.5
1 3 -15 116.33 17.7
1 3 -15 147.53 17.98
1 3 -14 41.3 9.08
1 3 -14 37.7 9.22
-1 -3 14 35.94 8.52
1 3 -13 2.06 2
1 3 -13 8.42 4.64
-1 -3 13 2.34 2.3
-1 -3 12 126.71 13.96
1 3 -12 138.08 16.92
1 3 -12 165.05 17.11
1 3 -11 158.46 17.35
-1 -3 11 154.22 14.47
1 3 -11 123.53 14.47
1 3 -10 868 41.14
-1 -3 10 841.09 37.07
1 3 -10 834.56 42.85
1 3 -9 331.27 22.4
-1 -3 9 319.66 19.13
1 3 -9 345.25 16.47
1 3 -9 349.5 24.31
1 3 -8 246.17 13.78
1 3 -8 239.86 17.96
1 3 -8 247.34 19.3
1 3 -7 39.74 5.17
-1 -3 7 44.01 5.72
1 3 -7 39.35 6.62
1 3 -7 36.89 6.83
1 3 -6 48.23 6.96
-1 -3 6 45.75 5.33
1 3 -6 45.43 7.07
1 3 -6 41.01 5.38
1 3 -5 791.47 33.14
1 3 -5 777.96 30.35
1 3 -5 795.5 34.23
-1 -3 5 774.64 27.68
1 3 -4 1933.76 64.37
1 3 -4 1951.19 61.47
-1 -3 4 1948.35 56.31
1 3 -3 1206.37 41.69
-1 -3 3 1132.87 35.33
1 3 -3 1193.23 43.09
1 3 -3 1174.41 34.96
1 3 -2 386.98 19.09
1 3 -2 338.37 14.33
1 3 -2 359.24 19.01
-1 -3 2 366.69 13.98
-1 -3 1 4.93 1.99
1 3 -1 2.45 1.85
1 3 -1 4.79 2.18
1 3 -1 2.61 1.37
-1 -3 1 2.64 1.17
1 3 0 691.07 29.23
-1 -3 0 724.11 26
1 3 0 720.16 26.4
1 3 1 2211.88 67.31
1 3 1 2160.15 69.08
-1 -3 -1 2275.88 67.01
1 3 2 1108.76 41.12
1 3 2 1180.86 41.63
1 3 3 572.61 26.95
1 3 3 555.58 25.16
1 3 4 14.59 3.78
-1 -3 -4 10.89 3.21
1 3 4 10.57 3
-1 -3 -5 125.08 11.45
1 3 5 137.56 13.33
1 3 5 114.83 10.04
1 3 6 282.82 21.26
1 3 6 285.3 16.51
-1 -3 -6 294.63 18.92
-1 -3 -7 219.78 16.62
1 3 7 239.44 20.39
1 3 7 239.89 14.64
1 3 8 619.22 37.23
-1 -3 -8 692.73 33.04
1 3 9 47.58 9.89
-1 -3 -9 34.55 6.73
1 3 10 5.14 3.34
1 3 11 13.11 6.12
1 4 -14 300.96 26.1
1 4 -14 275.19 27.18
-1 -4 13 268.35 21.43
1 4 -13 266.1 25.59
1 4 -13 244.55 22.76
-1 -4 12 33.08 6.92
1 4 -12 49.27 10.51
1 4 -12 48.44 9.43
1 4 -11 4.6 2.98
1 4 -11 -0.33 2.11
-1 -4 11 5.25 2.72
1 4 -10 257.57 15.42
-1 -4 10 258.32 17.48
1 4 -10 277.19 23.29
1 4 -10 242.69 20.4
1 4 -9 876.74 41.12
1 4 -9 841.77 33.68
1 4 -9 784.07 41.56
1 4 -8 84.99 11.46
1 4 -8 79.15 8.41
-1 -4 7 72.73 7.56
1 4 -7 65.59 7.75
1 4 -7 59.84 9.3
-1 -4 6 74.48 7.26
1 4 -6 74.87 10.06
1 4 -6 71.83 8.38
-1 -4 5 251.82 13.37
1 4 -5 251.03 18.15
1 4 -5 242.07 16.13
1 4 -4 161.36 13.03
1 4 -4 181.6 10.03
1 4 -4 167.19 14.19
-1 -4 4 161.49 9.69
1 4 -3 984.22 32.99
1 4 -3 941.03 39.84
-1 -4 3 1028.1 32.75
1 4 -3 988.54 39.51
-1 -4 2 1025.64 33.26
1 4 -2 994.54 39.88
1 4 -2 947.92 33.92
1 4 -1 636.57 29.9
-1 -4 1 678.88 25.45
1 4 -1 635.67 26.09
1 4 0 241.24 16.65
1 4 0 255.39 14.9
-1 -4 0 253.27 14.3
1 4 1 22.98 5.17
1 4 1 18.32 4.03
1 4 2 762.91 33.97
1 4 2 813.94 34.08
1 4 3 457.57 24.28
1 4 3 457.91 25.22
1 4 4 404.44 24.68
1 4 4 418.58 22.95
1 4 5 205.58 17.83
1 4 5 201.75 15.24
-1 -4 -5 220.17 16.84
1 4 6 0.96 2.44
-1 -4 -6 1.07 2
1 4 6 0.24 1.77
-1 -4 -7 44.46 7.69
1 4 7 32.44 5.64
1 4 7 35 8.12
-1 -4 -8 175.36 16.09
1 4 8 177.79 19.46
1 4 9 262.62 25.08
1 4 10 182.93 21.6
1 5 -14 80.39 14.62
1 5 -13 303.54 28.35
1 5 -12 316.66 28.09
-1 -5 11 425.73 24.31
1 5 -11 394.41 30.64
1 5 -10 212.16 15.6
1 5 -10 186.44 19.73
1 5 -9 30.13 5.68
1 5 -9 25.34 6.57
1 5 -8 361.79 25.78
1 5 -8 301.57 20
-1 -5 7 28.13 5.01
1 5 -7 35.69 6.41
1 5 -7 42.5 8.33
1 5 -6 967.74 45.55
-1 -5 6 1023.17 36.95
1 5 -6 1026.28 42.57
1 5 -5 376.82 24.98
1 5 -5 416.78 24.23
-1 -5 5 417.56 18.98
1 5 -4 59.11 8.92
1 5 -4 66.27 6.41
1 5 -4 64.41 8.85
-1 -5 4 69.72 6.61
-1 -5 3 23.94 3.84
1 5 -3 33.68 6.41
1 5 -3 29.71 4.46
1 5 -3 32.28 6.4
1 5 -2 253.04 15.39
1 5 -2 262.14 19.03
-1 -5 2 274.42 14.86
1 5 -1 445.67 22.45
1 5 0 919.86 41.03
1 5 0 963.33 38.24
1 5 1 243.79 18.35
1 5 1 234.57 16.69
1 5 2 28.7 6.01
1 5 2 18.54 4.69
1 5 3 6.08 2.98
1 5 3 1.02 1.63
1 5 4 280.41 21.48
1 5 4 289.64 20.41
1 5 5 555.53 29.99
1 5 5 568.22 33.59
-1 -5 -5 571.76 31.5
-1 -5 -6 342.39 23.73
1 5 6 360.31 22.88
1 5 6 315.01 25.4
1 5 7 218.54 21.95
-1 -5 -7 249.64 20.44
1 5 7 258.93 18.88
-1 -5 -8 10.45 4.14
1 5 8 31.47 8.81
1 5 9 46.67 10.79
1 6 -13 17.01 6.96
1 6 -12 142.42 19.08
1 6 -11 160.22 19.44
1 6 -10 612.05 31.89
1 6 -10 596.52 39.14
1 6 -9 207.79 21.2
1 6 -9 250.48 19.22
1 6 -8 56.73 10.56
1 6 -8 73.23 10.05
1 6 -7 21.24 5.7
1 6 -7 23.36 6.35
1 6 -6 261.27 20.22
1 6 -6 263.46 22.06
1 6 -5 1245.79 42.76
1 6 -5 1235.57 54.06
1 6 -5 1163.03 51.06
1 6 -4 758 38.71
1 6 -4 728.2 30.05
-1 -6 4 762.58 30.02
1 6 -4 730.42 37.33
1 6 -3 355.99 24.78
1 6 -3 427.42 21.55
1 6 -3 368.73 25.36
1 6 -2 73.04 10.42
1 6 -2 68.1 10.12
1 6 -2 86.55 9.43
1 6 -1 128.5 12.24
1 6 -1 152.94 15.38
1 6 0 17.74 5.28
1 6 0 20.32 4.91
1 6 1 743.92 35.61
1 6 1 676.28 36.57
1 6 2 16.5 5.08
1 6 2 4.64 2.5
1 6 3 89.44 12.03
1 6 3 94.09 12.28
1 6 4 76.33 11.55
1 6 4 85.06 11.48
1 6 5 3.26 2.96
-1 -6 -5 4.77 3.28
1 6 5 4.86 3.18
1 6 6 292.46 25.61
-1 -6 -6 247.25 21.47
1 6 6 267.83 21.25
-1 -6 -7 181.82 18.55
1 6 7 147.87 18.82
1 6 8 296.3 28.21
1 7 -12 9.76 5.28
1 7 -11 1.39 2.72
1 7 -10 27.64 6.62
1 7 -10 19.16 6.83
1 7 -9 229.44 20.25
1 7 -9 264.1 25.04
1 7 -8 105.84 15.14
1 7 -8 91.5 12.54
1 7 -7 259 23.82
1 7 -7 271 22.25
1 7 -6 85.45 12.12
1 7 -6 77.85 12.15
1 7 -5 21.81 4.35
1 7 -5 29.13 7.1
1 7 -5 29.64 7.24
1 7 -4 325.95 25.41
1 7 -4 332.24 19.46
1 7 -4 366.71 26.17
1 7 -3 313.72 19.53
1 7 -3 273.3 22.91
1 7 -3 278.35 23.1
1 7 -2 509.49 32.58
1 7 -2 531.26 28.44
1 7 -1 433.64 26.36
1 7 -1 454.39 30.24
1 7 0 7.08 3.69
1 7 0 9.06 3.65
1 7 1 58 10.18
1 7 1 39.8 7.97
1 7 2 248.08 21.06
1 7 2 192.63 19.32
1 7 3 306.39 24.63
1 7 3 269.65 23.06
1 7 4 363.46 28.27
1 7 4 327.19 25.82
-1 -7 -5 231.53 21.73
1 7 5 205.19 21.73
1 7 5 187.41 19.14
-1 -7 -6 8.29 3.59
1 7 6 15.58 5.92
1 7 7 23.82 8.15
1 8 -10 4.62 2.97
1 8 -10 -0.22 1.5
1 8 -9 1.6 1.62
1 8 -9 1.8 1.47
1 8 -8 98.73 14.07
1 8 -8 93.46 15.03
1 8 -7 292.42 26.87
1 8 -7 302.17 25.46
1 8 -6 287.63 24.69
1 8 -6 290.17 26.17
1 8 -5 106.02 14.86
1 8 -5 150.89 18.16
1 8 -4 20.53 6.43
1 8 -4 24.48 7.19
1 8 -3 2.78 2.13
1 8 -3 0.94 3.11
1 8 -2 133.41 16.73
1 8 -1 225.15 22.22
1 8 -1 201.63 18.53
1 8 0 253.56 21.66
1 8 0 269.22 24.41
1 8 1 105.49 15.13
1 8 1 129 15.64
1 8 2 28.48 7.74
1 8 2 10.19 4.3
1 8 3 29.6 8.25
1 8 3 38.45 9.08
1 8 4 47.05 10.12
1 8 4 47.06 10.56
1 8 5 359.99 29.18
1 8 5 394.94 32.87
-1 -8 -5 429.49 32.46
-1 -8 -6 77.52 14.21
1 9 -10 262.21 24.84
1 9 -9 136.31 17.6
1 9 -8 247.03 26.38
1 9 -8 253.97 24.77
1 9 -7 27.63 8.09
1 9 -7 21.35 7.11
1 9 -6 60.26 11.9
1 9 -6 67.69 13.08
1 9 -5 312.28 27.64
1 9 -5 280.13 26.95
1 9 -4 198.24 22.15
1 9 -4 196.67 22.1
1 9 -3 105.76 16.02
1 9 -2 58.81 11.95
1 9 -1 138.86 18.46
1 9 0 81.69 14.18
1 9 1 164.04 20.21
-2 11 1 155.49 21.56
-2 11 0 73.63 14.27
-2 11 -1 77.14 14.21
-2 11 -2 24.09 7.59
-2 11 -3 6.87 4.22
-2 11 -3 0.9 2.06
-2 11 -4 198.13 21.72
-2 11 -4 205.71 21.95
-2 11 -5 262.04 25.39
-2 11 -6 335.27 29.86
-2 10 3 36.93 10.48
-2 10 2 14.18 6.64
-2 10 1 4.98 2.63
-2 10 0 170.36 20.68
-2 10 -1 222.73 23.09
-2 10 -2 69.09 11.25
-2 10 -2 75.38 12.86
-2 10 -3 213.62 20.54
-2 10 -3 213.88 21.67
-2 10 -4 -0.98 2.26
-2 10 -4 2.17 2.97
-2 10 -5 138.63 17.29
-2 10 -5 131.27 16.11
-2 10 -6 180.05 18.95
-2 10 -6 182.32 20.5
-2 10 -7 214.77 23.1
-2 10 -8 151.21 19.92
-2 10 -9 77.92 14.76
-2 9 5 7.94 4.76
-2 9 4 151.3 20.28
-2 9 3 421.98 33.92
-2 9 2 310.99 28.07
-2 9 1 288.29 26.35
-2 9 0 48.94 10.48
-2 9 -1 27.28 7.63
-2 9 -1 30.83 6.7
-2 9 -2 86.09 11.69
-2 9 -2 77.78 12.23
-2 9 -3 311.49 24.84
-2 9 -3 277.6 22.54
-2 9 -4 167.08 17.47
-2 9 -4 129.43 15.43
-2 9 -5 56.02 10.42
-2 9 -5 71.57 11.06
-2 9 -6 39.57 8.43
-2 9 -6 28.82 7.73
-2 9 -7 10.22 4.95
-2 9 -8 170.12 20.2
-2 9 -9 139.73 18.69
-2 9 -10 324.23 30.28
-2 8 7 244.16 26.52
-2 8 6 97.43 15.9
-2 8 5 106.37 16.14
-2 8 4 39.45 9.65
-2 8 3 298.83 26.35
-2 8 2 52.96 10.42
-2 8 1 666.14 39.49
-2 8 0 547.71 29.39
-2 8 0 643.83 37.33
-2 8 -1 229.51 20.78
-2 8 -1 195.96 16.39
-2 8 -2 9.53 4.27
-2 8 -2 17.01 4.94
-2 8 -3 58.49 9.76
-2 8 -3 64.61 9.7
-2 8 -4 566.6 33.24
-2 8 -4 643.43 34.88
-2 8 -5 662.34 35.52
-2 8 -5 642.14 36.62
-2 8 -6 216.05 18.8
-2 8 -6 183.86 18.86
-2 8 -7 182.63 19.48
-2 8 -8 -1.63 3.42
-2 8 -9 99 15.35
-2 8 -10 142.34 19.16
-2 8 -11 136.21 19.45
-2 7 8 -0.42 3.51
-2 7 7 10.07 5.1
-2 7 6 292.33 26.38
-2 7 5 75.76 12.75
-2 7 4 373.19 28.46
-2 7 3 53.59 9.9
-2 7 2 4.36 2.48
-2 7 1 6.85 3.54
-2 7 0 95.67 10
-2 7 0 116.08 13.79
-2 7 -1 474.97 25.21
-2 7 -1 481.99 29.62
-2 7 -2 262.49 20.47
-2 7 -2 255.2 18.14
-2 7 -3 124.07 12.9
-2 7 -3 167.59 15.53
-2 7 -4 7.46 3.89
-2 7 -4 7.92 3.63
-2 7 -5 196.6 16.81
-2 7 -5 162.32 16.2
-2 7 -6 404.73 27.65
-2 7 -7 399.49 28.56
-2 7 -8 350.51 27.69
-2 7 -9 80.14 13.34
-2 7 -10 3.55 4.03
-2 7 -11 64.73 12.82
-2 7 -12 201.99 24.07
-2 6 9 297.03 28.14
-2 6 8 370.71 30.47
-2 6 7 115.91 15.84
-2 6 6 177.06 18.98
-2 6 5 27.66 7.11
-2 6 4 241.13 20.69
-2 6 3 601.08 34.01
2 -6 -3 607.97 25.39
-2 6 2 706.02 36.97
2 -6 -2 752.29 29.65
2 -6 -1 356.81 18.61
-2 6 1 333.49 17.81
-2 6 1 370.02 24.28
-2 6 0 204.96 13.72
-2 6 0 233.51 18.46
-2 6 -1 707.14 34.7
-2 6 -1 688.1 29.94
-2 6 -2 371.95 23.15
-2 6 -2 364.72 20.97
-2 6 -3 1010.71 41.34
-2 6 -3 967.65 42.09
-2 6 -4 340.25 21.75
-2 6 -4 378.19 23.26
-2 6 -5 110.08 11.76
-2 6 -5 83.46 10.82
-2 6 -6 21.9 5.65
-2 6 -7 53.8 9.65
-2 6 -8 393.33 28.57
-2 6 -9 220.72 21.81
-2 6 -10 433.57 32.73
-2 6 -11 131.94 18.19
-2 6 -12 5.01 4.42
-2 6 -13 103.83 17.48
-2 5 11 26.92 8.88
-2 5 10 -6.13 4.08
-2 5 9 125 16.82
-2 5 8 103.48 14.49
-2 5 7 324.86 25.64
-2 5 6 451.54 29.64
2 -5 -5 330.4 15.58
-2 5 5 353.14 24.58
2 -5 -4 131.16 8.52
-2 5 4 117.14 13.04
2 -5 -3 65.95 5.82
-2 5 3 48.63 7.98
2 -5 -2 613.73 23.36
-2 5 2 592.84 30.92
-2 5 1 710.63 27.19
2 -5 -1 799.15 28.52
-2 5 1 773.26 35.32
2 -5 0 1256.57 40.96
-2 5 0 1108.34 39.42
-2 5 0 1183.55 46.74
-2 5 -1 327.46 20.39
-2 5 -1 313.25 17.01
2 -5 1 352.4 18.19
-2 5 -2 360.13 21.03
-2 5 -2 330.27 18.59
-2 5 -3 83.23 9.39
-2 5 -3 69.95 8.38
-2 5 -4 332.93 20.33
-2 5 -4 340.48 21.04
-2 5 -5 322.54 21.49
-2 5 -6 343.17 23.36
-2 5 -7 99.32 12.65
-2 5 -8 3.43 3.69
-2 5 -9 66.71 11.28
-2 5 -10 468.68 33.59
-2 5 -11 482.93 35.57
-2 5 -12 404.31 33.52
-2 5 -13 60.81 13.09
2 -5 14 5.82 4.67
2 -4 -13 38.66 10.26
-2 4 11 212.86 22.92
-2 4 10 187.54 20.43
-2 4 9 124.25 15.75
-2 4 8 7.05 4.09
2 -4 -7 11.7 2.56
-2 4 7 20.9 5.95
-2 4 6 235.51 19.12
-2 4 5 800.92 38.45
2 -4 -5 875.06 28.34
2 -4 -4 200.62 9.35
-2 4 4 181.31 15.16
-2 4 3 634.72 30.39
2 -4 -3 643.16 21.07
2 -4 -2 66.49 4.78
-2 4 2 54.35 7.63
-2 4 1 264.3 17.05
2 -4 -1 276.59 12.18
-2 4 1 258.01 11.58
2 -4 0 1985.55 60.86
-2 4 0 1791.99 54.81
-2 4 0 1870.66 62.41
-2 4 -1 1304.08 46.76
-2 4 -1 1273.67 42.34
-2 4 -2 2097.22 67.15
-2 4 -2 2064.16 64.85
-2 4 -3 644 28.18
-2 4 -3 618.88 27.65
-2 4 -4 20.12 4.62
-2 4 -5 35.91 6.43
2 -4 5 31.33 4.69
2 -4 6 747 29.25
-2 4 -6 692.15 35.36
-2 4 -7 580.76 32.62
-2 4 -8 168.55 17.18
-2 4 -9 9.46 4.24
-2 4 -10 28.86 7.61
-2 4 -11 233 23.59
-2 4 -12 256.31 26.07
2 -4 13 190.02 20.64
-2 4 -13 189.52 23.08
2 -4 14 11.87 5.57
2 -3 -13 308 27.5
-2 3 12 61.52 12.13
2 -3 -12 72.32 12.4
-2 3 11 24.04 7.2
-2 3 10 489.18 32.78
-2 3 9 195.87 18.77
-2 3 8 1284.81 54.6
2 -3 -7 235.46 10.19
-2 3 7 217.49 18.11
2 -3 -7 251.07 10.76
-2 3 6 163.11 14.54
-2 3 5 234.37 16.62
2 -3 -4 312.85 11.12
-2 3 4 321.63 18.96
-2 3 3 306.81 17.66
2 -3 -3 289.17 13.89
-2 3 2 843.89 33.43
2 -3 -2 833.69 32.67
2 -3 -2 898.92 30.56
2 -3 -1 74.09 6.74
-2 3 1 66.95 4.02
2 -3 -1 73.95 7.33
-2 3 1 65.73 7.26
-2 3 0 115.16 7.03
-2 3 0 122.57 9.85
2 -3 0 129.26 9.9
2 -3 0 137.29 9.8
2 -3 1 146.86 10.82
-2 3 -1 131.41 10.14
-2 3 -1 148.51 10.47
2 -3 1 144.3 10.5
2 -3 2 369.09 18.73
-2 3 -2 354.93 18.16
-2 3 -2 351.49 18.39
2 -3 2 375.8 19.01
-2 3 -3 1032.04 38.35
-2 3 -3 977.96 38.97
2 -3 3 1065.36 39.5
2 -3 4 1075.45 34.43
-2 3 -4 1030.06 40.33
-2 3 -5 644.6 30.25
2 -3 5 692.99 24.99
2 -3 6 2.34 1.43
-2 3 -6 1.82 2.54
2 -3 7 90.51 7.77
-2 3 -7 79.4 9.72
-2 3 -8 459.74 26.29
-2 3 -9 795.66 37.69
-2 3 -10 338.57 22.83
-2 3 -11 102.96 12.28
2 -3 12 8.31 4.21
2 -3 13 132.8 17.39
-2 3 -13 101.24 16.81
-2 3 -14 55 12.96
2 -2 -14 63.96 12.43
2 -2 -13 145.33 17.81
-2 2 13 145.59 18.73
-2 2 12 301.86 25.99
2 -2 -12 239.79 22.71
-2 2 11 88.51 13.12
2 -2 -11 117.34 14.86
-2 2 10 8.97 4.22
2 -2 -10 8.75 3.41
-2 2 9 6.39 3.05
2 -2 -9 4.47 2.15
-2 2 8 67.99 9.67
2 -2 -8 71.7 7.67
-2 2 7 785.83 35.89
2 -2 -7 777.54 30.01
-2 2 6 1202.22 46.41
2 -2 -6 1240.07 39.68
-2 2 5 754.11 31.45
2 -2 -5 758.01 24.82
2 -2 -5 719.53 21.16
2 -2 -4 35.63 5.1
-2 2 4 35.39 5.2
2 -2 -4 34.49 2.78
2 -2 -4 30.26 2.84
2 -2 -3 7.55 2.17
2 -2 -3 8.71 1.84
-2 2 3 8.6 2.59
2 -2 -2 978.57 33.02
2 -2 -2 884.81 29.61
-2 2 2 974.91 33.62
-2 2 1 9999 235.44
2 -2 -1 9918.68 234.57
-2 2 0 179.14 10.93
-2 2 0 201.47 11.21
2 -2 0 202.78 11.49
2 -2 0 194.28 10.9
2 -2 1 1673.78 52.34
-2 2 -1 1624.59 52.19
-2 2 -1 1679.28 52.97
2 -2 1 1824.6 53.19
-2 2 -2 26.58 4.21
2 -2 2 19.32 3.44
2 -2 2 21.09 3.77
2 -2 3 415.27 19.7
2 -2 3 429.1 14.56
2 -2 3 482.29 21.1
-2 2 -3 423.66 20.74
2 -2 4 683.48 21.37
2 -2 4 660.02 27.6
-2 2 -4 657.86 28.74
-2 2 -5 803.41 33.78
-2 2 -6 557.58 27.35
-2 2 -7 119.95 8.15
-2 2 -7 128.17 12.19
-2 2 -8 1.25 0.64
-2 2 -8 -0.37 0.63
-2 2 -9 239.16 18.36
-2 2 -9 220.76 13.35
2 -2 10 647.68 36.6
-2 2 -10 690.3 27.94
-2 2 -10 582.17 32.53
-2 2 -11 517.89 29.8
2 -2 11 490.95 32.65
2 -2 12 279.19 25.07
2 -2 13 28.21 8.13
-2 1 14 2.61 3.48
2 -1 -14 1.27 2.52
-2 1 13 4.94 4.06
2 -1 -13 -0.33 2.75
-2 1 12 311.63 25.63
2 -1 -12 301.09 24.8
2 -1 -11 329.64 22.19
-2 1 11 287.41 23.54
2 -1 -11 342.5 25.32
2 -1 -10 120.69 12.16
-2 1 10 129.22 14.14
2 -1 -10 123.51 14.22
-2 1 9 496.28 28.63
2 -1 -9 536.52 26.5
2 -1 -9 513.85 29.89
2 -1 -8 49.62 6.53
-2 1 8 46.34 7.5
2 -1 -8 54.83 8.34
-2 1 8 45.17 3.8
-2 1 7 31.47 5.59
2 -1 -7 23 4.11
2 -1 -6 406.57 18.29
-2 1 6 394.19 20.64
2 -1 -5 1129.73 36.2
2 -1 -5 1179.31 39.68
-2 1 5 1067.63 39.37
2 -1 -4 1417.11 45.1
-2 1 4 1399.4 45.26
2 -1 -4 1396.97 41.4
2 -1 -3 571.47 17.35
-2 1 3 528.47 18.32
2 -1 -3 585.55 21.39
-2 1 3 568.04 21.46
2 -1 -3 569.45 18.2
-2 1 3 540.81 17.69
2 -1 -2 392.62 14.11
2 -1 -2 375.54 15.42
-2 1 2 406.34 14.43
-2 1 2 373.47 13.25
-2 1 2 388.3 15.9
-2 1 1 1511.38 43.71
-2 1 1 1428.71 44.03
2 -1 -1 1529.62 43.6
2 -1 -1 1424.87 43.86
-2 1 0 1311.49 40
2 -1 0 1265.51 39.53
2 -1 0 1274.36 39.49
-2 1 0 1292.57 39.18
-2 1 -1 5.63 1.58
2 -1 1 8.98 2.25
2 -1 1 6.48 1.83
2 -1 2 885.89 31.37
-2 1 -2 890.82 31.92
-2 1 -3 265.98 14.87
2 -1 3 291.51 15.05
-2 1 -4 36.96 2.27
2 -1 4 41.51 5.39
-2 1 -4 44.62 5.96
-2 1 -5 177.17 13.14
-2 1 -5 196.31 10.18
-2 1 -5 189.6 8.08
-2 1 -6 496.27 24.93
-2 1 -6 484.56 17.62
-2 1 -6 486.23 18.37
-2 1 -7 269.82 11.94
-2 1 -7 281.23 13.12
-2 1 -7 289.72 18.67
-2 1 -8 951.34 32.37
-2 1 -8 868.29 39.32
-2 1 -9 5.56 2.67
-2 1 -9 2.72 1.54
-2 1 -10 6.52 2.97
2 -1 10 7.53 4.45
2 -1 11 101.08 14.27
-2 1 -11 105.52 12.66
2 -1 12 146.56 18.25
2 -1 13 302.82 28.17
2 0 -15 319.7 28.48
-2 0 14 152.05 18.69
2 0 -14 137.32 17.6
-2 0 13 193.34 19.88
2 0 -13 159.26 18.29
-2 0 12 46.07 9.13
2 0 -12 48.09 9.44
2 0 -12 60.01 9.69
-2 0 11 -3 2.28
2 0 -11 -1.85 1.85
2 0 -11 1.72 2.65
-2 0 10 103.3 12
2 0 -10 102.02 12.72
2 0 -10 122.23 12.62
2 0 -9 340.59 23.28
-2 0 9 346.6 21.85
2 0 -9 389.99 22.57
-2 0 8 870.54 35.92
2 0 -8 831.25 35.23
2 0 -8 807.02 37.7
-2 0 7 241.91 11.34
2 0 -7 228.83 16.74
-2 0 7 241.02 15.3
2 0 -7 232 15.04
2 0 -6 34.31 5.77
2 0 -6 39.96 5.29
-2 0 6 37.51 5.11
-2 0 6 31.2 3.71
2 0 -5 702.96 25.62
-2 0 5 712.87 20.21
-2 0 5 658.33 25.63
-2 0 5 673.69 24.29
2 0 -5 705.97 26.59
2 0 -5 679.76 29.39
-2 0 5 653.29 26.54
2 0 -4 821.72 28.6
-2 0 4 825.19 24.43
-2 0 4 808.52 28.81
-2 0 4 795.69 27.73
-2 0 4 813.31 27.32
2 0 -4 785.98 26.99
2 0 -4 852.13 31.99
-2 0 3 1988.25 54.49
-2 0 3 1892.68 57.17
2 0 -3 1898.95 54.46
-2 0 3 1932.98 54.75
2 0 -3 2008.3 57.18
2 0 -3 2001.37 60.09
-2 0 3 1973.49 57.26
-2 0 2 3199.38 89.09
2 0 -2 3304.16 90.59
2 0 -2 3283.85 91.83
2 0 -2 3316.44 86.59
-2 0 2 3316.14 91.18
-2 0 2 3326.06 90.44
-2 0 2 3227.31 87.15
2 0 -1 352.2 12.87
-2 0 1 376.67 15.86
-2 0 1 373.19 15.44
-2 0 1 374.14 15.26
2 0 -1 343.71 14.63
-2 0 1 385.59 15.13
-2 0 1 367.73 12.72
2 0 0 700.8 23.4
2 0 0 730.29 25.68
-2 0 0 683.27 25.54
-2 0 0 710.62 25.73
2 0 0 753.59 23.24
-2 0 0 756.91 23.3
2 0 1 13.68 2.69
-2 0 -1 13.09 2.76
-2 0 -1 8.34 1.3
-2 0 -1 10.26 2.22
-2 0 -2 371.62 17.65
-2 0 -2 356.34 15.94
2 0 2 404.73 17.77
-2 0 -2 369.2 11.84
-2 0 -3 4191.3 119.29
2 0 3 4278.49 118.93
-2 0 -3 4226.12 115.84
-2 0 -4 788.06 31.51
-2 0 -4 784.94 27.67
-2 0 -5 798.14 33.05
-2 0 -5 807.36 28.22
-2 0 -6 0.38 1.36
2 0 6 0.73 1.94
-2 0 -7 335.16 20.5
2 0 7 339.06 22.3
-2 0 -7 334.81 15.64
-2 0 -8 417.98 24.55
2 0 8 391.67 26.38
-2 0 -8 482.48 20.24
-2 0 -9 515.44 28.68
2 0 9 445.32 30.03
-2 0 -9 529.13 23.05
-2 0 -10 64.01 9.61
2 0 10 42.53 9.16
2 0 11 10.66 4.71
2 0 12 2.7 3.92
-2 -1 15 1.9 3.41
2 1 -15 8.69 4.49
-2 -1 14 114.99 15.48
2 1 -14 121.91 16.44
-2 -1 13 312.29 24.77
2 1 -13 302.68 25.63
2 1 -13 313.53 25.23
-2 -1 12 574.57 33.14
2 1 -12 542.07 34.41
2 1 -12 575.79 34.17
-2 -1 11 211.03 17.83
2 1 -11 214.94 19.62
2 1 -11 208.23 18.45
-2 -1 10 337.99 21.61
2 1 -10 313.83 23.22
2 1 -10 331.09 22.82
-2 -1 9 51.91 7.53
2 1 -9 68.84 9.14
2 1 -9 62.51 9.29
-2 -1 9 58.28 3.38
-2 -1 8 629.39 28.09
2 1 -8 612.1 31.66
-2 -1 8 656.82 21.4
2 1 -8 637.07 30.85
-2 -1 7 834.18 31.6
2 1 -7 805.59 36.23
2 1 -7 860.31 35.26
-2 -1 7 812.06 27.01
-2 -1 6 429.3 18.84
2 1 -6 470.76 24.17
2 1 -6 437.41 22.13
-2 -1 6 458.72 19.24
2 1 -5 230.14 15.05
-2 -1 5 200.99 10.48
2 1 -5 224.12 13.89
-2 -1 5 213.23 14.01
-2 -1 5 228.59 12.32
-2 -1 4 59.1 6.53
2 1 -4 56.35 6.35
-2 -1 4 65.71 4.29
2 1 -4 67.46 7.33
-2 -1 4 75.05 6.65
2 1 -3 1127.03 37.6
2 1 -3 1132.98 39
-2 -1 3 1098.15 38.7
2 1 -3 1097.56 38.37
-2 -1 3 1098.29 38.33
-2 -1 3 1159.56 37.87
-2 -1 2 168.12 10.7
2 1 -2 193.36 11.33
-2 -1 2 191.57 11.19
2 1 -2 163.84 10.87
-2 -1 2 202.42 11.89
2 1 -2 177.1 10.94
2 1 -1 637.63 18.76
2 1 -1 617.56 24.54
2 1 -1 609.2 23.27
-2 -1 1 636.75 23.49
-2 -1 1 654.21 24.86
-2 -1 1 644.18 25.16
2 1 0 114.98 6.58
-2 -1 0 117.26 8.78
-2 -1 0 122.74 8.83
2 1 0 101.42 8.19
-2 -1 0 128.66 7.79
2 1 1 105.41 7.35
-2 -1 -1 101.71 8.52
2 1 1 102.46 8.16
-2 -1 -1 108.45 6.74
-2 -1 -1 101.57 8.11
2 1 2 13.96 3.01
-2 -1 -2 16.84 3.23
-2 -1 -2 14.19 3.34
2 1 2 17.9 3.23
2 1 3 460.87 20.21
-2 -1 -3 482.16 22.47
2 1 3 446.44 21.29
-2 -1 -3 452.36 20.16
2 1 4 1568.98 53.98
-2 -1 -4 1535.57 53.38
-2 -1 -5 652.49 29.88
2 1 5 690.89 31.55
-2 -1 -6 958.07 39.33
2 1 6 899.99 40.49
-2 -1 -7 428.29 24.02
2 1 7 357.24 24.43
-2 -1 -8 4.42 2.64
2 1 8 1.38 2.6
-2 -1 -9 55.41 8.69
2 1 9 60.02 10.55
2 1 10 257.94 23.82
-2 -1 -10 281.74 21.17
2 1 11 85.79 13.95
2 1 12 337.88 30.29
2 2 -15 99.73 15.49
-2 -2 14 24.42 6.86
2 2 -14 17.62 6.17
2 2 -14 28.06 7.82
-2 -2 13 18.21 5.45
2 2 -13 16.55 5.79
2 2 -13 14.7 5.2
-2 -2 12 60.48 9.42
2 2 -12 44.24 9.12
2 2 -12 54.71 9.96
2 2 -11 202.41 19.14
-2 -2 11 251.25 18.45
2 2 -11 227.95 20.39
-2 -2 10 454.36 24.73
2 2 -10 480.38 29.51
2 2 -10 451.43 28.35
-2 -2 9 296.17 17.98
2 2 -9 310.85 22.28
2 2 -9 332.79 22.56
-2 -2 8 79.56 7.77
-2 -2 8 82.39 7.56
2 2 -8 106.34 11.8
2 2 -8 83.07 10.31
2 2 -7 20.47 4.81
-2 -2 7 20.54 3.51
2 2 -7 18.71 4.69
2 2 -6 423.22 20.46
2 2 -6 474.16 24.49
2 2 -6 468.13 24.76
-2 -2 6 466.94 17.97
2 2 -5 982.05 38.57
2 2 -5 982.58 38.71
-2 -2 5 951.89 29.33
2 2 -5 974.91 35.47
-2 -2 5 951.78 28.94
2 2 -4 2159.64 69.6
2 2 -4 2195.67 69.92
2 2 -4 2191.09 67.34
2 2 -3 1722.57 58.01
2 2 -3 1771.66 57.46
2 2 -3 1792.74 56.99
2 2 -2 95.13 8.96
-2 -2 2 107.5 8.84
2 2 -2 97.1 8.68
-2 -2 1 201.43 12.23
2 2 -1 199.47 8.82
2 2 -1 198.82 12.95
-2 -2 0 819.55 29.02
2 2 0 754.18 25.92
2 2 0 720.62 29.93
2 2 1 865.06 30.21
2 2 1 788.66 31.89
2 2 2 827.33 31.62
2 2 2 828.22 32.31
-2 -2 -2 795.45 33.16
2 2 3 4.05 1.92
-2 -2 -3 1.68 1.13
2 2 3 5.53 2.56
2 2 4 32.52 5.06
-2 -2 -4 37.75 6.13
2 2 4 41.13 6.45
-2 -2 -5 146.49 13.02
2 2 5 147.32 13.75
2 2 5 142.5 11.15
-2 -2 -6 633.52 31.04
2 2 6 596.69 32.47
-2 -2 -7 336.5 21.94
2 2 7 297.46 22.91
-2 -2 -8 242.47 18.92
2 2 8 232.07 21.02
-2 -2 -9 21.81 5.63
2 2 9 37.56 8.58
2 2 10 23.33 7.27
2 2 11 100.7 15.92
2 3 -15 104.61 15.96
2 3 -15 84.99 14.54
2 3 -14 520.93 36.25
2 3 -14 468.13 34.88
2 3 -13 133.09 16.92
2 3 -13 156.36 18.44
-2 -3 12 6.62 3.02
2 3 -12 5 3.36
2 3 -12 9.63 4.38
2 3 -11 1.53 2.2
2 3 -11 5.02 3.1
-2 -3 11 3.18 2.16
-2 -3 10 370.92 20.78
2 3 -10 357.41 25.69
2 3 -10 341.88 25.3
2 3 -9 518.16 30.7
-2 -3 9 540.19 24.14
2 3 -9 474.22 29.53
-2 -3 8 667.52 27.35
-2 -3 8 675.48 26.34
2 3 -8 655.62 28.81
2 3 -8 634.63 33.85
2 3 -8 675.3 34.64
2 3 -7 133.43 13.36
-2 -3 7 118.11 8.09
2 3 -7 129.78 13.06
-2 -3 7 119.17 8.57
2 3 -7 106.35 9.96
2 3 -6 74.58 9.6
-2 -3 6 79.13 5.42
-2 -3 6 84.88 6.04
2 3 -6 63.63 8.85
2 3 -6 76.29 8.34
-2 -3 5 149.74 6.42
2 3 -5 162.6 13.69
2 3 -5 137.86 11.49
-2 -3 5 151.04 6.93
2 3 -4 764.78 33.86
2 3 -4 746.13 31.77
-2 -3 3 1217.54 32.77
2 3 -3 1222.36 46.43
2 3 -3 1182.54 44.64
-2 -3 2 555.18 17.85
2 3 -2 577.85 27.49
2 3 -2 522.33 18.43
2 3 -2 531.79 25.67
2 3 -1 429.32 16.99
2 3 -1 399.05 21.89
2 3 0 163.51 10.33
2 3 0 179.78 13.55
2 3 1 324.47 16.88
2 3 1 286.02 18.08
2 3 2 633.64 27.92
2 3 2 604.6 28.5
-2 -3 -3 653.1 31.06
2 3 3 609.85 29.5
2 3 3 635.3 29.29
-2 -3 -4 489.92 26.67
2 3 4 448.36 25.74
2 3 4 473.19 24.43
-2 -3 -5 99.2 11.36
2 3 5 112.27 10.81
2 3 5 109.68 12.39
2 3 6 48.06 6.93
-2 -3 -6 46.63 8.03
2 3 6 61.75 10
-2 -3 -7 192.42 17.15
2 3 7 190.79 18.82
2 3 8 92.08 13.51
-2 -3 -8 117.35 13.59
-2 -3 -9 120.24 14.09
2 3 9 110.42 15.7
2 3 10 100.69 15.83
2 4 -14 53.21 11.1
2 4 -14 49.35 11.17
2 4 -13 141.68 18.32
2 4 -13 115.66 16.17
2 4 -12 315.27 26.43
2 4 -12 319.24 27.17
2 4 -11 258.2 22.82
2 4 -11 231.95 22.28
2 4 -10 7.93 3.59
2 4 -10 15.69 5.86
2 4 -10 12.85 3.51
-2 -4 10 9.02 2.92
-2 -4 9 83.66 7.73
2 4 -9 80.93 11.6
2 4 -9 96.57 13.02
2 4 -9 87.62 9.65
2 4 -8 289.76 22.45
-2 -4 8 278.49 14.13
2 4 -8 270.87 18.24
-2 -4 7 928.91 32.99
-2 -4 7 1036.11 31.97
2 4 -7 962.71 45.16
2 4 -7 983.59 40.65
2 4 -6 231.23 18.66
2 4 -6 199.89 15.61
-2 -4 6 226.4 10.43
2 4 -5 121.41 12.92
-2 -4 5 117.48 5.85
2 4 -5 93.62 10.46
2 4 -4 40.25 6.86
-2 -4 4 50.8 3.5
2 4 -4 38.55 7.06
-2 -4 3 275.84 11.1
2 4 -3 259.06 11.49
2 4 -3 248.24 18.65
2 4 -3 239.7 17.62
-2 -4 2 204.46 10.14
2 4 -2 196.5 16.2
2 4 -2 179.69 10.67
2 4 -2 175.89 14.93
-2 -4 1 570.85 22.37
2 4 -1 539.43 23.13
2 4 -1 616.91 30.04
-2 -4 0 884.9 33.2
2 4 0 904.84 34.07
2 4 0 872.35 38.74
2 4 1 1146.56 47.57
2 4 1 1272.15 45.05
2 4 2 170.25 13.85
2 4 2 184.42 15.34
2 4 3 0.29 1.41
2 4 3 0.25 1.19
-2 -4 -3 -0.23 1.28
-2 -4 -4 602.71 32.95
2 4 4 668.53 32.55
2 4 4 653.78 33.81
-2 -4 -5 803.69 40.19
2 4 5 902.6 42.76
2 4 5 835.54 38.17
-2 -4 -6 276.02 21.49
2 4 6 254.37 21.95
2 4 6 251.66 18.66
2 4 7 40.68 8.98
-2 -4 -7 39.87 8.14
2 4 7 46.56 7.48
2 4 8 48.31 10.22
-2 -4 -8 61.92 10.37
2 4 9 74.67 13.41
2 5 -14 164.61 21.21
2 5 -13 3.99 4.3
2 5 -12 195.25 21.78
2 5 -11 310.64 27.14
2 5 -10 737.61 43.24
2 5 -10 778.55 36.37
2 5 -9 166.12 18.29
2 5 -9 160.24 14.67
2 5 -8 90.14 12.93
2 5 -8 80.5 10.38
2 5 -7 29.47 6.38
2 5 -7 23.28 6.41
2 5 -6 256.61 21.28
2 5 -6 266.28 19.74
-2 -5 5 350.11 13.52
2 5 -5 315.23 23.67
2 5 -5 334.67 22.74
-2 -5 4 95.41 6.31
2 5 -4 87.93 6.26
2 5 -4 84.78 10.79
2 5 -4 70.57 10.52
2 5 -3 199.25 11.28
-2 -5 3 194.06 10.48
2 5 -3 179.45 16.86
2 5 -3 178.53 16.2
2 5 -2 28.35 6.29
2 5 -2 29.37 4.56
-2 -5 2 30.99 4.26
2 5 -1 139.9 11.19
2 5 -1 132.9 13.87
2 5 0 349.16 23.92
2 5 0 387.81 21.17
2 5 1 693.63 31.91
2 5 1 631.24 34.02
2 5 2 235.44 17.77
2 5 2 206.66 17.92
2 5 3 17.7 5.15
2 5 3 15.16 4.73
2 5 4 7.17 3.89
-2 -5 -4 2.45 1.97
2 5 4 2.54 2.71
2 5 5 59.88 9.4
2 5 5 71.13 11.19
-2 -5 -5 83.91 11.98
-2 -5 -6 239.22 21.27
2 5 6 220.37 18.66
2 5 6 225.62 21.63
-2 -5 -7 130.3 15.74
2 5 7 131 17.07
-2 -5 -8 167.7 18.45
2 5 8 199.72 22.34
2 6 -12 6.6 4.53
2 6 -11 77.65 13.86
2 6 -10 206.35 22.16
2 6 -10 197.57 17.93
2 6 -9 318.38 23.48
2 6 -9 324.58 27.51
2 6 -8 385.71 29.85
2 6 -8 463.43 28.73
2 6 -7 388.16 26.54
2 6 -7 418.36 30.17
2 6 -6 79.19 11.5
2 6 -6 91.85 13.18
2 6 -5 1.45 3.04
2 6 -5 1.84 2.07
2 6 -4 116.74 14.4
2 6 -4 95.63 12.61
2 6 -3 817.97 42.41
2 6 -3 762.19 40.09
2 6 -3 771.01 30.6
2 6 -2 612.71 27.75
2 6 -2 561.78 33.63
2 6 -1 217.92 16
2 6 -1 208.75 19.28
2 6 0 38.36 8.02
2 6 0 56.23 8.15
2 6 1 304.72 20.8
2 6 1 223.75 20.6
2 6 2 211.22 18.25
2 6 2 184.33 18.32
2 6 3 156.68 16.65
2 6 3 173.86 17.23
-2 -6 -4 180.02 19.08
2 6 4 223.13 20.12
2 6 4 187.94 19.03
2 6 5 27.88 6.93
-2 -6 -5 7.83 4.05
2 6 5 22.49 6.69
2 6 6 0.01 1.91
-2 -6 -6 2.19 2.33
-2 -6 -7 17.17 6.31
2 6 7 38.53 9.94
2 7 -11 30.66 8.86
2 7 -10 18.27 5.94
2 7 -10 13.76 6.21
2 7 -9 92.49 13.02
2 7 -9 96.24 15.41
2 7 -8 73.71 11.84
2 7 -8 87.63 13.97
2 7 -7 316.47 27.38
2 7 -7 301.05 24.71
2 7 -6 298.42 26.26
2 7 -6 322.6 25.68
2 7 -5 12.17 4.93
2 7 -5 13.46 5.46
2 7 -4 28.36 7.1
2 7 -4 29.65 7.87
2 7 -3 103.89 14.09
2 7 -2 429 30.57
2 7 -1 519.35 34.04
2 7 0 234.16 21.96
2 7 0 220.34 18.55
2 7 1 139.23 16.88
2 7 1 144.53 15.45
2 7 2 -0.81 2.25
2 7 2 -3.25 2.56
2 7 3 47.76 9.85
2 7 3 61.03 10.9
-2 -7 -4 150.03 18.31
2 7 4 147.73 18.04
2 7 4 170.28 18.9
-2 -7 -5 154.03 18.91
2 7 5 140.88 18.32
2 7 5 166.44 18.5
-2 -7 -6 90.88 14.93
2 7 6 123.27 17.66
2 8 -10 251.93 23.71
2 8 -9 123.35 16.58
2 8 -9 136.88 19.26
2 8 -8 1.69 2.64
2 8 -8 -0.63 2.89
2 8 -7 16.81 5.86
2 8 -7 26.35 8.19
2 8 -6 94.48 14.35
2 8 -6 76.43 13.62
2 8 -5 164.76 20.19
2 8 -5 166.77 19.61
2 8 -4 157.59 18.98
2 8 -3 81.91 13.51
2 8 -2 -1.03 1.71
2 8 -1 -0.08 1.43
2 8 0 273.5 25.67
2 8 1 89 14.56
2 8 2 225.3 23.42
2 8 3 60.78 12.09
-3 12 -3 66.08 13.8
-3 12 -4 105.58 16.95
-3 11 1 109.46 17.89
-3 11 0 115.29 18.05
-3 11 -1 157.94 20.9
-3 11 -2 99.42 16.06
-3 11 -3 32.88 9.38
-3 11 -4 0.89 2.1
-3 11 -4 6.42 4.66
-3 11 -5 60.13 11.59
-3 11 -5 47.31 10.45
-3 11 -6 242.72 24.17
-3 11 -6 221.07 23.53
-3 11 -7 341.23 30.59
-3 10 3 403.3 35.46
-3 10 2 18.68 7.38
-3 10 1 62.38 13.28
-3 10 0 48.01 11.38
-3 10 -1 10.86 5.53
-3 10 -2 263.27 25
-3 10 -2 216.17 19.43
-3 10 -3 226.66 23.07
-3 10 -3 243.12 21.23
-3 10 -4 85.01 13.67
-3 10 -4 76.29 12.06
-3 10 -5 53.89 10.56
-3 10 -5 55.34 10.65
-3 10 -6 4.17 3.35
-3 10 -6 -0.4 2.34
-3 10 -7 181.79 21
-3 10 -8 190.06 22.17
-3 10 -9 122.8 18.3
-3 9 5 137.02 19.78
-3 9 4 113.53 17.68
-3 9 3 162.14 20.56
-3 9 2 193.39 22.09
-3 9 1 281.58 26.26
-3 9 0 476.67 26.74
-3 9 0 517.15 35.93
-3 9 -1 135.37 17.28
-3 9 -1 129.12 13.28
-3 9 -2 13.18 4.45
-3 9 -2 17.64 6.3
-3 9 -3 194.48 19.99
-3 9 -3 164.64 16.45
-3 9 -4 246.78 22.63
-3 9 -4 268.21 22.06
-3 9 -5 61.78 10.76
-3 9 -5 79.49 12.08
-3 9 -6 367.74 28.27
-3 9 -6 350.07 27.2
-3 9 -7 46.42 10.01
-3 9 -8 8.11 4.57
-3 9 -9 152.18 19.96
-3 9 -10 152.08 20.65
-3 8 7 110.97 17.67
-3 8 6 127.8 18.53
-3 8 5 286.52 27.37
-3 8 4 200.34 22.08
-3 8 3 0.04 1.63
-3 8 2 23.75 6.88
-3 8 1 223.43 21.79
-3 8 0 291.89 24.64
-3 8 0 267.25 17.58
-3 8 -1 714.58 39.94
-3 8 -1 654.06 31.76
-3 8 -2 445.48 30.48
-3 8 -2 510.99 27.86
-3 8 -3 256.8 21.95
-3 8 -3 258.49 19.79
-3 8 -4 22.99 6.5
-3 8 -4 21.74 5.78
-3 8 -5 9.92 3.76
-3 8 -5 3.67 3
-3 8 -6 485.01 31.46
-3 8 -6 538.02 33.62
-3 8 -7 663.56 39.8
-3 8 -8 59.6 11.43
-3 8 -9 48.57 11.04
-3 8 -10 -0.56 2.14
-3 8 -11 143.66 20.22
-3 7 8 527.53 38.84
-3 7 7 111.64 16.65
-3 7 6 9.19 5.26
-3 7 5 40.16 9.26
-3 7 4 400.45 30.03
-3 7 3 302.2 25.07
-3 7 2 59.51 10.38
-3 7 1 98.1 8.8
-3 7 1 98.58 13.35
-3 7 0 12.45 3.32
-3 7 0 15.13 5.27
-3 7 -1 115.11 13.88
-3 7 -1 106.57 10.34
-3 7 -2 417.93 27.3
-3 7 -2 407.7 23.17
-3 7 -3 372.88 25.6
-3 7 -3 405.27 24.12
-3 7 -4 392.94 25.76
-3 7 -4 369.96 24.41
-3 7 -5 87.82 11.81
-3 7 -5 95.57 12.23
-3 7 -6 46.69 8.94
-3 7 -7 365.34 27.54
-3 7 -8 754.68 43.59
-3 7 -9 179.34 20.52
-3 7 -10 309.8 28.48
-3 7 -11 3.89 2.57
-3 7 -12 13.24 6.63
-3 6 10 7.88 4.72
-3 6 9 59.38 12.12
-3 6 8 233.42 23.65
-3 6 7 427.58 31.63
-3 6 6 414.21 30.17
-3 6 5 114.39 14.55
-3 6 4 44.07 8.92
-3 6 3 21.76 6.03
-3 6 2 476.21 29.43
-3 6 1 475.92 20.17
-3 6 1 507.34 29.9
-3 6 0 568.47 31.4
-3 6 0 508.86 22.63
-3 6 -1 181.89 16.31
-3 6 -1 165.4 12.2
-3 6 -2 4.86 2.97
-3 6 -2 2.31 2.33
-3 6 -3 155.26 14.87
-3 6 -3 155.43 13.51
-3 6 -4 289.6 20.79
-3 6 -4 328.81 21.68
-3 6 -5 450.08 27.66
-3 6 -5 458.6 27.42
-3 6 -6 221.19 19.43
-3 6 -7 3.42 2.79
-3 6 -8 28.56 7.48
-3 6 -9 27.22 7.97
-3 6 -10 136.12 18.13
-3 6 -11 353.85 31.33
-3 6 -12 109.46 17.53
-3 5 11 182.16 22.12
-3 5 10 226.43 23.68
-3 5 9 41.89 9.49
-3 5 8 0.78 1.44
-3 5 7 69.16 11.17
-3 5 6 243.25 21.08
-3 5 5 818.44 40.95
3 -5 -5 826.16 33.51
-3 5 4 391.41 25.62
-3 5 3 373.77 24.29
-3 5 2 235.93 18.35
-3 5 1 94.83 6.67
-3 5 1 117.18 12.27
-3 5 0 1220.61 47.5
-3 5 0 1088.15 37.44
-3 5 -1 1709.14 61.2
-3 5 -1 1653.36 54.27
-3 5 -2 391.13 20.52
-3 5 -2 356.72 22.19
-3 5 -3 220.14 15.8
-3 5 -3 195.49 15.69
-3 5 -4 73.51 9.4
-3 5 -4 51.81 7.82
-3 5 -5 1303.72 52.13
-3 5 -5 1204.18 50.63
-3 5 -6 318.23 22.62
-3 5 -6 347.59 24.19
-3 5 -7 491.87 31.48
-3 5 -7 533.77 30.65
-3 5 -8 117.46 13.75
-3 5 -8 114.38 14.78
-3 5 -9 46.56 9.96
-3 5 -10 11.27 5.25
-3 5 -11 145.32 19.39
-3 5 -12 282.48 28.65
-3 5 -13 240.54 27.29
-3 4 12 14.33 6.17
-3 4 11 2.59 2.1
-3 4 10 181.87 19.9
-3 4 9 385.45 28.58
-3 4 8 78.84 11.86
-3 4 7 99.08 12.6
-3 4 6 55.58 9.01
3 -4 -6 57.23 5.78
-3 4 5 593.37 31.64
3 -4 -5 633.29 24.99
-3 4 4 182.12 15.54
3 -4 -4 205.57 12.64
-3 4 3 867.11 38.2
3 -4 -3 889.22 33.66
-3 4 2 450.65 24.34
3 -4 -2 402.64 20.55
-3 4 1 338.98 13.28
3 -4 -1 355.67 19.21
-3 4 1 347.81 20.72
-3 4 0 126.14 11.56
-3 4 0 109.63 7.84
-3 4 -1 151.36 12.63
-3 4 -1 148.74 12.1
-3 4 -2 1043.69 41.84
-3 4 -2 1140.08 43.27
-3 4 -3 373.15 21.32
-3 4 -3 376.23 22.3
-3 4 -4 1218.4 48.7
3 -4 5 151.71 9.84
-3 4 -5 150.53 14.23
3 -4 6 110.51 8.29
-3 4 -6 89.92 11.33
-3 4 -7 32.35 6.93
3 -4 7 35.64 4.63
-3 4 -8 241.6 20.02
-3 4 -9 460.4 29.54
-3 4 -10 156.91 16.55
-3 4 -11 9.6 4.37
-3 4 -12 42.29 8.79
-3 4 -13 195.88 24.35
3 -4 13 197.79 21.96
-3 3 13 362.52 31.18
3 -3 -13 366.54 31
-3 3 12 274.88 25.74
3 -3 -12 262.44 25.09
-3 3 11 84.48 13.33
-3 3 10 397.6 28.75
-3 3 9 245.71 20.92
-3 3 8 199.79 18.14
3 -3 -8 237.71 12.08
3 -3 -7 688.5 22.64
-3 3 7 595.38 32.83
3 -3 -6 836.65 25.82
-3 3 6 799.27 37.84
3 -3 -5 413.1 16.27
-3 3 5 451.16 24.38
3 -3 -4 2.08 1.17
-3 3 4 4.66 2.45
3 -3 -3 32.57 4.19
-3 3 3 26.75 4.97
-3 3 2 439.43 19.95
-3 3 2 501.46 23.89
3 -3 -2 471.71 20.56
3 -3 -1 1145.2 41.57
-3 3 1 1224.17 43.09
-3 3 1 1127.09 40.1
3 -3 -1 1118.32 39.76
3 -3 0 468.39 21.96
-3 3 0 481.04 22.87
3 -3 0 487.02 23.11
-3 3 0 459.87 22.2
-3 3 -1 3.04 2.32
3 -3 1 3.77 1.88
3 -3 1 4.82 2.33
-3 3 -1 3.25 2.31
-3 3 -2 7.94 3.16
-3 3 -2 9.31 2.57
-3 3 -3 564.22 27.72
3 -3 4 1647.2 47.13
-3 3 -4 1637 59.3
3 -3 5 1265.02 37.02
-3 3 -5 1171.02 48.72
-3 3 -6 602.17 31.48
-3 3 -7 37.84 7.52
-3 3 -8 145.68 15.1
-3 3 -9 782.29 40.26
-3 3 -10 219.14 19.96
-3 3 -11 347.64 26.21
3 -3 12 100.22 15.14
3 -3 13 1.42 2.29
-3 2 13 32.94 8.72
3 -2 -13 43.91 9.99
3 -2 -12 319.89 27.15
-3 2 12 287.8 25.11
-3 2 11 237.02 21.44
3 -2 -11 223.79 21.61
-3 2 10 406.19 27.84
3 -2 -10 465.28 30.63
-3 2 9 61.46 9.65
3 -2 -9 95.01 8.53
-3 2 8 63.64 9.23
3 -2 -8 68.11 6.74
-3 2 7 231.41 17.21
3 -2 -7 258.29 12.77
3 -2 -6 644.73 22.43
-3 2 6 641.62 29.92
3 -2 -5 1090.7 31.49
3 -2 -5 1147.69 33.18
-3 2 5 1130.59 42.16
3 -2 -4 954.61 29.39
3 -2 -4 908.17 35.11
-3 2 4 1004.65 36.66
-3 2 4 930.95 29.74
3 -2 -3 831.1 27.69
3 -2 -3 829.96 31.09
-3 2 3 807.48 24.62
-3 2 3 868.3 32.7
-3 2 3 844.74 28.75
3 -2 -2 32.62 4.09
-3 2 2 30.52 4.65
-3 2 2 29.15 4.07
-3 2 2 27.17 2.82
3 -2 -2 29.1 4.3
3 -2 -1 439.43 19.17
-3 2 1 446.84 20.29
3 -2 -1 434.29 19.95
-3 2 1 443.39 19.86
-3 2 0 939.2 34.69
3 -2 0 939.28 33.86
3 -2 0 983.76 34.83
-3 2 0 894.66 33.63
-3 2 -1 1686.64 55.4
3 -2 1 1686.19 54.48
3 -2 1 1769.71 55.07
-3 2 -1 1605.4 53.6
-3 2 -2 375.28 20.2
3 -2 2 379.28 19.28
-3 2 -3 11.74 3.79
-3 2 -4 12.76 4.06
-3 2 -5 455.8 25.36
-3 2 -6 466.82 26.61
-3 2 -7 64.09 6.46
-3 2 -7 84.12 10.73
-3 2 -8 570.93 32.34
-3 2 -9 135.21 14.98
-3 2 -10 100.93 13.33
-3 2 -11 53.12 10
3 -2 11 56.76 10.83
3 -2 12 315.91 27.9
-3 1 14 379.99 30.91
3 -1 -14 410.47 32.75
-3 1 13 62.02 11.29
3 -1 -13 57.4 11.27
-3 1 12 3.2 2.71
3 -1 -12 -1.99 2.09
3 -1 -11 35.87 6.39
-3 1 11 33.56 7.48
3 -1 -11 31.5 7.61
3 -1 -10 189.74 18.66
-3 1 10 195.06 17.5
3 -1 -10 230.63 16.32
-3 1 9 449.84 26.06
3 -1 -9 412.07 27.58
3 -1 -9 463.13 22.99
3 -1 -8 276.13 20.81
-3 1 8 278.58 18.72
3 -1 -8 285.41 16.27
-3 1 8 259.96 14.05
-3 1 7 6.22 1.86
-3 1 7 7.35 2.92
3 -1 -7 3.73 2.77
3 -1 -7 6.36 1.96
3 -1 -6 663.36 24.5
3 -1 -6 624.38 30.69
3 -1 -5 191.13 11.89
-3 1 5 191.03 12.27
3 -1 -5 181.9 10.25
-3 1 5 159.8 10.12
-3 1 5 174.29 8.1
-3 1 4 304.13 12.82
3 -1 -4 286.87 14.49
3 -1 -4 300.93 13.5
-3 1 4 280.94 13.51
-3 1 4 294.88 15.15
-3 1 3 1337.25 41.75
3 -1 -3 1406.39 41.43
3 -1 -3 1314.69 42.17
-3 1 3 1321.76 41.28
-3 1 3 1362.58 43.41
-3 1 2 2115.74 59.48
-3 1 2 1938.43 60.15
3 -1 -2 2106.89 60.26
-3 1 2 1921.63 59.92
3 -1 -2 2054.33 59.61
-3 1 1 431.02 19.05
3 -1 -1 420.33 18.55
-3 1 1 421.12 17.79
3 -1 -1 441.16 18.31
3 -1 -1 425.6 18.06
-3 1 0 50.03 5.86
3 -1 0 49.63 5.61
3 -1 0 47.67 5.2
3 -1 0 38.29 3.96
-3 1 0 40.81 4.71
-3 1 -1 370.17 18.49
3 -1 1 331.81 16.5
3 -1 1 339.98 12.68
3 -1 1 343.37 17.59
-3 1 -2 2668.35 84.36
3 -1 2 2895.13 83.27
-3 1 -3 943.58 37.64
-3 1 -4 420.14 22.77
-3 1 -4 398.72 19.1
-3 1 -5 63.46 8.46
-3 1 -5 43.78 5.48
-3 1 -6 116.74 12.22
-3 1 -6 104.68 8.62
-3 1 -7 166.08 15.24
-3 1 -7 169.08 11.18
-3 1 -8 659.33 34.97
3 -1 9 292.99 23.92
-3 1 -9 344.46 24.52
3 -1 10 113.42 15.03
-3 1 -10 133.86 15.32
-3 1 -11 10.71 4.9
3 -1 11 11.82 5.15
3 -1 12 18.46 6.83
-3 0 14 162.13 18.62
3 0 -14 177.83 20.86
-3 0 13 269.33 23.03
3 0 -13 265.9 25.03
-3 0 12 377.92 26.5
3 0 -12 369.08 28.89
3 0 -12 429.09 26.61
-3 0 11 105 12.48
3 0 -11 99.96 13.79
3 0 -11 113.69 12.44
3 0 -10 3.11 2.4
-3 0 10 3.57 2.68
3 0 -10 2.84 2.49
3 0 -9 141.4 14.96
-3 0 9 117.95 11.67
3 0 -9 141.42 13.12
-3 0 8 590.09 27.38
3 0 -8 628.02 28.2
-3 0 8 597.29 24.55
-3 0 7 664.97 19.43
3 0 -7 573.2 31.14
-3 0 7 657.02 27.51
3 0 -7 624.08 28.01
-3 0 7 643.85 26.16
-3 0 6 489.67 17.08
3 0 -6 477.34 20.5
-3 0 6 493.21 21.11
3 0 -6 442.57 25.06
3 0 -6 466.84 22
-3 0 6 474.37 22.76
-3 0 6 468.93 21.32
-3 0 5 466.62 18.06
3 0 -5 473.1 18.94
3 0 -5 480.03 24.6
-3 0 5 454.71 19.47
-3 0 5 455.37 21.56
3 0 -5 501.73 21.86
-3 0 5 511.07 21.94
-3 0 4 183.04 9.99
3 0 -4 166.85 12.72
3 0 -4 172.58 8.94
3 0 -4 178.66 11.43
-3 0 4 172.1 11.31
-3 0 4 176.82 9.65
-3 0 4 162.71 11.35
-3 0 3 673.11 23.14
-3 0 3 675.99 25.78
3 0 -3 733.57 22.78
3 0 -3 731.85 29.13
-3 0 3 692.33 27.13
-3 0 3 711.12 28.22
-3 0 2 1782.12 54.24
-3 0 2 1772.65 49.23
3 0 -2 1719.71 54.83
-3 0 2 1784.09 54.95
3 0 -2 1649.09 49.39
-3 0 2 1782.31 56.02
-3 0 1 485.58 21.82
3 0 -1 510.91 19.02
3 0 -1 524.18 21
-3 0 1 508.52 22.84
-3 0 1 569.37 21.59
-3 0 1 525.35 22.7
-3 0 0 904.15 33.63
3 0 0 903.38 33.23
3 0 0 870.13 29.45
3 0 0 879.15 29.77
-3 0 0 854.86 33.08
-3 0 0 899.18 29.61
-3 0 -1 539.23 24.13
-3 0 -1 500.71 18.24
-3 0 -2 47.61 6.42
-3 0 -2 38.74 3.22
-3 0 -3 1.62 1.82
-3 0 -3 1.52 0.58
-3 0 -4 325.7 19.78
-3 0 -4 303.97 9.91
-3 0 -5 596.03 29.9
3 0 6 499.34 28.13
-3 0 -6 523.19 16.57
-3 0 -6 546.85 29.14
-3 0 -7 81.88 10.8
3 0 7 95.74 11.93
-3 0 -7 97.36 5.53
-3 0 -8 4.48 3.19
3 0 8 3.3 2.81
-3 0 -9 338.06 24.76
3 0 9 370.7 27.46
-3 0 -10 250.29 21.62
3 0 10 241.93 23.04
3 0 11 183 20.95
3 1 -14 4.29 3.62
-3 -1 13 29.38 7.07
3 1 -13 17.62 6.17
3 1 -13 36.79 8.1
-3 -1 12 89.33 11.52
3 1 -12 98.07 12.71
3 1 -12 73.82 12.52
3 1 -11 591.82 32.67
-3 -1 11 588.04 30.59
3 1 -11 539.65 34.74
-3 -1 10 350.88 21.23
3 1 -10 328.76 24.99
3 1 -10 363.65 23.6
-3 -1 9 380.51 20.74
3 1 -9 342.65 24.78
3 1 -9 407.42 24.02
-3 -1 8 42.64 4.16
-3 -1 8 39.1 5.53
3 1 -8 45.64 8.1
3 1 -8 40.97 6.8
-3 -1 7 5.19 1.76
-3 -1 7 5.54 1.69
3 1 -7 6.35 3.2
3 1 -7 6.12 2.79
-3 -1 6 711.92 25.33
3 1 -6 639.84 31.78
-3 -1 6 651.93 24.09
3 1 -6 700.59 30.63
-3 -1 5 1012.44 35.21
3 1 -5 1008.63 41.26
-3 -1 5 1049.2 31.42
3 1 -5 1032.11 39.53
-3 -1 4 424.87 19.27
3 1 -4 424.14 22.33
3 1 -4 449.5 21.95
-3 -1 3 71.71 7.03
3 1 -3 67.15 7.54
3 1 -3 67.5 7.58
-3 -1 2 175.71 11.8
3 1 -2 143.26 10.85
-3 -1 2 147.15 10.85
3 1 -2 152.46 6.19
-3 -1 1 850.58 33.61
3 1 -1 841.39 31.47
3 1 -1 883.41 27.11
-3 -1 1 850.68 31.56
-3 -1 0 886.13 35.06
-3 -1 0 891.81 31.34
-3 -1 -1 1062.9 41
-3 -1 -1 1077.08 35.2
3 1 2 788.77 31.14
-3 -1 -2 790.97 34.38
-3 -1 -2 843.39 27.94
3 1 3 65.68 7.58
-3 -1 -3 54.6 7.6
-3 -1 -3 55.08 4.91
-3 -1 -4 11.37 3.95
3 1 4 8.74 3.12
-3 -1 -5 257.21 18.8
3 1 5 228.17 17.56
-3 -1 -6 849.71 39.73
3 1 6 823.58 39.48
-3 -1 -7 1258.21 52.68
3 1 7 1211.5 53.34
-3 -1 -8 130.99 14.63
3 1 8 153.67 16.64
-3 -1 -9 85.66 12.12
3 1 9 83.09 13.01
-3 -1 -10 37.97 8.49
3 1 10 40.46 9.56
3 1 11 142.87 18.93
3 2 -14 176.77 21.08
3 2 -13 58.75 11.55
3 2 -13 44.41 9.34
3 2 -12 15.43 5.3
3 2 -12 4.5 2.42
-3 -2 11 209.76 15.92
3 2 -11 205.06 20.36
3 2 -11 210.62 19.28
-3 -2 10 436.26 22.81
3 2 -10 438.5 29.79
3 2 -10 453 28.26
-3 -2 9 245.69 14.94
3 2 -9 272.89 20.49
3 2 -9 267.14 21.59
-3 -2 8 656.8 25.2
3 2 -8 657.57 34.87
3 2 -8 620.74 32.66
3 2 -7 288.49 21.35
-3 -2 7 337.49 14.25
3 2 -7 335.55 21.61
-3 -2 6 1.9 0.71
-3 -2 6 1.36 0.55
3 2 -6 3.72 2.21
3 2 -5 96.73 10.58
3 2 -5 101.13 10.65
3 2 -4 1011.34 40.81
3 2 -4 981.94 39.97
3 2 -4 975.83 39.1
3 2 -3 793.18 33.92
3 2 -3 831.72 35.39
3 2 -3 822.51 34.5
3 2 -2 540.37 26.3
-3 -2 1 347.44 20.2
3 2 -1 366.58 14.27
3 2 -1 378.44 21.14
3 2 0 44.38 6.62
3 2 0 49.57 5.11
-3 -2 0 42.95 6.5
-3 -2 -1 300 19.36
3 2 1 338.87 16.98
-3 -2 -1 331.71 16.94
3 2 1 326.92 19.6
-3 -2 -2 199.66 15.75
3 2 2 210.57 14.01
-3 -2 -2 208.52 12.57
3 2 2 200.31 14.96
-3 -2 -3 271.03 19.39
3 2 3 303.16 18.52
-3 -2 -4 103.92 11.83
3 2 4 111.89 11.6
3 2 5 6.94 3.23
-3 -2 -5 9.06 3.26
-3 -2 -6 48.07 8.52
3 2 6 41.19 7.95
-3 -2 -7 270.78 21.72
3 2 7 290.75 23.43
-3 -2 -8 342.26 25.72
3 2 8 377.19 28.44
3 2 9 145.71 18.3
-3 -2 -9 161.11 17.56
3 2 10 134.89 18.17
3 3 -14 178.83 21.52
3 3 -14 171.56 20.15
3 3 -13 224.77 23.35
3 3 -13 223.48 22.43
3 3 -12 285.02 25.84
3 3 -12 294.71 25.2
3 3 -11 151.48 17.05
3 3 -11 131.38 16.39
3 3 -10 -0.79 1.29
3 3 -10 2.21 2.13
3 3 -9 151.98 15.94
3 3 -9 130.43 15.22
-3 -3 8 9.55 1.86
3 3 -8 2.76 1.26
3 3 -8 8.17 4.27
3 3 -7 1491.28 59.81
3 3 -7 1527.49 59.82
3 3 -7 1496.36 55.27
3 3 -6 174.06 16.01
3 3 -6 204.88 17.11
3 3 -6 171.68 14.4
3 3 -5 163.89 15.03
3 3 -5 165.76 14.91
3 3 -5 170.44 14.22
3 3 -4 1.7 1.36
3 3 -4 4.57 2.62
3 3 -3 126.92 12.99
3 3 -3 132.54 12.52
3 3 -2 657.9 21.11
3 3 -2 686.66 32.24
3 3 -1 1220.58 38.58
3 3 -1 1208.06 47.97
3 3 0 767.96 28.53
3 3 0 703.9 33.81
-3 -3 -1 222.95 17.47
3 3 1 233.81 14.66
3 3 1 229.14 17.27
3 3 2 55.36 8.28
3 3 2 54.6 7.34
-3 -3 -2 51.83 8.25
-3 -3 -3 255.31 19.76
3 3 3 266.06 18.26
3 3 3 240.97 18.16
-3 -3 -4 455.8 28.09
3 3 4 448.97 26.65
3 3 4 449.09 25.94
-3 -3 -5 441.71 28.25
3 3 5 437.96 27.73
-3 -3 -6 321.72 24.41
3 3 6 355.4 25.73
3 3 7 1.8 1.59
-3 -3 -7 3.52 2.71
3 3 8 27.02 7.83
-3 -3 -8 38.45 8.45
-3 -3 -9 173.79 18.86
3 3 9 138.4 18.48
3 4 -14 -1.24 2.86
3 4 -13 4.99 2.85
3 4 -13 8.29 4.4
3 4 -12 131.77 17.57
3 4 -12 146.58 18.18
3 4 -11 445.2 32.64
3 4 -11 488.99 33.7
3 4 -10 221.49 21.3
3 4 -10 203.22 20.63
3 4 -9 134.23 15.91
3 4 -9 115.19 14.9
3 4 -8 20.25 5.2
3 4 -8 11.32 4.45
3 4 -7 324.5 24.53
3 4 -7 349.51 22.77
3 4 -6 1045.25 47.91
3 4 -6 1016.46 44.62
3 4 -5 476.52 29.38
3 4 -5 483.59 27.86
3 4 -4 321.13 23.01
3 4 -4 279.37 20.44
3 4 -3 6.98 3.16
3 4 -2 64.96 9.48
3 4 -2 51.86 4.94
3 4 -1 90.8 7.8
3 4 -1 102.81 12.05
3 4 0 911.89 34.38
3 4 0 832.95 40.37
3 4 1 26 6
3 4 1 25.31 4.8
-3 -4 -1 30.69 6.61
-3 -4 -2 409.5 27.42
3 4 2 491.3 25.78
3 4 2 449.25 27.28
-3 -4 -3 152.62 15.94
3 4 3 155.07 14.53
3 4 3 147.69 14.83
3 4 4 18.06 5.25
3 4 4 21.21 5.89
-3 -4 -4 26.93 7.16
-3 -4 -5 247.88 21.76
3 4 5 243.62 21.05
3 4 5 261.81 20.53
-3 -4 -6 202.79 20.06
3 4 6 230.95 21.48
-3 -4 -7 455.91 31.97
3 4 7 462.53 33.14
-3 -4 -8 158.78 18.52
3 4 8 154.5 19.2
3 5 -13 48.17 11.18
3 5 -12 109.59 16.52
3 5 -11 19.14 7.11
3 5 -10 200.85 17.96
3 5 -10 191.47 20.79
3 5 -9 122.62 16.19
3 5 -9 126.55 14.09
3 5 -8 665.6 39.44
3 5 -8 634.88 34.98
3 5 -7 129.4 15.83
3 5 -7 133.23 14.64
3 5 -6 6.39 3.22
3 5 -6 19.46 6.03
3 5 -5 159.51 17.2
3 5 -5 135.92 14.92
3 5 -4 79.1 11.31
3 5 -4 99.71 13.32
3 5 -3 495.3 30.46
3 5 -2 176.28 17.15
3 5 -2 178.13 11.24
3 5 -1 15.72 4.85
3 5 -1 20.27 3.87
3 5 0 3.04 2.87
3 5 0 4.26 2.34
3 5 1 166.21 14.27
3 5 1 174.73 17.36
-3 -5 -2 282.33 23.56
3 5 2 327.64 21.72
3 5 2 276.83 22.71
-3 -5 -3 527.73 33.39
3 5 3 525.7 30.47
3 5 3 475.5 31.06
-3 -5 -4 322.38 26.04
3 5 4 320.97 24.36
3 5 4 306.74 23.93
3 5 5 -1.19 3.02
3 5 5 -0.28 2.36
-3 -5 -5 3.96 3.56
3 5 6 3.97 3.44
-3 -5 -6 16.95 6.61
3 5 7 114.94 16.68
-3 -5 -7 123.95 16.72
-3 -5 -8 220.58 23.23
3 6 -12 252.68 26.65
3 6 -11 44.27 10.66
3 6 -10 7.51 4.26
3 6 -10 2.49 2.63
3 6 -9 189.96 21.39
3 6 -9 158.42 17.19
3 6 -8 379.46 30.43
3 6 -8 380.04 27.46
3 6 -7 475.15 34.04
3 6 -7 472.1 31.23
3 6 -6 332.1 27.57
3 6 -6 303.65 24.58
3 6 -5 181.78 19.73
3 6 -5 162.92 17.66
3 6 -4 23.56 6.88
3 6 -3 30.11 7.55
3 6 -2 293.19 24.39
3 6 -1 361.6 27.49
3 6 0 150.57 17.32
3 6 1 25.74 6.89
3 6 2 18.79 5.95
-3 -6 -2 20.67 6.86
3 6 3 93.35 13.76
-3 -6 -3 100.94 14.78
3 6 3 106.87 13.79
-3 -6 -4 454.34 33.52
3 6 4 456.76 32.21
3 6 4 460.47 31.58
3 6 5 10.25 4.22
-3 -6 -5 18.23 6.57
3 6 5 21.49 6.61
-3 -6 -6 51.89 11.33
3 6 6 63.75 12.41
3 7 -10 44.3 9.47
3 7 -9 109.24 15.09
3 7 -9 113.6 17.17
3 7 -8 82.59 13.04
3 7 -8 84.83 14.67
3 7 -7 52.84 10.55
3 7 -7 50.57 11.59
3 7 -6 274.19 26.43
3 7 -6 256.81 23.98
3 7 -5 146.41 17.84
3 7 -4 301.27 26.31
3 7 -3 115.8 15.84
3 7 -2 35.64 8.69
3 7 -1 15.58 6.03
3 7 0 307.57 26.95
3 7 1 452.92 33.48
-3 -7 -2 184.71 21.29
3 7 2 230.99 23.07
3 7 3 69.02 12.47
3 7 4 11.43 5.38
3 8 -9 348.63 29.82
3 8 -8 157.24 19.75
3 8 -7 12.55 6.08
3 8 -6 1.46 2.01
3 8 -5 53.37 11.32
3 8 -4 234.48 24.58
3 8 -3 75.1 13.65
-4 11 0 50.67 12.12
-4 11 -1 98.84 16.57
-4 11 -2 243.51 26.13
-4 11 -3 146.71 19.69
-4 11 -4 66.22 13.07
-4 11 -5 -0.94 2.17
-4 11 -5 2.97 2.69
-4 11 -6 1.72 2.23
-4 11 -6 4.71 3.18
-4 11 -7 156.07 19.74
-4 10 3 19.49 7.68
-4 10 2 435.09 36.49
-4 10 1 195.19 23.4
-4 10 0 106.43 16.93
-4 10 -1 17.76 7.46
-4 10 -2 46.35 10.61
-4 10 -3 192.97 21.65
-4 10 -3 197.62 18.51
-4 10 -4 225.76 23.16
-4 10 -4 214.05 20.26
-4 10 -5 71.62 11.79
-4 10 -5 74.99 13.06
-4 10 -6 179.1 19.83
-4 10 -6 195.25 21.42
-4 10 -7 6.22 4.58
-4 10 -8 36.35 9.42
-4 10 -9 167.46 21.63
-4 9 5 423.09 36.09
-4 9 4 76.39 14.39
-4 9 3 91.25 15.65
-4 9 2 16.08 6.35
-4 9 1 112.77 16.7
-4 9 0 259.29 25.14
-4 9 -1 158.22 18.92
-4 9 -1 152.17 13.74
-4 9 -2 237.61 23.01
-4 9 -2 235.73 18.55
-4 9 -3 10.35 4.68
-4 9 -3 18.47 5.16
-4 9 -4 53.72 10.54
-4 9 -4 50.43 9.1
-4 9 -5 82.37 12.99
-4 9 -5 110.46 14.26
-4 9 -6 240.4 22.51
-4 9 -6 215.31 21.72
-4 9 -7 250.13 24.15
-4 9 -8 48.81 10.8
-4 9 -9 -1.15 1.97
-4 9 -10 28.14 8.96
-4 8 7 48.43 12.09
-4 8 6 39.94 10.25
-4 8 5 133.13 18.49
-4 8 4 389.98 31.89
-4 8 3 389.21 31.22
-4 8 2 228.48 22.98
-4 8 1 112.66 15.54
-4 8 0 169.98 19.03
-4 8 0 164.22 12.5
-4 8 -1 132.26 16.45
-4 8 -1 154.88 13
-4 8 -2 792.67 42.21
-4 8 -2 661.48 33
-4 8 -3 426.74 30
-4 8 -3 444.65 26.7
-4 8 -4 337.23 26.03
-4 8 -4 355.26 24.72
-4 8 -5 122.31 15.26
-4 8 -5 122.06 14.61
-4 8 -6 18.96 5.83
-4 8 -7 189.67 20.39
-4 8 -8 195.96 21.35
-4 8 -9 329.91 29.69
-4 8 -10 50.01 11.74
-4 8 -11 1.4 3.1
-4 7 9 23.47 8.6
-4 7 8 158.06 20.76
-4 7 7 263.85 26.19
-4 7 6 306.74 27.68
-4 7 5 99.11 14.95
-4 7 4 37.66 8.96
-4 7 3 208.1 20.9
-4 7 2 279.51 24.25
-4 7 1 360.12 27.18
-4 7 1 363.32 17.04
-4 7 0 -0.4 1.62
-4 7 0 1.46 1.38
-4 7 -1 95.48 12.83
-4 7 -1 80.04 8.71
-4 7 -2 35.15 7.72
-4 7 -2 34.31 6.19
-4 7 -3 300.65 23.44
-4 7 -3 328.47 21.68
-4 7 -4 243.46 20.77
-4 7 -4 260.19 20.09
-4 7 -5 427.99 29.18
-4 7 -5 519.05 30.88
-4 7 -6 229.89 20.92
-4 7 -7 20.56 6.31
-4 7 -8 51.75 10.5
-4 7 -9 303.4 27.7
-4 7 -10 367.78 32.05
-4 7 -11 307.1 30.32
-4 6 10 91.04 15.61
-4 6 9 109.98 16.72
-4 6 8 24.71 7.48
-4 6 7 143.71 17.85
-4 6 6 370.23 28.7
-4 6 5 395.64 29.12
-4 6 4 711.45 39.68
-4 6 3 113.8 14.09
-4 6 2 5.38 2.98
-4 6 1 230.75 19.73
-4 6 1 224.13 11.65
-4 6 0 421.41 27.17
-4 6 0 418.32 19.46
-4 6 -1 696.01 36.1
-4 6 -1 675.57 29.15
-4 6 -2 242.23 19.78
-4 6 -2 264.03 17.49
-4 6 -3 75.17 10.51
-4 6 -3 75.09 9.63
-4 6 -4 1.94 2.24
-4 6 -4 8.72 3.69
-4 6 -5 489.86 29.83
-4 6 -6 416.49 28.52
-4 6 -7 195.39 19.86
-4 6 -7 204.53 19.77
-4 6 -8 78.79 12.87
-4 6 -9 10.91 5.51
-4 6 -10 138.4 18.81
-4 6 -11 247.76 26.58
-4 6 -12 173.84 23.11
-4 5 11 139.64 19.19
-4 5 10 156.5 19.55
-4 5 9 715.28 43.06
-4 5 8 91.33 13.51
-4 5 7 76.74 11.95
-4 5 6 210.98 19.72
-4 5 5 169.76 17.04
4 -5 -5 175.41 12.85
-4 5 4 417.09 27.24
-4 5 3 707.83 36.48
-4 5 2 231.34 8.21
-4 5 2 242.18 19.16
-4 5 1 18.64 4.95
-4 5 1 16.96 2.74
-4 5 0 2.64 1.95
-4 5 0 2.74 1.27
-4 5 -1 246.07 18.48
-4 5 -1 211.13 14.03
-4 5 -1 242.08 17.65
-4 5 -2 872.17 39.93
-4 5 -2 908.37 40.39
-4 5 -3 726.56 36.08
-4 5 -3 857.93 39.35
-4 5 -4 417.16 26.69
-4 5 -5 2.31 2.37
-4 5 -6 83.36 11.72
4 -5 6 74.29 7.14
-4 5 -7 452.28 30.23
-4 5 -8 328.44 25.81
-4 5 -9 230.6 21.75
-4 5 -10 97.48 14.12
-4 5 -11 5.44 3.83
-4 5 -12 50.6 10.53
-4 4 12 149.31 19.39
-4 4 11 34.18 8.83
-4 4 10 12.16 5.04
-4 4 9 32.24 7.78
-4 4 8 451.75 30.13
-4 4 7 319.29 23.72
-4 4 6 142.66 14.89
4 -4 -5 5.82 2.18
-4 4 5 5.55 3.34
4 -4 -4 4.8 1.77
-4 4 4 8.61 3.5
4 -4 -3 639.68 28.14
-4 4 3 766.93 34.95
-4 4 2 1836.64 63.51
-4 4 2 1694.06 47.6
-4 4 2 1749.14 57.89
-4 4 1 7.59 2.7
-4 4 1 10.16 3.22
-4 4 0 2030.98 69.57
-4 4 0 2039.76 68.97
-4 4 -1 14.32 4.27
-4 4 -1 11.51 3.58
-4 4 -2 8.72 3.55
-4 4 -2 6.41 2.54
-4 4 -3 406.79 25.11
-4 4 -4 982.04 44.39
4 -4 5 609.37 21.65
-4 4 -5 626.95 34.22
4 -4 6 190.25 9.22
-4 4 -6 180.3 17.61
-4 4 -7 9.51 4.27
-4 4 -8 175.74 18.21
-4 4 -9 417.41 30.32
-4 4 -10 290.7 25.28
-4 4 -11 223.47 22.54
-4 4 -12 34.59 8.89
-4 3 13 247.02 25.13
-4 3 12 158.52 19.04
4 -3 -12 180.33 21.09
-4 3 11 289.57 25.26
4 -3 -11 331.74 28.26
-4 3 10 598.88 36.12
-4 3 9 111.77 13.76
-4 3 8 25.37 6.05
-4 3 7 180.09 16.19
4 -3 -6 466.85 16.4
-4 3 6 442.88 26.14
-4 3 5 534.41 27.68
4 -3 -5 480.76 19.19
4 -3 -4 286.34 14.65
-4 3 4 305.25 19.57
-4 3 4 303.83 15.38
4 -3 -3 152.5 10.61
-4 3 3 151.65 6.95
-4 3 3 162.83 11.56
-4 3 3 164.81 13.51
-4 3 2 943.28 37.97
-4 3 2 1042.43 37.13
-4 3 1 199.63 14.56
-4 3 1 232.18 15.46
-4 3 0 129.08 11.32
-4 3 0 136.89 12.22
-4 3 -1 946.42 38.61
-4 3 -1 1042.42 41.3
-4 3 -2 108.8 11.51
-4 3 -3 19.67 5.48
4 -3 4 86.53 3.94
-4 3 -4 85.61 10.91
-4 3 -5 311.79 22.55
-4 3 -6 384.19 26.38
-4 3 -7 830.26 42.54
-4 3 -8 87.9 12.68
-4 3 -9 59.76 10.95
-4 3 -10 23.89 6.74
-4 3 -11 117.71 16.18
4 -3 12 219.34 23.64
-4 3 -12 239.1 23.75
-4 2 14 129.26 17.94
-4 2 13 24.86 7.44
4 -2 -13 5.57 3.5
-4 2 12 13.98 5.18
4 -2 -12 15.69 6.56
-4 2 11 79.31 11.98
4 -2 -11 82.22 13.21
-4 2 10 323.98 23.69
4 -2 -10 265.37 23.83
4 -2 -9 603.48 36.41
-4 2 9 667.86 34.56
-4 2 8 208.29 17
4 -2 -8 176.46 17.6
4 -2 -8 208.32 11.81
4 -2 -7 106.83 7.58
-4 2 7 96.04 10.78
-4 2 6 71.97 8.82
4 -2 -5 114.95 7.45
-4 2 5 109.2 7.46
-4 2 5 112.15 10.7
-4 2 5 123.81 8.37
4 -2 -4 1185.39 39.65
-4 2 4 1179.06 37.94
-4 2 4 1247.6 45.09
-4 2 4 1319.55 41.79
-4 2 3 1463.51 50.49
4 -2 -3 1464.43 47.31
-4 2 3 1415.79 44.69
4 -2 -3 1445.51 48.95
-4 2 3 1556.34 49.36
-4 2 2 557.61 24.64
4 -2 -2 562.7 23.66
-4 2 2 539.25 24.42
-4 2 2 545.37 21.72
4 -2 -2 508.33 23.65
-4 2 1 780.4 31.67
-4 2 1 734.59 30.25
4 -2 -1 779.77 31.19
-4 2 0 5.99 2.37
-4 2 0 10.11 3.26
4 -2 0 11.34 2.96
-4 2 -1 327.91 19.75
4 -2 1 340.75 14.69
-4 2 -2 2063.81 70.57
4 -2 2 2102.4 57.67
-4 2 -3 342.5 21.59
-4 2 -4 459.53 26.73
-4 2 -5 54.63 8.59
-4 2 -6 183.04 17.21
-4 2 -7 472.77 30.13
-4 2 -8 612.84 36.24
-4 2 -9 123.82 15.71
-4 2 -10 54.39 10.65
-4 2 -11 91.36 14.12
4 -2 11 52.01 10.92
4 -1 -13 340.09 29.56
-4 1 13 317.07 26.08
-4 1 12 239.46 21.11
4 -1 -12 216.98 22.56
-4 1 11 278.05 21.6
4 -1 -11 236.86 22.97
-4 1 10 103.74 12.16
4 -1 -10 107.16 10.52
4 -1 -10 82.54 12.57
4 -1 -9 303.25 24.08
4 -1 -9 336.56 18.79
-4 1 9 316.19 21.06
4 -1 -8 428.03 28.32
4 -1 -8 479.39 22.37
-4 1 8 445.7 24.61
4 -1 -7 305.89 16.77
4 -1 -7 319.32 22.74
-4 1 7 341.56 19.62
-4 1 7 330.27 11.84
-4 1 6 176.27 9.76
4 -1 -6 167.1 11.41
4 -1 -6 165.61 15
-4 1 6 178.53 12.1
-4 1 6 177.63 12.85
4 -1 -5 18.34 3.5
-4 1 5 15.2 2.8
4 -1 -5 14.35 4.08
-4 1 5 18.56 3.59
-4 1 5 14.3 3.15
-4 1 4 100.42 8.16
4 -1 -4 87.81 7.46
4 -1 -4 105.24 10.55
-4 1 4 96.2 8.18
-4 1 4 97.39 8.4
-4 1 3 213.42 13.05
-4 1 3 196.41 12
4 -1 -3 193.96 12.11
4 -1 -3 187.33 13.86
4 -1 -3 200.1 11.56
-4 1 3 215.27 12.77
-4 1 2 878.02 33.25
-4 1 2 817.82 29.99
-4 1 2 850.6 32.04
4 -1 -2 864.83 33.01
4 -1 -2 787.23 30.06
4 -1 -1 518.67 22.53
-4 1 1 541.39 24.89
4 -1 -1 528.14 22.44
-4 1 1 514.71 21.78
-4 1 0 972.68 38.08
4 -1 0 970.65 35.41
4 -1 0 929.79 32.31
-4 1 -1 116.64 11.02
4 -1 1 131.91 10.58
4 -1 1 118.53 7.37
-4 1 -2 394.52 22.78
-4 1 -3 740.06 34.78
-4 1 -4 358.12 23.1
-4 1 -5 714.71 36.03
-4 1 -6 69.45 10.16
-4 1 -7 1.6 1.87
-4 1 -8 40.78 8.49
-4 1 -9 190.68 19.51
4 -1 9 182.64 19.18
4 -1 10 78.35 13.28
-4 1 -10 113.82 15.58
4 -1 11 341.34 29.65
-4 1 -11 335.56 28.41
4 0 -13 49.41 11.04
4 0 -12 185.64 20.75
-4 0 12 186.41 17.42
4 0 -11 398.24 30.38
-4 0 11 407.59 25.36
4 0 -11 444.23 25.95
4 0 -10 261.57 23.07
-4 0 10 286.62 19.55
4 0 -10 297.26 20.01
-4 0 9 32.19 5.77
4 0 -9 29.8 7.37
4 0 -9 29.36 5.75
-4 0 8 16.53 2.32
-4 0 8 9.13 2.83
4 0 -8 4.08 2.8
4 0 -8 10.56 3.48
-4 0 7 120.9 8.22
4 0 -7 139.37 14.3
4 0 -7 137.26 11.64
-4 0 7 115.67 9.8
-4 0 6 397.63 18.2
4 0 -6 402.98 17.94
4 0 -6 400.14 24.75
4 0 -6 432.31 21.93
-4 0 6 435.21 19.51
-4 0 5 1220.3 41.8
4 0 -5 1269.96 38.83
4 0 -5 1215.27 48.45
4 0 -5 1239.53 44.88
-4 0 5 1237.57 40
-4 0 4 459.3 20.68
-4 0 4 405.15 16.44
4 0 -4 400.61 15.83
4 0 -4 403.7 22.66
-4 0 3 6.15 1.55
-4 0 3 7.25 2.45
4 0 -3 8.97 1.87
4 0 -3 8.47 2.77
-4 0 2 186.37 13.09
4 0 -2 164.21 12.13
4 0 -2 175.19 9.73
-4 0 1 915.27 36.14
4 0 -1 877.15 31.08
4 0 -1 851.22 32.65
-4 0 0 789.41 34
4 0 0 779.88 28.7
4 0 0 787.3 29.68
-4 0 -1 1052.66 43.27
4 0 1 1139.19 39.98
-4 0 -2 158.06 14.03
-4 0 -3 74.83 9.86
-4 0 -4 16.6 4.8
-4 0 -5 313.31 22.53
-4 0 -6 353.94 24.92
4 0 6 306.52 22.38
-4 0 -7 414.4 28.21
4 0 7 432.88 28.47
-4 0 -8 129.11 15.39
4 0 8 106.64 14.1
-4 0 -9 -2.34 2.43
4 0 9 2.32 3.37
-4 0 -10 43.46 9.65
4 0 10 40.83 9.6
4 1 -13 69.9 12.99
4 1 -12 0.47 1.73
4 1 -12 2.05 1.42
4 1 -11 211.27 21.56
4 1 -11 245.15 19.97
4 1 -10 290.42 24.44
-4 -1 10 293.88 18.21
4 1 -10 292.08 21.28
4 1 -9 531.28 33.28
4 1 -9 528.79 29.3
-4 -1 9 533.74 24.4
-4 -1 8 204.89 12.02
4 1 -8 205.34 18.82
4 1 -8 219.43 17.04
-4 -1 8 207.75 12.52
-4 -1 7 338.26 17.06
4 1 -7 332.01 23.42
4 1 -7 350.75 21.59
-4 -1 7 326.98 15.12
-4 -1 6 31.59 3.28
-4 -1 6 36.4 5.23
4 1 -6 47.14 7.26
4 1 -6 39.62 7.26
-4 -1 5 347.53 18.41
4 1 -5 318.77 21.15
4 1 -5 308.44 19.87
-4 -1 4 981.48 37.96
4 1 -4 980.06 40.71
-4 -1 3 444.51 22.86
4 1 -3 422.2 23.08
-4 -1 2 278.41 17.76
4 1 -2 261.34 16.5
4 1 -2 273.27 11.42
-4 -1 1 2.19 2.15
4 1 -1 2.3 1.34
-4 -1 0 623.34 30.85
-4 -1 0 668.94 27.13
4 1 0 681.53 26.28
4 1 1 845.5 31.52
-4 -1 -1 814.45 36.84
-4 -1 -1 771.53 29.71
-4 -1 -2 572.72 30.24
4 1 2 537.64 25.49
-4 -1 -2 571.75 22.49
-4 -1 -3 305.12 21.4
4 1 3 296.55 18.81
-4 -1 -3 301.51 14.03
-4 -1 -4 287.18 21.33
4 1 4 257.19 18.59
-4 -1 -5 51.76 9.05
4 1 5 33.33 7.13
-4 -1 -6 98.17 12.91
4 1 6 99.35 12.58
-4 -1 -7 48.8 9.36
4 1 7 38.81 8.3
-4 -1 -8 302.58 25.09
4 1 8 276.3 24.29
-4 -1 -9 345.85 27.73
4 1 9 336.01 28.28
-4 -1 -10 176.67 20.04
4 1 10 139.77 18.94
4 2 -13 176.21 21.3
4 2 -13 212.25 20.82
4 2 -12 114.69 14.68
4 2 -12 108.73 15.85
4 2 -11 6.54 3.82
4 2 -11 26.94 6.87
4 2 -10 24.82 7.06
4 2 -10 35.8 7.63
-4 -2 9 177.57 12.18
4 2 -9 170.02 18.04
4 2 -9 183.38 17.09
-4 -2 8 481.94 23.24
4 2 -8 489.34 30.88
4 2 -8 497.79 29.2
-4 -2 7 246 15.71
4 2 -7 248.04 20.42
4 2 -7 232.45 18.67
-4 -2 6 729.96 31.93
4 2 -6 771.35 37.93
4 2 -6 744.09 36.48
-4 -2 5 168.15 13.46
4 2 -5 173.84 15.6
4 2 -5 165.04 15.01
-4 -2 4 9.85 3.26
4 2 -4 4.09 2.36
-4 -2 3 9.37 3.04
4 2 -2 534.64 17.16
-4 -2 2 491.55 27.07
4 2 -2 543.81 16.77
-4 -2 1 909.52 39.48
4 2 -1 863.86 29.03
4 2 -1 859.96 29.29
-4 -2 0 543.62 30.09
4 2 0 618.09 24.18
-4 -2 -1 137.67 13.89
4 2 1 140.91 11
4 2 2 57.86 7.46
-4 -2 -2 49.63 8.47
-4 -2 -3 634.8 34.94
4 2 3 684.72 32.06
-4 -2 -4 453.32 29.15
4 2 4 455.44 26.76
-4 -2 -5 274.51 22.6
4 2 5 267.66 20.92
-4 -2 -6 72.35 11.61
4 2 6 66.25 10.74
-4 -2 -7 30.97 7.67
4 2 7 38.21 8.55
4 2 8 71.84 12.35
-4 -2 -8 88.03 13.47
-4 -2 -9 272.97 25.35
4 2 9 248.12 25
4 3 -13 77.04 14.01
4 3 -13 80.59 13.3
4 3 -12 252.9 25.21
4 3 -12 243.64 23.1
4 3 -11 478.28 34.48
4 3 -11 469.61 32.11
4 3 -10 101.32 13.88
4 3 -10 83.18 13.21
4 3 -9 83.06 12.63
4 3 -9 65.83 10.85
4 3 -8 63.8 10.62
4 3 -8 53.21 9.59
4 3 -7 307.65 24.12
4 3 -7 395.82 26.46
4 3 -6 312.08 23.45
4 3 -6 367.2 25.2
4 3 -5 430.73 27.8
4 3 -4 372.96 24.41
4 3 -3 -1.27 1.69
-4 -3 3 -0.81 1.63
4 3 -2 12.31 4.24
4 3 -2 13.97 1.8
-4 -3 2 11.62 4.13
4 3 -2 13.58 1.78
-4 -3 1 371.91 24.33
4 3 -1 365.57 16.18
4 3 -1 359.1 24.24
-4 -3 0 828.76 40.49
4 3 0 862.71 32.3
4 3 0 805.61 39.72
-4 -3 -1 291.35 22.34
4 3 1 295.86 17.75
4 3 1 310.41 22.23
-4 -3 -2 153.38 16.31
4 3 2 180.95 14.34
-4 -3 -3 124.47 14.93
4 3 3 145.48 13.83
4 3 4 24.46 5.67
-4 -3 -4 41.12 8.48
-4 -3 -5 184 19.08
4 3 5 165.62 16.93
-4 -3 -6 117.57 15.69
4 3 6 141.76 16.39
-4 -3 -7 140.63 17.67
4 3 7 141.15 17.44
4 3 8 22.4 7.32
-4 -3 -8 10.91 5.09
-4 -3 -9 71.06 13.3
4 4 -13 3.71 3.83
4 4 -12 1.93 2.37
4 4 -12 3.1 3.64
4 4 -11 86.13 14.55
4 4 -11 85.84 13.9
4 4 -10 168.19 19.64
4 4 -10 153.1 18.12
4 4 -9 305.31 25.78
4 4 -8 299.13 24.84
4 4 -7 80.94 12.36
4 4 -6 12.01 4.5
4 4 -6 14.1 5.27
4 4 -5 139.1 15.11
4 4 -4 698.95 37.62
4 4 -3 350.93 25.29
4 4 -2 187.21 17.92
4 4 -1 6.86 3.6
-4 -4 1 11.38 4.41
-4 -4 0 198.6 19.24
4 4 0 264.4 15.7
4 4 0 225.99 20.13
4 4 1 58.49 10.02
-4 -4 -1 73.16 11.36
4 4 1 79 9.13
-4 -4 -2 322.22 25.89
4 4 2 351.43 22.11
4 4 2 356.75 25.82
-4 -4 -3 381.82 28.9
4 4 3 404.57 25.7
-4 -4 -4 188.04 19.91
4 4 4 163.94 16.69
4 4 5 27.02 6.85
-4 -4 -5 11.61 4.56
4 4 6 13.39 5.33
-4 -4 -6 7.44 3.88
-4 -4 -7 219.71 23.38
4 4 7 247.02 24.29
4 5 -12 92.7 15.46
4 5 -11 91.61 15.05
4 5 -10 -0.11 1.47
4 5 -9 5.88 3.53
4 5 -8 414.54 31.73
4 5 -8 411.3 29.11
4 5 -7 347.03 28.3
4 5 -7 328.72 25.86
4 5 -6 121.35 15.98
4 5 -6 117.25 14.9
4 5 -5 114.57 14.54
4 5 -4 145.42 16.72
4 5 -3 354.29 26.96
4 5 -2 326.68 25.88
-4 -5 1 178.43 18.71
4 5 -1 150.62 17.19
4 5 0 60.73 10.63
-4 -5 0 68.01 11.49
4 5 1 6.43 3.55
-4 -5 -1 10.25 4.59
4 5 2 26.84 7.63
-4 -5 -2 15.3 6.11
-4 -5 -3 161.23 19.16
4 5 3 167.4 18.48
-4 -5 -4 227.5 23.36
-4 -5 -5 144.33 18.67
4 6 -10 198.88 23.23
4 6 -9 35.69 10.38
4 6 -9 29.28 8.54
4 6 -8 -0.01 1.39
4 6 -8 -0.88 3.5
4 6 -7 111.84 16.84
4 6 -7 125.09 16.23
4 6 -6 204.56 21.34
4 6 -5 238.86 23.1
4 6 -4 212.68 21.68
4 6 -3 57.62 10.97
4 6 -2 3.82 3.14
4 6 -1 99.05 14.72
-4 -6 1 110.09 15.66
4 6 0 41.62 9.57
-4 -6 0 54.02 11.41
-4 -6 -1 494.99 35.14
4 6 1 382.14 30.87
4 6 2 110 15.88
-4 -6 -2 120.63 17.14
4 6 3 -1.26 2.41
4 7 -9 158.74 19.59
4 7 -8 106.13 15.97
4 7 -7 4.76 3.91
4 7 -6 105.51 15.94
4 7 -5 261.5 25.8
4 7 -4 303.46 27.83
4 7 -3 305.64 28.08
4 7 -2 109.02 16.59
-5 11 0 64.3 13.62
-5 11 -1 5.08 4.5
-5 11 -2 157.39 21.37
-5 11 -3 171.71 21.93
-5 11 -4 210.09 23.94
-5 11 -5 276.12 27.68
-5 11 -6 3.13 3.96
-5 11 -6 -0.62 2.72
-5 11 -7 14.31 6.07
-5 10 3 8.9 6.02
-5 10 2 20.87 7.84
-5 10 1 113.65 17.85
-5 10 0 445.94 35.89
-5 10 -1 193.06 22.7
-5 10 -2 69.03 13.21
-5 10 -3 14.98 6.83
-5 10 -4 1.57 2.11
-5 10 -4 1.28 1.1
-5 10 -5 394.22 32.43
-5 10 -5 425.97 30.4
-5 10 -6 110.08 15.54
-5 10 -7 28.37 8.14
-5 10 -8 67.37 13.31
-5 9 5 172.61 22.87
-5 9 4 79.8 15.15
-5 9 3 213.71 24.36
-5 9 2 193.71 22.72
-5 9 1 10.1 4.67
-5 9 0 2.76 1.84
-5 9 -1 215.12 22.75
-5 9 -2 232.49 23.27
-5 9 -2 199.86 16.66
-5 9 -3 225.75 22.96
-5 9 -3 245.16 19.77
-5 9 -4 82.61 13.52
-5 9 -4 101.69 13.18
-5 9 -5 -0.31 2.04
-5 9 -5 1.56 2.4
-5 9 -6 196.44 20.63
-5 9 -7 303.77 27.28
-5 9 -8 108.79 16.57
-5 9 -9 339.84 31.28
-5 8 7 211.88 25.07
-5 8 6 44.68 10.93
-5 8 5 10.32 5.36
-5 8 4 34.13 9.37
-5 8 3 376.45 31.18
-5 8 2 407.71 31.89
-5 8 1 414.85 31.83
-5 8 0 136.05 17.02
-5 8 -1 8.08 4.68
-5 8 -1 4.18 2.38
-5 8 -2 62.16 11.31
-5 8 -2 53.91 8.2
-5 8 -3 230.85 21.88
-5 8 -3 212.02 17.9
-5 8 -4 379.24 28.98
-5 8 -4 409.94 27.24
-5 8 -5 203.38 20.89
-5 8 -5 262.63 22.26
-5 8 -6 84.93 12.95
-5 8 -7 0.08 1.72
-5 8 -8 6.67 4.69
-5 8 -9 159.53 20.87
-5 8 -10 252.21 27.35
-5 7 9 35.19 10.51
-5 7 8 -1.21 2.36
-5 7 7 50.18 11.29
-5 7 6 277.49 26.48
-5 7 5 141.79 18.23
-5 7 4 264.03 24.71
-5 7 3 69.53 12.01
-5 7 2 116.63 15.49
-5 7 1 509.18 33.57
-5 7 1 471.61 19.54
-5 7 0 507.66 32.63
-5 7 0 462.07 22.07
-5 7 -1 152.39 17.09
-5 7 -1 167.79 13.21
-5 7 -2 64.93 10.91
-5 7 -2 75.5 9.45
-5 7 -3 122.08 14.88
-5 7 -3 108.4 12.29
-5 7 -4 337.82 26.21
-5 7 -4 405.61 26.44
-5 7 -5 283.55 23.12
-5 7 -6 518.18 34
-5 7 -7 258.5 24.22
-5 7 -8 191.69 21.49
-5 7 -9 1.24 2.36
-5 7 -10 89.7 16
-5 6 10 185.24 22.72
-5 6 9 83.7 14.59
-5 6 8 217.12 23.32
-5 6 7 2.02 1.99
-5 6 6 45.25 9.83
-5 6 5 147.25 17.37
-5 6 4 591.52 36.44
-5 6 3 509.35 32.8
-5 6 2 479.91 30.77
-5 6 2 425.2 13.7
-5 6 1 8.93 3.93
-5 6 1 7.74 1.86
-5 6 0 27.03 6.62
-5 6 0 32.26 4.92
-5 6 -1 282.15 22.31
-5 6 -1 299.3 18.17
-5 6 -1 267.54 20.89
-5 6 -2 91.84 12.22
-5 6 -2 101.56 12.77
-5 6 -3 466.45 29.65
-5 6 -3 480.56 30.53
-5 6 -4 -0.96 2.14
-5 6 -5 7.38 3.89
-5 6 -6 7.25 4.23
-5 6 -7 278.36 24.75
-5 6 -8 425.23 32.14
-5 6 -9 96.47 15.05
-5 6 -10 -0.2 2.24
-5 6 -11 4.93 3.63
-5 5 11 89.85 15.26
-5 5 10 177.28 20.91
-5 5 9 24.04 7.13
-5 5 8 390.39 29.82
-5 5 7 490.62 33.02
-5 5 6 115.13 14.62
-5 5 5 17.76 5.9
-5 5 4 48.21 9.02
-5 5 3 452.4 28.85
-5 5 2 838.35 40.83
-5 5 2 787.89 25.61
-5 5 2 818.83 36.2
-5 5 1 308.48 22.65
-5 5 1 351.41 22.1
-5 5 0 197.54 17.42
-5 5 0 235.82 18.45
-5 5 -1 107.87 12.66
-5 5 -1 139.44 14.36
-5 5 -2 83.91 11.06
-5 5 -2 123.13 13.88
-5 5 -3 494.54 29.67
-5 5 -3 534.16 31.96
-5 5 -4 861.17 43.98
-5 5 -5 470.94 31.47
-5 5 -6 144.31 17.23
-5 5 -7 74.48 12.59
-5 5 -8 587.25 38.45
-5 5 -9 156.68 19.4
-5 5 -10 335.74 29.23
-5 5 -11 38.24 10.11
-5 5 -12 19.15 7.64
-5 4 12 69.49 13.13
5 -4 -11 292.26 28.17
-5 4 11 357.54 29.58
-5 4 10 72.57 12.47
-5 4 9 0.36 1.62
-5 4 8 65.54 10.94
-5 4 7 268.04 22.13
-5 4 6 619.81 34.75
5 -4 -5 300.65 16.52
-5 4 5 347.54 23.75
-5 4 4 162.96 12.42
-5 4 4 173.35 16.18
-5 4 3 86.86 10.95
-5 4 3 76.75 4.83
-5 4 3 86.09 9.34
-5 4 2 283.15 20.42
-5 4 2 330.53 20.54
-5 4 1 612.07 31.56
-5 4 1 652.21 32.01
-5 4 0 667.19 33.77
-5 4 0 794.74 36.57
-5 4 -1 186.54 15.81
-5 4 -1 221.06 18.01
-5 4 -2 200.24 16.51
-5 4 -2 183.18 17.16
-5 4 -3 3.4 3.13
-5 4 -4 227.43 20.26
-5 4 -5 261.99 22.54
-5 4 -6 188.33 19.35
-5 4 -7 755.4 43.32
-5 4 -8 5.53 4.58
-5 4 -9 80.78 13.77
-5 4 -10 31.42 8.86
-5 4 -11 308.27 28.71
-5 4 -12 298.03 28.74
-5 3 13 10.27 5.36
-5 3 12 7.56 5.24
5 -3 -12 3.19 2.24
-5 3 11 105.94 14.76
5 -3 -11 94.6 15.23
5 -3 -10 238.61 23.77
-5 3 10 281.27 23.46
5 -3 -9 240.01 22.66
-5 3 9 198.88 19.02
-5 3 8 236.65 19.98
-5 3 7 418.74 26.52
-5 3 6 27.98 6.32
-5 3 5 35.83 6.7
-5 3 5 41.78 5.61
5 -3 -5 33.01 4.56
-5 3 5 35.48 3.55
-5 3 4 647.51 31.89
5 -3 -4 637.75 26.94
-5 3 4 638.85 22.9
-5 3 4 683.61 29.16
-5 3 3 603.02 29.62
-5 3 3 560.72 22.33
-5 3 3 610.35 28.41
-5 3 2 56.84 7.87
-5 3 2 62.3 8.34
-5 3 1 -0.22 1.8
-5 3 1 1.07 1.52
-5 3 0 164.3 13.66
-5 3 0 193.41 15.92
-5 3 -1 1259.31 51.06
-5 3 -2 354.81 23.73
5 -3 3 571.52 18.35
-5 3 -3 579.85 32.53
-5 3 -4 105.21 13.08
-5 3 -5 4.99 2.93
-5 3 -6 77.45 12.37
-5 3 -7 507.69 34.17
-5 3 -8 334.15 27.96
-5 3 -9 187.92 21.15
-5 3 -10 13.2 5.64
-5 3 -11 4.51 3.66
-5 3 -12 143.73 19.88
-5 2 12 67.05 11.39
5 -2 -12 39.17 9.73
-5 2 11 3.19 2.81
5 -2 -11 9 4.96
-5 2 10 90.5 12.13
5 -2 -10 86.31 13.78
5 -2 -9 463.7 32.21
-5 2 9 495.4 29.19
5 -2 -8 454.86 30.4
-5 2 8 443.81 26.42
-5 2 7 797.01 36.31
-5 2 7 772.96 26.24
5 -2 -6 439.38 27.67
-5 2 6 446.47 20.15
-5 2 6 453.71 24.87
-5 2 6 435.63 20.14
-5 2 5 -0.09 1.41
-5 2 5 0 1.19
5 -2 -5 2.5 2.85
-5 2 5 3.35 1.48
-5 2 4 114.8 10.31
-5 2 4 110.06 10.5
5 -2 -4 95.08 10.96
-5 2 4 106.96 8.8
-5 2 3 680.97 30.08
-5 2 3 639.98 28.73
-5 2 3 662.84 27.11
5 -2 -3 641.02 30.77
-5 2 2 392.47 21.85
-5 2 2 368.28 19.92
5 -2 -2 360.55 20.44
-5 2 1 801.03 35.05
5 -2 -1 751.42 31.05
-5 2 1 756.64 31.91
-5 2 0 280.7 19.16
5 -2 0 263.69 14.72
-5 2 -1 7.78 3.78
5 -2 1 1.03 1.1
-5 2 -2 15.93 4.92
5 -2 2 26.16 2.9
-5 2 -3 411.23 26.4
-5 2 -4 480.11 29.7
-5 2 -5 275.7 22.6
-5 2 -6 38.62 8.28
-5 2 -7 46.16 9.81
-5 2 -8 330.72 27.51
-5 2 -9 141.84 18.3
5 -2 10 227.27 23.32
-5 2 -10 194.22 22.33
-5 2 -11 204.19 23.37
5 -1 -12 229.91 24.18
5 -1 -11 206.08 22.12
5 -1 -10 179.47 19.86
-5 1 10 216.88 17.65
5 -1 -9 19.05 6.21
-5 1 9 21.9 5.19
5 -1 -9 21.03 4.59
5 -1 -8 23.58 6.46
5 -1 -8 28.24 5.14
-5 1 8 29.93 5.65
-5 1 7 549.29 22.79
5 -1 -7 571.29 33.26
-5 1 7 571.41 27.18
-5 1 6 480.26 21.55
5 -1 -6 441.4 21.18
5 -1 -6 426.44 27.3
-5 1 6 462.5 22.93
-5 1 5 259.15 15.73
-5 1 5 263.37 15.73
5 -1 -5 258.23 14.52
5 -1 -5 262.66 19.43
-5 1 4 100.48 9.65
-5 1 4 91.99 8.22
5 -1 -4 81.91 7.45
5 -1 -4 83.19 10.16
-5 1 3 52.22 7.27
-5 1 3 49.4 5.79
5 -1 -3 39.25 5.2
5 -1 -3 44.8 6.98
-5 1 2 88.58 9.81
5 -1 -2 99.53 9.74
5 -1 -2 90.65 8.35
5 -1 -1 204.72 13.94
-5 1 1 214.35 16.29
5 -1 -1 227.96 14.27
-5 1 0 1189.77 47.19
5 -1 0 1128.76 39.37
-5 1 -1 783.18 36.82
5 -1 1 730.88 26.74
-5 1 -2 335.94 22.92
-5 1 -3 49.03 8.64
-5 1 -4 152.74 16.02
-5 1 -5 730.72 39.65
-5 1 -6 712.87 39.96
-5 1 -7 90.98 13.52
-5 1 -8 60.51 11.44
5 -1 8 62.74 11.17
-5 1 -9 71.12 12.88
5 -1 9 54.84 10.87
-5 1 -10 96.69 15.4
5 -1 10 92.82 14.99
-5 1 -11 210.88 24.01
5 0 -12 32.25 8.96
5 0 -11 128.18 17.23
5 0 -10 302.67 26.32
5 0 -10 361.56 22.66
5 0 -9 617.68 37.8
5 0 -9 666.99 32.36
5 0 -8 258 22.05
5 0 -8 263.97 18.4
-5 0 8 246.91 15.5
-5 0 7 1.02 1.03
-5 0 7 0.75 0.92
5 0 -7 0.05 1.66
-5 0 6 105.93 9.68
-5 0 6 94.37 7.55
5 0 -6 106.79 12.6
-5 0 5 585.14 26.88
5 0 -5 548.76 20.38
-5 0 5 548.18 20.81
5 0 -5 557.71 30.29
-5 0 4 386.38 21.72
5 0 -4 379.37 15.46
5 0 -4 406.22 23.82
-5 0 3 398.8 22.84
5 0 -3 416.41 23.31
5 0 -3 414.26 16.99
-5 0 2 220.87 16.56
5 0 -2 234.94 15.79
5 0 -2 214.27 12.36
5 0 -1 43.1 5.62
-5 0 1 35.06 6.65
5 0 -1 43.86 6.12
-5 0 0 104.75 11.88
5 0 0 108.75 9.72
-5 0 -1 404.22 25.41
-5 0 -2 463.9 28.45
-5 0 -3 218.42 19.32
-5 0 -4 22.63 6.21
-5 0 -5 -0.79 1.59
5 0 5 0.29 2.55
-5 0 -6 182.47 19.23
5 0 6 209.49 19.03
-5 0 -7 150.15 17.72
5 0 7 141.08 16.4
-5 0 -8 110.58 15.72
5 0 8 95.2 14.28
-5 0 -9 183.46 21.09
5 0 9 190.71 21.2
-5 0 -10 61.04 12.32
5 1 -12 142.19 18.69
5 1 -11 -1.14 3.17
5 1 -11 0.89 1.71
5 1 -10 7.31 4.48
5 1 -10 11.85 4.45
5 1 -9 3.5 3.53
5 1 -9 5.15 2.95
-5 -1 8 1090.77 40.17
5 1 -8 1094.21 51.59
5 1 -8 1028.01 46.11
-5 -1 7 34.13 5.69
5 1 -7 43.12 8.17
5 1 -7 32.51 6.67
-5 -1 6 365.83 20.92
5 1 -6 354.76 24.72
-5 -1 5 41.57 6.62
5 1 -5 46.09 8.2
-5 -1 4 28.78 5.75
5 1 -4 26.32 6.04
-5 -1 3 398.41 23.59
5 1 -3 386.22 12.06
5 1 -3 356.18 22.34
5 1 -3 381.93 12.19
5 1 -2 779.98 25.32
-5 -1 2 742.34 35.95
5 1 -2 709.15 33.29
5 1 -2 791.57 26.65
5 1 -1 651.39 23.9
-5 -1 1 642.69 32.87
5 1 -1 580.13 24.65
-5 -1 0 194.91 16.95
5 1 0 162.29 11.23
5 1 0 172.85 12.24
-5 -1 -1 2.93 2.66
5 1 1 2.21 1.6
-5 -1 -2 330.74 24.19
5 1 2 311.1 19.24
-5 -1 -3 406.93 28.17
5 1 3 418.78 24.33
-5 -1 -4 552.1 34.39
5 1 4 575.29 31.12
-5 -1 -5 330.25 26.18
5 1 5 290.43 22.38
-5 -1 -6 37.8 8.78
5 1 6 28.9 7.24
-5 -1 -7 0.13 2.85
5 1 7 0.5 1.46
-5 -1 -8 55.1 11.47
5 1 8 71.59 12.56
-5 -1 -9 61.46 12.38
5 1 9 94.88 15.29
-5 -1 -10 388.89 33.3
5 2 -12 356.2 31.2
5 2 -12 342.5 26.93
5 2 -11 211.67 22.82
5 2 -11 208.56 20.11
5 2 -10 122.59 16.73
5 2 -10 118.34 14.65
5 2 -9 34.65 8.29
5 2 -9 21.74 6.04
-5 -2 8 227.7 16.44
5 2 -8 210.25 20.78
5 2 -8 260.87 21.27
-5 -2 7 481.27 26.29
5 2 -7 465.45 31.01
5 2 -7 528.85 31.42
-5 -2 6 338.1 21.56
5 2 -6 304.22 23.57
-5 -2 5 409.01 24.76
5 2 -5 416.9 26.83
-5 -2 4 152.85 14.63
5 2 -4 182.98 16.33
-5 -2 3 34.18 6.86
-5 -2 2 71.49 10.24
-5 -2 1 453.89 28.58
5 2 -1 498.16 19.93
5 2 0 58.89 6.53
-5 -2 0 67.73 10.4
-5 -2 -1 600.12 34.32
5 2 1 537.08 25.93
-5 -2 -2 22.56 6.44
5 2 2 23.68 5.15
5 2 3 88.7 10.8
-5 -2 -3 93.08 13.28
-5 -2 -4 209.83 20.81
5 2 4 212.01 18.21
-5 -2 -5 245.02 23.43
5 2 5 269.01 22.07
-5 -2 -6 377.78 30.41
5 2 6 369.18 27.84
-5 -2 -7 93.67 14.91
5 2 7 82.52 13.32
5 2 8 6.57 4.78
-5 -2 -8 -0.41 2.71
5 3 -12 22.75 7.05
5 3 -11 76.04 13.74
5 3 -11 81.01 13.09
5 3 -10 144.73 18.52
5 3 -10 132.21 16.55
5 3 -9 509.73 35.44
5 3 -9 526.65 34.44
-5 -3 8 15.58 4.4
5 3 -8 23.14 6.88
5 3 -8 24.85 6.81
-5 -3 7 15.39 4.54
5 3 -7 7.21 3.56
-5 -3 6 84.66 11.03
-5 -3 5 132.9 14.17
-5 -3 4 568.08 32.49
-5 -3 3 202.33 18.51
-5 -3 2 251.78 21.12
-5 -3 1 9.35 4.09
-5 -3 0 19.58 5.9
-5 -3 -1 153.03 17.3
-5 -3 -2 449.86 32.08
5 3 2 515.74 27.41
-5 -3 -3 348.68 28.04
5 3 3 345.77 23.28
5 3 4 19.75 5.4
-5 -3 -4 12.22 5.78
5 3 5 19.93 5.84
-5 -3 -5 23.74 7.57
5 3 6 76.41 12.46
-5 -3 -6 70.95 13.28
5 3 7 166.51 19.6
5 4 -12 118.72 17.2
5 4 -11 27.74 8.63
5 4 -10 80.64 13.63
-5 -4 9 163.56 16
5 4 -9 178.05 20.28
-5 -4 8 355.66 25.25
5 4 -8 420.68 31.54
-5 -4 7 229.15 19.88
-5 -4 6 142.94 15.79
-5 -4 5 19.05 5.74
-5 -4 4 64.36 10.68
-5 -4 3 450.76 30.42
-5 -4 2 380.67 28.14
-5 -4 1 255.52 23.13
-5 -4 0 36.61 8.57
-5 -4 -1 8.62 4.41
-5 -4 -2 173.94 19.9
-5 -4 -3 327.31 28.59
-5 -4 -4 35.58 9.36
5 5 -10 137.73 19.18
-5 -5 9 11.34 4.94
5 5 -9 17.96 7.01
-5 -5 8 0.67 2.12
-5 -5 7 66.65 11.23
-5 -5 6 92.59 13.52
-5 -5 5 464.63 32.24
-5 -5 4 78.05 12.54
-5 -5 3 -1.9 3.79
-5 -5 2 13.28 5.11
-5 -5 1 398.07 31.17
-5 -5 0 301.4 27.34
-5 -5 -1 125.86 17.56
-5 -5 -2 60.57 12.36
-5 -6 9 229.67 22.42
-5 -6 8 82.47 13.26
-5 -6 7 45.33 9.96
-5 -6 6 35.81 8.92
-5 -6 5 205.57 22.05
-5 -6 4 156.22 19.34
5 6 -4 190.78 21.79
-5 -6 3 135.29 18.16
5 6 -3 170.86 20.78
-6 11 -7 78.28 14.49
-6 10 2 100.95 17.41
-6 10 1 1.04 2.57
-6 10 0 14 5.91
-6 10 -1 354.28 31.91
-6 10 -2 218.14 24.55
-6 10 -3 164.03 20.71
-6 10 -4 34.71 9.83
-6 10 -5 55.65 12.06
-6 10 -5 61.01 11.06
-6 10 -6 167.7 19.85
-6 10 -7 131.77 18.31
-6 10 -8 168.12 21.74
-6 9 5 3.33 1.88
-6 9 4 62.81 13.38
-6 9 3 122.06 18.64
-6 9 2 240.29 25.84
-6 9 1 33.23 9.5
-6 9 0 47.8 11.1
-6 9 -1 -0.06 2.14
-6 9 -2 81.24 13.99
-6 9 -3 116.71 16.73
-6 9 -3 111.7 13.32
-6 9 -4 296.05 27.54
-6 9 -4 364.66 26.41
-6 9 -5 129.31 17.88
-6 9 -5 116.3 15.37
-6 9 -6 4.68 3.93
-6 9 -7 2.17 3.34
-6 9 -8 154.03 20.44
-6 9 -9 171.28 22.4
-6 8 7 127.34 19.37
-6 8 6 315.02 30.67
-6 8 5 213.69 24.47
-6 8 4 22.84 7.93
-6 8 3 3.41 4.48
-6 8 2 110.79 16.4
-6 8 1 320.72 27.97
-6 8 0 376.53 30.14
-6 8 -1 268.5 24.82
-6 8 -2 124.74 16.53
-6 8 -2 125.38 13.05
-6 8 -3 9.21 4.53
-6 8 -3 7.53 3.51
-6 8 -4 175.17 19.98
-6 8 -4 191.23 18.59
-6 8 -5 194.23 19.84
-6 8 -6 229.08 22.65
-6 8 -7 166.95 20.23
-6 8 -8 1.07 1.99
-6 8 -9 15.25 7.19
-6 7 8 122.33 18.56
-6 7 7 24.6 8.11
-6 7 6 3.89 3.27
-6 7 5 148.16 19.13
-6 7 4 219.7 22.93
-6 7 3 102.71 15.18
-6 7 2 24.05 6.87
-6 7 1 0.32 1.5
-6 7 0 329.51 26.57
-6 7 0 319.49 18.17
-6 7 -1 508.53 34
-6 7 -1 550.84 27.7
-6 7 -2 398.24 29.35
-6 7 -2 475.5 26.84
-6 7 -2 396.9 29.19
-6 7 -3 155.99 17.9
-6 7 -3 196.84 17.75
-6 7 -4 2.51 3.8
-6 7 -5 100.37 14.96
-6 7 -6 241.03 24.16
-6 7 -7 159.8 19.97
-6 7 -8 275.61 27.07
-6 7 -9 121.84 17.85
-6 7 -10 40.47 10.68
-6 6 10 131.69 19.33
-6 6 9 314.1 29.51
-6 6 8 118.24 17.23
-6 6 7 107.29 16.13
-6 6 6 87.81 13.98
-6 6 5 45.14 9.64
-6 6 4 93.21 13.6
-6 6 3 290.02 24.45
-6 6 2 110.86 14.41
-6 6 1 1240.61 55.33
-6 6 1 1160.25 40.92
-6 6 1 1174.51 51.28
-6 6 0 21.75 5.9
-6 6 0 40.27 8.22
-6 6 -1 12.18 4.65
-6 6 -1 15.44 5.54
-6 6 -2 171.06 17.4
-6 6 -2 142.49 16.77
-6 6 -3 307.34 24.86
-6 6 -3 403.69 29.27
-6 6 -4 164.29 18.8
-6 6 -5 86.52 13.81
-6 6 -6 -0.39 2.28
-6 6 -7 64.16 12.56
-6 6 -8 200.79 22.86
-6 6 -9 328.93 30.45
-6 6 -10 231.3 25.53
-6 5 11 272.42 27.58
-6 5 10 54.28 11.54
-6 5 9 3.87 3.88
-6 5 8 188.93 20.65
-6 5 7 180.42 19.59
-6 5 6 383.21 28.68
-6 5 5 329.65 25.75
-6 5 4 109.17 13.98
-6 5 3 312.88 23.85
-6 5 3 302.32 20.8
-6 5 2 49.22 8.8
-6 5 2 33.95 6.66
-6 5 1 516.88 31.2
-6 5 1 548.08 31.55
-6 5 0 796.18 39.99
-6 5 0 782.68 40.41
-6 5 -1 141.79 15.08
-6 5 -1 147.38 16.17
-6 5 -2 59.13 10.34
-6 5 -2 39.78 7.99
-6 5 -3 6.57 3.49
-6 5 -4 100.81 14.46
-6 5 -5 179.15 20.08
-6 5 -6 449.93 33.45
-6 5 -7 108.73 16.31
-6 5 -8 64.11 12.87
-6 5 -9 14.53 7.19
-6 5 -10 151.77 20.78
-6 5 -11 199.95 24.38
-6 4 12 1.81 2.76
-6 4 11 163.37 19.87
6 -4 -10 165.48 20.64
-6 4 10 197.41 21.09
-6 4 9 105.6 14.78
-6 4 8 118.23 15.03
-6 4 7 3.22 2.25
-6 4 6 45.33 8.75
-6 4 5 517.32 31.42
-6 4 5 560.64 27.03
-6 4 4 468.96 29.03
-6 4 4 503.07 26.75
-6 4 3 227.43 18.7
-6 4 3 236.25 18.05
-6 4 2 117.13 12.97
-6 4 2 123.82 13.28
-6 4 1 24.34 5.81
-6 4 1 19.64 5.15
-6 4 0 246.91 19.3
-6 4 0 313.56 23.02
-6 4 -1 739.9 37.25
-6 4 -1 804.01 40.99
-6 4 -2 256 21.79
6 -4 3 434.5 17.31
-6 4 -3 397.71 29.09
-6 4 -4 9.24 4.8
-6 4 -5 -1.93 1.95
-6 4 -6 306.64 27.11
-6 4 -7 441.94 33.94
-6 4 -8 244.38 25.39
-6 4 -9 194.63 23.23
-6 4 -10 43.99 11.38
-6 4 -11 121.36 18.9
6 -3 -11 6.41 4.05
6 -3 -10 26.07 8.01
-6 3 10 49.64 9.85
6 -3 -9 165.28 19.65
-6 3 9 197.1 19.03
6 -3 -8 222.79 21.78
-6 3 8 220.86 19.55
6 -3 -7 226.84 21.28
-6 3 7 236.09 19.69
-6 3 6 82.96 10.91
6 -3 -6 65.88 10.78
-6 3 6 80.84 8.55
-6 3 5 17.19 4.48
-6 3 5 18.9 5.05
6 -3 -5 19.62 5.67
-6 3 4 103.42 11.47
6 -3 -4 80.85 10.96
-6 3 4 106.96 11.33
-6 3 3 296.78 20.03
6 -3 -3 313.02 21.16
-6 3 3 327.2 21.56
-6 3 2 327.18 20.97
6 -3 -2 320.35 20.67
-6 3 1 451.14 25.58
6 -3 -1 461.65 24.24
-6 3 0 6.22 2.82
6 -3 0 4.85 1.77
-6 3 -1 274.38 21.87
6 -3 1 277.1 15.14
-6 3 -2 225.62 20.4
6 -3 2 251.67 12.44
-6 3 -3 356.6 26.71
-6 3 -4 470.61 32.1
-6 3 -5 38.64 8.9
-6 3 -6 7.76 4.35
-6 3 -7 29.01 8.23
-6 3 -8 137.12 18.67
-6 3 -9 98.08 16.25
-6 3 -10 328.53 31.31
6 -2 -11 100.82 16.21
6 -2 -10 1.56 2.7
-6 2 9 2.43 1.08
6 -2 -9 0.2 2.41
-6 2 8 63.93 9.33
6 -2 -8 64.27 11.39
-6 2 7 403.95 24.31
6 -2 -7 382.08 27.94
-6 2 6 759.37 34.89
6 -2 -6 688.08 38.42
-6 2 6 813.28 33.74
-6 2 5 340.61 20.49
-6 2 5 319.17 19.78
6 -2 -5 315.55 23.03
-6 2 4 264.89 17.43
6 -2 -4 246.22 19.29
-6 2 3 145.73 13.64
-6 2 3 124.52 11.17
6 -2 -3 116.68 12.22
-6 2 2 283.07 20
6 -2 -2 261.26 17.83
-6 2 2 255.49 16.83
-6 2 1 266.34 19.99
6 -2 -1 252.02 16.39
-6 2 0 575.84 32.26
6 -2 0 582.26 25.48
-6 2 -1 169.92 16.58
6 -2 1 153.01 10.29
-6 2 -2 98.85 12.86
-6 2 -3 -0.36 2.42
-6 2 -4 176.33 18.77
-6 2 -5 358.8 28.17
-6 2 -6 507.4 35.37
-6 2 -7 132.53 17.9
-6 2 -8 3.14 3.65
-6 2 -9 17.04 7.05
-6 2 -10 323.54 31.27
6 -1 -11 79.28 13.99
6 -1 -10 201.79 21.95
6 -1 -9 140.99 17.53
6 -1 -8 226.05 21.63
-6 1 7 78.53 8.61
6 -1 -7 79.77 12.08
-6 1 6 294.94 18.27
-6 1 6 259.04 15.74
6 -1 -6 241.85 20.78
-6 1 5 945.61 38.96
-6 1 5 847.16 33.48
6 -1 -5 876.33 42.3
-6 1 4 372.26 22.51
6 -1 -4 301.17 21.63
-6 1 4 337.33 17.38
-6 1 3 340.34 22.14
6 -1 -3 315.7 20.97
-6 1 2 4.35 2.25
6 -1 -2 5.98 2.48
-6 1 1 229.02 18.87
6 -1 -1 222.96 15.31
-6 1 0 265.53 21.24
6 -1 0 284.59 16.22
-6 1 -1 253.46 20.98
-6 1 -2 366.75 26.55
-6 1 -3 489.14 32.09
-6 1 -4 51.76 10.07
-6 1 -5 7.06 3.85
-6 1 -6 72.9 12.76
-6 1 -7 332.6 29.13
6 -1 7 357.1 27.71
-6 1 -8 221.89 24.18
6 -1 8 214.39 22.04
-6 1 -9 53.03 11.82
6 -1 9 66.6 12.57
6 0 -11 12.9 5.76
6 0 -10 16.99 6.46
6 0 -9 118.15 16.07
6 0 -8 201.61 20.4
-6 0 7 625.42 29.45
6 0 -7 552.54 34.71
-6 0 6 21.14 4.89
6 0 -6 17.42 5.37
-6 0 5 -0.94 1.73
6 0 -5 -0.57 1.1
-6 0 4 30.24 6.32
6 0 -4 21.58 5.56
-6 0 3 449.22 26.74
6 0 -3 388.26 24.27
-6 0 2 388.94 25.53
6 0 -2 381.41 22.62
-6 0 1 174.37 16.89
6 0 -1 194.98 14.54
-6 0 0 24.07 6.26
-6 0 -1 87 12.39
-6 0 -2 498.36 32.46
-6 0 -3 230.5 21.77
-6 0 -4 468.99 32.87
6 0 4 437.03 27.57
-6 0 -5 122.07 16.67
6 0 5 137.55 15.32
-6 0 -6 -1.3 3.11
6 0 6 2.38 2.84
-6 0 -7 15.15 5.88
6 0 7 14.72 5.68
-6 0 -8 161.37 20.93
6 0 8 142.93 18.36
6 1 -11 160.91 20.31
6 1 -10 199.84 21.97
6 1 -9 3.21 3.18
6 1 -8 125.28 16.15
-6 -1 7 206.47 16.6
6 1 -7 216.95 20.69
-6 -1 6 486.1 27.33
6 1 -6 434.35 29.68
-6 -1 5 214.01 17.7
6 1 -5 211.26 18.96
-6 -1 4 50.57 8.51
6 1 -4 47.1 8.36
-6 -1 3 -0.25 1.12
6 1 -3 4.07 2.48
-6 -1 2 252.75 20.9
-6 -1 1 569.81 33.88
-6 -1 0 188.21 18.62
6 1 0 186.22 12.95
-6 -1 -1 340.36 26.2
6 1 1 335.13 19.75
6 1 2 102.53 11.11
-6 -1 -2 90.06 13.51
-6 -1 -3 155.25 18.21
6 1 3 154.2 14.77
-6 -1 -4 194.12 21.03
6 1 4 179.71 17.16
-6 -1 -5 183.99 21.12
6 1 5 187.01 18.37
-6 -1 -6 179.88 21.31
6 1 6 139.22 16.77
-6 -1 -7 48.21 11.24
6 1 7 59.81 11.36
6 1 8 34.63 9.17
6 2 -10 255.17 25.47
6 2 -9 199.83 21.71
-6 -2 8 74.06 9.99
6 2 -8 57.03 11.15
-6 -2 7 6.77 3.28
6 2 -7 14.92 5.29
-6 -2 6 49.1 8.49
6 2 -6 55.57 10.22
-6 -2 5 380.55 25.7
6 2 -5 342.27 25.73
-6 -2 4 191.06 18.13
-6 -2 3 313.87 24.16
-6 -2 2 38.14 8.24
-6 -2 1 15.94 5.83
-6 -2 0 -0.01 2.02
-6 -2 -1 346.02 27.76
-6 -2 -2 281.01 25.34
-6 -2 -3 207.02 22.23
-6 -2 -4 12.46 5.55
-6 -2 -5 23.4 7.76
6 3 -10 2.79 2.24
6 3 -9 405.6 32.66
-6 -3 8 219.6 19.2
-6 -3 7 198.4 18.52
-6 -3 6 65.52 10.67
-6 -3 5 167.38 17.69
-6 -3 4 208.91 20.21
-6 -3 3 304.32 25.2
-6 -3 2 306.69 25.64
-6 -3 1 107.77 15.1
-6 -3 0 30.11 8.25
-6 -3 -1 7.48 4.56
-6 -3 -2 178.47 20.98
-6 -3 -3 147.2 19.34
-6 -4 8 112.84 14.65
-6 -4 7 100.7 13.98
-6 -4 6 176.32 19.03
-6 -4 5 166.31 18.86
-6 -4 4 25.59 7.35
-6 -4 3 0.88 2
-6 -4 2 61.59 11.66
-6 -4 1 98 15.18
-6 -4 0 514.21 37.25
-6 -4 -1 93.25 15.29
-6 -5 8 13.04 5.08
-6 -5 7 14.92 5.65
-6 -5 6 59.77 11.79
-6 -5 5 174.73 20.46
-6 -5 4 218.83 23.29
-7 10 0 26.88 8.62
-7 10 -1 2.13 3.46
-7 10 -2 70.63 14.04
-7 10 -3 197.28 23.67
-7 10 -7 29.41 9.86
-7 9 4 4.82 4.54
-7 9 3 37.59 10.31
-7 9 2 179.72 22.51
-7 9 1 166.59 21.43
-7 9 0 185.16 22.24
-7 9 -1 125.64 18.04
-7 9 -2 1.91 2.65
-7 9 -3 29.98 8.62
-7 9 -4 65.16 13.01
-7 9 -5 253.15 23.78
-7 9 -6 157.81 19.47
-7 9 -7 144.45 19.49
-7 9 -8 -0.29 2.74
-7 8 6 88.74 16.16
-7 8 5 291.35 29.2
-7 8 4 346.29 31.38
-7 8 3 248.88 25.74
-7 8 2 8 4.67
-7 8 1 11.93 5.24
-7 8 0 149.92 18.83
-7 8 -1 173.39 20.14
-7 8 -2 316.75 27.91
-7 8 -3 12.4 5.88
-7 8 -3 5.82 3.02
-7 8 -4 48.55 9.67
-7 8 -5 6.54 4.67
-7 8 -5 1.98 2.87
-7 8 -6 128.52 18.85
-7 8 -6 174.18 20.41
-7 8 -7 221.96 24.05
-7 8 -7 198.68 23.91
-7 8 -8 150.4 21.23
-7 7 8 230.48 26.32
-7 7 7 63.35 13.28
-7 7 6 37.93 10.08
-7 7 5 8.19 4.65
-7 7 4 112.28 16.25
-7 7 3 225.94 23.12
-7 7 2 77.27 13.07
-7 7 1 133.89 17.31
-7 7 0 28.9 7.38
-7 7 0 26.47 7.67
-7 7 -1 86.16 13.22
-7 7 -1 73.47 12.42
-7 7 -2 321.2 27
-7 7 -2 313.45 27.18
-7 7 -3 621.75 40.32
-7 7 -4 290.31 27.11
-7 7 -5 187.12 21.87
-7 7 -6 141.79 19.94
-7 7 -7 377.48 33.32
-7 7 -8 43.2 10.76
-7 6 10 15.98 6.79
-7 6 9 37.8 10.19
-7 6 8 183.47 21.95
-7 6 7 389.99 31.83
-7 6 6 207.14 22.16
-7 6 5 198.42 21.32
-7 6 4 0.5 1.49
-7 6 3 -0.26 2.36
-7 6 3 2.3 3.58
-7 6 2 72.27 11.14
-7 6 2 67.22 11.34
-7 6 1 145.19 16.73
-7 6 1 141.15 16.09
-7 6 0 198.33 19.56
-7 6 0 219.41 21.11
-7 6 -1 232.03 21.5
-7 6 -1 252.27 23.33
-7 6 -2 1.58 2.75
-7 6 -2 1.99 2.48
-7 6 -3 84.53 14.02
-7 6 -4 192.64 22.02
-7 6 -5 187.02 21.94
-7 6 -6 392.15 33.35
-7 6 -7 28.86 8.59
-7 6 -8 17.6 7.93
-7 5 10 150.09 19.69
-7 5 9 147.34 18.9
-7 5 8 51.17 10.98
-7 5 7 59.23 11.35
-7 5 6 52.09 10.39
-7 5 5 451.47 31.41
-7 5 5 489.93 27.12
-7 5 4 259.26 22.74
-7 5 4 316.46 22.09
-7 5 3 113.34 14.21
-7 5 3 119.14 13.94
-7 5 2 59.28 10.01
-7 5 2 75.11 11.32
-7 5 1 59.72 9.94
-7 5 1 41.99 8.88
-7 5 0 411.12 27.79
-7 5 0 388.76 28.8
-7 5 -1 184.28 18.41
-7 5 -1 252.6 23.11
-7 5 -2 595.15 38.26
-7 5 -3 102.58 15.32
-7 5 -4 35.76 9.09
-7 5 -5 -8.86 4.85
-7 5 -6 217.74 24.37
-7 5 -7 153.29 20.69
-7 5 -8 94.62 16.66
7 -4 -9 101.57 16.1
-7 4 9 178.13 19.41
-7 4 8 366.96 27.92
7 -4 -8 360.72 29.95
-7 4 7 144.32 16.46
7 -4 -7 108.85 15.42
-7 4 6 10.92 3.98
7 -4 -6 7.96 4.1
-7 4 5 35.15 6.73
7 -4 -5 28.06 7.33
-7 4 5 18.34 5.16
-7 4 4 375.41 25.42
-7 4 4 345.12 23.8
-7 4 3 274.99 21.25
7 -4 -3 268.15 20.94
-7 4 3 261.75 21.24
-7 4 2 447.81 27.61
7 -4 -2 464.76 27.25
-7 4 2 448.08 29.36
-7 4 1 105.05 12.45
7 -4 -1 106.47 11.41
-7 4 1 106.36 13.93
-7 4 0 13.74 5.34
7 -4 0 5.13 2.22
-7 4 -1 89.55 13.45
7 -4 1 101.93 9.51
-7 4 -2 392.88 30.12
-7 4 -3 344.8 28.69
-7 4 -4 257.38 24.96
-7 4 -5 92.94 15.47
-7 4 -6 2.53 3.01
-7 4 -7 66.04 13.81
-7 4 -8 78.29 15.07
7 -3 -10 25.22 7.87
7 -3 -9 1.52 2.73
7 -3 -8 118.6 16.26
-7 3 7 103.44 12.69
7 -3 -7 114.56 15.41
-7 3 6 150.14 14.86
7 -3 -6 148.6 16.94
-7 3 5 107.61 12.18
7 -3 -5 109.11 13.8
-7 3 5 109.78 12.35
-7 3 4 2.65 2.3
-7 3 4 1.61 1.99
7 -3 -4 5.67 2.64
-7 3 3 5.9 3.25
-7 3 3 12.13 4.16
7 -3 -3 6.02 3.03
7 -3 -2 82.53 10.36
-7 3 2 85.41 10.51
-7 3 1 551.74 33.24
7 -3 -1 508.55 26.67
-7 3 0 244.45 21.82
7 -3 0 255.7 16.38
-7 3 -1 207.54 20.53
-7 3 -2 11.78 5.18
-7 3 -3 105 15.18
-7 3 -4 437.3 33.26
-7 3 -5 392.07 32.06
-7 3 -6 101.37 16.3
-7 3 -7 77.07 14.64
-7 3 -8 10.5 5.74
7 -2 -10 345.68 30.65
7 -2 -9 158.97 19.6
7 -2 -8 -1.38 1.52
7 -2 -7 17.78 5.78
7 -2 -6 223.2 20.9
-7 2 6 244.67 18.42
-7 2 5 269.51 20.21
-7 2 5 276.55 18.02
7 -2 -5 277.59 22.44
7 -2 -4 414.71 27.42
-7 2 4 436.92 23.79
-7 2 3 280.47 21.6
7 -2 -3 258.49 19.79
-7 2 2 50.61 9.24
7 -2 -2 35.62 6.68
-7 2 1 -2.93 2.41
7 -2 -1 1.94 1.7
-7 2 0 313.2 24.8
7 -2 0 286.53 17.38
-7 2 -1 194.54 19.72
-7 2 -2 200.23 20.57
-7 2 -3 56.08 11.05
-7 2 -4 -0.08 2.65
-7 2 -5 157.3 19.78
-7 2 -6 92.06 15.57
-7 2 -7 138.92 19.82
7 -1 -10 43.64 10.65
7 -1 -9 365.82 30.42
7 -1 -8 -0.04 2.24
7 -1 -7 263.65 23.77
-7 1 6 -0.54 1.29
7 -1 -6 6.33 4.12
-7 1 5 57.82 9.04
7 -1 -5 50.96 9.24
-7 1 4 313.46 22.89
7 -1 -4 283.87 21.92
-7 1 3 665.58 36.1
7 -1 -3 603.35 32.62
-7 1 2 483.88 31.09
7 -1 -2 484.38 26.92
-7 1 1 163.8 17.37
7 -1 -1 136.08 12.48
-7 1 0 4.76 2.86
-7 1 -1 104.1 14.55
-7 1 -2 124.12 16.55
-7 1 -3 316.82 27.49
-7 1 -4 207.63 22.39
-7 1 -5 117.17 17.09
-7 1 -6 35.75 9.56
7 -1 6 22.25 7.01
7 -1 7 39.98 9.63
7 0 -10 140.47 19.05
7 0 -9 27.28 8.06
7 0 -8 32.84 8.51
7 0 -7 140.89 17.13
-7 0 6 373.38 24.67
7 0 -6 311.85 25.44
-7 0 5 166.42 16.56
7 0 -5 211.55 19.47
-7 0 4 8.25 3.29
7 0 -4 10.27 4.49
-7 0 3 109.33 13.67
7 0 -3 83.69 11.16
-7 0 2 320.16 24.96
7 0 -2 294.14 20.65
-7 0 1 140.87 16.7
-7 0 0 389.88 29.4
-7 0 -1 -7.45 4.03
-7 0 -2 16.66 6.06
-7 0 -3 65.58 12.45
7 0 3 67.08 10.02
-7 0 -4 194.69 22.36
7 0 4 222.64 19.74
-7 0 -5 245.94 25.7
7 0 5 213.57 20.54
7 0 6 87.51 13.56
7 0 7 73.6 13.16
7 1 -9 19.78 6.84
7 1 -8 36.61 9.53
-7 -1 7 0.77 1.36
7 1 -7 5.3 3.95
-7 -1 6 101.35 12.85
7 1 -6 76.67 12.39
-7 -1 5 321.94 24.72
7 1 -5 347.35 26.19
-7 -1 4 156.54 16.97
7 1 -4 131.22 15.05
-7 -1 3 277.05 23.65
-7 -1 2 2.95 1.42
-7 -1 1 3.96 3.55
-7 -1 0 108.62 15.48
-7 -1 -1 362.08 29.89
-7 -1 -2 244.53 24.67
-7 -1 -3 57.47 12.14
-7 -1 -4 74.45 13.99
7 2 -9 312.06 28.8
7 2 -8 203.03 22.49
-7 -2 7 169.04 17.55
7 2 -7 199.03 21.32
-7 -2 6 49.27 9.47
-7 -2 5 48.11 9.59
-7 -2 4 277.07 24.24
-7 -2 3 225.17 22.08
-7 -2 2 240.37 23.4
-7 -2 1 55.13 11.08
-7 -2 0 0.74 2.59
-7 -2 -1 95.61 15.37
-7 -2 -2 157.15 20.19
-7 -3 7 153.6 17.74
-7 -3 6 376.89 29.12
-7 -3 5 42.23 9.56
-7 -3 4 8.02 3.53
-7 -3 3 22.79 6.93
-7 -3 2 249.63 24.93
-7 -3 1 129.7 17.98
-7 -4 7 9.6 5.28
-7 -4 6 173.57 20.48
-8 9 2 16.09 7.35
-8 9 1 144.23 20.14
-8 9 0 183.52 22.42
-8 9 -1 172.86 21.76
-8 9 -2 152.45 20.45
-8 9 -3 7.14 4.21
-8 9 -6 72.37 13.96
-8 8 5 16.17 7.15
-8 8 4 91.51 15.97
-8 8 3 165.29 21.11
-8 8 2 540.2 39.22
-8 8 1 9.11 5.33
-8 8 0 5.78 2.72
-8 8 -1 113.67 16.79
-8 8 -2 165.09 20.65
-8 8 -2 195.1 22.34
-8 8 -3 149.65 19.99
-8 8 -4 146.2 20.2
-8 8 -5 18.45 8.08
-8 7 7 259.26 27.42
-8 7 6 217.82 24.46
-8 7 5 59.08 12.22
-8 7 4 27.8 8.19
-8 7 3 0.99 2.03
-8 7 2 395.65 31.54
-8 7 1 236.74 23.53
-8 7 1 220.86 22.08
-8 7 0 60.37 11.71
-8 7 0 76.73 12.89
-8 7 -1 54.97 11.43
-8 7 -1 49.25 10.58
-8 7 -2 0.98 3.11
-8 7 -3 101.08 16.29
-8 7 -4 237.1 26.15
-8 7 -5 311.15 30.75
-8 6 8 -2.48 4.26
-8 6 7 25.3 7.86
-8 6 6 261.77 25.41
-8 6 5 275.27 25.49
-8 6 4 155.04 18.38
-8 6 4 148.48 16.03
-8 6 3 81.08 12.31
-8 6 3 73.8 12.55
-8 6 2 1.74 2.76
-8 6 2 5.35 4.4
-8 6 1 38.73 9.15
-8 6 1 27.05 7.38
-8 6 0 124.72 16.97
-8 6 0 135.87 16.72
-8 6 -1 52.33 11.15
-8 6 -2 213.23 23.53
-8 6 -3 24.5 8.37
-8 6 -4 -1.08 2.88
-8 6 -5 233.2 26.35
-8 6 -6 259.29 28.51
8 -5 -8 170.17 21.29
-8 5 7 61.77 11.73
8 -5 -7 90.81 14.81
8 -5 -6 2.78 3.43
-8 5 6 0.07 1.65
-8 5 5 144.58 16.81
8 -5 -5 126.39 16.37
-8 5 4 224.68 21.18
8 -5 -4 221.69 20.98
-8 5 4 229.2 20.54
-8 5 3 373.6 27.23
8 -5 -3 360.17 26.3
-8 5 3 353.74 27.13
-8 5 2 306.85 24.51
8 -5 -2 319.12 23.62
-8 5 2 338.18 27.17
-8 5 1 41.69 8.66
-8 5 1 22.56 7.05
8 -5 -1 42.18 7.8
-8 5 0 9.11 5.26
-8 5 -1 31.55 8.78
-8 5 -2 249.39 25.53
-8 5 -3 301.44 28.99
-8 5 -4 93.16 16.11
-8 5 -5 76.35 15.09
-8 5 -6 19.93 8.04
8 -4 -8 127.41 17.84
8 -4 -7 157.65 19.27
8 -4 -6 87.84 13.84
-8 4 5 170.21 16.99
8 -4 -5 136.88 16.75
-8 4 4 4.86 3.18
-8 4 4 4 3.26
8 -4 -4 7.85 3.88
-8 4 3 105.46 14.3
-8 4 3 124.41 14.08
8 -4 -3 102.4 12.97
8 -4 -2 150.62 15.02
-8 4 2 143.6 15.38
-8 4 2 150.24 17.74
8 -4 -1 353.89 22.92
-8 4 1 418.03 30.86
-8 4 0 128.33 17.19
-8 4 -1 79.02 13.47
-8 4 -2 13.5 6.19
-8 4 -3 183.45 22.23
-8 4 -4 274.07 27.98
-8 4 -5 350.06 32.64
-8 4 -6 112.45 18.78
8 -3 -9 196.95 22.87
8 -3 -8 1.81 3.41
8 -3 -7 49.5 10.82
8 -3 -6 244.21 22.95
8 -3 -5 96.64 13.73
-8 3 5 131.54 14.95
8 -3 -4 272.2 22.47
-8 3 4 289.99 23.74
-8 3 3 14.94 5.51
8 -3 -3 3.41 3.13
-8 3 2 18.78 6.01
8 -3 -2 23.55 5.74
-8 3 1 35.27 8.69
-8 3 0 92.74 14.36
-8 3 -1 326.72 28.37
-8 3 -2 213.43 23.26
-8 3 -3 8.77 4.59
-8 3 -4 2.85 3.36
-8 3 -5 101.81 17.06
8 -2 -9 383.69 32.64
8 -2 -8 309.31 28.02
8 -2 -7 16.52 6.56
8 -2 -6 8.48 4.19
-8 2 5 40.25 8.37
8 -2 -5 33.19 7.88
-8 2 4 172.68 18.09
8 -2 -4 191.36 18.4
-8 2 3 206.36 20.23
8 -2 -3 196.97 17.82
-8 2 2 167.26 18.5
8 -2 -2 134.16 13.8
-8 2 1 30.14 8.02
-8 2 0 137.63 17.68
-8 2 -1 161.35 19.59
-8 2 -2 72.89 13.53
-8 2 -3 327.55 29.93
-8 2 -4 58.08 12.62
8 -1 -9 51.45 11.54
8 -1 -8 129.45 17.67
8 -1 -7 283.57 25.79
8 -1 -6 99.6 14.25
-8 1 5 88.92 12.69
8 -1 -5 87.57 12.81
-8 1 4 1.74 1.77
8 -1 -4 0.17 2.06
-8 1 3 234.25 22.02
8 -1 -3 210.28 18.63
-8 1 2 430.41 31.45
-8 1 1 226.06 22.72
-8 1 0 545.97 37.7
-8 1 -1 59.75 11.92
-8 1 -2 63.76 12.91
-8 1 -3 69.01 13.58
8 0 -8 4.99 3.17
8 0 -7 3.44 3.58
-8 0 6 113.47 14.45
8 0 -6 91.36 13.81
-8 0 5 50.71 10.11
8 0 -5 59.21 10.81
-8 0 4 221.32 21.85
8 0 -4 224.71 20.52
-8 0 3 19.71 6.79
-8 0 2 20.32 6.99
-8 0 1 31.57 8.58
-8 0 0 370.03 31.21
-8 0 -1 272.57 27.05
-8 0 -2 141.81 19.69
8 1 -8 310.97 28.77
8 1 -7 92.74 14.77
-8 -1 6 3.9 3.12
8 1 -6 5.19 4.31
-8 -1 5 14.66 5.08
-8 -1 4 167.33 19.37
-8 -1 3 161.71 19.42
-8 -1 2 111.1 16.25
-8 -1 1 92.48 15.2
-8 -1 0 -0.98 1.75
-8 -2 6 148.26 18.44
-8 -2 5 39.25 9.64
-8 -2 4 -2.14 1.68
-8 -2 3 51.11 11.66
-9 8 3 22.56 8.08
-9 8 2 126.67 18.47
-9 8 1 230.12 24.89
-9 8 0 170.75 21.32
-9 8 0 174 21.44
-9 8 -1 12.88 6.43
-9 8 -1 -0.05 1.63
-9 7 6 157.35 20.86
-9 7 5 90.71 15.56
-9 7 4 126.72 18.28
-9 7 3 80.41 13.98
-9 7 2 3.75 4.19
-9 7 2 17.26 6.35
-9 7 1 120.8 17.21
-9 7 1 85.09 14.38
-9 7 0 164.71 20.18
-9 7 0 187.86 22.44
-9 7 -1 285.2 28.69
-9 7 -2 44.76 11.27
9 -6 -6 2.65 2.16
9 -6 -5 119.51 16.82
-9 6 4 164.7 19.19
9 -6 -4 143.43 17.88
-9 6 3 321.6 27.25
9 -6 -3 302.94 25.6
-9 6 3 335.18 27.89
-9 6 2 64.49 12.2
-9 6 2 77.51 12.98
-9 6 1 0.61 2.25
-9 6 1 -0.27 2.34
-9 6 0 17.56 6.44
-9 6 -1 89.28 15.69
-9 6 -2 93.32 16.54
-9 6 -3 110.95 18.36
9 -5 -7 88.65 15.16
9 -5 -6 105.44 15.94
9 -5 -5 9.93 4.7
9 -5 -4 1.5 2.82
9 -5 -3 143.64 16.67
-9 5 3 194.35 21.02
-9 5 2 343.91 29.54
-9 5 1 153.71 19.75
-9 5 0 244.05 25.87
-9 5 -1 38.26 10.57
-9 5 -2 8.96 5.62
-9 5 -3 97.82 17.52
9 -4 -7 64.36 12.87
9 -4 -6 107.33 15.94
9 -4 -5 200.97 21
-9 4 4 114.34 15.69
9 -4 -4 88.17 13.24
-9 4 3 43.65 10.04
-9 4 2 18 6.86
-9 4 1 236.85 24.89
-9 4 0 127.13 18.42
-9 4 -1 274.37 28.13
-9 4 -2 85.69 15.87
9 -3 -7 2.98 2.51
9 -3 -6 11.9 5.9
9 -3 -5 77.2 12.61
9 -3 -4 174.78 18.63
-9 3 4 245.89 23.47
-9 3 3 175.01 20.27
-9 3 2 100.02 15.47
-9 3 1 -2.4 2.35
-9 3 0 15.1 6.62
-9 3 -1 20.35 7.34
9 -2 -7 291.79 27.28
9 -2 -6 195.34 21.2
9 -2 -5 14.34 5.5
-9 2 4 10.14 4.27
-9 2 3 160.94 19.52
-9 2 2 167.92 20.42
-9 2 1 246.67 25.49
-9 2 0 1.48 2.45
9 -1 -7 89.48 14.9
9 -1 -6 188.06 21
-9 1 5 139.61 17.72
-9 1 4 150.24 18.72
-9 1 3 9.17 4.86
-9 1 2 2.1 2.97
-9 1 1 91.22 15.51
-9 0 5 57.3 11.9
-9 0 4 103.88 15.88
-10 7 2 68.39 14.69
-10 6 2 257.63 27.06
-10 5 2 17.05 7.13
-10 4 3 57.82 12.48
-10 4 2 55.53 13.05
-10 3 3 134.78 19.66
