#------------------------------------------------------------------------------
#$Date: 2022-02-04 21:21:59 +0200 (Fri, 04 Feb 2022) $
#$Revision: 272620 $
#$URL: file:///home/coder/svn-repositories/cod/cif/7/24/41/7244148.cif $
#------------------------------------------------------------------------------
#
# This file is available in the Crystallography Open Database (COD),
# http://www.crystallography.net/
#
# All data on this site have been placed in the public domain by the
# contributors.
#
data_7244148
loop_
_publ_author_name
'Rixson, Daniel'
'G\"unay Sezer, G\"une\,s'
'Alp, Emre'
'Mahon, Mary F.'
'Burrows, Andrew D.'
_publ_section_title
;
 Synthesis, structures and properties of metal--organic frameworks
 prepared using a semi-rigid tricarboxylate linker
;
_journal_issue                   4
_journal_name_full               CrystEngComm
_journal_page_first              863
_journal_page_last               876
_journal_paper_doi               10.1039/D1CE01284C
_journal_volume                  24
_journal_year                    2022
_chemical_absolute_configuration ad
_chemical_formula_moiety         'C10 H9.4 Cu N O7.2'
_chemical_formula_sum            'C10 H9.4 Cu N O7.2'
_chemical_formula_weight         322.32
_space_group_crystal_system      monoclinic
_space_group_IT_number           4
_space_group_name_Hall           'P 2yb'
_space_group_name_H-M_alt        'P 1 21 1'
_atom_sites_solution_hydrogens   mixed
_atom_sites_solution_primary     iterative
_audit_creation_date             2018-08-24
_audit_creation_method
;
Olex2 1.2
(compiled 2018.05.29 svn.r3508 for OlexSys, GUI svn.r5506)
;
_audit_update_record
;
2021-07-19 deposited with the CCDC.	2021-12-20 downloaded from the CCDC.
;
_cell_angle_alpha                90
_cell_angle_beta                 97.117(10)
_cell_angle_gamma                90
_cell_formula_units_Z            2
_cell_length_a                   4.9056(5)
_cell_length_b                   9.7392(10)
_cell_length_c                   11.4649(14)
_cell_measurement_reflns_used    1701
_cell_measurement_temperature    150.1(4)
_cell_measurement_theta_max      27.1300
_cell_measurement_theta_min      4.1640
_cell_volume                     543.53(10)
_computing_cell_refinement       'CrysAlisPro 1.171.39.46 (Rigaku OD, 2018)'
_computing_data_collection       'CrysAlisPro 1.171.39.46 (Rigaku OD, 2018)'
_computing_data_reduction        'CrysAlisPro 1.171.39.46 (Rigaku OD, 2018)'
_computing_molecular_graphics    'Olex2 (Dolomanov et al., 2009)'
_computing_publication_material  'Olex2 (Dolomanov et al., 2009)'
_computing_structure_refinement  'ShelXL (Sheldrick, 2015)'
_computing_structure_solution    'olex2.solve (Bourhis et al., 2015)'
_diffrn_ambient_environment      N~2~
_diffrn_ambient_temperature      150.1(4)
_diffrn_detector                 'CCD plate'
_diffrn_detector_area_resol_mean 8.0734
_diffrn_detector_type            EosS2
_diffrn_measured_fraction_theta_full 0.996
_diffrn_measured_fraction_theta_max 0.995
_diffrn_measurement_device       'four-circle diffractometer'
_diffrn_measurement_device_type  'New Xcalibur, EosS2'
_diffrn_measurement_method       '\w scans'
_diffrn_radiation_monochromator  graphite
_diffrn_radiation_probe          x-ray
_diffrn_radiation_type           MoK\a
_diffrn_radiation_wavelength     0.71073
_diffrn_reflns_av_R_equivalents  0.0541
_diffrn_reflns_av_unetI/netI     0.0916
_diffrn_reflns_Laue_measured_fraction_full 0.996
_diffrn_reflns_Laue_measured_fraction_max 0.995
_diffrn_reflns_limit_h_max       6
_diffrn_reflns_limit_h_min       -3
_diffrn_reflns_limit_k_max       12
_diffrn_reflns_limit_k_min       -12
_diffrn_reflns_limit_l_max       14
_diffrn_reflns_limit_l_min       -14
_diffrn_reflns_number            2564
_diffrn_reflns_point_group_measured_fraction_full 0.993
_diffrn_reflns_point_group_measured_fraction_max 0.990
_diffrn_reflns_theta_full        25.242
_diffrn_reflns_theta_max         27.520
_diffrn_reflns_theta_min         3.582
_diffrn_source                   'fine-focus sealed X-ray tube'
_diffrn_source_type              'Enhance (Mo) X-ray Source'
_exptl_absorpt_coefficient_mu    2.044
_exptl_absorpt_correction_T_max  0.960
_exptl_absorpt_correction_T_min  0.690
_exptl_absorpt_correction_type   analytical
_exptl_absorpt_process_details
;
CrysAlisPro 1.171.39.46 (Rigaku Oxford Diffraction, 2018)
Analytical numeric absorption correction using a multifaceted crystal
			model based on expressions derived by R.C. Clark & J.S. Reid.
(Clark, R. C. & Reid, J. S. (1995). Acta Cryst. A51, 887-897)
Empirical absorption correction using spherical harmonics,
 implemented in SCALE3 ABSPACK scaling algorithm.
;
_exptl_crystal_colour            green
_exptl_crystal_colour_primary    green
_exptl_crystal_density_diffrn    1.969
_exptl_crystal_description       plate
_exptl_crystal_F_000             326
_exptl_crystal_size_max          0.316
_exptl_crystal_size_mid          0.089
_exptl_crystal_size_min          0.019
_refine_diff_density_max         0.564
_refine_diff_density_min         -1.000
_refine_diff_density_rms         0.109
_refine_ls_abs_structure_details
;
 Classical Flack method preferred over Parsons because s.u. lower.
;
_refine_ls_abs_structure_Flack   -0.01(3)
_refine_ls_extinction_method     none
_refine_ls_goodness_of_fit_ref   0.953
_refine_ls_hydrogen_treatment    mixed
_refine_ls_matrix_type           full
_refine_ls_number_parameters     198
_refine_ls_number_reflns         2564
_refine_ls_number_restraints     5
_refine_ls_restrained_S_all      0.952
_refine_ls_R_factor_all          0.0611
_refine_ls_R_factor_gt           0.0481
_refine_ls_shift/su_max          0.000
_refine_ls_shift/su_mean         0.000
_refine_ls_structure_factor_coef Fsqd
_refine_ls_weighting_details
'w=1/[\s^2^(Fo^2^)+(0.0517P)^2^] where P=(Fo^2^+2Fc^2^)/3'
_refine_ls_weighting_scheme      calc
_refine_ls_wR_factor_gt          0.0958
_refine_ls_wR_factor_ref         0.0989
_reflns_Friedel_coverage         0.879
_reflns_Friedel_fraction_full    0.990
_reflns_Friedel_fraction_max     0.984
_reflns_number_gt                2093
_reflns_number_total             2564
_reflns_threshold_expression     'I > 2\s(I)'
_iucr_refine_instructions_details
;
TITL e18adb3
CELL 0.71073 4.9056 9.7392 11.4649 90 97.117 90
ZERR 2 0.0005 0.001 0.0014 0 0.01 0
LATT -1
SYMM -X,0.5+Y,-Z
SFAC C H Cu N O
UNIT 20 18.8 2 2 14.4
EQIV $1 2-X,-0.5+Y,1-Z
EQIV $2 -X,0.5+Y,-Z
EQIV $3 1-X,-0.5+Y,-Z
EQIV $4 1+X,-1+Y,+Z
EQIV $5 1+X,+Y,+Z
DFIX 0.98 0.005 N1 H1
DFIX 0.98 0.005 O7 H7b O7 H7a O6 H6
 
L.S. 10
PLAN  3
HTAB N1 O4_$1
HTAB O6 O2_$2
HTAB O7 O2_$3
HTAB O7 O5_$4
HTAB C2 O8
HTAB O8 O2_$3
HTAB O8 O7_$5
BIND Cu1 O8
BOND $H
LIST 6
more -3
fmap 2
acta
REM <olex2.extras>
REM <HklSrc "%.\\e18adb3.hkl">
REM </olex2.extras>
 
WGHT    0.051700
BASF   0.21337
FVAR       4.53205
CU1   3    0.648351    0.163250    0.259547    11.00000    0.00775    0.01633 =
         0.01809    0.00071    0.00002   -0.00016
O1    5    0.428249    0.195571    0.107792    11.00000    0.01346    0.02727 =
         0.02001    0.00489   -0.00371   -0.00460
O2    5    0.413619    0.325164   -0.052941    11.00000    0.01896    0.02973 =
         0.01917    0.00048   -0.00685   -0.00843
O3    5    1.095652    0.616505    0.605024    11.00000    0.00986    0.02298 =
         0.01329   -0.00383   -0.00043    0.00206
O4    5    0.717293    0.722453    0.648917    11.00000    0.00865    0.02025 =
         0.01316   -0.00343    0.00434   -0.00268
O6    5    0.022143    0.687535    0.140721    11.00000    0.01593    0.02870 =
         0.01871    0.00174   -0.00110    0.00699
O5    5   -0.000723    0.805780    0.307108    11.00000    0.01697    0.01805 =
         0.02767   -0.00492    0.00196    0.00970
O7    5    0.546231   -0.032491    0.250310    11.00000    0.01627    0.02037 =
         0.02445    0.00299    0.00076   -0.00189
O8    5    0.970206    0.055991    0.120881    10.20000    0.01996    0.07485 =
         0.03253   -0.02393    0.00910    0.00645
AFIX   7
H8A   2    0.890836   -0.012799    0.085621    10.20000   -1.20000
H8B   2    1.110936    0.022201    0.161841    10.20000   -1.20000
AFIX   0
N1    4    0.806202    0.352559    0.231950    11.00000    0.00668    0.01189 =
         0.01443   -0.00014    0.00052   -0.00048
C1    1    0.520651    0.292044    0.047991    11.00000    0.00799    0.02090 =
         0.02256   -0.00303    0.00282    0.00145
C2    1    0.778398    0.363894    0.102370    11.00000    0.01269    0.02144 =
         0.01817   -0.00071    0.00598    0.00022
AFIX  23
H2A   2    0.937258    0.322919    0.073412    11.00000   -1.20000
H2B   2    0.770978    0.459954    0.079853    11.00000   -1.20000
AFIX   0
C3    1    0.691435    0.460834    0.293205    11.00000    0.00504    0.01552 =
         0.01614   -0.00046    0.00266   -0.00411
C4    1    0.812508    0.495787    0.406711    11.00000    0.00568    0.01574 =
         0.01776    0.00399    0.00174    0.00180
AFIX  43
H4    2    0.966611    0.448772    0.441411    11.00000   -1.20000
AFIX   0
C5    1    0.698791    0.602197    0.467135    11.00000    0.00776    0.01691 =
         0.01516   -0.00355    0.00316   -0.00420
C7    1    0.470470    0.671694    0.416485    11.00000    0.00753    0.01700 =
         0.02484   -0.00141    0.00518   -0.00567
AFIX  43
H7    2    0.395917    0.741158    0.458315    11.00000   -1.20000
AFIX   0
C8    1    0.348430    0.639526    0.302911    11.00000    0.00832    0.01645 =
         0.02161    0.00377    0.00409   -0.00074
C10   1    0.461422    0.534096    0.242030    11.00000    0.00892    0.01721 =
         0.01830    0.00159   -0.00227   -0.00272
AFIX  43
H10   2    0.382901    0.512091    0.166320    11.00000   -1.20000
AFIX   0
C6    1    0.843114    0.649990    0.583982    11.00000    0.01098    0.01411 =
         0.01463    0.00642    0.00072    0.00464
C9    1    0.107062    0.720461    0.251731    11.00000    0.01022    0.01466 =
         0.02000    0.00409   -0.00242   -0.00837
H1    2    1.000252    0.345788    0.263990    11.00000   10.07000
H6    2   -0.107897    0.753432    0.100450    11.00000    0.07357
H7A   2    0.519941   -0.067922    0.169695    11.00000    0.05411
H7B   2    0.718502   -0.066557    0.292822    11.00000    0.12747
HKLF 5
 
REM  e18adb3
REM R1 =  0.0481 for    2093 Fo > 4sig(Fo)  and  0.0611 for all    2564 data
REM    198 parameters refined using      5 restraints
 
END  
     
WGHT      0.0517      0.0000 

REM Highest difference peak  0.564,  deepest hole -1.000,  1-sigma level  0.109
Q1    1   0.6858  0.0578  0.2196  11.00000  0.05    0.56
Q2    1   1.2078  0.6680  0.6560  11.00000  0.05    0.56
Q3    1   0.4963  0.1370  0.1985  11.00000  0.05    0.49

  REM The information below was added by Olex2.
  REM
  REM R1 = 0.0481 for 2093 Fo > 4sig(Fo) and 0.0611 for all 2564 data
  REM n/a parameters refined using n/a restraints
  REM Highest difference peak 0.56, deepest hole -1.00
  REM Mean Shift 0, Max Shift 0.000.

  REM +++ Tabular Listing of Refinement Information +++
  REM R1_all = 0.0611
  REM R1_gt = 0.0481
  REM wR_ref = 0.0989
  REM GOOF = 0.953
  REM Shift_max = 0.000
  REM Shift_mean = 0
  REM Reflections_all = 2564
  REM Reflections_gt = 2093
  REM Parameters = n/a
  REM Hole = -1.00
  REM Peak = 0.56
  REM Flack = -0.02(3)

  
;
_twin_special_details
;
Component 2 rotated by -179.9814\% 
 around [0.96 -0.00 -0.28] (reciprocal) or [1.00 0.00 -0.00] (direct)
;
_cod_data_source_file            d1ce01284c2.cif
_cod_data_source_block           e18adb3
_cod_depositor_comments
'Adding full bibliography for 7244143--7244152.cif.'
_cod_original_formula_sum        'C10 H9.40 Cu N O7.20'
_cod_database_code               7244148
_shelxl_version_number           2014-3
_chemical_oxdiff_usercomment     'Green-Blue Plate'
_shelx_space_group_comment
;
The symmetry employed for this shelxl refinement is uniquely defined
by the following loop, which should always be used as a source of
symmetry information in preference to the above space-group names.
They are only intended as comments.
;
_olex2_refinement_description
;
1. Twinned data refinement
 Scales: 0.787(3)
 0.213(3)
2. Fixed Uiso
 At 1.2 times of:
  All C(H) groups, All C(H,H) groups, All O(H,H) groups
3. Restrained distances
 N1-H1
 0.98 with sigma of 0.005
 O7-H7B = O7-H7A = O6-H6
 0.98 with sigma of 0.005
4. Others
 Fixed Sof: O8(0.2) H8A(0.2) H8B(0.2)
 Fixed Uiso: H1(0.07)
5.a Rotating group:
 O8(H8A,H8B)
5.b Secondary CH2 refined with riding coordinates:
 C2(H2A,H2B)
5.c Aromatic/amide H refined with riding coordinates:
 C4(H4), C7(H7), C10(H10)
;
_olex2_submission_special_instructions 'No special instructions were received'
_oxdiff_twin_integration_method  simultaneous
_oxdiff_twin_items               2
loop_
_space_group_symop_operation_xyz
'x, y, z'
'-x, y+1/2, -z'
loop_
_atom_site_label
_atom_site_type_symbol
_atom_site_fract_x
_atom_site_fract_y
_atom_site_fract_z
_atom_site_U_iso_or_equiv
_atom_site_adp_type
_atom_site_occupancy
_atom_site_site_symmetry_order
_atom_site_calc_flag
_atom_site_refinement_flags_posn
_atom_site_refinement_flags_adp
_atom_site_refinement_flags_occupancy
_atom_site_disorder_assembly
_atom_site_disorder_group
Cu1 Cu 0.6484(2) 0.16325(11) 0.25955(8) 0.0142(2) Uani 1 1 d . . . . .
O1 O 0.4282(15) 0.1956(6) 0.1078(5) 0.0207(19) Uani 1 1 d . . . . .
O2 O 0.4136(15) 0.3252(6) -0.0529(5) 0.0234(15) Uani 1 1 d . . . . .
O3 O 1.0957(14) 0.6165(5) 0.6050(5) 0.0155(14) Uani 1 1 d . . . . .
O4 O 0.7173(14) 0.7225(6) 0.6489(5) 0.0138(14) Uani 1 1 d . . . . .
O6 O 0.0221(14) 0.6875(7) 0.1407(5) 0.0214(18) Uani 1 1 d D . . . .
O5 O -0.0007(15) 0.8058(6) 0.3071(5) 0.0210(15) Uani 1 1 d . . . . .
O7 O 0.5462(14) -0.0325(6) 0.2503(5) 0.0205(15) Uani 1 1 d D . . . .
O8 O 0.970(9) 0.056(5) 0.121(3) 0.042(10) Uani 0.2 1 d . . P . .
H8A H 0.8908 -0.0128 0.0856 0.050 Uiso 0.2 1 d GR . P . .
H8B H 1.1109 0.0222 0.1618 0.050 Uiso 0.2 1 d GR . P . .
N1 N 0.8062(15) 0.3526(7) 0.2320(6) 0.0111(16) Uani 1 1 d D . . . .
C1 C 0.5207(19) 0.2920(9) 0.0480(8) 0.017(2) Uani 1 1 d . . . . .
C2 C 0.778(2) 0.3639(9) 0.1024(7) 0.0171(19) Uani 1 1 d . . . . .
H2A H 0.9373 0.3229 0.0734 0.021 Uiso 1 1 calc R . . . .
H2B H 0.7710 0.4600 0.0799 0.021 Uiso 1 1 calc R . . . .
C3 C 0.6914(19) 0.4608(8) 0.2932(7) 0.0121(18) Uani 1 1 d . . . . .
C4 C 0.8125(18) 0.4958(8) 0.4067(7) 0.0130(19) Uani 1 1 d . . . . .
H4 H 0.9666 0.4488 0.4414 0.016 Uiso 1 1 calc R . . . .
C5 C 0.6988(19) 0.6022(8) 0.4671(7) 0.0131(18) Uani 1 1 d . . . . .
C7 C 0.4705(17) 0.6717(14) 0.4165(6) 0.0162(17) Uani 1 1 d . . . . .
H7 H 0.3959 0.7412 0.4583 0.019 Uiso 1 1 calc R . . . .
C8 C 0.3484(19) 0.6395(9) 0.3029(7) 0.015(2) Uani 1 1 d . . . . .
C10 C 0.4614(19) 0.5341(8) 0.2420(7) 0.0151(19) Uani 1 1 d . . . . .
H10 H 0.3829 0.5121 0.1663 0.018 Uiso 1 1 calc R . . . .
C6 C 0.8431(18) 0.6500(12) 0.5840(6) 0.0133(18) Uani 1 1 d . . . . .
C9 C 0.1071(19) 0.7205(8) 0.2517(8) 0.0153(19) Uani 1 1 d . . . . .
H1 H 1.000(7) 0.346(13) 0.264(11) 0.070 Uiso 1 1 d D . . . .
H6 H -0.11(2) 0.753(10) 0.100(10) 0.07(4) Uiso 1 1 d D . . . .
H7A H 0.52(3) -0.068(11) 0.170(4) 0.05(4) Uiso 1 1 d D . . . .
H7B H 0.72(2) -0.067(16) 0.293(15) 0.13(8) Uiso 1 1 d D . . . .
loop_
_atom_site_aniso_label
_atom_site_aniso_U_11
_atom_site_aniso_U_22
_atom_site_aniso_U_33
_atom_site_aniso_U_23
_atom_site_aniso_U_13
_atom_site_aniso_U_12
Cu1 0.0078(5) 0.0163(4) 0.0181(4) 0.0007(7) 0.0000(4) -0.0002(8)
O1 0.013(4) 0.027(5) 0.020(3) 0.005(3) -0.004(3) -0.005(3)
O2 0.019(4) 0.030(4) 0.019(3) 0.000(3) -0.007(3) -0.008(3)
O3 0.010(3) 0.023(3) 0.013(3) -0.004(2) 0.000(3) 0.002(3)
O4 0.009(4) 0.020(3) 0.013(3) -0.003(2) 0.004(3) -0.003(3)
O6 0.016(4) 0.029(5) 0.019(3) 0.002(3) -0.001(2) 0.007(3)
O5 0.017(4) 0.018(3) 0.028(4) -0.005(3) 0.002(3) 0.010(3)
O7 0.016(4) 0.020(3) 0.024(4) 0.003(3) 0.001(3) -0.002(3)
O8 0.02(2) 0.07(3) 0.033(19) -0.024(19) 0.009(19) 0.01(2)
N1 0.007(4) 0.012(3) 0.014(4) 0.000(3) 0.001(3) 0.000(3)
C1 0.008(5) 0.021(4) 0.023(5) -0.003(4) 0.003(4) 0.001(4)
C2 0.013(5) 0.021(4) 0.018(4) -0.001(4) 0.006(4) 0.000(4)
C3 0.005(5) 0.016(4) 0.016(4) 0.000(3) 0.003(4) -0.004(4)
C4 0.006(5) 0.016(4) 0.018(4) 0.004(3) 0.002(4) 0.002(3)
C5 0.008(5) 0.017(4) 0.015(4) -0.004(3) 0.003(4) -0.004(4)
C7 0.008(4) 0.017(4) 0.025(4) -0.001(5) 0.005(3) -0.006(6)
C8 0.008(4) 0.016(6) 0.022(4) 0.004(4) 0.004(3) -0.001(4)
C10 0.009(5) 0.017(4) 0.018(4) 0.002(3) -0.002(4) -0.003(4)
C6 0.011(4) 0.014(5) 0.015(3) 0.006(4) 0.001(3) 0.005(5)
C9 0.010(5) 0.015(3) 0.020(4) 0.004(4) -0.002(4) -0.008(4)
loop_
_atom_type_symbol
_atom_type_description
_atom_type_scat_dispersion_real
_atom_type_scat_dispersion_imag
_atom_type_scat_source
C C 0.0033 0.0016 'International Tables Vol C Tables 4.2.6.8 and 6.1.1.4'
H H 0.0000 0.0000 'International Tables Vol C Tables 4.2.6.8 and 6.1.1.4'
Cu Cu 0.3201 1.2651 'International Tables Vol C Tables 4.2.6.8 and 6.1.1.4'
N N 0.0061 0.0033 'International Tables Vol C Tables 4.2.6.8 and 6.1.1.4'
O O 0.0106 0.0060 'International Tables Vol C Tables 4.2.6.8 and 6.1.1.4'
loop_
_geom_angle_atom_site_label_1
_geom_angle_atom_site_label_2
_geom_angle_atom_site_label_3
_geom_angle
_geom_angle_site_symmetry_1
_geom_angle_site_symmetry_3
_geom_angle_publ_flag
O1 Cu1 O4 89.4(3) . 2_646 ?
O1 Cu1 O7 90.0(3) . . ?
O1 Cu1 O8 80.2(9) . . ?
O1 Cu1 N1 84.0(3) . . ?
O3 Cu1 O1 171.0(3) 2_746 . ?
O3 Cu1 O4 99.3(2) 2_746 2_646 ?
O3 Cu1 O7 87.2(2) 2_746 . ?
O3 Cu1 O8 90.8(9) 2_746 . ?
O3 Cu1 N1 96.7(3) 2_746 . ?
O4 Cu1 O8 164.7(9) 2_646 . ?
O7 Cu1 O4 93.5(2) . 2_646 ?
O7 Cu1 O8 75.4(10) . . ?
O7 Cu1 N1 164.8(3) . . ?
N1 Cu1 O4 100.4(3) . 2_646 ?
N1 Cu1 O8 89.8(10) . . ?
C1 O1 Cu1 113.7(6) . . ?
C6 O3 Cu1 127.8(6) . 2_756 ?
C6 O4 Cu1 127.9(6) . 2_656 ?
C9 O6 H6 114(7) . . ?
Cu1 O7 H7A 113(7) . . ?
Cu1 O7 H7B 96(10) . . ?
H7A O7 H7B 111(10) . . ?
Cu1 O8 H8A 109.3 . . ?
Cu1 O8 H8B 109.3 . . ?
H8A O8 H8B 104.5 . . ?
Cu1 N1 H1 105(8) . . ?
C2 N1 Cu1 103.5(5) . . ?
C2 N1 H1 110(8) . . ?
C3 N1 Cu1 114.4(6) . . ?
C3 N1 C2 116.6(7) . . ?
C3 N1 H1 107(8) . . ?
O1 C1 C2 117.0(8) . . ?
O2 C1 O1 123.3(8) . . ?
O2 C1 C2 119.7(8) . . ?
N1 C2 C1 110.4(7) . . ?
N1 C2 H2A 109.6 . . ?
N1 C2 H2B 109.6 . . ?
C1 C2 H2A 109.6 . . ?
C1 C2 H2B 109.6 . . ?
H2A C2 H2B 108.1 . . ?
C4 C3 N1 119.3(8) . . ?
C10 C3 N1 121.2(7) . . ?
C10 C3 C4 119.4(8) . . ?
C3 C4 H4 120.4 . . ?
C5 C4 C3 119.3(8) . . ?
C5 C4 H4 120.4 . . ?
C4 C5 C6 119.7(8) . . ?
C7 C5 C4 120.6(8) . . ?
C7 C5 C6 119.4(8) . . ?
C5 C7 H7 119.5 . . ?
C5 C7 C8 121.0(9) . . ?
C8 C7 H7 119.5 . . ?
C7 C8 C9 118.6(8) . . ?
C10 C8 C7 118.7(8) . . ?
C10 C8 C9 122.8(8) . . ?
C3 C10 H10 119.5 . . ?
C8 C10 C3 121.0(7) . . ?
C8 C10 H10 119.5 . . ?
O3 C6 C5 115.3(8) . . ?
O4 C6 O3 125.1(8) . . ?
O4 C6 C5 119.6(8) . . ?
O6 C9 C8 113.0(8) . . ?
O5 C9 O6 124.4(9) . . ?
O5 C9 C8 122.6(8) . . ?
loop_
_geom_bond_atom_site_label_1
_geom_bond_atom_site_label_2
_geom_bond_distance
_geom_bond_site_symmetry_2
_geom_bond_publ_flag
Cu1 O1 1.956(6) . ?
Cu1 O3 1.927(6) 2_746 ?
Cu1 O4 2.262(6) 2_646 ?
Cu1 O7 1.971(6) . ?
Cu1 O8 2.59(4) . ?
Cu1 N1 2.040(7) . ?
O1 C1 1.279(11) . ?
O2 C1 1.252(10) . ?
O3 Cu1 1.927(6) 2_756 ?
O3 C6 1.275(10) . ?
O4 Cu1 2.262(6) 2_656 ?
O4 C6 1.244(11) . ?
O6 C9 1.328(10) . ?
O6 H6 0.979(8) . ?
O5 C9 1.207(11) . ?
O7 H7A 0.980(8) . ?
O7 H7B 0.980(8) . ?
O8 H8A 0.8514 . ?
O8 H8B 0.8515 . ?
N1 C2 1.479(11) . ?
N1 C3 1.421(12) . ?
N1 H1 0.979(8) . ?
C1 C2 1.511(13) . ?
C2 H2A 0.9700 . ?
C2 H2B 0.9700 . ?
C3 C4 1.404(12) . ?
C3 C10 1.401(12) . ?
C4 H4 0.9300 . ?
C4 C5 1.400(11) . ?
C5 C7 1.374(13) . ?
C5 C6 1.509(11) . ?
C7 H7 0.9300 . ?
C7 C8 1.400(11) . ?
C8 C10 1.395(12) . ?
C8 C9 1.482(12) . ?
C10 H10 0.9300 . ?
loop_
_geom_hbond_atom_site_label_D
_geom_hbond_atom_site_label_H
_geom_hbond_atom_site_label_A
_geom_hbond_distance_DH
_geom_hbond_distance_HA
_geom_hbond_distance_DA
_geom_hbond_angle_DHA
_geom_hbond_site_symmetry_A
O8 H8A O2 0.85 2.17 2.97(5) 156.5 2_645
O8 H8B O7 0.85 2.31 3.14(4) 166.8 1_655
C2 H2A O8 0.97 2.66 3.14(4) 111.3 .
N1 H1 O4 0.979(8) 2.00(8) 2.854(9) 144(10) 2_746
O6 H6 O2 0.979(8) 1.68(5) 2.617(9) 158(13) 2
O7 H7A O2 0.980(8) 1.76(5) 2.682(9) 156(10) 2_645
O7 H7B O5 0.980(8) 1.85(9) 2.736(9) 149(15) 1_645
loop_
_refln_index_h
_refln_index_k
_refln_index_l
_refln_F_squared_meas
_refln_F_squared_sigma
_refln_scale_group_code
0 11 -2 923.098 713.467 -2
0 -11 2 923.098 713.467 1
0 11 -3 16522.5 1159.96 -2
0 -11 3 16522.5 1159.96 1
0 11 -4 4274.48 922.02 -2
0 -11 4 4274.48 922.02 1
0 11 -5 8459.88 1131.3 -2
0 -11 5 8459.88 1131.3 1
0 11 -6 1938.3 1023.35 -2
0 -11 6 1938.3 1023.35 1
0 11 -7 4278.89 1198.06 -2
0 -11 7 4278.89 1198.06 1
0 10 0 4973.88 631.89 -2
0 -10 0 4973.88 631.89 1
0 10 -1 472.732 596.904 -2
0 -10 1 472.732 596.904 1
0 10 -2 11002.2 936.679 -2
0 -10 2 11002.2 936.679 1
0 10 -3 262.519 706.463 -2
0 -10 3 262.519 706.463 1
0 10 -4 10097.2 1032.97 -2
0 -10 4 10097.2 1032.97 1
0 10 -5 436.532 845.625 -2
0 -10 5 436.532 845.625 1
0 10 -7 2155.63 1005.54 -2
0 -10 7 2155.63 1005.54 1
0 10 -8 4078.27 1128.98 -2
0 -10 8 4078.27 1128.98 1
0 10 -9 936.855 1091.08 -2
0 -10 9 936.855 1091.08 1
0 9 -1 8760.98 779.591 -2
0 -9 1 8760.98 779.591 1
0 9 -2 612.277 651.171 -2
0 -9 2 612.277 651.171 1
0 9 -3 7485.44 852.741 -2
0 -9 3 7485.44 852.741 1
0 9 -4 1107.51 765.762 -2
0 -9 4 1107.51 765.762 1
0 9 -5 16659.7 1195.28 -2
0 -9 5 16659.7 1195.28 1
0 9 -6 1248.54 845.561 -2
0 -9 6 1248.54 845.561 1
0 9 -7 3017.75 1002.34 -2
0 -9 7 3017.75 1002.34 1
0 9 -8 1350.18 1020.97 -2
0 -9 8 1350.18 1020.97 1
0 9 -9 4053.08 1220.49 -2
0 -9 9 4053.08 1220.49 1
0 9 -10 2140.4 1160.94 -2
0 -9 10 2140.4 1160.94 1
0 8 -1 2712.62 356.73 -2
0 -8 1 2712.62 356.73 1
0 8 -2 7178.64 742.499 -2
0 -8 2 7178.64 742.499 1
0 8 -3 699.726 639.906 -2
0 -8 3 699.726 639.906 1
0 8 -4 7076.59 883.727 -2
0 -8 4 7076.59 883.727 1
0 8 -5 2322.91 801.187 -2
0 -8 5 2322.91 801.187 1
0 8 -6 5510.17 970.463 -2
0 -8 6 5510.17 970.463 1
0 8 -7 4677.94 991.059 -2
0 -8 7 4677.94 991.059 1
0 8 -8 896.301 959.054 -2
0 -8 8 896.301 959.054 1
0 8 -9 2635.65 1084.7 -2
0 -8 9 2635.65 1084.7 1
0 8 -10 3423.26 1091.98 -2
0 -8 10 3423.26 1091.98 1
0 8 -11 527.279 1094.79 -2
0 -8 11 527.279 1094.79 1
0 7 1 2726.99 327.945 -2
0 -7 -1 2726.99 327.945 1
0 7 -2 71.2791 372.162 -2
0 -7 2 71.2791 372.162 1
0 7 -3 15353.1 897.864 -2
0 -7 3 15353.1 897.864 1
0 7 -4 755.272 653.589 -2
0 -7 4 755.272 653.589 1
0 7 -5 19959.4 1126.49 -2
0 -7 5 19959.4 1126.49 1
0 7 -6 4701.58 844.713 -2
0 -7 6 4701.58 844.713 1
0 7 -7 4342.79 935.224 -2
0 -7 7 4342.79 935.224 1
0 7 -8 4197.81 985.594 -2
0 -7 8 4197.81 985.594 1
0 7 -9 7046.74 1136.8 -2
0 -7 9 7046.74 1136.8 1
0 7 -10 3764.28 1069.63 -2
0 -7 10 3764.28 1069.63 1
0 7 -11 3031.16 1106.25 -2
0 -7 11 3031.16 1106.25 1
0 7 -12 2984.81 1158.12 -2
0 -7 12 2984.81 1158.12 1
0 6 -1 6269.68 566.496 -2
0 -6 1 6269.68 566.496 1
0 6 -2 26630.9 957.896 -2
0 -6 2 26630.9 957.896 1
0 6 -3 8805.19 711.238 -2
0 -6 3 8805.19 711.238 1
0 6 -4 17515.3 987.139 -2
0 -6 4 17515.3 987.139 1
0 6 -5 964.368 629.973 -2
0 -6 5 964.368 629.973 1
0 6 -6 28984.2 1372.54 -2
0 -6 6 28984.2 1372.54 1
0 6 -7 8393.84 657.379 -2
0 -6 7 8393.84 657.379 1
0 6 -8 8094.75 1042.11 -2
0 -6 8 8094.75 1042.11 1
0 6 -9 7632.66 1104.55 -2
0 -6 9 7632.66 1104.55 1
0 6 -10 2271.8 1008.65 -2
0 -6 10 2271.8 1008.65 1
0 6 -11 -29.4789 943.74 -2
0 -6 11 -29.4789 943.74 1
0 6 -12 4352.61 1174.54 -2
0 -6 12 4352.61 1174.54 1
0 6 -13 1592.65 902.571 -2
0 -6 13 1592.65 902.571 1
0 5 -1 44536.7 640.962 -2
0 -5 1 44536.7 640.962 1
0 5 -2 130.646 297.508 -2
0 -5 2 130.646 297.508 1
0 5 -3 51129.8 762.155 -2
0 -5 3 51129.8 762.155 1
0 5 -4 14591.3 508.884 -2
0 -5 4 14591.3 508.884 1
0 5 -5 39762.7 1353.38 -2
0 -5 5 39762.7 1353.38 1
0 5 -6 4368.69 769.958 -2
0 -5 6 4368.69 769.958 1
0 5 -7 42004.7 1589.98 -2
0 -5 7 42004.7 1589.98 1
0 5 -8 4580.34 888.957 -2
0 -5 8 4580.34 888.957 1
0 5 -10 1289.11 864.952 -2
0 -5 10 1289.11 864.952 1
0 5 -11 6741.51 1115.87 -2
0 -5 11 6741.51 1115.87 1
0 5 -12 4719.69 1108.29 -2
0 -5 12 4719.69 1108.29 1
0 5 -13 9838.95 1324.03 -2
0 -5 13 9838.95 1324.03 1
0 4 0 63384.5 1472.71 -2
0 -4 0 63384.5 1472.71 1
0 4 1 4825.28 262.213 -2
0 -4 -1 4825.28 262.213 1
0 4 2 43534.4 625.202 -2
0 -4 -2 43534.4 625.202 1
0 4 3 709.548 265.931 -2
0 -4 -3 709.548 265.931 1
0 4 4 6383.26 490.026 -2
0 -4 -4 6383.26 490.026 1
0 4 5 1779.08 307.826 -2
0 -4 -5 1779.08 307.826 1
0 4 6 23559.5 837.744 -2
0 -4 -6 23559.5 837.744 1
0 4 -7 12617.1 647.247 -2
0 -4 7 12617.1 647.247 1
0 4 -8 17438.7 1176.41 -2
0 -4 8 17438.7 1176.41 1
0 4 -9 864.185 187.877 -2
0 -4 9 864.185 187.877 1
0 4 -10 2383.18 881.259 -2
0 -4 10 2383.18 881.259 1
0 4 -11 3459.94 956.779 -2
0 -4 11 3459.94 956.779 1
0 4 -12 6293.23 1140.22 -2
0 -4 12 6293.23 1140.22 1
0 4 -13 3425.39 1071.48 -2
0 -4 13 3425.39 1071.48 1
0 4 -14 1027.68 821.468 -2
0 -4 14 1027.68 821.468 1
0 3 -1 47759 535.315 -2
0 -3 1 47759 535.315 1
0 3 2 21330.7 432.132 -2
0 -3 -2 21330.7 432.132 1
0 3 -3 5892.63 354.543 -2
0 -3 3 5892.63 354.543 1
0 3 -4 13028 329.485 -2
0 -3 4 13028 329.485 1
0 3 -5 18150.1 450.902 -2
0 -3 5 18150.1 450.902 1
0 3 -6 713.658 144.678 -2
0 -3 6 713.658 144.678 1
0 3 -7 14514.7 704.261 -2
0 -3 7 14514.7 704.261 1
0 3 -8 9691.69 946.679 -2
0 -3 8 9691.69 946.679 1
0 3 -9 2053.99 256.729 -2
0 -3 9 2053.99 256.729 1
0 3 -10 3444.51 411.674 -2
0 -3 10 3444.51 411.674 1
0 3 -11 2943.52 871.662 -2
0 -3 11 2943.52 871.662 1
0 3 -12 2467.13 964.511 -2
0 -3 12 2467.13 964.511 1
0 3 -13 2648.69 1042.7 -2
0 -3 13 2648.69 1042.7 1
0 3 -14 5313.58 1178.56 -2
0 -3 14 5313.58 1178.56 1
0 2 0 159512 1007.98 -2
0 -2 0 159512 1007.98 1
0 2 -1 55769.3 477.46 -2
0 -2 1 55769.3 477.46 1
0 2 -2 17505.9 243.04 -2
0 -2 2 17505.9 243.04 1
0 2 3 6155.82 273.176 -2
0 -2 -3 6155.82 273.176 1
0 2 4 1367.21 151.296 -2
0 -2 -4 1367.21 151.296 1
0 2 -5 7378.65 270.257 -2
0 -2 5 7378.65 270.257 1
0 2 -6 18565.4 432.111 -2
0 -2 6 18565.4 432.111 1
0 2 7 16064.8 453.57 -2
0 -2 -7 16064.8 453.57 1
0 2 -8 21130.5 535.491 -2
0 -2 8 21130.5 535.491 1
0 2 9 2429.06 305.62 -2
0 -2 -9 2429.06 305.62 1
0 2 -10 5864.17 923.891 -2
0 -2 10 5864.17 923.891 1
0 2 -11 1817.67 438.97 -2
0 -2 11 1817.67 438.97 1
0 2 -12 5351.5 984.102 -2
0 -2 12 5351.5 984.102 1
0 2 -13 4719.26 1040.81 -2
0 -2 13 4719.26 1040.81 1
0 2 -14 1570.45 1007.23 -2
0 -2 14 1570.45 1007.23 1
0 1 2 856.975 134.032 -2
0 -1 -2 856.975 134.032 1
0 1 3 11464 180.289 -2
0 -1 -3 11464 180.289 1
0 1 -4 4774.75 189.502 -2
0 -1 4 4774.75 189.502 1
0 1 -5 13259.2 341.279 -2
0 -1 5 13259.2 341.279 1
0 1 -6 2307.19 252.336 -2
0 -1 6 2307.19 252.336 1
0 1 -7 50575.6 612.042 -2
0 -1 7 50575.6 612.042 1
0 1 -8 2103.58 338.418 -2
0 -1 8 2103.58 338.418 1
0 1 9 9452.45 613.809 -2
0 -1 -9 9452.45 613.809 1
0 1 -10 3335.96 452.883 -2
0 -1 10 3335.96 452.883 1
0 1 -11 4498.32 516.72 -2
0 -1 11 4498.32 516.72 1
0 1 -12 10089.7 1065.6 -2
0 -1 12 10089.7 1065.6 1
0 1 -13 4254.35 989.817 -2
0 -1 13 4254.35 989.817 1
0 1 -14 4005.81 1035.21 -2
0 -1 14 4005.81 1035.21 1
0 0 -2 134437 387.089 -2
0 0 2 134437 387.089 1
0 0 3 16037.8 295.374 -2
0 0 -3 16037.8 295.374 1
0 0 -4 23907.7 350.99 -2
0 0 4 23907.7 350.99 1
0 0 -5 15912 389.197 -2
0 0 5 15912 389.197 1
0 0 -6 124917 698.294 -2
0 0 6 124917 698.294 1
0 0 -7 11643.9 478.287 -2
0 0 7 11643.9 478.287 1
0 0 -8 24410 415.973 -2
0 0 8 24410 415.973 1
0 0 -9 4628.82 403.8 -2
0 0 9 4628.82 403.8 1
0 0 -10 9229.89 878.533 -2
0 0 10 9229.89 878.533 1
0 0 -11 327.588 458.78 -2
0 0 11 327.588 458.78 1
0 0 -12 4657.15 585.918 -2
0 0 12 4657.15 585.918 1
0 0 -13 2015.36 560.055 -2
0 0 13 2015.36 560.055 1
0 0 -14 5091.34 1026.38 -2
0 0 14 5091.34 1026.38 1
0 -1 2 934.234 101.136 -2
0 1 -2 934.234 101.136 1
0 -1 3 9734.93 230.363 -2
0 1 -3 9734.93 230.363 1
0 -1 -4 4607.55 218.5 -2
0 1 4 4607.55 218.5 1
0 -1 5 14177.3 264.087 -2
0 1 -5 14177.3 264.087 1
0 -1 6 2439.38 177.797 -2
0 1 -6 2439.38 177.797 1
0 -1 7 56949.9 484.733 -2
0 1 -7 56949.9 484.733 1
0 -1 -8 1884.74 278.062 -2
0 1 8 1884.74 278.062 1
0 -1 -9 9643.47 819.877 -2
0 1 9 9643.47 819.877 1
0 -1 -10 3615.78 499.192 -2
0 1 10 3615.78 499.192 1
0 -1 -11 4259.8 545.788 -2
0 1 11 4259.8 545.788 1
0 -1 -12 11335.7 984.738 -2
0 1 12 11335.7 984.738 1
0 -1 -13 3716.56 592.318 -2
0 1 13 3716.56 592.318 1
0 -1 -14 3297.85 648.597 -2
0 1 14 3297.85 648.597 1
0 -2 0 174522 448.232 -2
0 2 0 174522 448.232 1
0 -2 1 56719.8 241.725 -2
0 2 -1 56719.8 241.725 1
0 -2 2 17639.8 194.679 -2
0 2 -2 17639.8 194.679 1
0 -2 3 7545.38 176.333 -2
0 2 -3 7545.38 176.333 1
0 -2 4 612.76 154.355 -2
0 2 -4 612.76 154.355 1
0 -2 5 8334.88 262.657 -2
0 2 -5 8334.88 262.657 1
0 -2 6 16232.4 411.42 -2
0 2 -6 16232.4 411.42 1
0 -2 7 16665.2 349.595 -2
0 2 -7 16665.2 349.595 1
0 -2 -8 23604.6 423.85 -2
0 2 8 23604.6 423.85 1
0 -2 -9 2767.37 206.265 -2
0 2 9 2767.37 206.265 1
0 -2 -10 8210.81 762.557 -2
0 2 10 8210.81 762.557 1
0 -2 -11 1989.47 497.93 -2
0 2 11 1989.47 497.93 1
0 -2 -12 4683.35 588.169 -2
0 2 12 4683.35 588.169 1
0 -2 -13 4130.39 610.294 -2
0 2 13 4130.39 610.294 1
0 -2 -14 1637.21 884.142 -2
0 2 14 1637.21 884.142 1
0 -3 1 48393.8 226.292 -2
0 3 -1 48393.8 226.292 1
0 -3 2 23800 225.532 -2
0 3 -2 23800 225.532 1
0 -3 -3 6595.63 211.605 -2
0 3 3 6595.63 211.605 1
0 -3 4 13727.6 321.649 -2
0 3 -4 13727.6 321.649 1
0 -3 5 18215 588.526 -2
0 3 -5 18215 588.526 1
0 -3 6 718.437 158.831 -2
0 3 -6 718.437 158.831 1
0 -3 -7 13751.8 429.627 -2
0 3 7 13751.8 429.627 1
0 -3 -8 10831.4 364.626 -2
0 3 8 10831.4 364.626 1
0 -3 9 3335.39 395.228 -2
0 3 -9 3335.39 395.228 1
0 -3 10 4408.13 449.694 -2
0 3 -10 4408.13 449.694 1
0 -3 -11 2312.82 444.367 -2
0 3 11 2312.82 444.367 1
0 -3 -12 3284.5 550.744 -2
0 3 12 3284.5 550.744 1
0 -3 -13 2335.41 881.763 -2
0 3 13 2335.41 881.763 1
0 -3 -14 2936.37 1025.74 -2
0 3 14 2936.37 1025.74 1
0 -4 0 70064.9 389.794 -2
0 4 0 70064.9 389.794 1
0 -4 1 4881.4 120.733 -2
0 4 -1 4881.4 120.733 1
0 -4 -2 47614.7 264.875 -2
0 4 2 47614.7 264.875 1
0 -4 -3 717.609 109.496 -2
0 4 3 717.609 109.496 1
0 -4 -4 5752.73 363.82 -2
0 4 4 5752.73 363.82 1
0 -4 -5 2611.29 310.108 -2
0 4 5 2611.29 310.108 1
0 -4 6 25004.8 1159.93 -2
0 4 -6 25004.8 1159.93 1
0 -4 -7 15706.8 358.58 -2
0 4 7 15706.8 358.58 1
0 -4 -8 22784.3 449.437 -2
0 4 8 22784.3 449.437 1
0 -4 -9 1289.15 295.908 -2
0 4 9 1289.15 295.908 1
0 -4 10 2896.6 412.876 -2
0 4 -10 2896.6 412.876 1
0 -4 -11 4661.65 680.779 -2
0 4 11 4661.65 680.779 1
0 -4 12 5861.33 741.215 -2
0 4 -12 5861.33 741.215 1
0 -4 -13 4302.82 1054.48 -2
0 4 13 4302.82 1054.48 1
0 -4 -14 543.613 738.031 -2
0 4 14 543.613 738.031 1
0 -5 -1 45599.6 343.434 -2
0 5 1 45599.6 343.434 1
0 -5 2 280.874 114.529 -2
0 5 -2 280.874 114.529 1
0 -5 -3 53608.9 377.774 -2
0 5 3 53608.9 377.774 1
0 -5 4 16003.8 311.037 -2
0 5 -4 16003.8 311.037 1
0 -5 -5 37695.9 996.758 -2
0 5 5 37695.9 996.758 1
0 -5 6 4819.68 570.202 -2
0 5 -6 4819.68 570.202 1
0 -5 7 39938.7 703.646 -2
0 5 -7 39938.7 703.646 1
0 -5 8 3867.82 346.983 -2
0 5 -8 3867.82 346.983 1
0 -5 9 11324.9 476.127 -2
0 5 -9 11324.9 476.127 1
0 -5 -10 1863.83 651.433 -2
0 5 10 1863.83 651.433 1
0 -5 -11 6506.5 766.66 -2
0 5 11 6506.5 766.66 1
0 -5 -12 4123.93 777.071 -2
0 5 12 4123.93 777.071 1
0 -5 -13 10162.5 914.917 -2
0 5 13 10162.5 914.917 1
0 -6 0 90533.6 1583.7 -2
0 6 0 90533.6 1583.7 1
0 -6 1 5891.89 678.391 -2
0 6 -1 5891.89 678.391 1
0 -6 -2 25045.9 502.113 -2
0 6 2 25045.9 502.113 1
0 -6 3 6897.31 285.818 -2
0 6 -3 6897.31 285.818 1
0 -6 4 17916.6 1040.78 -2
0 6 -4 17916.6 1040.78 1
0 -6 -5 1088.42 493.928 -2
0 6 5 1088.42 493.928 1
0 -6 6 28172.2 976.102 -2
0 6 -6 28172.2 976.102 1
0 -6 7 9008.87 1030 -2
0 6 -7 9008.87 1030 1
0 -6 8 11273.2 1141.07 -2
0 6 -8 11273.2 1141.07 1
0 -6 9 7554.85 775.242 -2
0 6 -9 7554.85 775.242 1
0 -6 -10 4980.47 792.82 -2
0 6 10 4980.47 792.82 1
0 -6 -11 25.6709 597.8 -2
0 6 11 25.6709 597.8 1
0 -6 12 5084.26 792.441 -2
0 6 -12 5084.26 792.441 1
0 -6 -13 2974.25 849.162 -2
0 6 13 2974.25 849.162 1
0 -7 1 2808.54 223.331 -2
0 7 -1 2808.54 223.331 1
0 -7 -2 35.1782 146.884 -2
0 7 2 35.1782 146.884 1
0 -7 3 13580.3 683.95 -2
0 7 -3 13580.3 683.95 1
0 -7 -4 820.173 193.695 -2
0 7 4 820.173 193.695 1
0 -7 -5 17785.9 846.443 -2
0 7 5 17785.9 846.443 1
0 -7 6 5435.76 645.51 -2
0 7 -6 5435.76 645.51 1
0 -7 7 3944.96 680.284 -2
0 7 -7 3944.96 680.284 1
0 -7 -8 4863.4 707.562 -2
0 7 8 4863.4 707.562 1
0 -7 -9 6703.44 804.111 -2
0 7 9 6703.44 804.111 1
0 -7 10 5005.23 786.915 -2
0 7 -10 5005.23 786.915 1
0 -7 -11 2666.57 793.244 -2
0 7 11 2666.57 793.244 1
0 -7 -12 4050.08 831.419 -2
0 7 12 4050.08 831.419 1
0 -8 -1 3337.79 269.27 -2
0 8 1 3337.79 269.27 1
0 -8 2 6869.48 338.74 -2
0 8 -2 6869.48 338.74 1
0 -8 3 587.638 267.039 -2
0 8 -3 587.638 267.039 1
0 -8 4 7594.88 646.555 -2
0 8 -4 7594.88 646.555 1
0 -8 5 2424.05 600.223 -2
0 8 -5 2424.05 600.223 1
0 -8 6 4469.15 691.542 -2
0 8 -6 4469.15 691.542 1
0 -8 -7 4308.22 719.336 -2
0 8 7 4308.22 719.336 1
0 -8 8 714.455 677.834 -2
0 8 -8 714.455 677.834 1
0 -8 -9 1973.46 711.935 -2
0 8 9 1973.46 711.935 1
0 -8 -10 2821.43 769.469 -2
0 8 10 2821.43 769.469 1
0 -8 -11 699.829 789.461 -2
0 8 11 699.829 789.461 1
0 -9 -1 9503.26 513.274 -2
0 9 1 9503.26 513.274 1
0 -9 -2 456.033 271.399 -2
0 9 2 456.033 271.399 1
0 -9 -3 8122.18 646.477 -2
0 9 3 8122.18 646.477 1
0 -9 -4 1143.87 407.176 -2
0 9 4 1143.87 407.176 1
0 -9 5 19311.9 1368.39 -2
0 9 -5 19311.9 1368.39 1
0 -9 -6 1366.28 652.698 -2
0 9 6 1366.28 652.698 1
0 -9 -7 3005.68 750.69 -2
0 9 7 3005.68 750.69 1
0 -9 -8 1500.87 749.652 -2
0 9 8 1500.87 749.652 1
0 -9 -9 4544.97 851.88 -2
0 9 9 4544.97 851.88 1
0 -9 -10 2367.98 809.874 -2
0 9 10 2367.98 809.874 1
0 -10 0 6427.65 898.155 -2
0 10 0 6427.65 898.155 1
0 -10 1 191.7 313.832 -2
0 10 -1 191.7 313.832 1
0 -10 -2 13422.6 743.133 -2
0 10 2 13422.6 743.133 1
0 -10 -3 440.048 389.924 -2
0 10 3 440.048 389.924 1
0 -10 4 9605.77 708.723 -2
0 10 -4 9605.77 708.723 1
0 -10 -5 425.765 465.286 -2
0 10 5 425.765 465.286 1
0 -10 6 7029.51 818.884 -2
0 10 -6 7029.51 818.884 1
0 -10 7 1591.74 739.463 -2
0 10 -7 1591.74 739.463 1
0 -10 8 2508.27 808.14 -2
0 10 -8 2508.27 808.14 1
0 -10 9 510.587 702.404 -2
0 10 -9 510.587 702.404 1
0 -11 1 9242.12 1094.99 -2
0 11 -1 9242.12 1094.99 1
0 -11 -2 573.201 407.346 -2
0 11 2 573.201 407.346 1
0 -11 -3 17846.7 679.211 -2
0 11 3 17846.7 679.211 1
0 -11 -4 4199.31 533.071 -2
0 11 4 4199.31 533.071 1
0 -11 -5 8725.83 631.315 -2
0 11 5 8725.83 631.315 1
0 -11 -6 1920.51 742.129 -2
0 11 6 1920.51 742.129 1
0 -11 -7 4228.62 844.536 -2
0 11 7 4228.62 844.536 1
0 -12 0 1351.27 906.66 -2
0 12 0 1351.27 906.66 1
0 -12 1 763.245 652.834 -2
0 12 -1 763.245 652.834 1
0 -12 -2 1900.57 631.445 -2
0 12 2 1900.57 631.445 1
0 -12 3 1598.91 466.27 -2
0 12 -3 1598.91 466.27 1
0 -12 -4 2262.77 516.587 -2
0 12 4 2262.77 516.587 1
-1 11 -6 3145.03 964.358 -2
-1 -11 7 3145.03 964.358 1
-1 11 -5 416.269 898.331 -2
-1 -11 6 416.269 898.331 1
-1 -11 5 3225.09 716.75 1
-1 -11 4 4391.76 672.568 1
1 -11 1 1023.39 594.276 1
1 -11 2 4651.49 690.5 1
1 -11 3 2924.86 709.675 1
1 -11 4 1726.45 715.706 1
1 -11 5 -30.58 775.58 1
1 -11 6 1490.25 805.319 1
-1 -10 9 -33.9148 841.084 1
-1 -10 8 1115.06 805.788 1
-1 10 -6 -267.235 911.501 -2
-1 -10 7 -267.235 911.501 1
-1 10 -5 5730.71 941.502 -2
-1 -10 6 5730.71 941.502 1
-1 10 -4 792.472 771.702 -2
-1 -10 5 792.472 771.702 1
-1 -10 4 6862.13 676.941 1
1 10 3 12366.1 1358 -2
1 -10 -4 12366.1 1358 1
-1 -10 3 4425.1 597.859 1
1 10 2 6549.25 1297.57 -2
1 -10 -3 6549.25 1297.57 1
-1 -10 2 4265.17 510.024 1
1 10 1 8635.56 1304.36 -2
1 -10 -2 8635.56 1304.36 1
1 10 0 4830.71 1120.35 -2
1 -10 -1 4830.71 1120.35 1
1 -10 0 3596.01 571.68 1
1 -10 1 13576.1 769.684 1
1 -10 2 8158.46 742.93 1
1 -10 3 12899 832.125 1
1 -10 4 -92.7208 638.062 1
1 -10 5 2526.9 753.183 1
1 -10 6 994.456 792.361 1
1 -10 7 9170 946.832 1
1 -10 8 1118.7 791.556 1
-1 -9 10 1378.38 812.731 1
-1 -9 9 2812.37 852.042 1
-1 -9 8 1519.27 800.841 1
-1 -9 7 325.78 679.085 1
1 9 6 -174.927 982.046 -2
1 -9 -7 -174.927 982.046 1
-1 -9 6 2625.44 697.137 1
1 9 5 3215.75 1041.45 -2
1 -9 -6 3215.75 1041.45 1
-1 -9 5 4821.93 681.745 1
1 9 4 7417.76 1144.65 -2
1 -9 -5 7417.76 1144.65 1
-1 9 -3 1298.38 545.63 -2
-1 -9 4 1298.38 545.63 1
-1 -9 3 2772.57 516.404 1
1 9 2 3648.73 1071.17 -2
1 -9 -3 3648.73 1071.17 1
-1 -9 2 3354.99 469.655 1
1 9 1 5720.54 1017.9 -2
1 -9 -2 5720.54 1017.9 1
-1 -9 1 5711.74 459.171 1
1 9 0 9471.55 1176.15 -2
1 -9 -1 9471.55 1176.15 1
-1 -9 0 8972.49 368.891 1
1 9 -1 12936.1 1148.2 -2
1 -9 0 12936.1 1148.2 1
1 -9 1 2957.75 556.904 1
1 9 -2 3114.51 970.955 -2
1 -9 1 3114.51 970.955 1
1 -9 2 2762.09 559.596 1
1 -9 3 559.578 542.53 1
1 -9 4 4794.78 688.683 1
1 -9 5 820.498 663.289 1
1 -9 6 1273.41 739.408 1
1 -9 7 664.842 724.087 1
1 -9 8 3047.14 910.663 1
1 -9 9 511.676 845.356 1
-1 -8 11 2360.68 851.367 1
-1 -8 10 4179.13 877.941 1
-1 -8 9 2049.28 742.593 1
1 -8 -8 3701.36 438.633 1
-1 -8 7 1083.62 606.246 1
1 8 6 2248.01 929.389 -2
1 -8 -7 2248.01 929.389 1
-1 -8 6 8060.59 725.93 1
1 8 5 8240.54 720.873 -2
1 -8 -6 8240.54 720.873 1
-1 -8 5 2760.89 619.459 1
1 8 4 3722.88 617.758 -2
1 -8 -5 3722.88 617.758 1
-1 -8 4 9175.33 680.019 1
1 8 3 11413.7 699.199 -2
1 -8 -4 11413.7 699.199 1
-1 -8 3 5514.69 560.476 1
1 8 2 7132.42 597.794 -2
1 -8 -3 7132.42 597.794 1
-1 -8 2 4445.73 466.263 1
1 8 1 4280.67 534.561 -2
1 -8 -2 4280.67 534.561 1
-1 -8 1 2696.39 378.117 1
1 8 0 4282.81 957.487 -2
1 -8 -1 4282.81 957.487 1
1 -8 0 5196.49 302.255 1
1 8 -1 7127.88 973.438 -2
1 -8 0 7127.88 973.438 1
-1 -8 -1 2303.76 236.675 1
1 8 -2 4557.22 954.664 -2
1 -8 1 4557.22 954.664 1
1 -8 2 3604 557.838 1
1 8 -3 6243.91 899.57 -2
1 -8 2 6243.91 899.57 1
1 -8 3 10036.6 692.184 1
1 8 -4 12441.2 1005.18 -2
1 -8 3 12441.2 1005.18 1
1 -8 4 1398.03 538.93 1
1 -8 5 646.965 624.095 1
1 -8 6 5111.6 772.406 1
1 -8 7 4111.82 832.968 1
1 -8 8 629.521 746.709 1
1 -8 9 6482.91 1028.75 1
1 -8 10 -225.916 884.676 1
-1 -7 12 -448.949 758.941 1
-1 -7 11 1407.29 856.859 1
1 -7 -10 216.178 527.074 1
-1 -7 9 3809.56 413.206 1
-1 -7 8 475.26 368.058 1
1 -7 -7 2069.66 381.31 1
-1 -7 6 539.097 573.749 1
1 7 5 921.727 572.57 -2
1 -7 -6 921.727 572.57 1
-1 -7 5 8796.81 722.409 1
1 7 4 13121.6 1002.42 -2
1 -7 -5 13121.6 1002.42 1
-1 -7 4 3065.91 518.746 1
1 7 3 2637.12 546.984 -2
1 -7 -4 2637.12 546.984 1
-1 -7 3 10532.1 597.729 1
1 7 2 12790 1004.32 -2
1 -7 -3 12790 1004.32 1
-1 -7 2 8366.76 511.657 1
1 7 1 6963.32 514.458 -2
1 -7 -2 6963.32 514.458 1
1 -7 -1 7036.79 329.998 1
1 -7 0 8099.04 258.983 1
1 7 -1 9708.69 885.53 -2
1 -7 0 9708.69 885.53 1
-1 -7 -1 959.348 198.459 1
1 7 -2 3492.09 836.554 -2
1 -7 1 3492.09 836.554 1
1 -7 2 9457.22 645.995 1
1 7 -3 13867.9 1015.34 -2
1 -7 2 13867.9 1015.34 1
1 -7 3 152.636 364.385 1
1 -7 4 14864.4 605.442 1
1 -7 5 1685.49 570.224 1
1 -7 6 6755.18 769.508 1
1 -7 7 617.212 640.396 1
1 -7 8 3922.37 851.497 1
1 -7 9 -229.354 787.638 1
1 -7 10 7476.49 961.656 1
1 -7 11 1793.63 901.584 1
-1 -6 13 -34.5375 796.853 1
1 -6 -12 3019.82 603.889 1
1 -6 -11 954.264 543.527 1
1 -6 -10 8932.41 899.286 1
-1 -6 9 1217.81 354.729 1
1 -6 -8 5545.59 412.284 1
-1 -6 7 5462.36 392.036 1
1 -6 -6 7830.24 213.68 1
-1 -6 5 6465.93 254.216 1
1 6 4 6316.54 566.752 -2
1 -6 -5 6316.54 566.752 1
-1 -6 4 21874.7 407.055 1
1 6 3 26612 1030.93 -2
1 -6 -4 26612 1030.93 1
-1 -6 3 6409.49 288.099 1
1 6 2 7266.89 520.905 -2
1 -6 -3 7266.89 520.905 1
-1 -6 2 8796.24 318.104 1
1 6 1 12244.4 895.595 -2
1 -6 -2 12244.4 895.595 1
1 -6 -1 29306.2 414.952 1
1 6 0 32067.3 1104.61 -2
1 -6 -1 32067.3 1104.61 1
1 -6 0 9037.53 303.553 1
1 6 -1 15581.6 872.245 -2
1 -6 0 15581.6 872.245 1
1 -6 1 12657.7 239.529 1
1 6 -2 13982.5 906.135 -2
1 -6 1 13982.5 906.135 1
1 -6 2 2806.37 366.528 1
1 -6 3 18093.8 572.088 1
1 -6 4 3307.33 408.023 1
1 -6 5 10310.7 517.465 1
1 -6 6 8730.91 752.347 1
1 -6 7 8951.2 805.511 1
1 -6 8 82.8183 682.049 1
1 -6 9 13288.9 1032.26 1
1 -6 10 763.587 794.725 1
1 -6 11 4428.26 964.278 1
1 -6 12 239.502 839.032 1
-1 -5 13 2580.36 907.606 1
1 -5 -12 144.052 544.127 1
1 -5 -11 5936.78 613.88 1
1 -5 -10 917.716 482.829 1
1 -5 -9 9807.92 421.287 1
-1 -5 8 7800.15 388.092 1
1 -5 -7 11697.7 259.028 1
-1 -5 6 1094.26 170.779 1
-1 -5 5 9379.04 246.906 1
1 -5 -4 19250.9 342.943 1
1 5 3 22757.6 958.133 -2
1 -5 -4 22757.6 958.133 1
-1 -5 3 29800.2 452.304 1
1 5 2 31675.5 1033.92 -2
1 -5 -3 31675.5 1033.92 1
-1 -5 2 40457.7 671.049 1
1 5 1 40743.4 744.831 -2
1 -5 -2 40743.4 744.831 1
-1 -5 1 9268.65 270.693 1
1 5 0 14228.6 819.234 -2
1 -5 -1 14228.6 819.234 1
-1 -5 0 21527.6 290.326 1
1 5 -1 22559.7 922.921 -2
1 -5 0 22559.7 922.921 1
1 -5 1 15033.2 236.445 1
1 5 -2 23177.8 900.593 -2
1 -5 1 23177.8 900.593 1
1 -5 2 11707.9 441.697 1
1 -5 3 11588.9 460.908 1
1 -5 4 12248 474.621 1
1 -5 5 550.745 340.906 1
1 -5 6 16727.3 859.068 1
1 -5 7 8003.29 789.16 1
1 -5 8 8603.55 880.104 1
1 -5 9 5420.59 838.893 1
1 -5 10 8865.8 976.913 1
1 -5 11 -172.233 730.987 1
1 -5 12 5004.31 962.599 1
1 -5 13 391.174 851.864 1
-1 -4 14 1541.56 850.955 1
-1 -4 13 470.848 546.521 1
1 -4 -12 5350.27 593.16 1
-1 -4 11 275.336 469.23 1
1 -4 -10 3429.76 306.981 1
-1 -4 9 8057.3 357.213 1
1 -4 -8 10865.1 387.292 1
-1 -4 7 1924.7 196.692 1
-1 -4 6 12169.7 277.845 1
-1 -4 5 663.475 178.238 1
1 -4 -4 9102.47 247.938 1
1 -4 -3 14286.2 313.872 1
1 4 2 18352.7 803.785 -2
1 -4 -3 18352.7 803.785 1
-1 -4 2 24848.4 377.067 1
1 4 1 31140.7 929.038 -2
1 -4 -2 31140.7 929.038 1
-1 -4 1 15006.3 308.967 1
1 4 0 16474.8 784.58 -2
1 -4 -1 16474.8 784.58 1
1 -4 0 12308.1 235.133 1
1 4 -1 13948 733.755 -2
1 -4 0 13948 733.755 1
-1 -4 -1 28928.4 259.803 1
1 -4 2 16883.4 461.793 1
1 -4 3 43667.1 664.691 1
1 -4 4 2348.54 317.597 1
1 -4 5 28444 602.8 1
1 -4 6 350.649 309.184 1
1 -4 7 13709.9 266.533 1
1 -4 8 1083.54 198.693 1
1 -4 9 10495.3 912.466 1
1 -4 10 5265.72 784.021 1
1 -4 11 7473.4 920.34 1
1 -4 12 -127.355 792.9 1
1 -4 13 2245.77 904.034 1
1 -3 -14 160.024 557.707 1
-1 -3 13 961.452 517.416 1
1 -3 -12 474.658 487.462 1
1 -3 -11 4007.42 534.093 1
1 -3 -10 1099.89 239.479 1
1 -3 -9 45747.8 599.716 1
1 -3 -8 3758.6 232.508 1
1 -3 -7 30148.5 506.584 1
-1 -3 6 3086.86 212.624 1
1 -3 -5 7656.23 251.272 1
-1 -3 4 9031.22 255.057 1
-1 -3 3 42359.8 443.085 1
1 3 2 41126.4 953.86 -2
1 -3 -3 41126.4 953.86 1
1 -3 -2 104175 624.406 1
1 3 1 103974 1274.36 -2
1 -3 -2 103974 1274.36 1
1 -3 -1 48628.7 435.579 1
1 3 0 45929.5 935.162 -2
1 -3 -1 45929.5 935.162 1
1 -3 0 25425.7 281.107 1
1 3 -1 35863.8 866.556 -2
1 -3 0 35863.8 866.556 1
-1 -3 -1 24043.7 245.522 1
1 -3 2 6055.52 122.876 1
-1 -3 -3 2358.14 103.673 1
1 -3 4 29539.2 228.751 1
1 -3 5 1382.32 122.642 1
1 -3 6 13867.4 214.984 1
1 -3 7 160.452 148.173 1
1 -3 8 1372.01 186.49 1
1 -3 9 219.575 277.44 1
1 -3 10 4193 355.587 1
1 -3 11 225.176 719.987 1
1 -3 12 3933.45 865.153 1
1 -3 13 353.253 802.569 1
-1 -2 14 3802.99 583.159 1
1 -2 -13 839.628 499.39 1
-1 -2 12 3928.88 542.862 1
-1 -2 11 -178.691 435.365 1
-1 -2 10 7550.2 280.984 1
1 -2 -9 12891.2 347.818 1
1 -2 -8 7130.53 318.747 1
-1 -2 7 2481.78 212.841 1
-1 -2 6 8502.14 469.532 1
-1 -2 5 7904.04 343.701 1
-1 -2 4 9881.19 293.794 1
1 -2 -3 12181.7 289.074 1
-1 -2 2 124547 654.947 1
-1 -2 1 5167.08 225.126 1
1 -2 0 7920.77 194.299 1
-1 -2 -1 9712.98 171.418 1
1 -2 2 12587.2 141.001 1
-1 -2 -3 29471.4 239.336 1
1 -2 4 25579.9 268.569 1
1 -2 5 28797.3 255.623 1
1 -2 6 1956.08 159.196 1
1 -2 7 7350.21 258.808 1
1 -2 8 869.489 215.741 1
1 -2 9 5129.27 393.821 1
1 -2 10 3308.12 376.13 1
1 -2 11 6328.07 450.492 1
1 -2 12 382.513 666.698 1
1 -2 13 5717.85 859.991 1
1 -2 14 670.057 796.608 1
1 -1 -14 243.536 519.557 1
1 -1 -13 1543.12 489.171 1
1 -1 -12 126.092 467.78 1
1 -1 -11 5951.16 526.363 1
1 -1 -10 1431.11 209.655 1
1 -1 -9 24675.2 702.075 1
1 -1 -8 8372.51 477.763 1
1 -1 -7 18938.8 794.812 1
-1 -1 6 2841.48 312.293 1
-1 -1 5 6436.66 280.729 1
-1 -1 4 10809.3 298.607 1
1 -1 -3 33873 401.991 1
-1 -1 2 175151 734.077 1
-1 -1 1 17616.7 269.315 1
-1 -1 0 25287.3 351.649 1
1 -1 1 41918.5 293.611 1
1 -1 2 15832.8 211.49 1
-1 -1 -3 18254.5 236.247 1
-1 -1 -4 76453.4 389.62 1
1 -1 5 4707.12 153.99 1
-1 -1 -6 49641.8 339.381 1
1 -1 7 1185.35 221.382 1
1 -1 8 11148.1 470.596 1
1 -1 9 1081.8 338.157 1
1 -1 10 7036.05 468.38 1
1 -1 11 551.883 385.948 1
1 -1 12 7284.09 522.639 1
1 -1 13 -71.1355 677.744 1
1 -1 14 4196.6 877.119 1
1 0 -14 2883.58 419.453 1
1 0 -13 46.1104 456.492 1
1 0 -12 1134.16 440.176 1
1 0 -11 408.232 398.198 1
1 0 -10 21221.9 664.637 1
1 0 -9 1171.97 385.096 1
1 0 -8 10484.6 711.924 1
1 0 -7 22560.6 794.922 1
1 0 -6 28228.6 579.951 1
-1 0 5 35487.4 460.682 1
1 0 -4 56901.8 601.321 1
-1 0 3 5285.75 283.053 1
1 0 -2 2509 240.194 1
-1 0 1 98922.2 617.611 1
-1 0 0 39844.3 411.045 1
-1 0 -1 15494 210.053 1
-1 0 -2 10913.9 198.164 1
-1 0 -3 27766.4 281.246 1
-1 0 -4 33426.6 297.194 1
1 0 5 79738 376.215 1
1 0 6 9736.01 241.37 1
1 0 7 7991.42 287.488 1
1 0 8 87.5962 333.494 1
1 0 9 8011.26 478.189 1
1 0 10 202.56 371.077 1
1 0 11 4276.2 459.715 1
1 0 12 499.576 411.966 1
1 0 13 7993.5 578.552 1
1 0 14 601.665 699.418 1
-1 1 14 420.537 474.238 1
1 1 -13 1028.39 460.296 1
-1 1 12 245.575 412.526 1
1 1 -11 5672.67 486.227 1
-1 1 10 981.758 389.8 1
-1 1 9 25120.4 650.108 1
1 1 -8 8098.58 583.293 1
1 1 -7 18253.6 667.956 1
1 1 -6 2877.05 406.098 1
1 1 -5 4986.01 312.291 1
1 1 -4 10466.6 337.172 1
1 1 -3 35286.7 461.047 1
-1 1 2 184920 878.484 1
-1 1 1 19619.3 341.16 1
-1 1 0 28988.9 306.514 1
1 1 1 39711.1 344.898 1
-1 1 -2 17807.9 222.356 1
-1 1 -3 19589.7 242.524 1
-1 1 -4 78148.5 407.157 1
-1 1 -5 3663.58 197.531 1
1 1 6 55682.6 544.012 1
1 1 7 1146.72 240.651 1
-1 1 -8 11908.9 377.934 1
-1 1 -9 1137.45 290.73 1
1 1 10 6373.77 480.595 1
1 1 11 513.589 396.971 1
1 1 12 7285.16 527.574 1
1 1 13 -10.9508 457.388 1
1 1 14 3483.79 795.15 1
-1 2 14 3155.05 551.42 1
-1 2 13 768.333 658.524 1
-1 2 12 3475.16 433.412 1
-1 2 11 174.197 363.864 1
1 2 -10 6195.17 453.379 1
1 2 -9 12185.1 674.52 1
1 2 -8 6760.97 509.314 1
1 2 -7 2650.56 400.09 1
1 2 -6 10015.5 407.478 1
1 2 -5 10394.3 396.063 1
1 2 -4 8033.48 287.351 1
1 2 -3 13937.7 310.864 1
-1 2 2 119644 656.3 1
1 2 -1 5244.88 188.594 1
-1 2 0 7517.97 190.623 1
1 2 1 7157.54 185.067 1
1 2 2 10653.8 238.345 1
-1 2 -3 32561.4 273.487 1
1 2 4 25268.3 271.277 1
1 2 5 28693.8 295.863 1
-1 2 -6 2244.32 146.363 1
1 2 7 6235.54 304.844 1
-1 2 -8 664.22 260.78 1
-1 2 -9 6190.6 368.585 1
-1 2 -10 3929.38 349.933 1
1 2 11 8159.92 409.813 1
1 2 12 329.851 422.575 1
1 2 13 4382.83 785.877 1
1 2 14 50.7732 730.575 1
-1 3 14 -130.83 772.841 1
-1 3 13 1762.02 651.333 1
-1 3 12 454.297 609.101 1
1 3 -11 4368.95 409.64 1
-1 3 10 970.755 345.878 1
1 3 -9 43858.8 970.852 1
1 3 -8 3872.81 371.078 1
1 3 -7 37036.4 637.669 1
1 3 -6 3236.72 302.4 1
1 3 -5 8541.29 347.869 1
1 3 -4 11981.8 386.696 1
-1 3 3 42551.2 469.543 1
1 3 -2 109311 561.965 1
-1 3 1 55031.9 401.341 1
1 3 0 23604.2 343.071 1
1 3 1 27348.5 282.449 1
1 3 2 4332.11 172.096 1
-1 3 -3 3129.47 155.239 1
-1 3 -4 34234.3 255.97 1
1 3 5 1928.3 154.847 1
1 3 6 16083.1 261.471 1
1 3 7 405.873 152.758 1
1 3 8 1139.41 274.054 1
1 3 9 458.105 288.999 1
1 3 10 5309.86 375.632 1
-1 3 -11 719.563 325.598 1
1 3 12 3300.05 776.214 1
1 3 13 80.3519 736.178 1
-1 4 14 1546.46 815.903 1
-1 4 13 -100.47 765.772 1
-1 4 12 6900.81 713.491 1
-1 4 11 108.601 527.282 1
1 4 -10 2460.47 310.66 1
1 4 -9 7986.56 433.53 1
1 4 -8 14991.3 471.232 1
1 4 -7 1751.36 289.799 1
1 4 -6 17229.6 433.032 1
1 4 -5 614.671 246.577 1
1 4 -4 9597.76 365.531 1
-1 4 3 15280.9 301.797 1
-1 4 2 30677.5 348.668 1
1 4 -1 12622.6 248.848 1
1 4 0 15016.4 257.927 1
-1 4 -1 29916.4 310.452 1
1 4 2 16928.6 212.222 1
1 4 3 46343 338.65 1
1 4 4 2149.2 108.818 1
-1 4 -5 23347.7 265.181 1
-1 4 -6 663.796 138.858 1
1 4 7 19912.6 297.012 1
-1 4 -8 1455.97 245.791 1
1 4 9 10129.1 367.466 1
-1 4 -10 4181.98 530.17 1
1 4 11 7265.84 605.807 1
-1 4 -12 175.638 499.489 1
1 4 13 2977.69 903.542 1
-1 5 13 1873.34 866.606 1
1 5 -11 8027.74 1068.51 1
1 5 -10 975.142 444.432 1
1 5 -9 11333.6 446.237 1
1 5 -8 9158.67 384.557 1
1 5 -7 16516 435.856 1
1 5 -6 1646.83 260.346 1
1 5 -5 10648.5 371.711 1
1 5 -4 23680.3 350.689 1
1 5 -3 29581.1 389.168 1
-1 5 2 41645.2 456.606 1
1 5 -1 11009.2 249.941 1
1 5 0 21640 310.299 1
1 5 1 17191.2 309.362 1
1 5 2 11216.1 251.587 1
1 5 3 10285.8 224.764 1
-1 5 -4 14121.9 350.267 1
-1 5 -5 330.25 194.681 1
1 5 6 12490.2 272.152 1
1 5 7 7038.11 525.068 1
1 5 8 7986.91 562.812 1
-1 5 -9 5656.09 553.601 1
-1 5 -10 9433.82 646.034 1
-1 5 -11 492.266 526.437 1
-1 5 -12 4428.79 597.821 1
1 5 13 212.794 826.059 1
-1 6 13 -62.0578 805.655 1
1 6 -12 4115.97 646.997 1
1 6 -11 626.106 907.113 1
1 6 -10 11570.7 1118.99 1
1 6 -9 1239.53 806.831 1
1 6 -8 7281.71 930.521 1
1 6 -7 7734.76 325.329 1
1 6 -6 9070.6 267.404 1
-1 6 5 7395.5 252.711 1
1 6 -4 22567.5 349.911 1
-1 6 3 6780.7 243.702 1
1 6 -2 8524.86 274.602 1
1 6 -1 32390.6 592.394 1
1 6 0 10629.5 309.434 1
1 6 1 14329 317.979 1
1 6 2 3398.82 206.544 1
1 6 3 18691.5 513.873 1
1 6 4 3124.06 293.947 1
1 6 5 10664.1 349.418 1
-1 6 -6 7346.26 299.622 1
1 6 7 8021.15 573.239 1
1 6 8 266.606 470.593 1
-1 6 -9 10428.9 669.183 1
-1 6 -10 681.904 539.315 1
-1 6 -11 6362.23 666.34 1
1 6 12 56.186 614.136 1
-1 7 12 -103.633 603.456 1
1 7 -11 1800.05 620.097 1
1 7 -10 1339.25 892.683 1
1 7 -9 4534.82 947.267 1
1 7 -8 718.145 874.473 1
1 7 -7 2797.39 885.44 1
1 7 -6 312.004 244.135 1
1 7 -5 8476.28 885.056 1
-1 -7 -4 13482.2 524.355 -2
-1 7 5 13482.2 524.355 1
1 7 -4 4199.57 320.293 1
-1 -7 -3 3575.52 377.209 -2
-1 7 4 3575.52 377.209 1
-1 7 3 10072.7 296.85 1
1 7 -2 10702.7 421.049 1
1 7 -1 8424.8 405.048 1
1 7 0 9993.02 438.358 1
-1 7 -1 848.581 213.522 1
1 7 2 9892.15 285.817 1
1 7 3 211.164 109.375 1
1 7 4 15126.7 449.839 1
1 7 5 1677.45 292.063 1
1 7 6 7607.51 345.9 1
-1 7 -7 37.8076 462.565 1
-1 7 -8 4424.96 593.744 1
-1 7 -9 300.207 533.536 1
-1 7 -10 5875.56 685.797 1
-1 7 -11 4729.1 686.638 1
1 8 -11 2063.85 676.319 1
1 8 -10 3423.21 681.821 1
-1 8 9 1060.41 570.351 1
1 8 -8 6079.3 1039.8 1
1 8 -7 1291.11 849.115 1
1 8 -6 11425.6 1060.66 1
1 8 -5 4555.2 850.488 1
1 8 -4 11182.8 416.898 1
1 8 -3 7789.2 481.34 1
1 -8 2 7253.36 926.048 -2
1 8 -3 7253.36 926.048 1
1 8 -2 4733 376.581 1
1 8 -1 2817.33 349.646 1
1 8 0 6808.25 440.816 1
1 8 1 2613.25 264.285 1
-1 8 -2 2662.24 286.99 1
1 -8 -3 4815.77 608.899 -2
1 8 2 4815.77 608.899 1
1 8 3 11090.7 580.108 1
1 -8 -4 12588.2 792.527 -2
1 8 3 12588.2 792.527 1
-1 8 -4 1406.77 341.725 1
1 8 5 339.953 316.426 1
-1 8 -6 5203.31 568.987 1
-1 8 -7 3807.3 574.146 1
-1 8 -8 284.219 569.977 1
1 8 9 7511.68 713.658 1
-1 8 -10 292.433 609.865 1
-1 9 10 1693.91 649.233 1
-1 9 9 3650.34 664.572 1
1 9 -8 877.371 597.772 1
-1 9 7 940.147 578.747 1
1 9 -6 1507.82 532.695 1
1 -9 4 7163.35 1085.54 -2
1 9 -5 7163.35 1085.54 1
1 -9 3 1576.95 909.097 -2
1 9 -4 1576.95 909.097 1
1 9 -3 3057.59 423.78 1
1 -9 2 3163.31 915.896 -2
1 9 -3 3163.31 915.896 1
1 9 -2 3564.51 349.916 1
1 -9 1 4177.31 892.252 -2
1 9 -2 4177.31 892.252 1
1 9 -1 7098.39 410.425 1
1 -9 0 11219.8 950.757 -2
1 9 -1 11219.8 950.757 1
1 9 0 10226.3 656.715 1
1 -9 -1 10962.3 888.685 -2
1 9 0 10962.3 888.685 1
-1 9 -1 3871.69 307.3 1
-1 9 -2 1642.65 266.83 1
1 -9 -3 2455.14 634.891 -2
1 9 2 2455.14 634.891 1
1 9 3 450.549 444.811 1
1 -9 -4 867.052 661.731 -2
1 9 3 867.052 661.731 1
-1 9 -4 5503.82 557.879 1
1 -9 -5 6879.8 731.989 -2
1 9 4 6879.8 731.989 1
1 9 5 1361.28 360.558 1
-1 9 -6 2041.19 562.386 1
-1 9 -7 406.413 543.249 1
-1 9 -8 3476.26 645.77 1
-1 9 -9 70.3376 631.474 1
-1 10 9 496.024 786.861 1
1 -10 8 1089.91 1294.38 -2
1 10 -9 1089.91 1294.38 1
1 10 -8 842.821 619.507 1
1 10 -7 409.457 588.845 1
-1 10 6 5391.92 852.077 1
1 -10 5 8038.84 1294.65 -2
1 10 -6 8038.84 1294.65 1
-1 10 5 707.573 679.923 1
1 -10 4 275.763 1055.87 -2
1 10 -5 275.763 1055.87 1
-1 10 4 6072.6 688.886 1
1 -10 3 12077.3 1185.4 -2
1 10 -4 12077.3 1185.4 1
-1 10 3 3065.45 553.3 1
1 -10 2 6882.17 1058.22 -2
1 10 -3 6882.17 1058.22 1
-1 10 2 3474.61 569.088 1
1 -10 1 7976.28 1023.32 -2
1 10 -2 7976.28 1023.32 1
1 10 -1 3607.28 370.357 1
1 -10 0 6249.56 941.53 -2
1 10 -1 6249.56 941.53 1
1 10 0 4025.54 384.525 1
1 -10 -1 6756.58 919.383 -2
1 10 0 6756.58 919.383 1
1 10 1 16057.1 654.43 1
1 -10 -2 18346.3 1051.92 -2
1 10 1 18346.3 1051.92 1
1 10 2 8285.58 585.062 1
-1 10 -3 13091.3 682.763 1
1 -10 -4 13328 912.677 -2
1 10 3 13328 912.677 1
-1 10 -4 80.2275 503.406 1
1 -10 -5 265.118 685.916 -2
1 10 4 265.118 685.916 1
1 10 5 3110.15 579.088 1
-1 10 -6 964.853 583.307 1
-1 10 -7 7949.92 720.857 1
-1 10 -8 879.165 609.204 1
-1 11 7 1536.45 847.195 1
1 -11 6 3539.09 1249.94 -2
1 11 -7 3539.09 1249.94 1
-1 11 6 310.22 780.729 1
1 -11 5 928.31 1149.66 -2
1 11 -6 928.31 1149.66 1
-1 11 5 3355.86 735.777 1
1 -11 4 4493.21 1196.09 -2
1 11 -5 4493.21 1196.09 1
-1 11 4 2752.52 614.307 1
1 -11 3 5837.29 1202.14 -2
1 11 -4 5837.29 1202.14 1
-1 11 3 1832.16 557.967 1
1 -11 2 4757.67 1108.72 -2
1 11 -3 4757.67 1108.72 1
-1 11 2 2360.47 586.649 1
1 -11 1 3103.1 1012.37 -2
1 11 -2 3103.1 1012.37 1
-1 11 1 962.976 720.075 1
1 -11 0 1758.3 938.222 -2
1 11 -1 1758.3 938.222 1
-1 11 0 3298.88 457.819 1
1 -11 -1 3658.43 933.897 -2
1 11 0 3658.43 933.897 1
-1 11 -1 1676.12 462.724 1
1 -11 -2 2541.96 880.54 -2
1 11 1 2541.96 880.54 1
-1 11 -2 4459.65 553.082 1
1 -11 -3 4528.84 837.372 -2
1 11 2 4528.84 837.372 1
-1 11 -3 2934.4 563.02 1
1 -11 -4 4012.03 767.14 -2
1 11 3 4012.03 767.14 1
-1 11 -4 1518.98 541.422 1
-1 11 -5 9.07923 551.529 1
-1 11 -6 656.153 602.96 1
-1 12 4 500.738 402.081 1
1 -12 3 1210.07 1204.9 -2
1 12 -4 1210.07 1204.9 1
-1 12 3 1199.39 700.855 1
1 -12 2 834.916 1114.76 -2
1 12 -3 834.916 1114.76 1
-1 12 2 708.325 766.702 1
1 -12 1 3230.37 1098.18 -2
1 12 -2 3230.37 1098.18 1
-1 12 1 981.743 793.286 1
1 -12 0 2028.62 1054.45 -2
1 12 -1 2028.62 1054.45 1
-1 12 0 513.618 778.013 1
1 -12 -1 432.978 1022.83 -2
1 12 0 432.978 1022.83 1
-1 12 -1 4017.32 885.111 1
1 -12 -2 4590.82 1024.22 -2
1 12 1 4590.82 1024.22 1
-1 12 -2 575.979 517.575 1
1 -12 -3 1656.16 889.721 -2
1 12 2 1656.16 889.721 1
-1 12 -3 2183.36 576.54 1
2 -12 -1 3517.69 1140.52 1
2 -12 0 1050.34 909.574 1
-2 -11 6 3102.39 757.371 1
2 11 5 4242.16 1336.24 -2
2 -11 -6 4242.16 1336.24 1
2 11 4 860.577 1223.68 -2
2 -11 -5 860.577 1223.68 1
2 11 3 3729.91 1418.65 -2
2 -11 -4 3729.91 1418.65 1
2 11 2 1004.63 1274.62 -2
2 -11 -3 1004.63 1274.62 1
2 11 1 2513.86 1360.73 -2
2 -11 -2 2513.86 1360.73 1
2 11 0 1758.45 1261.66 -2
2 -11 -1 1758.45 1261.66 1
2 11 -1 7499.12 1498.44 -2
2 -11 0 7499.12 1498.44 1
2 11 -2 1736.89 1315.96 -2
2 -11 1 1736.89 1315.96 1
2 11 -3 3708.35 809.085 -2
2 -11 2 3708.35 809.085 1
2 11 -4 1819.5 745.742 -2
2 -11 3 1819.5 745.742 1
2 11 -5 2327.57 1071.71 -2
2 -11 4 2327.57 1071.71 1
2 11 -6 2857.94 1112.75 -2
2 -11 5 2857.94 1112.75 1
-2 10 -7 2000.15 638.772 -2
-2 -10 8 2000.15 638.772 1
-2 10 -6 6326.93 661.578 -2
-2 -10 7 6326.93 661.578 1
2 10 5 388.751 497.776 -2
2 -10 -6 388.751 497.776 1
2 10 4 5482.41 596.777 -2
2 -10 -5 5482.41 596.777 1
-2 10 -3 1190.4 511.326 -2
-2 -10 4 1190.4 511.326 1
-2 10 -2 5875.74 520.328 -2
-2 -10 3 5875.74 520.328 1
2 10 1 3450.95 652.226 -2
2 -10 -2 3450.95 652.226 1
2 10 0 4117.92 1240.12 -2
2 -10 -1 4117.92 1240.12 1
2 10 -1 2922.24 1249.95 -2
2 -10 0 2922.24 1249.95 1
2 10 -2 9538.64 1423.23 -2
2 -10 1 9538.64 1423.23 1
2 10 -3 5997.37 778.928 -2
2 -10 2 5997.37 778.928 1
2 10 -4 2483.84 758.196 -2
2 -10 3 2483.84 758.196 1
2 10 -5 2724.81 775.944 -2
2 -10 4 2724.81 775.944 1
2 10 -6 263.425 992.851 -2
2 -10 5 263.425 992.851 1
2 10 -7 3748.25 1162.36 -2
2 -10 6 3748.25 1162.36 1
2 10 -8 3013.79 1156.97 -2
2 -10 7 3013.79 1156.97 1
-2 9 -8 1568.66 630.079 -2
-2 -9 9 1568.66 630.079 1
2 9 7 7156.96 674.746 -2
2 -9 -8 7156.96 674.746 1
2 9 6 1581.6 568.307 -2
2 -9 -7 1581.6 568.307 1
2 9 5 11522.3 665.679 -2
2 -9 -6 11522.3 665.679 1
2 9 4 3719.78 551.044 -2
2 -9 -5 3719.78 551.044 1
2 9 3 2045.78 495.346 -2
2 -9 -4 2045.78 495.346 1
2 9 2 1669.83 447.485 -2
2 -9 -3 1669.83 447.485 1
2 9 1 8642.26 472.686 -2
2 -9 -2 8642.26 472.686 1
2 9 0 5542.58 409.23 -2
2 -9 -1 5542.58 409.23 1
2 9 -1 18311.1 714.569 -2
2 -9 0 18311.1 714.569 1
2 9 -2 4095.68 416.957 -2
2 -9 1 4095.68 416.957 1
2 9 -3 4610.11 710.845 -2
2 -9 2 4610.11 710.845 1
2 9 -4 1389.42 660.706 -2
2 -9 3 1389.42 660.706 1
2 9 -5 14043.2 1350.8 -2
2 -9 4 14043.2 1350.8 1
2 9 -6 8974.09 849.221 -2
2 -9 5 8974.09 849.221 1
2 9 -7 3996.45 777.106 -2
2 -9 6 3996.45 777.106 1
2 9 -8 8501.42 1203.38 -2
2 -9 7 8501.42 1203.38 1
2 9 -9 2931.69 1143.27 -2
2 -9 8 2931.69 1143.27 1
2 -8 -11 2544.11 624.69 1
2 8 9 -125.783 757.563 -2
2 -8 -10 -125.783 757.563 1
2 8 8 4247.41 632.736 -2
2 -8 -9 4247.41 632.736 1
2 8 7 1299.09 564.928 -2
2 -8 -8 1299.09 564.928 1
2 8 6 9533.66 637.518 -2
2 -8 -7 9533.66 637.518 1
2 8 5 1754.21 526.38 -2
2 -8 -6 1754.21 526.38 1
-2 8 -4 3284.31 519.693 -2
-2 -8 5 3284.31 519.693 1
2 8 3 1634 466.942 -2
2 -8 -4 1634 466.942 1
2 8 2 2690.82 449.822 -2
2 -8 -3 2690.82 449.822 1
2 8 1 2437.63 416.273 -2
2 -8 -2 2437.63 416.273 1
2 8 0 8461.01 611.86 -2
2 -8 -1 8461.01 611.86 1
2 8 -1 8069.68 436.457 -2
2 -8 0 8069.68 436.457 1
2 8 -2 7397.43 679.907 -2
2 -8 1 7397.43 679.907 1
2 8 -3 3607.61 357.517 -2
2 -8 2 3607.61 357.517 1
2 8 -4 3234.74 623.38 -2
2 -8 3 3234.74 623.38 1
2 8 -5 2684.23 645.128 -2
2 -8 4 2684.23 645.128 1
2 8 -6 3701.95 705.503 -2
2 -8 5 3701.95 705.503 1
2 8 -7 4311.03 727.531 -2
2 -8 6 4311.03 727.531 1
2 8 -8 3137.83 1054.42 -2
2 -8 7 3137.83 1054.42 1
2 8 -9 3556.24 1101.67 -2
2 -8 8 3556.24 1101.67 1
2 8 -10 1005.18 1090.93 -2
2 -8 9 1005.18 1090.93 1
2 -7 -12 1248.46 888.456 1
2 7 10 494.65 769.459 -2
2 -7 -11 494.65 769.459 1
-2 7 -9 3526.81 783.99 -2
-2 -7 10 3526.81 783.99 1
2 7 8 1064.27 534.177 -2
2 -7 -9 1064.27 534.177 1
2 7 7 11131.1 649.07 -2
2 -7 -8 11131.1 649.07 1
2 7 6 2203.37 521.442 -2
2 -7 -7 2203.37 521.442 1
2 7 5 20336.5 707.674 -2
2 -7 -6 20336.5 707.674 1
-2 7 -4 4159.88 521.551 -2
-2 -7 5 4159.88 521.551 1
-2 7 -3 8570.32 542.329 -2
-2 -7 4 8570.32 542.329 1
2 7 2 2914.55 451.234 -2
2 -7 -3 2914.55 451.234 1
2 7 1 24234 631.406 -2
2 -7 -2 24234 631.406 1
2 7 0 8936.34 529.257 -2
2 -7 -1 8936.34 529.257 1
2 7 -1 28913.2 804.961 -2
2 -7 0 28913.2 804.961 1
2 7 -2 23420.4 595.765 -2
2 -7 1 23420.4 595.765 1
-2 -7 -2 8554.37 212.123 1
2 7 -3 8932.39 972.818 -2
2 -7 2 8932.39 972.818 1
2 7 -4 7461.08 678.548 -2
2 -7 3 7461.08 678.548 1
2 7 -5 9515.81 716.061 -2
2 -7 4 9515.81 716.061 1
2 7 -6 8379.38 707.738 -2
2 -7 5 8379.38 707.738 1
2 7 -7 3574.65 648.17 -2
2 -7 6 3574.65 648.17 1
2 7 -8 6245.09 716.529 -2
2 -7 7 6245.09 716.529 1
2 7 -9 1794.75 1049.91 -2
2 -7 8 1794.75 1049.91 1
2 7 -10 4068.75 1199.95 -2
2 -7 9 4068.75 1199.95 1
2 7 -11 2133.62 1214.05 -2
2 -7 10 2133.62 1214.05 1
-2 6 -11 1876.65 786.561 -2
-2 -6 12 1876.65 786.561 1
-2 6 -10 4395.84 803.327 -2
-2 -6 11 4395.84 803.327 1
2 6 9 3178.72 543.462 -2
2 -6 -10 3178.72 543.462 1
-2 6 -8 7515.37 596.013 -2
-2 -6 9 7515.37 596.013 1
2 6 7 3543.28 532.017 -2
2 -6 -8 3543.28 532.017 1
2 6 6 8358.89 579.406 -2
2 -6 -7 8358.89 579.406 1
2 6 5 3661.75 511.933 -2
2 -6 -6 3661.75 511.933 1
2 6 4 10681.7 573.033 -2
2 -6 -5 10681.7 573.033 1
2 6 3 2301.07 438.832 -2
2 -6 -4 2301.07 438.832 1
2 6 2 10031.8 509.838 -2
2 -6 -3 10031.8 509.838 1
2 6 1 4350.83 423.834 -2
2 -6 -2 4350.83 423.834 1
2 6 0 12014.8 958.187 -2
2 -6 -1 12014.8 958.187 1
2 6 -1 3961.78 473.989 -2
2 -6 0 3961.78 473.989 1
2 6 -2 11436.5 446.43 -2
2 -6 1 11436.5 446.43 1
2 6 -3 6548.25 241.69 -2
2 -6 2 6548.25 241.69 1
2 6 -4 9925.49 372.099 -2
2 -6 3 9925.49 372.099 1
2 6 -5 7668.01 622.32 -2
2 -6 4 7668.01 622.32 1
2 6 -6 10892.8 704.149 -2
2 -6 5 10892.8 704.149 1
2 6 -7 5525.65 639.032 -2
2 -6 6 5525.65 639.032 1
2 6 -8 4365.32 626.676 -2
2 -6 7 4365.32 626.676 1
2 6 -9 7228.59 667.879 -2
2 -6 8 7228.59 667.879 1
2 6 -10 4313.69 1138.99 -2
2 -6 9 4313.69 1138.99 1
2 6 -11 1293.29 1137.87 -2
2 -6 10 1293.29 1137.87 1
2 6 -12 1465.55 1170.86 -2
2 -6 11 1465.55 1170.86 1
-2 5 -12 1624.46 825.027 -2
-2 -5 13 1624.46 825.027 1
-2 5 -11 3789.63 806.277 -2
-2 -5 12 3789.63 806.277 1
-2 5 -10 2164.95 750.961 -2
-2 -5 11 2164.95 750.961 1
-2 5 -9 5285.81 534.045 -2
-2 -5 10 5285.81 534.045 1
2 5 8 2034.87 493.587 -2
2 -5 -9 2034.87 493.587 1
2 5 7 9935.22 581.974 -2
2 -5 -8 9935.22 581.974 1
-2 5 -6 3530.29 507.612 -2
-2 -5 7 3530.29 507.612 1
2 5 5 12799.8 580.72 -2
2 -5 -6 12799.8 580.72 1
-2 5 -4 6585.2 488.733 -2
-2 -5 5 6585.2 488.733 1
2 5 3 6954.25 583.125 -2
2 -5 -4 6954.25 583.125 1
2 5 2 10496.2 589.776 -2
2 -5 -3 10496.2 589.776 1
2 5 1 11545.4 612.361 -2
2 -5 -2 11545.4 612.361 1
2 5 0 5646.66 495.406 -2
2 -5 -1 5646.66 495.406 1
2 5 -1 16290.8 580.409 -2
2 -5 0 16290.8 580.409 1
2 5 -2 9878.34 411.602 -2
2 -5 1 9878.34 411.602 1
2 5 -3 25766.6 791.001 -2
2 -5 2 25766.6 791.001 1
-2 -5 -3 264.609 147.23 1
2 5 -4 2222.3 274.717 -2
2 -5 3 2222.3 274.717 1
2 5 -5 19141.1 392.878 -2
2 -5 4 19141.1 392.878 1
2 5 -6 8191.96 264.37 -2
2 -5 5 8191.96 264.37 1
2 5 -7 9132.32 624.87 -2
2 -5 6 9132.32 624.87 1
2 5 -9 3386.56 545.435 -2
2 -5 8 3386.56 545.435 1
2 5 -10 8716.8 1171.67 -2
2 -5 9 8716.8 1171.67 1
2 5 -11 4634.6 1142.82 -2
2 -5 10 4634.6 1142.82 1
2 5 -12 3470.1 1187.14 -2
2 -5 11 3470.1 1187.14 1
2 5 -13 2291.21 1222.76 -2
2 -5 12 2291.21 1222.76 1
-2 4 -12 2121 817.289 -2
-2 -4 13 2121 817.289 1
-2 4 -11 2371.49 771.42 -2
-2 -4 12 2371.49 771.42 1
-2 4 -10 6375.4 798.82 -2
-2 -4 11 6375.4 798.82 1
-2 4 -9 1688.27 464.662 -2
-2 -4 10 1688.27 464.662 1
2 4 8 12416.9 684.227 -2
2 -4 -9 12416.9 684.227 1
2 4 7 10386.2 562.481 -2
2 -4 -8 10386.2 562.481 1
2 4 6 11804.5 660.344 -2
2 -4 -7 11804.5 660.344 1
2 4 5 3852.52 536.368 -2
2 -4 -6 3852.52 536.368 1
2 4 4 29264.1 794.975 -2
2 -4 -5 29264.1 794.975 1
2 4 3 14227.2 627.624 -2
2 -4 -4 14227.2 627.624 1
2 4 2 87196 1494.63 -2
2 -4 -3 87196 1494.63 1
2 4 1 9669.18 551.113 -2
2 -4 -2 9669.18 551.113 1
2 4 0 23893.1 660.999 -2
2 -4 -1 23893.1 660.999 1
2 4 -1 13778.7 400.561 -2
2 -4 0 13778.7 400.561 1
2 4 -2 23478.8 394.529 -2
2 -4 1 23478.8 394.529 1
2 4 -3 33139.6 441.673 -2
2 -4 2 33139.6 441.673 1
2 4 -4 11955.4 264.831 -2
2 -4 3 11955.4 264.831 1
2 4 -5 15155.6 261.185 -2
2 -4 4 15155.6 261.185 1
-2 4 6 5851.73 266.842 -2
-2 -4 -5 5851.73 266.842 1
2 4 -7 9656.97 554.795 -2
2 -4 6 9656.97 554.795 1
2 4 -8 13765.7 1090.34 -2
2 -4 7 13765.7 1090.34 1
2 4 -9 5816.82 532.858 -2
2 -4 8 5816.82 532.858 1
2 4 -10 4732.44 1080.6 -2
2 -4 9 4732.44 1080.6 1
2 4 -11 6229.64 1180.53 -2
2 -4 10 6229.64 1180.53 1
2 4 -12 4760.33 1210.51 -2
2 -4 11 4760.33 1210.51 1
2 4 -13 3117.29 1170.47 -2
2 -4 12 3117.29 1170.47 1
-2 -3 14 3682.35 650.479 1
-2 3 -12 931.902 745.57 -2
-2 -3 13 931.902 745.57 1
-2 3 -11 4853.52 787.467 -2
-2 -3 12 4853.52 787.467 1
-2 3 -10 847.01 676.945 -2
-2 -3 11 847.01 676.945 1
2 3 9 6429.55 499.375 -2
2 -3 -10 6429.55 499.375 1
2 3 8 373.078 418.466 -2
2 -3 -9 373.078 418.466 1
2 3 7 13403.7 1034.07 -2
2 -3 -8 13403.7 1034.07 1
2 3 6 3780.95 826.657 -2
2 -3 -7 3780.95 826.657 1
2 3 5 13256.6 904.117 -2
2 -3 -6 13256.6 904.117 1
2 3 4 11638.3 813.564 -2
2 -3 -5 11638.3 813.564 1
2 3 3 19743.9 559.09 -2
2 -3 -4 19743.9 559.09 1
-2 3 -2 8621.08 452.864 -2
-2 -3 3 8621.08 452.864 1
-2 3 -1 33295.3 626.504 -2
-2 -3 2 33295.3 626.504 1
-2 3 0 9989.83 453.906 -2
-2 -3 1 9989.83 453.906 1
-2 3 1 24852.5 532.693 -2
-2 -3 0 24852.5 532.693 1
-2 3 2 12425.4 408.09 -2
-2 -3 -1 12425.4 408.09 1
-2 3 3 27561.1 348.95 -2
-2 -3 -2 27561.1 348.95 1
-2 3 4 12044.6 218.771 -2
-2 -3 -3 12044.6 218.771 1
2 3 -5 35569.2 438.983 -2
2 -3 4 35569.2 438.983 1
-2 3 6 14832.8 351.15 -2
-2 -3 -5 14832.8 351.15 1
2 3 -7 8807.24 331.233 -2
2 -3 6 8807.24 331.233 1
2 3 -8 11442.4 307.269 -2
2 -3 7 11442.4 307.269 1
2 3 -9 976.799 308.517 -2
2 -3 8 976.799 308.517 1
2 3 -10 8691.38 1081.65 -2
2 -3 9 8691.38 1081.65 1
2 3 -11 3066.55 1009.52 -2
2 -3 10 3066.55 1009.52 1
2 3 -12 4873.35 1118.04 -2
2 -3 11 4873.35 1118.04 1
2 3 -13 834.911 1072.29 -2
2 -3 12 834.911 1072.29 1
-2 2 -13 1489.18 771.212 -2
-2 -2 14 1489.18 771.212 1
-2 2 -12 3945.02 790.366 -2
-2 -2 13 3945.02 790.366 1
-2 2 -11 3311.25 752.17 -2
-2 -2 12 3311.25 752.17 1
-2 2 -10 15099.8 1239.93 -2
-2 -2 11 15099.8 1239.93 1
-2 2 -9 2290.56 657.946 -2
-2 -2 10 2290.56 657.946 1
2 2 8 19353.3 1126.82 -2
2 -2 -9 19353.3 1126.82 1
2 2 7 6173.51 828.017 -2
2 -2 -8 6173.51 828.017 1
2 2 6 8934.03 817.544 -2
2 -2 -7 8934.03 817.544 1
2 2 5 12060.5 842.514 -2
2 -2 -6 12060.5 842.514 1
2 2 4 30316 990.149 -2
2 -2 -5 30316 990.149 1
-2 2 -3 28238.1 611.018 -2
-2 -2 4 28238.1 611.018 1
2 2 2 64846.5 1120.53 -2
2 -2 -3 64846.5 1120.53 1
-2 2 -1 9942.16 379.871 -2
-2 -2 2 9942.16 379.871 1
-2 2 0 33940.7 495.776 -2
-2 -2 1 33940.7 495.776 1
-2 2 1 10989.8 447.175 -2
-2 -2 0 10989.8 447.175 1
-2 2 2 6101.56 381.543 -2
-2 -2 -1 6101.56 381.543 1
-2 2 3 24256.1 340.988 -2
-2 -2 -2 24256.1 340.988 1
2 2 -4 17845.8 372.357 -2
2 -2 3 17845.8 372.357 1
2 2 -5 13184 347.914 -2
2 -2 4 13184 347.914 1
2 2 -6 21557.4 353.792 -2
2 -2 5 21557.4 353.792 1
2 2 -7 3885.47 256.921 -2
2 -2 6 3885.47 256.921 1
2 2 -8 16376.4 501.98 -2
2 -2 7 16376.4 501.98 1
2 2 -9 15580 1013.85 -2
2 -2 8 15580 1013.85 1
2 2 -10 5369.24 563.316 -2
2 -2 9 5369.24 563.316 1
2 2 -11 12948.1 1174.96 -2
2 -2 10 12948.1 1174.96 1
2 2 -12 2614.1 1049.79 -2
2 -2 11 2614.1 1049.79 1
2 2 -13 4195.49 1144.62 -2
2 -2 12 4195.49 1144.62 1
2 2 -14 1808.47 1055.6 -2
2 -2 13 1808.47 1055.6 1
-2 1 -13 1628.75 738.896 -2
-2 -1 14 1628.75 738.896 1
-2 1 -12 2469.82 745.264 -2
-2 -1 13 2469.82 745.264 1
-2 1 -11 9098 783.604 -2
-2 -1 12 9098 783.604 1
-2 1 -10 2197.78 683.025 -2
-2 -1 11 2197.78 683.025 1
2 1 9 4627.59 931.075 -2
2 -1 -10 4627.59 931.075 1
2 1 8 1070.89 783.985 -2
2 -1 -9 1070.89 783.985 1
2 1 7 9511.49 856.818 -2
2 -1 -8 9511.49 856.818 1
2 1 6 6828.84 779.47 -2
2 -1 -7 6828.84 779.47 1
2 1 5 15009 822.863 -2
2 -1 -6 15009 822.863 1
2 1 4 8429.98 687.826 -2
2 -1 -5 8429.98 687.826 1
2 1 3 37388.2 995.38 -2
2 -1 -4 37388.2 995.38 1
-2 1 -2 7223 441.415 -2
-2 -1 3 7223 441.415 1
2 1 1 63831.8 1089.2 -2
2 -1 -2 63831.8 1089.2 1
2 1 0 18970.5 514.602 -2
2 -1 -1 18970.5 514.602 1
-2 1 1 26886.3 459.259 -2
-2 -1 0 26886.3 459.259 1
-2 1 2 74239.5 789.338 -2
-2 -1 -1 74239.5 789.338 1
-2 -1 -2 27140.1 613.29 1
2 1 -3 25731.5 588.754 -2
2 -1 2 25731.5 588.754 1
2 1 -4 19563 401.358 -2
2 -1 3 19563 401.358 1
-2 1 5 31191.8 467.23 -2
-2 -1 -4 31191.8 467.23 1
2 1 -6 4576.11 442.421 -2
2 -1 5 4576.11 442.421 1
2 1 -7 16717.4 474.649 -2
2 -1 6 16717.4 474.649 1
2 1 -8 13840.5 373.64 -2
2 -1 7 13840.5 373.64 1
2 1 -9 1453.87 255.174 -2
2 -1 8 1453.87 255.174 1
2 1 -10 7810.06 595.487 -2
2 -1 9 7810.06 595.487 1
2 1 -11 4888.19 610.012 -2
2 -1 10 4888.19 610.012 1
2 1 -12 8324.06 690.944 -2
2 -1 11 8324.06 690.944 1
2 1 -13 3342.87 1022.87 -2
2 -1 12 3342.87 1022.87 1
2 1 -14 3240.97 1006.95 -2
2 -1 13 3240.97 1006.95 1
-2 0 -13 3829.81 756.144 -2
-2 0 14 3829.81 756.144 1
-2 0 -12 1206.16 702.376 -2
-2 0 13 1206.16 702.376 1
-2 0 -11 1626.84 648.094 -2
-2 0 12 1626.84 648.094 1
2 0 10 23578.1 1258.15 -2
2 0 -11 23578.1 1258.15 1
2 0 9 10264.4 949.36 -2
2 0 -10 10264.4 949.36 1
2 0 8 13589.1 932.209 -2
2 0 -9 13589.1 932.209 1
2 0 7 5069.33 715.572 -2
2 0 -8 5069.33 715.572 1
2 0 6 974.082 638.958 -2
2 0 -7 974.082 638.958 1
2 0 5 14114.1 776.995 -2
2 0 -6 14114.1 776.995 1
2 0 4 48993.9 1064.41 -2
2 0 -5 48993.9 1064.41 1
2 0 3 11006.4 717.316 -2
2 0 -4 11006.4 717.316 1
2 0 2 63282.4 1088.79 -2
2 0 -3 63282.4 1088.79 1
2 0 -2 2459.49 466.787 1
-2 0 -1 2878.27 557.775 -2
-2 0 2 2878.27 557.775 1
2 0 -1 56235.5 963.349 1
2 0 0 56306.8 1091.32 -2
2 0 -1 56306.8 1091.32 1
2 0 -1 18896.3 522.184 -2
2 0 0 18896.3 522.184 1
2 0 -2 1258 306.225 -2
2 0 1 1258 306.225 1
-2 0 3 17425.4 393.128 -2
-2 0 -2 17425.4 393.128 1
2 0 -4 32482.1 479.269 -2
2 0 3 32482.1 479.269 1
2 0 -5 21815.6 578.536 -2
2 0 4 21815.6 578.536 1
2 0 -6 40939.9 737.123 -2
2 0 5 40939.9 737.123 1
2 0 -7 2444.3 248.81 -2
2 0 6 2444.3 248.81 1
2 0 -8 6394.72 304.372 -2
2 0 7 6394.72 304.372 1
-2 0 9 10459.9 406.73 -2
-2 0 -8 10459.9 406.73 1
2 0 -10 15857.8 704.045 -2
2 0 9 15857.8 704.045 1
2 0 -11 9497.1 678.65 -2
2 0 10 9497.1 678.65 1
2 0 -12 757.237 609.07 -2
2 0 11 757.237 609.07 1
2 0 -13 3361.68 656.847 -2
2 0 12 3361.68 656.847 1
2 0 -14 1470.97 939.077 -2
2 0 13 1470.97 939.077 1
-2 -1 -13 2144.96 956.09 -2
-2 1 14 2144.96 956.09 1
-2 -1 -12 1894.22 654.007 -2
-2 1 13 1894.22 654.007 1
-2 -1 -11 7867.87 722.552 -2
-2 1 12 7867.87 722.552 1
2 -1 10 2894.9 855.561 -2
2 1 -11 2894.9 855.561 1
2 -1 9 3823.53 806.266 -2
2 1 -10 3823.53 806.266 1
2 -1 8 1894.39 710.075 -2
2 1 -9 1894.39 710.075 1
2 -1 7 8218.78 763.834 -2
2 1 -8 8218.78 763.834 1
2 -1 6 7723.85 694.299 -2
2 1 -7 7723.85 694.299 1
2 -1 5 15341.9 782.004 -2
2 1 -6 15341.9 782.004 1
2 -1 4 10017.8 676.535 -2
2 1 -5 10017.8 676.535 1
2 1 -4 37989.1 894.178 1
2 -1 2 8712.52 692.464 -2
2 1 -3 8712.52 692.464 1
2 1 -2 51043.5 940.792 1
-2 -1 -1 70170.5 656.62 -2
-2 1 2 70170.5 656.62 1
2 -1 0 21214.6 790.899 -2
2 1 -1 21214.6 790.899 1
-2 1 0 19948.3 613.874 1
2 -1 -1 22875.3 546.889 -2
2 1 0 22875.3 546.889 1
-2 -1 2 76458.9 792.668 -2
-2 1 -1 76458.9 792.668 1
2 -1 -3 22742.2 532.373 -2
2 1 2 22742.2 532.373 1
2 -1 -4 19821.2 519.159 -2
2 1 3 19821.2 519.159 1
2 -1 -5 29699.8 616.405 -2
2 1 4 29699.8 616.405 1
2 -1 -6 5742.04 430.779 -2
2 1 5 5742.04 430.779 1
2 -1 -7 13905.1 381.27 -2
2 1 6 13905.1 381.27 1
-2 -1 8 13973.4 402.089 -2
-2 1 -7 13973.4 402.089 1
-2 -1 9 1139.25 312.943 -2
-2 1 -8 1139.25 312.943 1
-2 -1 10 7081.13 408.272 -2
-2 1 -9 7081.13 408.272 1
2 -1 -11 4705.61 607.397 -2
2 1 10 4705.61 607.397 1
2 -1 -12 8173.71 994.11 -2
2 1 11 8173.71 994.11 1
2 -1 -13 2965.42 638.791 -2
2 1 12 2965.42 638.791 1
2 -1 -14 1079.86 963.689 -2
2 1 13 1079.86 963.689 1
-2 -2 -13 2224.97 979.14 -2
-2 2 14 2224.97 979.14 1
-2 -2 -12 5816.98 1005.55 -2
-2 2 13 5816.98 1005.55 1
2 -2 11 2916.12 916.348 -2
2 2 -12 2916.12 916.348 1
2 -2 10 17224.2 1055.19 -2
2 2 -11 17224.2 1055.19 1
2 -2 9 2281.57 760.732 -2
2 2 -10 2281.57 760.732 1
2 -2 8 18208.6 919.26 -2
2 2 -9 18208.6 919.26 1
2 -2 7 6375.56 672.82 -2
2 2 -8 6375.56 672.82 1
2 -2 6 8571.59 669.881 -2
2 2 -7 8571.59 669.881 1
2 -2 5 12615 704.606 -2
2 2 -6 12615 704.606 1
2 -2 4 31651 878.642 -2
2 2 -5 31651 878.642 1
2 -2 3 28980.2 874.641 -2
2 2 -4 28980.2 874.641 1
2 -2 2 67058.2 1142.03 -2
2 2 -3 67058.2 1142.03 1
2 -2 1 9470.79 697.71 -2
2 2 -2 9470.79 697.71 1
2 -2 0 35036.9 610.094 -2
2 2 -1 35036.9 610.094 1
2 -2 -1 11639.7 757.008 -2
2 2 0 11639.7 757.008 1
2 -2 -2 5875.11 707.962 -2
2 2 1 5875.11 707.962 1
2 -2 -3 24875.5 911.991 -2
2 2 2 24875.5 911.991 1
-2 -2 4 17604.8 491.054 -2
-2 2 -3 17604.8 491.054 1
2 -2 -5 13130.6 459.158 -2
2 2 4 13130.6 459.158 1
2 -2 -6 26393.1 596.535 -2
2 2 5 26393.1 596.535 1
2 -2 -7 4008.26 410.274 -2
2 2 6 4008.26 410.274 1
-2 -2 8 17203 446.796 -2
-2 2 -7 17203 446.796 1
-2 -2 9 16933.7 532.122 -2
-2 2 -8 16933.7 532.122 1
-2 -2 10 7036.32 425.06 -2
-2 2 -9 7036.32 425.06 1
2 -2 -11 13255.3 843.127 -2
2 2 10 13255.3 843.127 1
2 -2 -12 2292.72 601.033 -2
2 2 11 2292.72 601.033 1
2 -2 -13 2663.03 1035.72 -2
2 2 12 2663.03 1035.72 1
2 -2 -14 1339.63 1021 -2
2 2 13 1339.63 1021 1
-2 3 14 3610.65 849.129 1
-2 -3 -12 1867.7 904.201 -2
-2 3 13 1867.7 904.201 1
2 -3 10 1179.28 721.727 -2
2 3 -11 1179.28 721.727 1
2 -3 9 6283.12 728.515 -2
2 3 -10 6283.12 728.515 1
2 -3 8 699.829 597.14 -2
2 3 -9 699.829 597.14 1
2 -3 7 14242.7 756.135 -2
2 3 -8 14242.7 756.135 1
2 -3 6 4299.3 588.638 -2
2 3 -7 4299.3 588.638 1
2 -3 5 16461 725.044 -2
2 3 -6 16461 725.044 1
2 -3 4 14496.7 722.136 -2
2 3 -5 14496.7 722.136 1
2 3 -4 20670.3 706.428 1
2 -3 2 11856.2 679.581 -2
2 3 -3 11856.2 679.581 1
2 -3 1 35082.9 937.899 -2
2 3 -2 35082.9 937.899 1
2 -3 0 10947.1 723.648 -2
2 3 -1 10947.1 723.648 1
2 -3 -1 24896.3 947.377 -2
2 3 0 24896.3 947.377 1
2 -3 -2 12207.5 811.878 -2
2 3 1 12207.5 811.878 1
2 -3 -3 22395.8 929.345 -2
2 3 2 22395.8 929.345 1
2 -3 -4 11410 795.691 -2
2 3 3 11410 795.691 1
-2 -3 5 36194.7 626.933 -2
-2 3 -4 36194.7 626.933 1
-2 -3 6 14257.8 448.11 -2
-2 3 -5 14257.8 448.11 1
2 -3 -7 9909.57 888.536 -2
2 3 6 9909.57 888.536 1
-2 -3 8 10601.9 402.138 -2
-2 3 -7 10601.9 402.138 1
-2 -3 9 808.35 314.637 -2
-2 3 -8 808.35 314.637 1
-2 -3 10 9493.26 441.465 -2
-2 3 -9 9493.26 441.465 1
-2 -3 11 1444.57 535.046 -2
-2 3 -10 1444.57 535.046 1
2 -3 -12 3588.57 1045.06 -2
2 3 11 3588.57 1045.06 1
2 -3 -13 991.894 1025.71 -2
2 3 12 991.894 1025.71 1
2 -4 9 1070.2 625.807 -2
2 4 -10 1070.2 625.807 1
2 -4 8 15790.5 803.607 -2
2 4 -9 15790.5 803.607 1
2 -4 7 10648 703.753 -2
2 4 -8 10648 703.753 1
2 -4 6 14764 732.482 -2
2 4 -7 14764 732.482 1
2 -4 5 4670.54 570.045 -2
2 4 -6 4670.54 570.045 1
2 -4 4 34652.9 781.946 -2
2 4 -5 34652.9 781.946 1
2 -4 3 16797.8 1075.94 -2
2 4 -4 16797.8 1075.94 1
2 -4 2 103860 1141.85 -2
2 4 -3 103860 1141.85 1
2 -4 1 9466.35 552.907 -2
2 4 -2 9466.35 552.907 1
2 -4 0 28945.6 929.988 -2
2 4 -1 28945.6 929.988 1
2 -4 -1 14156.9 567.303 -2
2 4 0 14156.9 567.303 1
2 -4 -2 23804.5 971.624 -2
2 4 1 23804.5 971.624 1
2 -4 -3 32753.9 629.993 -2
2 4 2 32753.9 629.993 1
2 -4 -4 11802.4 845.783 -2
2 4 3 11802.4 845.783 1
-2 -4 5 15120.5 455.65 -2
-2 4 -4 15120.5 455.65 1
2 -4 -6 8104.18 856.942 -2
2 4 5 8104.18 856.942 1
2 -4 -7 7654.17 928.526 -2
2 4 6 7654.17 928.526 1
-2 -4 8 16077.6 715.152 -2
-2 4 -7 16077.6 715.152 1
-2 -4 9 4187.1 559.382 -2
-2 4 -8 4187.1 559.382 1
-2 -4 10 3683.05 602.771 -2
-2 4 -9 3683.05 602.771 1
-2 -4 11 5217.72 651.592 -2
-2 4 -10 5217.72 651.592 1
2 -4 -12 3904.63 1105.71 -2
2 4 11 3904.63 1105.71 1
2 -4 -13 1650.02 1100.63 -2
2 4 12 1650.02 1100.63 1
2 -5 8 2551.59 582.137 -2
2 5 -9 2551.59 582.137 1
2 -5 7 10185.2 684.326 -2
2 5 -8 10185.2 684.326 1
2 -5 6 3841.39 486.276 -2
2 5 -7 3841.39 486.276 1
2 -5 5 16469.3 640.003 -2
2 5 -6 16469.3 640.003 1
2 -5 4 7341.3 546.902 -2
2 5 -5 7341.3 546.902 1
2 -5 3 8715.53 534.427 -2
2 5 -4 8715.53 534.427 1
2 -5 2 12696.4 577.86 -2
2 5 -3 12696.4 577.86 1
2 -5 1 11437.6 593.233 -2
2 5 -2 11437.6 593.233 1
2 -5 0 6091.05 529.166 -2
2 5 -1 6091.05 529.166 1
2 -5 -1 18015.3 908.205 -2
2 5 0 18015.3 908.205 1
2 -5 -2 10974.6 371.713 -2
2 5 1 10974.6 371.713 1
2 -5 -3 29024 679.159 -2
2 5 2 29024 679.159 1
-2 -5 4 2087.32 348.288 -2
-2 5 -3 2087.32 348.288 1
2 -5 -5 17942.3 1037.8 -2
2 5 4 17942.3 1037.8 1
-2 -5 6 6827.38 349.348 -2
-2 5 -5 6827.38 349.348 1
-2 -5 7 10549.1 654.435 -2
-2 5 -6 10549.1 654.435 1
-2 -5 8 7072.82 644.915 -2
-2 5 -7 7072.82 644.915 1
-2 -5 9 3247.72 611.611 -2
-2 5 -8 3247.72 611.611 1
-2 -5 10 9377.05 743.208 -2
-2 5 -9 9377.05 743.208 1
-2 -5 11 3807.88 688.27 -2
-2 5 -10 3807.88 688.27 1
-2 -5 12 3619.69 715.455 -2
-2 5 -11 3619.69 715.455 1
2 -5 -13 2371.36 1108.62 -2
2 5 12 2371.36 1108.62 1
2 -6 8 11772 1328.33 -2
2 6 -9 11772 1328.33 1
2 -6 7 4012.43 507.698 -2
2 6 -8 4012.43 507.698 1
2 -6 6 10420.2 1227.95 -2
2 6 -7 10420.2 1227.95 1
2 -6 5 5104.29 535.221 -2
2 6 -6 5104.29 535.221 1
2 -6 4 10533.7 1118.24 -2
2 6 -5 10533.7 1118.24 1
2 -6 3 3079.47 504.236 -2
2 6 -4 3079.47 504.236 1
2 -6 2 13073.4 631.527 -2
2 6 -3 13073.4 631.527 1
2 -6 1 4559.31 518.656 -2
2 6 -2 4559.31 518.656 1
2 -6 0 14821.2 663.663 -2
2 6 -1 14821.2 663.663 1
2 -6 -1 4611.01 534.12 -2
2 6 0 4611.01 534.12 1
2 -6 -2 11815.5 398.937 -2
2 6 1 11815.5 398.937 1
2 -6 -3 6431.02 509.06 -2
2 6 2 6431.02 509.06 1
2 -6 -4 9257.74 907.545 -2
2 6 3 9257.74 907.545 1
2 -6 -5 7433.96 907.037 -2
2 6 4 7433.96 907.037 1
2 -6 -6 11362.1 1020.3 -2
2 6 5 11362.1 1020.3 1
-2 -6 7 4949.47 610.504 -2
-2 6 -6 4949.47 610.504 1
-2 -6 8 5186.56 646.513 -2
-2 6 -7 5186.56 646.513 1
-2 -6 9 7557.3 732.782 -2
-2 6 -8 7557.3 732.782 1
-2 -6 10 3176.19 685.827 -2
-2 6 -9 3176.19 685.827 1
-2 -6 11 2185.33 726.239 -2
-2 6 -10 2185.33 726.239 1
-2 -6 12 2991.35 733.083 -2
-2 6 -11 2991.35 733.083 1
2 -7 9 4046.08 1284.78 -2
2 7 -10 4046.08 1284.78 1
2 -7 8 588.128 1218.7 -2
2 7 -9 588.128 1218.7 1
2 -7 7 16448 1436.12 -2
2 7 -8 16448 1436.12 1
2 -7 6 2093.76 480.732 -2
2 7 -7 2093.76 480.732 1
2 -7 5 22197.8 1439.98 -2
2 7 -6 22197.8 1439.98 1
2 -7 4 4511.85 1067.3 -2
2 7 -5 4511.85 1067.3 1
2 -7 3 9477.8 601.443 -2
2 7 -4 9477.8 601.443 1
2 -7 2 3172.95 539.946 -2
2 7 -3 3172.95 539.946 1
2 -7 1 28313.9 825.912 -2
2 7 -2 28313.9 825.912 1
2 -7 0 10327.4 830.484 -2
2 7 -1 10327.4 830.484 1
2 -7 -1 33039.1 1177.73 -2
2 7 0 33039.1 1177.73 1
2 -7 -2 28649.2 835.299 -2
2 7 1 28649.2 835.299 1
2 -7 -3 10210.8 604.683 -2
2 7 2 10210.8 604.683 1
2 -7 -4 7845.04 538.188 -2
2 7 3 7845.04 538.188 1
2 -7 -5 10354.9 1007.6 -2
2 7 4 10354.9 1007.6 1
2 -7 -6 9116.23 1005.84 -2
2 7 5 9116.23 1005.84 1
-2 -7 7 3690.28 644.409 -2
-2 7 -6 3690.28 644.409 1
-2 -7 8 6319.96 714.585 -2
-2 7 -7 6319.96 714.585 1
-2 -7 9 1438.52 686.568 -2
-2 7 -8 1438.52 686.568 1
-2 -7 10 3634.98 773.014 -2
-2 7 -9 3634.98 773.014 1
-2 -7 11 264.863 649.483 -2
-2 7 -10 264.863 649.483 1
2 -8 9 -109.656 1258.62 -2
2 8 -10 -109.656 1258.62 1
2 -8 8 6213.03 1351.77 -2
2 8 -9 6213.03 1351.77 1
2 -8 7 949.887 1235.7 -2
2 8 -8 949.887 1235.7 1
2 -8 6 12356.4 1337.15 -2
2 8 -7 12356.4 1337.15 1
2 -8 5 2132.92 1123.72 -2
2 8 -6 2132.92 1123.72 1
2 -8 4 3084.38 1111.86 -2
2 8 -5 3084.38 1111.86 1
2 -8 3 2005.61 516.543 -2
2 8 -4 2005.61 516.543 1
2 -8 2 3752.97 562.639 -2
2 8 -3 3752.97 562.639 1
2 -8 1 2082.17 558.671 -2
2 8 -2 2082.17 558.671 1
2 -8 0 12949.8 726.612 -2
2 8 -1 12949.8 726.612 1
2 -8 -1 8315.95 678.968 -2
2 8 0 8315.95 678.968 1
2 -8 -2 9435.74 674.935 -2
2 8 1 9435.74 674.935 1
2 -8 -3 2900.13 824.03 -2
2 8 2 2900.13 824.03 1
2 -8 -4 3333.82 515.2 -2
2 8 3 3333.82 515.2 1
2 -8 -5 3969.13 487.631 -2
2 8 4 3969.13 487.631 1
-2 -8 6 3872.08 662.439 -2
-2 8 -5 3872.08 662.439 1
-2 -8 7 3423.08 698.712 -2
-2 8 -6 3423.08 698.712 1
-2 -8 8 4219.87 730.413 -2
-2 8 -7 4219.87 730.413 1
-2 -8 9 4562.79 784.696 -2
-2 8 -8 4562.79 784.696 1
-2 -8 10 296.304 655.212 -2
-2 8 -9 296.304 655.212 1
2 -9 8 1438.76 1361.53 -2
2 9 -9 1438.76 1361.53 1
2 -9 7 10555.4 1446.6 -2
2 9 -8 10555.4 1446.6 1
2 -9 6 1802.7 1216.22 -2
2 9 -7 1802.7 1216.22 1
2 -9 5 13499.2 1447.67 -2
2 9 -6 13499.2 1447.67 1
2 -9 4 3302.1 1171.88 -2
2 9 -5 3302.1 1171.88 1
2 -9 3 3466.58 1151.96 -2
2 9 -4 3466.58 1151.96 1
2 -9 2 2577.22 571.861 -2
2 9 -3 2577.22 571.861 1
2 -9 1 11888.2 738.138 -2
2 9 -2 11888.2 738.138 1
2 -9 0 5983.64 647.985 -2
2 9 -1 5983.64 647.985 1
2 -9 -1 20660.5 866.918 -2
2 9 0 20660.5 866.918 1
2 -9 -2 4705.7 634.967 -2
2 9 1 4705.7 634.967 1
2 -9 -3 4253.81 607.56 -2
2 9 2 4253.81 607.56 1
2 -9 -4 1339.53 540.595 -2
2 9 3 1339.53 540.595 1
-2 -9 5 12084.7 1184.08 -2
-2 9 -4 12084.7 1184.08 1
-2 -9 6 6949.88 770.235 -2
-2 9 -5 6949.88 770.235 1
-2 -9 7 4177.31 754.28 -2
-2 9 -6 4177.31 754.28 1
-2 -9 8 5874.11 805.332 -2
-2 9 -7 5874.11 805.332 1
-2 -9 9 1456.91 773.688 -2
-2 9 -8 1456.91 773.688 1
2 -10 7 2697.44 1386.59 -2
2 10 -8 2697.44 1386.59 1
2 -10 6 7424 1430.21 -2
2 10 -7 7424 1430.21 1
2 -10 5 1273.98 1195.38 -2
2 10 -6 1273.98 1195.38 1
2 -10 4 6548.05 1349.69 -2
2 10 -5 6548.05 1349.69 1
2 -10 3 1548.49 1168.33 -2
2 10 -4 1548.49 1168.33 1
2 -10 2 7957.25 1269.69 -2
2 10 -3 7957.25 1269.69 1
2 -10 1 2480.05 628.15 -2
2 10 -2 2480.05 628.15 1
2 -10 0 5651.77 691.322 -2
2 10 -1 5651.77 691.322 1
2 -10 -1 3299.5 677.406 -2
2 10 0 3299.5 677.406 1
2 -10 -2 10469.6 785.866 -2
2 10 1 10469.6 785.866 1
2 -10 -3 5387.81 672.602 -2
2 10 2 5387.81 672.602 1
2 -10 -4 3276.84 975.245 -2
2 10 3 3276.84 975.245 1
-2 -10 5 2400.76 713.55 -2
-2 10 -4 2400.76 713.55 1
-2 -10 6 691.796 694.216 -2
-2 10 -5 691.796 694.216 1
-2 -10 7 3392.72 776.913 -2
-2 10 -6 3392.72 776.913 1
-2 -10 8 3268.94 814.352 -2
-2 10 -7 3268.94 814.352 1
2 11 -6 5688.95 1152.17 1
2 -11 4 257.609 1293.43 -2
2 11 -5 257.609 1293.43 1
2 -11 3 1340.8 1263.83 -2
2 11 -4 1340.8 1263.83 1
2 -11 2 1116.47 1259.48 -2
2 11 -3 1116.47 1259.48 1
2 -11 1 1339.71 1204.38 -2
2 11 -2 1339.71 1204.38 1
2 -11 0 2271.76 1218.11 -2
2 11 -1 2271.76 1218.11 1
2 -11 -1 8080.92 779.17 -2
2 11 0 8080.92 779.17 1
2 -11 -2 1990.5 700.3 -2
2 11 1 1990.5 700.3 1
2 -11 -3 4555.82 748.706 -2
2 11 2 4555.82 748.706 1
2 -11 -4 945.304 611.381 -2
2 11 3 945.304 611.381 1
2 -11 -5 2511.79 745.234 -2
2 11 4 2511.79 745.234 1
-2 -11 6 1323.45 777.598 -2
-2 11 -5 1323.45 777.598 1
2 12 -1 2824.39 1044.73 1
3 11 1 2839.35 1369.32 -2
3 -11 -3 2839.35 1369.32 1
3 11 0 682.837 1179.57 -2
3 -11 -2 682.837 1179.57 1
3 11 -1 3037.02 1403.78 -2
3 -11 -1 3037.02 1403.78 1
3 11 -2 169.405 1050.59 -2
3 -11 0 169.405 1050.59 1
3 11 -3 631.602 1309.45 -2
3 -11 1 631.602 1309.45 1
3 10 4 788.627 531.081 -2
3 -10 -6 788.627 531.081 1
3 10 3 3215.5 846.062 -2
3 -10 -5 3215.5 846.062 1
3 10 2 5014.37 780.792 -2
3 -10 -4 5014.37 780.792 1
3 10 1 3271.63 717.158 -2
3 -10 -3 3271.63 717.158 1
3 10 0 5252.39 765.184 -2
3 -10 -2 5252.39 765.184 1
3 10 -1 -112.65 1079.04 -2
3 -10 -1 -112.65 1079.04 1
3 10 -2 3286.24 1127.31 -2
3 -10 0 3286.24 1127.31 1
3 10 -3 2610.56 1188.14 -2
3 -10 1 2610.56 1188.14 1
3 10 -4 4007.36 1219.6 -2
3 -10 2 4007.36 1219.6 1
3 10 -5 5261.14 1292.57 -2
3 -10 3 5261.14 1292.57 1
3 10 -6 3045.99 842.751 -2
3 -10 4 3045.99 842.751 1
3 9 6 295.799 619.038 -2
3 -9 -8 295.799 619.038 1
3 9 5 2137.2 621.684 -2
3 -9 -7 2137.2 621.684 1
3 9 4 2794.01 613.883 -2
3 -9 -6 2794.01 613.883 1
3 9 3 4536.84 592.419 -2
3 -9 -5 4536.84 592.419 1
3 9 2 1536.86 528.415 -2
3 -9 -4 1536.86 528.415 1
3 9 1 5838.34 550.207 -2
3 -9 -3 5838.34 550.207 1
3 9 0 969.804 655.057 -2
3 -9 -2 969.804 655.057 1
3 9 -1 8310.57 745.492 -2
3 -9 -1 8310.57 745.492 1
3 9 -2 153.634 1149.56 -2
3 -9 0 153.634 1149.56 1
3 9 -3 2368.43 1128.78 -2
3 -9 1 2368.43 1128.78 1
3 9 -4 86.0199 1095.8 -2
3 -9 2 86.0199 1095.8 1
3 9 -5 7749.82 833.171 -2
3 -9 3 7749.82 833.171 1
3 9 -6 2185.11 765.599 -2
3 -9 4 2185.11 765.599 1
3 9 -7 6339 857.926 -2
3 -9 5 6339 857.926 1
3 9 -8 2.96781 789.961 -2
3 -9 6 2.96781 789.961 1
3 8 7 1201.94 622.869 -2
3 -8 -9 1201.94 622.869 1
3 8 6 6685.2 693.93 -2
3 -8 -8 6685.2 693.93 1
3 8 5 1168.53 570.247 -2
3 -8 -7 1168.53 570.247 1
3 8 4 2163.28 580.571 -2
3 -8 -6 2163.28 580.571 1
3 8 3 4130.43 599.332 -2
3 -8 -5 4130.43 599.332 1
-3 8 -2 7471.6 604.693 -2
-3 -8 4 7471.6 604.693 1
3 8 1 1701.93 509.506 -2
3 -8 -3 1701.93 509.506 1
3 8 0 18249.3 897.138 -2
3 -8 -2 18249.3 897.138 1
3 8 -1 377.897 394.961 -2
3 -8 -1 377.897 394.961 1
3 8 -2 11732.2 1260.16 -2
3 -8 0 11732.2 1260.16 1
3 8 -3 1290.3 512.48 -2
3 -8 1 1290.3 512.48 1
3 8 -4 10637.9 1175.68 -2
3 -8 2 10637.9 1175.68 1
3 8 -5 2130.14 705.592 -2
3 -8 3 2130.14 705.592 1
3 8 -6 8015.31 807.141 -2
3 -8 4 8015.31 807.141 1
3 8 -7 1274.91 726.255 -2
3 -8 5 1274.91 726.255 1
3 8 -8 9909.22 845.249 -2
3 -8 6 9909.22 845.249 1
3 8 -9 1108.35 757.534 -2
3 -8 7 1108.35 757.534 1
3 -8 8 3819.24 1040.28 1
-3 7 -9 609.067 765.524 -2
-3 -7 11 609.067 765.524 1
3 7 8 1623.64 624.589 -2
3 -7 -10 1623.64 624.589 1
3 7 7 5211.47 671.252 -2
3 -7 -9 5211.47 671.252 1
3 7 6 1838.06 593.343 -2
3 -7 -8 1838.06 593.343 1
-3 7 -5 7922.98 657.641 -2
-3 -7 7 7922.98 657.641 1
3 7 4 4005.34 587.723 -2
3 -7 -6 4005.34 587.723 1
3 7 3 10373.7 780.493 -2
3 -7 -5 10373.7 780.493 1
3 7 2 378.592 487.228 -2
3 -7 -4 378.592 487.228 1
3 7 1 12509.9 760.858 -2
3 -7 -3 12509.9 760.858 1
3 7 0 3250.11 621.215 -2
3 -7 -2 3250.11 621.215 1
3 7 -1 11293.2 1116.33 -2
3 -7 -1 11293.2 1116.33 1
3 7 -2 2663.79 536.864 -2
3 -7 0 2663.79 536.864 1
3 7 -3 8939 585.239 -2
3 -7 1 8939 585.239 1
3 7 -4 698.876 415.586 -2
3 -7 2 698.876 415.586 1
3 7 -5 9446.6 765.122 -2
3 -7 3 9446.6 765.122 1
3 7 -6 2404.17 651.534 -2
3 -7 4 2404.17 651.534 1
3 7 -7 12085.3 1104.22 -2
3 -7 5 12085.3 1104.22 1
3 7 -8 1169.41 674.869 -2
3 -7 6 1169.41 674.869 1
3 7 -9 11692.5 837.372 -2
3 -7 7 11692.5 837.372 1
3 -7 8 71.9226 697.196 1
3 7 -10 289.928 1133.39 -2
3 -7 8 289.928 1133.39 1
3 7 -11 2572.77 1249.97 -2
3 -7 9 2572.77 1249.97 1
-3 6 -9 4126.32 871.079 -2
-3 -6 11 4126.32 871.079 1
3 6 8 1646.36 616.919 -2
3 -6 -10 1646.36 616.919 1
3 6 7 7472.77 658.528 -2
3 -6 -9 7472.77 658.528 1
3 6 6 2171.27 575.768 -2
3 -6 -8 2171.27 575.768 1
3 6 5 6804.9 618.077 -2
3 -6 -7 6804.9 618.077 1
3 6 4 4254.85 694.203 -2
3 -6 -6 4254.85 694.203 1
3 6 3 21296.1 878.825 -2
3 -6 -5 21296.1 878.825 1
3 6 2 10352.2 744.822 -2
3 -6 -4 10352.2 744.822 1
3 6 1 6203.37 643.503 -2
3 -6 -3 6203.37 643.503 1
3 6 0 24759.3 862.694 -2
3 -6 -2 24759.3 862.694 1
3 6 -1 6728.68 964.859 -2
3 -6 -1 6728.68 964.859 1
3 6 -2 11279.3 629.399 -2
3 -6 0 11279.3 629.399 1
3 6 -3 5124.35 505.794 -2
3 -6 1 5124.35 505.794 1
3 6 -4 14272.4 591.026 -2
3 -6 2 14272.4 591.026 1
3 6 -5 5965.9 401.872 -2
3 -6 3 5965.9 401.872 1
3 6 -6 13740.8 774.593 -2
3 -6 4 13740.8 774.593 1
3 6 -7 1573.84 610.201 -2
3 -6 5 1573.84 610.201 1
3 6 -8 2503.23 635.277 -2
3 -6 6 2503.23 635.277 1
3 6 -9 5502.83 693.221 -2
3 -6 7 5502.83 693.221 1
3 6 -10 5567.76 1164.38 -2
3 -6 8 5567.76 1164.38 1
3 6 -11 1086.27 1109.01 -2
3 -6 9 1086.27 1109.01 1
3 -6 10 5922.62 1130.51 1
-3 5 -10 3863.32 889.96 -2
-3 -5 12 3863.32 889.96 1
-3 5 -9 3122.63 861.461 -2
-3 -5 11 3122.63 861.461 1
3 5 8 4489.6 636.528 -2
3 -5 -10 4489.6 636.528 1
3 5 7 2145.35 566.201 -2
3 -5 -9 2145.35 566.201 1
3 5 6 4310.55 696.842 -2
3 -5 -8 4310.55 696.842 1
3 5 5 2606.09 630.333 -2
3 -5 -7 2606.09 630.333 1
3 5 4 1990.24 570.639 -2
3 -5 -6 1990.24 570.639 1
3 5 3 10442.6 729.987 -2
3 -5 -5 10442.6 729.987 1
3 5 2 4640.71 809.724 -2
3 -5 -4 4640.71 809.724 1
3 5 1 4682.48 569.937 -2
3 -5 -3 4682.48 569.937 1
3 5 0 14528.4 708.955 -2
3 -5 -2 14528.4 708.955 1
3 5 -1 4881.34 554.283 -2
3 -5 -1 4881.34 554.283 1
3 5 -2 4645.72 494.689 -2
3 -5 0 4645.72 494.689 1
3 5 -3 7410.6 512.718 -2
3 -5 1 7410.6 512.718 1
3 5 -4 3280.11 303.221 -2
3 -5 2 3280.11 303.221 1
3 5 -5 10273.9 448.077 -2
3 -5 3 10273.9 448.077 1
3 5 -6 1056.5 321.562 -2
3 -5 4 1056.5 321.562 1
3 5 -7 7131.93 649.846 -2
3 -5 5 7131.93 649.846 1
3 5 -8 1068.15 572.245 -2
3 -5 6 1068.15 572.245 1
3 5 -9 7324.25 678.303 -2
3 -5 7 7324.25 678.303 1
3 5 -10 1850.52 1011.62 -2
3 -5 8 1850.52 1011.62 1
3 5 -11 6749.14 1253.48 -2
3 -5 9 6749.14 1253.48 1
3 5 -12 4756.64 1249.06 -2
3 -5 10 4756.64 1249.06 1
-3 4 -11 1672.64 878.269 -2
-3 -4 13 1672.64 878.269 1
-3 4 -10 2727.09 870.675 -2
-3 -4 12 2727.09 870.675 1
3 4 9 3170.77 601.74 -2
3 -4 -11 3170.77 601.74 1
3 4 8 5562.03 709.412 -2
3 -4 -10 5562.03 709.412 1
3 4 7 5747.16 1117.27 -2
3 -4 -9 5747.16 1117.27 1
3 4 6 8265.42 1067.61 -2
3 -4 -8 8265.42 1067.61 1
3 4 5 5143.21 941.221 -2
3 -4 -7 5143.21 941.221 1
3 4 4 8411.92 935.678 -2
3 -4 -6 8411.92 935.678 1
3 4 3 7003.9 879.312 -2
3 -4 -5 7003.9 879.312 1
3 4 2 26421 1126 -2
3 -4 -4 26421 1126 1
3 4 1 10353.7 866.287 -2
3 -4 -3 10353.7 866.287 1
3 4 0 10584.9 787.887 -2
3 -4 -2 10584.9 787.887 1
3 4 -1 523.927 545.095 -2
3 -4 -1 523.927 545.095 1
3 4 -2 15375.5 791.49 -2
3 -4 0 15375.5 791.49 1
3 4 -3 6648.99 620.659 -2
3 -4 1 6648.99 620.659 1
3 4 -4 33364.9 510.645 -2
3 -4 2 33364.9 510.645 1
3 4 -5 7132.64 295.477 -2
3 -4 3 7132.64 295.477 1
3 4 -6 12697 677.56 -2
3 -4 4 12697 677.56 1
3 4 -7 1211.47 345.052 -2
3 -4 5 1211.47 345.052 1
3 4 -8 7517.48 618.618 -2
3 -4 6 7517.48 618.618 1
3 4 -9 1976.26 394.382 -2
3 -4 7 1976.26 394.382 1
3 4 -10 9969.11 1135 -2
3 -4 8 9969.11 1135 1
3 4 -11 2247.16 1079.96 -2
3 -4 9 2247.16 1079.96 1
3 4 -12 10028.1 1320.69 -2
3 -4 10 10028.1 1320.69 1
3 4 -13 -44.8362 1315.3 -2
3 -4 11 -44.8362 1315.3 1
-3 3 -11 1661.95 822.581 -2
-3 -3 13 1661.95 822.581 1
-3 3 -10 3666.66 860.714 -2
-3 -3 12 3666.66 860.714 1
3 3 9 5178.21 1160.58 -2
3 -3 -11 5178.21 1160.58 1
3 3 8 3768.13 1066.27 -2
3 -3 -10 3768.13 1066.27 1
3 3 7 2939.63 938.168 -2
3 -3 -9 2939.63 938.168 1
3 3 6 2784.52 929.257 -2
3 -3 -8 2784.52 929.257 1
3 3 5 8508.17 955.568 -2
3 -3 -7 8508.17 955.568 1
3 3 4 3244.45 818.339 -2
3 -3 -6 3244.45 818.339 1
3 3 3 27105.1 1167.04 -2
3 -3 -5 27105.1 1167.04 1
3 3 2 8447.2 856.372 -2
3 -3 -4 8447.2 856.372 1
3 3 1 30015.2 1093.7 -2
3 -3 -3 30015.2 1093.7 1
3 3 0 7061.98 704.454 -2
3 -3 -2 7061.98 704.454 1
3 3 -1 23471.6 935.467 -2
3 -3 -1 23471.6 935.467 1
3 3 -3 34505.6 1004.08 -2
3 -3 1 34505.6 1004.08 1
-3 3 4 2025.33 351.422 -2
-3 -3 -2 2025.33 351.422 1
3 3 -5 39373.2 1333.93 -2
3 -3 3 39373.2 1333.93 1
3 3 -6 3903.36 374.296 -2
3 -3 4 3903.36 374.296 1
3 3 -7 16513 668.744 -2
3 -3 5 16513 668.744 1
3 3 -8 126.416 382.087 -2
3 -3 6 126.416 382.087 1
3 3 -9 6278.24 954.487 -2
3 -3 7 6278.24 954.487 1
3 -3 8 661.351 461.284 1
3 3 -10 2507.33 532.422 -2
3 -3 8 2507.33 532.422 1
3 3 -11 9905.11 1142.76 -2
3 -3 9 9905.11 1142.76 1
3 3 -12 1257.14 1062.77 -2
3 -3 10 1257.14 1062.77 1
3 3 -13 2796.96 1215.57 -2
3 -3 11 2796.96 1215.57 1
-3 2 -11 1434.29 827.856 -2
-3 -2 13 1434.29 827.856 1
3 2 10 4258.27 1192.81 -2
3 -2 -12 4258.27 1192.81 1
3 2 9 1509.15 1050.02 -2
3 -2 -11 1509.15 1050.02 1
3 2 8 7280.8 1081.66 -2
3 -2 -10 7280.8 1081.66 1
3 2 7 1752.64 915.559 -2
3 -2 -9 1752.64 915.559 1
3 2 6 8835.8 997.521 -2
3 -2 -8 8835.8 997.521 1
3 2 5 5900.15 847.712 -2
3 -2 -7 5900.15 847.712 1
3 2 4 12138.8 950.727 -2
3 -2 -6 12138.8 950.727 1
3 2 3 3776.01 722.658 -2
3 -2 -5 3776.01 722.658 1
3 2 2 27695.9 1047.17 -2
3 -2 -4 27695.9 1047.17 1
3 2 1 3500.5 653.584 -2
3 -2 -3 3500.5 653.584 1
3 2 0 18766.7 884.06 -2
3 -2 -2 18766.7 884.06 1
3 2 -1 1384.24 598.262 -2
3 -2 -1 1384.24 598.262 1
3 2 -2 32429.9 1073.13 -2
3 -2 0 32429.9 1073.13 1
3 2 -3 5495.33 688.018 -2
3 -2 1 5495.33 688.018 1
3 2 -4 53004.9 1252.14 -2
3 -2 2 53004.9 1252.14 1
3 2 -5 4484.47 683.326 -2
3 -2 3 4484.47 683.326 1
3 2 -6 20011 673.801 -2
3 -2 4 20011 673.801 1
3 2 -7 3881 513.011 -2
3 -2 5 3881 513.011 1
3 2 -8 5841.46 420.914 -2
3 -2 6 5841.46 420.914 1
3 2 -9 4393.71 418.94 -2
3 -2 7 4393.71 418.94 1
3 -2 8 11627.1 616.019 1
3 2 -10 14812.3 1073.51 -2
3 -2 8 14812.3 1073.51 1
3 2 -11 861.696 592.077 -2
3 -2 9 861.696 592.077 1
3 2 -12 11710 1138.66 -2
3 -2 10 11710 1138.66 1
3 2 -13 1703.67 1138.73 -2
3 -2 11 1703.67 1138.73 1
-3 1 -11 3928.78 803.038 -2
-3 -1 13 3928.78 803.038 1
3 1 10 8331.14 1204.12 -2
3 -1 -12 8331.14 1204.12 1
3 1 9 8440.77 1137.88 -2
3 -1 -11 8440.77 1137.88 1
3 1 8 9548.58 1058.37 -2
3 -1 -10 9548.58 1058.37 1
3 1 7 7804.83 952.936 -2
3 -1 -9 7804.83 952.936 1
3 1 6 7402.03 930.807 -2
3 -1 -8 7402.03 930.807 1
3 1 5 11103.1 955.693 -2
3 -1 -7 11103.1 955.693 1
3 1 4 2024.25 735.744 -2
3 -1 -6 2024.25 735.744 1
3 1 3 25452.9 1058.92 -2
3 -1 -5 25452.9 1058.92 1
3 1 2 5187.01 691.294 -2
3 -1 -4 5187.01 691.294 1
3 1 1 19346 925.197 -2
3 -1 -3 19346 925.197 1
3 1 0 20895.5 950.497 -2
3 -1 -2 20895.5 950.497 1
3 1 -1 4360.46 684.846 -2
3 -1 -1 4360.46 684.846 1
3 1 -2 30864 736.019 -2
3 -1 0 30864 736.019 1
3 1 -3 32541.1 1056.48 -2
3 -1 1 32541.1 1056.48 1
3 1 -4 3997.68 684.161 -2
3 -1 2 3997.68 684.161 1
3 1 -5 34634.9 1077.4 -2
3 -1 3 34634.9 1077.4 1
3 1 -6 1314.07 496.267 -2
3 -1 4 1314.07 496.267 1
3 1 -7 10202.5 593.797 -2
3 -1 5 10202.5 593.797 1
3 1 -8 7140.79 581.568 -2
3 -1 6 7140.79 581.568 1
3 1 -9 21041.8 1079.45 -2
3 -1 7 21041.8 1079.45 1
3 1 -10 2974.21 586.159 -2
3 -1 8 2974.21 586.159 1
3 1 -11 13102.9 733.756 -2
3 -1 9 13102.9 733.756 1
3 1 -12 3003.01 664.569 -2
3 -1 10 3003.01 664.569 1
3 1 -13 8856.41 1127.87 -2
3 -1 11 8856.41 1127.87 1
3 -1 12 949.396 872.165 1
3 0 11 707.335 1035.87 -2
3 0 -13 707.335 1035.87 1
3 0 10 2140.66 977.145 -2
3 0 -12 2140.66 977.145 1
3 0 8 1938.3 904.255 -2
3 0 -10 1938.3 904.255 1
3 0 7 8731.26 971.982 -2
3 0 -9 8731.26 971.982 1
3 0 6 2262.67 791.674 -2
3 0 -8 2262.67 791.674 1
3 0 5 7059.83 826.24 -2
3 0 -7 7059.83 826.24 1
3 0 4 6123.65 758.712 -2
3 0 -6 6123.65 758.712 1
3 0 3 29782.6 1031.53 -2
3 0 -5 29782.6 1031.53 1
3 0 2 17697.4 913.459 -2
3 0 -4 17697.4 913.459 1
3 0 1 6472.96 755.66 -2
3 0 -3 6472.96 755.66 1
3 0 0 16925.3 883.629 -2
3 0 -2 16925.3 883.629 1
3 0 -1 1971.9 471.989 -2
3 0 -1 1971.9 471.989 1
3 0 -2 17875.2 910.321 -2
3 0 0 17875.2 910.321 1
3 0 -3 1366.77 688.534 -2
3 0 1 1366.77 688.534 1
3 0 -4 47680.3 1257.39 -2
3 0 2 47680.3 1257.39 1
3 0 -5 10850.7 797.133 -2
3 0 3 10850.7 797.133 1
3 0 -6 21007.2 986.078 -2
3 0 4 21007.2 986.078 1
3 0 -8 6705.39 564.209 -2
3 0 6 6705.39 564.209 1
3 0 -9 7661.64 603.093 -2
3 0 7 7661.64 603.093 1
3 0 -10 7041.47 616.525 -2
3 0 8 7041.47 616.525 1
3 0 -11 3253.01 623.564 -2
3 0 9 3253.01 623.564 1
3 0 -12 7977.65 709.06 -2
3 0 10 7977.65 709.06 1
3 0 -13 1223.74 639.456 -2
3 0 11 1223.74 639.456 1
3 0 12 -176.979 809.194 1
3 -1 11 2275.85 1080.76 -2
3 1 -13 2275.85 1080.76 1
3 -1 10 8418.1 1087.92 -2
3 1 -12 8418.1 1087.92 1
3 -1 9 7783.58 994.035 -2
3 1 -11 7783.58 994.035 1
3 -1 8 11263.4 1030.46 -2
3 1 -10 11263.4 1030.46 1
3 -1 7 7915.2 884.921 -2
3 1 -9 7915.2 884.921 1
3 -1 6 6922.5 842.354 -2
3 1 -8 6922.5 842.354 1
3 -1 5 12849.8 884.288 -2
3 1 -7 12849.8 884.288 1
3 -1 4 1887.69 695.22 -2
3 1 -6 1887.69 695.22 1
3 -1 3 26882.2 1028.99 -2
3 1 -5 26882.2 1028.99 1
3 -1 2 4003.52 750.352 -2
3 1 -4 4003.52 750.352 1
3 -1 1 20942.8 958.115 -2
3 1 -3 20942.8 958.115 1
3 -1 0 21071.2 980.478 -2
3 1 -2 21071.2 980.478 1
3 -1 -1 1981.38 701.623 -2
3 1 -1 1981.38 701.623 1
3 -1 -2 31316.1 1107.01 -2
3 1 0 31316.1 1107.01 1
3 -1 -3 32832.8 1090.49 -2
3 1 1 32832.8 1090.49 1
3 -1 -4 3504.88 752.312 -2
3 1 2 3504.88 752.312 1
3 -1 -5 33847.6 1150.57 -2
3 1 3 33847.6 1150.57 1
3 -1 -6 1307.79 710.311 -2
3 1 4 1307.79 710.311 1
3 -1 -8 6919.29 916.626 -2
3 1 6 6919.29 916.626 1
-3 -1 9 17351.7 513.323 -2
-3 1 -7 17351.7 513.323 1
3 -1 -10 2710.43 580.496 -2
3 1 8 2710.43 580.496 1
3 -1 -11 13166.5 938.327 -2
3 1 9 13166.5 938.327 1
3 -1 -12 2781.29 645.628 -2
3 1 10 2781.29 645.628 1
3 -1 -13 6108.91 1120.65 -2
3 1 11 6108.91 1120.65 1
3 1 12 326.994 820.322 1
3 -2 11 528.595 929.625 -2
3 2 -13 528.595 929.625 1
3 -2 10 4000.02 889.174 -2
3 2 -12 4000.02 889.174 1
3 -2 9 1856.32 893.574 -2
3 2 -11 1856.32 893.574 1
3 -2 8 7985.83 908.163 -2
3 2 -10 7985.83 908.163 1
3 -2 7 2721 770.697 -2
3 2 -9 2721 770.697 1
3 -2 6 10103 893.534 -2
3 2 -8 10103 893.534 1
3 -2 5 4285.19 737.894 -2
3 2 -7 4285.19 737.894 1
3 -2 4 14499.9 903.266 -2
3 2 -6 14499.9 903.266 1
3 -2 3 4758.16 757.28 -2
3 2 -5 4758.16 757.28 1
3 -2 2 27811.8 1032.91 -2
3 2 -4 27811.8 1032.91 1
3 -2 1 2902.57 496.23 -2
3 2 -3 2902.57 496.23 1
3 -2 0 20647 961.394 -2
3 2 -2 20647 961.394 1
3 -2 -1 926.615 704.815 -2
3 2 -1 926.615 704.815 1
3 -2 -2 31731.3 1144.37 -2
3 2 0 31731.3 1144.37 1
3 -2 -3 4589.24 785.051 -2
3 2 1 4589.24 785.051 1
3 -2 -4 52388.9 1372.48 -2
3 2 2 52388.9 1372.48 1
3 -2 -5 4810.94 775.34 -2
3 2 3 4810.94 775.34 1
3 -2 -6 19789.3 1033.25 -2
3 2 4 19789.3 1033.25 1
3 -2 -7 3598.45 842.594 -2
3 2 5 3598.45 842.594 1
3 -2 -8 5109.55 894.131 -2
3 2 6 5109.55 894.131 1
3 -2 -9 3739.54 939.313 -2
3 2 7 3739.54 939.313 1
3 -2 -10 13555.1 1156.23 -2
3 2 8 13555.1 1156.23 1
3 -2 -11 645.726 567.282 -2
3 2 9 645.726 567.282 1
3 -2 -12 10547 1214.42 -2
3 2 10 10547 1214.42 1
3 -2 -13 1564.58 1044.25 -2
3 2 11 1564.58 1044.25 1
3 -3 10 3984.57 919.676 -2
3 3 -12 3984.57 919.676 1
3 -3 9 5011.88 867.404 -2
3 3 -11 5011.88 867.404 1
3 -3 8 7130.98 860.313 -2
3 3 -10 7130.98 860.313 1
3 -3 7 3224.4 773.094 -2
3 3 -9 3224.4 773.094 1
3 -3 6 1821.11 719.216 -2
3 3 -8 1821.11 719.216 1
3 -3 5 11036.5 849.672 -2
3 3 -7 11036.5 849.672 1
3 -3 4 4263.72 754.16 -2
3 3 -6 4263.72 754.16 1
3 -3 3 33671.4 1140.94 -2
3 3 -5 33671.4 1140.94 1
3 -3 2 9031.84 849.764 -2
3 3 -4 9031.84 849.764 1
3 -3 1 31096.3 1095.06 -2
3 3 -3 31096.3 1095.06 1
3 -3 0 9495.05 818.937 -2
3 3 -2 9495.05 818.937 1
3 -3 -1 24457.8 1038.5 -2
3 3 -1 24457.8 1038.5 1
3 -3 -2 8491.99 841.234 -2
3 3 0 8491.99 841.234 1
3 -3 -3 30896.3 1158.56 -2
3 3 1 30896.3 1158.56 1
3 -3 -4 2591.64 771.815 -2
3 3 2 2591.64 771.815 1
3 -3 -5 41400.4 1373.56 -2
3 3 3 41400.4 1373.56 1
3 -3 -6 4117.42 855.953 -2
3 3 4 4117.42 855.953 1
3 -3 -7 18103 1099.16 -2
3 3 5 18103 1099.16 1
3 -3 -8 1741.87 842.419 -2
3 3 6 1741.87 842.419 1
3 -3 -9 5429.84 974.125 -2
3 3 7 5429.84 974.125 1
-3 3 -8 874.603 481.418 1
3 -3 -10 1266.98 947.901 -2
3 3 8 1266.98 947.901 1
3 -3 -11 7136.45 1226.3 -2
3 3 9 7136.45 1226.3 1
3 -3 -12 2004.64 1167.17 -2
3 3 10 2004.64 1167.17 1
3 -3 -13 3333.29 1171.67 -2
3 3 11 3333.29 1171.67 1
3 -4 9 3933.69 819.095 -2
3 4 -11 3933.69 819.095 1
3 -4 8 6274.26 825.996 -2
3 4 -10 6274.26 825.996 1
3 -4 7 8329.62 836.119 -2
3 4 -9 8329.62 836.119 1
3 -4 6 11733.9 867.981 -2
3 4 -8 11733.9 867.981 1
3 -4 5 4514.21 748.047 -2
3 4 -7 4514.21 748.047 1
3 -4 4 10998.9 867.365 -2
3 4 -6 10998.9 867.365 1
3 -4 3 8227.19 846.555 -2
3 4 -5 8227.19 846.555 1
3 -4 2 29386.7 1090.5 -2
3 4 -4 29386.7 1090.5 1
3 -4 1 12319.3 896.006 -2
3 4 -3 12319.3 896.006 1
3 -4 0 10881.5 875.006 -2
3 4 -2 10881.5 875.006 1
3 -4 -1 283.224 721.87 -2
3 4 -1 283.224 721.87 1
3 -4 -2 16802.9 975.182 -2
3 4 0 16802.9 975.182 1
3 -4 -3 6026.81 870.475 -2
3 4 1 6026.81 870.475 1
3 -4 -5 6681.81 886.457 -2
3 4 3 6681.81 886.457 1
3 -4 -6 11197.6 1007.62 -2
3 4 4 11197.6 1007.62 1
3 -4 -7 2184.55 875.865 -2
3 4 5 2184.55 875.865 1
3 -4 -8 6133.48 994.62 -2
3 4 6 6133.48 994.62 1
3 -4 -9 2014.69 938.69 -2
3 4 7 2014.69 938.69 1
3 -4 -10 7705.82 639.45 -2
3 4 8 7705.82 639.45 1
-3 4 -9 763.808 548.069 1
3 -4 -11 1251.27 1088.59 -2
3 4 9 1251.27 1088.59 1
3 -4 -12 9532.8 1266.82 -2
3 4 10 9532.8 1266.82 1
3 -4 -13 531.849 1149.47 -2
3 4 11 531.849 1149.47 1
3 -5 8 5798.18 786.105 -2
3 5 -10 5798.18 786.105 1
3 -5 7 2974.51 709.55 -2
3 5 -9 2974.51 709.55 1
3 -5 6 3570.31 744.733 -2
3 5 -8 3570.31 744.733 1
3 -5 5 2381.84 713.533 -2
3 5 -7 2381.84 713.533 1
3 -5 4 1600.86 703.523 -2
3 5 -6 1600.86 703.523 1
3 -5 3 14318.8 942.14 -2
3 5 -5 14318.8 942.14 1
3 -5 2 5827.59 795.806 -2
3 5 -4 5827.59 795.806 1
3 -5 1 5793.61 823.586 -2
3 5 -3 5793.61 823.586 1
3 -5 0 17681.4 1010.38 -2
3 5 -2 17681.4 1010.38 1
3 -5 -1 7881.61 894.439 -2
3 5 -1 7881.61 894.439 1
3 -5 -2 4875.22 878.951 -2
3 5 0 4875.22 878.951 1
3 -5 -3 9147.46 915.301 -2
3 5 1 9147.46 915.301 1
3 -5 -4 2288.67 851.201 -2
3 5 2 2288.67 851.201 1
3 -5 -5 8601.12 1022.86 -2
3 5 3 8601.12 1022.86 1
3 -5 -6 1137.12 857.978 -2
3 5 4 1137.12 857.978 1
3 -5 -7 7840.75 1062.85 -2
3 5 5 7840.75 1062.85 1
3 -5 -8 1535.63 899.819 -2
3 5 6 1535.63 899.819 1
3 -5 -9 6499.78 661.432 -2
3 5 7 6499.78 661.432 1
3 -5 -10 1289.47 617.734 -2
3 5 8 1289.47 617.734 1
3 -5 -11 5326.76 703.586 -2
3 5 9 5326.76 703.586 1
3 -5 -12 3777.69 1267.82 -2
3 5 10 3777.69 1267.82 1
3 -6 7 8679.57 804.797 -2
3 6 -9 8679.57 804.797 1
3 -6 6 3682.54 720.47 -2
3 6 -8 3682.54 720.47 1
3 -6 5 7271.55 772.278 -2
3 6 -7 7271.55 772.278 1
3 -6 4 5602.78 829.292 -2
3 6 -6 5602.78 829.292 1
3 -6 3 23785.2 1050.17 -2
3 6 -5 23785.2 1050.17 1
3 -6 2 11693.8 918.542 -2
3 6 -4 11693.8 918.542 1
3 -6 1 7685.66 873.622 -2
3 6 -3 7685.66 873.622 1
3 -6 0 26878.2 1142.28 -2
3 6 -2 26878.2 1142.28 1
3 -6 -1 6103.19 891.708 -2
3 6 -1 6103.19 891.708 1
3 -6 -2 12811.4 1005.32 -2
3 6 0 12811.4 1005.32 1
3 -6 -3 5134.59 934.877 -2
3 6 1 5134.59 934.877 1
3 -6 -4 13570.1 1080.93 -2
3 6 2 13570.1 1080.93 1
3 -6 -5 5815.61 969.975 -2
3 6 3 5815.61 969.975 1
3 -6 -6 14164.1 1187.14 -2
3 6 4 14164.1 1187.14 1
3 -6 -7 1859.32 988.388 -2
3 6 5 1859.32 988.388 1
3 -6 -8 1840.54 1023.75 -2
3 6 6 1840.54 1023.75 1
3 -6 -9 5129.71 688.501 -2
3 6 7 5129.71 688.501 1
-3 6 -8 3827.92 710.557 1
3 -6 -10 3284.37 1213.41 -2
3 6 8 3284.37 1213.41 1
-3 6 -9 641.077 695.954 1
3 -6 -11 479.481 1060.67 -2
3 6 9 479.481 1060.67 1
3 6 10 7023.42 1283.6 1
3 -7 5 10082 860.715 -2
3 7 -7 10082 860.715 1
3 -7 4 5721.94 829.365 -2
3 7 -6 5721.94 829.365 1
3 -7 3 16211 960.351 -2
3 7 -5 16211 960.351 1
3 -7 2 1275.93 743.057 -2
3 7 -4 1275.93 743.057 1
3 -7 1 14710.4 1009.37 -2
3 7 -3 14710.4 1009.37 1
3 -7 0 4016.87 872.062 -2
3 7 -2 4016.87 872.062 1
3 -7 -1 13841.3 1052.7 -2
3 7 -1 13841.3 1052.7 1
3 -7 -2 2772.26 876.476 -2
3 7 0 2772.26 876.476 1
3 -7 -3 11955.4 1069.16 -2
3 7 1 11955.4 1069.16 1
3 -7 -4 360.094 879.585 -2
3 7 2 360.094 879.585 1
3 -7 -5 9788.93 1099.56 -2
3 7 3 9788.93 1099.56 1
3 -7 -6 1215.79 935.132 -2
3 7 4 1215.79 935.132 1
3 -7 -7 14670.6 1286.11 -2
3 7 5 14670.6 1286.11 1
3 -7 -8 1753.16 1005.14 -2
3 7 6 1753.16 1005.14 1
-3 7 -7 8582.9 906.878 1
3 -7 -9 11819.2 1275.16 -2
3 7 7 11819.2 1275.16 1
-3 7 -8 0.79184 693.927 1
3 -7 -10 1156.44 1181.57 -2
3 7 8 1156.44 1181.57 1
-3 7 -9 2308.52 753.871 1
3 -7 -11 2429.67 1330.59 -2
3 7 9 2429.67 1330.59 1
3 -8 4 4197.31 814.313 -2
3 8 -6 4197.31 814.313 1
3 -8 3 6023.44 826.933 -2
3 8 -5 6023.44 826.933 1
3 -8 2 8898.31 739.13 -2
3 8 -4 8898.31 739.13 1
3 -8 1 2020.73 659.809 -2
3 8 -3 2020.73 659.809 1
3 -8 0 23782.9 905.703 -2
3 8 -2 23782.9 905.703 1
3 -8 -1 724.938 817.209 -2
3 8 -1 724.938 817.209 1
3 -8 -2 13719.6 1132.66 -2
3 8 0 13719.6 1132.66 1
3 -8 -3 1788.85 927.181 -2
3 8 1 1788.85 927.181 1
3 -8 -4 11708.4 1153.92 -2
3 8 2 11708.4 1153.92 1
3 -8 -5 2036.69 970.936 -2
3 8 3 2036.69 970.936 1
3 -8 -6 7574.61 1131.93 -2
3 8 4 7574.61 1131.93 1
3 -8 -7 264.224 1083.67 -2
3 8 5 264.224 1083.67 1
3 -8 -8 9092.18 811.207 -2
3 8 6 9092.18 811.207 1
3 -8 -9 1222.5 715.914 -2
3 8 7 1222.5 715.914 1
3 8 8 4347.79 674.05 1
3 -9 4 3920 1339.31 -2
3 9 -6 3920 1339.31 1
3 -9 3 4701.82 1270.3 -2
3 9 -5 4701.82 1270.3 1
3 -9 2 1822.53 664.329 -2
3 9 -4 1822.53 664.329 1
3 -9 1 6843.76 762.803 -2
3 9 -3 6843.76 762.803 1
3 -9 0 1132.43 677.761 -2
3 9 -2 1132.43 677.761 1
3 -9 -1 11105.3 806.37 -2
3 9 -1 11105.3 806.37 1
3 -9 -2 181.81 914.922 -2
3 9 0 181.81 914.922 1
3 -9 -3 2764.32 984.863 -2
3 9 1 2764.32 984.863 1
3 -9 -4 777.459 998.761 -2
3 9 2 777.459 998.761 1
3 -9 -5 8321.1 1172.96 -2
3 9 3 8321.1 1172.96 1
3 -9 -6 2188.16 1119.38 -2
3 9 4 2188.16 1119.38 1
3 -9 -7 5410.26 1190.32 -2
3 9 5 5410.26 1190.32 1
3 -9 -8 -208.044 736.587 -2
3 9 6 -208.044 736.587 1
3 -10 4 1377.38 1294.37 -2
3 10 -6 1377.38 1294.37 1
3 -10 3 4790.37 1340.69 -2
3 10 -5 4790.37 1340.69 1
3 -10 2 5511.12 1445.01 -2
3 10 -4 5511.12 1445.01 1
3 -10 1 4880.38 1431.67 -2
3 10 -3 4880.38 1431.67 1
3 -10 0 6647.3 819.893 -2
3 10 -2 6647.3 819.893 1
3 -10 -1 341.003 677.285 -2
3 10 -1 341.003 677.285 1
3 -10 -2 3052.54 723.624 -2
3 10 0 3052.54 723.624 1
3 -10 -3 796.745 1039.85 -2
3 10 1 796.745 1039.85 1
3 -10 -4 4757.61 1138.03 -2
3 10 2 4757.61 1138.03 1
3 -10 -5 5539.09 1184.57 -2
3 10 3 5539.09 1184.57 1
3 -10 -6 3897.07 1144.2 -2
3 10 4 3897.07 1144.2 1
3 -11 1 1819.95 1318.04 -2
3 11 -3 1819.95 1318.04 1
3 -11 0 2316.26 1302.14 -2
3 11 -2 2316.26 1302.14 1
3 -11 -1 3623.4 1299.74 -2
3 11 -1 3623.4 1299.74 1
3 -11 -2 968.835 977.187 -2
3 11 0 968.835 977.187 1
3 11 1 2798.9 884.309 1
4 -9 -5 4871.12 942.22 1
4 9 3 6406.42 1354.87 -2
4 -9 -5 6406.42 1354.87 1
4 -9 -4 1066.15 818.577 1
4 9 2 2033.64 1320.99 -2
4 -9 -4 2033.64 1320.99 1
4 -9 -3 3132.28 789.397 1
4 9 1 5068.54 1359.45 -2
4 -9 -3 5068.54 1359.45 1
4 -9 -2 2148.67 750.485 1
4 9 0 372.893 1132.96 -2
4 -9 -2 372.893 1132.96 1
4 9 -1 6004.01 1378.76 -2
4 -9 -1 6004.01 1378.76 1
4 9 -2 -541.165 1244.32 -2
4 -9 0 -541.165 1244.32 1
4 9 -3 5147.76 1303.15 -2
4 -9 1 5147.76 1303.15 1
4 9 -4 4257.8 1278.96 -2
4 -9 2 4257.8 1278.96 1
4 9 -5 6027.83 1343.44 -2
4 -9 3 6027.83 1343.44 1
4 -8 -7 2236.99 957.53 1
4 8 5 4770.17 827.586 -2
4 -8 -7 4770.17 827.586 1
4 -8 -6 1137.1 869.764 1
4 8 4 2576.56 761.66 -2
4 -8 -6 2576.56 761.66 1
4 -8 -5 846.932 820.937 1
4 8 3 1341.07 755.806 -2
4 -8 -5 1341.07 755.806 1
4 -8 -4 1320.83 762.742 1
4 8 2 2871.83 725.181 -2
4 -8 -4 2871.83 725.181 1
4 -8 -3 2048.06 797.15 1
4 8 1 3677.25 1272.12 -2
4 -8 -3 3677.25 1272.12 1
4 -8 -2 3831.74 765.974 1
4 8 0 4958.16 1192.89 -2
4 -8 -2 4958.16 1192.89 1
4 -8 -1 4675.71 730.042 1
4 8 -1 4211.35 1280.37 -2
4 -8 -1 4211.35 1280.37 1
4 -8 0 3175.07 649.178 1
4 8 -2 3732.19 1224.58 -2
4 -8 0 3732.19 1224.58 1
4 8 -3 8273.92 1284.63 -2
4 -8 1 8273.92 1284.63 1
4 8 -4 3014.23 1148.66 -2
4 -8 2 3014.23 1148.66 1
4 8 -5 2198.5 1153.13 -2
4 -8 3 2198.5 1153.13 1
4 8 -6 2752.09 1061.37 -2
4 -8 4 2752.09 1061.37 1
4 8 -7 6431.44 1282.92 -2
4 -8 5 6431.44 1282.92 1
4 -7 -9 2375.09 533.524 1
4 -7 -8 -142.891 883.204 1
4 7 6 1791.06 804.856 -2
4 -7 -8 1791.06 804.856 1
4 -7 -7 5182.61 949.472 1
4 7 5 7456.18 1236.14 -2
4 -7 -7 7456.18 1236.14 1
4 -7 -6 618.052 770.725 1
4 7 4 1122.82 1062.55 -2
4 -7 -6 1122.82 1062.55 1
4 -7 -5 7263.57 881.432 1
4 7 3 9125.79 1259.44 -2
4 -7 -5 9125.79 1259.44 1
4 -7 -4 376.257 697.464 1
4 7 2 2033.35 998.4 -2
4 -7 -4 2033.35 998.4 1
4 -7 -3 7806.65 838.684 1
4 7 1 10398.5 1148.54 -2
4 -7 -3 10398.5 1148.54 1
4 -7 -2 1468.15 666.099 1
4 7 0 2972.7 1198.3 -2
4 -7 -2 2972.7 1198.3 1
4 -7 -1 14361.7 850.137 1
4 7 -1 16274.8 1328.83 -2
4 -7 -1 16274.8 1328.83 1
4 -7 0 7754.73 718.171 1
4 7 -2 7441.37 1170.63 -2
4 -7 0 7441.37 1170.63 1
4 7 -3 10768.7 686.411 -2
4 -7 1 10768.7 686.411 1
4 7 -4 4730.21 1121.79 -2
4 -7 2 4730.21 1121.79 1
4 7 -5 5805.62 1166.33 -2
4 -7 3 5805.62 1166.33 1
4 7 -6 3622.3 1052.57 -2
4 -7 4 3622.3 1052.57 1
4 7 -7 4362.14 1040.35 -2
4 -7 5 4362.14 1040.35 1
4 7 -8 3626.27 804.065 -2
4 -7 6 3626.27 804.065 1
4 -6 -10 2866.11 549.996 1
4 -6 -9 -510.263 875.243 1
4 6 7 921.411 1080.86 -2
4 -6 -9 921.411 1080.86 1
4 -6 -8 2307.27 880.73 1
4 6 6 2613.3 1080.65 -2
4 -6 -8 2613.3 1080.65 1
4 -6 -7 719.124 777.806 1
4 6 5 1760.62 1074.95 -2
4 -6 -7 1760.62 1074.95 1
4 -6 -6 3387.95 838.804 1
4 6 4 5520.36 1086.14 -2
4 -6 -6 5520.36 1086.14 1
4 -6 -5 -133.631 690.098 1
4 6 3 47.1294 986.647 -2
4 -6 -5 47.1294 986.647 1
4 -6 -4 6984.23 838.96 1
4 6 2 5854.64 1139.28 -2
4 -6 -4 5854.64 1139.28 1
4 6 1 1117.3 653.386 -2
4 -6 -3 1117.3 653.386 1
4 6 0 6018.12 702.732 -2
4 -6 -2 6018.12 702.732 1
4 -6 -1 851.954 570.196 1
4 6 -1 1324.03 1065.49 -2
4 -6 -1 1324.03 1065.49 1
4 6 -2 5337.75 636.294 -2
4 -6 0 5337.75 636.294 1
4 6 -3 3215 591.477 -2
4 -6 1 3215 591.477 1
4 6 -4 3963.17 556.552 -2
4 -6 2 3963.17 556.552 1
4 6 -5 5072.12 1165.46 -2
4 -6 3 5072.12 1165.46 1
4 6 -6 4143.59 1012.1 -2
4 -6 4 4143.59 1012.1 1
4 6 -7 2710.57 961.88 -2
4 -6 5 2710.57 961.88 1
4 6 -8 1351.08 740.232 -2
4 -6 6 1351.08 740.232 1
4 6 -9 3087.32 748.777 -2
4 -6 7 3087.32 748.777 1
4 -5 -11 2701.02 539.934 1
4 -5 -10 -88.1901 858.711 1
4 5 8 1006.24 1056.34 -2
4 -5 -10 1006.24 1056.34 1
4 -5 -9 3388.91 961.928 1
4 5 7 3702.98 1133.2 -2
4 -5 -9 3702.98 1133.2 1
4 -5 -8 613.751 801.704 1
4 -5 -7 4960.88 858.55 1
4 -5 -6 81.9517 698.993 1
4 -5 -5 4986.27 811.151 1
4 -5 -4 919.643 657.244 1
4 5 1 7188.73 867.441 -2
4 -5 -3 7188.73 867.441 1
4 5 0 2320.22 750.413 -2
4 -5 -2 2320.22 750.413 1
4 5 -1 9675.16 872.015 -2
4 -5 -1 9675.16 872.015 1
4 5 -2 2599.03 738.316 -2
4 -5 0 2599.03 738.316 1
4 5 -3 6425.18 592.279 -2
4 -5 1 6425.18 592.279 1
4 5 -4 4742.4 573.916 -2
4 -5 2 4742.4 573.916 1
4 5 -5 3507.71 531.722 -2
4 -5 3 3507.71 531.722 1
4 5 -6 -111.34 473.178 -2
4 -5 4 -111.34 473.178 1
4 5 -7 4380.3 1026.4 -2
4 -5 5 4380.3 1026.4 1
4 5 -8 2645.44 712.416 -2
4 -5 6 2645.44 712.416 1
4 5 -9 3700.33 715.571 -2
4 -5 7 3700.33 715.571 1
4 5 -10 4941.32 1179.39 -2
4 -5 8 4941.32 1179.39 1
4 -4 -11 821.185 875.799 1
4 -4 -10 2567.67 890.888 1
4 -4 -9 728.46 785.977 1
4 -4 -8 5654.45 893.656 1
4 -4 -7 158.551 719.194 1
4 -4 -6 5587.3 812.782 1
4 -4 -5 1656.35 657.191 1
4 4 2 16039.2 1047.21 -2
4 -4 -4 16039.2 1047.21 1
4 4 1 4243.82 848.13 -2
4 -4 -3 4243.82 848.13 1
4 -4 -2 16468.5 871.728 1
4 4 -1 2263.5 700.558 -2
4 -4 -1 2263.5 700.558 1
4 4 -5 2420.34 638.078 -2
4 -4 3 2420.34 638.078 1
4 4 -6 9129.09 1044.88 -2
4 -4 4 9129.09 1044.88 1
4 4 -7 8162.41 997.105 -2
4 -4 5 8162.41 997.105 1
4 4 -8 5933.41 935.317 -2
4 -4 6 5933.41 935.317 1
4 -4 7 3372.52 651.471 1
4 4 -9 4962.94 1119.18 -2
4 -4 7 4962.94 1119.18 1
4 4 -10 260.19 1095.01 -2
4 -4 8 260.19 1095.01 1
4 4 -11 4128.65 1192.47 -2
4 -4 9 4128.65 1192.47 1
4 -3 -12 1061.19 915.721 1
4 -3 -11 3194.27 931.856 1
4 -3 -10 -213.803 824.129 1
4 -3 -9 5266.38 903.376 1
4 -3 -8 322.533 750.872 1
4 -3 -7 12886.1 961.991 1
4 -3 -6 3857.43 724.334 1
4 -3 -5 16711.8 956.858 1
4 -3 -4 6549.47 736.815 1
4 3 1 6332.29 856.098 -2
4 -3 -3 6332.29 856.098 1
4 3 0 21142.4 1026.69 -2
4 -3 -2 21142.4 1026.69 1
4 -3 -1 8195.99 704.335 1
4 3 -2 18088.3 947.194 -2
4 -3 0 18088.3 947.194 1
4 3 -3 13915.2 883.909 -2
4 -3 1 13915.2 883.909 1
4 3 -4 13224.6 869.777 -2
4 -3 2 13224.6 869.777 1
4 3 -5 6585.93 795.29 -2
4 -3 3 6585.93 795.29 1
4 3 -6 6360.17 780.406 -2
4 -3 4 6360.17 780.406 1
4 3 -7 7869.06 581.925 -2
4 -3 5 7869.06 581.925 1
4 3 -8 6961.59 905.98 -2
4 -3 6 6961.59 905.98 1
4 -3 7 2141.59 615.477 1
4 3 -9 3731.46 650.794 -2
4 -3 7 3731.46 650.794 1
4 3 -10 14305.8 1276.13 -2
4 -3 8 14305.8 1276.13 1
4 3 -11 3551.09 1132.71 -2
4 -3 9 3551.09 1132.71 1
4 -2 -12 2420.03 887.063 1
4 -2 -11 -271.282 833.462 1
4 -2 -10 455.9 798.707 1
4 -2 -9 304.94 750.884 1
4 -2 -8 5263.27 826.883 1
4 -2 -7 3311.17 752.97 1
4 -2 -6 12776.9 915.563 1
4 -2 -5 4282.51 708.753 1
4 -2 -4 5767.45 692.815 1
4 2 1 3997.5 790.201 -2
4 -2 -3 3997.5 790.201 1
4 2 0 16957.8 991.182 -2
4 -2 -2 16957.8 991.182 1
4 2 -1 8424.64 847.569 -2
4 -2 -1 8424.64 847.569 1
4 2 -2 18656.6 994.698 -2
4 -2 0 18656.6 994.698 1
4 2 -3 14742.3 947.022 -2
4 -2 1 14742.3 947.022 1
4 -2 2 13371 801.772 1
4 2 -5 3671.2 548.214 -2
4 -2 3 3671.2 548.214 1
4 2 -7 16480 1014.86 -2
4 -2 5 16480 1014.86 1
4 -2 7 14797.9 831.833 1
4 2 -9 14737.9 1039.01 -2
4 -2 7 14737.9 1039.01 1
4 2 -10 2806.95 671.127 -2
4 -2 8 2806.95 671.127 1
4 2 -11 3988.84 1098.51 -2
4 -2 9 3988.84 1098.51 1
4 2 -12 1494.2 1059.75 -2
4 -2 10 1494.2 1059.75 1
4 -1 -12 388.664 844.765 1
4 -1 -11 1022.01 819.598 1
4 -1 -10 478.448 774.943 1
4 -1 -9 4587.42 843.231 1
4 -1 -8 195.702 676.856 1
4 -1 -7 18428.3 1026.34 1
4 -1 -6 1106.03 633.52 1
4 -1 -5 7721.98 756.068 1
4 -1 -4 2913.03 637.967 1
4 -1 -3 4909.26 672.267 1
4 -1 -2 1389.22 609.94 1
4 1 -1 9071.77 900.724 -2
4 -1 -1 9071.77 900.724 1
4 1 -2 5101.24 848.731 -2
4 -1 0 5101.24 848.731 1
4 1 -3 17501.5 724.809 -2
4 -1 1 17501.5 724.809 1
4 1 -4 6551.57 912.557 -2
4 -1 2 6551.57 912.557 1
4 1 -5 4276.14 843.031 -2
4 -1 3 4276.14 843.031 1
4 1 -6 1771.73 842.793 -2
4 -1 4 1771.73 842.793 1
4 1 -7 10209.8 951.263 -2
4 -1 5 10209.8 951.263 1
4 1 -9 3627.34 934.87 -2
4 -1 7 3627.34 934.87 1
4 1 -11 2437.26 981.874 -2
4 -1 9 2437.26 981.874 1
4 -1 10 -155.001 823.58 1
4 0 -12 3185.81 907.821 1
4 0 -11 956.92 830.473 1
4 0 -10 3827.04 827.415 1
4 0 -9 1965.87 733.803 1
4 0 -8 7452.83 855.861 1
4 0 -7 -0.15876 632.473 1
4 0 -6 26131.3 1092.43 1
4 0 3 3587 852.164 -2
4 0 -5 3587 852.164 1
4 0 -4 6649.94 730.768 1
4 0 -3 -28.7989 572.975 1
4 0 0 13618.8 988.936 -2
4 0 -2 13618.8 988.936 1
4 0 -1 418.575 594.327 1
4 0 -2 6446.96 632.763 -2
4 0 0 6446.96 632.763 1
4 0 -3 2904.63 864.649 -2
4 0 1 2904.63 864.649 1
4 0 -4 3884.63 873.594 -2
4 0 2 3884.63 873.594 1
4 0 -5 3264.3 911.897 -2
4 0 3 3264.3 911.897 1
4 0 -6 17343.1 1132.99 -2
4 0 4 17343.1 1132.99 1
4 0 -7 2349.65 876.171 -2
4 0 5 2349.65 876.171 1
4 0 -8 2815.83 961.843 -2
4 0 6 2815.83 961.843 1
4 0 -9 6483.67 1028.35 -2
4 0 7 6483.67 1028.35 1
4 0 -10 1890.46 990.761 -2
4 0 8 1890.46 990.761 1
4 0 -11 4770.77 1083.18 -2
4 0 9 4770.77 1083.18 1
4 0 -12 532.358 1007.98 -2
4 0 10 532.358 1007.98 1
4 1 -12 74.108 782.562 1
4 1 -11 869.284 824.248 1
4 1 -10 561.932 705.642 1
4 1 -9 3887.9 792.036 1
4 1 -8 394.179 642.64 1
4 1 -7 21422.5 1044.41 1
4 -1 4 1118.71 841.641 -2
4 1 -6 1118.71 841.641 1
4 -1 3 8503.49 941.945 -2
4 1 -5 8503.49 941.945 1
4 -1 2 5743.56 896.934 -2
4 1 -4 5743.56 896.934 1
4 -1 1 9269.76 966.15 -2
4 1 -3 9269.76 966.15 1
4 1 -2 1165.31 614.935 1
4 1 -1 6953.14 777.548 1
4 -1 -2 7014.24 936.016 -2
4 1 0 7014.24 936.016 1
4 -1 -3 15635.1 1046.6 -2
4 1 1 15635.1 1046.6 1
4 -1 -4 8044.32 951.488 -2
4 1 2 8044.32 951.488 1
4 -1 -5 5575.39 935.541 -2
4 1 3 5575.39 935.541 1
4 -1 -6 2872.81 890.213 -2
4 1 4 2872.81 890.213 1
4 -1 -7 8751.38 1061.21 -2
4 1 5 8751.38 1061.21 1
4 -1 -8 13133.7 1162.7 -2
4 1 6 13133.7 1162.7 1
4 -1 -9 2342.26 992.896 -2
4 1 7 2342.26 992.896 1
4 -1 -11 1439.86 1088.32 -2
4 1 9 1439.86 1088.32 1
4 1 10 176.141 843.554 1
4 2 -12 3033.55 864.164 1
4 2 -11 -173.601 759.935 1
4 2 -10 1229.65 714.261 1
4 2 -9 673.216 699.355 1
4 2 -8 7302.03 797.878 1
4 2 -7 2847.68 685.027 1
4 2 -6 17179.6 978.358 1
4 2 -5 5416.47 749.455 1
4 -2 2 10789.6 1000.97 -2
4 2 -4 10789.6 1000.97 1
4 -2 1 6779.95 938.721 -2
4 2 -3 6779.95 938.721 1
4 -2 0 18635.6 1158.26 -2
4 2 -2 18635.6 1158.26 1
4 2 -1 5260.69 716.585 1
4 -2 -2 18328.6 1129.16 -2
4 2 0 18328.6 1129.16 1
4 -2 -3 11687.8 1020.54 -2
4 2 1 11687.8 1020.54 1
4 -2 -4 13042.3 1091.2 -2
4 2 2 13042.3 1091.2 1
4 -2 -5 3766.46 912.496 -2
4 2 3 3766.46 912.496 1
4 -2 -6 19821.5 1237.12 -2
4 2 4 19821.5 1237.12 1
4 -2 -8 10946.3 1143.36 -2
4 2 6 10946.3 1143.36 1
4 -2 -9 14041.9 1254.68 -2
4 2 7 14041.9 1254.68 1
4 -2 -10 3351.51 1107.82 -2
4 2 8 3351.51 1107.82 1
4 2 9 3378.7 910.826 1
4 2 10 840.455 942.353 1
4 3 -12 -472.454 789.297 1
4 3 -11 3239.18 820.937 1
4 3 -10 75.255 708.656 1
4 3 -9 4310.97 751.761 1
4 3 -8 230.137 648.966 1
4 3 -7 16263.5 962.691 1
4 3 -6 5553.65 782.642 1
4 -3 3 19319.2 1140.81 -2
4 3 -5 19319.2 1140.81 1
4 3 -4 7594.15 812.048 1
4 3 -3 2296.02 641.802 1
4 -3 0 23204.2 1188.47 -2
4 3 -2 23204.2 1188.47 1
4 -3 -1 9547.68 1041.64 -2
4 3 -1 9547.68 1041.64 1
4 -3 -2 18972.1 1158.32 -2
4 3 0 18972.1 1158.32 1
4 -3 -4 12859.3 1056.08 -2
4 3 2 12859.3 1056.08 1
4 -3 -5 8908.64 1055.25 -2
4 3 3 8908.64 1055.25 1
4 -3 -6 5576.73 1064.04 -2
4 3 4 5576.73 1064.04 1
4 -3 -7 7708.63 1069.1 -2
4 3 5 7708.63 1069.1 1
4 -3 -8 8592.42 1165.84 -2
4 3 6 8592.42 1165.84 1
4 -3 -9 4355.44 1158.92 -2
4 3 7 4355.44 1158.92 1
4 -3 -10 14519.7 1409.63 -2
4 3 8 14519.7 1409.63 1
4 3 9 2686.25 1007.59 1
4 4 -11 657.691 715.477 1
4 4 -10 3030.07 770.943 1
4 4 -9 277.876 673.206 1
4 4 -8 7303.5 791.621 1
4 -4 5 3214.35 908.721 -2
4 4 -7 3214.35 908.721 1
4 4 -6 7629.11 806.696 1
4 -4 3 855.798 897.651 -2
4 4 -5 855.798 897.651 1
4 4 -4 16962.8 962.211 1
4 -4 1 6521.5 981.641 -2
4 4 -3 6521.5 981.641 1
4 -4 0 19536.7 1146.8 -2
4 4 -2 19536.7 1146.8 1
4 -4 -1 1195.71 927.457 -2
4 4 -1 1195.71 927.457 1
4 -4 -2 17028 1161.36 -2
4 4 0 17028 1161.36 1
4 -4 -3 6142.27 1004.56 -2
4 4 1 6142.27 1004.56 1
4 -4 -4 12638.6 1158.54 -2
4 4 2 12638.6 1158.54 1
4 -4 -5 2916.27 993.307 -2
4 4 3 2916.27 993.307 1
4 -4 -6 8254.68 1069.75 -2
4 4 4 8254.68 1069.75 1
4 -4 -7 9109.15 1154.17 -2
4 4 5 9109.15 1154.17 1
4 -4 -8 5330.68 1178.93 -2
4 4 6 5330.68 1178.93 1
4 -4 -9 3652.01 1182.7 -2
4 4 7 3652.01 1182.7 1
4 -4 -10 565.346 1176.56 -2
4 4 8 565.346 1176.56 1
4 -4 -11 2197.48 1204.65 -2
4 4 9 2197.48 1204.65 1
4 5 -10 487.322 651.004 1
4 5 -9 6350.98 778.625 1
4 5 -8 940.494 614.064 1
4 -5 5 7499.25 965.427 -2
4 5 -7 7499.25 965.427 1
4 -5 4 392.897 895.45 -2
4 5 -6 392.897 895.45 1
4 5 -5 6845.43 792.665 1
4 -5 2 2890.28 918.045 -2
4 5 -4 2890.28 918.045 1
4 5 -3 4552.98 724.698 1
4 -5 0 3239.64 927.714 -2
4 5 -2 3239.64 927.714 1
4 -5 -2 3129.25 985.422 -2
4 5 0 3129.25 985.422 1
4 -5 -3 5419.28 1035.28 -2
4 5 1 5419.28 1035.28 1
4 -5 -4 4673.46 1061.61 -2
4 5 2 4673.46 1061.61 1
4 -5 -5 2575.8 1033.18 -2
4 5 3 2575.8 1033.18 1
4 -5 -6 609.247 985.482 -2
4 5 4 609.247 985.482 1
4 -5 -7 4862.52 1114.02 -2
4 5 5 4862.52 1114.02 1
4 -5 -8 563.302 1097.78 -2
4 5 6 563.302 1097.78 1
4 -5 -9 2728.78 1152.89 -2
4 5 7 2728.78 1152.89 1
4 -5 -10 5621.69 1246.87 -2
4 5 8 5621.69 1246.87 1
4 -6 7 1888.87 838.303 -2
4 6 -9 1888.87 838.303 1
4 -6 6 3024.77 901.927 -2
4 6 -8 3024.77 901.927 1
4 -6 5 2024.37 916.726 -2
4 6 -7 2024.37 916.726 1
4 -6 4 6478.25 999.607 -2
4 6 -6 6478.25 999.607 1
4 6 -5 285.583 625.253 1
4 -6 2 10810.4 1088.64 -2
4 6 -4 10810.4 1088.64 1
4 6 -3 935.25 668.736 1
4 6 -2 6938.15 832.87 1
4 -6 -1 1498.58 955.989 -2
4 6 -1 1498.58 955.989 1
4 -6 -2 6461.31 1048.35 -2
4 6 0 6461.31 1048.35 1
4 -6 -3 2061.66 981.428 -2
4 6 1 2061.66 981.428 1
4 -6 -4 4400.38 1007.29 -2
4 6 2 4400.38 1007.29 1
4 -6 -5 4987.97 1098.31 -2
4 6 3 4987.97 1098.31 1
4 -6 -6 4294.59 1115.21 -2
4 6 4 4294.59 1115.21 1
4 -6 -7 3391.46 1116.62 -2
4 6 5 3391.46 1116.62 1
4 -6 -8 2075.83 1158.08 -2
4 6 6 2075.83 1158.08 1
4 -6 -9 1917.32 1217.49 -2
4 6 7 1917.32 1217.49 1
4 -7 5 9817.85 1023.38 -2
4 7 -7 9817.85 1023.38 1
4 -7 4 100.457 929.557 -2
4 7 -6 100.457 929.557 1
4 -7 3 10827.7 1100.16 -2
4 7 -5 10827.7 1100.16 1
4 -7 2 2675.03 911.221 -2
4 7 -4 2675.03 911.221 1
4 -7 1 10896.9 1093.07 -2
4 7 -3 10896.9 1093.07 1
4 -7 0 3376.07 978.269 -2
4 7 -2 3376.07 978.269 1
4 -7 -1 19130.1 1270.42 -2
4 7 -1 19130.1 1270.42 1
4 -7 -2 6456.98 1110.65 -2
4 7 0 6456.98 1110.65 1
4 -7 -3 10426.1 1163.5 -2
4 7 1 10426.1 1163.5 1
4 -7 -4 3482.18 1046.11 -2
4 7 2 3482.18 1046.11 1
4 7 3 4879.85 972.746 1
4 -7 -6 3182.62 1186.44 -2
4 7 4 3182.62 1186.44 1
4 7 5 1872.33 939.941 1
4 -7 -8 3325.89 1216.98 -2
4 7 6 3325.89 1216.98 1
4 -8 4 2941.9 999.552 -2
4 8 -6 2941.9 999.552 1
4 -8 3 1660.43 951.455 -2
4 8 -5 1660.43 951.455 1
4 -8 2 3650.86 998.488 -2
4 8 -4 3650.86 998.488 1
4 -8 1 4745.04 1001.61 -2
4 8 -3 4745.04 1001.61 1
4 8 -2 5049.59 837.605 1
4 -8 -1 6825.68 1126.47 -2
4 8 -1 6825.68 1126.47 1
4 -8 -2 3836.47 1054.25 -2
4 8 0 3836.47 1054.25 1
4 8 1 9188.33 1023.47 1
4 8 2 2449.54 878.971 1
4 -8 -5 5021.05 1147.3 -2
4 8 3 5021.05 1147.3 1
4 -8 -6 4108.57 1193.4 -2
4 8 4 4108.57 1193.4 1
4 -8 -7 5997.77 1276.23 -2
4 8 5 5997.77 1276.23 1
4 -9 3 8116.36 1089.35 -2
4 9 -5 8116.36 1089.35 1
4 9 -4 1114 774.132 1
4 -9 1 5188.98 1063.59 -2
4 9 -3 5188.98 1063.59 1
4 -9 0 1075.78 1008.3 -2
4 9 -2 1075.78 1008.3 1
4 -9 -1 8875.56 1167.56 -2
4 9 -1 8875.56 1167.56 1
4 -9 -2 309.292 1031.08 -2
4 9 0 309.292 1031.08 1
4 9 1 5938.45 1010.28 1
4 9 2 2153.77 904.697 1
4 -9 -5 7532 1246.96 -2
4 9 3 7532 1246.96 1
5 7 2 2605.15 871.772 -2
5 -7 -5 2605.15 871.772 1
5 7 1 6336.6 951.779 -2
5 -7 -4 6336.6 951.779 1
5 7 0 548.41 660.337 -2
5 -7 -3 548.41 660.337 1
5 7 -1 3627.69 797.045 -2
5 -7 -2 3627.69 797.045 1
5 7 -2 2080.06 742.196 -2
5 -7 -1 2080.06 742.196 1
5 7 -3 2391.14 1202.04 -2
5 -7 0 2391.14 1202.04 1
5 7 -4 1585.82 1350.53 -2
5 -7 1 1585.82 1350.53 1
5 7 -5 8762.27 1413.74 -2
5 -7 2 8762.27 1413.74 1
5 6 4 5076.93 746.08 -2
5 -6 -7 5076.93 746.08 1
5 6 3 2110.43 844.817 -2
5 -6 -6 2110.43 844.817 1
5 6 2 2732.67 623.727 -2
5 -6 -5 2732.67 623.727 1
5 6 1 1138.57 617.827 -2
5 -6 -4 1138.57 617.827 1
5 6 0 4322.45 855.149 -2
5 -6 -3 4322.45 855.149 1
5 6 -1 1667.45 697.283 -2
5 -6 -2 1667.45 697.283 1
5 6 -2 5356.66 792.344 -2
5 -6 -1 5356.66 792.344 1
5 6 -3 4418.37 736.417 -2
5 -6 0 4418.37 736.417 1
5 6 -4 5758.72 780.787 -2
5 -6 1 5758.72 780.787 1
5 6 -5 1469 1129.92 -2
5 -6 2 1469 1129.92 1
5 6 -6 4748.25 1284.11 -2
5 -6 3 4748.25 1284.11 1
5 6 -7 2460.94 1274.59 -2
5 -6 4 2460.94 1274.59 1
5 5 5 2561.35 1232.79 -2
5 -5 -8 2561.35 1232.79 1
5 5 4 3101.7 1184.49 -2
5 -5 -7 3101.7 1184.49 1
5 5 3 2031.94 1119.95 -2
5 -5 -6 2031.94 1119.95 1
5 5 2 3261.78 1110.4 -2
5 -5 -5 3261.78 1110.4 1
5 5 1 6107.84 1140.81 -2
5 -5 -4 6107.84 1140.81 1
5 5 0 1250.66 932.737 -2
5 -5 -3 1250.66 932.737 1
5 5 -1 6150.09 1047.09 -2
5 -5 -2 6150.09 1047.09 1
5 5 -2 2687.56 940.237 -2
5 -5 -1 2687.56 940.237 1
5 5 -3 3100.21 901.587 -2
5 -5 0 3100.21 901.587 1
5 5 -4 3222.53 857.249 -2
5 -5 1 3222.53 857.249 1
5 5 -5 7166.28 1353.02 -2
5 -5 2 7166.28 1353.02 1
5 5 -6 844.617 1055.42 -2
5 -5 3 844.617 1055.42 1
5 5 -7 8664.28 1440.59 -2
5 -5 4 8664.28 1440.59 1
5 5 -8 2333.83 1175.4 -2
5 -5 5 2333.83 1175.4 1
5 4 6 4124.19 1370.71 -2
5 -4 -9 4124.19 1370.71 1
5 4 5 2677.31 1209.72 -2
5 -4 -8 2677.31 1209.72 1
5 4 4 3922.38 1219.88 -2
5 -4 -7 3922.38 1219.88 1
5 4 3 1202.71 1041.44 -2
5 -4 -6 1202.71 1041.44 1
5 4 2 2350.08 1072.07 -2
5 -4 -5 2350.08 1072.07 1
5 4 1 2253.64 1016.05 -2
5 -4 -4 2253.64 1016.05 1
5 4 0 5941.54 1076.91 -2
5 -4 -3 5941.54 1076.91 1
5 4 -1 4552.77 1003.74 -2
5 -4 -2 4552.77 1003.74 1
5 4 -2 10494.3 1140.91 -2
5 -4 -1 10494.3 1140.91 1
5 4 -3 1603.29 838.043 -2
5 -4 0 1603.29 838.043 1
5 4 -4 2328.48 882.31 -2
5 -4 1 2328.48 882.31 1
5 4 -5 3468.27 848.445 -2
5 -4 2 3468.27 848.445 1
5 4 -6 5818.46 925.646 -2
5 -4 3 5818.46 925.646 1
5 4 -7 2518.66 661.176 -2
5 -4 4 2518.66 661.176 1
5 4 -8 6290.85 1227.7 -2
5 -4 5 6290.85 1227.7 1
5 4 -9 2274.16 1125.74 -2
5 -4 6 2274.16 1125.74 1
5 3 6 2284.51 883.759 -2
5 -3 -9 2284.51 883.759 1
5 3 5 3361.17 831.54 -2
5 -3 -8 3361.17 831.54 1
5 3 4 2143.64 1136.03 -2
5 -3 -7 2143.64 1136.03 1
5 3 3 5361.89 823.801 -2
5 -3 -6 5361.89 823.801 1
5 3 2 10160.7 1312.22 -2
5 -3 -5 10160.7 1312.22 1
5 3 1 6949.16 1158.16 -2
5 -3 -4 6949.16 1158.16 1
5 3 0 3309.64 1009.1 -2
5 -3 -3 3309.64 1009.1 1
5 3 -1 9626.9 1187.93 -2
5 -3 -2 9626.9 1187.93 1
5 3 -2 2444.49 945.589 -2
5 -3 -1 2444.49 945.589 1
5 3 -3 11829.1 1184.83 -2
5 -3 0 11829.1 1184.83 1
5 3 -4 3160.5 897.355 -2
5 -3 1 3160.5 897.355 1
5 3 -5 18113.3 1345.98 -2
5 -3 2 18113.3 1345.98 1
5 3 -6 4317.14 951.653 -2
5 -3 3 4317.14 951.653 1
5 3 -8 1726.59 881.597 -2
5 -3 5 1726.59 881.597 1
5 3 -9 4674.35 1136.07 -2
5 -3 6 4674.35 1136.07 1
5 2 7 2887.78 1282.45 -2
5 -2 -10 2887.78 1282.45 1
5 2 6 3211.6 1218.21 -2
5 -2 -9 3211.6 1218.21 1
5 2 5 1519.59 1134.73 -2
5 -2 -8 1519.59 1134.73 1
5 2 4 3137.67 1140.17 -2
5 -2 -7 3137.67 1140.17 1
5 2 3 387.504 756.219 -2
5 -2 -6 387.504 756.219 1
5 2 2 3742.59 1058.03 -2
5 -2 -5 3742.59 1058.03 1
5 2 1 1744.79 974.702 -2
5 -2 -4 1744.79 974.702 1
5 2 0 6219.45 1089.08 -2
5 -2 -3 6219.45 1089.08 1
5 2 -1 3795.04 1012.51 -2
5 -2 -2 3795.04 1012.51 1
5 2 -2 15043.4 1328.53 -2
5 -2 -1 15043.4 1328.53 1
5 2 -3 3242.63 983.949 -2
5 -2 0 3242.63 983.949 1
5 2 -4 4691.68 1030.8 -2
5 -2 1 4691.68 1030.8 1
5 2 -5 1640.71 953.521 -2
5 -2 2 1640.71 953.521 1
5 2 -6 3919.23 985.102 -2
5 -2 3 3919.23 985.102 1
5 2 -7 1373.85 683.323 -2
5 -2 4 1373.85 683.323 1
5 2 -9 4810.03 733.607 -2
5 -2 6 4810.03 733.607 1
5 1 7 2384.76 1203.02 -2
5 -1 -10 2384.76 1203.02 1
5 1 6 1808.33 1184.09 -2
5 -1 -9 1808.33 1184.09 1
5 1 5 5696.74 1276.98 -2
5 -1 -8 5696.74 1276.98 1
5 1 4 3869.43 1173.3 -2
5 -1 -7 3869.43 1173.3 1
5 1 3 828.799 725.237 -2
5 -1 -6 828.799 725.237 1
5 1 2 10255.6 1327.56 -2
5 -1 -5 10255.6 1327.56 1
5 1 1 11853.3 1305.19 -2
5 -1 -4 11853.3 1305.19 1
5 1 0 4940.26 1118.96 -2
5 -1 -3 4940.26 1118.96 1
5 1 -1 13484.3 1334.97 -2
5 -1 -2 13484.3 1334.97 1
5 1 -2 4454.31 1058.91 -2
5 -1 -1 4454.31 1058.91 1
5 1 -3 7471.86 1176.8 -2
5 -1 0 7471.86 1176.8 1
5 1 -4 3667.35 1009.61 -2
5 -1 1 3667.35 1009.61 1
5 1 -5 10593.2 891.916 -2
5 -1 2 10593.2 891.916 1
5 1 -6 772.373 695.749 -2
5 -1 3 772.373 695.749 1
5 1 -7 7730.62 1246.73 -2
5 -1 4 7730.62 1246.73 1
5 1 -8 2827.45 1158.65 -2
5 -1 5 2827.45 1158.65 1
5 1 -9 5709.03 1161.26 -2
5 -1 6 5709.03 1161.26 1
5 1 -10 5214.31 1234.13 -2
5 -1 7 5214.31 1234.13 1
5 0 7 544.129 1124.03 -2
5 0 -10 544.129 1124.03 1
5 0 6 5990.67 1331.62 -2
5 0 -9 5990.67 1331.62 1
5 0 5 650.849 1076.82 -2
5 0 -8 650.849 1076.82 1
5 0 4 4518.89 1179.05 -2
5 0 -7 4518.89 1179.05 1
5 0 3 1775.29 1042.38 -2
5 0 -6 1775.29 1042.38 1
5 0 2 1513.79 985.533 -2
5 0 -5 1513.79 985.533 1
5 0 1 978.345 951.395 -2
5 0 -4 978.345 951.395 1
5 0 0 11307.6 1322.89 -2
5 0 -3 11307.6 1322.89 1
5 0 -1 6039.1 1150.3 -2
5 0 -2 6039.1 1150.3 1
5 0 -2 18149.8 1491.75 -2
5 0 -1 18149.8 1491.75 1
5 0 -3 3084.26 1069.9 -2
5 0 0 3084.26 1069.9 1
5 0 -4 2645.24 731.229 -2
5 0 1 2645.24 731.229 1
5 0 -5 450.792 962.521 -2
5 0 2 450.792 962.521 1
5 0 -6 2762.97 1086.07 -2
5 0 3 2762.97 1086.07 1
5 0 -7 1499.78 1008.64 -2
5 0 4 1499.78 1008.64 1
5 0 -8 5821.84 1213.09 -2
5 0 5 5821.84 1213.09 1
5 0 -9 3477.41 1219.33 -2
5 0 6 3477.41 1219.33 1
5 0 -10 8257.72 1328.61 -2
5 0 7 8257.72 1328.61 1
5 -1 7 1866.9 1158.18 -2
5 1 -10 1866.9 1158.18 1
5 -1 6 1666.3 1108.69 -2
5 1 -9 1666.3 1108.69 1
5 -1 5 6985.73 1287.13 -2
5 1 -8 6985.73 1287.13 1
5 -1 4 4298.87 1136.07 -2
5 1 -7 4298.87 1136.07 1
5 -1 3 850.429 1043.97 -2
5 1 -6 850.429 1043.97 1
5 -1 2 9997.55 1347.1 -2
5 1 -5 9997.55 1347.1 1
5 -1 1 15399.1 1481.14 -2
5 1 -4 15399.1 1481.14 1
5 -1 0 5979.54 1210.81 -2
5 1 -3 5979.54 1210.81 1
5 -1 -1 15076.4 1466.48 -2
5 1 -2 15076.4 1466.48 1
5 -1 -2 5036.66 1107.89 -2
5 1 -1 5036.66 1107.89 1
5 -1 -3 7178.62 871.16 -2
5 1 0 7178.62 871.16 1
5 -1 -4 3767.17 1096.02 -2
5 1 1 3767.17 1096.02 1
5 -1 -5 10402.2 1304.17 -2
5 1 2 10402.2 1304.17 1
5 -1 -6 985.96 1074.19 -2
5 1 3 985.96 1074.19 1
5 -1 -7 4791.16 1225.79 -2
5 1 4 4791.16 1225.79 1
5 -1 -8 1886.65 1162.48 -2
5 1 5 1886.65 1162.48 1
5 -1 -9 5162.72 1299.75 -2
5 1 6 5162.72 1299.75 1
5 -1 -10 3634.91 1305.22 -2
5 1 7 3634.91 1305.22 1
5 -2 7 4043.81 1209.92 -2
5 2 -10 4043.81 1209.92 1
5 -2 6 5344.1 1220.71 -2
5 2 -9 5344.1 1220.71 1
5 -2 5 2731.39 1073.78 -2
5 2 -8 2731.39 1073.78 1
5 -2 4 3365.84 1144.07 -2
5 2 -7 3365.84 1144.07 1
5 -2 3 1732.51 1072.91 -2
5 2 -6 1732.51 1072.91 1
5 -2 2 3152.7 1100.27 -2
5 2 -5 3152.7 1100.27 1
5 -2 1 2456.73 1089.48 -2
5 2 -4 2456.73 1089.48 1
5 -2 0 6723.48 1230.45 -2
5 2 -3 6723.48 1230.45 1
5 -2 -1 5038.53 1164.32 -2
5 2 -2 5038.53 1164.32 1
5 -2 -2 16673.3 1553.94 -2
5 2 -1 16673.3 1553.94 1
5 -2 -3 3821.68 1176.04 -2
5 2 0 3821.68 1176.04 1
5 -2 -4 5260.19 1237.75 -2
5 2 1 5260.19 1237.75 1
5 -2 -5 2714.31 1167.23 -2
5 2 2 2714.31 1167.23 1
5 -2 -6 4066.92 1182.32 -2
5 2 3 4066.92 1182.32 1
5 -2 -7 1280.01 1066.22 -2
5 2 4 1280.01 1066.22 1
5 -2 -8 8553.06 1361.93 -2
5 2 5 8553.06 1361.93 1
5 -2 -9 4935.88 1348.08 -2
5 2 6 4935.88 1348.08 1
5 -2 -10 12044.2 1604.81 -2
5 2 7 12044.2 1604.81 1
5 -3 6 1989.37 1060.36 -2
5 3 -9 1989.37 1060.36 1
5 -3 5 2234.71 1088.16 -2
5 3 -8 2234.71 1088.16 1
5 -3 4 3399.78 1127.22 -2
5 3 -7 3399.78 1127.22 1
5 -3 3 5868.69 1232.43 -2
5 3 -6 5868.69 1232.43 1
5 -3 2 12103.2 1435.59 -2
5 3 -5 12103.2 1435.59 1
5 -3 1 8017.17 1277.53 -2
5 3 -4 8017.17 1277.53 1
5 -3 0 3295.98 1129.46 -2
5 3 -3 3295.98 1129.46 1
5 -3 -1 12105.1 994.298 -2
5 3 -2 12105.1 994.298 1
5 -3 -2 3863.89 1155.28 -2
5 3 -1 3863.89 1155.28 1
5 -3 -3 12622.7 1422.23 -2
5 3 0 12622.7 1422.23 1
5 -3 -4 2312.27 1144.97 -2
5 3 1 2312.27 1144.97 1
5 -3 -5 18047.8 1578.19 -2
5 3 2 18047.8 1578.19 1
5 -3 -6 4439.32 1263.53 -2
5 3 3 4439.32 1263.53 1
5 -3 -7 11393.7 1490.4 -2
5 3 4 11393.7 1490.4 1
5 -3 -8 1695.08 1239.34 -2
5 3 5 1695.08 1239.34 1
5 -3 -9 5211.78 1321.08 -2
5 3 6 5211.78 1321.08 1
5 -4 6 5469.42 1175.21 -2
5 4 -9 5469.42 1175.21 1
5 -4 5 5602.64 1176.5 -2
5 4 -8 5602.64 1176.5 1
5 -4 4 5254.74 1210.7 -2
5 4 -7 5254.74 1210.7 1
5 -4 3 2556.42 1159.26 -2
5 4 -6 2556.42 1159.26 1
5 -4 2 3446.56 1216.28 -2
5 4 -5 3446.56 1216.28 1
5 -4 1 2890.01 1145.02 -2
5 4 -4 2890.01 1145.02 1
5 -4 0 5721.92 897.279 -2
5 4 -3 5721.92 897.279 1
5 -4 -1 4840.15 1238.67 -2
5 4 -2 4840.15 1238.67 1
5 -4 -2 12051.7 1421.82 -2
5 4 -1 12051.7 1421.82 1
5 -4 -3 2140.78 1155.6 -2
5 4 0 2140.78 1155.6 1
5 -4 -4 5124.38 1279 -2
5 4 1 5124.38 1279 1
5 -4 -5 3306.11 1251.49 -2
5 4 2 3306.11 1251.49 1
5 -4 -6 2845.17 1198.78 -2
5 4 3 2845.17 1198.78 1
5 -4 -7 3305.76 1256.8 -2
5 4 4 3305.76 1256.8 1
5 -4 -8 5007.24 1377.91 -2
5 4 5 5007.24 1377.91 1
5 -4 -9 2124.41 1234.57 -2
5 4 6 2124.41 1234.57 1
5 -5 5 4847.86 1157.87 -2
5 5 -8 4847.86 1157.87 1
5 -5 4 4473.8 1128.96 -2
5 5 -7 4473.8 1128.96 1
5 -5 3 1923.9 1103.88 -2
5 5 -6 1923.9 1103.88 1
5 -5 2 4334.48 1241.72 -2
5 5 -5 4334.48 1241.72 1
5 -5 1 5048.29 1258.3 -2
5 5 -4 5048.29 1258.3 1
5 -5 0 1737.54 798.421 -2
5 5 -3 1737.54 798.421 1
5 -5 -1 6491.99 1308.16 -2
5 5 -2 6491.99 1308.16 1
5 -5 -2 2344.91 1120.18 -2
5 5 -1 2344.91 1120.18 1
5 -5 -3 2960.68 1262.31 -2
5 5 0 2960.68 1262.31 1
5 -5 -4 3502.8 1265.98 -2
5 5 1 3502.8 1265.98 1
5 -5 -5 7552.79 1403.92 -2
5 5 2 7552.79 1403.92 1
5 -5 -6 463.817 955.918 -2
5 5 3 463.817 955.918 1
5 -5 -7 11539.1 1594.96 -2
5 5 4 11539.1 1594.96 1
5 -5 -8 3112.05 1349.24 -2
5 5 5 3112.05 1349.24 1
5 -6 4 5682.16 1234.19 -2
5 6 -7 5682.16 1234.19 1
5 -6 3 3610.3 1188.91 -2
5 6 -6 3610.3 1188.91 1
5 -6 2 4162.53 1215.24 -2
5 6 -5 4162.53 1215.24 1
5 -6 1 2485.8 1148.39 -2
5 6 -4 2485.8 1148.39 1
5 -6 0 5276.48 1253.21 -2
5 6 -3 5276.48 1253.21 1
5 -6 -1 2256.87 1133.6 -2
5 6 -2 2256.87 1133.6 1
5 -6 -2 8619.14 1403.49 -2
5 6 -1 8619.14 1403.49 1
5 -6 -3 5199.18 1255.4 -2
5 6 0 5199.18 1255.4 1
5 -6 -4 6286.91 1312.21 -2
5 6 1 6286.91 1312.21 1
5 -6 -5 1262.62 1227.77 -2
5 6 2 1262.62 1227.77 1
5 -6 -6 5193.22 1333.76 -2
5 6 3 5193.22 1333.76 1
5 -6 -7 1497.31 1229.55 -2
5 6 4 1497.31 1229.55 1
5 -7 2 3584.51 1186.08 -2
5 7 -5 3584.51 1186.08 1
5 -7 1 8884.72 972.9 -2
5 7 -4 8884.72 972.9 1
5 -7 0 1856.93 1105.48 -2
5 7 -3 1856.93 1105.48 1
5 -7 -1 3683.97 1201.1 -2
5 7 -2 3683.97 1201.1 1
5 -7 -2 2081.25 950.065 -2
5 7 -1 2081.25 950.065 1
5 -7 -3 3845.55 1235.26 -2
5 7 0 3845.55 1235.26 1
5 -7 -4 3024.1 1227.71 -2
5 7 1 3024.1 1227.71 1
5 -7 -5 8228.03 1508.64 -2
5 7 2 8228.03 1508.64 1
6 4 -1 710.401 1049.21 -2
6 -4 -3 710.401 1049.21 1
6 4 -2 5701.09 1109.83 -2
6 -4 -2 5701.09 1109.83 1
6 4 -3 944.759 1028.61 -2
6 -4 -1 944.759 1028.61 1
6 3 1 756.948 1138.85 -2
6 -3 -5 756.948 1138.85 1
6 3 0 1529.24 1151.51 -2
6 -3 -4 1529.24 1151.51 1
6 3 -1 3658.04 1132.86 -2
6 -3 -3 3658.04 1132.86 1
6 3 -2 6200.41 1147.76 -2
6 -3 -2 6200.41 1147.76 1
6 3 -3 4197.26 1080.27 -2
6 -3 -1 4197.26 1080.27 1
6 3 -4 2962.63 1084.52 -2
6 -3 0 2962.63 1084.52 1
6 3 -5 2239.13 1060.33 -2
6 -3 1 2239.13 1060.33 1
6 2 2 3057.64 1200 -2
6 -2 -6 3057.64 1200 1
6 2 1 3303.79 1184.39 -2
6 -2 -5 3303.79 1184.39 1
6 2 0 225.151 1064.42 -2
6 -2 -4 225.151 1064.42 1
6 2 -1 3345.37 1106.48 -2
6 -2 -3 3345.37 1106.48 1
6 2 -2 272.365 1068.29 -2
6 -2 -2 272.365 1068.29 1
6 2 -3 3510.62 1127.8 -2
6 -2 -1 3510.62 1127.8 1
6 2 -4 2743.72 1118.42 -2
6 -2 0 2743.72 1118.42 1
6 2 -5 5193.78 1102.57 -2
6 -2 1 5193.78 1102.57 1
6 2 -6 6672.91 1147.97 -2
6 -2 2 6672.91 1147.97 1
6 1 2 393.768 1118.28 -2
6 -1 -6 393.768 1118.28 1
6 1 1 8451.99 1256.97 -2
6 -1 -5 8451.99 1256.97 1
6 1 0 3466.72 1153.09 -2
6 -1 -4 3466.72 1153.09 1
6 1 -1 4709.56 1167.69 -2
6 -1 -3 4709.56 1167.69 1
6 1 -2 1722.72 1092.18 -2
6 -1 -2 1722.72 1092.18 1
6 1 -3 2152.33 1125.95 -2
6 -1 -1 2152.33 1125.95 1
6 1 -4 3637.37 1202.61 -2
6 -1 0 3637.37 1202.61 1
6 1 -5 1100.87 1097.08 -2
6 -1 1 1100.87 1097.08 1
6 1 -6 2995.8 1146.27 -2
6 -1 2 2995.8 1146.27 1
6 -1 3 4342.93 945.138 1
6 0 2 3028.44 1218.09 -2
6 0 -6 3028.44 1218.09 1
6 0 1 2354.44 1169.48 -2
6 0 -5 2354.44 1169.48 1
6 0 0 5608.93 1229.52 -2
6 0 -4 5608.93 1229.52 1
6 0 -3 3120.94 935.733 1
6 0 -2 4614.39 1192.12 -2
6 0 -2 4614.39 1192.12 1
6 0 -3 9734.41 1283.8 -2
6 0 -1 9734.41 1283.8 1
6 0 -4 6989.71 1248.6 -2
6 0 0 6989.71 1248.6 1
6 0 -5 3192.93 1146.32 -2
6 0 1 3192.93 1146.32 1
6 0 2 4712.06 988.025 1
6 0 3 -179.947 631.399 1
6 -1 2 248.738 1167.61 -2
6 1 -6 248.738 1167.61 1
6 -1 1 3295.51 1194.72 -2
6 1 -5 3295.51 1194.72 1
6 1 -4 1402.03 887.047 1
6 -1 -1 4582.38 1235.22 -2
6 1 -3 4582.38 1235.22 1
6 -1 -2 2523.89 1219.56 -2
6 1 -2 2523.89 1219.56 1
6 -1 -3 2807.85 1197.92 -2
6 1 -1 2807.85 1197.92 1
6 -1 -4 4110.04 1224.37 -2
6 1 0 4110.04 1224.37 1
6 1 1 1526.52 928.935 1
6 -1 -5 1533.04 1151.84 -2
6 1 1 1533.04 1151.84 1
6 1 2 3036.05 1011.33 1
6 -1 -6 2932.41 1202.36 -2
6 1 2 2932.41 1202.36 1
6 1 3 4069.4 1062.54 1
6 2 -6 1851.15 877.003 1
6 -2 1 5026.99 1216.44 -2
6 2 -5 5026.99 1216.44 1
6 2 -4 994.75 859.501 1
6 -2 -1 5224.15 1281.6 -2
6 2 -3 5224.15 1281.6 1
6 -2 -2 -200.128 1194.82 -2
6 2 -2 -200.128 1194.82 1
6 -2 -3 9366.29 1374.02 -2
6 2 -1 9366.29 1374.02 1
6 2 0 2437.38 682.223 1
6 2 1 2017.88 898.656 1
6 2 2 4014.81 1043.82 1
6 3 -5 2080.83 912.922 1
6 -3 0 4198.31 1282.19 -2
6 3 -4 4198.31 1282.19 1
6 -3 -1 2576.25 1244.94 -2
6 3 -3 2576.25 1244.94 1
6 -3 -2 6511.94 1293.54 -2
6 3 -2 6511.94 1293.54 1
6 3 -1 1984.45 641.827 1
6 3 0 3963.88 992.136 1
6 3 1 3223.6 1018.01 1
6 4 -3 101.097 873.259 1
6 4 -2 4325.39 1007.27 1
6 4 -1 1627.92 670.951 1
loop_
_twin_individual_id
_twin_individual_mass_fraction_refined
_oxdiff_twin_reflns_isolated
_oxdiff_twin_reflns_overlapped
_twin_individual_twin_lattice_type
_twin_individual_twin_matrix_11
_twin_individual_twin_matrix_12
_twin_individual_twin_matrix_13
_twin_individual_twin_matrix_21
_twin_individual_twin_matrix_22
_twin_individual_twin_matrix_23
_twin_individual_twin_matrix_31
_twin_individual_twin_matrix_32
_twin_individual_twin_matrix_33
1 0.787(3) 1418 2814 ref 1.0000 0.0000 0.0000 0.0000 1.0000 0.0000 0.0000 0.0000
1.0000
2 0.213(3) 0 2814 nmt 1.0006 0.0003 -0.0004 -0.0009 -1.0001 -0.0005 -0.5944
-0.0000 -1.0004
