#------------------------------------------------------------------------------
#$Date: 2022-02-04 21:19:41 +0200 (Fri, 04 Feb 2022) $
#$Revision: 272610 $
#$URL: file:///home/coder/svn-repositories/cod/cif/7/24/41/7244176.cif $
#------------------------------------------------------------------------------
#
# This file is available in the Crystallography Open Database (COD),
# http://www.crystallography.net/
#
# All data on this site have been placed in the public domain by the
# contributors.
#
data_7244176
loop_
_publ_author_name
'Vaganova, Tamara A.'
'Benassi, Enrico'
'Gatilov, Yurij V.'
'Chuikov, Igor P.'
'Pishchur, Denis P.'
'Malykhin, Evgenij V.'
_publ_section_title
;
 Polyhalogenated aminobenzonitriles vs. their co-crystals with 18-crown-6:
 amino group position as a tool to control crystal packing and solid-state
 fluorescence
;
_journal_issue                   5
_journal_name_full               CrystEngComm
_journal_page_first              987
_journal_page_last               1001
_journal_paper_doi               10.1039/D1CE01469B
_journal_volume                  24
_journal_year                    2022
_chemical_formula_moiety         'C7 H2 Cl F2 N2'
_chemical_formula_sum            'C7 H2 Cl F2 N2'
_chemical_formula_weight         187.56
_chemical_melting_point          379
_chemical_name_systematic        2-amino-4-chloro-3,6-difluorobenzonitrile
_space_group_crystal_system      monoclinic
_space_group_IT_number           14
_space_group_name_Hall           '-P 2ybc'
_space_group_name_H-M_alt        'P 1 21/c 1'
_atom_sites_solution_hydrogens   mixed
_atom_sites_solution_primary     direct
_atom_sites_solution_secondary   difmap
_audit_creation_method           SHELXL-2018/3
_audit_update_record
;
2021-10-27 deposited with the CCDC.	2021-12-20 downloaded from the CCDC.
;
_cell_angle_alpha                90
_cell_angle_beta                 98.090(2)
_cell_angle_gamma                90
_cell_formula_units_Z            4
_cell_length_a                   7.6581(3)
_cell_length_b                   7.3941(3)
_cell_length_c                   13.4241(6)
_cell_measurement_reflns_used    3904
_cell_measurement_temperature    296(2)
_cell_measurement_theta_max      27.87
_cell_measurement_theta_min      3.07
_cell_volume                     752.57(5)
_computing_cell_refinement       'Bruker SAINT'
_computing_data_collection       'Bruker APEX2'
_computing_data_reduction        'Bruker SAINT'
_computing_molecular_graphics    'Bruker SHELXTL'
_computing_publication_material  'Bruker SHELXTL'
_computing_structure_refinement  'SHELXL-2018/3 (Sheldrick, 2018)'
_computing_structure_solution    'SHELXS-97 (Sheldrick, 2008)'
_diffrn_ambient_temperature      296(2)
_diffrn_measured_fraction_theta_full 1.000
_diffrn_measured_fraction_theta_max 0.999
_diffrn_measurement_device_type  'Bruker APEX-II CCD'
_diffrn_measurement_method       '\f and \w scans'
_diffrn_radiation_type           MoK\a
_diffrn_radiation_wavelength     0.71073
_diffrn_reflns_av_R_equivalents  0.0484
_diffrn_reflns_av_unetI/netI     0.0419
_diffrn_reflns_Laue_measured_fraction_full 1.000
_diffrn_reflns_Laue_measured_fraction_max 0.999
_diffrn_reflns_limit_h_max       10
_diffrn_reflns_limit_h_min       -9
_diffrn_reflns_limit_k_max       9
_diffrn_reflns_limit_k_min       -9
_diffrn_reflns_limit_l_max       17
_diffrn_reflns_limit_l_min       -17
_diffrn_reflns_number            7523
_diffrn_reflns_point_group_measured_fraction_full 1.000
_diffrn_reflns_point_group_measured_fraction_max 0.999
_diffrn_reflns_theta_full        25.242
_diffrn_reflns_theta_max         27.900
_diffrn_reflns_theta_min         2.686
_diffrn_source                   'sealed tube'
_exptl_absorpt_coefficient_mu    0.479
_exptl_absorpt_correction_T_max  0.8879
_exptl_absorpt_correction_T_min  0.8330
_exptl_absorpt_correction_type   multi-scan
_exptl_absorpt_process_details   SADABS-2008/1
_exptl_crystal_colour            colourless
_exptl_crystal_density_diffrn    1.655
_exptl_crystal_description       prism
_exptl_crystal_F_000             372
_exptl_crystal_size_max          0.510
_exptl_crystal_size_mid          0.190
_exptl_crystal_size_min          0.140
_refine_diff_density_max         0.267
_refine_diff_density_min         -0.310
_refine_diff_density_rms         0.055
_refine_ls_extinction_method     none
_refine_ls_goodness_of_fit_ref   1.059
_refine_ls_hydrogen_treatment    mixed
_refine_ls_matrix_type           full
_refine_ls_number_parameters     117
_refine_ls_number_reflns         1792
_refine_ls_number_restraints     2
_refine_ls_restrained_S_all      1.059
_refine_ls_R_factor_all          0.0517
_refine_ls_R_factor_gt           0.0396
_refine_ls_shift/su_max          0.000
_refine_ls_shift/su_mean         0.000
_refine_ls_structure_factor_coef Fsqd
_refine_ls_weighting_details
'w=1/[\s^2^(Fo^2^)+(0.0577P)^2^+0.2371P] where P=(Fo^2^+2Fc^2^)/3'
_refine_ls_weighting_scheme      calc
_refine_ls_wR_factor_gt          0.1070
_refine_ls_wR_factor_ref         0.1217
_reflns_Friedel_coverage         0.000
_reflns_number_gt                1445
_reflns_number_total             1792
_reflns_threshold_expression     'I > 2\s(I)'
_cod_data_source_file            d1ce01469b2.cif
_cod_data_source_block           E-M909_2
_cod_depositor_comments
'Adding full bibliography for 7244175--7244182.cif.'
_cod_original_sg_symbol_H-M      'P 21/c'
_cod_database_code               7244176
_shelx_shelxl_version_number     2018/3
_shelx_space_group_comment
;
The symmetry employed for this shelxl refinement is uniquely defined
by the following loop, which should always be used as a source of
symmetry information in preference to the above space-group names.
They are only intended as comments.
;
_shelx_estimated_absorpt_t_min   0.792
_shelx_estimated_absorpt_t_max   0.936
_shelx_res_file
;
TITL M909_2_0m in P2(1)/c
    M909_2.res
    created by SHELXL-2018/3 at 13:11:03 on 01-May-2020
CELL 0.71073 7.6581 7.3941 13.4241 90.000 98.090 90.000
ZERR 4.00 0.0003 0.0003 0.0006 0.000 0.002 0.000
LATT 1
SYMM -x, y+1/2, -z+1/2
SFAC C H N F CL
UNIT 28 8 8 8 4
TEMP 23.000
SIZE 0.140 0.190 0.510
ACTA
L.S. 10
FMAP 2
PLAN 10 0 0.00
HTAB
BOND $H
dfix 0.90 n1 h1  n1 h2
WGHT    0.057700    0.237100
FVAR       0.28325
CL1   5    0.422214   -0.390613    0.123527    11.00000    0.08371    0.04854 =
         0.06865    0.01602    0.01601    0.02085
F1    4    0.278289   -0.094662    0.227567    11.00000    0.09095    0.05583 =
         0.03253    0.00770    0.00535    0.00815
C1    1    0.194826    0.125363   -0.014403    11.00000    0.03960    0.03796 =
         0.03451    0.00343    0.00516   -0.00236
N1    3    0.140221    0.219685    0.151845    11.00000    0.09407    0.04384 =
         0.03632   -0.00120    0.01154    0.01602
H1    2    0.091611    0.322061    0.130402    11.00000    0.07042
H2    2    0.143661    0.189370    0.215316    11.00000    0.07609
F2    4    0.245817    0.022109   -0.171537    11.00000    0.12153    0.06815 =
         0.03413    0.00676    0.02477    0.01785
C2    1    0.200817    0.098248    0.089940    11.00000    0.04148    0.03585 =
         0.03314   -0.00251    0.00397   -0.00352
N2    3    0.066835    0.416106   -0.100067    11.00000    0.07251    0.05409 =
         0.05209    0.01400    0.01257    0.01389
C3    1    0.273155   -0.066102    0.128427    11.00000    0.04604    0.04078 =
         0.03128    0.00262    0.00239   -0.00404
C4    1    0.334076   -0.194732    0.068781    11.00000    0.04512    0.03674 =
         0.04561    0.00468    0.00691    0.00126
C5    1    0.326074   -0.169511   -0.034198    11.00000    0.06525    0.04347 =
         0.04395   -0.00316    0.01834    0.00591
AFIX  43
H5    2    0.366089   -0.257121   -0.075258    11.00000   -1.20000
AFIX   0
C6    1    0.256807   -0.010305   -0.072108    11.00000    0.05915    0.04783 =
         0.03157    0.00239    0.01167    0.00128
C7    1    0.124076    0.287702   -0.061594    11.00000    0.04707    0.04584 =
         0.03642    0.00351    0.00827    0.00047

HKLF 4 1 1 0 0 0 1 0 0 0 1




REM  M909_2_0m in P2(1)/c
REM wR2 = 0.1217, GooF = S = 1.059, Restrained GooF = 1.059 for all data
REM R1 = 0.0396 for 1445 Fo > 4sig(Fo) and 0.0517 for all 1792 data
REM 117 parameters refined using 2 restraints

END

WGHT      0.0520      0.2694

REM Instructions for potential hydrogen bonds
EQIV $1 -x, -y+1, -z
HTAB N1 N2_$1

REM Highest difference peak  0.267,  deepest hole -0.310,  1-sigma level  0.055
Q1    1   0.4453 -0.3357  0.1769  11.00000  0.05    0.27
Q2    1   0.2517 -0.1368  0.0936  11.00000  0.05    0.20
Q3    1   0.1446  0.0193 -0.1733  11.00000  0.05    0.19
Q4    1   0.2054  0.1115  0.0384  11.00000  0.05    0.19
Q5    1   0.2911  0.3090  0.1479  11.00000  0.05    0.17
Q6    1   0.2022 -0.0046  0.1029  11.00000  0.05    0.17
Q7    1   0.2731  0.0380  0.1096  11.00000  0.05    0.16
Q8    1   0.2614 -0.0002 -0.1025  11.00000  0.05    0.15
Q9    1   0.3303 -0.1194  0.1037  11.00000  0.05    0.15
Q10   1   0.6476 -0.3599  0.1017  11.00000  0.05    0.15
;
_shelx_res_checksum              91916
_shelx_hkl_file
;
   1   0   0   13.58    0.74
   1   0   0   12.88    0.74
  -1   0   0   12.63    0.74
  -1   0   0   13.47    0.95
  -1   0   0   12.56    0.74
   1   0   0   14.85    0.95
  -2   0   0  646.76   33.45
  -3   0   0    0.27    0.04
  -3   0   0    0.26    0.04
   3   0   0    0.28    0.04
   3   0   0    0.32    0.04
   3   0   0    0.28    0.04
   4   0   0    1.74    0.13
  -4   0   0    1.68    0.13
   4   0   0    1.54    0.11
   4   0   0    1.68    0.11
  -4   0   0    1.70    0.11
   5   0   0    0.03    0.04
   5   0   0    0.04    0.04
  -5   0   0    0.07    0.03
   5   0   0   -0.03    0.05
  -5   0   0    0.05    0.04
  -6   0   0   15.76    1.07
  -6   0   0   15.25    1.07
   6   0   0   16.16    0.85
   6   0   0   16.57    1.07
  -7   0   0    4.51    0.32
   7   0   0    4.73    0.28
  -7   0   0    4.52    0.32
   7   0   0    4.46    0.32
   8   0   0    2.15    0.17
  -8   0   0    1.88    0.15
   9   0   0    0.18    0.09
   0  -1   0   -0.09    0.02
   0  -1   0   -0.09    0.02
   0  -1   0   -0.09    0.01
   0   1   0   -0.07    0.01
   0   1   0   -0.07    0.02
  -1  -1   0    6.37    0.35
  -1  -1   0    7.09    0.45
   1  -1   0    5.96    0.44
  -1  -1   0    6.70    0.35
   1  -1   0    6.48    0.44
   1   1   0    6.96    0.45
  -1   1   0    5.72    0.44
   1   1   0    6.46    0.35
  -2  -1   0  825.32   60.22
   2   1   0 1000.00   47.19
  -3  -1   0    1.04    0.09
   3  -1   0    1.24    0.08
   3  -1   0    1.12    0.08
  -3  -1   0    1.14    0.08
  -3  -1   0    1.26    0.11
   3   1   0    1.36    0.09
   3   1   0    1.11    0.11
   3   1   0    1.13    0.09
  -3   1   0    1.14    0.08
  -4  -1   0   13.97    0.73
  -4  -1   0   13.10    0.73
  -4  -1   0   14.12    0.93
   4  -1   0   13.42    0.72
   4  -1   0   13.42    0.73
   4  -1   0   13.77    0.91
  -4   1   0   13.49    0.91
   4   1   0   14.85    0.93
   4   1   0   14.10    0.73
   4   1   0   13.48    0.73
  -5  -1   0    8.35    0.60
   5  -1   0    8.94    0.47
  -5  -1   0    8.90    0.47
  -5  -1   0    8.40    0.47
   5  -1   0    9.07    0.46
   5  -1   0    8.64    0.58
  -5  -1   0    8.09    0.60
  -5   1   0    8.55    0.58
   5   1   0    8.84    0.60
  -5   1   0    8.76    0.58
   5   1   0    8.75    0.48
  -6  -1   0    2.73    0.20
  -6  -1   0    2.98    0.23
   6  -1   0    3.00    0.18
  -6  -1   0    3.06    0.24
   6  -1   0    2.91    0.19
   6   1   0    2.93    0.20
   6   1   0    2.89    0.23
  -7  -1   0    0.22    0.07
   7  -1   0    0.25    0.07
  -7  -1   0    0.15    0.07
   7   1   0    0.26    0.07
   8  -1   0   -0.06    0.07
  -8  -1   0    0.06    0.07
   8   1   0    0.16    0.09
   9  -1   0   -0.14    0.07
  -9  -1   0    0.01    0.06
   9   1   0    0.07    0.09
   0  -2   0   70.17    4.48
   0  -2   0   68.95    3.51
   0  -2   0   60.51    4.48
   0   2   0   68.92    3.51
   0   2   0   69.85    4.48
  -1  -2   0   11.86    0.76
   1  -2   0   12.18    0.59
   1  -2   0    9.15    0.75
  -1  -2   0   11.92    0.60
   1   2   0   10.86    0.76
   1   2   0   11.56    0.60
  -2  -2   0   82.84    5.81
  -2  -2   0   91.93    4.56
  -2  -2   0   91.52    4.56
   2  -2   0   84.77    5.81
   2  -2   0   78.53    5.80
   2   2   0   90.32    4.56
   2   2   0   95.91    5.82
  -3  -2   0    7.03    0.50
   3  -2   0    7.10    0.47
   3  -2   0    6.90    0.47
  -3  -2   0    7.01    0.39
  -3  -2   0    7.20    0.39
   3   2   0    6.96    0.39
   3   2   0    7.39    0.50
  -4  -2   0  121.14    7.56
  -4  -2   0  113.51    5.93
  -4  -2   0  111.12    5.93
   4  -2   0  113.92    5.92
   4   2   0  111.38    5.93
   4   2   0  114.94    7.56
  -5  -2   0    4.67    0.27
  -5  -2   0    4.79    0.34
   5  -2   0    4.66    0.26
  -5  -2   0    3.88    0.33
   5  -2   0    4.55    0.24
  -5  -2   0    4.03    0.26
   5   2   0    4.47    0.27
   5   2   0    4.47    0.33
  -6  -2   0   27.91    1.79
  -6  -2   0   26.53    1.40
  -6  -2   0   26.46    1.78
   6  -2   0   26.03    1.39
   6  -2   0   26.15    1.38
   6   2   0   26.06    1.41
   7  -2   0   -0.13    0.04
   7  -2   0   -0.12    0.06
  -7  -2   0    0.07    0.08
  -7  -2   0   -0.01    0.06
   7   2   0   -0.08    0.07
  -8  -2   0    0.05    0.09
   8  -2   0    0.00    0.07
   8   2   0    0.31    0.10
  -9  -2   0    2.20    0.23
   9   2   0    2.42    0.23
   0  -3   0   -0.08    0.04
   0  -3   0   -0.13    0.05
   0  -3   0    0.01    0.04
   0   3   0   -0.06    0.05
   0   3   0    0.01    0.03
   1  -3   0   56.97    2.98
  -1  -3   0   59.13    3.82
   1  -3   0   61.31    3.81
  -1  -3   0   55.33    2.99
   1   3   0   54.93    2.99
  -1   3   0   61.62    3.81
   1   3   0   53.26    3.81
   2  -3   0   57.69    4.42
  -2  -3   0   67.48    3.48
  -2  -3   0   71.04    4.44
  -2  -3   0   72.09    4.44
   2  -3   0   68.91    3.47
   2  -3   0   68.40    4.43
  -2  -3   0   67.31    3.48
  -2   3   0   61.77    4.43
   2   3   0   69.96    4.44
   2   3   0   64.92    3.48
  -3  -3   0   19.72    0.97
   3  -3   0   18.91    1.21
  -3  -3   0   20.01    0.97
  -3  -3   0   16.15    1.23
   3  -3   0   20.22    1.21
  -3  -3   0   15.50    1.23
   3   3   0   15.52    1.23
   3   3   0   19.19    0.97
   4  -3   0    5.99    0.40
  -4  -3   0    5.22    0.43
  -4  -3   0    6.35    0.43
  -4  -3   0    5.72    0.34
   4  -3   0    5.79    0.40
  -4  -3   0    5.63    0.34
   4   3   0    5.80    0.34
   4   3   0    6.41    0.44
  -5  -3   0    2.99    0.20
   5  -3   0    2.71    0.18
  -5  -3   0    3.17    0.26
  -5  -3   0    2.87    0.24
   5   3   0    3.02    0.21
   6  -3   0   26.19    1.37
  -6  -3   0   22.47    1.76
   6  -3   0   26.01    1.36
  -6  -3   0   29.01    1.77
   6   3   0   26.79    1.39
  -7  -3   0    9.18    0.67
   7  -3   0    9.38    0.50
   7  -3   0    8.59    0.48
   7   3   0    9.83    0.54
  -8  -3   0    7.39    0.55
   8   3   0    7.10    0.45
  -9  -3   0    0.44    0.12
   9   3   0    0.52    0.13
   0  -4   0   75.60    3.85
   0  -4   0   79.77    4.91
   0  -4   0   67.29    4.91
   0   4   0   70.89    3.84
   0   4   0   76.85    4.91
  -1  -4   0   54.03    3.56
  -1  -4   0   54.36    3.57
   1  -4   0   53.37    2.79
  -1  -4   0   51.76    2.79
   1   4   0   51.95    2.79
   1   4   0   56.01    3.57
  -2  -4   0   18.79    1.02
   2  -4   0   18.18    1.29
   2  -4   0   19.52    1.29
  -2  -4   0   19.09    1.02
  -2  -4   0   19.50    1.30
   2  -4   0   18.57    1.01
  -2  -4   0   19.65    1.30
   2   4   0   18.24    1.02
  -2   4   0   19.33    1.29
   2   4   0   20.89    1.31
  -3  -4   0    0.02    0.08
   3  -4   0    0.00    0.05
   3  -4   0    0.04    0.04
  -3  -4   0    0.01    0.05
  -3  -4   0   -0.05    0.05
  -3  -4   0    0.04    0.07
   3  -4   0    0.03    0.03
   3   4   0    0.03    0.06
   3   4   0   -0.03    0.06
  -3   4   0    0.05    0.05
  -4  -4   0   -0.03    0.08
   4  -4   0    0.08    0.04
   4  -4   0    0.03    0.04
  -4  -4   0    0.06    0.08
  -5  -4   0   12.44    0.92
  -5  -4   0   10.92    0.91
   5  -4   0   13.53    0.88
   5  -4   0   14.04    0.88
   5   4   0   14.38    0.73
  -6  -4   0    1.06    0.16
   6  -4   0    1.05    0.10
  -6  -4   0    1.31    0.16
   6   4   0    1.19    0.14
   7  -4   0    0.01    0.05
  -7  -4   0   -0.04    0.11
   7   4   0    0.02    0.09
  -8  -4   0    8.34    0.61
   8   4   0    7.57    0.49
  -9  -4   0    0.07    0.12
   9   4   0   -0.03    0.13
   0  -5   0    0.00    0.06
   0  -5   0    0.03    0.05
   0  -5   0   -0.06    0.07
   0   5   0    0.03    0.07
   0   5   0    0.04    0.06
  -1  -5   0    3.02    0.20
  -1  -5   0    2.61    0.25
   1  -5   0    3.19    0.25
   1  -5   0    3.08    0.19
   1  -5   0    3.34    0.26
  -1  -5   0    3.16    0.27
  -1   5   0    3.37    0.25
   1   5   0    2.73    0.26
   1   5   0    3.21    0.20
  -2  -5   0    0.02    0.08
  -2  -5   0   -0.04    0.07
   2  -5   0    0.07    0.05
   2  -5   0   -0.07    0.06
   2  -5   0   -0.10    0.06
  -2   5   0   -0.02    0.05
   2   5   0    0.07    0.08
   2   5   0    0.10    0.06
  -3  -5   0   11.29    0.77
   3  -5   0    9.81    0.74
   3  -5   0   11.07    0.74
  -3  -5   0   10.50    0.76
   3  -5   0   10.63    0.58
  -3   5   0   10.94    0.74
   3   5   0   10.71    0.60
   4  -5   0    0.24    0.05
  -4  -5   0    0.14    0.11
   4  -5   0    0.15    0.06
   4  -5   0    0.06    0.06
  -4  -5   0    0.13    0.09
   4   5   0    0.06    0.08
  -4   5   0    0.11    0.06
  -5  -5   0   -0.16    0.09
   5  -5   0   -0.09    0.04
   5  -5   0   -0.11    0.04
   5  -5   0    0.04    0.04
   5   5   0   -0.10    0.08
  -6  -5   0    1.17    0.18
   6   5   0    1.52    0.16
  -7  -5   0    0.14    0.12
   7   5   0    0.24    0.11
  -8  -5   0    0.45    0.16
   8   5   0    0.56    0.13
   0  -6   0   21.66    1.34
   0   6   0   17.36    1.33
  -1  -6   0   -0.18    0.09
   1  -6   0    0.05    0.06
   1  -6   0   -0.19    0.08
   1   6   0   -0.22    0.08
  -1   6   0   -0.09    0.08
   1   6   0   -0.07    0.07
   2  -6   0    0.78    0.12
   2  -6   0    0.94    0.09
  -2  -6   0    0.69    0.14
   2   6   0    0.85    0.12
  -2   6   0    0.87    0.12
  -3  -6   0    0.37    0.12
   3  -6   0    0.21    0.09
   3  -6   0    0.25    0.07
   3   6   0    0.37    0.09
  -3   6   0    0.24    0.08
   4  -6   0    0.77    0.11
  -4  -6   0    0.93    0.16
   4  -6   0    0.86    0.09
  -4   6   0    0.77    0.11
   4   6   0    0.88    0.12
  -5  -6   0    2.00    0.26
   5   6   0    2.15    0.20
  -6  -6   0    2.66    0.30
   6   6   0    3.08    0.24
  -7  -6   0    0.65    0.18
   7   6   0    0.80    0.15
   0  -7   0   -0.17    0.09
   1  -7   0   -0.18    0.11
  -1  -7   0   -0.03    0.11
  -1   7   0   -0.17    0.10
   1   7   0    0.08    0.07
   2  -7   0   10.10    0.72
  -2  -7   0   10.21    0.74
  -2   7   0    9.81    0.71
   2   7   0    9.58    0.57
  -3  -7   0    8.07    0.63
   3  -7   0    8.63    0.60
   3   7   0    7.85    0.49
  -4  -7   0    3.13    0.32
   4   7   0    2.71    0.23
  -5  -7   0    4.17    0.39
   5   7   0    4.02    0.30
  -6  -7   0    1.79    0.26
   6   7   0    2.67    0.24
   0  -8   0    1.82    0.22
  -1  -8   0    1.19    0.19
   1  -8   0    1.15    0.17
   2  -8   0    0.40    0.12
  -2  -8   0    0.62    0.16
   2   8   0    0.62    0.11
  -3  -8   0    6.99    0.57
   3   8   0    6.60    0.43
  -4  -8   0    0.88    0.20
   4   8   0    1.06    0.17
  -5  -8   0    5.72    0.51
   5   8   0    5.76    0.39
   0  -9   0   -0.02    0.12
   1  -9   0    1.76    0.23
  -1  -9   0    1.64    0.24
  -2  -9   0    3.58    0.38
  -3  -9   0    0.85    0.20
   3   9   0    0.94    0.14
   9   0  -1    0.07    0.09
   8   0  -1   -0.11    0.08
  -8   0   1    0.01    0.03
  -8   0   1   -0.06    0.03
   7   0  -1   -0.02    0.04
  -7   0   1   -0.04    0.03
   7   0  -1   -0.06    0.07
  -7   0   1    0.02    0.04
   6   0  -1   -0.02    0.06
  -6   0   1   -0.05    0.04
   6   0  -1   -0.04    0.04
  -6   0   1   -0.03    0.04
  -5   0   1    0.02    0.03
  -5   0   1    0.02    0.04
   5   0  -1   -0.01    0.05
   5   0  -1   -0.01    0.03
   4   0  -1   -0.02    0.04
   4   0  -1   -0.03    0.03
  -4   0   1   -0.04    0.03
  -3   0   1   -0.03    0.02
   3   0  -1    0.04    0.03
   3   0  -1    0.01    0.04
  -3   0   1   -0.01    0.01
  -3   0   1    0.01    0.03
   2   0  -1    0.28    0.06
   1   0  -1   -0.18    0.01
  -1   0   1   -0.20    0.01
  -1   0   1   -0.23    0.01
   1   0  -1   -0.20    0.02
   0   0   1   -0.21    0.01
   0   0  -1   -0.21    0.01
  -1   0  -1   -0.21    0.02
  -1   0  -1   -0.21    0.01
   1   0   1   -0.22    0.01
   1   0   1   -0.24    0.02
   2   0   1   -0.02    0.03
   2   0   1   -0.04    0.02
   2   0   1   -0.07    0.03
  -2   0  -1   -0.02    0.02
  -2   0  -1   -0.03    0.03
   3   0   1   -0.02    0.03
  -3   0  -1   -0.03    0.03
   3   0   1   -0.01    0.03
  -3   0  -1    0.01    0.03
   3   0   1    0.03    0.03
   4   0   1   -0.09    0.04
  -4   0  -1    0.01    0.03
  -4   0  -1    0.00    0.03
   4   0   1   -0.01    0.03
   4   0   1   -0.03    0.03
   5   0   1   -0.06    0.04
  -5   0  -1   -0.05    0.04
   5   0   1   -0.06    0.04
  -5   0  -1    0.01    0.04
   5   0   1    0.00    0.04
  -6   0  -1   -0.04    0.05
   6   0   1    0.06    0.05
   6   0   1    0.10    0.05
   6   0   1    0.06    0.06
   7   0   1    0.05    0.06
   7   0   1   -0.03    0.05
  -7   0  -1    0.01    0.05
   7   0   1    0.07    0.05
  -7   0  -1   -0.01    0.05
   8   0   1   -0.04    0.07
  -8   0  -1    0.06    0.05
   9   0   1    0.02    0.08
  -9  -1   1    0.00    0.05
   9  -1  -1   -0.09    0.08
   9   1  -1   -0.01    0.09
   8  -1  -1   -0.08    0.07
  -8  -1   1    0.00    0.06
   8   1  -1    0.04    0.09
   7  -1  -1    0.14    0.07
  -7  -1   1    0.18    0.05
  -7  -1   1    0.14    0.07
   7   1  -1    0.22    0.08
  -6  -1   1    2.03    0.15
   6  -1  -1    2.04    0.15
  -6  -1   1    2.16    0.18
  -6  -1   1    1.92    0.18
   6   1  -1    2.27    0.18
   6   1  -1    2.08    0.16
   5  -1  -1    4.90    0.28
  -5  -1   1    4.90    0.28
  -5  -1   1    4.79    0.29
  -5  -1   1    4.99    0.35
  -5  -1   1    4.90    0.35
   5   1  -1    4.95    0.35
   5   1  -1    4.85    0.29
  -4  -1   1  209.30   14.00
  -4  -1   1  209.80   10.93
  -4  -1   1  219.01   13.99
   4  -1  -1  203.30   10.96
   4  -1  -1  212.74   10.94
  -4  -1   1  209.70   10.94
   4   1  -1  215.66   10.94
   4   1  -1  211.75   13.98
  -3  -1   1   16.52    0.91
  -3  -1   1   18.29    1.16
  -3  -1   1   17.86    1.16
  -3  -1   1   16.60    0.92
   3  -1  -1   16.87    0.90
   3   1  -1   17.00    0.92
   3   1  -1   18.69    1.17
  -2  -1   1  260.63   18.32
  -2  -1   1  303.45   14.39
  -2  -1   1  255.99   18.32
   2   1  -1  313.48   14.39
   2   1  -1  253.06   18.31
  -1  -1   1   13.81    1.09
  -1  -1   1   16.45    0.85
  -1  -1   1   17.39    1.09
   1  -1  -1   16.62    0.85
   1   1  -1   16.28    0.85
   1   1  -1   17.79    1.09
   0  -1   1  163.04   10.02
   0  -1  -1  148.80    7.84
   0  -1   1  137.40   10.01
   0  -1   1  149.23    7.84
   0  -1  -1  152.80    7.85
   0   1  -1  151.44    7.84
   0   1  -1  158.06   10.02
   0   1   1  148.74    7.84
  -1  -1  -1    1.78    0.11
   1  -1   1    1.79    0.10
   1  -1   1    1.79    0.14
  -1  -1  -1    1.41    0.14
   1  -1   1    1.80    0.14
  -1  -1  -1    1.97    0.11
  -1   1  -1    1.88    0.14
   1   1   1    1.85    0.11
   1   1   1    1.74    0.11
  -2  -1  -1  746.62   53.45
  -2  -1  -1  888.91   41.89
   2   1   1  888.16   41.89
   2   1   1  716.16   53.44
  -3  -1  -1   11.91    0.80
  -3  -1  -1   12.22    0.63
   3  -1   1   12.04    0.62
   3  -1   1   12.19    0.79
  -3  -1  -1   12.02    0.63
   3   1   1   12.32    0.63
   3   1   1    9.96    0.80
  -3   1  -1   12.34    0.79
   3   1   1   11.86    0.63
   4  -1   1    0.08    0.03
  -4  -1  -1    0.09    0.06
   4  -1   1    0.30    0.04
  -4  -1  -1    0.05    0.04
   4  -1   1    0.05    0.04
  -4  -1  -1    0.15    0.04
   4   1   1    0.14    0.05
   4   1   1    0.31    0.06
  -4   1  -1    0.08    0.04
   4   1   1    0.33    0.06
   5  -1   1    0.57    0.06
   5  -1   1    0.42    0.05
   5  -1   1    0.59    0.06
  -5  -1  -1    0.44    0.07
  -5  -1  -1    0.54    0.08
   5   1   1    0.42    0.07
  -5   1  -1    0.42    0.05
   5   1   1    0.52    0.07
   5   1   1    0.63    0.08
   6  -1   1    7.22    0.41
   6  -1   1    7.58    0.50
  -6  -1  -1    6.91    0.41
   6  -1   1    7.35    0.40
  -6  -1  -1    7.19    0.52
   6   1   1    7.35    0.42
  -6   1  -1    7.45    0.49
   6   1   1    7.46    0.41
   6   1   1    7.26    0.52
   7  -1   1    3.44    0.24
   7  -1   1    3.53    0.23
  -7  -1  -1    3.48    0.28
   7  -1   1    3.91    0.22
  -7  -1  -1    3.61    0.28
   7   1   1    3.48    0.23
  -7   1  -1    3.54    0.24
  -7   1  -1    3.55    0.24
  -8  -1  -1   -0.02    0.07
   8  -1   1    0.03    0.07
   8   1   1    0.20    0.09
  -9  -1  -1    0.02    0.07
   9   1   1    0.00    0.08
  -9  -2   1    5.11    0.40
   9   2  -1    5.12    0.34
  -8  -2   1    2.30    0.22
   8  -2  -1    2.13    0.18
   8   2  -1    2.21    0.20
  -7  -2   1    0.12    0.06
   7  -2  -1   -0.01    0.06
  -7  -2   1    0.11    0.06
  -7  -2   1    0.02    0.08
   7   2  -1    0.03    0.08
   6  -2  -1   10.51    0.58
  -6  -2   1   11.08    0.58
  -6  -2   1   10.10    0.73
  -6  -2   1   10.18    0.74
   6   2  -1   10.89    0.59
  -5  -2   1    5.06    0.31
  -5  -2   1    5.06    0.39
  -5  -2   1    5.60    0.31
   5  -2  -1    5.39    0.30
   5  -2  -1    5.25    0.28
  -5  -2   1    5.48    0.39
   5   2  -1    5.43    0.39
   5   2  -1    5.46    0.32
  -4  -2   1   56.56    3.06
  -4  -2   1   60.37    3.90
  -4  -2   1   57.41    3.06
  -4  -2   1   59.05    3.91
   4   2  -1   58.09    3.06
   4   2  -1   61.49    3.91
  -3  -2   1   64.68    3.44
   3  -2  -1   68.62    4.37
  -3  -2   1   72.22    4.39
   3  -2  -1   66.87    4.38
  -3  -2   1   65.07    3.44
  -3  -2   1   57.65    4.38
   3   2  -1   69.38    4.39
   3   2  -1   65.06    3.44
   2  -2  -1  179.85   12.02
   2  -2  -1  189.55   12.03
  -2  -2   1  195.14    9.44
   2   2  -1  154.68   12.00
   2   2  -1  190.02    9.40
  -1  -2   1   14.29    0.92
  -1  -2   1   13.51    0.72
   1  -2  -1   13.44    0.92
   1   2  -1   12.45    0.92
  -1   2   1   14.00    0.92
   1   2  -1   14.68    0.92
   1   2  -1   13.24    0.72
   0  -2  -1   37.08    1.91
   0  -2   1   37.73    2.44
   0  -2   1   38.34    2.44
   0  -2  -1   36.48    1.91
   0  -2   1   34.87    1.90
   0   2   1   35.26    1.91
   0   2  -1   34.39    1.90
   0   2  -1   37.56    2.44
   0   2  -1   39.40    2.44
   0   2   1   36.15    2.43
  -1  -2  -1   -0.04    0.03
   1  -2   1   -0.02    0.03
   1  -2   1    0.03    0.03
  -1  -2  -1   -0.03    0.04
   1  -2   1    0.02    0.02
  -1  -2  -1   -0.04    0.03
   1   2   1   -0.04    0.03
  -1   2  -1    0.00    0.03
  -1   2  -1   -0.03    0.03
   1   2   1   -0.07    0.03
  -2  -2  -1  159.93    8.48
  -2  -2  -1  163.68    8.49
   2  -2   1  180.57   10.87
   2   2   1  166.27    8.48
   2   2   1  164.70    8.50
  -2   2  -1  144.69   10.84
   2   2   1  167.89   10.82
  -3  -2  -1    9.58    0.77
   3  -2   1   11.63    0.76
  -3  -2  -1   11.64    0.61
   3  -2   1   11.29    0.76
  -3  -2  -1   11.14    0.61
   3   2   1   11.34    0.61
   3   2   1   12.13    0.78
   3   2   1   11.28    0.61
  -3   2  -1   11.74    0.76
   4  -2   1  346.71   17.48
   4  -2   1  335.11   22.28
  -4  -2  -1  340.85   17.48
   4  -2   1  332.80   22.28
  -4  -2  -1  343.91   17.45
   4   2   1  340.35   17.50
   4   2   1  305.51   22.29
  -4   2  -1  342.62   22.28
   4   2   1  349.64   17.50
  -5  -2  -1   40.45    2.07
   5  -2   1   40.34    2.05
   5  -2   1   40.31    2.61
   5  -2   1   40.33    2.61
  -5  -2  -1   41.05    2.64
  -5  -2  -1   40.20    2.07
   5   2   1   38.57    2.07
   5   2   1   34.62    2.63
  -5   2  -1   39.20    2.61
  -6  -2  -1    0.38    0.08
   6  -2   1    0.41    0.06
   6  -2   1    0.56    0.06
  -6  -2  -1    0.49    0.10
  -6  -2  -1    0.18    0.09
   6   2   1    0.62    0.10
   7  -2   1   -0.01    0.05
   7  -2   1   -0.03    0.06
  -7  -2  -1    0.10    0.07
  -7  -2  -1    0.11    0.08
   7   2   1    0.09    0.07
  -8  -2  -1    0.75    0.12
   8  -2   1    0.64    0.09
   8   2   1    0.91    0.12
  -9  -2  -1    0.50    0.11
   9   2   1    0.75    0.13
  -9  -3   1    1.14    0.16
   9   3  -1    1.03    0.15
  -8  -3   1    2.32    0.25
   8  -3  -1    2.42    0.18
   8   3  -1    2.24    0.22
  -7  -3   1    8.08    0.63
   7  -3  -1    8.86    0.48
   7   3  -1    9.13    0.51
  -6  -3   1   20.09    1.42
  -6  -3   1   22.33    1.42
   6  -3  -1   19.71    1.08
   6  -3  -1   20.11    1.10
   6   3  -1   22.10    1.13
  -5  -3   1    0.54    0.09
  -5  -3   1    0.58    0.08
  -5  -3   1    0.60    0.10
   5   3  -1    0.56    0.09
  -4  -3   1    1.33    0.15
  -4  -3   1    1.29    0.11
  -4  -3   1    1.32    0.12
  -4  -3   1    1.02    0.14
   4  -3  -1    1.43    0.10
   4  -3  -1    1.41    0.10
   4   3  -1    1.33    0.12
   4   3  -1    1.08    0.14
   3  -3  -1    7.53    0.47
  -3  -3   1    6.45    0.48
  -3  -3   1    6.36    0.49
  -3  -3   1    6.82    0.38
  -3  -3   1    7.11    0.38
   3  -3  -1    6.50    0.46
   3   3  -1    7.01    0.38
   3   3  -1    6.82    0.49
   2  -3  -1    4.16    0.30
   2  -3  -1    4.72    0.31
  -2  -3   1    4.59    0.33
  -2  -3   1    4.36    0.32
  -2  -3   1    4.33    0.25
   2   3  -1    3.91    0.32
   2   3  -1    3.91    0.25
  -2   3   1    4.40    0.31
   1  -3  -1   78.59    4.08
  -1  -3   1   79.28    5.22
  -1  -3   1   80.80    5.22
   1  -3  -1   79.30    5.21
   1  -3  -1   80.59    5.21
  -1  -3   1   76.67    4.09
   1   3  -1   80.73    5.22
  -1   3   1   79.14    5.21
   1   3  -1   74.15    4.09
   0  -3   1    1.59    0.10
   0  -3  -1    1.35    0.11
   0  -3   1    1.18    0.13
   0  -3   1    1.24    0.14
   0  -3  -1    1.72    0.14
   0  -3  -1    1.67    0.10
   0   3   1    1.74    0.11
   0   3   1    1.69    0.14
   0   3  -1    1.11    0.14
   0   3  -1    1.60    0.11
   0   3  -1    1.33    0.14
   1  -3   1   42.82    2.31
   1  -3   1   45.78    2.95
  -1  -3  -1   44.56    2.31
  -1  -3  -1   47.45    2.96
  -1  -3  -1   42.09    2.31
  -1   3  -1   40.64    2.95
  -1   3  -1   46.36    2.95
   1   3   1   43.04    2.31
   1   3   1   47.09    2.96
   2  -3   1   52.42    3.44
  -2  -3  -1   49.22    2.70
   2  -3   1   53.59    3.44
  -2  -3  -1   55.59    3.46
   2  -3   1   51.51    2.69
  -2  -3  -1   52.06    2.71
  -2   3  -1   53.06    3.44
  -2   3  -1   55.38    3.45
   2   3   1   49.52    2.71
   2   3   1   47.30    3.45
   3  -3   1   64.60    4.10
  -3  -3  -1   58.58    4.12
   3  -3   1   56.72    4.10
  -3  -3  -1   62.74    3.23
  -3  -3  -1   63.49    3.23
  -3   3  -1   63.55    4.10
   3   3   1   61.42    3.23
   3   3   1   65.20    4.12
  -4  -3  -1   22.38    1.44
  -4  -3  -1   21.14    1.12
   4  -3   1   20.58    1.41
   4  -3   1   20.55    1.41
  -4  -3  -1   20.44    1.12
  -4   3  -1   20.25    1.41
   4   3   1   20.75    1.12
   4   3   1   23.30    1.44
   5  -3   1    0.53    0.05
   5  -3   1    0.53    0.05
  -5  -3  -1    0.62    0.11
   5  -3   1    0.57    0.06
   5   3   1    0.59    0.09
  -6  -3  -1   13.24    0.85
  -6  -3  -1   10.27    0.83
   6  -3   1   12.27    0.63
   6   3   1   11.81    0.66
   7  -3   1    2.16    0.15
   7  -3   1    2.00    0.14
  -7  -3  -1    2.04    0.22
   7   3   1    2.44    0.20
  -8  -3  -1    0.86    0.15
   8   3   1    1.21    0.15
  -9  -3  -1    0.17    0.11
   9   3   1   -0.05    0.10
  -9  -4   1    0.34    0.13
   9   4  -1    0.65    0.14
  -8  -4   1   -0.07    0.12
   8   4  -1    0.00    0.12
  -7  -4   1    4.70    0.39
   7  -4  -1    4.17    0.27
   7   4  -1    4.81    0.31
  -6  -4   1    0.24    0.10
  -6  -4   1    0.35    0.11
   6  -4  -1    0.21    0.07
   6   4  -1    0.56    0.11
  -5  -4   1   32.55    2.09
   5  -4  -1   28.99    2.04
  -5  -4   1   31.65    2.08
   5  -4  -1   29.08    2.04
   5   4  -1   32.66    1.64
  -4  -4   1    2.73    0.24
   4  -4  -1    2.64    0.20
   4  -4  -1    2.59    0.20
  -4  -4   1    2.44    0.24
  -4   4   1    2.78    0.20
   4   4  -1    2.60    0.19
   3  -4  -1    0.74    0.09
  -3  -4   1    0.70    0.10
  -3  -4   1    0.73    0.11
  -3  -4   1    0.65    0.08
   3  -4  -1    0.67    0.08
  -3  -4   1    0.61    0.08
  -3   4   1    0.79    0.09
   3   4  -1    0.59    0.08
   3   4  -1    0.69    0.11
   2  -4  -1   91.73    7.12
   2  -4  -1   96.21    7.12
   2  -4  -1  111.85    5.58
  -2  -4   1  111.48    5.59
  -2  -4   1  112.83    7.14
  -2  -4   1  114.07    7.14
   2   4  -1  116.78    7.14
   2   4  -1  107.19    5.59
  -1  -4   1   33.25    1.80
  -1  -4   1   35.93    2.31
   1  -4  -1   35.60    2.30
   1  -4  -1   35.83    2.30
  -1  -4   1   36.12    2.31
   1  -4  -1   32.40    1.80
   1   4  -1   32.32    1.80
  -1   4   1   33.56    2.30
   1   4  -1   35.38    2.31
   0  -4   1   18.24    1.18
   0  -4  -1   16.91    0.92
   0  -4   1   16.19    0.92
   0  -4   1   17.39    1.18
   0  -4  -1   16.64    0.92
   0  -4  -1   18.42    1.18
   0  -4  -1   18.49    1.18
   0   4   1   16.84    0.92
   0   4  -1   17.92    1.18
   0   4  -1   16.19    0.92
   0   4   1   18.31    1.18
   1  -4   1   10.60    0.72
  -1  -4  -1   10.54    0.57
   1  -4   1   10.62    0.56
  -1  -4  -1   10.92    0.73
   1  -4   1   10.91    0.72
  -1  -4  -1   10.13    0.57
   1   4   1    9.99    0.73
   1   4   1   10.21    0.57
  -1   4  -1   10.51    0.72
  -2  -4  -1    1.06    0.10
  -2  -4  -1    1.16    0.10
   2  -4   1    0.87    0.11
   2  -4   1    1.35    0.08
   2  -4   1    0.74    0.10
  -2  -4  -1    1.11    0.13
  -2   4  -1    0.89    0.12
   2   4   1    1.18    0.11
   2   4   1    1.15    0.12
  -3  -4  -1    2.10    0.21
   3  -4   1    2.25    0.13
  -3  -4  -1    2.26    0.16
   3  -4   1    2.00    0.17
   3  -4   1    1.97    0.17
  -3  -4  -1    2.08    0.15
  -3   4  -1    2.08    0.17
   3   4   1    1.87    0.19
   3   4   1    2.27    0.16
   4  -4   1   11.64    0.58
   4  -4   1   10.69    0.74
  -4  -4  -1   11.38    0.77
   4  -4   1   10.10    0.74
  -4  -4  -1   11.23    0.78
   4   4   1   10.90    0.61
   5  -4   1    0.08    0.04
   5  -4   1    0.13    0.04
  -5  -4  -1    0.20    0.10
   5  -4   1    0.04    0.04
  -5  -4  -1   -0.20    0.08
   5   4   1    0.08    0.08
   6  -4   1    0.25    0.05
  -6  -4  -1    0.41    0.12
  -6  -4  -1    0.28    0.11
   6   4   1    0.32    0.11
  -7  -4  -1    0.70    0.15
   7   4   1    0.84    0.13
  -8  -4  -1    2.10    0.24
   8   4   1    1.93    0.19
   9   4   1    0.10    0.11
  -8  -5   1   -0.07    0.11
   8   5  -1   -0.11    0.11
  -7  -5   1    0.47    0.15
   7   5  -1    0.40    0.12
  -6  -5   1    5.11    0.42
   6   5  -1    4.40    0.32
   5  -5  -1    3.88    0.28
  -5  -5   1    4.16    0.34
  -5  -5   1    3.88    0.34
   5  -5  -1    3.67    0.28
   5   5  -1    3.94    0.27
  -4  -5   1   20.85    1.33
   4  -5  -1   18.09    1.29
   4  -5  -1   19.28    1.02
   4  -5  -1   19.05    1.29
  -4  -5   1   21.32    1.34
  -4   5   1   16.90    1.29
   4   5  -1   19.97    1.04
   3  -5  -1  128.96    8.62
  -3  -5   1  138.95    8.64
   3  -5  -1  128.60    6.75
   3  -5  -1  134.94    8.62
   3   5  -1  129.05    6.77
  -3   5   1  121.53    8.61
   2  -5  -1    0.12    0.05
   2  -5  -1   -0.03    0.07
  -2  -5   1   -0.02    0.08
   2  -5  -1    0.04    0.06
  -2  -5   1    0.00    0.08
   2   5  -1    0.12    0.08
   2   5  -1    0.08    0.06
  -2   5   1    0.24    0.07
   1  -5  -1   60.93    3.28
  -1  -5   1   64.98    4.20
  -1  -5   1   68.89    4.20
  -1  -5   1   61.49    3.28
   1  -5  -1   55.72    4.18
   1   5  -1   61.23    3.28
   1   5  -1   68.19    4.20
   0  -5  -1   42.30    2.17
   0  -5  -1   39.43    2.78
   0  -5   1   44.03    2.78
   0  -5   1   42.17    2.17
   0  -5  -1   41.31    2.17
   0  -5   1   43.07    2.78
   0   5  -1   41.28    2.17
   0   5  -1   43.70    2.78
   0   5   1   36.44    2.77
  -1  -5  -1    3.65    0.22
  -1  -5  -1    3.26    0.28
   1  -5   1    3.61    0.21
  -1  -5  -1    3.76    0.29
   1  -5   1    3.82    0.28
  -1  -5  -1    3.51    0.22
   1  -5   1    3.71    0.28
   1   5   1    3.22    0.28
   1   5   1    3.18    0.22
  -1   5  -1    3.37    0.28
   2  -5   1   20.40    1.37
   2  -5   1   19.82    1.06
   2  -5   1   20.93    1.37
  -2  -5  -1   19.43    1.38
  -2   5  -1   21.28    1.37
   2   5   1   19.26    1.08
   3  -5   1   13.04    0.90
  -3  -5  -1   14.54    0.93
   3  -5   1   12.57    0.90
   3  -5   1   13.71    0.70
  -3  -5  -1   11.55    0.92
   3   5   1   12.70    0.72
  -3   5  -1   14.01    0.90
   4  -5   1    3.93    0.28
  -4  -5  -1    3.14    0.32
   4  -5   1    3.86    0.21
   4  -5   1    3.81    0.28
  -4  -5  -1    3.48    0.31
   4   5   1    3.22    0.25
   5  -5   1    2.58    0.21
   5  -5   1    2.80    0.16
  -5  -5  -1    2.58    0.27
   5  -5   1    2.45    0.20
   5   5   1    2.70    0.21
  -6  -5  -1    0.82    0.15
   6   5   1    0.81    0.13
  -7  -5  -1    0.86    0.18
   7   5   1    0.98    0.14
  -8  -5  -1    0.20    0.14
   8   5   1    0.32    0.12
  -7  -6   1   -0.11    0.14
   7   6  -1   -0.01    0.11
  -6  -6   1    0.22    0.13
   6   6  -1    0.34    0.11
  -5  -6   1    0.48    0.14
   5   6  -1    0.47    0.12
   4  -6  -1    9.83    0.66
   4  -6  -1    9.21    0.52
  -4  -6   1    9.97    0.71
  -4   6   1    9.16    0.66
   4   6  -1    9.21    0.55
   3  -6  -1    0.61    0.11
  -3  -6   1    0.46    0.13
   3  -6  -1    0.63    0.08
  -3   6   1    0.49    0.10
   3   6  -1    0.77    0.11
   2  -6  -1    5.43    0.33
  -2  -6   1    5.74    0.44
   2  -6  -1    6.12    0.43
  -2   6   1    4.89    0.41
   2   6  -1    5.82    0.34
  -1  -6   1   53.07    4.18
   1  -6  -1   64.88    4.18
   1   6  -1   65.04    3.28
   1   6  -1   65.11    4.19
  -1   6   1   65.74    4.18
   0  -6  -1    6.28    0.55
   0  -6   1    7.67    0.43
   0  -6   1    7.90    0.56
   0   6  -1    7.71    0.43
   0   6   1    8.12    0.56
   0   6  -1    7.95    0.56
  -1  -6  -1    0.34    0.11
   1  -6   1    0.14    0.09
   1  -6   1    0.42    0.07
   1   6   1    0.39    0.09
   1   6   1    0.34    0.11
  -1   6  -1    0.17    0.09
  -2  -6  -1    0.07    0.08
   2  -6   1    0.07    0.09
   2  -6   1    0.05    0.06
  -2   6  -1    0.01    0.07
   2   6   1    0.21    0.08
  -3  -6  -1    4.81    0.37
   3  -6   1    3.88    0.33
   3  -6   1    4.28    0.25
   3   6   1    3.99    0.29
  -3   6  -1    4.30    0.33
   4  -6   1    1.43    0.16
  -4  -6  -1    1.40    0.19
   4  -6   1    1.53    0.11
  -4   6  -1    1.56    0.15
   4   6   1    1.47    0.15
  -5  -6  -1    2.61    0.29
   5   6   1    2.80    0.23
  -6  -6  -1    1.61    0.22
   6   6   1    1.38    0.16
  -7  -6  -1    0.82    0.19
   7   6   1    0.91    0.15
  -6  -7   1    0.47    0.16
   6   7  -1    0.33    0.13
  -5  -7   1    0.13    0.13
   5   7  -1   -0.05    0.10
  -4  -7   1    0.59    0.16
   4   7  -1    0.57    0.12
  -3  -7   1   -0.03    0.12
   3  -7  -1   -0.02    0.09
   3   7  -1   -0.04    0.08
  -2  -7   1    1.28    0.18
   2  -7  -1    1.00    0.14
  -2   7   1    1.03    0.14
   2   7  -1    1.11    0.13
   1  -7  -1    5.02    0.40
  -1  -7   1    4.69    0.41
  -1   7   1    5.29    0.40
   1   7  -1    4.55    0.31
   0  -7   1    1.01    0.16
   0  -7  -1    1.06    0.16
  -1  -7  -1   21.13    1.68
   1  -7   1   26.79    1.68
  -1   7  -1   25.62    1.68
  -2  -7  -1    0.45    0.13
   2  -7   1    0.03    0.09
   2   7   1    0.23    0.09
  -2   7  -1    0.14    0.09
   3  -7   1    0.80    0.13
  -3  -7  -1    0.70    0.16
   3   7   1    0.66    0.12
  -4  -7  -1    0.22    0.14
   4   7   1    0.16    0.10
  -5  -7  -1    2.12    0.26
   5   7   1    2.08    0.21
  -6  -7  -1    3.08    0.35
   6   7   1    3.08    0.27
  -5  -8   1    1.72    0.25
   5   8  -1    1.60    0.19
  -4  -8   1    0.14    0.15
   4   8  -1   -0.21    0.09
  -3  -8   1    1.79    0.25
   3   8  -1    2.03    0.20
  -2  -8   1    4.55    0.39
   2  -8  -1    4.22    0.37
   2   8  -1    4.83    0.32
   1  -8  -1    0.63    0.16
  -1  -8   1    0.72    0.16
   1   8  -1    0.81    0.11
   0  -8  -1    3.63    0.35
   0  -8   1    3.99    0.36
   1  -8   1    1.77    0.23
  -1  -8  -1    1.86    0.23
  -2  -8  -1    0.46    0.15
   2  -8   1    0.35    0.12
   2   8   1    0.42    0.11
  -3  -8  -1    0.34    0.15
   3   8   1    0.64    0.13
  -4  -8  -1    7.84    0.63
   4   8   1    7.66    0.49
  -5  -8  -1    1.32    0.23
   5   8   1    1.16    0.17
  -3  -9   1    3.61    0.37
   3   9  -1    2.89    0.26
  -2  -9   1    0.05    0.15
   2   9  -1    0.30    0.10
  -1  -9   1    2.14    0.27
   0  -9  -1    0.55    0.16
   0  -9   1    0.61    0.16
  -1  -9  -1    2.68    0.32
  -2  -9  -1    7.90    0.64
  -3  -9  -1   -0.18    0.14
  10   0  -2    0.38    0.11
   9   0  -2   -0.02    0.09
   8   0  -2   -0.20    0.08
  -8   0   2   -0.01    0.02
  -8   0   2   -0.02    0.02
  -7   0   2    1.53    0.13
   7   0  -2    1.66    0.16
  -7   0   2    1.59    0.12
  -6   0   2    1.62    0.14
  -6   0   2    1.82    0.14
   6   0  -2    1.95    0.16
   6   0  -2    1.78    0.14
  -5   0   2    1.96    0.15
  -5   0   2    1.90    0.14
   5   0  -2    1.75    0.14
   5   0  -2    1.87    0.14
   4   0  -2  214.94   11.19
  -4   0   2  211.56   14.30
  -4   0   2  219.59   11.21
   4   0  -2  219.44   14.30
   3   0  -2   50.97    2.63
   3   0  -2   48.15    3.35
  -3   0   2   53.46    2.62
  -3   0   2   50.19    3.35
   3   0  -2   50.02    3.35
   2   0  -2  173.37    8.76
  -2   0   2  189.95   11.21
  -2   0   2  157.30   11.19
   2   0  -2  156.66   11.19
   1   0  -2  149.07    9.46
  -1   0   2  136.01    9.45
   0   0  -2  134.48    8.90
   0   0   2  132.61    8.89
  -1   0  -2   38.97    3.00
   1   0   2   49.45    3.00
  -1   0  -2   47.85    2.36
  -2   0  -2  187.07    9.42
   2   0   2  189.45   12.05
   2   0   2  191.00    9.43
  -2   0  -2  159.68   12.02
  -3   0  -2   68.51    4.31
   3   0   2   65.89    3.37
  -3   0  -2   65.63    3.37
   3   0   2   59.95    4.31
   3   0   2   65.69    3.38
   4   0   2   12.84    0.68
  -4   0  -2   13.29    0.68
   4   0   2   11.67    0.87
   4   0   2   13.09    0.69
  -4   0  -2   13.83    0.87
  -5   0  -2    3.14    0.19
  -5   0  -2    3.04    0.24
   5   0   2    3.22    0.20
   5   0   2    3.29    0.20
   5   0   2    3.57    0.24
  -6   0  -2   12.91    0.87
  -6   0  -2   12.64    0.69
   6   0   2   12.90    0.87
   6   0   2   12.35    0.69
   6   0   2   12.85    0.69
   7   0   2    6.64    0.38
  -7   0  -2    6.89    0.47
   7   0   2    6.36    0.38
   8   0   2    3.60    0.24
   8   0   2    3.75    0.24
  -8   0  -2    3.63    0.28
  10   1  -2    0.45    0.11
  -9  -1   2   -0.02    0.05
   9  -1  -2    0.02    0.08
   9   1  -2    0.02    0.10
  -8  -1   2    0.03    0.07
   8  -1  -2    0.10    0.08
   8   1  -2    0.00    0.09
  -7  -1   2    0.55    0.09
   7  -1  -2    0.49    0.09
   7   1  -2    0.55    0.09
   6  -1  -2    8.05    0.44
  -6  -1   2    7.77    0.54
  -6  -1   2    6.93    0.53
  -6  -1   2    8.06    0.42
   6   1  -2    7.84    0.44
   6   1  -2    7.58    0.53
  -5  -1   2    4.18    0.31
  -5  -1   2    4.18    0.24
  -5  -1   2    4.18    0.30
  -5  -1   2    3.95    0.25
   5  -1  -2    4.52    0.25
   5   1  -2    4.10    0.26
   5   1  -2    4.11    0.30
  -4  -1   2   11.66    0.65
  -4  -1   2   12.28    0.82
  -4  -1   2   12.61    0.83
   4  -1  -2   12.33    0.65
  -4  -1   2   11.89    0.65
   4   1  -2   11.80    0.66
   4   1  -2   12.62    0.82
  -3  -1   2    5.50    0.30
  -3  -1   2    5.12    0.38
   3  -1  -2    5.60    0.36
  -3   1   2    5.42    0.36
  -3   1   2    5.35    0.36
   3   1  -2    4.89    0.37
   3   1  -2    5.71    0.30
  -2  -1   2  179.18    9.96
  -2  -1   2  214.72   12.74
   2  -1  -2  208.74   12.70
  -2  -1   2  177.26   12.71
   2   1  -2  215.24   12.74
   2   1  -2  186.78    9.97
   2   1  -2  163.08   12.70
  -1  -1   2   48.27    3.47
   1  -1  -2   53.01    3.47
  -1  -1   2   54.23    2.72
   1   1  -2   53.75    2.72
  -1   1   2   52.90    2.72
   0  -1  -2  193.22   12.59
   0  -1   2  209.43   12.60
   0  -1  -2  186.32    9.85
   0  -1   2  183.88    9.85
   0  -1   2  159.68   12.57
   0   1  -2  180.17    9.84
   0   1   2  180.85    9.84
   0   1   2  216.04   12.60
   0   1  -2  201.35   12.59
  -1  -1  -2  157.77   10.07
  -1  -1  -2  142.54    7.86
  -1  -1  -2  145.83    7.88
   1   1   2  169.30   10.06
  -1   1  -2  160.57   10.06
   1   1   2  146.22    7.89
   1   1   2  141.24    7.85
   2  -1   2    8.42    0.63
  -2  -1  -2    9.36    0.50
  -2  -1  -2    8.85    0.64
   2  -1   2    9.59    0.49
  -2  -1  -2    9.23    0.50
  -2   1  -2   10.24    0.63
   2   1   2    9.41    0.50
   2   1   2    9.58    0.50
   2   1   2   10.04    0.64
   3  -1   2   37.39    2.36
  -3  -1  -2   35.69    1.85
   3  -1   2   36.43    1.84
  -3  -1  -2   35.83    1.85
   3   1   2   36.70    1.85
  -3   1  -2   35.66    2.36
   3   1   2   30.47    2.36
   3   1   2   36.20    1.86
   4  -1   2    7.40    0.53
  -4  -1  -2    8.20    0.55
  -4  -1  -2    7.73    0.43
   4  -1   2    7.40    0.42
   4   1   2    8.88    0.55
   4   1   2    7.68    0.43
   4   1   2    7.91    0.43
  -4   1  -2    7.84    0.53
   5  -1   2    5.05    0.29
   5  -1   2    5.27    0.30
   5  -1   2    5.23    0.37
  -5  -1  -2    5.25    0.30
  -5  -1  -2    5.22    0.38
   5   1   2    5.86    0.38
  -5   1  -2    5.03    0.37
   5   1   2    5.19    0.31
   5   1   2    5.25    0.31
   6  -1   2    6.85    0.39
  -6  -1  -2    7.27    0.51
  -6  -1  -2    7.21    0.40
   6  -1   2    7.04    0.49
   6  -1   2    7.15    0.40
   6   1   2    7.47    0.41
  -6   1  -2    7.23    0.49
   6   1   2    7.00    0.41
  -7  -1  -2    4.27    0.33
   7  -1   2    4.09    0.26
   7  -1   2    4.08    0.26
   7  -1   2    4.27    0.30
   7   1   2    4.44    0.27
  -7   1  -2    4.32    0.30
   7   1   2    4.47    0.27
   8  -1   2    0.62    0.08
  -8  -1  -2    0.44    0.10
   8  -1   2    0.49    0.09
   8   1   2    0.65    0.10
  -8   1  -2    0.59    0.06
  -9  -1  -2    0.22    0.09
   9   1   2    0.26    0.10
  -9  -2   2    1.09    0.14
   9  -2  -2    1.08    0.13
   9   2  -2    0.97    0.14
   8  -2  -2    0.48    0.09
  -8  -2   2    0.52    0.11
   8   2  -2    0.54    0.12
  -7  -2   2    0.41    0.10
  -7  -2   2    0.55    0.08
  -7  -2   2    0.47    0.09
   7  -2  -2    0.26    0.08
   7   2  -2    0.50    0.11
  -6  -2   2    1.14    0.14
  -6  -2   2    1.17    0.12
  -6  -2   2    1.07    0.13
   6  -2  -2    1.56    0.12
   6   2  -2    1.21    0.13
  -5  -2   2    0.83    0.11
   5  -2  -2    0.97    0.09
  -5  -2   2    0.91    0.09
  -5  -2   2    0.93    0.11
  -5  -2   2    0.82    0.09
   5   2  -2    0.98    0.11
   5   2  -2    0.96    0.10
  -4  -2   2    0.75    0.08
  -4  -2   2    0.53    0.09
  -4  -2   2    1.21    0.10
  -4  -2   2    0.76    0.10
   4   2  -2    0.96    0.09
   4   2  -2    0.75    0.10
   3  -2  -2    0.22    0.03
  -3  -2   2    0.09    0.06
  -3  -2   2    0.20    0.05
  -3  -2   2    0.03    0.05
   3  -2  -2    0.19    0.03
   3  -2  -2    0.24    0.02
   3   2  -2    0.07    0.05
   3   2  -2    0.10    0.05
  -3   2   2    0.18    0.03
  -2  -2   2   -0.06    0.05
   2  -2  -2    0.03    0.02
   2  -2  -2    0.04    0.03
  -2  -2   2    0.07    0.04
  -2  -2   2   -0.04    0.04
   2   2  -2    0.03    0.05
  -2   2   2    0.05    0.03
   2   2  -2   -0.06    0.04
   2   2  -2   -0.03    0.04
   1  -2  -2   21.04    1.38
  -1  -2   2   19.48    1.08
  -1  -2   2   22.02    1.38
   1  -2  -2   19.71    1.08
   1   2  -2   19.44    1.08
  -1   2   2   21.12    1.38
   1   2  -2   21.59    1.38
   0  -2   2   61.17    4.01
   0  -2  -2   61.63    3.14
   0  -2  -2   61.63    3.14
   0  -2   2   60.78    3.14
   0  -2  -2   53.50    4.01
   0   2   2   59.88    3.14
   0   2   2   63.12    4.01
   0   2  -2   60.02    3.14
   0   2  -2   64.15    4.02
   1  -2   2   86.50    5.40
   1  -2   2   83.96    5.40
  -1  -2  -2   81.51    4.24
  -1  -2  -2   69.17    5.40
  -1  -2  -2   83.68    4.23
   1  -2   2   80.32    4.24
  -1   2  -2   84.21    5.40
   1   2   2   82.03    4.23
   1   2   2   81.13    4.24
   1   2   2   79.65    5.41
  -1   2  -2   86.26    5.40
  -1   2  -2   80.47    4.25
  -2  -2  -2   89.65    4.77
   2  -2   2   95.67    6.08
  -2  -2  -2   98.33    6.09
   2  -2   2   92.29    4.76
  -2  -2  -2   89.09    4.77
   2  -2   2   78.49    6.08
  -2   2  -2   94.69    6.08
   2   2   2   99.08    6.09
   2   2   2   93.51    4.77
   2   2   2   89.43    4.77
   3  -2   2   32.61    1.72
  -3  -2  -2   34.49    2.22
   3  -2   2   32.47    2.21
  -3  -2  -2   33.50    1.74
   3  -2   2   34.08    2.21
  -3  -2  -2   33.41    1.74
   3   2   2   33.17    1.74
   3   2   2   32.57    1.74
  -3   2  -2   33.32    2.21
   4  -2   2    2.89    0.17
   4  -2   2    2.98    0.23
  -4  -2  -2    3.15    0.25
  -4  -2  -2    3.12    0.20
   4  -2   2    3.33    0.23
  -4  -2  -2    3.18    0.20
   4   2   2    3.55    0.21
   4   2   2    2.72    0.25
   4   2   2    3.10    0.20
  -4   2  -2    3.10    0.23
   5  -2   2    6.30    0.43
  -5  -2  -2    6.31    0.36
  -5  -2  -2    6.07    0.36
   5  -2   2    6.29    0.34
  -5  -2  -2    6.77    0.47
   5  -2   2    6.38    0.43
  -5   2  -2    6.46    0.43
   5   2   2    5.86    0.45
   5   2   2    6.34    0.37
   5   2   2    6.18    0.37
   6  -2   2    0.42    0.06
   6  -2   2    0.44    0.06
  -6  -2  -2    0.44    0.10
   6  -2   2    0.48    0.05
   6  -2   2    0.35    0.05
   6   2   2    0.49    0.09
   6   2   2    0.44    0.08
  -6   2  -2    0.40    0.05
  -7  -2  -2   -0.04    0.08
   7  -2   2   -0.03    0.05
   7  -2   2   -0.08    0.05
   7   2   2    0.11    0.08
  -8  -2  -2    0.54    0.11
   8   2   2    0.43    0.11
  -9  -2  -2   -0.05    0.09
   9   2   2   -0.02    0.09
  -9  -3   2    3.45    0.32
   9   3  -2    3.73    0.28
   8  -3  -2    0.51    0.10
  -8  -3   2    0.46    0.12
   8   3  -2    0.47    0.13
  -7  -3   2   15.08    1.07
   7  -3  -2   15.72    0.84
   7   3  -2   15.57    0.85
   6  -3  -2   13.24    0.69
  -6  -3   2   11.58    0.89
   6   3  -2   13.48    0.71
  -5  -3   2    1.11    0.13
  -5  -3   2    1.19    0.11
  -5  -3   2    0.96    0.13
   5   3  -2    1.12    0.12
  -4  -3   2   -0.17    0.06
   4  -3  -2   -0.01    0.02
  -4  -3   2   -0.20    0.06
   4  -3  -2   -0.01    0.02
   4  -3  -2   -0.05    0.02
  -4  -3   2   -0.07    0.05
  -4  -3   2   -0.01    0.05
  -4   3   2   -0.04    0.02
   4   3  -2   -0.16    0.07
   4   3  -2   -0.01    0.06
  -3  -3   2    3.74    0.22
   3  -3  -2    3.46    0.25
   3  -3  -2    3.64    0.25
  -3  -3   2    3.36    0.28
   3  -3  -2    3.56    0.20
  -3  -3   2    3.76    0.28
   3   3  -2    3.60    0.27
   3   3  -2    3.71    0.22
  -2  -3   2    8.24    0.43
  -2  -3   2    8.65    0.55
  -2  -3   2    6.82    0.54
   2  -3  -2    7.99    0.41
   2  -3  -2    6.78    0.53
   2   3  -2    8.24    0.43
   1  -3  -2   15.17    0.80
   1  -3  -2   15.65    0.80
   1  -3  -2   15.33    1.02
  -1  -3   2   15.32    0.80
  -1  -3   2   15.39    1.03
   1   3  -2   12.96    1.02
  -1   3   2   15.67    1.02
   1   3  -2   15.87    1.03
   1   3  -2   15.07    0.80
   0  -3   2  322.46   17.83
   0  -3   2  350.95   22.77
   0  -3  -2  342.01   17.83
   0  -3  -2  334.57   17.86
   0  -3  -2  367.79   22.81
   0   3  -2  323.66   17.84
   0   3   2  366.66   22.78
   0   3  -2  344.88   22.77
   1  -3   2  179.18   10.04
  -1  -3  -2  189.82   10.02
   1  -3   2  214.17   12.84
  -1  -3  -2  189.23   12.80
   1  -3   2  197.17   12.82
  -1  -3  -2  188.03   10.04
  -1   3  -2  195.54   12.83
   1   3   2  181.04   10.03
  -1   3  -2  182.42   10.05
  -1   3  -2  221.86   12.84
   1   3   2  194.26   12.80
  -2  -3  -2    7.10    0.57
   2  -3   2    7.29    0.56
  -2  -3  -2    7.61    0.45
  -2  -3  -2    8.13    0.45
   2  -3   2    8.75    0.56
   2  -3   2    8.26    0.43
  -2   3  -2    8.54    0.56
  -2   3  -2    8.63    0.56
   2   3   2    8.03    0.45
   2   3   2    9.05    0.58
  -3  -3  -2   27.19    1.42
   3  -3   2   24.88    1.79
  -3  -3  -2   27.10    1.41
  -3  -3  -2   24.93    1.80
   3  -3   2   27.75    1.39
   3  -3   2   27.54    1.79
  -3   3  -2   27.06    1.79
   3   3   2   28.83    1.81
   3   3   2   26.37    1.41
  -4  -3  -2    1.58    0.12
  -4  -3  -2    1.16    0.15
   4  -3   2    1.06    0.11
   4  -3   2    1.13    0.11
   4  -3   2    1.30    0.07
  -4  -3  -2    1.21    0.11
  -4   3  -2    1.22    0.11
   4   3   2    0.87    0.13
   4   3   2    1.09    0.11
   5  -3   2   -0.01    0.03
   5  -3   2   -0.01    0.04
   5  -3   2    0.01    0.04
  -5  -3  -2   -0.01    0.09
   5   3   2    0.05    0.08
  -5   3  -2   -0.01    0.04
   6  -3   2   20.54    1.37
   6  -3   2   21.25    1.08
  -6  -3  -2   19.53    1.42
   6  -3   2   20.24    1.37
   6   3   2   22.32    1.12
   7  -3   2    1.66    0.12
  -7  -3  -2    1.81    0.22
   7  -3   2    1.69    0.13
   7   3   2    1.76    0.17
  -8  -3  -2    0.02    0.11
   8   3   2    0.10    0.10
  -9  -3  -2    0.07    0.10
   9   3   2    0.06    0.11
  -9  -4   2    0.12    0.12
   9   4  -2    0.15    0.14
  -8  -4   2    0.25    0.13
   8   4  -2    0.25    0.11
  -7  -4   2    6.83    0.51
   7  -4  -2    5.99    0.38
   7   4  -2    6.94    0.42
  -6  -4   2    0.12    0.10
  -6  -4   2    0.14    0.12
   6   4  -2    0.32    0.10
  -5  -4   2   52.07    3.28
  -5  -4   2   48.95    3.28
   5  -4  -2   47.51    2.54
   5   4  -2   47.61    2.57
   4  -4  -2   32.38    2.19
   4  -4  -2   33.12    1.71
   4  -4  -2   33.80    2.19
  -4  -4   2   36.63    2.22
  -4  -4   2   29.01    2.21
  -4   4   2   32.83    2.19
   4   4  -2   33.02    1.74
   3  -4  -2    4.35    0.30
  -3  -4   2    4.63    0.33
  -3  -4   2    3.20    0.32
   3  -4  -2    4.22    0.30
  -3  -4   2    4.02    0.25
   3  -4  -2    3.93    0.23
  -3   4   2    4.28    0.30
   3   4  -2    4.59    0.33
   3   4  -2    3.81    0.25
   2  -4  -2   44.78    2.45
  -2  -4   2   43.65    2.45
   2  -4  -2   48.81    3.12
  -2  -4   2   47.69    3.13
   2  -4  -2   44.89    2.44
   2  -4  -2   50.42    3.12
  -2  -4   2   47.78    3.14
   2   4  -2   48.10    3.13
  -2   4   2   48.26    3.12
   2   4  -2   45.19    2.45
   1  -4  -2  103.01    5.29
  -1  -4   2  103.09    6.76
  -1  -4   2   98.49    5.29
   1  -4  -2   96.86    5.28
  -1  -4   2  105.68    6.76
   1   4  -2   98.76    5.29
  -1   4   2  100.90    6.75
   1   4  -2  109.13    6.76
   0  -4   2    2.45    0.21
   0  -4   2    2.66    0.21
   0  -4  -2    2.44    0.16
   0  -4  -2    2.49    0.16
   0  -4   2    2.36    0.15
   0  -4  -2    2.55    0.21
   0   4  -2    2.00    0.20
   0   4  -2    2.31    0.15
   0   4   2    2.63    0.20
   0   4  -2    2.43    0.21
  -1  -4  -2   42.89    2.22
  -1  -4  -2   44.39    2.23
   1  -4   2   44.10    2.84
   1  -4   2   42.53    2.21
   1   4   2   41.49    2.22
  -1   4  -2   44.45    2.84
  -1   4  -2   43.05    2.21
  -1   4  -2   37.54    2.83
   2  -4   2   22.67    1.65
   2  -4   2   22.29    1.66
  -2  -4  -2   27.84    1.31
  -2  -4  -2   28.71    1.68
   2  -4   2   27.03    1.29
  -2  -4  -2   27.20    1.31
   2   4   2   27.17    1.31
  -2   4  -2   21.21    1.65
  -2   4  -2   22.86    1.66
   2   4   2   20.88    1.66
   3  -4   2   11.27    0.55
  -3  -4  -2   11.54    0.74
   3  -4   2    9.72    0.71
   3  -4   2    8.59    0.71
  -3  -4  -2   10.60    0.57
   3   4   2   10.65    0.73
  -3   4  -2    9.89    0.71
   3   4   2   10.57    0.57
   4  -4   2   20.13    1.39
  -4  -4  -2   22.11    1.42
   4  -4   2   20.61    1.08
   4  -4   2   20.61    1.39
   4   4   2   21.01    1.11
  -4   4  -2   19.95    1.39
  -5  -4  -2    1.56    0.19
   5  -4   2    1.43    0.09
   5  -4   2    1.49    0.13
   5  -4   2    1.44    0.09
   5  -4   2    1.65    0.13
   5   4   2    1.44    0.15
   6  -4   2    4.08    0.22
   6  -4   2    3.84    0.27
  -6  -4  -2    4.53    0.36
  -6  -4  -2    3.87    0.33
   6   4   2    3.69    0.27
  -7  -4  -2    0.05    0.10
   7   4   2   -0.10    0.08
  -8  -4  -2    2.33    0.27
   8   4   2    1.84    0.20
  -8  -5   2   -0.13    0.11
   8   5  -2    0.21    0.12
  -7  -5   2   -0.10    0.10
   7  -5  -2   -0.06    0.07
   7   5  -2    0.16    0.12
  -6  -5   2    1.59    0.20
   6   5  -2    1.70    0.17
  -5  -5   2    5.35    0.41
   5  -5  -2    5.03    0.28
   5  -5  -2    5.04    0.36
  -5  -5   2    4.70    0.41
   5  -5  -2    5.17    0.36
   5   5  -2    5.24    0.33
   4  -5  -2    8.62    0.59
  -4  -5   2    8.69    0.62
   4  -5  -2    8.27    0.46
   4  -5  -2    8.72    0.59
  -4  -5   2    8.62    0.63
  -4   5   2    7.92    0.58
   4   5  -2    8.52    0.49
   3  -5  -2   13.42    0.90
   3  -5  -2   13.35    0.71
  -3  -5   2   14.24    0.93
   3  -5  -2   11.64    0.90
  -3  -5   2   14.37    0.93
   3  -5  -2   13.57    0.71
  -3   5   2   11.44    0.90
   3   5  -2   13.71    0.73
   2  -5  -2   17.92    0.97
  -2  -5   2   19.01    1.25
   2  -5  -2   17.42    0.97
   2  -5  -2   18.67    1.24
  -2  -5   2   19.23    1.25
   2   5  -2   18.02    1.25
   2   5  -2   17.56    0.98
   1  -5  -2    2.07    0.19
  -1  -5   2    1.97    0.19
   1  -5  -2    2.26    0.15
  -1  -5   2    2.07    0.15
   1  -5  -2    2.26    0.20
  -1  -5   2    2.14    0.20
   1  -5  -2    2.15    0.15
   1   5  -2    1.79    0.20
  -1   5   2    2.22    0.19
   1   5  -2    2.15    0.15
   0  -5  -2    0.56    0.08
   0  -5   2    0.61    0.10
   0  -5   2    0.53    0.10
   0  -5   2    0.58    0.07
   0  -5  -2    0.52    0.09
   0  -5  -2    0.53    0.07
   0  -5  -2    0.32    0.09
   0   5   2    0.57    0.10
   0   5  -2    0.56    0.10
   0   5  -2    0.67    0.07
   1  -5   2    6.13    0.43
   1  -5   2    5.88    0.33
   1  -5   2    5.77    0.44
  -1  -5  -2    5.96    0.34
  -1  -5  -2    6.37    0.45
  -1  -5  -2    5.92    0.35
   1   5   2    5.99    0.35
   1   5   2    5.26    0.43
  -1   5  -2    5.93    0.43
  -1   5  -2    5.47    0.33
   2  -5   2    2.42    0.14
   2  -5   2    2.26    0.19
  -2  -5  -2    2.22    0.23
   2  -5   2    2.07    0.20
  -2   5  -2    2.06    0.19
   2   5   2    2.24    0.22
   2   5   2    2.29    0.17
   3  -5   2    1.95    0.18
   3  -5   2    2.10    0.13
  -3  -5  -2    1.80    0.20
  -3   5  -2    1.84    0.18
   3   5   2    1.77    0.16
   4  -5   2    2.99    0.23
   4  -5   2    2.85    0.17
  -4  -5  -2    2.79    0.28
   4   5   2    2.61    0.21
   5  -5   2    0.51    0.05
  -5  -5  -2    0.40    0.13
   5  -5   2    0.56    0.05
   5  -5   2    0.45    0.08
   5   5   2    0.58    0.10
  -6  -5  -2    0.06    0.13
   6   5   2    0.22    0.10
  -7  -5  -2    0.10    0.12
   7   5   2    0.13    0.10
  -8  -5  -2    0.51    0.17
   8   5   2    0.60    0.15
  -7  -6   2    1.79    0.23
   7   6  -2    1.86    0.20
  -6  -6   2    0.06    0.12
   6   6  -2    0.29    0.11
  -5  -6   2    5.80    0.47
   5   6  -2    5.64    0.37
   4  -6  -2    8.58    0.59
   4  -6  -2    8.14    0.46
  -4  -6   2    8.81    0.64
  -4   6   2    8.45    0.59
   4   6  -2    8.09    0.49
  -3  -6   2   16.31    1.13
   3  -6  -2   15.15    0.86
   3  -6  -2   16.78    1.10
  -3   6   2   16.39    1.10
   3   6  -2   15.71    0.88
   2  -6  -2    0.03    0.06
   2  -6  -2    0.17    0.08
  -2  -6   2    0.12    0.10
  -2   6   2    0.17    0.09
   2   6  -2    0.27    0.08
   1  -6  -2   45.79    2.82
   1   6  -2   45.55    2.83
   1   6  -2   43.03    2.21
  -1   6   2   34.10    2.81
   0  -6  -2    3.33    0.32
   0  -6   2    4.19    0.33
   0  -6   2    4.02    0.25
   0   6   2    3.31    0.32
   0   6  -2    4.23    0.25
   0   6  -2    4.31    0.33
   1  -6   2   15.78    0.86
   1  -6   2   16.06    1.11
  -1  -6  -2   16.36    1.12
   1   6   2   16.64    1.12
  -1   6  -2   15.33    1.11
   2  -6   2   21.48    1.14
   2  -6   2   22.48    1.47
  -2  -6  -2   23.76    1.49
   2   6   2   21.60    1.16
  -2   6  -2   18.70    1.46
   3  -6   2    0.22    0.09
   3  -6   2    0.27    0.05
  -3  -6  -2    0.26    0.11
  -3   6  -2    0.02    0.07
   3   6   2    0.14    0.08
  -4  -6  -2    2.93    0.32
   4  -6   2    3.57    0.28
   4   6   2    3.57    0.25
  -5  -6  -2    0.19    0.13
   5   6   2    0.35    0.10
  -6  -6  -2    0.32    0.16
   6   6   2    0.24    0.11
  -7  -6  -2    0.00    0.16
   7   6   2    0.22    0.11
   7   7  -2    2.72    0.26
  -6  -7   2    2.41    0.30
   6   7  -2    1.87    0.21
  -5  -7   2    1.06    0.19
   5   7  -2    0.84    0.15
  -4  -7   2    0.03    0.13
   4   7  -2   -0.03    0.09
  -3  -7   2    1.42    0.18
   3  -7  -2    1.37    0.16
   3   7  -2    1.22    0.14
  -2  -7   2    5.28    0.48
   2  -7  -2    6.58    0.48
   2   7  -2    6.33    0.38
  -2   7   2    6.16    0.46
  -1  -7   2    0.40    0.13
   1  -7  -2    0.27    0.11
  -1   7   2    0.40    0.12
   1   7  -2    0.48    0.10
   0  -7  -2    6.53    0.49
   0  -7   2    5.44    0.47
   0   7  -2    6.24    0.36
   1  -7   2   41.05    2.71
  -1  -7  -2   42.16    2.72
  -1   7  -2   37.31    2.70
  -2  -7  -2   13.35    0.94
   2  -7   2   12.85    0.71
   2  -7   2   12.78    0.92
   2   7   2   13.24    0.74
  -2   7  -2   13.17    0.92
   3  -7   2    5.12    0.40
  -3  -7  -2    5.03    0.42
   3   7   2    4.88    0.33
  -4  -7  -2    2.03    0.25
   4   7   2    1.95    0.19
  -5  -7  -2    0.76    0.18
   5   7   2    0.51    0.13
  -6  -7  -2    4.38    0.41
   6   7   2    4.08    0.32
  -5  -8   2    1.60    0.25
   5   8  -2    1.86    0.21
  -4  -8   2    1.49    0.23
   4   8  -2    1.37    0.17
  -3  -8   2    1.97    0.26
   3   8  -2    2.18    0.20
  -2  -8   2    0.46    0.15
   2  -8  -2    0.39    0.13
   2   8  -2    0.71    0.11
  -1  -8   2    0.02    0.11
   1  -8  -2   -0.14    0.09
   1   8  -2   -0.04    0.08
   0  -8  -2    0.00    0.13
   0  -8   2    0.00    0.10
  -1  -8  -2    1.09    0.18
   1  -8   2    0.89    0.15
  -2  -8  -2   -0.22    0.11
   2  -8   2   -0.04    0.09
  -3  -8  -2   12.42    0.93
   3   8   2   12.61    0.72
  -4  -8  -2    6.42    0.54
   4   8   2    5.84    0.41
  -5  -8  -2    0.15    0.16
   5   8   2    0.18    0.13
  -3  -9   2    0.70    0.19
   3   9  -2    1.03    0.16
  -2  -9   2   -0.09    0.14
   2   9  -2    0.20    0.09
  -1  -9   2   -0.09    0.13
   0  -9  -2    0.83    0.18
   0  -9   2    0.70    0.19
  -1  -9  -2   -0.23    0.12
  -2  -9  -2    0.43    0.17
  -3  -9  -2    2.83    0.35
  10   0  -3   -0.19    0.10
   9   0  -3    0.01    0.09
   8   0  -3   -0.08    0.07
   7   0  -3    0.02    0.07
  -7   0   3    0.03    0.03
  -7   0   3   -0.02    0.04
  -6   0   3    0.06    0.05
  -6   0   3   -0.01    0.05
   6   0  -3    0.23    0.08
   5   0  -3    0.03    0.05
  -5   0   3    0.00    0.04
  -5   0   3   -0.03    0.04
  -5   0   3    0.00    0.03
  -4   0   3   -0.07    0.03
  -4   0   3    0.01    0.01
   4   0  -3   -0.09    0.06
   4   0  -3    0.12    0.04
  -4   0   3   -0.11    0.04
   3   0  -3   -0.01    0.03
  -3   0   3   -0.03    0.03
  -3   0   3   -0.02    0.03
   3   0  -3   -0.07    0.04
  -2   0   3   -0.13    0.03
   2   0  -3   -0.15    0.03
  -2   0   3   -0.13    0.03
  -1   0   3    0.00    0.03
   1   0  -3    0.00    0.03
   0   0   3    0.04    0.03
   0   0  -3    0.09    0.04
   1   0   3   -0.02    0.03
  -1   0  -3   -0.01    0.03
  -2   0  -3   -0.04    0.02
  -2   0  -3   -0.01    0.05
   2   0   3   -0.02    0.03
   2   0   3   -0.02    0.02
   3   0   3    0.05    0.04
   3   0   3    0.02    0.03
  -3   0  -3    0.05    0.03
   3   0   3    0.00    0.04
  -3   0  -3    0.01    0.04
   4   0   3   -0.08    0.04
   4   0   3   -0.03    0.04
  -4   0  -3    0.00    0.05
  -4   0  -3    0.00    0.03
   4   0   3   -0.03    0.04
   5   0   3   -0.02    0.05
   5   0   3   -0.03    0.05
  -5   0  -3   -0.03    0.05
  -5   0  -3   -0.01    0.04
   5   0   3   -0.01    0.04
   6   0   3   -0.03    0.05
   6   0   3    0.01    0.06
  -6   0  -3   -0.02    0.06
   6   0   3    0.14    0.06
  -6   0  -3    0.02    0.05
  -7   0  -3    0.19    0.08
   7   0   3    0.06    0.07
   7   0   3    0.13    0.07
   8   0   3    0.12    0.07
   8   0   3    0.14    0.07
  -8   0  -3    0.01    0.07
  -9   0  -3    0.07    0.07
  10  -1  -3    0.05    0.10
  10   1  -3   -0.05    0.11
   9  -1  -3    0.47    0.10
  -9  -1   3    0.17    0.06
   9   1  -3    0.15    0.10
   8  -1  -3    9.10    0.51
  -8  -1   3    8.53    0.62
   8   1  -3    9.10    0.52
   7  -1  -3    0.78    0.11
  -7  -1   3    0.74    0.08
  -7  -1   3    0.75    0.10
   7   1  -3    0.72    0.11
  -6  -1   3    5.98    0.44
  -6  -1   3    6.16    0.34
   6  -1  -3    6.81    0.37
  -6  -1   3    5.88    0.43
   6   1  -3    6.45    0.44
   6   1  -3    5.82    0.37
  -5  -1   3    1.42    0.10
  -5  -1   3    1.30    0.14
  -5  -1   3    1.23    0.13
   5  -1  -3    1.32    0.11
   5   1  -3    1.42    0.13
   5   1  -3    1.32    0.13
  -4  -1   3    9.72    0.54
   4  -1  -3   10.72    0.68
  -4  -1   3    8.90    0.70
  -4  -1   3   10.35    0.70
   4   1  -3   10.76    0.70
  -4   1   3   10.13    0.68
   4   1  -3   10.32    0.56
  -4   1   3   10.69    0.68
  -3  -1   3    0.06    0.04
  -3  -1   3    0.05    0.04
  -3  -1   3    0.10    0.04
   3  -1  -3    0.08    0.03
  -3   1   3    0.09    0.03
   3   1  -3    0.09    0.04
   3   1  -3    0.07    0.04
   3   1  -3    0.06    0.04
  -2  -1   3  611.06   32.06
  -2  -1   3  640.76   40.92
  -2  -1   3  546.61   40.89
   2   1  -3  672.38   40.92
   2   1  -3  629.32   40.91
   2   1  -3  614.83   32.07
  -1  -1   3  124.28    8.01
   1  -1  -3  126.18    8.02
   1   1  -3  111.75    6.26
  -1   1   3  124.24    8.02
  -1   1   3  118.97    6.28
   0  -1   3    0.09    0.04
   0  -1  -3    0.12    0.03
   0   1   3    0.19    0.03
   0   1  -3    0.09    0.02
   0   1  -3    0.20    0.04
   0   1   3    0.12    0.03
  -1  -1  -3   -0.03    0.03
  -1  -1  -3    0.08    0.03
   1  -1   3    0.05    0.03
  -1   1  -3    0.12    0.04
   1   1   3    0.04    0.03
   1   1   3    0.14    0.04
   2  -1   3    0.08    0.04
  -2  -1  -3    0.05    0.04
  -2  -1  -3    0.09    0.03
  -2   1  -3    0.09    0.01
   2   1   3    0.07    0.04
   2   1   3    0.09    0.04
   2   1   3    0.09    0.04
  -2   1  -3    0.03    0.04
   3  -1   3    3.06    0.17
  -3  -1  -3    3.38    0.18
  -3  -1  -3    3.18    0.24
   3  -1   3    3.26    0.23
  -3   1  -3    3.03    0.17
   3   1   3    3.05    0.19
   3   1   3    2.67    0.23
   3   1   3    3.31    0.19
  -3   1  -3    3.21    0.23
   4  -1   3   56.21    3.43
  -4  -1  -3   48.63    3.43
   4  -1   3   52.94    2.68
  -4  -1  -3   51.89    2.69
   4   1   3   53.17    2.69
   4   1   3   53.55    2.69
   4   1   3   44.91    3.43
  -4   1  -3   52.11    3.42
   5  -1   3   29.44    1.50
  -5  -1  -3   28.68    1.50
   5  -1   3   29.37    1.49
   5  -1   3   28.04    1.90
  -5  -1  -3   24.36    1.91
   5   1   3   30.58    1.51
   5   1   3   29.51    1.50
  -5   1  -3   30.13    1.90
   5   1   3   26.60    1.91
   6  -1   3    2.01    0.17
  -6  -1  -3    1.87    0.15
   6  -1   3    2.09    0.13
   6  -1   3    1.83    0.15
  -6  -1  -3    2.01    0.19
  -6   1  -3    1.98    0.17
   6   1   3    2.03    0.17
   6   1   3    1.88    0.15
   7  -1   3    2.80    0.18
  -7  -1  -3    2.48    0.22
   7  -1   3    2.22    0.16
   7   1   3    2.36    0.18
   7   1   3    2.46    0.19
  -7   1  -3    2.19    0.19
   8  -1   3    0.00    0.07
  -8  -1  -3    0.14    0.09
  -8   1  -3    0.10    0.05
   8   1   3    0.00    0.08
   8   1   3    0.10    0.08
  -9  -1  -3    0.29    0.09
   9   1   3    0.28    0.11
   9  -2  -3    0.19    0.09
  -9  -2   3    0.07    0.09
   9   2  -3    0.07    0.11
   8  -2  -3    1.14    0.13
  -8  -2   3    1.04    0.14
   8   2  -3    1.17    0.14
   7  -2  -3    0.45    0.09
  -7  -2   3    0.40    0.10
  -7  -2   3    0.50    0.07
  -7  -2   3    0.42    0.08
   7   2  -3    0.30    0.11
   6  -2  -3   23.13    1.26
  -6  -2   3   23.74    1.60
  -6  -2   3   24.67    1.60
  -6  -2   3   23.24    1.25
   6   2  -3   23.77    1.27
  -5  -2   3    2.17    0.14
  -5  -2   3    2.12    0.18
  -5  -2   3    2.03    0.19
   5   2  -3    2.15    0.16
   5   2  -3    1.88    0.18
   4  -2  -3    9.44    0.62
  -4  -2   3   10.05    0.66
  -4  -2   3    9.17    0.52
  -4  -2   3    8.78    0.65
   4  -2  -3    9.51    0.62
   4   2  -3    9.44    0.52
  -4   2   3    9.16    0.62
  -4   2   3    9.58    0.62
   4   2  -3    9.90    0.66
  -3  -2   3   51.83    2.75
   3  -2  -3   52.26    3.49
  -3  -2   3   57.12    3.51
   3   2  -3   46.38    3.50
  -3   2   3   53.25    3.49
   3   2  -3   56.82    3.51
   3   2  -3   52.02    2.75
  -2  -2   3   48.92    3.24
  -2  -2   3   48.50    2.54
   2  -2  -3   47.29    3.23
   2  -2  -3   47.70    2.52
   2   2  -3   47.56    2.54
   2   2  -3   51.51    3.24
  -2   2   3   49.91    3.23
   1  -2  -3    0.09    0.05
   1  -2  -3    0.24    0.04
  -1  -2   3    0.24    0.06
  -1  -2   3    0.20    0.04
  -1  -2   3    0.24    0.06
  -1   2   3    0.17    0.04
   1   2  -3    0.20    0.06
   1   2  -3    0.18    0.06
  -1   2   3    0.22    0.05
   1   2  -3    0.23    0.04
   0  -2   3  502.67   31.13
   0  -2  -3  476.93   31.13
   0  -2   3  466.88   31.13
   0  -2  -3  445.20   24.36
   0  -2   3  455.56   24.35
   0   2  -3  479.71   31.12
   0   2   3  471.46   24.37
   0   2  -3  452.38   24.35
   0   2  -3  483.58   31.12
   1  -2   3   16.10    1.11
  -1  -2  -3   16.29    0.87
  -1  -2  -3   15.40    0.87
   1  -2   3   17.54    1.11
   1  -2   3   16.01    0.86
  -1  -2  -3   17.06    1.11
  -1   2  -3   16.31    1.11
  -1   2  -3   16.43    0.86
   1   2   3   18.07    1.11
   1   2   3   15.90    0.87
  -2  -2  -3   65.95    3.51
   2  -2   3   68.87    4.47
   2  -2   3   70.14    4.47
  -2  -2  -3   65.56    4.48
  -2  -2  -3   65.94    3.51
  -2   2  -3   69.25    4.47
   2   2   3   65.70    3.51
   2   2   3   67.50    3.51
   2   2   3   68.82    4.48
  -3  -2  -3   79.28    3.98
  -3  -2  -3   78.14    3.97
   3  -2   3   79.87    5.06
   3  -2   3   65.78    5.06
  -3  -2  -3   84.16    5.08
   3   2   3   77.51    3.97
   3   2   3   73.33    5.07
   3   2   3   78.93    3.98
  -3   2  -3   71.96    5.06
   4  -2   3    5.05    0.27
   4  -2   3    5.46    0.36
   4  -2   3    5.57    0.36
  -4  -2  -3    4.61    0.29
  -4  -2  -3    4.84    0.30
  -4  -2  -3    5.28    0.38
   4   2   3    5.26    0.38
   4   2   3    4.80    0.30
   4   2   3    4.91    0.30
  -4   2  -3    5.32    0.36
   5  -2   3    2.93    0.22
   5  -2   3    3.10    0.22
  -5  -2  -3    2.70    0.24
   5  -2   3    2.89    0.16
  -5  -2  -3    2.66    0.19
   5   2   3    2.88    0.20
  -5   2  -3    3.03    0.22
   5   2   3    2.92    0.20
   6  -2   3    1.72    0.14
  -6  -2  -3    1.70    0.18
   6  -2   3    1.99    0.15
   6  -2   3    1.52    0.11
   6  -2   3    1.65    0.15
  -6   2  -3    1.86    0.15
   6   2   3    1.83    0.17
   6   2   3    1.76    0.15
   7  -2   3    1.39    0.11
   7  -2   3    1.43    0.13
   7  -2   3    1.54    0.13
  -7  -2  -3    1.45    0.18
   7   2   3    1.85    0.16
  -7   2  -3    1.52    0.12
   7   2   3    1.49    0.15
  -8  -2  -3    0.57    0.12
   8   2   3    0.78    0.11
  -9  -2  -3   -0.03    0.09
   9   2   3    0.05    0.09
  -9  -3   3    0.93    0.15
   9   3  -3    1.10    0.15
   8  -3  -3    2.55    0.21
  -8  -3   3    2.79    0.27
   8   3  -3    2.95    0.24
  -7  -3   3    0.34    0.12
   7  -3  -3    0.77    0.10
   7   3  -3    0.56    0.13
  -6  -3   3   -0.29    0.09
   6  -3  -3    0.12    0.07
   6   3  -3   -0.12    0.08
  -5  -3   3   -0.01    0.05
  -5  -3   3   -0.04    0.06
  -5  -3   3   -0.06    0.08
   5   3  -3   -0.07    0.07
  -4  -3   3   21.18    1.44
  -4  -3   3   21.40    1.13
   4  -3  -3   21.40    1.41
   4  -3  -3   21.51    1.41
  -4   3   3   20.95    1.41
   4   3  -3   21.97    1.13
   4   3  -3   20.36    1.44
  -3  -3   3    0.52    0.08
   3  -3  -3    0.39    0.04
   3  -3  -3    0.35    0.05
  -3  -3   3    0.45    0.06
  -3  -3   3    0.42    0.09
   3   3  -3    0.48    0.07
   3   3  -3    0.49    0.08
  -3   3   3    0.23    0.05
   3   3  -3    0.38    0.07
  -2  -3   3    1.29    0.13
  -2  -3   3    1.02    0.09
  -2  -3   3    0.89    0.12
   2  -3  -3    1.31    0.11
   2   3  -3    1.18    0.13
   2   3  -3    1.14    0.10
  -2   3   3    1.19    0.11
  -1  -3   3   16.29    1.00
   1  -3  -3   14.66    0.77
  -1  -3   3   11.96    0.99
  -1  -3   3   13.92    0.77
   1   3  -3   14.47    0.77
   1   3  -3   15.76    1.00
  -1   3   3   15.37    0.99
   0  -3   3  128.82    8.40
   0  -3  -3  132.95    8.40
   0  -3  -3  124.71    6.58
   0  -3  -3  119.92    6.58
   0  -3   3  121.74    6.57
   0  -3   3  129.60    8.40
   0   3   3  129.19    8.40
   0   3  -3  121.66    6.57
   0   3  -3  133.63    8.40
   0   3   3  126.13    6.58
   0   3  -3  129.50    8.40
   1  -3   3   53.41    3.22
  -1  -3  -3   49.97    2.53
  -1  -3  -3   50.85    2.53
   1  -3   3   49.31    2.51
  -1  -3  -3   42.00    3.22
  -1   3  -3   40.99    3.22
   1   3   3   49.20    2.53
  -1   3  -3   51.07    3.22
  -1   3  -3   49.58    2.51
  -2  -3  -3   33.75    2.64
   2  -3   3   45.11    2.64
   2  -3   3   38.37    2.05
  -2  -3  -3   37.80    2.07
  -2  -3  -3   39.64    2.08
   2  -3   3   40.62    2.64
  -2   3  -3   42.23    2.64
   2   3   3   42.03    2.65
   2   3   3   38.79    2.08
   2   3   3   38.41    2.07
  -3  -3  -3    6.28    0.48
  -3  -3  -3    6.29    0.38
  -3  -3  -3    6.80    0.38
   3  -3   3    7.32    0.47
   3  -3   3    7.37    0.47
   3   3   3    6.71    0.38
   3   3   3    6.41    0.48
  -3   3  -3    6.19    0.47
   3   3   3    6.69    0.38
   4  -3   3    0.10    0.05
  -4  -3  -3    0.06    0.07
   4  -3   3    0.19    0.05
  -4  -3  -3    0.12    0.06
  -4   3  -3    0.06    0.05
   4   3   3    0.10    0.06
   4   3   3    0.08    0.06
  -5  -3  -3    9.61    0.67
   5  -3   3    9.10    0.63
   5  -3   3    8.84    0.63
   5   3   3    8.74    0.52
   5   3   3    9.15    0.52
  -5   3  -3    9.71    0.63
  -6  -3  -3    0.32    0.12
   6  -3   3    0.35    0.06
   6  -3   3    0.38    0.06
  -6   3  -3    0.31    0.06
   6   3   3    0.28    0.09
  -7  -3  -3    0.03    0.10
   7  -3   3    0.08    0.06
   7   3   3    0.00    0.08
  -8  -3  -3    0.67    0.14
   8   3   3    0.83    0.12
  -9  -3  -3   -0.01    0.11
   9   3   3    0.27    0.11
  -9  -4   3    0.10    0.12
   9   4  -3    0.18    0.12
   8  -4  -3    0.40    0.09
  -8  -4   3    0.38    0.14
   8   4  -3    0.46    0.12
  -7  -4   3    3.21    0.31
   7   4  -3    2.95    0.25
  -6  -4   3    0.75    0.13
  -6  -4   3    0.69    0.13
   6   4  -3    0.91    0.12
   5  -4  -3    8.28    0.54
  -5  -4   3    6.98    0.59
  -5  -4   3    8.61    0.60
   5  -4  -3    8.26    0.54
   5   4  -3    8.54    0.48
   4  -4  -3    7.10    0.41
  -4  -4   3    6.94    0.55
  -4  -4   3    8.62    0.56
   4  -4  -3    7.59    0.52
   4  -4  -3    7.68    0.52
   4   4  -3    7.60    0.44
  -4   4   3    7.94    0.52
  -3  -4   3    6.74    0.53
   3  -4  -3    6.93    0.50
  -3  -4   3    7.12    0.41
   3  -4  -3    6.93    0.50
  -3  -4   3    8.30    0.53
   3  -4  -3    7.41    0.39
  -3   4   3    6.94    0.50
   3   4  -3    7.02    0.41
   3   4  -3    8.01    0.53
  -2  -4   3    6.15    0.33
   2  -4  -3    6.45    0.41
  -2  -4   3    4.88    0.42
  -2  -4   3    5.75    0.42
   2  -4  -3    5.97    0.32
  -2   4   3    5.48    0.41
   2   4  -3    5.89    0.33
   2   4  -3    5.45    0.42
   2   4  -3    5.22    0.42
   1  -4  -3   30.40    1.55
  -1  -4   3   33.18    1.99
   1  -4  -3   30.09    1.55
   1  -4  -3   26.56    1.98
  -1  -4   3   28.68    1.98
  -1  -4   3   29.38    1.55
  -1   4   3   31.04    1.98
   1   4  -3   32.71    1.99
   1   4  -3   24.66    1.98
   1   4  -3   29.19    1.55
   0  -4  -3   51.02    2.76
   0  -4  -3   55.20    3.52
   0  -4   3   54.79    3.52
   0  -4  -3   52.90    2.76
   0  -4   3   51.11    2.75
   0   4   3   53.29    3.52
   0   4  -3   51.09    2.75
   0   4  -3   53.90    3.52
  -1  -4  -3    2.48    0.16
  -1  -4  -3    2.56    0.20
  -1  -4  -3    2.50    0.16
   1  -4   3    2.04    0.19
   1  -4   3    2.60    0.14
   1  -4   3    1.81    0.19
  -1   4  -3    2.06    0.20
   1   4   3    2.38    0.20
  -1   4  -3    2.50    0.14
  -1   4  -3    2.31    0.20
  -2  -4  -3    0.74    0.09
   2  -4   3    0.60    0.09
  -2  -4  -3    0.75    0.08
   2  -4   3    0.71    0.10
  -2  -4  -3    0.66    0.11
   2  -4   3    0.75    0.06
   2   4   3    0.70    0.09
   2   4   3    0.97    0.12
  -2   4  -3    0.67    0.09
  -2   4  -3    0.54    0.09
   3  -4   3    2.83    0.24
  -3  -4  -3    3.35    0.27
   3  -4   3    2.88    0.17
   3   4   3    2.90    0.21
   3   4   3    3.00    0.26
  -3   4  -3    3.73    0.25
   4  -4   3    5.65    0.43
   4  -4   3    6.28    0.43
  -4  -4  -3    6.48    0.47
  -4   4  -3    5.84    0.43
   4   4   3    6.34    0.37
   5  -4   3    0.30    0.06
   5  -4   3    0.32    0.07
  -5  -4  -3    0.20    0.10
   5   4   3    0.10    0.09
  -5   4  -3    0.42    0.07
  -6  -4  -3    5.23    0.42
   6  -4   3    4.58    0.34
   6   4   3    4.71    0.32
  -6   4  -3    4.95    0.34
  -7  -4  -3    0.39    0.12
   7   4   3    0.19    0.10
  -8  -4  -3    0.98    0.18
   8   4   3    1.16    0.16
  -8  -5   3    0.31    0.13
   8   5  -3    0.41    0.13
  -7  -5   3    1.07    0.17
   7   5  -3    1.06    0.15
  -6  -5   3   -0.13    0.10
   6   5  -3   -0.02    0.09
   5  -5  -3   13.62    0.92
  -5  -5   3   14.36    0.97
  -5  -5   3   12.80    0.96
   5  -5  -3   13.73    0.92
   5  -5  -3   13.02    0.72
  -5   5   3   13.94    0.92
   5   5  -3   14.21    0.76
   4  -5  -3    0.33    0.07
   4  -5  -3    0.29    0.07
   4  -5  -3    0.26    0.05
  -4  -5   3    0.33    0.11
  -4  -5   3    0.26    0.11
  -4   5   3    0.37    0.07
   4   5  -3    0.46    0.10
   3  -5  -3   60.85    3.23
   3  -5  -3   62.06    4.11
   3  -5  -3   59.70    3.22
  -3  -5   3   64.10    4.13
   3  -5  -3   63.29    4.11
   3   5  -3   59.68    3.24
  -3   5   3   64.00    4.11
  -2  -5   3   48.91    3.15
   2  -5  -3   46.05    2.46
  -2  -5   3   47.28    2.46
   2  -5  -3   46.06    2.45
   2  -5  -3   48.61    3.13
  -2  -5   3   41.95    3.14
   2  -5  -3   49.94    3.14
  -2   5   3   48.40    3.13
   2   5  -3   47.18    3.15
   2   5  -3   45.72    2.46
   1  -5  -3    9.20    0.50
  -1  -5   3    8.53    0.49
   1  -5  -3    8.87    0.49
   1  -5  -3    7.91    0.63
  -1  -5   3    9.04    0.65
  -1  -5   3    8.48    0.64
   1   5  -3    8.99    0.50
  -1   5   3    9.92    0.64
   1   5  -3    9.76    0.65
   0  -5  -3   38.71    1.96
   0  -5  -3   37.53    1.95
   0  -5   3   37.04    1.95
   0  -5   3   36.13    2.50
   0  -5  -3   38.28    2.50
   0   5  -3   32.38    2.49
   0   5   3   38.04    2.50
   0   5  -3   39.17    2.50
   0   5  -3   37.80    1.95
   1  -5   3    7.21    0.41
   1  -5   3    7.40    0.54
  -1   5  -3    7.65    0.54
  -1   5  -3    7.74    0.54
  -1   5  -3    7.14    0.41
   1   5   3    7.46    0.54
  -2  -5  -3    6.78    0.56
   2  -5   3    7.66    0.42
   2  -5   3    7.58    0.55
   2   5   3    7.28    0.44
   2   5   3    8.36    0.57
  -2   5  -3    8.00    0.55
  -2   5  -3    8.13    0.55
  -3  -5  -3   -0.21    0.09
   3  -5   3   -0.06    0.03
   3  -5   3   -0.07    0.06
   3   5   3   -0.16    0.06
  -3   5  -3   -0.07    0.06
   4  -5   3    9.33    0.63
  -4  -5  -3    8.92    0.66
   4  -5   3    8.53    0.47
  -4   5  -3    9.08    0.63
   4   5   3    8.86    0.51
   5  -5   3    2.51    0.21
  -5  -5  -3    2.33    0.26
   5   5   3    2.34    0.21
  -6  -5  -3    7.33    0.59
   6   5   3    8.01    0.47
  -7  -5  -3    0.05    0.12
   7   5   3   -0.23    0.10
  -8  -5  -3    0.08    0.14
   8   5   3    0.01    0.12
  -7  -6   3   -0.16    0.11
   7   6  -3   -0.05    0.13
  -6  -6   3    0.64    0.16
   6   6  -3    0.68    0.13
  -5  -6   3    9.19    0.67
   5   6  -3    8.55    0.52
   4  -6  -3    0.14    0.07
  -4  -6   3    0.15    0.11
   4  -6  -3    0.07    0.05
  -4   6   3    0.11    0.07
   4   6  -3    0.02    0.09
   3  -6  -3   15.32    1.00
   3  -6  -3   14.85    0.78
  -3  -6   3   13.62    1.02
  -3   6   3   14.44    1.00
   3   6  -3   14.31    0.80
   2  -6  -3   12.21    0.70
   2  -6  -3   13.53    0.90
  -2  -6   3   13.16    0.92
   2   6  -3   12.50    0.71
  -2   6   3   13.06    0.90
  -1  -6   3   36.37    2.75
   1  -6  -3   42.27    2.75
   1   6  -3   41.14    2.15
  -1   6   3   44.22    2.75
   0  -6  -3   12.88    0.81
   0  -6   3   11.03    0.61
   0  -6   3   11.67    0.80
   0   6  -3    9.73    0.79
   0   6  -3   11.40    0.61
   0   6   3   10.69    0.79
  -1  -6  -3    1.01    0.16
   1  -6   3    1.20    0.10
   1  -6   3    0.81    0.14
  -1   6  -3    1.20    0.15
   2  -6   3   15.32    0.83
   2  -6   3   15.53    1.08
  -2  -6  -3   16.31    1.10
  -2   6  -3   15.92    1.08
   2   6   3   14.95    0.85
   3  -6   3    2.07    0.13
  -3  -6  -3    1.90    0.21
   3  -6   3    1.86    0.20
   3   6   3    1.63    0.16
   4  -6   3    3.03    0.27
  -4  -6  -3    3.50    0.32
   4   6   3    2.93    0.25
  -5  -6  -3    0.32    0.13
   5   6   3    0.32    0.10
  -6  -6  -3   -0.01    0.12
   6   6   3    0.02    0.10
  -7  -6  -3   -0.08    0.15
   7   6   3    0.35    0.12
  -6  -7   3    0.79    0.19
   6   7  -3    0.89    0.15
  -5  -7   3    0.58    0.17
   5   7  -3    0.73    0.13
  -4  -7   3    0.12    0.13
   4   7  -3    0.12    0.10
   3  -7  -3    2.09    0.22
  -3  -7   3    2.12    0.26
   3   7  -3    2.04    0.19
   2  -7  -3    3.28    0.29
  -2  -7   3    2.52    0.30
  -2   7   3    3.23    0.28
   2   7  -3    3.31    0.24
   1  -7  -3    6.58    0.48
  -1  -7   3    5.28    0.49
   1   7  -3    6.59    0.38
  -1   7   3    6.25    0.47
   0  -7   3    8.91    0.64
   0  -7  -3    8.69    0.65
   0   7  -3    8.11    0.48
   1  -7   3    6.72    0.52
  -1  -7  -3    7.61    0.54
  -1   7  -3    6.23    0.52
   2  -7   3    0.62    0.12
  -2  -7  -3    0.72    0.16
  -2   7  -3    0.56    0.13
  -3  -7  -3    1.35    0.20
   3  -7   3    0.96    0.15
   3   7   3    1.60    0.16
  -4  -7  -3    0.16    0.14
   4   7   3    0.11    0.10
  -5  -7  -3    0.01    0.13
   5   7   3   -0.07    0.10
  -6  -7  -3    0.61    0.17
   6   7   3    0.30    0.12
  -5  -8   3    0.13    0.16
   5   8  -3   -0.09    0.11
  -4  -8   3    4.70    0.43
   4   8  -3    4.23    0.33
  -3  -8   3    0.70    0.17
   3   8  -3    0.75    0.13
   2  -8  -3    0.15    0.12
  -2  -8   3    0.12    0.13
   2   8  -3    0.23    0.10
  -1  -8   3   -0.01    0.11
   1  -8  -3    0.12    0.11
   1   8  -3    0.01    0.07
   0  -8  -3    9.09    0.72
   0  -8   3   10.06    0.72
  -1  -8  -3   -0.10    0.12
   1  -8   3   -0.01    0.10
   2  -8   3    0.08    0.12
  -2  -8  -3   -0.06    0.12
  -3  -8  -3    5.89    0.51
  -4  -8  -3    0.18    0.16
   4   8   3    0.05    0.11
  -5  -8  -3    1.70    0.26
   5   8   3    2.17    0.22
  -3  -9   3   -0.25    0.14
   3   9  -3   -0.12    0.11
  -2  -9   3    3.53    0.39
   2   9  -3    4.06    0.28
  -1  -9   3    2.64    0.32
   1   9  -3    3.12    0.24
   0  -9   3    0.36    0.14
   0  -9  -3    0.33    0.15
  -1  -9  -3    0.20    0.15
  -2  -9  -3    0.62    0.18
  -3  -9  -3   -0.07    0.15
  10   0  -4    0.09    0.11
   9   0  -4    0.12    0.10
   8   0  -4    0.49    0.11
  -8   0   4    0.42    0.04
  -8   0   4    0.43    0.04
  -7   0   4    0.90    0.09
  -7   0   4    0.82    0.09
   7   0  -4    0.70    0.11
  -6   0   4   76.14    4.02
  -6   0   4   75.97    5.13
   6   0  -4   81.84    4.05
  -6   0   4   76.61    5.13
  -5   0   4    6.62    0.46
   5   0  -4    6.75    0.38
  -5   0   4    6.64    0.36
  -4   0   4    0.99    0.10
  -4   0   4    0.72    0.09
   4   0  -4    0.96    0.09
   4   0  -4    0.92    0.09
   3   0  -4    2.43    0.16
  -3   0   4    2.51    0.19
  -3   0   4    2.67    0.19
   3   0  -4    2.53    0.19
  -2   0   4  187.05   11.18
   2   0  -4  151.13   11.15
  -1   0   4   10.01    0.69
   1   0  -4    9.96    0.69
   0   0  -4  537.97   33.14
   0   0   4  464.41   33.12
   1   0   4  105.97    6.83
  -1   0  -4  100.65    6.83
   2   0   4    2.25    0.17
  -2   0  -4    2.12    0.12
  -2   0  -4    1.60    0.16
  -3   0  -4   41.44    2.82
   3   0   4   43.91    2.82
   3   0   4   42.04    2.20
  -3   0  -4   42.11    2.20
   4   0   4   25.27    1.28
  -4   0  -4   25.44    1.64
  -4   0  -4   25.34    1.28
   4   0   4   20.92    1.63
   4   0   4   25.05    1.29
  -5   0  -4    4.34    0.25
   5   0   4    4.31    0.27
   5   0   4    4.38    0.25
  -5   0  -4    4.65    0.33
   5   0   4    4.52    0.33
  -6   0  -4    2.03    0.18
   6   0   4    1.76    0.14
   6   0   4    2.05    0.16
  -6   0  -4    1.94    0.14
   7   0   4    8.93    0.48
  -7   0  -4    8.44    0.61
  -7   0  -4    8.58    0.48
   7   0   4    8.89    0.50
   8   0   4    1.19    0.11
   8   0   4    1.25    0.13
  -8   0  -4    0.98    0.13
  -9   0  -4    0.52    0.10
   9  -1  -4   -0.07    0.08
  -9  -1   4    0.02    0.06
   9   1  -4    0.03    0.11
   8  -1  -4    1.19    0.13
  -8  -1   4    1.31    0.14
   8   1  -4    1.11    0.14
   7  -1  -4    0.06    0.08
  -7  -1   4    0.01    0.04
  -7  -1   4   -0.01    0.04
  -7  -1   4   -0.03    0.06
   7   1  -4   -0.06    0.09
  -6  -1   4    1.34    0.13
   6  -1  -4    1.11    0.12
  -6  -1   4    1.15    0.14
  -6  -1   4    1.21    0.10
   6   1  -4    1.26    0.13
   6   1  -4    1.33    0.13
   5  -1  -4    0.59    0.08
  -5  -1   4    0.62    0.09
  -5  -1   4    0.72    0.08
  -5  -1   4    0.67    0.07
   5   1  -4    0.62    0.09
  -5   1   4    0.72    0.07
  -5   1   4    0.72    0.07
   5   1  -4    0.74    0.09
   4  -1  -4  167.53   10.37
  -4  -1   4  164.61   10.34
   4   1  -4  165.84   10.34
   4   1  -4  136.57   10.34
   4   1  -4  155.58    8.11
  -4   1   4  160.02   10.37
  -4   1   4  146.36   10.35
  -3  -1   4    0.17    0.05
  -3  -1   4    0.19    0.06
   3  -1  -4    0.14    0.04
   3   1  -4    0.22    0.06
  -3   1   4    0.22    0.04
   3   1  -4    0.24    0.06
  -2  -1   4   16.06    1.18
  -2  -1   4   19.74    1.18
   2   1  -4   19.63    0.93
   2   1  -4   15.06    1.18
  -1  -1   4   17.32    1.15
  -1  -1   4   17.59    1.15
   1  -1  -4   15.56    1.14
   1   1  -4   16.15    0.90
  -1   1   4   17.36    1.14
   1   1  -4   18.59    1.15
   0  -1  -4   30.70    2.04
   0   1   4   30.39    2.04
   0   1  -4   30.73    2.04
  -1  -1  -4   71.11    3.82
  -1  -1  -4   76.53    4.89
   1  -1   4   73.28    4.88
   1   1   4   75.13    4.88
   1   1   4   72.94    3.83
  -2  -1  -4  103.07    6.80
   2  -1   4  102.55    6.80
  -2  -1  -4  101.18    5.32
  -2   1  -4   99.83    5.33
   2   1   4  101.14    5.33
   2   1   4  105.34    6.80
  -2   1  -4  106.61    6.80
  -3  -1  -4   34.80    1.83
  -3  -1  -4   37.45    2.35
   3  -1   4   30.54    2.33
  -3   1  -4   37.12    2.34
   3   1   4   35.63    1.84
  -3   1  -4   35.67    1.82
   3   1   4   35.04    2.34
   3   1   4   34.89    1.83
  -4  -1  -4    0.35    0.08
  -4  -1  -4    0.44    0.06
   4  -1   4    0.46    0.07
   4  -1   4    0.34    0.04
  -4   1  -4    0.49    0.07
   4   1   4    0.37    0.07
  -4   1  -4    0.50    0.04
   4   1   4    0.49    0.06
   4   1   4    0.25    0.07
  -5  -1  -4    9.13    0.50
   5  -1   4    9.11    0.49
   5  -1   4    8.84    0.50
  -5  -1  -4    9.63    0.65
   5  -1   4    8.45    0.63
   5   1   4    9.56    0.51
   5   1   4    9.27    0.50
  -5   1  -4    9.21    0.63
   6  -1   4    0.38    0.05
   6  -1   4    0.25    0.07
  -6  -1  -4    0.28    0.06
  -6  -1  -4    0.21    0.08
  -6   1  -4    0.32    0.08
   6   1   4    0.43    0.09
   6   1   4    0.36    0.07
   7  -1   4    0.21    0.05
   7  -1   4    0.10    0.07
  -7  -1  -4    0.14    0.08
  -7   1  -4    0.02    0.06
   7   1   4    0.04    0.08
   7   1   4    0.15    0.07
   8  -1   4   -0.04    0.08
  -8  -1  -4   -0.06    0.09
   8   1   4    0.03    0.08
   8   1   4    0.05    0.08
  -8   1  -4    0.06    0.06
  -9  -1  -4    0.74    0.13
  -9  -2   4   -0.02    0.09
   9  -2  -4    0.25    0.10
   9   2  -4    0.08    0.11
   8  -2  -4    0.05    0.09
  -8  -2   4   -0.04    0.08
   8   2  -4    0.08    0.11
  -7  -2   4    0.21    0.07
  -7  -2   4    0.07    0.06
  -7  -2   4    0.02    0.08
   7  -2  -4    0.19    0.07
   7   2  -4    0.17    0.09
  -6  -2   4    1.25    0.12
  -6  -2   4    1.07    0.13
   6  -2  -4    1.78    0.14
  -6  -2   4    1.08    0.14
   6   2  -4    1.63    0.15
  -5  -2   4    5.56    0.32
  -5  -2   4    5.83    0.41
  -5  -2   4    5.66    0.42
   5   2  -4    5.91    0.42
   5   2  -4    5.56    0.34
  -4  -2   4   32.29    1.69
   4  -2  -4   32.34    2.13
  -4  -2   4   35.76    2.15
  -4  -2   4   27.28    2.15
  -4   2   4   32.08    2.13
   4   2  -4   27.86    2.15
   4   2  -4   32.50    1.69
   4   2  -4   37.30    2.15
   3  -2  -4    1.61    0.12
  -3  -2   4    1.57    0.15
  -3  -2   4    1.68    0.12
  -3  -2   4    1.60    0.14
   3   2  -4    1.59    0.12
   3   2  -4    1.45    0.14
   3   2  -4    1.52    0.14
  -3   2   4    1.14    0.12
   2  -2  -4   72.33    4.64
  -2  -2   4   72.02    3.64
   2   2  -4   69.70    3.64
  -2   2   4   72.63    3.63
   2   2  -4   59.01    4.64
  -2   2   4   74.74    4.64
  -1  -2   4   58.84    3.84
  -1  -2   4   56.26    3.00
   1  -2  -4   52.02    3.83
  -1  -2   4   62.51    3.84
  -1   2   4   54.01    3.00
   1   2  -4   61.98    3.84
  -1   2   4   57.59    3.83
   1   2  -4   55.93    3.00
   1   2  -4   61.54    3.84
   0  -2   4   28.98    2.05
   0  -2   4   31.54    2.05
   0  -2  -4   31.83    2.05
   0  -2  -4   29.35    1.60
   0   2   4   31.36    2.05
   0   2  -4   31.75    2.05
   0   2  -4   30.30    1.60
   0   2   4   29.85    1.60
  -1  -2  -4    7.06    0.50
  -1  -2  -4    7.07    0.39
   1  -2   4    7.33    0.49
  -1  -2  -4    6.81    0.39
   1   2   4    6.65    0.39
  -1   2  -4    7.00    0.37
   1   2   4    7.40    0.50
  -2  -2  -4   11.20    0.60
   2  -2   4   10.42    0.75
   2  -2   4   11.30    0.75
  -2  -2  -4   11.35    0.76
  -2  -2  -4   10.93    0.59
   2   2   4   11.46    0.76
  -2   2  -4   11.43    0.76
   2   2   4   10.66    0.60
   2   2   4   10.65    0.59
   3  -2   4    9.70    0.66
  -3  -2  -4    9.60    0.68
  -3  -2  -4    9.50    0.53
   3   2   4    9.60    0.53
   3   2   4    9.35    0.67
   3   2   4    9.51    0.53
  -3   2  -4   10.44    0.67
  -4  -2  -4    1.95    0.18
  -4  -2  -4    1.72    0.14
   4  -2   4    1.94    0.15
   4   2   4    1.62    0.17
   4   2   4    1.61    0.15
   4   2   4    1.63    0.13
  -4   2  -4    1.90    0.16
  -5  -2  -4    0.14    0.08
  -5  -2  -4    0.18    0.06
   5  -2   4    0.19    0.06
   5   2   4    0.13    0.07
   5   2   4    0.13    0.07
  -5   2  -4    0.10    0.06
   6  -2   4    4.32    0.32
   6  -2   4    4.16    0.32
  -6  -2  -4    4.48    0.35
   6  -2   4    4.30    0.27
   6   2   4    4.30    0.28
   6   2   4    4.69    0.28
  -6   2  -4    4.33    0.32
  -7  -2  -4    0.13    0.10
   7  -2   4    0.27    0.08
  -7   2  -4    0.17    0.06
   7   2   4    0.19    0.08
   7   2   4    0.16    0.08
   8  -2   4    0.00    0.07
  -8  -2  -4   -0.01    0.09
   8   2   4   -0.04    0.08
  -8   2  -4   -0.02    0.04
   8   2   4   -0.04    0.09
  -9  -2  -4    0.05    0.11
   9   2   4    0.15    0.10
   9  -3  -4    0.83    0.12
  -9  -3   4    0.66    0.15
   9   3  -4    0.76    0.14
   8  -3  -4    0.57    0.10
  -8  -3   4    0.25    0.12
   8   3  -4    0.53    0.12
   7  -3  -4    2.15    0.17
  -7  -3   4    1.92    0.23
   7   3  -4    2.13    0.20
  -6  -3   4    1.66    0.18
  -6  -3   4    1.96    0.22
   6   3  -4    2.17    0.18
  -5  -3   4    2.05    0.18
  -5  -3   4    1.94    0.14
  -5  -3   4    1.90    0.19
   5   3  -4    1.91    0.17
  -4  -3   4   53.66    3.45
   4  -3  -4   48.86    3.42
  -4  -3   4   51.85    3.45
  -4   3   4   52.79    3.42
   4   3  -4   50.25    2.71
   4   3  -4   53.20    3.45
   4   3  -4   51.67    3.45
  -3  -3   4   58.38    3.71
   3  -3  -4   51.86    3.68
  -3  -3   4   58.35    3.70
  -3  -3   4   52.58    2.90
   3   3  -4   52.83    2.90
   3   3  -4   56.83    3.70
   3   3  -4   58.78    3.70
  -2  -3   4    7.80    0.43
   2  -3  -4    7.54    0.54
  -2  -3   4    6.84    0.55
  -2  -3   4    7.98    0.55
   2  -3  -4    7.57    0.42
   2   3  -4    7.81    0.55
   2   3  -4    8.03    0.55
  -2   3   4    8.34    0.54
   2   3  -4    7.86    0.43
  -1  -3   4    2.41    0.15
  -1  -3   4    2.11    0.20
   1  -3  -4    2.41    0.14
   1  -3  -4    2.68    0.19
  -1  -3   4    2.61    0.20
   1   3  -4    2.21    0.15
   1   3  -4    2.44    0.20
  -1   3   4    2.56    0.15
   1   3  -4    2.22    0.20
  -1   3   4    1.82    0.18
   0  -3  -4   81.73    5.63
   0  -3  -4   83.57    4.40
   0  -3   4   88.55    5.63
   0  -3  -4   84.82    4.41
   0  -3   4   89.79    5.63
   0  -3   4   81.94    4.40
   0   3   4   82.02    4.40
   0   3  -4   85.61    4.40
   0   3  -4   83.49    5.63
   0   3  -4   87.41    5.63
   0   3   4   85.22    5.63
   1  -3   4    9.44    0.61
  -1  -3  -4    8.24    0.47
   1  -3   4    9.25    0.61
  -1  -3  -4    8.44    0.47
   1  -3   4    8.41    0.46
   1   3   4    8.06    0.60
  -1   3  -4    8.61    0.46
   1   3   4    8.24    0.48
  -1   3  -4    9.36    0.61
   2  -3   4  105.60    8.19
  -2  -3  -4  127.05    6.43
  -2  -3  -4  126.91    6.43
   2  -3   4  133.01    8.20
  -2  -3  -4  132.20    8.21
   2   3   4  126.49    6.43
   2   3   4  126.90    6.43
  -2   3  -4  114.04    8.19
   3  -3   4   15.94    1.03
  -3  -3  -4   16.12    1.05
  -3  -3  -4   14.92    0.82
  -3  -3  -4   15.05    0.82
   3  -3   4   15.05    1.03
   3   3   4   14.98    0.82
  -3   3  -4   15.24    1.03
   3   3   4   14.74    0.82
  -4  -3  -4   21.42    1.68
   4  -3   4   24.44    1.66
   4  -3   4   25.74    1.66
   4   3   4   26.40    1.32
  -4   3  -4   24.22    1.66
   4   3   4   26.64    1.32
  -5  -3  -4    0.45    0.11
   5  -3   4    0.46    0.08
   5  -3   4    0.41    0.07
   5   3   4    0.52    0.09
   5   3   4    0.40    0.08
  -5   3  -4    0.44    0.08
   6  -3   4   -0.02    0.05
  -6  -3  -4   -0.03    0.10
  -6   3  -4    0.03    0.06
   6   3   4    0.11    0.08
   6   3   4    0.16    0.08
   7  -3   4    0.08    0.06
  -7  -3  -4    0.01    0.09
   7   3   4    0.06    0.09
  -7   3  -4    0.10    0.05
  -8  -3  -4    2.33    0.27
   8   3   4    2.42    0.21
  -9  -4   4   -0.08    0.11
   9   4  -4    0.00    0.13
  -8  -4   4    1.16    0.18
   8  -4  -4    1.26    0.14
   8   4  -4    1.41    0.17
   7  -4  -4    3.79    0.26
  -7  -4   4    3.82    0.35
   7   4  -4    3.61    0.28
  -6  -4   4    2.71    0.28
  -6  -4   4    3.26    0.28
   6   4  -4    3.38    0.24
   5  -4  -4    9.01    0.60
   5  -4  -4    8.79    0.60
  -5  -4   4    8.89    0.65
  -5  -4   4    8.43    0.65
  -5   4   4    8.98    0.60
   5   4  -4    8.98    0.51
   4  -4  -4    0.13    0.05
   4  -4  -4    0.23    0.05
  -4  -4   4    0.13    0.09
  -4  -4   4    0.12    0.08
  -4   4   4    0.04    0.02
   4   4  -4    0.10    0.07
  -3  -4   4    2.26    0.17
   3  -4  -4    2.40    0.15
  -3  -4   4    2.74    0.23
   3  -4  -4    2.38    0.20
  -3  -4   4    2.30    0.22
   3   4  -4    2.56    0.18
   3   4  -4    2.85    0.23
   3   4  -4    2.17    0.22
  -3   4   4    2.35    0.20
   2  -4  -4   35.76    1.91
  -2  -4   4   37.06    2.46
  -2  -4   4   35.96    1.92
  -2  -4   4   37.68    2.46
   2   4  -4   37.61    2.46
   2   4  -4   37.22    2.46
  -2   4   4   36.14    2.45
   2   4  -4   36.05    1.92
   1  -4  -4   20.75    1.10
  -1  -4   4   21.08    1.41
  -1  -4   4   20.51    1.10
   1  -4  -4   20.41    1.10
   1   4  -4   20.50    1.10
  -1   4   4   21.47    1.41
   1   4  -4   20.99    1.41
   0  -4  -4    0.96    0.09
   0  -4   4    0.99    0.08
   0  -4   4    1.21    0.13
   0  -4   4    1.05    0.13
   0  -4  -4    0.79    0.12
   0  -4  -4    1.17    0.10
   0   4  -4    1.15    0.13
   0   4  -4    1.04    0.09
   0   4   4    1.04    0.13
   0   4  -4    0.88    0.12
  -1  -4  -4   38.04    2.01
   1  -4   4   37.35    2.56
   1  -4   4   36.10    2.55
  -1  -4  -4   37.73    2.01
   1  -4   4   37.26    1.99
  -1  -4  -4   40.02    2.56
  -1   4  -4   40.55    2.56
  -1   4  -4   37.40    1.99
   1   4   4   40.54    2.56
   1   4   4   37.81    2.01
   2  -4   4   99.01    6.88
   2  -4   4  101.78    5.37
   2  -4   4  113.14    6.88
  -2  -4  -4  102.08    5.40
  -2  -4  -4  102.25    5.40
   2   4   4   99.44    5.40
   2   4   4  108.46    6.89
   2   4   4  105.27    5.40
   3  -4   4    1.92    0.17
   3  -4   4    1.58    0.16
  -3  -4  -4    1.98    0.20
   3   4   4    1.90    0.16
   3   4   4    1.83    0.15
  -3   4  -4    1.64    0.16
  -4  -4  -4    9.02    0.66
   4  -4   4    9.51    0.63
   4   4   4    8.82    0.52
  -4   4  -4    8.94    0.63
   4   4   4    8.97    0.52
   5  -4   4    0.79    0.11
  -5  -4  -4    1.12    0.16
  -5   4  -4    1.17    0.13
   5   4   4    1.05    0.12
  -6  -4  -4    5.38    0.45
   6   4   4    5.69    0.36
  -6   4  -4    5.71    0.40
  -7  -4  -4   -0.05    0.10
   7   4   4    0.04    0.10
  -8  -4  -4    0.35    0.14
   8   4   4    0.36    0.11
  -8  -5   4   -0.08    0.11
   8   5  -4    0.03    0.12
  -7  -5   4    0.59    0.14
   7   5  -4    0.57    0.14
  -6  -5   4    0.42    0.13
   6   5  -4    0.40    0.11
   5  -5  -4    1.67    0.14
  -5  -5   4    1.45    0.19
   5  -5  -4    1.70    0.14
  -5   5   4    1.53    0.14
   5   5  -4    1.79    0.17
  -4  -5   4    0.35    0.12
   4  -5  -4    0.36    0.07
   4  -5  -4    0.24    0.05
   4   5  -4    0.18    0.09
  -4   5   4    0.30    0.07
  -3  -5   4    3.98    0.35
   3  -5  -4    4.03    0.31
   3  -5  -4    3.96    0.24
  -3   5   4    4.49    0.32
   3   5  -4    4.02    0.27
   2  -5  -4    0.15    0.06
   2  -5  -4    0.31    0.08
  -2  -5   4    0.02    0.10
   2   5  -4    0.22    0.07
  -2   5   4    0.18    0.08
   2   5  -4    0.27    0.10
  -1  -5   4    0.88    0.13
   1  -5  -4    0.74    0.08
  -1  -5   4    0.83    0.08
   1  -5  -4    0.66    0.11
   1   5  -4    0.83    0.12
   1   5  -4    0.78    0.12
   1   5  -4    0.70    0.08
  -1   5   4    0.78    0.11
   0  -5   4    0.21    0.06
   0  -5   4    0.35    0.10
   0  -5  -4    0.29    0.07
   0  -5  -4    0.42    0.10
   0   5  -4    0.22    0.06
   0   5  -4    0.30    0.09
   0   5  -4    0.22    0.09
   0   5   4    0.23    0.08
  -1  -5  -4    2.80    0.28
   1  -5   4    3.23    0.19
   1  -5   4    3.51    0.27
  -1   5  -4    2.93    0.27
  -1   5  -4    3.40    0.27
  -1   5  -4    3.25    0.19
   1   5   4    3.32    0.27
   2  -5   4   10.51    0.73
  -2  -5  -4   10.83    0.75
   2  -5   4    9.88    0.55
  -2   5  -4   10.42    0.73
   3  -5   4    1.26    0.08
   3  -5   4    1.56    0.17
  -3  -5  -4    1.30    0.18
   3   5   4    1.53    0.14
  -3   5  -4    1.19    0.15
  -4  -5  -4   18.50    1.16
   4  -5   4   15.28    1.12
   4   5   4   17.16    0.90
  -4   5  -4   15.20    1.12
  -5  -5  -4    0.10    0.11
   5   5   4    0.04    0.08
  -5   5  -4    0.02    0.07
  -6  -5  -4    0.03    0.12
   6   5   4   -0.06    0.09
  -7  -5  -4    0.93    0.17
   7   5   4    0.83    0.14
  -7  -6   4    0.12    0.13
   7   6  -4    0.08    0.11
  -6  -6   4    0.75    0.16
   6   6  -4    0.74    0.14
  -5  -6   4    1.60    0.21
   5   6  -4    1.58    0.17
  -4  -6   4    0.62    0.15
   4  -6  -4    0.84    0.09
   4  -6  -4    0.70    0.11
   4   6  -4    0.93    0.12
  -4   6   4    0.93    0.11
   3  -6  -4    0.24    0.06
  -3  -6   4    0.29    0.12
   3  -6  -4    0.19    0.09
  -3   6   4    0.21    0.08
   3   6  -4    0.22    0.08
  -2  -6   4    4.79    0.36
   2  -6  -4    3.47    0.32
   2  -6  -4    4.11    0.25
   2   6  -4    4.00    0.27
  -2   6   4    4.22    0.32
   1  -6  -4    0.25    0.11
  -1  -6   4    0.32    0.12
   1   6  -4    0.38    0.08
  -1   6   4    0.13    0.09
   0  -6   4   15.41    0.86
   0  -6  -4   15.86    1.12
   0  -6   4   15.83    1.12
   0   6  -4   16.65    1.12
   0   6  -4   15.22    0.86
   0   6  -4   17.19    1.12
   0   6   4   16.43    1.11
   1  -6   4    1.48    0.12
  -1  -6  -4    1.27    0.18
   1  -6   4    1.56    0.19
  -1   6  -4    1.37    0.17
  -1   6  -4    1.25    0.12
  -1   6  -4    1.30    0.17
  -2  -6  -4   -0.07    0.10
   2  -6   4    0.03    0.09
   2  -6   4    0.10    0.05
  -2   6  -4    0.00    0.07
  -2   6  -4   -0.01    0.08
   3  -6   4   -0.03    0.08
  -3  -6  -4   -0.06    0.10
   3  -6   4   -0.01    0.03
  -3   6  -4    0.06    0.08
   3   6   4    0.11    0.08
   4  -6   4    6.48    0.50
  -4  -6  -4    6.75    0.53
   4   6   4    6.75    0.41
  -5  -6  -4    1.84    0.24
   5   6   4    2.29    0.22
  -6  -6  -4    0.16    0.14
   6   6   4    0.40    0.12
  -7  -6  -4    0.03    0.13
   7   6   4    0.20    0.11
  -6  -7   4    0.33    0.16
   6   7  -4    0.27    0.12
  -5  -7   4    0.14    0.14
   5   7  -4    0.09    0.11
  -4  -7   4    2.81    0.30
   4   7  -4    2.39    0.22
   3  -7  -4    8.92    0.63
  -3  -7   4    8.13    0.65
   3   7  -4    8.58    0.51
   2  -7  -4    8.78    0.62
  -2  -7   4    8.69    0.64
  -2   7   4    7.66    0.61
   2   7  -4    8.39    0.49
  -1  -7   4    0.63    0.14
   1  -7  -4    0.64    0.14
  -1   7   4    0.67    0.12
   1   7  -4    0.77    0.11
   0  -7   4    0.13    0.10
   0  -7  -4    0.03    0.12
   0   7  -4   -0.01    0.06
   1  -7   4    0.83    0.16
   1  -7   4    0.75    0.09
  -1  -7  -4    0.80    0.16
  -1   7  -4    0.74    0.14
   2  -7   4    8.61    0.61
  -2  -7  -4    7.55    0.62
  -3  -7  -4    7.11    0.57
   3  -7   4    7.12    0.54
  -4  -7  -4    5.56    0.49
   4   7   4    5.83    0.38
  -5  -7  -4    0.02    0.14
   5   7   4    0.24    0.13
  -6  -7  -4    0.08    0.15
   6   7   4   -0.18    0.12
  -5  -8   4   -0.21    0.13
   5   8  -4   -0.05    0.10
  -4  -8   4    0.06    0.14
   4   8  -4    0.02    0.10
  -3  -8   4    0.35    0.16
   3   8  -4    0.57    0.13
  -2  -8   4    0.32    0.15
   2  -8  -4    0.89    0.17
   2   8  -4    0.48    0.10
   1  -8  -4    1.89    0.23
  -1  -8   4    1.58    0.22
   1   8  -4    1.82    0.18
   0  -8   4    0.41    0.14
   0  -8  -4    0.48    0.14
   0   8  -4    0.42    0.09
  -1  -8  -4    5.48    0.47
   1  -8   4    5.71    0.46
   2  -8   4    6.87    0.56
  -2  -8  -4    7.29    0.58
  -3  -8  -4   -0.21    0.13
  -4  -8  -4   -0.02    0.14
  -3  -9   4    0.38    0.17
   3   9  -4    0.48    0.13
  -2  -9   4    0.26    0.16
   2   9  -4    0.47    0.12
  -1  -9   4    0.16    0.14
   1   9  -4    0.48    0.11
   0  -9  -4    1.56    0.22
   0  -9   4    1.43    0.22
  -1  -9  -4    0.01    0.13
  -2  -9  -4    0.96    0.20
   9   0  -5   -0.09    0.10
   8   0  -5   -0.06    0.08
  -8   0   5    0.00    0.03
   7   0  -5   -0.01    0.07
  -7   0   5   -0.01    0.05
  -7   0   5   -0.05    0.04
  -6   0   5   -0.07    0.04
  -6   0   5   -0.06    0.05
   6   0  -5   -0.02    0.07
  -6   0   5   -0.09    0.03
  -5   0   5   -0.04    0.03
  -5   0   5    0.02    0.05
  -5   0   5   -0.03    0.04
   5   0  -5    0.02    0.04
   5   0  -5   -0.05    0.06
   4   0  -5    0.03    0.05
  -4   0   5   -0.02    0.05
  -4   0   5    0.01    0.05
   4   0  -5   -0.03    0.06
   3   0  -5   -0.03    0.04
  -3   0   5    0.01    0.04
  -3   0   5    0.01    0.04
   2   0  -5    0.06    0.04
  -2   0   5    0.02    0.04
  -1   0   5   -0.02    0.04
   1   0  -5   -0.02    0.04
   0   0  -5    0.17    0.05
   0   0   5   -0.02    0.04
   1   0   5    0.03    0.05
  -1   0  -5   -0.05    0.05
  -2   0  -5    0.02    0.05
  -2   0  -5    0.03    0.03
   2   0   5    0.03    0.04
   3   0   5    0.02    0.05
  -3   0  -5   -0.03    0.03
  -3   0  -5    0.01    0.05
   4   0   5    0.04    0.06
   4   0   5   -0.04    0.05
  -4   0  -5    0.01    0.07
  -4   0  -5    0.00    0.04
   5   0   5   -0.05    0.07
  -5   0  -5    0.01    0.07
   5   0   5   -0.04    0.04
  -5   0  -5   -0.03    0.04
  -6   0  -5    0.02    0.07
   6   0   5   -0.04    0.06
  -6   0  -5   -0.06    0.04
   6   0   5    0.02    0.05
  -7   0  -5   -0.07    0.07
   7   0   5    0.04    0.08
   7   0   5    0.11    0.06
  -8   0  -5    0.02    0.08
   8   0   5   -0.03    0.08
  -9   0  -5    0.05    0.08
  -9  -1   5    0.20    0.07
   9  -1  -5    0.09    0.10
   9   1  -5    0.27    0.11
  -8  -1   5    0.80    0.11
   8  -1  -5    0.95    0.13
   8   1  -5    0.99    0.13
  -7  -1   5    0.11    0.06
   7  -1  -5    0.06    0.08
  -7  -1   5    0.12    0.04
  -7  -1   5    0.08    0.07
   7   1  -5    0.05    0.08
  -6  -1   5    5.48    0.41
  -6  -1   5    5.77    0.32
  -6  -1   5    5.83    0.41
   6  -1  -5    5.68    0.35
  -6   1   5    5.67    0.38
  -6   1   5    5.51    0.38
   6   1  -5    5.79    0.35
  -5  -1   5    7.39    0.58
   5  -1  -5    8.49    0.47
   5  -1  -5    8.28    0.57
  -5  -1   5    8.59    0.59
   5   1  -5    8.92    0.48
  -5   1   5    8.80    0.57
  -5   1   5    8.17    0.57
   5   1  -5    8.57    0.58
   4  -1  -5   16.57    1.27
  -4  -1   5   20.41    1.28
  -4  -1   5   20.07    1.28
   4   1  -5   19.89    1.28
   4   1  -5   19.16    1.01
  -4   1   5   18.15    1.27
  -3  -1   5    7.99    0.54
   3  -1  -5    8.02    0.53
  -3  -1   5    7.93    0.54
  -3   1   5    7.92    0.53
   3   1  -5    8.26    0.43
   3   1  -5    6.65    0.54
  -2  -1   5    1.02    0.11
  -2  -1   5    1.03    0.11
   2   1  -5    0.92    0.11
  -2   1   5    1.00    0.10
   2   1  -5    0.91    0.09
   1  -1  -5   18.60    1.20
  -1  -1   5   15.94    1.20
  -1   1   5   18.93    1.20
   0   1   5  205.76   11.83
   0   1  -5  152.14   11.80
   1  -1   5   55.01    3.63
  -1  -1  -5   55.16    3.63
   1   1   5   54.28    3.63
  -1   1  -5   54.52    3.63
  -2  -1  -5   37.35    2.04
  -2  -1  -5   40.28    2.61
   2  -1   5   39.17    2.61
   2   1   5   41.38    2.61
   2   1   5   37.86    2.05
  -2   1  -5   40.34    2.61
  -2   1  -5   37.96    2.03
  -3  -1  -5    2.44    0.15
  -3  -1  -5    2.33    0.20
   3  -1   5    2.71    0.20
  -3   1  -5    2.02    0.19
   3   1   5    2.40    0.17
  -3   1  -5    2.54    0.13
   3   1   5    2.16    0.20
   4  -1   5    0.51    0.08
  -4  -1  -5    0.38    0.08
  -4  -1  -5    0.51    0.06
   4   1   5    0.47    0.08
   4   1   5    0.50    0.06
  -4   1  -5    0.40    0.08
  -4   1  -5    0.39    0.04
   4   1   5    0.45    0.08
   5  -1   5    0.08    0.06
  -5  -1  -5   -0.02    0.06
  -5  -1  -5    0.08    0.05
   5   1   5    0.01    0.05
   5   1   5   -0.03    0.07
  -5   1  -5    0.11    0.03
  -5   1  -5    0.00    0.06
  -6  -1  -5    1.76    0.13
   6  -1   5    1.69    0.15
  -6  -1  -5    1.58    0.19
   6   1   5    2.10    0.17
  -6   1  -5    1.69    0.18
   6   1   5    1.55    0.14
  -7  -1  -5    0.16    0.09
   7  -1   5    0.03    0.08
  -7   1  -5    0.13    0.08
   7   1   5    0.36    0.09
   7   1   5    0.11    0.07
  -8  -1  -5    0.47    0.12
   8  -1   5    0.60    0.11
   8   1   5    0.60    0.10
  -8   1  -5    0.54    0.10
   8   1   5    0.42    0.11
  -9  -1  -5    0.16    0.10
   9   1   5    0.17    0.09
   9  -2  -5    0.54    0.11
  -9  -2   5    0.40    0.11
   9   2  -5    0.62    0.13
  -8  -2   5    2.51    0.24
   8  -2  -5    2.44    0.21
   8   2  -5    2.44    0.24
   7  -2  -5    2.00    0.17
  -7  -2   5    1.94    0.15
  -7  -2   5    2.21    0.19
  -7  -2   5    1.94    0.20
   7   2  -5    2.16    0.19
  -6  -2   5    0.20    0.06
  -6  -2   5    0.17    0.09
  -6  -2   5    0.22    0.08
   6  -2  -5    0.42    0.09
   6   2  -5    0.44    0.09
  -5  -2   5    1.44    0.15
   5  -2  -5    1.68    0.12
  -5  -2   5    1.74    0.18
   5   2  -5    1.35    0.14
  -5   2   5    1.55    0.12
   5   2  -5    1.58    0.16
   5   2  -5    1.79    0.17
  -5   2   5    1.52    0.12
  -4  -2   5   10.07    0.76
   4  -2  -5   11.81    0.74
  -4  -2   5   11.02    0.76
   4   2  -5   11.87    0.76
   4   2  -5    9.90    0.76
   4   2  -5   11.32    0.61
   3  -2  -5    7.37    0.47
  -3  -2   5    6.01    0.48
  -3  -2   5    7.09    0.48
   3   2  -5    6.83    0.48
  -3   2   5    5.82    0.46
   3   2  -5    7.29    0.38
  -3   2   5    7.12    0.36
   3   2  -5    6.28    0.48
  -2  -2   5  144.17    9.88
  -2  -2   5  159.56    9.88
   2  -2  -5  151.00    9.87
  -2   2   5  144.94    7.74
   2   2  -5  155.78    9.88
   2   2  -5  141.23    7.74
   2   2  -5  149.57    9.88
   1  -2  -5   59.64    4.10
  -1  -2   5   62.10    4.11
  -1   2   5   64.18    3.21
  -1   2   5   59.73    4.10
   1   2  -5   63.80    3.22
   0  -2   5   52.80    3.29
   0  -2   5   44.11    3.28
   0   2   5   50.32    3.29
   0   2  -5   49.43    2.57
   0   2   5   47.59    2.57
   0   2  -5   52.52    3.29
  -1  -2  -5   11.74    0.61
  -1  -2  -5   12.12    0.78
   1  -2   5   12.51    0.78
   1  -2   5    9.48    0.78
  -1   2  -5   11.49    0.60
   1   2   5   10.97    0.61
   2  -2   5   20.23    1.53
  -2  -2  -5   25.61    1.54
  -2  -2  -5   25.00    1.21
   2   2   5   24.56    1.21
   2   2   5   21.92    1.54
  -2   2  -5   20.09    1.53
  -3  -2  -5    1.07    0.10
  -3  -2  -5    0.99    0.12
   3  -2   5    1.14    0.11
   3   2   5    1.04    0.10
   3   2   5    1.26    0.13
  -3   2  -5    1.21    0.13
  -4  -2  -5   21.81    1.45
   4  -2   5   21.70    1.44
  -4  -2  -5   22.27    1.14
   4   2   5   21.16    1.14
  -4   2  -5   20.02    1.44
   4   2   5   21.65    1.14
  -5  -2  -5    7.60    0.56
  -5  -2  -5    7.38    0.43
   5   2   5    7.69    0.44
   5   2   5    7.63    0.44
  -5   2  -5    8.00    0.54
  -6  -2  -5    2.28    0.25
   6   2   5    2.87    0.20
  -6   2  -5    2.88    0.23
   6   2   5    2.84    0.22
  -7  -2  -5    0.00    0.10
   7  -2   5    0.11    0.07
  -7   2  -5    0.13    0.07
   7   2   5    0.17    0.08
   7   2   5    0.12    0.08
  -8  -2  -5    0.10    0.11
   8  -2   5    0.01    0.08
  -8   2  -5    0.24    0.07
   8   2   5    0.31    0.09
   8   2   5    0.12    0.10
  -9  -3   5   -0.06    0.11
   9  -3  -5    0.12    0.10
   9   3  -5   -0.06    0.11
   8  -3  -5   -0.05    0.08
  -8  -3   5   -0.11    0.10
   8   3  -5   -0.05    0.10
  -7  -3   5    0.08    0.10
   7  -3  -5    0.28    0.09
   7   3  -5    0.26    0.10
  -6  -3   5    4.45    0.34
  -6  -3   5    3.80    0.34
   6   3  -5    4.61    0.30
   5  -3  -5    3.10    0.22
  -5  -3   5    3.43    0.27
  -5  -3   5    3.01    0.26
  -5   3   5    3.12    0.22
   5   3  -5    3.13    0.23
  -4  -3   5    0.85    0.12
   4  -3  -5    0.92    0.09
  -4  -3   5    0.76    0.11
   4   3  -5    0.81    0.10
   4   3  -5    0.66    0.11
  -3  -3   5    2.70    0.26
  -3  -3   5    2.94    0.20
  -3  -3   5    3.30    0.25
   3  -3  -5    2.97    0.23
   3   3  -5    3.41    0.26
  -3   3   5    3.30    0.23
   3   3  -5    2.87    0.20
  -2  -3   5    5.39    0.34
  -2  -3   5    6.16    0.44
  -2  -3   5    6.20    0.44
   2   3  -5    6.89    0.44
   2   3  -5    6.38    0.44
  -2   3   5    5.85    0.33
  -2   3   5    5.66    0.42
   2   3  -5    5.67    0.34
  -1  -3   5    0.94    0.11
  -1  -3   5    0.88    0.07
   1  -3  -5    0.82    0.08
  -1  -3   5    0.94    0.11
   1  -3  -5    0.63    0.09
  -1   3   5    0.75    0.09
  -1   3   5    0.84    0.08
   1   3  -5    0.76    0.11
   1   3  -5    0.84    0.11
   1   3  -5    0.80    0.08
   0  -3  -5   24.26    1.57
   0  -3   5   22.53    1.22
   0  -3   5   22.55    1.57
   0  -3  -5   23.25    1.23
   0  -3  -5   23.23    1.23
   0  -3   5   23.96    1.57
   0   3   5   23.98    1.57
   0   3  -5   22.27    1.22
   0   3  -5   24.96    1.57
   0   3   5   22.15    1.23
  -1  -3  -5    2.92    0.18
  -1  -3  -5    2.92    0.18
  -1  -3  -5    2.13    0.23
   1  -3   5    2.56    0.22
   1  -3   5    3.21    0.23
   1   3   5    2.31    0.23
  -1   3  -5    3.13    0.23
   1   3   5    2.88    0.18
  -1   3  -5    2.96    0.16
  -2  -3  -5    9.29    0.65
   2  -3   5    9.81    0.65
  -2  -3  -5    9.23    0.51
  -2  -3  -5    9.07    0.51
   2  -3   5    7.74    0.64
   2   3   5    9.78    0.65
   2   3   5    9.13    0.51
  -2   3  -5    9.78    0.65
  -3  -3  -5    8.86    0.64
   3  -3   5    9.41    0.62
  -3  -3  -5    8.51    0.49
   3  -3   5    8.79    0.62
   3   3   5    8.89    0.63
   3   3   5    8.82    0.50
  -3   3  -5    9.53    0.63
   3   3   5    8.32    0.49
   4  -3   5    1.08    0.13
   4  -3   5    1.35    0.14
  -4  -3  -5    1.11    0.16
   4   3   5    1.05    0.11
  -4   3  -5    1.16    0.14
   4   3   5    1.01    0.12
  -5  -3  -5    0.73    0.13
   5  -3   5    0.97    0.11
   5   3   5    0.87    0.11
   5   3   5    0.74    0.10
  -5   3  -5    0.93    0.11
  -6  -3  -5    0.09    0.10
  -6   3  -5    0.15    0.07
   6   3   5    0.06    0.08
   6   3   5    0.04    0.08
  -7  -3  -5    1.32    0.18
   7  -3   5    1.53    0.15
   7   3   5    1.30    0.15
  -7   3  -5    1.51    0.15
   7   3   5    1.46    0.16
  -8  -3  -5   -0.01    0.12
   8   3   5    0.24    0.10
  -9  -4   5    0.09    0.12
   9   4  -5    0.22    0.13
   8  -4  -5    0.02    0.08
  -8  -4   5   -0.13    0.12
   8   4  -5   -0.12    0.10
  -7  -4   5   -0.03    0.09
   7   4  -5   -0.03    0.10
  -6  -4   5    0.43    0.13
  -6  -4   5    0.33    0.10
   6   4  -5    0.46    0.11
   5  -4  -5    3.51    0.25
  -5  -4   5    3.09    0.29
  -5  -4   5    3.18    0.30
   5  -4  -5    3.55    0.25
  -5   4   5    3.73    0.25
   5   4  -5    3.49    0.25
  -4  -4   5    0.76    0.13
  -4  -4   5    0.94    0.15
   4  -4  -5    1.09    0.11
  -4   4   5    1.21    0.11
   4   4  -5    1.05    0.12
   4   4  -5    0.89    0.14
   3  -4  -5    0.60    0.06
  -3  -4   5    0.57    0.12
   3  -4  -5    0.73    0.09
  -3  -4   5    0.43    0.10
   3   4  -5    0.61    0.11
  -3   4   5    0.64    0.08
   3   4  -5    0.61    0.10
  -2  -4   5   15.37    0.87
   2  -4  -5   15.57    0.86
  -2  -4   5   16.65    1.12
   2  -4  -5   16.91    1.11
  -2  -4   5   16.13    1.12
   2   4  -5   17.18    1.12
   2   4  -5   15.67    0.87
   2   4  -5   18.08    1.12
  -2   4   5   14.84    1.10
   1  -4  -5    5.66    0.32
  -1  -4   5    5.47    0.31
  -1  -4   5    5.41    0.41
   1  -4  -5    5.23    0.40
  -1  -4   5    5.43    0.40
   1  -4  -5    5.34    0.31
  -1   4   5    5.64    0.40
   1   4  -5    5.51    0.41
   1   4  -5    5.25    0.31
   1   4  -5    5.50    0.41
   0  -4  -5    0.84    0.09
   0  -4   5    0.87    0.11
   0  -4   5    0.79    0.11
   0  -4   5    0.79    0.07
   0  -4  -5    0.93    0.09
   0  -4  -5    0.67    0.11
   0   4  -5    0.73    0.11
   0   4  -5    0.74    0.07
   0   4  -5    0.56    0.10
   0   4   5    0.44    0.09
   0   4   5    0.82    0.08
   1  -4   5    0.42    0.08
   1  -4   5    0.31    0.04
  -1  -4  -5    0.23    0.06
   1  -4   5    0.35    0.08
  -1  -4  -5    0.42    0.09
  -1  -4  -5    0.28    0.06
   1   4   5    0.42    0.07
  -1   4  -5    0.33    0.08
  -1   4  -5    0.39    0.05
   1   4   5    0.38    0.08
   2  -4   5    0.10    0.06
  -2  -4  -5    0.12    0.09
   2   4   5    0.16    0.07
   2   4   5    0.15    0.08
   3  -4   5    3.01    0.24
  -3  -4  -5    2.79    0.27
  -3   4  -5    2.82    0.24
   3   4   5    2.83    0.21
   4  -4   5   13.22    0.90
  -4  -4  -5   11.36    0.92
   4   4   5   13.35    0.72
   4   4   5   13.82    0.73
  -4   4  -5   13.34    0.90
   5  -4   5    0.66    0.10
  -5  -4  -5    0.77    0.14
   5   4   5    0.65    0.11
  -5   4  -5    0.68    0.11
   5   4   5    0.71    0.11
  -6  -4  -5   -0.01    0.10
   6   4   5   -0.05    0.09
  -6   4  -5    0.00    0.06
   6   4   5    0.12    0.08
  -7  -4  -5    0.15    0.13
   7   4   5    0.03    0.09
  -7   4  -5    0.16    0.06
  -8  -4  -5   -0.13    0.12
   8   4   5    0.01    0.11
  -8  -5   5   -0.09    0.11
   8  -5  -5    0.03    0.08
   8   5  -5   -0.01    0.13
  -7  -5   5    0.10    0.11
   7   5  -5    0.01    0.10
  -6  -5   5    4.86    0.41
   6   5  -5    4.82    0.33
  -5  -5   5    6.27    0.49
   5   5  -5    5.71    0.37
  -5   5   5    5.83    0.42
  -4  -5   5    6.25    0.48
   4  -5  -5    5.68    0.44
   4   5  -5    6.02    0.37
  -4   5   5    6.55    0.44
  -3  -5   5   10.22    0.72
   3  -5  -5   10.20    0.54
   3  -5  -5    8.78    0.69
  -3   5   5   11.31    0.70
   3   5  -5    8.98    0.71
   3   5  -5   10.08    0.56
   2  -5  -5    0.00    0.05
   2  -5  -5    0.10    0.08
  -2  -5   5    0.00    0.09
   2   5  -5    0.02    0.09
   2   5  -5    0.00    0.07
  -2   5   5    0.13    0.07
   1  -5  -5    1.22    0.11
  -1  -5   5    1.26    0.11
   1  -5  -5    1.22    0.15
  -1  -5   5    1.28    0.16
  -1   5   5    0.87    0.13
   1   5  -5    1.27    0.11
   1   5  -5    1.23    0.15
   1   5  -5    1.04    0.15
   0  -5   5   26.74    1.80
   0  -5  -5   27.09    1.80
   0  -5   5   25.59    1.39
   0  -5  -5   25.97    1.40
   0   5  -5   27.32    1.80
   0   5  -5   25.71    1.39
   0   5   5   25.97    1.79
   0   5  -5   27.62    1.80
  -1  -5  -5   26.39    1.83
   1  -5   5   27.04    1.83
   1  -5   5   25.98    1.41
  -1   5  -5   27.53    1.83
  -1   5  -5   28.90    1.83
   1   5   5   26.78    1.83
  -1   5  -5   26.52    1.41
   2  -5   5   18.06    0.93
   2  -5   5   17.75    1.22
  -2  -5  -5   19.30    1.24
  -2   5  -5   16.02    1.21
  -3  -5  -5    0.33    0.12
   3  -5   5    0.21    0.10
  -3   5  -5    0.26    0.10
  -4  -5  -5    0.99    0.16
   4  -5   5    1.01    0.13
   4   5   5    0.85    0.12
  -4   5  -5    0.96    0.13
  -5  -5  -5    0.70    0.15
   5   5   5    0.72    0.12
  -5   5  -5    0.63    0.11
  -6  -5  -5    1.09    0.18
  -6   5  -5    1.30    0.16
   6   5   5    1.32    0.15
  -7  -5  -5    0.94    0.18
   7   5   5    1.07    0.15
  -7  -6   5    2.99    0.33
   7   6  -5    3.62    0.30
  -6  -6   5    0.46    0.15
   6   6  -5    0.56    0.13
  -5  -6   5    0.58    0.15
   5   6  -5    0.67    0.12
   4  -6  -5    3.39    0.27
  -4  -6   5    3.72    0.33
   4   6  -5    3.11    0.25
  -3  -6   5    3.40    0.32
   3  -6  -5    3.27    0.21
   3  -6  -5    3.40    0.28
   3   6  -5    3.08    0.23
  -3   6   5    3.26    0.27
   2  -6  -5    3.35    0.22
  -2  -6   5    3.52    0.30
   2  -6  -5    2.90    0.28
  -2   6   5    3.49    0.29
   2   6  -5    3.27    0.23
  -1  -6   5   24.42    1.62
   1  -6  -5   22.63    1.60
  -1   6   5   23.11    1.60
   1   6  -5   24.85    1.61
   1   6  -5   22.60    1.25
   0  -6   5   16.40    0.92
   0  -6  -5   17.17    1.19
   0  -6   5   17.50    1.20
   0   6  -5   18.31    1.20
   0   6  -5   16.96    0.92
   0   6  -5   16.93    1.19
  -1  -6  -5    1.24    0.17
   1  -6   5    1.28    0.11
   1  -6   5    0.97    0.15
  -1   6  -5    1.29    0.16
  -1   6  -5    1.22    0.11
  -1   6  -5    0.84    0.15
  -2  -6  -5    2.57    0.27
   2  -6   5    2.57    0.25
   2  -6   5    2.50    0.16
  -2   6  -5    2.90    0.26
   3  -6   5   -0.12    0.08
  -3  -6  -5    0.07    0.11
  -3   6  -5   -0.04    0.09
  -4  -6  -5   -0.04    0.11
  -4   6  -5    0.08    0.09
  -5  -6  -5    1.97    0.25
   5   6   5    2.40    0.21
  -5   6  -5    2.26    0.23
  -6  -6  -5    7.68    0.61
   6   6   5    7.30    0.47
  -6  -7   5   -0.04    0.16
   6   7  -5    0.01    0.13
  -5  -7   5    2.69    0.30
   5   7  -5    2.07    0.21
  -4  -7   5   -0.03    0.12
   4   7  -5    0.02    0.10
   3  -7  -5    0.26    0.10
  -3  -7   5    0.06    0.12
   3   7  -5    0.21    0.10
  -2  -7   5    0.76    0.16
   2  -7  -5    0.66    0.13
   2   7  -5    0.72    0.11
  -1  -7   5    1.66    0.21
   1  -7  -5    1.59    0.20
   1   7  -5    1.65    0.15
  -1   7   5    1.79    0.20
   0  -7  -5   -0.19    0.09
   0  -7   5   -0.03    0.10
   0   7  -5    0.00    0.06
   1  -7   5   -0.04    0.10
  -1  -7  -5   -0.12    0.10
  -2  -7  -5    1.59    0.21
   2  -7   5    1.56    0.20
  -3  -7  -5    1.35    0.20
  -4  -7  -5    3.85    0.38
  -5  -7  -5    0.00    0.14
  -5  -8   5    0.26    0.16
   5   8  -5    0.05    0.11
  -4  -8   5    2.06    0.27
   4   8  -5    1.97    0.20
  -3  -8   5    1.13    0.21
   3   8  -5    1.50    0.16
  -2  -8   5    0.13    0.10
   2   8  -5    0.24    0.10
  -1  -8   5    7.14    0.55
   1  -8  -5    6.35    0.53
   1   8  -5    6.76    0.41
   0  -8  -5    5.79    0.48
   0  -8   5    6.25    0.49
   0   8  -5    5.61    0.35
   1  -8   5    0.37    0.13
  -1  -8  -5    0.56    0.15
  -2  -8  -5    4.06    0.39
  -3  -8  -5    0.34    0.16
  -4  -8  -5    2.97    0.35
  -2  -9   5    0.55    0.18
   2   9  -5    0.58    0.12
  -1  -9   5    0.01    0.13
   1   9  -5   -0.02    0.09
   0  -9   5    1.97    0.25
   0  -9  -5    2.05    0.26
  -1  -9  -5    3.23    0.38
  -2  -9  -5    3.72    0.39
   9   0  -6    0.12    0.11
  -8   0   6    1.07    0.11
   8   0  -6    1.18    0.15
  -7   0   6    2.01    0.12
  -7   0   6    1.88    0.17
  -7   0   6    1.99    0.16
   7   0  -6    1.86    0.18
   6   0  -6    7.03    0.48
  -6   0   6    6.72    0.37
   6   0  -6    7.14    0.41
  -6   0   6    6.65    0.48
   5   0  -6    0.88    0.10
   5   0  -6    0.68    0.10
  -5   0   6    0.71    0.09
  -5   0   6    0.81    0.09
  -4   0   6   71.24    4.72
   4   0  -6   69.91    3.71
   4   0  -6   72.29    4.72
  -4   0   6   71.80    4.72
  -3   0   6  105.14    7.39
   3   0  -6  115.88    7.39
  -3   0   6  114.32    7.39
  -2   0   6    5.60    0.44
   2   0  -6    7.12    0.45
  -1   0   6  116.43    8.74
   1   0  -6  148.35    8.75
   0   0  -6   33.85    1.97
   0   0   6   25.24    1.97
   1   0   6  132.05    8.77
  -1   0  -6  133.42    8.78
  -2   0  -6   10.04    0.55
  -2   0  -6   10.80    0.72
  -3   0  -6    0.06    0.06
  -3   0  -6    0.06    0.03
   3   0   6    0.00    0.05
  -4   0  -6   35.10    1.86
   4   0   6   35.92    1.88
   4   0   6   35.26    2.39
  -4   0  -6   36.39    2.39
   5   0   6    6.68    0.40
  -5   0  -6    6.72    0.38
  -5   0  -6    7.23    0.50
  -6   0  -6    0.26    0.05
   6   0   6    0.27    0.09
  -6   0  -6    0.12    0.09
  -7   0  -6    0.15    0.09
   7   0   6    0.27    0.08
  -8   0  -6    0.51    0.11
   8   0   6    0.34    0.11
   9  -1  -6    0.04    0.09
  -9  -1   6   -0.04    0.06
   9   1  -6   -0.01    0.12
  -8  -1   6    1.34    0.16
   8  -1  -6    1.50    0.15
   8   1  -6    1.39    0.16
  -7  -1   6    0.11    0.04
   7  -1  -6    0.12    0.08
  -7  -1   6    0.14    0.06
  -7  -1   6    0.04    0.07
  -7   1   6    0.10    0.03
   7   1  -6    0.08    0.10
  -7   1   6    0.13    0.03
  -6  -1   6    3.61    0.28
   6  -1  -6    3.49    0.24
  -6  -1   6    3.72    0.28
   6  -1  -6    3.48    0.25
  -6  -1   6    3.57    0.21
  -6   1   6    3.52    0.26
  -6   1   6    3.30    0.25
   6   1  -6    3.40    0.28
   6   1  -6    3.84    0.25
  -5  -1   6    8.14    0.57
  -5  -1   6    8.66    0.57
   5  -1  -6    7.89    0.55
  -5   1   6    7.81    0.56
   5   1  -6    8.45    0.57
  -5   1   6    7.63    0.42
   5   1  -6    8.40    0.46
  -4  -1   6    0.18    0.06
   4  -1  -6    0.17    0.05
  -4  -1   6    0.20    0.06
   4   1  -6    0.20    0.07
   4   1  -6    0.20    0.06
  -4   1   6    0.10    0.05
  -4   1   6    0.16    0.05
  -3  -1   6   39.12    2.52
   3  -1  -6   38.09    2.52
  -3  -1   6   37.71    2.52
   3   1  -6   39.79    2.52
  -3   1   6   36.56    2.51
   3   1  -6   35.77    1.98
  -2  -1   6   59.71    4.06
   2  -1  -6   61.34    4.06
  -2  -1   6   62.47    4.06
   2   1  -6   63.47    4.06
   2   1  -6   59.15    3.18
   1  -1  -6  180.71   12.56
  -1  -1   6  191.28   12.56
  -1   1   6  193.83   12.56
   1   1  -6  194.86   12.56
   0  -1   6    1.06    0.12
   0  -1  -6    1.12    0.11
   0   1  -6    1.27    0.12
  -1  -1  -6    5.14    0.38
   1  -1   6    5.54    0.38
   1   1   6    5.03    0.38
  -1   1  -6    5.16    0.38
   2  -1   6    7.43    0.50
  -2  -1  -6    7.15    0.50
  -2  -1  -6    7.01    0.39
  -2   1  -6    7.24    0.50
  -2   1  -6    6.95    0.38
   2   1   6    6.78    0.40
   3  -1   6    0.12    0.06
  -3  -1  -6    0.13    0.07
  -3  -1  -6    0.20    0.05
   3   1   6    0.28    0.07
  -3   1  -6    0.09    0.06
   3   1   6    0.21    0.07
  -3   1  -6    0.19    0.03
   4  -1   6    0.48    0.08
  -4  -1  -6    0.36    0.10
  -4  -1  -6    0.54    0.06
  -4   1  -6    0.60    0.05
  -4   1  -6    0.50    0.10
   4   1   6    0.46    0.08
  -5  -1  -6    0.17    0.05
  -5  -1  -6    0.15    0.09
   5   1   6    0.21    0.08
  -5   1  -6    0.17    0.08
  -5   1  -6    0.21    0.03
   6  -1   6    3.38    0.23
  -6  -1  -6    3.11    0.21
  -6  -1  -6    3.01    0.28
   6   1   6    3.13    0.23
  -6   1  -6    3.53    0.27
  -7  -1  -6    0.93    0.15
   7  -1   6    1.08    0.13
  -7   1  -6    0.92    0.13
   7   1   6    1.00    0.13
   7   1   6    1.03    0.11
  -8  -1  -6    0.34    0.12
   8  -1   6    0.57    0.11
   8   1   6    0.42    0.12
  -8   1  -6    0.43    0.10
  -9  -2   6    0.36    0.10
   9  -2  -6    0.55    0.12
   9   2  -6    0.32    0.14
  -8  -2   6    0.07    0.08
   8  -2  -6    0.01    0.09
   8   2  -6    0.02    0.10
  -7  -2   6    0.14    0.06
  -7  -2   6    0.10    0.09
   7  -2  -6    0.27    0.09
   7   2  -6    0.16    0.10
  -6  -2   6    0.26    0.08
  -6  -2   6    0.16    0.09
   6  -2  -6    0.27    0.03
   6   2  -6    0.27    0.11
  -6   2   6    0.25    0.04
  -6   2   6    0.24    0.03
  -5  -2   6    5.48    0.41
  -5  -2   6    5.87    0.42
   5  -2  -6    5.58    0.38
   5   2  -6    5.84    0.42
  -5   2   6    5.36    0.38
  -5   2   6    5.28    0.38
   5   2  -6    5.17    0.34
   4  -2  -6    1.78    0.14
  -4  -2   6    1.71    0.17
  -4  -2   6    1.50    0.16
   4   2  -6    1.71    0.17
  -4   2   6    1.65    0.10
  -4   2   6    1.76    0.14
   4   2  -6    1.60    0.14
   3  -2  -6   17.61    1.23
  -3  -2   6   19.65    1.24
  -3  -2   6   16.62    1.24
  -3   2   6   18.21    0.96
   3   2  -6   18.05    0.97
   3   2  -6   19.62    1.24
   2  -2  -6    9.70    0.62
  -2  -2   6    9.45    0.63
  -2   2   6    9.30    0.48
   2   2  -6    9.36    0.49
   2   2  -6    7.02    0.62
  -1  -2   6    6.63    0.46
   1  -2  -6    6.36    0.45
  -1  -2   6    6.28    0.46
  -1   2   6    6.25    0.35
  -1   2   6    6.68    0.46
   1   2  -6    6.25    0.35
   0  -2   6    1.50    0.14
   0  -2   6    1.36    0.14
   0   2  -6    1.32    0.10
   0   2   6    1.44    0.11
   0   2  -6    1.26    0.14
   0   2   6    1.32    0.14
  -1  -2  -6    0.60    0.10
  -1  -2  -6    0.67    0.07
   1  -2   6    0.51    0.08
  -1   2  -6    0.52    0.05
  -1   2  -6    0.54    0.09
   1   2   6    0.54    0.09
   1   2   6    0.56    0.07
   2  -2   6   25.97    1.57
  -2  -2  -6   19.44    1.57
  -2  -2  -6   24.93    1.23
   2   2   6   23.79    1.23
  -2   2  -6   24.04    1.21
  -2   2  -6   20.11    1.56
   2   2   6   24.79    1.57
  -3  -2  -6    1.46    0.17
  -3  -2  -6    1.46    0.11
   3  -2   6    1.35    0.14
   3   2   6    1.55    0.16
   3   2   6    1.29    0.12
  -3   2  -6    1.42    0.15
  -4  -2  -6    1.09    0.10
  -4  -2  -6    0.94    0.13
   4   2   6    1.14    0.12
  -4   2  -6    0.90    0.12
  -5  -2  -6    1.77    0.21
   5   2   6    1.80    0.16
  -5   2  -6    1.43    0.17
   5   2   6    1.43    0.13
  -6  -2  -6    2.14    0.23
  -6   2  -6    2.34    0.22
   6   2   6    2.45    0.18
   6   2   6    1.99    0.19
   7  -2   6    0.18    0.08
  -7  -2  -6    0.26    0.12
  -7   2  -6    0.26    0.09
   7   2   6    0.12    0.11
   7   2   6    0.17    0.09
   8  -2   6    0.28    0.10
  -8  -2  -6    0.24    0.12
  -8   2  -6    0.23    0.09
   8   2   6    0.28    0.09
   8   2   6    0.24    0.10
  -9  -3   6    0.00    0.11
   9  -3  -6    0.11    0.10
   9   3  -6    0.05    0.14
   8  -3  -6    0.44    0.11
  -8  -3   6    0.24    0.11
   8   3  -6    0.17    0.12
  -7  -3   6    8.12    0.63
   7  -3  -6    8.86    0.51
   7   3  -6    9.20    0.52
  -6  -3   6    1.12    0.15
  -6  -3   6    1.20    0.15
   6   3  -6    1.40    0.15
  -5  -3   6    0.03    0.08
  -5  -3   6    0.17    0.09
   5  -3  -6    0.12    0.04
  -5   3   6    0.08    0.04
   5   3  -6    0.11    0.08
   5   3  -6    0.14    0.08
  -4  -3   6   13.67    0.90
  -4  -3   6   12.37    0.90
   4  -3  -6   13.44    0.88
   4   3  -6   13.43    0.71
   4   3  -6   11.35    0.90
  -4   3   6   13.52    0.88
  -3  -3   6    7.74    0.64
   3  -3  -6    8.72    0.62
  -3  -3   6    9.82    0.50
  -3  -3   6    7.53    0.63
  -3   3   6   10.24    0.63
   3   3  -6    9.72    0.50
   3   3  -6    7.53    0.64
   3   3  -6    9.66    0.64
  -3   3   6    9.91    0.48
  -2  -3   6   63.85    4.22
   2  -3  -6   63.84    4.21
  -2  -3   6   60.61    3.30
  -2  -3   6   65.52    4.22
   2   3  -6   61.90    3.31
   2   3  -6   61.67    4.22
   2   3  -6   63.36    4.22
  -2   3   6   61.76    3.30
  -2   3   6   68.93    4.22
   1  -3  -6   22.38    1.44
  -1  -3   6   22.07    1.45
  -1  -3   6   20.99    1.45
   1   3  -6   21.41    1.45
  -1   3   6   20.53    1.13
   1   3  -6   20.77    1.13
   0  -3   6   70.52    4.67
   0   3  -6   69.33    3.65
   0   3   6   68.27    3.65
   0   3  -6   73.17    4.67
  -1  -3  -6    1.34    0.12
   1  -3   6    1.78    0.16
  -1  -3  -6    1.52    0.17
   1  -3   6    1.80    0.17
   1   3   6    1.48    0.13
  -1   3  -6    1.67    0.10
  -1   3  -6    1.75    0.17
   1   3   6    1.48    0.16
  -2  -3  -6    3.45    0.28
   2  -3   6    3.20    0.26
  -2  -3  -6    3.24    0.21
   2  -3   6    3.43    0.26
  -2   3  -6    3.38    0.17
   2   3   6    3.49    0.27
   2   3   6    3.38    0.22
  -2   3  -6    2.64    0.26
  -3  -3  -6    7.10    0.54
  -3  -3  -6    7.03    0.42
   3  -3   6    7.59    0.53
  -3   3  -6    7.75    0.53
   3   3   6    7.30    0.43
  -4  -3  -6    8.26    0.56
   4  -3   6    6.64    0.53
  -4   3  -6    7.37    0.54
   4   3   6    8.02    0.44
  -5  -3  -6    1.84    0.21
   5  -3   6    1.59    0.18
   5   3   6    2.06    0.17
  -5   3  -6    1.69    0.18
   5   3   6    1.55    0.17
  -6  -3  -6    9.71    0.71
   6   3   6    9.20    0.55
  -6   3  -6    9.61    0.67
   6   3   6    9.36    0.54
  -7  -3  -6    0.24    0.12
   7  -3   6    0.53    0.10
   7   3   6    0.51    0.10
  -7   3  -6    0.30    0.09
   7   3   6    0.34    0.11
  -8  -3  -6    0.24    0.13
   8   3   6    0.40    0.11
   8   3   6    0.30    0.11
  -8  -4   6    0.04    0.11
   8  -4  -6    0.10    0.10
   8   4  -6   -0.18    0.11
  -7  -4   6    0.63    0.13
   7   4  -6    0.60    0.15
  -6  -4   6   -0.15    0.09
  -6  -4   6   -0.04    0.09
   6   4  -6   -0.16    0.09
   5  -4  -6    1.08    0.11
  -5  -4   6    1.03    0.16
  -5  -4   6    1.03    0.15
  -5   4   6    1.08    0.11
   5   4  -6    1.00    0.13
  -4  -4   6   11.22    0.77
  -4  -4   6   10.04    0.76
   4  -4  -6   10.77    0.73
  -4   4   6   10.28    0.73
   4   4  -6   11.30    0.77
   4   4  -6   10.49    0.60
   3  -4  -6   14.37    0.94
  -3  -4   6   12.84    0.96
  -3  -4   6   11.68    0.95
   3   4  -6   16.10    0.75
  -2  -4   6   44.04    3.35
  -2  -4   6   54.01    3.35
  -2  -4   6   47.44    2.62
  -2   4   6   52.60    3.34
   2   4  -6   48.68    2.62
   2   4  -6   54.25    3.36
  -1  -4   6    1.66    0.17
  -1  -4   6    1.63    0.16
  -1  -4   6    1.60    0.12
   1  -4  -6    1.64    0.13
   1  -4  -6    1.63    0.18
  -1   4   6    1.63    0.13
   1   4  -6    1.70    0.18
   1   4  -6    1.63    0.13
  -1   4   6    1.56    0.16
   1   4  -6    1.81    0.17
   0  -4   6    7.66    0.42
   0  -4  -6    7.74    0.44
   0  -4   6    7.98    0.56
   0  -4  -6    6.47    0.56
   0  -4   6    8.65    0.57
   0   4  -6    7.88    0.43
   0   4   6    7.86    0.56
   0   4  -6    8.35    0.57
   0   4   6    7.73    0.44
  -1  -4  -6    0.73    0.12
   1  -4   6    0.57    0.11
   1   4   6    0.73    0.11
  -1   4  -6    0.63    0.06
  -1   4  -6    0.59    0.11
   1   4   6    0.72    0.09
  -2  -4  -6   12.78    0.82
   2  -4   6   12.13    0.81
   2   4   6   11.75    0.64
  -2   4  -6    9.95    0.81
  -3  -4  -6   15.70    1.05
   3  -4   6   15.59    1.03
   3   4   6   15.03    0.82
  -3   4  -6   13.52    1.02
  -4  -4  -6   14.76    1.09
   4  -4   6   14.13    1.07
   4   4   6   17.62    0.87
  -4   4  -6   16.27    1.08
  -5  -4  -6    0.13    0.11
   5  -4   6    0.21    0.08
   5   4   6    0.19    0.09
   5   4   6    0.28    0.10
  -5   4  -6    0.13    0.08
  -6  -4  -6    0.08    0.11
  -6   4  -6    0.20    0.08
   6   4   6    0.12    0.10
   6   4   6    0.23    0.09
  -7  -4  -6    0.48    0.15
   7   4   6    0.46    0.12
  -7   4  -6    0.49    0.09
  -8  -5   6   -0.06    0.13
   8  -5  -6   -0.07    0.09
   8   5  -6   -0.17    0.11
  -7  -5   6    0.06    0.11
   7   5  -6    0.03    0.12
  -6  -5   6    0.08    0.11
   6   5  -6   -0.05    0.10
  -5  -5   6   -0.01    0.10
   5   5  -6    0.00    0.09
  -5   5   6    0.04    0.05
  -4  -5   6    1.05    0.17
   4  -5  -6    1.16    0.14
   4   5  -6    1.14    0.17
   4   5  -6    1.08    0.13
  -4   5   6    1.04    0.13
  -3  -5   6    1.45    0.20
   3  -5  -6    1.98    0.18
   3   5  -6    1.71    0.16
  -3   5   6    2.04    0.17
   3   5  -6    1.25    0.19
   2  -5  -6   -0.11    0.05
  -2  -5   6   -0.04    0.09
   2  -5  -6    0.02    0.07
   2   5  -6   -0.12    0.09
  -2   5   6   -0.02    0.07
   2   5  -6   -0.08    0.06
  -1  -5   6    0.03    0.05
   1  -5  -6   -0.16    0.05
  -1  -5   6   -0.16    0.08
   1  -5  -6   -0.11    0.07
  -1   5   6   -0.14    0.08
   1   5  -6   -0.12    0.05
   1   5  -6   -0.21    0.08
   0  -5  -6    1.61    0.19
   0  -5   6    1.97    0.21
   0  -5   6    1.86    0.14
   0   5  -6    1.46    0.14
   0   5   6    1.85    0.20
   0   5  -6    2.23    0.22
   0   5  -6    2.18    0.20
   1  -5   6    7.38    0.55
  -1  -5  -6    7.61    0.56
   1  -5   6    7.13    0.40
  -1   5  -6    7.43    0.41
   1   5   6    7.10    0.43
  -1   5  -6    7.90    0.55
  -2  -5  -6    9.58    0.65
   2  -5   6    8.93    0.63
   2   5   6    8.75    0.50
  -2   5  -6    7.64    0.62
   3  -5   6    0.10    0.08
  -3  -5  -6   -0.11    0.10
   3   5   6   -0.12    0.07
  -3   5  -6   -0.10    0.08
  -4  -5  -6    0.34    0.13
   4  -5   6    0.45    0.10
  -4   5  -6    0.39    0.10
   4   5   6    0.42    0.10
  -5  -5  -6    0.16    0.12
  -5   5  -6    0.22    0.09
  -6  -5  -6    0.73    0.16
  -6   5  -6    0.65    0.11
  -7  -5  -6    0.39    0.14
  -7   5  -6    0.30    0.08
   7   5   6    0.25    0.11
  -7  -6   6    1.51    0.23
   7   6  -6    1.69    0.19
  -6  -6   6   -0.21    0.11
   6   6  -6    0.03    0.10
  -5  -6   6    0.47    0.16
   5   6  -6    0.15    0.10
  -4  -6   6    3.98    0.37
   4   6  -6    4.03    0.28
   3  -6  -6    1.76    0.19
   3  -6  -6    1.87    0.14
  -3  -6   6    2.15    0.24
  -3   6   6    1.57    0.17
   3   6  -6    1.58    0.21
   3   6  -6    1.66    0.16
  -2  -6   6    1.88    0.23
   2  -6  -6    2.00    0.21
   2   6  -6    1.34    0.21
  -2   6   6    1.84    0.19
   2   6  -6    1.93    0.16
  -1  -6   6    0.07    0.10
   1  -6  -6    0.00    0.09
   1   6  -6    0.10    0.08
  -1   6   6    0.03    0.10
   1   6  -6    0.29    0.11
   0  -6  -6    7.38    0.63
   0  -6   6    8.97    0.64
   0  -6   6    8.75    0.48
   0   6  -6    8.69    0.64
   0   6  -6    9.18    0.48
   1  -6   6    0.03    0.04
  -1  -6  -6   -0.11    0.09
   1  -6   6   -0.19    0.08
  -1   6  -6   -0.10    0.08
  -1   6  -6    0.02    0.05
  -2  -6  -6    0.87    0.16
   2  -6   6    0.89    0.15
  -2   6  -6    0.81    0.15
  -3  -6  -6    3.43    0.34
   3  -6   6    3.63    0.31
  -3   6  -6    3.27    0.31
  -4  -6  -6    3.79    0.38
  -4   6  -6    4.32    0.35
  -5  -6  -6    0.09    0.13
  -5   6  -6    0.33    0.10
  -6  -6  -6    0.42    0.16
  -6   6  -6    0.49    0.11
  -6  -7   6    0.65    0.19
   6   7  -6    0.61    0.14
  -5  -7   6    3.01    0.33
   5   7  -6    2.59    0.26
  -4  -7   6    1.12    0.19
   4   7  -6    1.05    0.16
  -3  -7   6    0.60    0.16
   3   7  -6    0.53    0.13
  -2  -7   6   10.64    0.78
   2  -7  -6    9.49    0.75
   2   7  -6   11.03    0.60
   1  -7  -6    2.17    0.25
  -1  -7   6    1.48    0.21
   1   7  -6    1.72    0.16
   1   7  -6    1.77    0.22
   0  -7  -6    1.49    0.21
   0  -7   6    1.78    0.21
   0   7  -6    1.81    0.22
   0   7  -6    1.79    0.15
  -1  -7  -6    7.21    0.55
   1  -7   6    7.13    0.54
  -1   7  -6    6.15    0.38
  -1   7  -6    7.03    0.53
  -2  -7  -6    7.00    0.54
   2  -7   6    6.56    0.52
  -2   7  -6    6.38    0.51
  -3  -7  -6    0.14    0.14
  -3   7  -6    0.29    0.12
  -4  -7  -6    1.83    0.26
  -4   7  -6    2.13    0.24
  -5  -7  -6    0.56    0.18
  -5  -8   6   -0.20    0.13
   5   8  -6   -0.02    0.11
  -4  -8   6    1.01    0.21
   4   8  -6    1.15    0.15
  -3  -8   6    2.49    0.32
   3   8  -6    2.64    0.22
  -2  -8   6    0.21    0.14
   2   8  -6    0.65    0.12
  -1  -8   6    0.10    0.13
   1  -8  -6   -0.01    0.13
   1   8  -6    0.06    0.08
   0  -8  -6    1.10    0.19
   0  -8   6    1.34    0.20
   0   8  -6    1.16    0.12
  -1  -8  -6    0.18    0.14
   1  -8   6    0.31    0.13
  -2  -8  -6   -0.01    0.14
  -3  -8  -6    1.49    0.24
  -4  -8  -6    4.99    0.48
  -2  -9   6    1.44    0.23
   2   9  -6    1.59    0.16
  -1  -9   6    0.52    0.17
   1   9  -6    0.45    0.11
   0  -9  -6    0.06    0.13
   0  -9   6   -0.05    0.13
  -1  -9  -6   -0.06    0.14
   9   0  -7   -0.05    0.10
   8   0  -7   -0.04    0.09
  -8   0   7   -0.07    0.05
  -7   0   7   -0.05    0.05
  -7   0   7    0.07    0.06
   7   0  -7    0.02    0.08
  -6   0   7   -0.05    0.06
  -6   0   7   -0.02    0.05
   6   0  -7    0.00    0.06
   6   0  -7   -0.05    0.07
  -6   0   7   -0.01    0.03
  -5   0   7   -0.08    0.06
  -5   0   7   -0.04    0.05
   5   0  -7   -0.06    0.05
   5   0  -7    0.00    0.07
  -4   0   7   -0.01    0.05
   4   0  -7   -0.07    0.06
  -4   0   7    0.06    0.06
   4   0  -7   -0.02    0.05
   3   0  -7    0.09    0.06
  -3   0   7    0.03    0.05
   2   0  -7    0.29    0.07
  -2   0   7   -0.04    0.05
   1   0  -7    0.11    0.06
  -1   0   7   -0.01    0.05
   0   0  -7    0.03    0.06
   0   0   7    0.04    0.04
  -1   0  -7   -0.09    0.06
   1   0   7   -0.15    0.05
   2   0   7   -0.07    0.05
  -2   0  -7   -0.04    0.03
  -2   0  -7   -0.14    0.06
  -3   0  -7    0.02    0.07
  -3   0  -7    0.06    0.03
   3   0   7    0.01    0.06
  -4   0  -7    0.06    0.04
   4   0   7    0.16    0.08
  -4   0  -7   -0.02    0.07
  -5   0  -7    0.07    0.04
   5   0   7    0.16    0.07
  -5   0  -7    0.07    0.09
   6   0   7   -0.13    0.07
  -6   0  -7    0.01    0.09
  -7   0  -7    0.02    0.10
   7   0   7    0.06    0.08
  -8   0  -7    0.09    0.11
   8   0   7    0.04    0.10
  -9  -1   7    0.06    0.07
   9  -1  -7   -0.01    0.11
   9   1  -7    0.07    0.11
  -8  -1   7    0.66    0.11
   8  -1  -7    0.66    0.13
   8   1  -7    0.93    0.14
   7  -1  -7    1.82    0.18
  -7  -1   7    2.06    0.20
  -7   1   7    2.12    0.16
   7   1  -7    1.88    0.19
  -7   1   7    1.99    0.16
   6  -1  -7    0.16    0.08
  -6  -1   7    0.35    0.09
  -6  -1   7    0.27    0.07
   6  -1  -7    0.28    0.06
   6   1  -7    0.36    0.09
  -6   1   7    0.30    0.06
   6   1  -7    0.34    0.08
  -6   1   7    0.26    0.06
   5  -1  -7    9.26    0.64
  -5  -1   7    9.56    0.65
  -5  -1   7   10.26    0.65
   5   1  -7    9.06    0.53
  -5   1   7    8.48    0.63
   5   1  -7    8.84    0.65
  -5   1   7    9.26    0.64
   4  -1  -7   24.34    1.55
  -4  -1   7   20.87    1.55
  -4  -1   7   23.36    1.55
  -4   1   7   24.20    1.55
   4   1  -7   22.36    1.55
   4   1  -7   23.17    1.23
  -3  -1   7   63.84    4.05
  -3  -1   7   50.90    4.04
  -3   1   7   59.80    4.04
   3   1  -7   67.79    4.05
   3   1  -7   62.58    3.18
  -2  -1   7   11.74    0.85
  -2   1   7   12.88    0.84
  -1  -1   7   25.55    1.85
   1  -1  -7   27.86    1.85
  -1   1   7   28.28    1.85
   1   1  -7   28.75    1.85
   0  -1  -7   25.73    1.99
   0  -1   7   31.98    1.99
   0   1  -7   28.35    1.99
   0   1   7   32.72    1.99
  -1  -1  -7  219.38   13.85
   1   1   7  185.60   13.85
  -1   1  -7  224.11   13.85
  -2  -1  -7   22.39    1.27
  -2  -1  -7   25.43    1.64
   2  -1   7   24.51    1.64
   2   1   7   23.67    1.29
  -2   1  -7   24.87    1.64
   2   1   7   24.86    1.64
  -3  -1  -7   57.96    4.32
   3  -1   7   61.59    4.32
  -3  -1  -7   69.14    3.38
   3   1   7   70.00    4.33
  -3   1  -7   56.14    4.31
   3   1   7   69.79    3.39
  -3   1  -7   70.22    3.37
  -4  -1  -7    4.94    0.39
  -4  -1  -7    5.02    0.29
  -4   1  -7    4.92    0.27
  -4   1  -7    5.21    0.39
   4   1   7    4.98    0.31
  -5  -1  -7    0.05    0.05
  -5  -1  -7    0.07    0.08
   5   1   7    0.08    0.08
  -5   1  -7    0.08    0.03
  -5   1  -7    0.03    0.09
   6  -1   7    2.09    0.18
  -6  -1  -7    2.12    0.24
  -6  -1  -7    2.17    0.16
  -6   1  -7    2.37    0.23
   6   1   7    2.05    0.19
  -7  -1  -7    0.11    0.11
   7  -1   7    0.15    0.08
  -7   1  -7    0.09    0.10
   7   1   7    0.04    0.09
   8  -1   7   -0.01    0.09
  -8  -1  -7    0.02    0.11
  -8   1  -7    0.12    0.10
   8   1   7   -0.14    0.11
   9  -2  -7    0.03    0.09
  -9  -2   7    0.08    0.10
   9   2  -7    0.12    0.12
  -8  -2   7    1.71    0.21
   8  -2  -7    1.91    0.18
   8   2  -7    1.73    0.19
   7  -2  -7    0.22    0.09
  -7  -2   7    0.21    0.09
   7   2  -7    0.20    0.11
   6  -2  -7   11.15    0.77
  -6  -2   7   11.29    0.80
  -6  -2   7   12.07    0.81
  -6   2   7   11.15    0.77
  -6   2   7   10.99    0.77
   6   2  -7   12.04    0.80
   6   2  -7   11.36    0.65
   5  -2  -7   30.86    2.21
  -5  -2   7   31.36    2.23
  -5  -2   7   36.13    2.23
   5   2  -7   34.74    1.76
  -5   2   7   32.03    2.21
   5   2  -7   34.14    2.23
  -4  -2   7    5.58    0.39
  -4  -2   7    4.85    0.37
   4  -2  -7    4.19    0.36
   4   2  -7    5.19    0.31
   4   2  -7    5.56    0.39
  -4   2   7    4.82    0.27
  -4   2   7    5.12    0.36
  -3  -2   7    0.48    0.10
  -3  -2   7    0.37    0.08
   3  -2  -7    0.55    0.08
  -3   2   7    0.35    0.07
  -3   2   7    0.32    0.05
   3   2  -7    0.44    0.07
   3   2  -7    0.39    0.09
   2  -2  -7    2.02    0.17
  -2  -2   7    2.11    0.19
  -2  -2   7    1.72    0.18
   2   2  -7    2.19    0.19
  -2   2   7    1.93    0.17
   2   2  -7    1.76    0.14
  -2   2   7    2.06    0.13
  -1  -2   7   50.24    3.35
   1  -2  -7   52.77    3.35
  -1   2   7   52.58    3.35
   1   2  -7   50.06    2.62
   1   2  -7   44.18    3.35
  -1   2   7   51.70    2.62
   0  -2   7   28.73    1.81
   0  -2   7   27.89    1.81
   0   2   7   27.76    1.41
   0   2  -7   23.30    1.80
   0   2  -7   27.01    1.40
   0   2   7   26.44    1.80
  -1  -2  -7   67.81    3.52
  -1  -2  -7   69.11    4.50
  -1   2  -7   67.23    3.51
   1   2   7   66.74    3.52
  -1   2  -7   64.81    4.50
   1   2   7   70.52    4.50
   2  -2   7   44.29    2.81
  -2  -2  -7   40.50    2.20
   2   2   7   39.97    2.21
   2   2   7   44.59    2.82
  -2   2  -7   41.28    2.18
  -3  -2  -7   28.88    1.50
  -3  -2  -7   24.67    1.92
   3   2   7   29.85    1.51
  -3   2  -7   30.76    1.92
  -4  -2  -7    0.10    0.06
  -4  -2  -7    0.17    0.09
  -4   2  -7    0.17    0.08
   4   2   7    0.01    0.07
  -5  -2  -7   10.43    0.74
   5   2   7   10.01    0.58
  -5   2  -7   10.19    0.72
  -6  -2  -7    0.10    0.10
   6   2   7    0.02    0.09
  -6   2  -7    0.21    0.10
   7  -2   7    0.60    0.11
  -7  -2  -7    0.45    0.14
  -7   2  -7    0.35    0.10
   7   2   7    0.55    0.12
  -8  -2  -7    1.02    0.18
   8  -2   7    1.11    0.14
   8   2   7    1.12    0.15
  -8   2  -7    1.11    0.14
  -9  -3   7   -0.11    0.10
   9  -3  -7    0.10    0.10
   9   3  -7    0.03    0.12
   8  -3  -7    2.15    0.19
  -8  -3   7    1.96    0.23
   8   3  -7    1.79    0.20
  -7  -3   7    2.14    0.24
   7   3  -7    1.86    0.19
  -6  -3   7    0.84    0.13
  -6  -3   7    0.62    0.13
   6  -3  -7    0.86    0.09
   6   3  -7    0.85    0.14
  -6   3   7    0.79    0.08
  -6   3   7    0.82    0.09
   6   3  -7    0.67    0.12
  -5  -3   7    2.72    0.28
  -5  -3   7    4.05    0.31
   5  -3  -7    3.37    0.25
   5   3  -7    3.29    0.24
   5   3  -7    3.91    0.30
   4  -3  -7    4.73    0.36
  -4  -3   7    5.45    0.41
  -4  -3   7    5.38    0.39
   4   3  -7    5.58    0.40
   4   3  -7    5.04    0.31
  -4   3   7    4.49    0.36
  -3  -3   7    4.36    0.36
   3  -3  -7    4.74    0.34
  -3   3   7    5.12    0.34
   3   3  -7    3.74    0.35
   3   3  -7    4.65    0.28
  -3   3   7    4.59    0.26
  -2  -3   7    0.43    0.09
  -2  -3   7    0.40    0.10
   2  -3  -7    0.46    0.09
  -2   3   7    0.44    0.06
   2   3  -7    0.43    0.07
   2   3  -7    0.31    0.10
  -2   3   7    0.45    0.09
  -1  -3   7   44.96    2.93
  -1  -3   7   47.64    2.93
   1   3  -7   39.56    2.93
  -1   3   7   44.62    2.92
   1   3  -7   44.20    2.29
  -1   3   7   41.87    2.29
   0  -3   7    3.23    0.25
   0  -3   7    3.23    0.26
   0  -3  -7    3.15    0.25
   0   3  -7    2.87    0.18
   0   3  -7    3.22    0.25
   0   3   7    2.58    0.25
   0   3   7    3.12    0.20
   1  -3   7    4.07    0.35
  -1  -3  -7    5.05    0.35
  -1  -3  -7    4.86    0.27
   1  -3   7    5.29    0.35
  -1   3  -7    3.64    0.34
   1   3   7    3.78    0.34
   1   3   7    4.55    0.28
  -1   3  -7    4.90    0.25
   2  -3   7    2.82    0.24
  -2  -3  -7    2.47    0.18
  -2  -3  -7    2.76    0.25
   2   3   7    2.41    0.19
  -2   3  -7    2.89    0.24
   2   3   7    2.55    0.24
  -2   3  -7    2.59    0.14
  -3  -3  -7    5.76    0.48
   3  -3   7    6.20    0.46
   3   3   7    6.37    0.38
  -3   3  -7    6.72    0.47
  -4  -3  -7    0.67    0.14
   4  -3   7    0.65    0.11
  -4   3  -7    0.61    0.11
   4   3   7    0.54    0.11
   5  -3   7    2.00    0.20
  -5  -3  -7    1.63    0.21
  -5   3  -7    2.12    0.22
   5   3   7    1.71    0.17
  -6  -3  -7    1.15    0.17
  -6   3  -7    1.13    0.14
   6   3   7    1.28    0.16
   7  -3   7    0.62    0.11
  -7  -3  -7    0.24    0.12
  -7   3  -7    0.47    0.11
   7   3   7    0.48    0.12
  -8  -3  -7    0.19    0.14
   8   3   7    0.04    0.10
  -8   3  -7    0.18    0.08
   8  -4  -7    0.04    0.10
  -8  -4   7    0.02    0.11
   8   4  -7    0.02    0.11
  -7  -4   7    0.78    0.15
   7   4  -7    0.86    0.14
  -6  -4   7    0.09    0.10
   6   4  -7   -0.01    0.10
  -6   4   7    0.09    0.04
  -5  -4   7    8.77    0.61
   5  -4  -7    7.35    0.56
  -5  -4   7    8.01    0.59
   5   4  -7    8.70    0.60
   5   4  -7    7.77    0.48
   4  -4  -7    3.91    0.31
  -4  -4   7    4.22    0.35
  -4  -4   7    4.34    0.34
   4   4  -7    4.13    0.29
  -4   4   7    3.98    0.31
   4   4  -7    4.71    0.35
   3  -4  -7    0.40    0.08
  -3  -4   7    0.39    0.09
  -3  -4   7    0.28    0.11
   3   4  -7    0.32    0.10
   3   4  -7    0.36    0.08
  -3   4   7    0.39    0.08
  -2  -4   7    1.02    0.14
   2  -4  -7    1.26    0.16
  -2  -4   7    1.07    0.15
  -2  -4   7    1.46    0.11
   2   4  -7    1.15    0.15
  -2   4   7    1.15    0.14
   2   4  -7    1.18    0.11
  -2   4   7    1.13    0.11
   1  -4  -7    1.40    0.15
  -1  -4   7    1.09    0.15
  -1   4   7    1.24    0.12
   1   4  -7    1.11    0.11
   1   4  -7    1.11    0.15
  -1   4   7    1.19    0.14
   0  -4   7   30.03    2.05
   0  -4  -7   30.34    2.05
   0   4  -7   29.67    1.59
   0   4  -7   32.21    2.05
   0   4   7   30.70    2.05
   0   4   7   29.24    1.60
   1  -4   7    2.34    0.22
  -1  -4  -7    1.54    0.21
   1   4   7    2.51    0.22
  -1   4  -7    2.02    0.14
  -1   4  -7    2.43    0.22
   1   4   7    2.20    0.17
   2  -4   7    5.75    0.43
  -2  -4  -7    5.54    0.44
  -2   4  -7    5.54    0.43
   2   4   7    5.39    0.34
  -2   4  -7    5.50    0.29
   3  -4   7    0.11    0.08
  -3  -4  -7    0.04    0.10
  -3   4  -7    0.02    0.08
   3   4   7    0.03    0.08
  -4  -4  -7    3.01    0.29
   4  -4   7    2.83    0.25
   4   4   7    2.99    0.23
  -4   4  -7    3.05    0.26
  -5  -4  -7    0.03    0.11
  -5   4  -7    0.08    0.09
   5   4   7   -0.08    0.09
  -6  -4  -7    1.07    0.18
   6   4   7    0.94    0.14
  -6   4  -7    1.01    0.14
  -7  -4  -7   -0.08    0.12
  -7   4  -7   -0.10    0.07
   7   4   7   -0.07    0.11
  -8  -5   7    0.07    0.11
   8   5  -7    0.05    0.12
  -7  -5   7    3.44    0.35
   7   5  -7    3.65    0.29
  -6  -5   7    0.62    0.16
   6   5  -7    0.50    0.12
  -5  -5   7    0.03    0.11
   5   5  -7   -0.10    0.09
   4  -5  -7    0.08    0.07
  -4  -5   7   -0.09    0.10
  -4   5   7    0.08    0.06
   4   5  -7   -0.01    0.11
   4   5  -7    0.18    0.09
   3  -5  -7   17.34    1.17
  -3  -5   7   17.96    1.20
  -3   5   7   16.64    1.17
   3   5  -7   16.09    0.93
   3   5  -7   17.52    1.19
  -2  -5   7   33.71    2.16
   2  -5  -7   31.20    2.13
   2   5  -7   31.12    1.67
  -2   5   7   29.26    2.13
   2   5  -7   33.43    2.15
  -1  -5   7   -0.12    0.09
   1  -5  -7   -0.10    0.09
  -1  -5   7    0.06    0.06
  -1   5   7   -0.11    0.07
   1   5  -7   -0.10    0.06
   1   5  -7   -0.27    0.09
   0  -5  -7   12.85    0.86
   0  -5   7   10.17    0.86
   0  -5   7   13.07    0.66
   0   5  -7   12.44    0.66
   0   5   7   12.68    0.86
   0   5   7   11.92    0.67
   0   5  -7   11.71    0.86
  -1  -5  -7    1.17    0.17
   1  -5   7    1.17    0.16
   1   5   7    1.24    0.13
  -1   5  -7    1.15    0.16
  -1   5  -7    1.33    0.10
   2  -5   7   10.57    0.73
  -2  -5  -7    9.69    0.74
  -2   5  -7   10.70    0.73
   2   5   7    9.31    0.57
   3  -5   7   -0.02    0.07
  -3  -5  -7   -0.05    0.10
   3   5   7   -0.14    0.08
  -3   5  -7    0.06    0.08
  -4  -5  -7    8.03    0.63
   4  -5   7    8.70    0.61
   4   5   7    8.05    0.50
  -4   5  -7    8.42    0.61
  -5  -5  -7    0.99    0.18
   5   5   7    1.07    0.15
  -5   5  -7    1.17    0.15
  -6  -5  -7    1.02    0.19
  -6   5  -7    1.19    0.15
  -7   5  -7    0.23    0.10
  -7  -6   7    0.71    0.17
   7   6  -7    1.03    0.16
  -6  -6   7   -0.05    0.12
   6   6  -7    0.01    0.11
  -5  -6   7    9.98    0.73
   5   6  -7    9.34    0.57
  -4  -6   7    7.32    0.59
   4   6  -7    7.77    0.46
  -3  -6   7    1.55    0.21
   3  -6  -7    1.60    0.19
   3   6  -7    1.56    0.21
   3   6  -7    1.71    0.17
   2  -6  -7    1.77    0.19
  -2  -6   7    1.65    0.21
   2   6  -7    1.56    0.15
  -2   6   7    1.44    0.18
   2   6  -7    1.80    0.22
  -1  -6   7    0.78    0.15
   1  -6  -7    0.72    0.13
   1   6  -7    0.58    0.14
  -1   6   7    0.61    0.12
   1   6  -7    0.63    0.10
   0  -6   7    7.92    0.58
   0  -6   7    7.29    0.42
   0  -6  -7    7.34    0.57
   0   6  -7    7.52    0.43
   0   6  -7    7.92    0.58
   1  -6   7    0.18    0.10
  -1  -6  -7    0.12    0.11
  -1   6  -7    0.24    0.06
  -1   6  -7    0.17    0.11
   2  -6   7    9.43    0.67
  -2  -6  -7    8.07    0.68
  -2   6  -7    9.54    0.67
   3  -6   7    1.85    0.22
  -3  -6  -7    2.12    0.26
  -3   6  -7    1.98    0.24
  -4  -6  -7    0.92    0.18
  -4   6  -7    1.11    0.16
  -5  -6  -7    0.86    0.18
  -5   6  -7    0.76    0.14
  -6  -6  -7    0.08    0.14
  -6   6  -7   -0.02    0.09
  -6  -7   7    0.47    0.17
   6   7  -7    0.48    0.15
  -5  -7   7    6.23    0.53
   5   7  -7    6.03    0.42
  -4  -7   7    0.37    0.15
   4   7  -7    0.48    0.13
  -3  -7   7    0.23    0.13
   3   7  -7    0.14    0.09
   2  -7  -7    0.20    0.10
  -2  -7   7    0.08    0.13
   2   7  -7    0.24    0.14
   2   7  -7    0.34    0.10
   1  -7  -7    0.93    0.15
  -1  -7   7    0.87    0.17
   1   7  -7    0.90    0.11
   1   7  -7    1.02    0.18
   0  -7  -7    3.94    0.35
   0  -7   7    3.77    0.35
   0   7  -7    3.76    0.36
   0   7  -7    3.67    0.25
   1  -7   7   -0.10    0.10
  -1  -7  -7    0.03    0.12
  -1   7  -7   -0.04    0.11
  -1   7  -7   -0.01    0.05
  -2  -7  -7    0.21    0.14
   2  -7   7    0.39    0.12
  -2   7  -7    0.29    0.12
  -3  -7  -7    1.77    0.25
  -3   7  -7    2.19    0.26
  -4  -7  -7    0.51    0.17
  -4   7  -7    0.38    0.13
  -5  -7  -7    0.03    0.15
  -5   7  -7    0.05    0.11
  -4  -8   7   -0.02    0.14
   4   8  -7    0.11    0.10
  -3  -8   7    3.10    0.36
   3   8  -7    3.60    0.27
  -2  -8   7    0.81    0.18
   2   8  -7    0.66    0.12
  -1  -8   7   -0.10    0.12
   1  -8  -7    0.02    0.11
   1   8  -7   -0.01    0.08
   0  -8   7    1.94    0.26
   0  -8  -7    1.92    0.24
   0   8  -7    1.67    0.16
  -1  -8  -7    3.34    0.35
   1  -8   7    3.31    0.34
  -2  -8  -7    1.34    0.22
  -3  -8  -7    0.67    0.19
   9   0  -8   -0.12    0.10
  -8   0   8    1.23    0.14
   8   0  -8    1.10    0.15
  -7   0   8    0.29    0.08
   7   0  -8    0.06    0.09
   6   0  -8   13.23    0.75
  -6   0   8   13.24    0.93
  -6   0   8   13.86    0.93
   6   0  -8   13.83    0.93
  -5   0   8   10.11    0.72
   5   0  -8   10.66    0.59
   5   0  -8   10.93    0.73
  -5   0   8   10.22    0.73
  -4   0   8    0.02    0.06
  -4   0   8    0.02    0.07
   4   0  -8    0.01    0.07
  -3   0   8   61.48    3.75
   3   0  -8   51.17    3.74
  -2   0   8  103.21    7.34
   2   0  -8  118.81    7.35
  -1   0   8  235.31   14.51
   1   0  -8  204.09   14.51
   0   0   8   11.33    0.79
  -1   0  -8   11.69    0.81
  -2   0  -8    0.03    0.03
   2   0   8    0.03    0.06
  -2   0  -8    0.07    0.07
  -3   0  -8   40.07    2.18
  -3   0  -8   43.71    2.80
   4   0   8    0.52    0.09
  -4   0  -8    0.29    0.05
  -4   0  -8    0.23    0.09
   5   0   8    3.88    0.27
  -5   0  -8    3.83    0.23
  -5   0  -8    3.92    0.33
  -6   0  -8    0.99    0.16
   6   0   8    1.04    0.13
  -7   0  -8    4.59    0.38
   7   0   8    4.45    0.31
   8   0   8    3.04    0.26
  -8   0  -8    2.74    0.30
  -9  -1   8    0.13    0.08
   9  -1  -8    0.03    0.12
   9   1  -8    0.03    0.11
   8  -1  -8    2.09    0.20
  -8  -1   8    2.08    0.21
  -8   1   8    2.08    0.15
   8   1  -8    1.90    0.20
   7  -1  -8    1.15    0.14
  -7  -1   8    1.29    0.15
  -7   1   8    1.43    0.13
   7   1  -8    1.04    0.15
  -6  -1   8    3.17    0.27
   6  -1  -8    3.36    0.24
   6  -1  -8    3.14    0.24
  -6  -1   8    3.15    0.25
   6   1  -8    2.78    0.23
  -6   1   8    2.98    0.16
  -6   1   8    3.08    0.16
   6   1  -8    2.96    0.26
  -6   1   8    3.17    0.25
  -5  -1   8    0.37    0.09
  -5  -1   8    0.36    0.10
   5  -1  -8    0.41    0.08
   5   1  -8    0.35    0.10
   5   1  -8    0.28    0.09
  -5   1   8    0.42    0.07
  -5   1   8    0.32    0.08
   4  -1  -8   19.86    1.41
  -4  -1   8   21.59    1.42
   4   1  -8   20.21    1.12
  -4   1   8   21.11    1.41
   4   1  -8   21.95    1.42
   3  -1  -8   29.33    2.27
  -3  -1   8   33.30    2.28
  -3  -1   8   36.40    2.29
   3   1  -8   34.58    1.79
   3   1  -8   36.85    2.29
   2  -1  -8    4.39    0.32
  -2  -1   8    3.89    0.32
  -2  -1   8    4.54    0.33
   2   1  -8    4.22    0.33
  -2   1   8    4.15    0.32
  -1  -1   8    5.26    0.38
  -1   1   8    4.89    0.37
   1   1  -8    4.90    0.38
   0  -1  -8   25.20    1.75
   0  -1   8   26.39    1.75
   0   1   8   26.35    1.75
   0   1  -8   26.24    1.76
  -1  -1  -8    1.54    0.18
   1  -1   8    1.90    0.17
  -1   1  -8    1.65    0.18
   1   1   8    1.81    0.17
   2  -1   8    0.64    0.10
  -2  -1  -8    0.46    0.10
  -2  -1  -8    0.63    0.07
   2   1   8    0.40    0.08
   2   1   8    0.51    0.09
  -2   1  -8    0.62    0.10
  -3  -1  -8    0.01    0.08
  -3  -1  -8    0.05    0.05
  -3   1  -8    0.07    0.03
  -3   1  -8   -0.04    0.08
   3   1   8    0.10    0.07
  -4  -1  -8    0.42    0.06
  -4  -1  -8    0.24    0.10
   4   1   8    0.37    0.09
  -4   1  -8    0.52    0.05
  -4   1  -8    0.29    0.10
  -5  -1  -8   14.20    0.77
  -5  -1  -8   14.07    1.01
  -5   1  -8   13.77    0.75
   5   1   8   14.79    0.80
  -5   1  -8   15.36    1.01
   6  -1   8    3.45    0.26
  -6  -1  -8    3.43    0.33
   6   1   8    3.25    0.26
  -6   1  -8    3.48    0.31
  -7  -1  -8    3.64    0.33
   7  -1   8    3.17    0.25
  -7   1  -8    3.33    0.31
   7   1   8    3.51    0.27
  -8  -1  -8    0.14    0.12
   8  -1   8    0.31    0.11
   8   1   8    0.08    0.11
  -8   1  -8    0.20    0.11
   9  -2  -8    0.18    0.11
  -9  -2   8    0.01    0.10
   9   2  -8   -0.04    0.12
  -8  -2   8    0.29    0.10
   8  -2  -8    0.31    0.10
   8   2  -8    0.12    0.12
  -7  -2   8    0.93    0.14
   7  -2  -8    1.14    0.15
   7   2  -8    0.87    0.15
  -7   2   8    1.19    0.10
  -6  -2   8    0.93    0.14
   6  -2  -8    1.02    0.11
  -6  -2   8    0.97    0.13
   6   2  -8    0.94    0.14
  -6   2   8    1.09    0.11
  -6   2   8    1.10    0.12
   6   2  -8    0.72    0.13
  -5  -2   8    1.69    0.18
  -5  -2   8    1.62    0.19
   5  -2  -8    1.62    0.16
   5   2  -8    1.47    0.18
   5   2  -8    1.75    0.17
  -5   2   8    2.08    0.16
  -5   2   8    1.76    0.10
  -4  -2   8    1.24    0.15
   4  -2  -8    1.01    0.13
  -4  -2   8    1.32    0.16
   4   2  -8    1.16    0.14
   4   2  -8    1.08    0.12
  -4   2   8    1.22    0.09
  -4   2   8    1.35    0.13
  -3  -2   8   13.27    0.86
  -3  -2   8   12.05    0.86
   3  -2  -8   13.00    0.85
   3   2  -8   11.87    0.67
   3   2  -8   12.51    0.86
  -3   2   8   12.16    0.85
  -3   2   8   11.54    0.66
  -2  -2   8    0.13    0.08
   2  -2  -8    0.29    0.08
  -2  -2   8    0.18    0.07
  -2   2   8    0.24    0.05
   2   2  -8    0.25    0.09
  -2   2   8    0.26    0.07
   2   2  -8    0.23    0.06
   1  -2  -8   26.66    1.65
  -1  -2   8   21.60    1.64
  -1  -2   8   20.89    1.64
  -1   2   8   25.17    1.64
   1   2  -8   25.92    1.28
   1   2  -8   24.24    1.65
  -1   2   8   25.80    1.28
   0  -2  -8    3.10    0.26
   0  -2   8    2.76    0.25
   0  -2   8    2.89    0.25
   0   2  -8    2.96    0.18
   0   2   8    3.03    0.20
   0   2  -8    3.18    0.25
   0   2   8    3.16    0.25
   1  -2   8    5.07    0.37
  -1  -2  -8    5.06    0.38
  -1  -2  -8    4.80    0.28
   1   2   8    5.21    0.37
   1   2   8    4.69    0.29
  -1   2  -8    4.84    0.27
  -1   2  -8    4.15    0.37
  -2  -2  -8    6.59    0.47
  -2  -2  -8    6.06    0.36
  -2   2  -8    6.45    0.47
  -2   2  -8    6.12    0.34
   2   2   8    6.24    0.37
  -3  -2  -8    0.34    0.07
  -3  -2  -8    0.36    0.11
  -3   2  -8    0.42    0.03
  -3   2  -8    0.46    0.10
   3   2   8    0.40    0.09
  -3   2  -8    0.36    0.03
  -4  -2  -8   16.17    1.19
  -4   2  -8   17.65    1.18
   4   2   8   17.76    0.94
  -5  -2  -8    1.31    0.18
   5   2   8    1.16    0.14
  -5   2  -8    1.05    0.15
  -6  -2  -8   -0.09    0.12
   6   2   8   -0.21    0.08
  -6   2  -8    0.07    0.10
  -7  -2  -8    0.04    0.13
   7  -2   8    0.17    0.10
  -7   2  -8    0.26    0.11
   7   2   8   -0.03    0.11
  -8  -2  -8   -0.02    0.13
   8  -2   8    0.09    0.10
   8   2   8    0.26    0.11
  -8   2  -8   -0.07    0.10
  -8  -3   8    1.52    0.19
   8  -3  -8    1.82    0.19
   8   3  -8    1.74    0.20
  -7  -3   8    0.07    0.11
   7   3  -8    0.04    0.11
  -6  -3   8    5.70    0.44
  -6  -3   8    5.63    0.43
   6   3  -8    5.70    0.37
  -6   3   8    5.24    0.40
   6   3  -8    6.25    0.45
  -6   3   8    5.59    0.40
  -5  -3   8    0.14    0.08
  -5  -3   8    0.03    0.09
   5  -3  -8    0.12    0.06
  -5   3   8    0.16    0.06
   5   3  -8    0.02    0.08
   5   3  -8    0.05    0.08
   4  -3  -8    0.79    0.11
  -4  -3   8    0.95    0.13
  -4  -3   8    0.90    0.14
  -4   3   8    0.95    0.11
   4   3  -8    0.80    0.13
  -4   3   8    1.11    0.08
   4   3  -8    0.96    0.12
  -3  -3   8   22.71    1.51
  -3  -3   8   23.08    1.51
  -3   3   8   20.90    1.16
   3   3  -8   21.01    1.18
  -3   3   8   22.43    1.49
   3   3  -8   22.76    1.51
  -2  -3   8   14.52    1.18
   2  -3  -8   18.30    1.17
  -2  -3   8   15.87    1.17
  -2   3   8   18.74    1.17
   2   3  -8   18.21    0.92
  -2   3   8   17.62    0.91
   2   3  -8   16.74    1.18
   1  -3  -8   15.68    1.04
  -1  -3   8   14.39    1.05
  -1  -3   8   15.62    1.05
   1   3  -8   15.57    1.05
  -1   3   8   14.61    0.81
   1   3  -8   15.13    0.81
   0  -3   8    0.11    0.07
   0  -3   8    0.12    0.08
   0  -3  -8    0.19    0.08
   0   3   8    0.15    0.06
   0   3  -8    0.18    0.09
   0   3   8    0.09    0.06
   0   3  -8    0.13    0.05
   1  -3   8   26.02    2.09
  -1  -3  -8   33.65    2.10
  -1   3  -8   29.97    2.10
  -1   3  -8   32.41    1.62
   1   3   8   32.02    1.64
   1   3   8   32.57    2.10
   2  -3   8   61.19    4.12
  -2  -3  -8   68.03    4.13
   2   3   8   62.44    3.23
  -2   3  -8   52.82    4.11
  -2   3  -8   64.54    3.20
   3  -3   8    7.52    0.56
  -3  -3  -8    8.09    0.57
   3   3   8    6.86    0.45
  -3   3  -8    7.85    0.56
   4  -3   8    0.70    0.12
  -4  -3  -8    0.53    0.14
   4   3   8    0.62    0.11
  -4   3  -8    0.53    0.12
  -5  -3  -8    9.88    0.77
   5  -3   8   11.30    0.76
  -5   3  -8   10.75    0.76
   5   3   8   10.20    0.61
  -6  -3  -8    0.10    0.13
  -6   3  -8    0.14    0.10
   6   3   8   -0.05    0.09
  -7  -3  -8    0.54    0.16
   7   3   8    0.50    0.12
  -7   3  -8    0.61    0.12
  -8  -4   8    0.06    0.12
   8  -4  -8   -0.02    0.11
   8   4  -8    0.09    0.12
  -7  -4   8    0.44    0.12
   7   4  -8    0.59    0.13
  -6  -4   8    6.40    0.50
   6   4  -8    6.47    0.50
   6   4  -8    5.71    0.40
  -5  -4   8    5.19    0.42
  -5  -4   8    5.30    0.40
   5  -4  -8    4.96    0.37
   5   4  -8    5.31    0.33
   5   4  -8    4.76    0.41
  -5   4   8    4.91    0.37
   4  -4  -8    2.61    0.22
  -4  -4   8    2.59    0.26
   4   4  -8    2.93    0.27
  -4   4   8    2.55    0.22
   4   4  -8    2.62    0.21
  -3  -4   8    0.40    0.12
   3  -4  -8    0.48    0.10
  -3   4   8    0.56    0.06
  -3   4   8    0.42    0.08
   3   4  -8    0.29    0.09
   3   4  -8    0.36    0.11
   2  -4  -8    2.96    0.26
  -2  -4   8    2.94    0.28
  -2   4   8    2.84    0.19
  -2   4   8    2.56    0.25
   2   4  -8    2.63    0.20
   2   4  -8    3.56    0.28
  -1  -4   8   45.82    3.01
   1  -4  -8   45.56    3.00
   1   4  -8   45.96    2.35
  -1   4   8   44.61    2.35
  -1   4   8   37.91    2.99
   1   4  -8   49.47    3.02
   0  -4  -8   90.65    5.77
   0  -4   8   89.89    5.77
   0   4  -8   86.73    4.50
   0   4   8   84.95    4.52
   0   4   8   89.00    5.77
   0   4  -8   79.58    5.77
   1  -4   8    1.70    0.19
  -1  -4  -8    1.17    0.17
   1   4   8    1.22    0.14
  -1   4  -8    1.84    0.20
  -1   4  -8    1.26    0.11
  -2  -4  -8   -0.16    0.09
   2  -4   8   -0.12    0.10
   2   4   8   -0.24    0.07
  -2   4  -8   -0.09    0.10
  -2   4  -8   -0.01    0.02
  -3  -4  -8    6.23    0.48
   3  -4   8    6.40    0.47
   3   4   8    5.48    0.37
  -3   4  -8    6.10    0.46
  -4  -4  -8    0.56    0.14
   4  -4   8    0.44    0.11
  -4   4  -8    0.39    0.10
   4   4   8    0.49    0.11
  -5  -4  -8    0.23    0.14
  -5   4  -8    0.23    0.10
   5   4   8    0.43    0.11
  -6  -4  -8    1.40    0.21
  -6   4  -8    1.93    0.21
   6   4   8    1.60    0.18
  -7  -4  -8    0.82    0.18
   7   4   8    1.06    0.16
  -7   4  -8    0.83    0.14
  -7  -5   8    0.03    0.12
   7   5  -8    0.08    0.11
  -6  -5   8    0.05    0.12
   6   5  -8    0.08    0.11
  -5  -5   8    0.11    0.12
   5   5  -8    0.00    0.10
   5   5  -8    0.17    0.12
  -4  -5   8    0.18    0.12
   4  -5  -8    0.24    0.09
   4   5  -8    0.29    0.13
   4   5  -8    0.26    0.11
  -3  -5   8   16.53    1.10
   3  -5  -8   15.01    1.07
   3   5  -8   14.85    0.85
   3   5  -8   15.71    1.09
   2  -5  -8    5.96    0.50
  -2  -5   8    6.59    0.51
  -2   5   8    7.07    0.50
   2   5  -8    6.76    0.51
   2   5  -8    6.91    0.40
  -1  -5   8    8.74    0.70
   1  -5  -8    9.88    0.70
  -1   5   8   10.37    0.69
   1   5  -8    9.52    0.53
   1   5  -8    8.88    0.70
  -1   5   8    9.53    0.54
   0  -5  -8   -0.04    0.09
   0  -5   8    0.03    0.10
   0   5  -8    0.15    0.06
   0   5  -8    0.05    0.10
   0   5   8    0.12    0.08
  -1  -5  -8    1.25    0.19
   1  -5   8    1.90    0.21
  -1   5  -8    1.73    0.12
  -1   5  -8    2.01    0.22
   1   5   8    1.62    0.16
   2  -5   8    0.51    0.12
  -2  -5  -8    0.56    0.13
  -2   5  -8    0.53    0.12
   2   5   8    0.39    0.10
  -3  -5  -8    0.04    0.12
   3  -5   8    0.05    0.11
  -3   5  -8    0.08    0.11
   3   5   8   -0.02    0.09
   4  -5   8    2.97    0.28
  -4  -5  -8    3.39    0.33
  -4   5  -8    2.90    0.28
   4   5   8    3.35    0.26
  -5  -5  -8    0.74    0.17
  -5   5  -8    0.81    0.14
   5   5   8    0.58    0.14
  -6  -5  -8   -0.05    0.16
  -6   5  -8    0.08    0.09
   6   5   8    0.13    0.11
   7   6  -8    1.17    0.17
  -6  -6   8    1.89    0.24
   6   6  -8    1.95    0.20
  -5  -6   8    0.52    0.16
   5   6  -8    0.50    0.12
  -4  -6   8    4.31    0.41
   4   6  -8    4.15    0.31
   4   6  -8    4.90    0.41
  -3  -6   8    5.39    0.46
   3  -6  -8    5.31    0.43
   3   6  -8    5.81    0.47
   3   6  -8    5.08    0.35
   2  -6  -8    0.88    0.15
  -2  -6   8    0.67    0.16
   2   6  -8    0.57    0.15
  -2   6   8    0.81    0.14
   2   6  -8    0.92    0.12
   1  -6  -8    4.66    0.39
  -1  -6   8    4.18    0.39
   1   6  -8    4.62    0.28
   1   6  -8    4.09    0.39
  -1   6   8    4.87    0.38
   0  -6   8   19.52    1.38
   0  -6  -8   22.01    1.38
   0   6  -8   21.21    1.06
   0   6  -8   16.33    1.37
  -1  -6  -8    1.11    0.17
   1  -6   8    1.22    0.18
  -1   6  -8    1.07    0.17
  -1   6  -8    1.25    0.11
   2  -6   8    5.81    0.47
  -2  -6  -8    5.45    0.47
  -2   6  -8    5.87    0.47
   3  -6   8    0.11    0.12
  -3  -6  -8   -0.01    0.12
  -3   6  -8   -0.02    0.12
  -4  -6  -8    0.78    0.17
  -4   6  -8    0.74    0.15
  -5  -6  -8    0.80    0.18
  -5   6  -8    0.53    0.13
  -5  -7   8    0.05    0.14
   5   7  -8    0.11    0.11
  -4  -7   8    0.00    0.14
   4   7  -8    0.16    0.12
  -3  -7   8    4.08    0.40
   3   7  -8    4.67    0.41
   3   7  -8    3.81    0.29
   2  -7  -8    6.39    0.49
  -2  -7   8    5.97    0.51
   2   7  -8    5.90    0.38
   2   7  -8    5.92    0.51
  -1  -7   8    1.28    0.20
   1  -7  -8    1.28    0.18
   1   7  -8    1.19    0.13
   1   7  -8    1.24    0.20
   0  -7   8    0.04    0.12
   0  -7  -8    0.18    0.12
   0   7  -8    0.13    0.07
   0   7  -8    0.12    0.13
   1  -7   8    1.27    0.19
  -1  -7  -8    1.10    0.19
  -1   7  -8    1.49    0.20
  -1   7  -8    1.38    0.12
  -2  -7  -8    6.17    0.55
   2  -7   8    6.75    0.54
  -2   7  -8    7.24    0.54
  -3  -7  -8    1.46    0.22
  -3   7  -8    1.42    0.21
  -4  -7  -8    1.29    0.22
  -4   7  -8    1.32    0.19
  -4  -8   8    0.24    0.16
   4   8  -8    0.36    0.13
  -3  -8   8    0.32    0.16
   3   8  -8   -0.04    0.11
  -2  -8   8    0.15    0.15
   2   8  -8    0.09    0.09
  -1  -8   8    0.75    0.18
   1  -8  -8    0.59    0.15
   1   8  -8    0.71    0.11
   0  -8  -8    1.05    0.19
   0  -8   8    0.96    0.19
   0   8  -8    1.02    0.20
  -1  -8  -8    0.74    0.18
   1  -8   8    0.75    0.17
  -1   8  -8    0.77    0.17
  -2  -8  -8    6.07    0.50
  -2   8  -8    4.99    0.46
   9   0  -9   -0.08    0.12
  -8   0   9    0.07    0.07
   8   0  -9    0.01    0.12
  -7   0   9    0.15    0.09
   7   0  -9    0.35    0.12
   6   0  -9    0.28    0.10
  -6   0   9    0.11    0.08
  -6   0   9    0.18    0.08
   6   0  -9    0.11    0.08
  -5   0   9    0.10    0.08
   5   0  -9    0.14    0.08
  -5   0   9    0.07    0.08
   4   0  -9    0.25    0.09
  -4   0   9    0.21    0.09
   3   0  -9   -0.09    0.06
  -3   0   9   -0.04    0.06
  -2   0   9   -0.01    0.06
   2   0  -9    0.00    0.06
  -1   0   9    0.06    0.06
   1   0  -9   -0.04    0.06
   0   0   9   -0.02    0.06
   0   0  -9   -0.07    0.07
  -1   0  -9    0.00    0.07
   1   0   9   -0.11    0.06
  -2   0  -9    0.01    0.04
  -2   0  -9   -0.12    0.08
  -3   0  -9   -0.02    0.09
  -3   0  -9   -0.02    0.04
  -4   0  -9   -0.11    0.08
   4   0   9   -0.12    0.07
  -4   0  -9   -0.03    0.04
  -5   0  -9   -0.15    0.09
   5   0   9   -0.05    0.08
  -6   0  -9    0.05    0.10
   6   0   9   -0.04    0.11
   7   0   9    0.03    0.10
  -7   0  -9    0.18    0.12
   9  -1  -9    1.42    0.17
  -9  -1   9    1.23    0.15
   9   1  -9    1.37    0.19
  -8  -1   9    0.89    0.13
   8  -1  -9    1.05    0.16
   8   1  -9    0.88    0.15
  -8   1   9    1.02    0.11
  -7  -1   9    4.21    0.33
   7  -1  -9    4.10    0.29
   7   1  -9    3.72    0.30
  -7   1   9    3.99    0.31
  -6  -1   9    0.20    0.10
  -6  -1   9    0.13    0.09
   6  -1  -9    0.32    0.08
   6  -1  -9    0.25    0.10
   6   1  -9    0.29    0.11
  -6   1   9    0.30    0.08
   6   1  -9    0.24    0.10
  -6   1   9    0.28    0.07
  -5  -1   9    0.08    0.07
   5  -1  -9   -0.09    0.06
  -5  -1   9   -0.06    0.09
  -5   1   9    0.04    0.06
   5   1  -9    0.09    0.09
  -5   1   9    0.01    0.07
   5   1  -9   -0.13    0.08
  -4  -1   9   10.63    0.73
  -4  -1   9   10.87    0.74
   4  -1  -9    9.50    0.73
  -4   1   9   10.61    0.73
   4   1  -9   11.05    0.74
   4   1  -9   10.18    0.59
   3  -1  -9   36.09    2.16
  -3  -1   9   30.92    2.16
  -3  -1   9   31.89    2.16
   3   1  -9   33.37    1.70
   3   1  -9   28.47    2.16
  -2  -1   9    3.20    0.25
   2  -1  -9    2.60    0.24
  -2   1   9    3.12    0.25
   2   1  -9    2.87    0.25
   1  -1  -9    3.18    0.26
   1   1  -9    2.86    0.25
  -1   1   9    3.06    0.25
   0  -1  -9   15.70    1.25
   0  -1   9   20.24    1.26
   0   1   9   19.47    1.26
   1  -1   9    3.18    0.26
  -1  -1  -9    2.92    0.27
   1   1   9    3.13    0.25
  -1   1  -9    3.33    0.27
  -2  -1  -9    6.36    0.36
  -2  -1  -9    6.58    0.48
  -2   1  -9    6.68    0.49
   2   1   9    6.30    0.38
  -3  -1  -9   12.35    0.87
  -3  -1  -9   12.40    0.66
  -3   1  -9   11.81    0.65
   3   1   9   11.83    0.68
  -3   1  -9   13.28    0.87
  -4  -1  -9    1.76    0.14
  -4  -1  -9    1.96    0.21
  -4   1  -9    1.75    0.11
   4   1   9    1.55    0.16
  -4   1  -9    1.67    0.21
  -5  -1  -9    3.79    0.32
  -5  -1  -9    3.47    0.22
   5   1   9    3.55    0.26
  -5   1  -9    3.17    0.30
  -6  -1  -9    7.30    0.55
   6  -1   9    6.95    0.43
  -6   1  -9    6.96    0.53
   6   1   9    6.66    0.43
   7  -1   9    1.33    0.16
  -7  -1  -9    1.15    0.18
  -7   1  -9    1.32    0.18
   7   1   9    1.33    0.17
   9  -2  -9    2.84    0.27
  -9  -2   9    2.56    0.26
   9   2  -9    2.22    0.25
   8  -2  -9    0.25    0.12
  -8  -2   9    0.13    0.11
   8   2  -9    0.30    0.13
   7  -2  -9    0.18    0.11
  -7  -2   9    0.15    0.10
   7   2  -9   -0.06    0.11
  -7   2   9    0.21    0.06
  -6  -2   9    0.83    0.14
  -6  -2   9    1.21    0.14
   6   2  -9    0.73    0.13
   6   2  -9    1.02    0.14
  -6   2   9    0.94    0.11
  -5  -2   9    1.64    0.21
   5  -2  -9    1.75    0.16
  -5  -2   9    1.51    0.17
   5   2  -9    1.45    0.15
   5   2  -9    1.69    0.20
  -5   2   9    1.59    0.10
  -5   2   9    1.62    0.16
   4  -2  -9    4.81    0.34
  -4  -2   9    4.60    0.35
  -4  -2   9    4.41    0.36
  -4   2   9    4.36    0.33
   4   2  -9    4.27    0.35
  -4   2   9    4.19    0.25
   4   2  -9    4.06    0.29
  -3  -2   9    4.41    0.37
  -3  -2   9    4.10    0.36
   3  -2  -9    5.16    0.37
  -3   2   9    4.90    0.36
  -3   2   9    4.85    0.27
   3   2  -9    4.82    0.29
  -2  -2   9   37.68    2.58
   2  -2  -9   37.93    2.57
  -2  -2   9   39.11    2.57
  -2   2   9   37.38    2.01
   2   2  -9   38.20    2.01
  -2   2   9   39.88    2.57
  -1  -2   9   23.70    1.47
   1  -2  -9   17.65    1.46
  -1   2   9   22.19    1.14
   1   2  -9   21.70    1.14
   1   2  -9   22.59    1.47
   0  -2   9   -0.07    0.07
   0  -2  -9   -0.10    0.07
   0  -2   9   -0.03    0.05
   0   2   9   -0.03    0.05
   0   2   9    0.03    0.05
   0   2  -9    0.03    0.08
   0   2  -9   -0.01    0.05
  -1  -2  -9   24.31    1.59
   1   2   9   23.12    1.58
  -1   2  -9   23.06    1.22
  -1   2  -9   23.79    1.58
   1   2   9   22.17    1.24
  -2  -2  -9    3.21    0.20
  -2  -2  -9    3.33    0.29
   2   2   9    3.29    0.23
  -2   2  -9    3.22    0.28
  -2   2  -9    2.87    0.18
  -3  -2  -9   20.36    1.59
  -3   2  -9   23.98    1.21
  -3   2  -9   24.33    1.21
  -3   2  -9   22.59    1.58
   3   2   9   24.70    1.25
  -4  -2  -9   38.52    2.42
   4   2   9   36.75    1.90
  -4   2  -9   31.97    2.40
  -5  -2  -9    2.09    0.24
   5   2   9    1.79    0.18
  -5   2  -9    1.91    0.23
  -6  -2  -9    0.44    0.13
   6   2   9    0.41    0.12
  -6   2  -9    0.44    0.13
  -7  -2  -9    1.33    0.19
   7  -2   9    1.22    0.15
   7   2   9    1.28    0.17
  -7   2  -9    1.53    0.18
  -8  -3   9    1.34    0.18
   8  -3  -9    1.31    0.16
   8   3  -9    1.15    0.17
  -7  -3   9    0.71    0.15
   7   3  -9    0.56    0.13
  -7   3   9    0.70    0.09
  -6  -3   9    0.83    0.15
   6   3  -9    0.74    0.13
  -6   3   9    0.73    0.10
   6   3  -9    0.91    0.14
  -5  -3   9    0.29    0.09
  -5  -3   9    0.14    0.11
   5  -3  -9    0.27    0.08
  -5   3   9    0.25    0.07
   5   3  -9    0.25    0.12
   5   3  -9    0.20    0.10
   4  -3  -9    6.12    0.51
  -4  -3   9    7.08    0.54
  -4  -3   9    8.06    0.54
   4   3  -9    5.92    0.53
  -4   3   9    7.85    0.52
  -4   3   9    8.05    0.40
   4   3  -9    7.53    0.44
  -3  -3   9    0.15    0.09
  -3  -3   9    0.06    0.09
   3  -3  -9    0.22    0.08
   3   3  -9    0.13    0.09
  -3   3   9    0.16    0.07
   3   3  -9   -0.09    0.08
  -3   3   9    0.25    0.06
  -2  -3   9    1.51    0.18
  -2  -3   9    1.86    0.21
   2  -3  -9    1.50    0.18
   2   3  -9    1.60    0.14
  -2   3   9    2.06    0.14
  -2   3   9    1.64    0.19
   2   3  -9    1.60    0.20
  -1  -3   9   13.14    0.90
   1  -3  -9   10.62    0.88
  -1   3   9   12.32    0.69
   1   3  -9   12.31    0.69
  -1   3   9   13.77    0.89
   1   3  -9   14.08    0.90
   0  -3   9    4.89    0.39
   0  -3  -9    4.87    0.38
   0   3   9    4.72    0.38
   0   3  -9    4.65    0.28
   0   3   9    4.29    0.29
   0   3  -9    5.31    0.40
   1  -3   9   52.13    3.40
  -1  -3  -9   53.35    3.40
  -1   3  -9   49.48    2.64
  -1   3  -9   50.36    3.39
   1   3   9   48.33    2.66
  -2  -3  -9   30.22    1.97
   2  -3   9   29.82    1.96
  -2   3  -9   28.44    1.50
  -2   3  -9   28.05    1.96
   2   3   9   28.18    1.54
   3  -3   9    6.14    0.47
  -3  -3  -9    6.45    0.48
  -3   3  -9    5.83    0.47
   3   3   9    6.07    0.38
  -4  -3  -9    0.53    0.14
   4  -3   9    0.90    0.14
  -4   3  -9    0.52    0.12
   4   3   9    0.60    0.12
  -5  -3  -9    0.90    0.16
   5  -3   9    1.09    0.16
  -5   3  -9    1.06    0.16
   5   3   9    0.92    0.14
  -6  -3  -9    0.24    0.12
  -6   3  -9    0.22    0.11
   6   3   9    0.16    0.11
  -7  -3  -9    0.07    0.12
   7  -3   9    0.01    0.09
  -7   3  -9   -0.05    0.11
   7   3   9    0.15    0.11
   8  -4  -9    0.16    0.12
  -8  -4   9    0.07    0.12
   8   4  -9   -0.13    0.11
  -7  -4   9    0.34    0.12
   7   4  -9    0.43    0.14
  -6  -4   9    3.10    0.32
   6   4  -9    3.61    0.32
   6   4  -9    3.47    0.27
  -5  -4   9    2.90    0.29
   5   4  -9    2.58    0.28
   5   4  -9    3.23    0.25
   4  -4  -9    6.47    0.47
  -4  -4   9    6.86    0.51
   4   4  -9    6.86    0.51
  -4   4   9    5.86    0.47
   4   4  -9    6.50    0.40
   3  -4  -9   14.59    0.99
  -3  -4   9   14.07    1.01
  -3   4   9   13.80    0.76
   3   4  -9   14.88    1.01
   3   4  -9   14.03    0.79
  -2  -4   9   12.36    0.85
   2  -4  -9   11.14    0.83
   2   4  -9   11.77    0.65
  -2   4   9   11.65    0.83
  -2   4   9   11.71    0.64
   2   4  -9   12.01    0.85
   1  -4  -9    9.00    0.61
  -1  -4   9    7.68    0.62
  -1   4   9    9.16    0.61
  -1   4   9    8.87    0.47
   1   4  -9    8.48    0.47
   1   4  -9    6.58    0.61
   0  -4   9   24.26    1.58
   0   4   9   22.06    1.23
   0   4   9   23.36    1.58
   0   4  -9   22.69    1.58
   0   4  -9   22.88    1.22
  -1  -4  -9    9.97    0.72
   1  -4   9   10.06    0.71
  -1   4  -9    9.47    0.52
  -1   4  -9    9.96    0.71
   1   4   9    9.28    0.56
   2  -4   9    4.61    0.36
  -2  -4  -9    4.28    0.37
  -2   4  -9    4.29    0.36
   2   4   9    4.03    0.29
  -2   4  -9    4.14    0.23
   3  -4   9    0.98    0.15
  -3  -4  -9    0.84    0.16
   3   4   9    1.01    0.13
  -3   4  -9    0.86    0.14
  -4  -4  -9   12.40    0.87
   4  -4   9   11.34    0.84
  -4   4  -9   12.08    0.85
   4   4   9   11.43    0.68
  -5  -4  -9    0.92    0.18
   5   4   9    0.96    0.14
  -5   4  -9    0.82    0.15
  -6  -4  -9    0.50    0.17
   6   4   9    0.45    0.13
  -6   4  -9    0.66    0.13
  -7  -5   9   -0.08    0.11
   7   5  -9    0.12    0.12
  -6  -5   9   -0.01    0.13
   6   5  -9   -0.17    0.10
  -5  -5   9    6.17    0.52
   5   5  -9    6.72    0.53
   5   5  -9    6.60    0.42
  -4  -5   9   38.26    2.70
   4   5  -9   41.40    2.70
   4   5  -9   39.70    2.11
   3  -5  -9    0.25    0.09
  -3   5   9    0.28    0.10
   3   5  -9    0.47    0.14
  -2  -5   9   39.53    3.25
   2  -5  -9   52.30    3.25
  -2   5   9   49.94    2.54
   2   5  -9   48.86    2.54
  -2   5   9   51.33    3.25
  -1  -5   9    1.35    0.18
   1  -5  -9    1.07    0.16
  -1   5   9    1.23    0.13
  -1   5   9    1.14    0.16
   1   5  -9    1.22    0.12
   1   5  -9    1.24    0.18
   0  -5  -9    2.63    0.26
   0  -5   9    2.06    0.25
   0   5  -9    2.31    0.16
   0   5   9    2.45    0.19
   0   5  -9    2.39    0.26
  -1  -5  -9    7.96    0.59
   1  -5   9    7.86    0.59
  -1   5  -9    7.82    0.43
  -1   5  -9    7.65    0.59
   1   5   9    7.58    0.46
   2  -5   9   15.63    1.04
  -2  -5  -9   12.94    1.04
   2   5   9   15.61    0.82
  -2   5  -9   15.45    0.76
  -2   5  -9   13.15    1.03
  -3  -5  -9    1.67    0.22
   3  -5   9    1.54    0.20
   3   5   9    1.37    0.16
  -3   5  -9    1.35    0.20
  -4  -5  -9    0.27    0.14
   4   5   9    0.17    0.11
  -4   5  -9    0.20    0.11
  -5  -5  -9    0.01    0.13
  -5   5  -9    0.11    0.12
   5   5   9    0.14    0.11
  -6  -5  -9    3.49    0.39
   6   5   9    3.63    0.30
  -6   5  -9    3.78    0.34
  -6  -6   9    4.03    0.41
   6   6  -9    3.99    0.31
  -5  -6   9    1.87    0.24
   5   6  -9    1.73    0.23
   5   6  -9    1.63    0.18
  -4  -6   9    6.73    0.57
   4   6  -9    6.62    0.44
   4   6  -9    7.70    0.57
   3  -6  -9   -0.06    0.10
  -3  -6   9   -0.05    0.12
   3   6  -9   -0.04    0.09
   3   6  -9    0.03    0.13
   2  -6  -9    3.15    0.32
  -2  -6   9    3.78    0.33
   2   6  -9    3.59    0.25
   2   6  -9    4.00    0.36
   1  -6  -9    5.87    0.52
  -1  -6   9    7.33    0.55
   1   6  -9    7.07    0.40
   1   6  -9    6.91    0.54
   0  -6   9    0.51    0.14
   0  -6  -9    0.31    0.12
   0   6  -9    0.43    0.08
   0   6  -9    0.60    0.15
   1  -6   9    0.37    0.13
  -1  -6  -9    0.55    0.14
  -1   6  -9    0.44    0.14
   1   6   9    0.43    0.11
  -1   6  -9    0.51    0.07
  -2  -6  -9    1.44    0.21
   2  -6   9    1.48    0.20
  -2   6  -9    1.57    0.20
   2   6   9    1.35    0.16
  -3  -6  -9    0.25    0.14
   3  -6   9    0.34    0.12
   3   6   9    0.44    0.12
  -3   6  -9    0.32    0.12
  -4  -6  -9    2.15    0.27
  -4   6  -9    2.47    0.26
  -5  -6  -9    0.07    0.15
  -5   6  -9   -0.06    0.12
  -5  -7   9    0.62    0.18
   5   7  -9    0.46    0.13
  -4  -7   9    0.22    0.15
   4   7  -9    0.26    0.11
  -3  -7   9   -0.10    0.13
   3   7  -9    0.12    0.10
   3   7  -9    0.18    0.14
   2  -7  -9    2.29    0.25
  -2  -7   9    2.03    0.26
   2   7  -9    1.78    0.18
   2   7  -9    2.44    0.29
  -1  -7   9    0.27    0.14
   1  -7  -9    0.22    0.12
   1   7  -9    0.02    0.13
   1   7  -9    0.25    0.08
   0  -7   9    0.36    0.16
   0  -7  -9    0.21    0.12
   0   7  -9    0.09    0.13
   0   7  -9    0.16    0.07
   1  -7   9    0.17    0.13
  -1  -7  -9    0.26    0.14
  -1   7  -9    0.07    0.13
  -2  -7  -9    0.36    0.15
   2  -7   9    0.13    0.12
  -2   7  -9   -0.06    0.12
  -3  -7  -9    0.00    0.14
  -3   7  -9   -0.03    0.12
  -3  -8   9    0.74    0.20
   3   8  -9    0.92    0.14
  -2  -8   9    1.98    0.27
   2   8  -9    2.33    0.21
   2   8  -9    1.99    0.27
  -1  -8   9    0.54    0.17
   1   8  -9    0.51    0.10
   1   8  -9    0.47    0.17
   0  -8   9    0.20    0.14
   0  -8  -9    0.24    0.14
   0   8  -9    0.18    0.16
  -1  -8  -9    0.08    0.16
   1  -8   9    0.06    0.13
  -1   8  -9   -0.03    0.13
   9   0 -10   -0.09    0.11
   8   0 -10    1.29    0.16
  -8   0  10    0.87    0.13
  -7   0  10   33.31    2.30
   7   0 -10   35.33    1.84
   6   0 -10   17.04    0.87
  -6   0  10   15.46    1.06
   6   0 -10   13.82    1.06
  -5   0  10   95.96    6.45
   5   0 -10   93.42    5.07
  -5   0  10   97.14    6.45
   5   0 -10  102.24    6.45
  -4   0  10    0.00    0.08
   4   0 -10   -0.01    0.09
  -4   0  10    0.02    0.09
  -3   0  10    4.04    0.32
   3   0 -10    4.20    0.33
  -2   0  10    1.05    0.13
   2   0 -10    0.86    0.13
  -1   0  10   85.21    5.07
   1   0 -10   67.15    5.06
   0   0 -10    3.54    0.31
   0   0  10    3.75    0.30
  -1   0 -10   31.82    2.15
  -2   0 -10   17.76    0.91
  -2   0 -10   16.52    1.19
  -3   0 -10   -0.21    0.08
  -3   0 -10    0.00    0.04
   4   0  10    1.70    0.17
  -4   0 -10    1.58    0.20
  -4   0 -10    1.66    0.12
  -5   0 -10    2.25    0.25
   5   0  10    1.68    0.18
  -6   0 -10    4.21    0.37
   6   0  10    4.37    0.31
  -7   0 -10    0.69    0.16
   7   0  10    0.57    0.14
   8  -1 -10    1.76    0.19
  -8  -1  10    1.96    0.22
  -8   1  10    2.08    0.18
   8   1 -10    1.69    0.20
  -7  -1  10    5.39    0.43
   7  -1 -10    5.17    0.37
   7   1 -10    5.41    0.37
  -7   1  10    5.92    0.42
   6  -1 -10    0.00    0.10
  -6  -1  10    0.14    0.10
  -6   1  10    0.24    0.09
   6   1 -10    0.32    0.12
   6   1 -10    0.24    0.10
  -5  -1  10   15.25    0.99
  -5  -1  10   13.34    0.98
   5  -1 -10   15.03    0.98
   5   1 -10   11.92    0.98
  -5   1  10   13.79    0.98
   5   1 -10   14.58    0.79
  -5   1  10   15.09    0.98
   4  -1 -10    8.21    0.58
  -4  -1  10    6.71    0.57
  -4  -1  10    8.27    0.58
  -4   1  10    7.84    0.57
   4   1 -10    8.32    0.58
   4   1 -10    8.45    0.47
  -3  -1  10   13.34    0.94
   3  -1 -10   13.26    0.93
  -3  -1  10   13.93    0.94
   3   1 -10   12.93    0.74
   3   1 -10   14.28    0.94
  -3   1  10   12.82    0.93
   2  -1 -10    6.38    0.46
  -2  -1  10    5.79    0.46
   2   1 -10    6.15    0.46
  -2   1  10    6.20    0.46
   1  -1 -10    2.47    0.22
  -1  -1  10    2.00    0.21
   1   1 -10    2.35    0.22
  -1   1  10    1.99    0.21
   0  -1 -10   11.60    0.80
   0   1 -10   11.00    0.80
  -1  -1 -10    4.19    0.38
  -1   1 -10    5.69    0.40
  -2  -1 -10    1.98    0.14
  -2  -1 -10    1.75    0.19
   2   1  10    1.71    0.17
  -2   1 -10    1.65    0.21
  -3  -1 -10    0.05    0.05
  -3  -1 -10   -0.18    0.09
  -3   1 -10    0.00    0.09
  -3   1 -10   -0.01    0.03
   3   1  10   -0.11    0.08
  -4  -1 -10    1.13    0.18
  -4  -1 -10    1.20    0.12
   4   1  10    1.31    0.15
  -4   1 -10    1.52    0.18
  -4   1 -10    1.50    0.10
  -5  -1 -10    0.75    0.15
   5   1  10    0.87    0.13
  -5   1 -10    0.77    0.16
  -6  -1 -10    5.70    0.48
   6  -1  10    5.93    0.39
  -6   1 -10    5.95    0.49
   6   1  10    6.63    0.40
  -7  -1 -10    0.06    0.13
   7  -1  10    0.30    0.11
   7   1  10    0.24    0.11
  -7   1 -10    0.15    0.13
   8  -2 -10    0.05    0.12
  -8  -2  10    0.14    0.11
   8   2 -10   -0.09    0.12
  -7  -2  10    0.25    0.11
   7  -2 -10    0.31    0.11
  -7   2  10    0.18    0.07
   7   2 -10    0.02    0.13
  -6  -2  10    0.00    0.10
   6   2 -10    0.01    0.10
   6   2 -10    0.00    0.10
  -6   2  10    0.00    0.07
   5  -2 -10    2.96    0.25
  -5  -2  10    3.07    0.28
  -5  -2  10    2.63    0.26
   5   2 -10    3.10    0.28
  -5   2  10    3.06    0.25
  -5   2  10    3.12    0.18
   5   2 -10    3.03    0.25
  -4  -2  10    1.79    0.20
   4  -2 -10    1.60    0.19
  -4  -2  10    1.60    0.19
  -4   2  10    1.45    0.17
   4   2 -10    1.51    0.16
   4   2 -10    1.64    0.20
  -4   2  10    1.94    0.13
  -3  -2  10   31.29    2.28
  -3  -2  10   32.74    2.27
   3  -2 -10   34.06    2.27
  -3   2  10   35.59    2.27
  -3   2  10   34.33    1.77
   3   2 -10   35.25    2.28
   3   2 -10   33.16    1.79
   2  -2 -10    5.00    0.42
  -2  -2  10    6.20    0.44
  -2  -2  10    5.73    0.42
  -2   2  10    4.40    0.41
   2   2 -10    6.48    0.44
  -2   2  10    5.76    0.33
   2   2 -10    5.71    0.34
  -1  -2  10   61.94    4.61
  -1   2  10   71.10    3.61
   1   2 -10   74.62    3.61
   0  -2 -10   13.42    0.89
   0   2 -10   12.39    0.69
   0   2 -10   13.00    0.90
   0   2  10   12.12    0.70
  -1  -2 -10   21.81    1.50
  -1   2 -10   21.99    1.15
  -1   2 -10   22.69    1.50
   1   2  10   21.05    1.17
  -2  -2 -10   10.81    0.83
  -2   2 -10   11.18    0.62
   2   2  10   11.90    0.65
  -2   2 -10   12.59    0.83
  -3  -2 -10    4.06    0.33
  -3   2 -10    4.06    0.33
   3   2  10    3.61    0.26
  -3   2 -10    3.36    0.20
  -3   2 -10    3.34    0.20
  -4  -2 -10    8.98    0.71
  -4   2 -10   10.48    0.72
   4   2  10    9.74    0.57
  -5  -2 -10    2.18    0.26
   5   2  10    2.08    0.20
  -5   2 -10    2.23    0.25
  -6  -2 -10    0.38    0.14
  -6   2 -10    0.36    0.12
   6   2  10    0.48    0.12
  -7  -2 -10    0.15    0.12
   7  -2  10   -0.11    0.09
   7   2  10    0.05    0.11
  -7   2 -10   -0.02    0.12
  -8  -3  10    0.46    0.14
   8  -3 -10    0.85    0.16
   8   3 -10    0.73    0.15
  -7  -3  10    1.90    0.23
  -7   3  10    1.86    0.17
   7   3 -10    1.83    0.20
  -6  -3  10    1.46    0.20
   6   3 -10    1.48    0.19
   6   3 -10    1.47    0.17
   5  -3 -10    0.40    0.09
  -5  -3  10    0.29    0.11
  -5  -3  10    0.37    0.12
  -5   3  10    0.36    0.05
   5   3 -10    0.38    0.12
   5   3 -10    0.10    0.09
  -4  -3  10   -0.05    0.08
  -4  -3  10   -0.07    0.09
   4  -3 -10   -0.03    0.06
  -4   3  10   -0.04    0.07
  -4   3  10    0.12    0.05
   4   3 -10   -0.04    0.08
   4   3 -10   -0.02    0.09
   3  -3 -10    0.19    0.09
  -3  -3  10    0.27    0.11
  -3   3  10    0.34    0.07
  -3   3  10    0.21    0.10
   3   3 -10    0.22    0.11
   3   3 -10    0.18    0.09
   2  -3 -10    3.48    0.31
  -2  -3  10    3.35    0.32
  -2   3  10    3.83    0.31
   2   3 -10    3.74    0.33
   2   3 -10    3.77    0.25
  -2   3  10    3.57    0.24
   1  -3 -10    0.25    0.10
  -1  -3  10    0.23    0.12
   1   3 -10    0.23    0.12
  -1   3  10    0.05    0.09
  -1   3  10    0.14    0.07
   1   3 -10    0.01    0.07
   0  -3 -10   80.34    5.20
   0  -3  10   79.19    5.20
   0   3  10   72.26    4.06
   0   3 -10   84.66    5.20
   0   3 -10   73.90    4.05
   1  -3  10   26.87    1.92
  -1  -3 -10   32.12    1.94
  -1   3 -10   29.24    1.48
   1   3  10   29.47    1.51
  -1   3 -10   23.97    1.92
   2  -3  10   30.32    2.16
  -2  -3 -10   33.16    2.17
  -2   3 -10   31.28    1.66
   2   3  10   32.23    1.70
  -2   3 -10   32.87    2.17
   3  -3  10    0.11    0.09
  -3  -3 -10    0.03    0.11
   3   3  10    0.09    0.09
  -3   3 -10   -0.06    0.12
  -4  -3 -10    0.19    0.12
   4  -3  10    0.26    0.12
  -4   3 -10    0.28    0.13
   4   3  10    0.27    0.11
  -5  -3 -10    0.12    0.12
   5   3  10    0.17    0.11
  -5   3 -10    0.20    0.12
  -6  -3 -10    1.12    0.21
  -6   3 -10    1.08    0.18
   6   3  10    1.29    0.17
  -7  -4  10    0.09    0.11
   7   4 -10   -0.01    0.11
  -6  -4  10    1.36    0.21
   6   4 -10    1.40    0.21
   6   4 -10    1.37    0.17
  -5  -4  10    1.97    0.23
   5   4 -10    1.50    0.17
   5   4 -10    1.45    0.22
   4  -4 -10    0.80    0.13
  -4  -4  10    0.75    0.15
   4   4 -10    0.75    0.14
  -4   4  10    1.08    0.09
   4   4 -10    0.71    0.15
   3  -4 -10    3.57    0.31
  -3  -4  10    3.64    0.34
   3   4 -10    3.56    0.26
  -3   4  10    4.02    0.24
   3   4 -10    3.90    0.35
  -3   4  10    3.82    0.32
  -2  -4  10   27.20    1.86
   2  -4 -10   28.39    1.85
  -2   4  10   28.08    1.85
  -2   4  10   27.81    1.44
   2   4 -10   26.38    1.44
   2   4 -10   25.27    1.86
  -1  -4  10    0.01    0.11
   1  -4 -10    0.00    0.10
   1   4 -10    0.04    0.12
  -1   4  10    0.10    0.07
  -1   4  10   -0.06    0.09
   1   4 -10   -0.06    0.07
   0  -4 -10   11.04    0.84
   0  -4  10   12.07    0.85
   0   4 -10   12.27    0.85
   0   4 -10   11.76    0.64
   0   4  10   11.50    0.65
  -1  -4 -10    9.26    0.64
   1  -4  10    7.93    0.64
   1   4  10    9.03    0.50
  -1   4 -10    7.39    0.64
  -1   4 -10    9.17    0.47
  -2  -4 -10    6.01    0.48
   2  -4  10    6.57    0.48
  -2   4 -10    6.07    0.47
  -2   4 -10    5.48    0.31
   2   4  10    5.62    0.37
   3  -4  10   17.81    1.23
  -3  -4 -10   17.94    1.24
   3   4  10   18.18    0.98
  -3   4 -10   16.46    1.22
   4  -4  10    0.14    0.10
  -4  -4 -10    0.25    0.13
  -4   4 -10    0.11    0.10
   4   4  10    0.19    0.11
  -5  -4 -10   -0.04    0.13
   5   4  10   -0.06    0.10
  -5   4 -10   -0.10    0.11
  -6  -4 -10    1.12    0.20
  -6   4 -10    1.14    0.18
   6   4  10    1.18    0.17
  -7  -5  10    0.04    0.14
   7   5 -10    0.00    0.12
  -6  -5  10   -0.01    0.12
   6   5 -10    0.06    0.11
   6   5 -10    0.18    0.13
  -5  -5  10    0.11    0.13
   5   5 -10   -0.03    0.12
   5   5 -10    0.18    0.13
  -4  -5  10    1.35    0.20
   4   5 -10    1.36    0.15
   4   5 -10    1.28    0.20
   3  -5 -10    2.58    0.26
  -3  -5  10    2.72    0.30
   3   5 -10    2.48    0.21
   3   5 -10    2.81    0.30
   2  -5 -10    1.18    0.17
  -2  -5  10    1.15    0.18
  -2   5  10    1.75    0.15
   2   5 -10    1.31    0.14
  -2   5  10    1.25    0.16
   2   5 -10    0.98    0.18
  -1  -5  10    2.39    0.27
   1  -5 -10    2.45    0.25
   1   5 -10    2.46    0.19
   1   5 -10    2.45    0.28
  -1   5  10    2.38    0.19
   0  -5 -10   -0.07    0.10
   0  -5  10    0.31    0.13
   0   5  10   -0.01    0.07
   0   5 -10    0.00    0.06
   0   5 -10    0.11    0.12
  -1  -5 -10    0.68    0.16
   1  -5  10    0.76    0.15
  -1   5 -10    0.65    0.17
   1   5  10    0.76    0.13
  -1   5 -10    0.79    0.08
   2  -5  10    1.28    0.18
  -2  -5 -10    1.12    0.19
  -2   5 -10    1.27    0.18
   2   5  10    1.40    0.15
  -3  -5 -10    4.13    0.37
   3  -5  10    3.42    0.34
   3   5  10    3.88    0.29
  -3   5 -10    3.61    0.34
  -4  -5 -10    0.65    0.17
  -4   5 -10    0.65    0.16
   4   5  10    0.68    0.13
  -5  -5 -10    1.63    0.23
   5   5  10    1.61    0.20
  -5   5 -10    1.27    0.20
  -6  -6  10    0.76    0.19
   6   6 -10    0.98    0.16
  -5  -6  10   -0.07    0.15
   5   6 -10    0.21    0.14
   5   6 -10   -0.02    0.10
  -4  -6  10    0.69    0.17
   4   6 -10    0.80    0.18
   4   6 -10    0.77    0.13
  -3  -6  10    3.47    0.35
   3   6 -10    3.42    0.35
   3   6 -10    3.20    0.26
   2  -6 -10    4.17    0.37
  -2  -6  10    4.54    0.40
   2   6 -10    4.30    0.29
   2   6 -10    4.18    0.38
   1  -6 -10    0.85    0.16
  -1  -6  10    0.84    0.17
   1   6 -10    1.02    0.18
   1   6 -10    0.91    0.11
   0  -6  10    3.52    0.32
   0  -6 -10    2.26    0.30
   0   6  10    2.98    0.24
   0   6 -10    3.57    0.33
   0   6 -10    2.96    0.20
  -1  -6 -10    2.36    0.29
   1  -6  10    2.95    0.29
  -1   6 -10    2.80    0.29
   1   6  10    2.30    0.22
  -2  -6 -10    7.06    0.59
   2  -6  10    7.87    0.60
  -2   6 -10    7.99    0.60
   2   6  10    6.70    0.46
  -3  -6 -10    0.63    0.17
  -3   6 -10    0.33    0.16
   3   6  10    0.49    0.13
  -4  -6 -10    0.99    0.20
   4   6  10    0.86    0.15
  -4   6 -10    0.62    0.16
  -4  -7  10    0.40    0.16
   4   7 -10    0.54    0.17
   4   7 -10    0.58    0.14
  -3  -7  10   -0.17    0.13
   3   7 -10    0.12    0.14
   3   7 -10    0.14    0.09
  -2  -7  10    0.18    0.14
   2   7 -10    0.30    0.10
   2   7 -10    0.29    0.15
  -1  -7  10    1.69    0.24
   1  -7 -10    1.68    0.22
   1   7 -10    1.90    0.25
   1   7 -10    1.92    0.17
   0  -7  10   17.06    1.22
   0  -7 -10   16.04    1.21
   0   7 -10   18.12    1.23
  -1  -7 -10    3.36    0.36
   1  -7  10    3.32    0.35
  -1   7 -10    3.64    0.39
  -2  -7 -10    2.06    0.26
  -2   7 -10    1.81    0.24
  -3  -7 -10    0.30    0.16
  -3   7 -10    0.15    0.13
  -1  -8  10    0.50    0.17
   1   8 -10    0.58    0.19
   8   0 -11    0.06    0.12
  -8   0  11    0.03    0.09
   6   0 -11    0.28    0.11
  -6   0  11    0.11    0.10
  -5   0  11    0.19    0.10
  -5   0  11    0.15    0.08
   5   0 -11    0.11    0.09
   4   0 -11   -0.13    0.09
  -4   0  11   -0.11    0.09
  -4   0  11   -0.12    0.07
  -2   0  11   -0.18    0.07
   2   0 -11   -0.14    0.08
  -1   0  11   -0.11    0.07
   1   0 -11   -0.02    0.08
   0   0 -11    0.00    0.07
  -1   0 -11   -0.08    0.09
  -2   0 -11    0.03    0.04
  -2   0 -11   -0.03    0.10
  -3   0 -11   -0.03    0.04
  -3   0 -11    0.03    0.12
   4   0  11    0.05    0.11
  -4   0 -11   -0.06    0.10
  -5   0 -11   -0.05    0.13
   5   0  11    0.12    0.10
   6   0  11    0.08    0.10
  -6   0 -11    0.02    0.11
   8  -1 -11   -0.16    0.12
  -8  -1  11   -0.11    0.09
   8   1 -11    0.13    0.14
  -8   1  11    0.05    0.07
   7  -1 -11    2.14    0.22
  -7  -1  11    2.57    0.26
   7   1 -11    2.51    0.24
  -7   1  11    2.06    0.23
  -6  -1  11    0.48    0.12
   6  -1 -11    0.34    0.13
   6   1 -11    0.59    0.12
  -6   1  11    0.42    0.11
   6   1 -11    0.58    0.13
  -5  -1  11   31.21    2.16
  -5  -1  11   30.14    2.15
   5  -1 -11   34.89    2.16
  -5   1  11   34.43    2.15
   5   1 -11   34.04    1.71
   5   1 -11   27.27    2.15
  -5   1  11   31.81    2.15
  -4  -1  11    6.33    0.51
   4  -1 -11    6.36    0.50
  -4  -1  11    6.82    0.50
   4   1 -11    7.35    0.52
   4   1 -11    6.16    0.40
   3  -1 -11   60.99    4.09
  -3  -1  11   54.95    4.09
  -3  -1  11   62.91    4.09
   3   1 -11   61.21    3.21
  -3   1  11   66.69    4.09
   2  -1 -11    2.62    0.26
  -2  -1  11    2.78    0.26
   2   1 -11    3.09    0.27
  -2   1  11    2.79    0.25
   1  -1 -11   -0.10    0.08
  -1   1  11    0.02    0.08
   1   1 -11   -0.17    0.09
   0  -1 -11    0.76    0.13
   0   1 -11    0.70    0.14
  -1  -1 -11    2.65    0.26
  -1   1 -11    2.41    0.26
  -2  -1 -11    0.98    0.15
  -2   1 -11    0.80    0.15
   2   1  11    0.82    0.12
  -3  -1 -11    0.10    0.11
  -3   1 -11    0.08    0.10
   3   1  11    0.16    0.09
  -3   1 -11    0.15    0.04
  -4  -1 -11    4.35    0.38
  -4   1 -11    3.96    0.37
   4   1  11    4.71    0.31
  -5  -1 -11    1.23    0.19
   5   1  11    1.67    0.18
  -5   1 -11    1.25    0.18
  -6  -1 -11    0.50    0.16
   6  -1  11    0.23    0.12
  -6   1 -11    0.35    0.14
   6   1  11    0.38    0.12
  -8  -2  11    0.22    0.11
   8  -2 -11   -0.08    0.11
   8   2 -11   -0.06    0.12
   7  -2 -11   -0.23    0.09
  -7  -2  11   -0.05    0.10
   7   2 -11   -0.03    0.10
  -7   2  11   -0.07    0.07
  -6  -2  11    0.77    0.14
   6   2 -11    0.76    0.13
  -6   2  11    0.40    0.11
   6   2 -11    0.54    0.12
  -5  -2  11    0.59    0.14
   5  -2 -11    0.52    0.11
  -5  -2  11    0.58    0.11
   5   2 -11    0.57    0.14
   5   2 -11    0.50    0.11
  -5   2  11    0.74    0.07
  -4  -2  11    5.16    0.40
  -4  -2  11    4.91    0.40
   4  -2 -11    4.75    0.38
   4   2 -11    4.52    0.39
  -4   2  11    4.59    0.28
   4   2 -11    5.01    0.32
  -4   2  11    4.80    0.38
  -3  -2  11   61.20    4.29
   3  -2 -11   60.26    4.28
  -3  -2  11   52.86    4.28
   3   2 -11   70.95    3.36
  -3   2  11   71.18    4.28
  -3   2  11   68.89    3.35
  -2  -2  11    2.38    0.25
   2  -2 -11    2.17    0.23
   2   2 -11    2.04    0.18
  -2   2  11    2.16    0.18
   2   2 -11    2.55    0.25
  -2   2  11    2.02    0.22
   1  -2 -11   54.05    3.78
  -1  -2  11   57.15    3.79
  -1   2  11   54.44    2.96
  -1   2  11   56.75    3.78
   1   2 -11   56.97    2.96
   1   2 -11   60.30    3.79
   0  -2 -11    4.59    0.37
   0   2  11    4.09    0.28
   0   2 -11    4.11    0.27
   0   2 -11    4.41    0.37
  -1  -2 -11    1.00    0.14
  -1   2 -11    0.98    0.16
   1   2  11    0.75    0.12
  -1   2 -11    0.87    0.09
  -2  -2 -11    7.03    0.55
  -2   2 -11    6.62    0.54
   2   2  11    7.45    0.43
  -2   2 -11    7.06    0.39
  -3  -2 -11    6.11    0.47
  -3   2 -11    5.16    0.46
   3   2  11    6.07    0.37
  -3   2 -11    5.87    0.32
  -4  -2 -11    0.01    0.12
  -4   2 -11   -0.05    0.10
   4   2  11    0.00    0.09
  -5  -2 -11    0.00    0.12
   5   2  11   -0.06    0.10
  -5   2 -11    0.11    0.11
  -6  -2 -11    0.09    0.12
  -6   2 -11    0.13    0.13
   6   2  11    0.06    0.13
  -8  -3  11    0.07    0.12
   8  -3 -11    0.16    0.12
   8   3 -11    0.16    0.12
  -7  -3  11    0.11    0.12
   7   3 -11    0.11    0.13
  -7   3  11    0.08    0.07
  -6  -3  11    0.25    0.12
   6   3 -11    0.18    0.11
   6   3 -11    0.32    0.11
  -5  -3  11    0.64    0.15
   5   3 -11    0.95    0.16
  -5   3  11    0.81    0.08
   5   3 -11    0.75    0.13
   4  -3 -11    0.98    0.14
  -4  -3  11    0.97    0.16
   4   3 -11    1.08    0.17
   4   3 -11    0.96    0.13
  -4   3  11    1.11    0.11
  -4   3  11    1.08    0.15
   3  -3 -11    0.05    0.09
  -3  -3  11   -0.16    0.10
   3   3 -11   -0.12    0.10
   3   3 -11    0.03    0.08
  -3   3  11    0.05    0.09
  -3   3  11   -0.01    0.06
   2  -3 -11    7.07    0.54
  -2  -3  11    6.84    0.55
   2   3 -11    7.10    0.56
  -2   3  11    7.82    0.55
  -2   3  11    6.86    0.42
   2   3 -11    7.41    0.43
  -1  -3  11   27.69    2.09
   1  -3 -11   31.38    2.10
   1   3 -11   25.86    2.09
   1   3 -11   32.57    1.63
  -1   3  11   35.28    2.10
  -1   3  11   32.44    1.64
   0  -3 -11    0.17    0.11
   0  -3  11    0.26    0.11
   0   3  11    0.07    0.08
   0   3 -11    0.21    0.07
  -1  -3 -11   18.03    1.25
   1  -3  11   17.43    1.24
   1   3  11   17.36    0.97
  -1   3 -11   19.31    1.25
  -1   3 -11   17.27    0.95
   2  -3  11    1.82    0.23
  -2  -3 -11    2.22    0.25
  -2   3 -11    1.99    0.13
   2   3  11    1.93    0.19
  -2   3 -11    1.96    0.24
   3  -3  11    2.63    0.27
  -3  -3 -11    2.47    0.29
  -3   3 -11    2.83    0.28
   3   3  11    2.62    0.23
  -4  -3 -11    0.49    0.15
   4  -3  11    0.48    0.13
   4   3  11    0.34    0.12
  -4   3 -11    0.42    0.15
  -5  -3 -11    0.17    0.14
  -5   3 -11    0.03    0.13
   5   3  11    0.21    0.11
  -6  -3 -11    0.10    0.14
   6   3  11    0.00    0.12
  -6   3 -11    0.11    0.13
  -7  -4  11    1.02    0.18
   7   4 -11    0.85    0.15
  -7   4  11    0.64    0.10
  -6  -4  11    0.94    0.17
   6   4 -11    0.93    0.17
   6   4 -11    0.96    0.16
  -5  -4  11    0.00    0.12
   5   4 -11   -0.02    0.10
   5   4 -11   -0.17    0.11
  -4  -4  11    0.36    0.14
   4  -4 -11    0.43    0.12
   4   4 -11    0.44    0.14
   4   4 -11    0.35    0.11
  -4   4  11    0.64    0.08
  -3  -4  11    0.37    0.14
   3  -4 -11    0.53    0.13
   3   4 -11    0.53    0.15
  -3   4  11    0.55    0.09
   3   4 -11    0.53    0.11
  -3   4  11    0.56    0.12
   2  -4 -11    2.63    0.25
  -2  -4  11    2.40    0.28
  -2   4  11    2.61    0.20
  -2   4  11    2.42    0.24
   2   4 -11    2.47    0.28
   2   4 -11    2.62    0.20
   1  -4 -11    1.12    0.16
  -1  -4  11    0.96    0.17
   1   4 -11    0.55    0.16
  -1   4  11    1.29    0.13
   1   4 -11    1.08    0.11
   0  -4  11    2.08    0.25
   0  -4 -11    2.01    0.25
   0   4  11    2.35    0.20
   0   4 -11    2.13    0.16
   0   4 -11    2.33    0.26
   1  -4  11    5.94    0.52
  -1  -4 -11    7.15    0.53
  -1   4 -11    6.76    0.37
   1   4  11    6.65    0.41
  -1   4 -11    6.19    0.52
  -2  -4 -11    1.09    0.18
   2  -4  11    1.07    0.17
  -2   4 -11    1.07    0.17
   2   4  11    1.10    0.15
   3  -4  11   13.03    0.98
  -3  -4 -11   14.64    1.00
  -3   4 -11   13.56    0.98
   3   4  11   13.92    0.78
  -4  -4 -11    1.08    0.19
  -4   4 -11    1.35    0.20
   4   4  11    1.16    0.16
  -5  -4 -11    1.21    0.21
   5   4  11    1.34    0.18
  -5   4 -11    1.32    0.20
  -6  -5  11    0.18    0.13
   6   5 -11   -0.03    0.12
   6   5 -11   -0.12    0.11
  -5  -5  11   -0.03    0.15
   5   5 -11    0.07    0.10
   5   5 -11   -0.07    0.12
  -4  -5  11    1.28    0.21
   4   5 -11    1.89    0.18
   4   5 -11    1.19    0.20
   3  -5 -11    0.33    0.13
  -3  -5  11    0.54    0.15
  -3   5  11    0.61    0.08
   3   5 -11    0.31    0.15
   3   5 -11    0.31    0.11
  -2  -5  11    9.88    0.77
   2  -5 -11   10.72    0.76
  -2   5  11    9.93    0.58
   2   5 -11   10.79    0.78
   2   5 -11   10.35    0.59
   1  -5 -11    2.02    0.24
  -1  -5  11    1.97    0.24
  -1   5  11    2.16    0.18
   1   5 -11    1.89    0.17
   1   5 -11    2.12    0.25
   0  -5  11   -0.08    0.11
   0  -5 -11   -0.05    0.11
   0   5 -11   -0.20    0.11
   0   5 -11    0.02    0.06
   0   5  11   -0.03    0.09
  -1  -5 -11    0.26    0.13
   1  -5  11    0.13    0.12
  -1   5 -11    0.05    0.13
   1   5  11    0.04    0.09
  -1   5 -11    0.28    0.06
   2  -5  11    0.11    0.12
  -2  -5 -11    0.20    0.13
   2   5  11    0.09    0.10
  -2   5 -11    0.06    0.12
  -3  -5 -11    1.37    0.23
   3  -5  11    2.25    0.25
   3   5  11    1.85    0.19
  -3   5 -11    1.74    0.22
  -4  -5 -11    9.44    0.75
  -4   5 -11   10.30    0.74
   4   5  11    9.12    0.58
  -5   5 -11    9.05    0.69
   5   5  11    9.00    0.57
  -5  -6  11    0.24    0.17
   5   6 -11    0.16    0.15
   5   6 -11    0.39    0.14
  -4  -6  11    0.84    0.18
   4   6 -11    0.80    0.19
   4   6 -11    0.94    0.15
  -3  -6  11    0.02    0.13
   3   6 -11    0.03    0.14
   3   6 -11    0.01    0.10
   2  -6 -11   -0.03    0.10
  -2  -6  11   -0.16    0.12
   2   6 -11   -0.10    0.08
   2   6 -11   -0.14    0.13
  -1  -6  11    0.12    0.13
   1  -6 -11    0.04    0.11
   1   6 -11    0.07    0.14
  -1   6  11   -0.07    0.07
   1   6 -11    0.02    0.07
   0  -6 -11    0.60    0.16
   0  -6  11    0.69    0.16
   0   6  11    0.57    0.11
   0   6 -11    0.65    0.09
   0   6 -11    0.79    0.17
   1  -6  11    0.07    0.12
  -1  -6 -11    0.08    0.13
  -1   6 -11    0.01    0.13
   1   6  11   -0.02    0.09
  -2  -6 -11    8.07    0.62
   2  -6  11    7.77    0.60
   2   6  11    7.78    0.49
  -2   6 -11    6.86    0.60
  -3  -6 -11    2.82    0.33
   3   6  11    2.60    0.25
  -3   6 -11    2.31    0.30
  -3  -7  11    0.18    0.17
   3   7 -11    0.17    0.15
   3   7 -11    0.15    0.11
  -2  -7  11    0.09    0.14
   2   7 -11    0.38    0.16
   2   7 -11    0.15    0.10
  -1  -7  11    0.87    0.19
   1  -7 -11    0.74    0.18
   1   7 -11    1.07    0.20
   1   7 -11    0.93    0.12
   0  -7 -11    4.36    0.42
   0  -7  11    4.36    0.42
   0   7 -11    4.59    0.43
   1  -7  11    1.50    0.23
  -1  -7 -11    1.97    0.25
  -1   7 -11    1.59    0.24
  -2  -7 -11    0.25    0.16
  -8   0  12    0.52    0.12
   8   0 -12    0.35    0.13
  -7   0  12   11.73    0.83
   7   0 -12   11.74    0.69
  -6   0  12    0.62    0.13
   6   0 -12    0.74    0.15
  -5   0  12    0.18    0.11
   5   0 -12    0.10    0.09
   5   0 -12    0.28    0.11
  -4   0  12   -0.07    0.08
  -4   0  12   -0.05    0.09
   4   0 -12   -0.02    0.11
   3   0 -12    0.94    0.14
  -3   0  12    0.54    0.12
   2   0 -12   14.60    1.03
   1   0 -12   -0.18    0.09
   0   0 -12   -0.08    0.10
  -1   0 -12   55.30    3.71
  -2   0 -12    9.36    0.53
  -2   0 -12   10.06    0.72
  -3   0 -12    8.28    0.63
   4   0  12    5.43    0.37
  -4   0 -12    5.44    0.45
  -5   0 -12    0.41    0.15
   5   0  12    0.18    0.13
  -6   0 -12    0.54    0.15
   6   0  12    0.77    0.14
   8  -1 -12    0.06    0.12
  -8  -1  12   -0.09    0.09
  -8   1  12   -0.04    0.08
   8   1 -12    0.00    0.12
   7  -1 -12    0.04    0.12
  -7  -1  12   -0.01    0.10
   7   1 -12   -0.05    0.10
  -7   1  12   -0.16    0.09
   6  -1 -12    0.23    0.12
  -6  -1  12    0.30    0.12
   6   1 -12    0.38    0.12
  -6   1  12    0.21    0.10
  -5  -1  12    6.31    0.46
   5  -1 -12    5.92    0.45
   5   1 -12    5.95    0.46
   5   1 -12    5.62    0.37
  -5   1  12    4.99    0.44
   4  -1 -12    2.44    0.26
  -4  -1  12    3.17    0.28
  -4  -1  12    3.20    0.29
   4   1 -12    2.79    0.23
  -4   1  12    2.52    0.26
   4   1 -12    2.96    0.28
  -3  -1  12    1.85    0.22
   3  -1 -12    2.03    0.22
  -3  -1  12    1.96    0.23
   3   1 -12    1.82    0.18
  -3   1  12    2.02    0.21
   3   1 -12    2.17    0.23
   2  -1 -12    0.16    0.10
  -2   1  12    0.07    0.09
   2   1 -12    0.16    0.11
   1  -1 -12   22.08    1.52
   1   1 -12   22.09    1.52
   0  -1 -12    1.54    0.18
   0   1 -12    1.43    0.19
  -1  -1 -12    2.98    0.29
  -1   1 -12    2.95    0.30
  -2  -1 -12    2.94    0.31
   2   1  12    3.65    0.25
  -2   1 -12    3.30    0.32
  -3  -1 -12    2.39    0.27
  -3   1 -12    2.29    0.28
   3   1  12    2.25    0.21
  -4  -1 -12    1.29    0.19
  -4   1 -12    1.45    0.21
   4   1  12    1.30    0.17
  -5  -1 -12    0.40    0.16
   5  -1  12    0.37    0.12
  -5   1 -12    0.14    0.14
   5   1  12    0.31    0.13
  -6  -1 -12    0.10    0.12
   6  -1  12    0.16    0.11
  -6   1 -12    0.03    0.12
   6   1  12    0.02    0.11
   8  -2 -12   -0.05    0.13
   8   2 -12   -0.18    0.11
   7  -2 -12   -0.24    0.10
  -7  -2  12    0.00    0.11
  -7   2  12   -0.02    0.08
   7   2 -12   -0.09    0.12
  -6  -2  12    0.03    0.09
  -6   2  12   -0.05    0.09
   6   2 -12   -0.13    0.10
  -5  -2  12    0.50    0.13
   5   2 -12    0.38    0.11
  -5   2  12    0.54    0.07
   5   2 -12    0.53    0.13
   4  -2 -12    2.50    0.25
  -4  -2  12    2.68    0.26
  -4   2  12    2.12    0.17
   4   2 -12    2.74    0.26
   4   2 -12    2.41    0.21
   3  -2 -12    0.16    0.10
  -3  -2  12    0.24    0.11
  -3   2  12    0.29    0.09
   3   2 -12    0.34    0.09
   3   2 -12    0.23    0.12
  -3   2  12    0.16    0.07
  -2  -2  12   10.15    0.76
   2  -2 -12   10.14    0.75
   2   2 -12   11.16    0.77
   2   2 -12   10.60    0.59
  -2   2  12   10.14    0.58
  -2   2  12   10.28    0.75
  -1  -2  12    1.30    0.17
   1  -2 -12    1.56    0.19
   1   2 -12    1.41    0.14
   1   2 -12    1.43    0.19
  -1   2  12    1.57    0.15
   0  -2 -12    1.70    0.20
   0   2 -12    1.49    0.14
   0   2  12    1.69    0.17
   0   2 -12    1.78    0.21
  -1  -2 -12   -0.12    0.07
  -1   2 -12   -0.17    0.10
   1   2  12   -0.13    0.08
  -1   2 -12   -0.13    0.06
  -2  -2 -12    0.03    0.11
  -2   2 -12    0.01    0.11
   2   2  12   -0.04    0.09
  -2   2 -12   -0.02    0.05
  -3  -2 -12    0.12    0.12
   3   2  12   -0.07    0.09
  -3   2 -12   -0.04    0.11
  -4  -2 -12    1.89    0.23
   4   2  12    1.59    0.18
  -4   2 -12    1.55    0.21
  -5  -2 -12    0.31    0.14
   5   2  12    0.16    0.13
  -5   2 -12    0.20    0.12
   6  -2  12    0.35    0.12
  -6   2 -12    0.11    0.14
   6   2  12    0.08    0.12
  -7  -3  12    0.66    0.14
   7   3 -12    0.41    0.13
  -7   3  12    0.59    0.11
  -6  -3  12    0.27    0.12
   6   3 -12    0.13    0.11
  -5  -3  12    3.82    0.35
   5   3 -12    3.70    0.28
   5   3 -12    3.70    0.35
   4  -3 -12    7.86    0.57
  -4  -3  12    7.26    0.59
  -4   3  12    7.73    0.43
   4   3 -12    7.54    0.46
   4   3 -12    7.83    0.59
  -3  -3  12   -0.04    0.11
   3  -3 -12    0.10    0.09
   3   3 -12    0.09    0.08
  -3   3  12    0.13    0.09
   3   3 -12   -0.12    0.11
  -3   3  12   -0.12    0.07
  -2  -3  12   -0.12    0.10
   2  -3 -12   -0.08    0.09
  -2   3  12   -0.10    0.08
   2   3 -12   -0.16    0.11
   2   3 -12   -0.12    0.07
  -2   3  12   -0.09    0.06
  -1  -3  12   17.65    1.25
   1  -3 -12   17.82    1.24
   1   3 -12   17.25    0.96
  -1   3  12   17.01    0.96
   1   3 -12   19.65    1.26
   0  -3  12    0.07    0.08
   0  -3 -12    0.10    0.11
   0   3 -12   -0.03    0.07
   0   3  12    0.17    0.10
  -1  -3 -12    9.77    0.72
   1  -3  12    9.77    0.72
   1   3  12    8.98    0.56
  -1   3 -12    9.42    0.53
  -1   3 -12   10.33    0.72
   2  -3  12    9.97    0.73
  -2  -3 -12   10.85    0.75
  -2   3 -12   10.13    0.53
  -2   3 -12    8.66    0.73
   2   3  12    9.91    0.58
   3  -3  12    0.03    0.11
  -3  -3 -12   -0.20    0.12
   3   3  12   -0.15    0.09
  -3   3 -12   -0.19    0.11
  -4  -3 -12   -0.29    0.12
   4  -3  12    0.04    0.13
  -4   3 -12   -0.29    0.12
   4   3  12   -0.16    0.10
  -5  -3 -12    0.12    0.15
  -5   3 -12    0.15    0.15
   5   3  12   -0.07    0.11
  -7  -4  12    1.12    0.18
   7   4 -12    1.11    0.17
  -7   4  12    0.80    0.12
  -6  -4  12    2.76    0.31
   6   4 -12    3.43    0.29
  -5  -4  12    0.48    0.16
   5   4 -12    0.44    0.12
   5   4 -12    0.39    0.16
  -4  -4  12    0.80    0.16
   4   4 -12    0.68    0.18
   4   4 -12    0.70    0.13
  -4   4  12    0.76    0.09
  -3  -4  12   -0.07    0.12
   3  -4 -12   -0.09    0.10
   3   4 -12   -0.12    0.12
  -3   4  12    0.07    0.07
   3   4 -12   -0.11    0.09
   2  -4 -12    0.01    0.09
  -2  -4  12   -0.04    0.11
   2   4 -12   -0.17    0.11
   2   4 -12   -0.02    0.08
  -2   4  12   -0.07    0.07
   1  -4 -12    0.35    0.12
  -1  -4  12    0.34    0.14
  -1   4  12    0.30    0.09
   1   4 -12    0.48    0.14
   1   4 -12    0.78    0.10
   0  -4  12   12.02    0.89
   0  -4 -12   12.45    0.89
   0   4 -12   12.60    0.89
   0   4 -12   11.74    0.67
   0   4  12   12.47    0.69
   1  -4  12   11.37    0.80
  -1  -4 -12   10.13    0.79
  -1   4 -12   10.23    0.58
  -1   4 -12   11.53    0.80
   1   4  12   10.44    0.62
   2  -4  12    0.14    0.12
  -2  -4 -12    0.10    0.13
  -2   4 -12    0.09    0.12
   2   4  12    0.14    0.10
   3  -4  12    1.28    0.19
  -3  -4 -12    1.17    0.20
  -3   4 -12    1.16    0.19
   3   4  12    1.19    0.16
  -4  -4 -12    0.20    0.15
  -4   4 -12    0.18    0.13
   4   4  12    0.19    0.12
  -5   4 -12    0.33    0.16
   5   4  12    0.50    0.14
  -6  -5  12    0.05    0.13
   6   5 -12    0.03    0.12
  -5  -5  12   -0.10    0.12
   5   5 -12   -0.13    0.12
   5   5 -12   -0.13    0.10
  -4  -5  12   -0.05    0.13
   4   5 -12    0.19    0.12
   4   5 -12   -0.05    0.13
  -3  -5  12    0.18    0.14
  -3   5  12    0.20    0.08
   3   5 -12    0.16    0.14
   3   5 -12    0.20    0.11
  -2  -5  12    1.45    0.21
   2  -5 -12    1.27    0.18
   2   5 -12    1.23    0.21
  -2   5  12    1.37    0.14
   2   5 -12    1.47    0.15
   1  -5 -12   -0.06    0.11
  -1  -5  12   -0.16    0.12
   1   5 -12    0.04    0.13
  -1   5  12    0.00    0.09
   1   5 -12    0.03    0.08
   0  -5  12    0.22    0.13
   0  -5 -12    0.26    0.13
   0   5 -12    0.34    0.08
   0   5 -12    0.31    0.14
   0   5  12    0.07    0.09
   1  -5  12    0.84    0.17
  -1  -5 -12    0.54    0.16
  -1   5 -12    0.74    0.17
   1   5  12    0.56    0.12
   2  -5  12   -0.11    0.12
  -2  -5 -12    0.04    0.13
  -2   5 -12   -0.05    0.13
   2   5  12   -0.11    0.10
  -3  -5 -12    0.54    0.17
   3   5  12    0.53    0.14
  -3   5 -12    0.69    0.16
  -4  -5 -12    1.28    0.22
   4   5  12    1.16    0.17
  -4   5 -12    1.30    0.21
  -4  -6  12    1.87    0.26
   4   6 -12    1.84    0.26
   4   6 -12    2.03    0.20
  -3  -6  12   -0.16    0.13
   3   6 -12    0.04    0.10
   3   6 -12   -0.13    0.13
  -2  -6  12    0.07    0.14
   2   6 -12    0.03    0.14
   2   6 -12    0.14    0.09
   1  -6 -12    0.50    0.15
  -1  -6  12    0.32    0.15
  -1   6  12    0.53    0.12
   1   6 -12    0.70    0.18
   1   6 -12    0.43    0.09
   0  -6 -12    1.20    0.20
   0  -6  12    1.31    0.21
   0   6 -12    0.91    0.20
   0   6  12    1.00    0.15
  -1  -6 -12    1.23    0.24
   1  -6  12    1.57    0.22
   1   6  12    1.46    0.18
  -1   6 -12    1.47    0.23
   2  -6  12    0.82    0.18
  -2  -6 -12    1.01    0.20
  -2   6 -12    0.81    0.18
   2   6  12    1.04    0.16
  -3  -6 -12    1.11    0.22
   3   6  12    1.48    0.18
  -2  -7  12   -0.11    0.13
   2   7 -12   -0.01    0.09
   2   7 -12    0.01    0.15
  -1  -7  12    0.39    0.17
   1   7 -12    0.51    0.18
   0  -7 -12    0.14    0.15
   0  -7  12    0.05    0.14
  -7   0  13    0.13    0.10
   7   0 -13    0.18    0.12
  -6   0  13    0.08    0.10
   6   0 -13    0.10    0.10
   5   0 -13    0.01    0.09
   5   0 -13    0.17    0.10
  -5   0  13   -0.01    0.09
   4   0 -13   -0.22    0.10
  -4   0  13   -0.16    0.08
  -4   0  13    0.03    0.10
   3   0 -13   -0.19    0.10
   2   0 -13   -0.12    0.09
   1   0 -13   -0.24    0.10
   0   0 -13   -0.02    0.11
  -1   0 -13    0.08    0.11
  -2   0 -13    0.12    0.12
  -3   0 -13    0.15    0.13
  -4   0 -13    0.11    0.13
   4   0  13    0.04    0.11
  -5   0 -13    0.00    0.12
   5   0  13   -0.05    0.10
   7  -1 -13    0.30    0.13
  -7  -1  13    0.48    0.13
  -7   1  13    0.41    0.11
   7   1 -13    0.47    0.13
  -6  -1  13    0.82    0.15
   6  -1 -13    0.88    0.15
  -6   1  13    0.70    0.14
   6   1 -13    0.84    0.14
  -5  -1  13    0.67    0.15
   5   1 -13    0.60    0.12
  -5   1  13    0.68    0.14
   5   1 -13    0.76    0.16
   4  -1 -13   -0.11    0.10
  -4  -1  13   -0.02    0.10
   4   1 -13   -0.13    0.09
   4   1 -13   -0.02    0.09
   3  -1 -13   10.56    0.76
  -3  -1  13   10.03    0.75
   3   1 -13   10.62    0.76
   3   1 -13   10.41    0.60
  -3   1  13    9.81    0.74
   2  -1 -13    2.55    0.26
   2   1 -13    2.29    0.26
   1  -1 -13   10.48    0.74
   1   1 -13    9.52    0.74
   0  -1 -13   19.35    1.35
   0   1 -13   19.34    1.35
  -1  -1 -13    0.56    0.14
  -1   1 -13    0.41    0.14
  -2  -1 -13    1.02    0.18
  -2   1 -13    1.08    0.18
   2   1  13    1.29    0.15
  -3  -1 -13    4.08    0.38
   3   1  13    4.64    0.31
  -3   1 -13    3.96    0.38
  -4  -1 -13    0.89    0.18
  -4   1 -13    1.01    0.18
   4   1  13    1.11    0.15
  -5  -1 -13    0.08    0.13
   5  -1  13    0.21    0.13
  -5   1 -13    0.13    0.13
   5   1  13    0.12    0.11
  -7  -2  13    1.95    0.23
   7  -2 -13    1.90    0.21
   7   2 -13    1.62    0.20
  -7   2  13    2.06    0.21
  -6  -2  13    0.16    0.12
  -6   2  13    0.01    0.09
   6   2 -13    0.00    0.11
  -5  -2  13   -0.05    0.12
   5   2 -13   -0.14    0.11
   5   2 -13    0.06    0.11
  -5   2  13   -0.05    0.06
  -4  -2  13    0.01    0.10
   4  -2 -13    0.09    0.09
   4   2 -13   -0.06    0.10
   4   2 -13    0.03    0.10
  -4   2  13    0.08    0.06
  -3  -2  13    6.65    0.52
   3  -2 -13    6.42    0.50
   3   2 -13    6.86    0.52
   3   2 -13    6.08    0.40
  -3   2  13    6.44    0.38
  -3   2  13    6.59    0.50
  -2  -2  13   13.31    0.95
   2  -2 -13   12.68    0.94
  -2   2  13   12.42    0.73
   2   2 -13   13.51    0.74
   2   2 -13   14.19    0.96
   1  -2 -13    1.82    0.26
  -1  -2  13    2.45    0.27
  -1   2  13    2.77    0.22
   1   2 -13    2.93    0.29
   1   2 -13    2.94    0.20
   0  -2 -13   -0.05    0.11
   0  -2  13    0.03    0.10
   0   2 -13   -0.10    0.06
   0   2  13   -0.11    0.08
   0   2 -13   -0.04    0.11
  -1  -2 -13   -0.09    0.11
   1   2  13    0.14    0.09
  -1   2 -13    0.29    0.13
  -1   2 -13    0.19    0.07
  -2  -2 -13    1.26    0.19
   2   2  13    1.02    0.15
  -2   2 -13    1.08    0.10
  -2   2 -13    1.13    0.18
  -3  -2 -13    0.44    0.14
  -3   2 -13    0.19    0.13
   3   2  13    0.08    0.10
  -4  -2 -13    0.72    0.16
   4   2  13    0.47    0.13
  -4   2 -13    0.51    0.15
  -5  -2 -13    0.99    0.20
  -5   2 -13    1.42    0.20
   5   2  13    1.55    0.20
  -7  -3  13    0.06    0.11
  -7   3  13   -0.02    0.09
   7   3 -13    0.09    0.12
  -6  -3  13    0.09    0.14
   6   3 -13    0.23    0.12
  -5  -3  13    5.72    0.48
   5   3 -13    5.96    0.49
   5   3 -13    5.31    0.37
  -4  -3  13    2.69    0.32
   4  -3 -13    3.31    0.31
  -4   3  13    3.47    0.22
   4   3 -13    3.30    0.27
   4   3 -13    3.72    0.34
  -3  -3  13    1.54    0.21
   3  -3 -13    1.66    0.20
   3   3 -13    1.50    0.16
   3   3 -13    1.44    0.21
  -3   3  13    1.66    0.15
   2  -3 -13    0.02    0.10
  -2  -3  13   -0.14    0.10
   2   3 -13    0.09    0.09
   2   3 -13   -0.08    0.08
  -2   3  13   -0.05    0.08
   1  -3 -13    0.00    0.11
  -1  -3  13    0.19    0.12
  -1   3  13    0.11    0.08
   1   3 -13    0.13    0.13
   1   3 -13   -0.08    0.07
   0  -3  13    0.39    0.14
   0  -3 -13    0.49    0.14
   0   3 -13    0.45    0.12
   0   3  13    0.37    0.11
   0   3 -13    0.37    0.08
  -1  -3 -13    0.06    0.12
   1  -3  13    0.01    0.11
  -1   3 -13    0.07    0.06
   1   3  13    0.08    0.11
  -1   3 -13    0.05    0.12
   2  -3  13    1.39    0.20
  -2  -3 -13    1.32    0.20
   2   3  13    1.31    0.16
  -2   3 -13    1.65    0.21
  -3  -3 -13    0.19    0.14
   3  -3  13    0.18    0.12
  -3   3 -13    0.02    0.13
   3   3  13   -0.02    0.11
  -4  -3 -13   -0.03    0.13
  -4   3 -13   -0.30    0.11
   4   3  13   -0.13    0.11
  -6  -4  13    0.55    0.18
   6   4 -13    0.60    0.14
  -5  -4  13    0.12    0.13
   5   4 -13    0.11    0.11
   5   4 -13    0.09    0.13
  -4  -4  13    0.07    0.13
   4   4 -13    0.13    0.11
   4   4 -13   -0.09    0.12
  -4   4  13    0.10    0.07
   3  -4 -13    0.09    0.10
  -3  -4  13    0.16    0.13
   3   4 -13    0.18    0.14
   3   4 -13    0.17    0.09
  -3   4  13    0.06    0.08
  -2  -4  13    0.35    0.14
   2  -4 -13    0.51    0.13
   2   4 -13    0.46    0.15
  -2   4  13    0.31    0.09
   2   4 -13    0.43    0.10
  -1  -4  13    5.84    0.50
   1  -4 -13    6.65    0.50
  -1   4  13    6.17    0.39
   1   4 -13    5.96    0.37
   1   4 -13    5.88    0.51
   0  -4  13    1.30    0.20
   0  -4 -13    0.99    0.19
   0   4  13    1.55    0.15
   0   4 -13    1.19    0.20
   0   4 -13    1.54    0.14
   1  -4  13   -0.05    0.11
  -1  -4 -13   -0.04    0.12
   1   4  13   -0.12    0.11
  -1   4 -13    0.05    0.13
   2  -4  13    0.09    0.12
  -2  -4 -13    0.14    0.14
  -2   4 -13    0.12    0.13
   2   4  13    0.04    0.11
   3  -4  13    1.15    0.21
  -3  -4 -13    1.50    0.23
   3   4  13    1.38    0.18
  -3   4 -13    1.26    0.20
  -4  -4 -13    0.11    0.16
  -4   4 -13    0.06    0.13
   4   4  13    0.03    0.12
  -5  -5  13    0.34    0.16
   5   5 -13    0.68    0.18
   5   5 -13    0.57    0.15
  -4  -5  13    0.16    0.14
   4   5 -13    0.19    0.12
   4   5 -13    0.21    0.15
  -3  -5  13    1.53    0.23
   3   5 -13    1.72    0.24
   3   5 -13    1.74    0.18
  -3   5  13    1.58    0.15
  -2  -5  13    0.38    0.15
   2  -5 -13    0.42    0.15
  -2   5  13    0.46    0.10
   2   5 -13    0.67    0.17
   2   5 -13    0.31    0.10
  -1  -5  13    0.04    0.13
   1  -5 -13    0.14    0.13
   1   5 -13    0.18    0.15
  -1   5  13    0.02    0.10
   1   5 -13    0.19    0.08
   0  -5  13    2.63    0.31
   0  -5 -13    2.86    0.31
   0   5 -13    2.78    0.32
   0   5  13    2.89    0.25
  -1  -5 -13    5.02    0.45
   1  -5  13    4.60    0.44
  -1   5 -13    5.57    0.46
   1   5  13    4.71    0.34
  -2  -5 -13   -0.16    0.13
   2  -5  13    0.01    0.13
  -2   5 -13    0.00    0.13
   2   5  13    0.04    0.11
  -3  -5 -13    1.09    0.21
  -3   5 -13    0.98    0.21
   3   5  13    0.99    0.16
  -3  -6  13   -0.08    0.14
   3   6 -13   -0.07    0.15
   3   6 -13   -0.06    0.10
  -2  -6  13    0.40    0.16
  -2   6  13    0.59    0.12
   2   6 -13    0.54    0.18
   2   6 -13    0.55    0.11
   1  -6 -13    1.65    0.23
  -1  -6  13    1.41    0.23
  -1   6  13    1.67    0.17
   1   6 -13    1.77    0.25
   0  -6  13    0.51    0.17
   0  -6 -13    0.29    0.16
   0   6 -13    0.26    0.17
   0   6  13    0.22    0.10
  -1  -6 -13    0.70    0.19
   1  -6  13    0.92    0.19
  -1   6 -13    1.06    0.20
   1   6  13    0.73    0.15
  -7   0  14    0.62    0.15
   7   0 -14    0.62    0.15
   6   0 -14    0.24    0.13
  -6   0  14    0.06    0.11
  -5   0  14    6.45    0.55
   5   0 -14    8.16    0.47
  -4   0  14    0.19    0.12
   4   0 -14    0.20    0.13
   3   0 -14    2.55    0.27
   2   0 -14    2.25    0.26
   1   0 -14   -0.06    0.11
   0   0 -14    1.09    0.18
  -1   0 -14    0.65    0.15
  -2   0 -14    8.54    0.66
  -3   0 -14   -0.01    0.13
   4   0  14    0.08    0.11
  -4   0 -14    0.22    0.15
  -7  -1  14    0.74    0.15
   7  -1 -14    0.58    0.15
   7   1 -14    0.73    0.16
  -7   1  14    0.71    0.15
  -6  -1  14    0.04    0.12
   6  -1 -14    0.14    0.11
  -6   1  14   -0.04    0.10
   6   1 -14   -0.17    0.10
  -5  -1  14    1.20    0.18
   5   1 -14    1.12    0.18
  -5   1  14    1.11    0.16
   5   1 -14    1.25    0.16
  -4  -1  14    0.71    0.15
   4  -1 -14    0.81    0.15
   4   1 -14    0.79    0.16
   4   1 -14    0.80    0.13
   3  -1 -14    3.16    0.30
  -3  -1  14    2.80    0.30
   3   1 -14    3.16    0.24
   3   1 -14    2.69    0.30
   2  -1 -14    0.02    0.11
   2   1 -14    0.09    0.12
   1  -1 -14    0.47    0.13
   1   1 -14    0.37    0.13
   0  -1 -14    3.33    0.33
   0   1 -14    3.38    0.33
  -1  -1 -14   -0.11    0.11
  -1   1 -14   -0.06    0.12
  -2  -1 -14    2.92    0.31
  -2   1 -14    2.68    0.31
   2   1  14    2.69    0.24
  -3  -1 -14    0.01    0.13
  -3   1 -14    0.16    0.15
   3   1  14    0.11    0.11
  -4  -1 -14    2.64    0.30
  -4   1 -14    2.01    0.26
   4   1  14    2.23    0.22
  -6  -2  14    0.09    0.11
   6   2 -14    0.00    0.13
  -6   2  14    0.17    0.11
  -5  -2  14    0.25    0.12
   5   2 -14    0.11    0.12
   5   2 -14    0.07    0.12
  -4  -2  14    1.31    0.20
   4  -2 -14    1.70    0.21
  -4   2  14    1.68    0.16
   4   2 -14    1.60    0.17
   4   2 -14    1.71    0.22
   3  -2 -14    0.26    0.13
  -3  -2  14    0.38    0.13
  -3   2  14    0.34    0.09
   3   2 -14    0.00    0.14
   3   2 -14    0.28    0.10
   2  -2 -14    0.82    0.16
  -2  -2  14    1.06    0.18
   2   2 -14    1.08    0.13
  -2   2  14    1.23    0.14
   2   2 -14    1.20    0.19
   1  -2 -14    5.75    0.45
  -1  -2  14    4.41    0.43
   1   2 -14    4.80    0.44
  -1   2  14    4.98    0.33
   1   2 -14    5.46    0.33
   0  -2  14    3.40    0.32
   0  -2 -14    3.32    0.32
   0   2 -14    3.28    0.31
   0   2 -14    3.02    0.22
   0   2  14    3.07    0.25
  -1  -2 -14    0.45    0.15
  -1   2 -14    0.59    0.15
   1   2  14    0.61    0.12
  -1   2 -14    0.41    0.08
  -2  -2 -14    0.01    0.13
  -2   2 -14    0.19    0.13
   2   2  14    0.08    0.10
  -3  -2 -14    1.48    0.21
   3   2  14    0.94    0.15
  -3   2 -14    1.05    0.19
  -4  -2 -14    0.70    0.18
  -4   2 -14    1.02    0.18
   4   2  14    0.97    0.17
  -6  -3  14    1.79    0.24
   6   3 -14    2.12    0.21
  -5  -3  14    4.57    0.43
   5   3 -14    4.55    0.34
   5   3 -14    4.67    0.44
  -4  -3  14    0.49    0.15
   4   3 -14    0.57    0.16
  -4   3  14    0.44    0.09
   4   3 -14    0.32    0.12
  -3  -3  14    0.09    0.12
   3  -3 -14    0.16    0.11
   3   3 -14    0.20    0.13
  -3   3  14    0.23    0.08
   3   3 -14    0.32    0.11
   2  -3 -14    7.39    0.57
  -2  -3  14    6.78    0.57
   2   3 -14    7.46    0.58
  -2   3  14    6.86    0.43
   2   3 -14    7.41    0.44
  -1  -3  14    0.11    0.13
   1  -3 -14    0.09    0.12
   1   3 -14    0.23    0.09
   1   3 -14    0.15    0.14
  -1   3  14   -0.04    0.08
   0  -3  14    0.10    0.13
   0  -3 -14   -0.07    0.11
   0   3 -14    0.00    0.07
   0   3 -14    0.06    0.13
   0   3  14   -0.15    0.10
  -1  -3 -14    8.48    0.66
   1  -3  14    8.23    0.66
   1   3  14    8.64    0.52
  -1   3 -14    8.45    0.48
  -1   3 -14    8.81    0.67
   2  -3  14    0.28    0.14
  -2  -3 -14    0.29    0.14
   2   3  14    0.24    0.12
  -2   3 -14    0.10    0.14
  -3  -3 -14    0.01    0.13
   3  -3  14   -0.19    0.11
   3   3  14   -0.06    0.11
  -3   3 -14   -0.01    0.13
  -4  -3 -14    0.01    0.14
   4   3  14   -0.05    0.12
  -5  -4  14    0.86    0.18
   5   4 -14    0.63    0.15
   5   4 -14    0.83    0.19
  -4  -4  14    5.37    0.48
   4   4 -14    5.17    0.36
   4   4 -14    5.90    0.49
  -3  -4  14    6.74    0.56
   3   4 -14    6.80    0.56
   3   4 -14    7.30    0.43
  -3   4  14    6.45    0.41
   2  -4 -14    0.09    0.12
  -2  -4  14    0.26    0.14
  -2   4  14    0.03    0.09
   2   4 -14    0.17    0.10
   2   4 -14    0.03    0.14
   1  -4 -14    0.26    0.15
  -1  -4  14    0.45    0.15
   1   4 -14    0.34    0.15
  -1   4  14    0.25    0.10
   1   4 -14    0.37    0.09
   0  -4  14    0.65    0.16
   0  -4 -14    0.44    0.15
   0   4  14    0.35    0.11
   0   4 -14    0.59    0.17
   0   4 -14    0.63    0.09
   1  -4  14   -0.10    0.12
  -1  -4 -14    0.04    0.13
   1   4  14    0.07    0.10
  -1   4 -14   -0.01    0.13
  -2  -4 -14    0.09    0.15
   2  -4  14    0.08    0.13
   2   4  14   -0.02    0.11
  -2   4 -14    0.05    0.14
  -3  -4 -14    1.71    0.26
   3   4  14    1.91    0.21
  -3   4 -14    1.97    0.25
  -4  -5  14    0.21    0.15
   4   5 -14    0.37    0.12
   4   5 -14    0.07    0.16
  -3  -5  14    2.14    0.28
  -3   5  14    2.43    0.20
   3   5 -14    2.61    0.23
   3   5 -14    2.29    0.29
  -2  -5  14    1.33    0.22
   2  -5 -14    1.44    0.21
  -2   5  14    1.50    0.16
   2   5 -14    1.33    0.23
   2   5 -14    1.24    0.15
   1  -5 -14    1.19    0.20
  -1  -5  14    1.22    0.21
  -1   5  14    1.19    0.15
   1   5 -14    1.12    0.13
   1   5 -14    1.05    0.21
   0  -5  14    0.08    0.14
   0  -5 -14   -0.01    0.16
   0   5 -14    0.37    0.16
   0   5  14    0.11    0.10
  -1  -5 -14   -0.03    0.14
   1  -5  14   -0.10    0.13
  -1   5 -14    0.14    0.15
   1   5  14   -0.19    0.11
   2  -5  14    0.47    0.16
  -2  -5 -14    0.40    0.17
   2   5  14    0.47    0.13
  -6   0  15   -0.03    0.11
   6   0 -15   -0.03    0.11
   5   0 -15    0.09    0.11
  -5   0  15   -0.06    0.10
  -4   0  15   -0.06    0.10
   4   0 -15    0.02    0.11
   3   0 -15   -0.07    0.11
   2   0 -15    0.15    0.12
   1   0 -15   -0.07    0.12
   0   0 -15   -0.08    0.12
  -1   0 -15    0.04    0.13
  -2   0 -15   -0.03    0.13
   3   0  15    0.24    0.12
  -3   0 -15    0.08    0.14
   4   0  15   -0.17    0.11
   6  -1 -15   -0.09    0.11
  -6  -1  15   -0.03    0.10
  -6   1  15   -0.03    0.11
   6   1 -15   -0.28    0.12
  -5  -1  15   -0.06    0.13
  -5   1  15    0.13    0.12
   5   1 -15    0.25    0.11
   4  -1 -15    0.57    0.14
  -4  -1  15    0.38    0.13
   4   1 -15    0.30    0.11
   4   1 -15    0.42    0.14
  -3  -1  15    1.40    0.20
   3  -1 -15    1.12    0.18
   3   1 -15    1.09    0.15
   3   1 -15    1.49    0.21
   2  -1 -15   -0.12    0.10
  -2  -1  15   -0.05    0.11
   2   1 -15   -0.10    0.11
   2   1 -15    0.05    0.08
   1  -1 -15    2.84    0.30
   1   1 -15    2.76    0.31
   0  -1 -15    1.60    0.22
   0   1 -15    1.83    0.23
  -1  -1 -15    0.06    0.13
   1   1  15    0.24    0.12
  -1   1 -15    0.20    0.14
  -2  -1 -15    1.27    0.21
  -2   1 -15    1.76    0.23
   2   1  15    1.56    0.18
  -3  -1 -15    0.13    0.14
   3   1  15   -0.04    0.11
  -3   1 -15    0.00    0.13
  -6  -2  15    0.17    0.13
  -6   2  15    0.15    0.11
   6   2 -15   -0.01    0.14
  -5  -2  15    0.87    0.18
   5   2 -15    1.15    0.18
  -4  -2  15   -0.06    0.11
  -4   2  15    0.02    0.08
   4   2 -15   -0.13    0.10
   4   2 -15   -0.20    0.11
  -3  -2  15    1.71    0.24
   3  -2 -15    1.53    0.21
  -3   2  15    1.71    0.16
   3   2 -15    1.89    0.24
   3   2 -15    1.79    0.18
  -2  -2  15    0.52    0.15
   2  -2 -15    0.56    0.15
   2   2 -15    0.72    0.12
   2   2 -15    0.72    0.17
  -2   2  15    0.72    0.12
  -1  -2  15    0.66    0.16
   1  -2 -15    0.90    0.17
   1   2 -15    0.51    0.16
  -1   2  15    0.71    0.12
   1   2 -15    0.67    0.11
   0  -2 -15    2.51    0.30
   0  -2  15    2.75    0.30
   0   2 -15    3.14    0.32
   0   2  15    2.49    0.23
   0   2 -15    2.88    0.21
  -1  -2 -15    0.99    0.18
  -1   2 -15    1.01    0.19
  -1   2 -15    0.98    0.11
   1   2  15    0.94    0.16
  -2  -2 -15    1.07    0.20
  -2   2 -15    0.98    0.19
   2   2  15    1.23    0.16
  -3  -2 -15    0.44    0.16
  -3   2 -15    0.28    0.15
   3   2  15    0.32    0.12
  -5  -3  15    0.53    0.16
   5   3 -15    0.54    0.15
  -4  -3  15    0.19    0.14
   4   3 -15    0.34    0.13
   4   3 -15    0.59    0.16
  -3  -3  15    0.00    0.12
   3  -3 -15    0.12    0.12
   3   3 -15    0.02    0.13
  -3   3  15   -0.15    0.08
   3   3 -15   -0.07    0.09
  -2  -3  15    0.51    0.16
   2  -3 -15    0.54    0.14
   2   3 -15    0.69    0.17
   2   3 -15    0.75    0.12
  -2   3  15    0.58    0.12
   1  -3 -15    0.28    0.13
  -1  -3  15    0.32    0.14
  -1   3  15    0.19    0.11
   1   3 -15    0.24    0.15
   1   3 -15    0.41    0.10
   0  -3 -15    1.37    0.21
   0  -3  15    1.15    0.20
   0   3 -15    1.43    0.13
   0   3 -15    1.12    0.21
   0   3  15    1.28    0.16
   1  -3  15   -0.06    0.12
  -1  -3 -15    0.05    0.14
  -1   3 -15   -0.01    0.14
   1   3  15   -0.06    0.10
  -2  -3 -15    0.36    0.16
   2  -3  15    0.44    0.16
   2   3  15    0.43    0.13
  -2   3 -15    0.20    0.16
  -3  -3 -15   -0.15    0.14
   3  -3  15    0.00    0.13
   3   3  15   -0.14    0.11
  -4  -4  15    0.31    0.15
   4   4 -15    0.36    0.11
   4   4 -15    0.28    0.16
  -3  -4  15    2.24    0.28
  -3   4  15    2.26    0.20
   3   4 -15    2.46    0.23
   3   4 -15    2.73    0.32
  -2  -4  15    2.04    0.26
   2  -4 -15    2.02    0.26
  -2   4  15    1.90    0.19
   2   4 -15    1.70    0.18
   2   4 -15    2.00    0.26
   1  -4 -15    0.66    0.17
  -1  -4  15    0.82    0.18
   1   4 -15    0.77    0.11
  -1   4  15    0.58    0.12
   1   4 -15    0.61    0.18
   0  -4 -15   -0.06    0.13
   0  -4  15   -0.04    0.13
   0   4 -15   -0.12    0.14
   0   4  15   -0.11    0.11
  -1  -4 -15   -0.16    0.12
   1  -4  15   -0.09    0.13
  -1   4 -15    0.08    0.15
   1   4  15    0.07    0.11
   2  -4  15    0.15    0.14
  -2  -4 -15    0.13    0.15
   2   4  15    0.10    0.12
  -2  -5  15    0.21    0.16
  -2   5  15    0.28    0.11
   2   5 -15    0.15    0.16
   2   5 -15    0.14    0.11
   1  -5 -15    2.51    0.31
  -1  -5  15    2.74    0.33
  -1   5  15    2.48    0.22
   1   5 -15    2.21    0.29
   0  -5 -15    0.49    0.17
   0  -5  15    0.35    0.16
   0   5 -15    0.23    0.17
   0   5  15    0.39    0.13
  -5   0  16   -0.08    0.11
   5   0 -16   -0.04    0.11
   4   0 -16    0.00    0.10
  -4   0  16    0.27    0.13
   4   0 -16    0.17    0.13
   3   0 -16    0.28    0.14
   2   0 -16    1.14    0.19
   1   0 -16    1.28    0.20
   0   0 -16    0.27    0.15
  -1   0 -16    1.43    0.22
  -2   0 -16   -0.09    0.13
  -5  -1  16    0.00    0.13
   5   1 -16   -0.04    0.13
  -5   1  16    0.06    0.11
  -4  -1  16    0.57    0.16
   4   1 -16    0.80    0.15
   4   1 -16    0.77    0.19
   3  -1 -16    0.32    0.15
  -3  -1  16    0.08    0.13
   3   1 -16    0.02    0.13
   3   1 -16    0.09    0.11
  -2  -1  16    0.04    0.12
   2  -1 -16   -0.14    0.14
   2   1 -16   -0.18    0.10
   2   1 -16    0.13    0.14
   1  -1 -16    1.27    0.20
   1   1 -16    0.92    0.19
   0  -1 -16   -0.01    0.13
   0   1 -16    0.27    0.15
   0   1  16    0.41    0.11
  -1  -1 -16   -0.03    0.14
  -1   1 -16    0.03    0.14
   1   1  16    0.06    0.11
  -2  -1 -16   -0.07    0.14
   2   1  16    0.08    0.11
  -2   1 -16    0.14    0.15
   5   2 -16    0.22    0.12
  -4  -2  16   -0.02    0.12
  -4   2  16   -0.02    0.08
   4   2 -16   -0.14    0.12
   4   2 -16   -0.07    0.13
   3  -2 -16    0.13    0.12
  -3  -2  16    0.07    0.13
   3   2 -16    0.12    0.10
  -3   2  16   -0.02    0.09
   3   2 -16    0.22    0.15
   2  -2 -16   -0.04    0.12
  -2  -2  16    0.04    0.13
  -2   2  16    0.04    0.10
   2   2 -16    0.02    0.10
   2   2 -16    0.05    0.14
   1  -2 -16    0.39    0.15
  -1  -2  16    0.62    0.16
  -1   2  16    0.42    0.11
   1   2 -16    0.53    0.17
   1   2 -16    0.46    0.11
   0  -2  16    0.24    0.14
   0  -2 -16    0.09    0.14
   0   2 -16    0.08    0.14
   0   2 -16   -0.01    0.08
   0   2  16    0.15    0.11
   1  -2  16    0.09    0.13
  -1  -2 -16   -0.06    0.13
  -1   2 -16    0.11    0.17
   1   2  16   -0.03    0.12
  -2  -2 -16    0.70    0.18
   2   2  16    0.72    0.14
  -2   2 -16    0.86    0.21
   4   3 -16   -0.03    0.12
   4   3 -16    0.19    0.15
  -3  -3  16    2.40    0.29
  -3   3  16    1.91    0.18
   3   3 -16    1.74    0.19
   3   3 -16    2.09    0.27
   2  -3 -16    0.16    0.14
  -2  -3  16    0.06    0.14
   2   3 -16    0.34    0.11
   2   3 -16    0.22    0.15
  -2   3  16    0.11    0.11
  -1  -3  16    0.39    0.16
   1  -3 -16    0.48    0.16
   1   3 -16    0.18    0.09
  -1   3  16    0.34    0.11
   1   3 -16    0.79    0.18
   0  -3  16    1.18    0.21
   0  -3 -16    0.86    0.19
   0   3 -16    1.35    0.22
   0   3  16    1.03    0.16
  -1  -3 -16    1.86    0.25
   1  -3  16    1.50    0.24
   1   3  16    1.79    0.19
  -1   3 -16    1.68    0.25
  -2  -4  16    1.30    0.22
  -2   4  16    1.33    0.15
   2   4 -16    1.37    0.25
   2   4 -16    1.01    0.15
   1  -4 -16    2.66    0.33
  -1  -4  16    2.44    0.31
   1   4 -16    2.90    0.34
  -1   4  16    2.66    0.24
   4   0 -17    0.09    0.11
  -3   0  17    0.14    0.13
   3   0 -17    0.01    0.13
   2   0 -17    0.14    0.14
   1   0 -17    0.32    0.15
   0   0 -17    0.21    0.15
  -1   0 -17    0.03    0.15
   3  -1 -17    0.22    0.14
  -3  -1  17    0.20    0.14
   3   1 -17    0.16    0.11
   3   1 -17    0.05    0.14
   2  -1 -17    3.36    0.35
  -2  -1  17    3.13    0.35
   2   1 -17    3.30    0.27
   2   1 -17    3.20    0.36
   1  -1 -17    0.21    0.15
   1   1 -17    0.22    0.16
   1   1 -17    0.22    0.11
  -1   1  17    0.35    0.11
   0  -1 -17    0.13    0.15
   0   1 -17   -0.05    0.14
   0   1  17   -0.02    0.10
  -1  -1 -17    0.94    0.22
  -1   1 -17    1.02    0.20
   1   1  17    0.82    0.15
  -3   2  17    0.63    0.13
   3   2 -17    0.73    0.13
   3   2 -17    0.51    0.18
  -2  -2  17    2.69    0.34
   2  -2 -17    2.91    0.33
   2   2 -17    2.83    0.25
  -2   2  17    2.70    0.25
   2   2 -17    2.82    0.34
  -1  -2  17    0.04    0.14
   1  -2 -17   -0.05    0.14
   1   2 -17   -0.16    0.09
  -1   2  17    0.08    0.10
   1   2 -17   -0.10    0.15
   0  -2  17    0.23    0.16
   0  -2 -17    0.42    0.18
   0   2  17    0.46    0.13
   0   2 -17    0.29    0.17
   0   0   0    0.00    0.00
;
_shelx_hkl_checksum              2432
loop_
_space_group_symop_operation_xyz
'x, y, z'
'-x, y+1/2, -z+1/2'
'-x, -y, -z'
'x, -y-1/2, z-1/2'
loop_
_atom_site_label
_atom_site_type_symbol
_atom_site_fract_x
_atom_site_fract_y
_atom_site_fract_z
_atom_site_U_iso_or_equiv
_atom_site_adp_type
_atom_site_occupancy
_atom_site_site_symmetry_order
_atom_site_calc_flag
_atom_site_refinement_flags_posn
_atom_site_refinement_flags_adp
_atom_site_refinement_flags_occupancy
_atom_site_disorder_assembly
_atom_site_disorder_group
Cl1 Cl 0.42221(8) -0.39061(7) 0.12353(5) 0.0665(2) Uani 1 1 d . . . . .
F1 F 0.27829(17) -0.09466(16) 0.22757(8) 0.0601(3) Uani 1 1 d . . . . .
C1 C 0.1948(2) 0.1254(2) -0.01440(12) 0.0374(4) Uani 1 1 d . . . . .
N1 N 0.1402(3) 0.2197(2) 0.15185(12) 0.0579(5) Uani 1 1 d D . . . .
H1 H 0.092(3) 0.322(3) 0.1304(19) 0.070(7) Uiso 1 1 d D . . . .
H2 H 0.144(3) 0.189(4) 0.2153(14) 0.076(7) Uiso 1 1 d D . . . .
F2 F 0.2458(2) 0.02211(19) -0.17154(8) 0.0733(4) Uani 1 1 d . . . . .
C2 C 0.2008(2) 0.0982(2) 0.08994(12) 0.0369(4) Uani 1 1 d . . . . .
N2 N 0.0668(2) 0.4161(2) -0.10007(14) 0.0592(5) Uani 1 1 d . . . . .
C3 C 0.2732(2) -0.0661(2) 0.12843(12) 0.0397(4) Uani 1 1 d . . . . .
C4 C 0.3341(2) -0.1947(2) 0.06878(13) 0.0424(4) Uani 1 1 d . . . . .
C5 C 0.3261(3) -0.1695(3) -0.03420(14) 0.0499(4) Uani 1 1 d . . . . .
H5 H 0.366089 -0.257121 -0.075258 0.060 Uiso 1 1 calc R U . . .
C6 C 0.2568(2) -0.0103(3) -0.07211(12) 0.0457(4) Uani 1 1 d . . . . .
C7 C 0.1241(2) 0.2877(2) -0.06159(13) 0.0429(4) Uani 1 1 d . . . . .
loop_
_atom_site_aniso_label
_atom_site_aniso_U_11
_atom_site_aniso_U_22
_atom_site_aniso_U_33
_atom_site_aniso_U_23
_atom_site_aniso_U_13
_atom_site_aniso_U_12
Cl1 0.0837(4) 0.0485(3) 0.0687(4) 0.0160(2) 0.0160(3) 0.0208(2)
F1 0.0909(8) 0.0558(7) 0.0325(6) 0.0077(4) 0.0053(5) 0.0082(6)
C1 0.0396(7) 0.0380(8) 0.0345(8) 0.0034(6) 0.0052(6) -0.0024(6)
N1 0.0941(13) 0.0438(9) 0.0363(8) -0.0012(7) 0.0115(8) 0.0160(9)
F2 0.1215(11) 0.0682(8) 0.0341(6) 0.0068(5) 0.0248(6) 0.0179(8)
C2 0.0415(8) 0.0358(8) 0.0331(8) -0.0025(6) 0.0040(6) -0.0035(6)
N2 0.0725(11) 0.0541(10) 0.0521(10) 0.0140(8) 0.0126(8) 0.0139(8)
C3 0.0460(8) 0.0408(8) 0.0313(8) 0.0026(6) 0.0024(6) -0.0040(7)
C4 0.0451(8) 0.0367(8) 0.0456(9) 0.0047(7) 0.0069(7) 0.0013(7)
C5 0.0652(11) 0.0435(10) 0.0440(9) -0.0032(7) 0.0183(8) 0.0059(8)
C6 0.0591(10) 0.0478(10) 0.0316(8) 0.0024(7) 0.0117(7) 0.0013(8)
C7 0.0471(9) 0.0458(10) 0.0364(8) 0.0035(7) 0.0083(6) 0.0005(7)
loop_
_atom_type_symbol
_atom_type_description
_atom_type_scat_dispersion_real
_atom_type_scat_dispersion_imag
_atom_type_scat_source
C C 0.0033 0.0016 'International Tables Vol C Tables 4.2.6.8 and 6.1.1.4'
H H 0.0000 0.0000 'International Tables Vol C Tables 4.2.6.8 and 6.1.1.4'
N N 0.0061 0.0033 'International Tables Vol C Tables 4.2.6.8 and 6.1.1.4'
F F 0.0171 0.0103 'International Tables Vol C Tables 4.2.6.8 and 6.1.1.4'
Cl Cl 0.1484 0.1585 'International Tables Vol C Tables 4.2.6.8 and 6.1.1.4'
loop_
_geom_angle_atom_site_label_1
_geom_angle_atom_site_label_2
_geom_angle_atom_site_label_3
_geom_angle
_geom_angle_site_symmetry_1
_geom_angle_site_symmetry_3
_geom_angle_publ_flag
C6 C1 C2 119.01(15) . . ?
C6 C1 C7 119.80(15) . . ?
C2 C1 C7 121.18(15) . . ?
C2 N1 H1 122.7(17) . . ?
C2 N1 H2 117.5(18) . . ?
H1 N1 H2 120(2) . . ?
N1 C2 C3 120.10(15) . . ?
N1 C2 C1 123.47(15) . . ?
C3 C2 C1 116.42(14) . . ?
F1 C3 C4 120.42(15) . . ?
F1 C3 C2 117.13(15) . . ?
C4 C3 C2 122.44(15) . . ?
C3 C4 C5 121.28(16) . . ?
C3 C4 Cl1 118.80(13) . . ?
C5 C4 Cl1 119.92(14) . . ?
C6 C5 C4 116.69(16) . . ?
C6 C5 H5 121.7 . . ?
C4 C5 H5 121.7 . . ?
F2 C6 C5 119.43(16) . . ?
F2 C6 C1 116.41(16) . . ?
C5 C6 C1 124.15(16) . . ?
N2 C7 C1 179.3(2) . . ?
loop_
_geom_bond_atom_site_label_1
_geom_bond_atom_site_label_2
_geom_bond_distance
_geom_bond_site_symmetry_2
_geom_bond_publ_flag
Cl1 C4 1.7187(17) . ?
F1 C3 1.3426(19) . ?
C1 C6 1.391(2) . ?
C1 C2 1.409(2) . ?
C1 C7 1.428(2) . ?
N1 C2 1.349(2) . ?
N1 H1 0.874(17) . ?
N1 H2 0.878(17) . ?
F2 C6 1.3470(19) . ?
C2 C3 1.404(2) . ?
N2 C7 1.139(2) . ?
C3 C4 1.367(2) . ?
C4 C5 1.388(2) . ?
C5 C6 1.360(3) . ?
C5 H5 0.9300 . ?
