#------------------------------------------------------------------------------
#$Date: 2022-02-04 21:19:41 +0200 (Fri, 04 Feb 2022) $
#$Revision: 272610 $
#$URL: file:///home/coder/svn-repositories/cod/cif/7/24/41/7244177.cif $
#------------------------------------------------------------------------------
#
# This file is available in the Crystallography Open Database (COD),
# http://www.crystallography.net/
#
# All data on this site have been placed in the public domain by the
# contributors.
#
data_7244177
loop_
_publ_author_name
'Vaganova, Tamara A.'
'Benassi, Enrico'
'Gatilov, Yurij V.'
'Chuikov, Igor P.'
'Pishchur, Denis P.'
'Malykhin, Evgenij V.'
_publ_section_title
;
 Polyhalogenated aminobenzonitriles vs. their co-crystals with 18-crown-6:
 amino group position as a tool to control crystal packing and solid-state
 fluorescence
;
_journal_issue                   5
_journal_name_full               CrystEngComm
_journal_page_first              987
_journal_page_last               1001
_journal_paper_doi               10.1039/D1CE01469B
_journal_volume                  24
_journal_year                    2022
_chemical_formula_moiety         'C7 H2 Cl F3 N2'
_chemical_formula_sum            'C7 H2 Cl F3 N2'
_chemical_formula_weight         206.56
_chemical_melting_point          396
_chemical_name_systematic        2-amino-4-chloro-3,5,6-trifluorobenzonitrile
_space_group_crystal_system      monoclinic
_space_group_IT_number           12
_space_group_name_Hall           '-C 2y'
_space_group_name_H-M_alt        'C 1 2/m 1'
_atom_sites_solution_hydrogens   geom
_atom_sites_solution_primary     direct
_atom_sites_solution_secondary   difmap
_audit_creation_method           SHELXL-2018/3
_audit_update_record
;
2021-10-27 deposited with the CCDC.	2021-12-20 downloaded from the CCDC.
;
_cell_angle_alpha                90
_cell_angle_beta                 99.955(8)
_cell_angle_gamma                90
_cell_formula_units_Z            4
_cell_length_a                   9.7777(19)
_cell_length_b                   7.7816(15)
_cell_length_c                   10.2460(16)
_cell_measurement_reflns_used    2405
_cell_measurement_temperature    296(2)
_cell_measurement_theta_max      26.08
_cell_measurement_theta_min      3.37
_cell_volume                     767.8(2)
_computing_cell_refinement       'Bruker SAINT'
_computing_data_collection       'Bruker APEX2'
_computing_data_reduction        'Bruker SAINT'
_computing_molecular_graphics    'Bruker SHELXTL'
_computing_publication_material  'Bruker SHELXTL'
_computing_structure_refinement  'SHELXL-2018/3 (Sheldrick, 2018)'
_computing_structure_solution    'SHELXS-97 (Sheldrick, 2008)'
_diffrn_ambient_temperature      296(2)
_diffrn_measured_fraction_theta_full 0.976
_diffrn_measured_fraction_theta_max 0.971
_diffrn_measurement_device_type  'Bruker APEX-II CCD'
_diffrn_measurement_method       '\f and \w scans'
_diffrn_radiation_type           MoK\a
_diffrn_radiation_wavelength     0.71073
_diffrn_reflns_av_R_equivalents  0.0230
_diffrn_reflns_av_unetI/netI     0.1039
_diffrn_reflns_Laue_measured_fraction_full 0.976
_diffrn_reflns_Laue_measured_fraction_max 0.971
_diffrn_reflns_limit_h_max       12
_diffrn_reflns_limit_h_min       -12
_diffrn_reflns_limit_k_max       9
_diffrn_reflns_limit_k_min       -9
_diffrn_reflns_limit_l_max       10
_diffrn_reflns_limit_l_min       -12
_diffrn_reflns_number            3105
_diffrn_reflns_point_group_measured_fraction_full 0.976
_diffrn_reflns_point_group_measured_fraction_max 0.971
_diffrn_reflns_theta_full        25.242
_diffrn_reflns_theta_max         26.145
_diffrn_reflns_theta_min         3.366
_diffrn_source                   'sealed tube'
_exptl_absorpt_coefficient_mu    0.497
_exptl_absorpt_correction_T_max  0.6938
_exptl_absorpt_correction_T_min  0.5694
_exptl_absorpt_correction_type   multi-scan
_exptl_absorpt_process_details   SADABS-2008/1
_exptl_crystal_colour            yellow
_exptl_crystal_density_diffrn    1.787
_exptl_crystal_description       prism
_exptl_crystal_F_000             408
_exptl_crystal_size_max          0.660
_exptl_crystal_size_mid          0.420
_exptl_crystal_size_min          0.380
_refine_diff_density_max         0.365
_refine_diff_density_min         -0.410
_refine_diff_density_rms         0.093
_refine_ls_extinction_method     none
_refine_ls_goodness_of_fit_ref   1.016
_refine_ls_hydrogen_treatment    constr
_refine_ls_matrix_type           full
_refine_ls_number_parameters     67
_refine_ls_number_reflns         799
_refine_ls_number_restraints     0
_refine_ls_restrained_S_all      1.016
_refine_ls_R_factor_all          0.1221
_refine_ls_R_factor_gt           0.0962
_refine_ls_shift/su_max          0.000
_refine_ls_shift/su_mean         0.000
_refine_ls_structure_factor_coef Fsqd
_refine_ls_weighting_details
'w=1/[\s^2^(Fo^2^)+(0.0039P)^2^+14.9187P] where P=(Fo^2^+2Fc^2^)/3'
_refine_ls_weighting_scheme      calc
_refine_ls_wR_factor_gt          0.2726
_refine_ls_wR_factor_ref         0.2820
_reflns_Friedel_coverage         0.000
_reflns_number_gt                505
_reflns_number_total             799
_reflns_threshold_expression     'I > 2\s(I)'
_cod_data_source_file            d1ce01469b2.cif
_cod_data_source_block           D-Mal1275
_cod_depositor_comments
'Adding full bibliography for 7244175--7244182.cif.'
_cod_original_sg_symbol_H-M      'C 2/m'
_cod_database_code               7244177
_shelx_shelxl_version_number     2018/3
_shelx_space_group_comment
;
The symmetry employed for this shelxl refinement is uniquely defined
by the following loop, which should always be used as a source of
symmetry information in preference to the above space-group names.
They are only intended as comments.
;
_shelx_estimated_absorpt_t_min   0.735
_shelx_estimated_absorpt_t_max   0.834
_shelx_res_file
;
TITL Mal127_0m in C2/m
    Mal1275.res
    created by SHELXL-2018/3 at 12:43:42 on 19-Aug-2021
CELL 0.71073   9.7777   7.7816  10.2460  90.000  99.955  90.000
ZERR    4.00   0.0019   0.0015   0.0016   0.000   0.008   0.000
LATT  7
SYMM -X, Y, -Z
SFAC C H N F CL
UNIT 28 8 8 12 4
TEMP 23.000
SIZE 0.38 0.42 0.66
REM Old TITL Mal127_0m in C2
REM SHELXT solution in C2/m
REM R1 0.191,  Rweak 0.037,  Alpha 0.166,  Orientation as input
REM Formula found by SHELXT:  C7 N F4 Cl
L.S. 15
ACTA
BOND $H
FMAP 2
exyz   f1 n1
eadp   f1 n1
PLAN 5
rem   EXTI   0.020(10)
WGHT    0.003900   14.918700
FVAR       0.30611
CL1   5    0.729690    0.500000    0.048487    10.50000    0.06164    0.09865 =
         0.06298    0.00000    0.02983    0.00000
F1    4    0.424490    0.198391    0.324406    10.50000    0.10229    0.06940 =
         0.09335    0.00416    0.04088   -0.04063
N1    3    0.424490    0.198391    0.324406    10.50000    0.10229    0.06940 =
         0.09335    0.00416    0.04088   -0.04063
AFIX  93
H1    2    0.454091    0.102620    0.297976    10.50000   -1.20000
H2    2    0.365147    0.198512    0.377337    10.50000   -1.20000
AFIX   0
C1    1    0.423385    0.500000    0.326166    10.50000    0.03259    0.05430 =
         0.04293    0.00000    0.01288    0.00000
N2    3    0.240135    0.500000    0.475806    10.50000    0.05887    0.19964 =
         0.07386    0.00000    0.03474    0.00000
F2    4    0.611937    0.196574    0.159236    11.00000    0.09639    0.03616 =
         0.09609   -0.01032    0.04177    0.01124
C2    1    0.470961    0.347837    0.283002    11.00000    0.04722    0.06399 =
         0.04788   -0.00506    0.00999   -0.01427
C3    1    0.565269    0.349967    0.198886    11.00000    0.04677    0.02876 =
         0.05222   -0.00030    0.01192   -0.00223
C4    1    0.614711    0.500000    0.155884    10.50000    0.03926    0.03643 =
         0.04207    0.00000    0.01221    0.00000
C5    1    0.319593    0.500000    0.410800    10.50000    0.03744    0.08871 =
         0.04843    0.00000    0.01050    0.00000

HKLF 4




REM  Mal127_0m in C2/m
REM wR2 = 0.2820, GooF = S = 1.016, Restrained GooF = 1.016 for all data
REM R1 = 0.0962 for 505 Fo > 4sig(Fo) and 0.1221 for all 799 data
REM 67 parameters refined using 0 restraints

END

WGHT      0.0000     10.5813

REM Highest difference peak  0.365,  deepest hole -0.410,  1-sigma level  0.093
Q1    1   0.7500  0.2500  0.0000  10.50000  0.05    0.36
Q2    1   0.7009  0.4099 -0.0526  11.00000  0.05    0.35
Q3    1   0.2982  0.2520  0.4509  11.00000  0.05    0.30
Q4    1   0.2426  0.3947  0.5525  11.00000  0.05    0.29
Q5    1   0.1807  0.7217  0.4537  11.00000  0.05    0.29
;
_shelx_res_checksum              88322
_shelx_hkl_file
;
  -2   0   0   69.13   11.25
   2   0   0   71.16   11.30
   4   0   0    0.07    0.35
  -4   0   0    0.09    0.30
  -6   0   0  262.44   42.70
   6   0   0  270.63   42.75
   8   0   0    0.55    0.80
  -8   0   0    0.61    0.80
  10   0   0   -0.03    0.95
  -1  -1   0  261.14   56.65
  -1  -1   0  263.50   42.55
   1  -1   0  265.10   42.60
   1   1   0  264.24   48.15
  -1   1   0  263.64   42.60
   1   1   0  269.80   42.60
   1   1   0  259.30   56.65
   3  -1   0   21.97    3.85
  -3  -1   0   23.11    3.85
  -3   1   0   21.34    3.85
   3   1   0   23.10    3.85
   5  -1   0   61.43   10.10
  -5  -1   0   60.05   10.05
   5   1   0   60.85   10.10
  -5   1   0   59.70   10.05
   7  -1   0   33.52    5.90
  -7  -1   0   31.31    5.85
   7   1   0   32.29    5.90
  -7   1   0   30.39    5.80
   9  -1   0    1.10    1.00
   9   1   0    0.90    1.00
  11  -1   0   -0.14    1.05
 -11  -1   0   -0.16    1.60
  11   1   0   -0.16    1.10
   0  -2   0    9.45    2.00
   0  -2   0    9.18    1.75
   0  -2   0    9.16    1.75
   0   2   0   10.02    2.00
   0   2   0    8.91    1.75
   0   2   0    9.07    1.75
  -2  -2   0  814.34  129.30
   2  -2   0  819.92  129.40
  -2  -2   0  797.98  172.05
  -2   2   0  806.53  129.45
   2   2   0  813.89  129.40
   2   2   0  801.09  172.10
  -4  -2   0  226.77   50.75
  -4  -2   0  241.62   38.15
   4  -2   0  242.16   38.30
  -4   2   0  239.29   38.20
   4   2   0  244.09   38.35
  -6  -2   0    7.05    2.70
  -6  -2   0    6.61    2.00
   6  -2   0    7.28    2.00
   6   2   0    6.96    2.10
  -6   2   0    7.22    2.00
  -8  -2   0    1.81    2.45
   8  -2   0    1.18    0.90
   8   2   0    1.11    0.95
 -10  -2   0   -0.03    1.65
  10  -2   0    0.53    1.05
  10   2   0    0.07    1.10
  -1  -3   0  257.14   40.40
  -1  -3   0  261.40   46.05
   1  -3   0  257.54   45.95
   1  -3   0  255.97   40.55
  -1   3   0  246.44   40.75
   1   3   0  240.51   40.55
  -1   3   0  254.15   40.55
   1   3   0  251.23   46.00
   1   3   0  246.40   40.60
   1   3   0  240.91   53.90
   3  -3   0  245.15   39.20
  -3  -3   0  244.15   39.15
  -3  -3   0  240.55   52.10
   3   3   0  252.69   44.35
   3   3   0  234.78   52.10
  -3   3   0  249.07   39.35
   3   3   0  249.01   39.25
  -5  -3   0   42.61    9.75
   5  -3   0   42.89    7.30
  -5  -3   0   41.23    7.30
   5   3   0   42.90    7.35
   5   3   0   42.77    8.05
  -5   3   0   41.64    7.30
  -7  -3   0   13.15    3.25
  -7  -3   0   14.58    4.45
   7  -3   0   14.08    3.35
  -7   3   0   13.05    3.20
   7   3   0   15.57    3.40
   9  -3   0   15.06    3.80
  -9  -3   0   13.97    4.95
   9   3   0   14.11    3.75
 -11  -3   0    0.89    1.85
  11  -3   0    0.28    1.20
  11   3   0    0.57    1.30
   0  -4   0  174.10   27.30
   0  -4   0  171.25   30.95
   0  -4   0  168.60   27.25
   0   4   0  172.26   30.95
   0   4   0  164.02   27.25
   0   4   0  167.54   27.25
  -2  -4   0  196.98   34.70
   2  -4   0  188.59   30.60
   2  -4   0  188.76   34.80
  -2  -4   0  189.00   30.60
   2   4   0  184.35   30.60
   2   4   0  190.43   30.65
   2   4   0  189.49   40.75
  -2   4   0  184.05   30.60
  -2   4   0  194.86   30.65
   2   4   0  200.64   34.70
   4  -4   0    4.21    1.75
   4  -4   0    5.04    1.65
  -4  -4   0    4.33    1.50
  -4  -4   0    4.80    2.20
   4   4   0    4.90    1.50
   4   4   0    4.49    1.65
  -4   4   0    4.83    1.55
   4   4   0    4.82    2.00
  -6  -4   0   24.43    6.25
   6  -4   0   22.68    4.65
  -6  -4   0   22.96    4.50
   6   4   0   24.46    4.65
   6   4   0   23.63    4.85
  -6   4   0   21.91    4.55
   8  -4   0   12.01    3.50
  -8  -4   0   13.88    4.75
   8   4   0   12.91    3.50
   8   4   0   13.52    3.25
  10  -4   0    4.82    2.85
 -10  -4   0    4.78    4.00
  10   4   0    4.68    2.35
  10   4   0    4.39    2.90
   1  -5   0   40.71    6.95
  -1  -5   0   40.52    7.75
   1  -5   0   39.56    7.85
  -1  -5   0   39.21    6.90
  -1   5   0   41.48    6.95
   1   5   0   40.54    6.90
   1   5   0   40.56    6.95
  -1   5   0   39.81    6.95
   1   5   0   39.86    7.80
   1   5   0   38.23    9.15
  -3  -5   0   23.86    4.80
  -3  -5   0   23.76    4.45
   3  -5   0   22.94    5.05
   3  -5   0   23.60    4.45
   3   5   0   24.38    4.85
   3   5   0   23.04    5.85
   3   5   0   24.14    4.50
  -3   5   0   24.15    4.45
   3   5   0   23.51    4.40
  -3   5   0   23.24    4.45
   5  -5   0   36.38    6.85
  -5  -5   0   40.71    9.30
   5   5   0   37.24    7.45
  -5   5   0   37.25    6.85
   5   5   0   38.89    6.90
   7  -5   0    0.47    0.90
  -7  -5   0    0.72    1.45
   7   5   0    0.45    1.00
  -9  -5   0   -0.36    1.65
   9  -5   0    0.16    1.05
   9   5   0   -0.04    1.15
   9   5   0    0.23    0.80
   0  -6   0  207.47   33.45
   0  -6   0  205.31   37.90
   0   6   0  207.19   33.45
   0   6   0  208.17   33.40
   2  -6   0   25.85    4.80
   2  -6   0   22.93    5.30
  -2  -6   0   23.61    4.70
  -2  -6   0   23.77    5.20
   2   6   0   25.04    4.80
   2   6   0   23.28    4.65
   2   6   0   26.41    5.25
  -2   6   0   23.04    4.70
   2   6   0   24.76    6.20
  -2   6   0   24.30    4.75
   4  -6   0    1.26    1.00
   4   6   0    1.86    1.75
  -4   6   0    1.05    0.90
   4   6   0    1.85    1.55
   4   6   0    1.15    0.95
  -4   6   0    1.21    1.00
   6  -6   0   12.25    3.25
  -6   6   0   12.56    3.25
   6   6   0   12.07    3.10
   6   6   0   11.71    3.30
  -8  -6   0   -0.15    1.70
   8  -6   0    0.25    1.00
   8   6   0    0.06    0.70
   8   6   0   -0.24    1.05
   1  -7   0   92.04   14.60
  -1  -7   0   83.44   16.40
  -1   7   0   84.07   14.55
  -1   7   0   86.13   14.55
   1   7   0   85.30   14.55
   1   7   0   89.28   14.60
  -3  -7   0    0.94    0.85
   3  -7   0    0.96    0.95
  -3   7   0    0.99    0.90
   3   7   0    1.39    1.00
   3   7   0    0.95    0.80
   5  -7   0   12.29    3.45
   5   7   0   12.75    3.45
   5   7   0   13.27    3.40
  -5   7   0   12.45    3.35
   7  -7   0    4.13    2.55
  -7   7   0    4.19    2.45
   7   7   0    3.67    2.70
   7   7   0    3.81    2.10
   2  -8   0    2.99    2.15
   2   8   0    2.98    2.15
  -2   8   0    3.68    2.05
   4  -8   0    3.81    2.35
   4   8   0    3.39    2.50
   4   8   0    3.78    2.25
  -4   8   0    3.93    2.35
   6  -8   0    0.21    1.10
   6   8   0    0.27    1.05
  -6   8   0    0.23    1.00
   1   9   0    2.53    2.25
  -1   9   0    2.80    2.30
   3  -9   0    0.89    1.10
   3   9   0    0.57    1.10
  -3   9   0    0.57    0.95
  12   0  -1    4.45    2.90
  10   0  -1    0.13    1.00
  -8   0   1    0.03    0.65
   8   0  -1   -0.07    0.65
   6   0  -1  163.85   25.75
  -6   0   1  154.40   25.70
  -4   0   1   42.41    7.25
   4   0  -1   44.67    7.30
   2   0  -1    9.84    1.95
  -2   0   1    9.69    1.95
  -2   0  -1  208.21   33.10
   2   0   1  207.91   33.15
  -4   0  -1   17.30    3.15
   4   0   1   17.28    3.15
   6   0   1    4.34    1.65
  -6   0  -1    4.51    1.65
   8   0   1   52.44    9.20
  10   0   1    0.67    1.05
 -11  -1   1   11.93    4.70
  11  -1  -1   10.54    3.50
  11   1  -1   10.28    3.60
   9  -1  -1   19.94    4.35
   9   1  -1   19.86    4.40
  -7  -1   1   65.26   11.15
   7  -1  -1   67.66   11.20
  -7   1   1   64.18   11.10
   7   1  -1   66.77   11.20
   5  -1  -1   66.07   10.95
  -5  -1   1   65.98   10.95
   5   1  -1   67.51   10.95
  -5   1   1   64.42   10.90
  -3  -1   1   20.66    3.50
  -3  -1   1   18.38    4.60
   3  -1  -1   20.38    3.50
   3   1  -1   20.77    3.50
  -3   1   1   20.38    3.50
  -1  -1   1   18.54    3.10
   1  -1  -1   19.20    3.10
  -1  -1   1   16.40    4.10
   1   1  -1   19.00    3.10
  -1   1   1   19.42    3.10
   1   1  -1   18.66    3.55
   1   1  -1   16.58    4.10
   1  -1   1    1.30    0.45
   1  -1   1    1.54    0.55
  -1  -1  -1    1.20    0.55
  -1  -1  -1    1.36    0.40
  -1   1  -1    1.35    0.45
  -1   1  -1    1.30    0.55
   1   1   1    1.20    0.30
   1   1   1    1.12    0.50
   1   1   1    1.20    0.40
   3  -1   1    6.51    1.40
  -3  -1  -1    6.43    1.45
  -3   1  -1    6.74    1.40
   3   1   1    6.31    1.45
  -5  -1  -1    6.22    1.60
   5  -1   1    5.59    1.70
  -5   1  -1    5.52    1.65
   5   1   1    6.36    1.65
  -7  -1  -1   13.36    3.10
   7  -1   1   13.98    3.20
  -7   1  -1   13.10    3.10
   7   1   1   14.26    3.20
   9  -1   1   12.84    3.35
   9   1   1   12.38    3.40
 -11  -1  -1    2.07    2.15
  11   1   1    3.12    2.65
  10  -2  -1   12.01    3.70
 -10  -2   1   14.19    5.15
  10   2  -1   13.35    3.85
  -8  -2   1    1.37    1.45
   8  -2  -1    1.81    1.80
   8   2  -1    1.90    1.75
  -8   2   1    1.17    0.85
  -6  -2   1    0.30    0.80
   6  -2  -1    0.41    0.55
  -6   2   1    0.42    0.55
   4  -2  -1   78.68   12.70
  -4  -2   1   77.64   12.70
  -4  -2   1   75.07   16.90
  -4   2   1   77.42   12.70
   4   2  -1   78.90   12.70
   2  -2  -1   61.91   10.10
  -2  -2   1   56.70   13.40
  -2  -2   1   62.98   10.10
  -2   2   1   63.59   10.10
   2   2  -1   64.42   10.15
   2   2  -1   63.67   11.45
   2   2  -1   61.32   13.45
   0  -2  -1    7.87    1.55
   0  -2   1    8.12    1.80
   0  -2  -1    8.16    1.70
   0  -2   1    7.87    1.60
   0  -2   1    8.33    1.60
   0  -2  -1    8.28    1.55
   0   2   1    8.39    1.55
   0   2  -1    7.77    1.60
   0   2  -1    7.82    1.55
   0   2   1    8.11    1.55
   0   2  -1    8.05    1.80
   2  -2   1    3.76    1.25
  -2  -2  -1    4.05    1.05
  -2  -2  -1    3.80    1.35
   2  -2   1    4.01    1.05
  -2   2  -1    4.07    1.05
   2   2   1    4.21    0.95
   2   2   1    3.97    1.40
   2   2   1    3.92    1.05
   4  -2   1   31.58    5.55
  -4  -2  -1   33.12    5.50
  -4  -2  -1   31.02    7.40
  -4   2  -1   31.61    5.55
   4   2   1   32.79    5.55
  -6  -2  -1   34.40    6.10
   6  -2   1   34.86    6.20
  -6  -2  -1   33.68    8.20
   6   2   1   36.12    6.20
  -6   2  -1   33.09    6.15
  -8  -2  -1    4.97    2.95
   8  -2   1    4.60    2.10
   8   2   1    3.47    2.25
  10  -2   1    6.35    2.75
 -10  -2  -1    5.80    3.90
  10   2   1    5.82    2.80
  11  -3  -1    1.47    1.35
  11   3  -1    1.51    1.40
  -9  -3   1   92.56   20.65
   9  -3  -1   91.29   15.55
   9   3  -1   89.52   15.50
  -7  -3   1    9.77    3.45
  -7  -3   1    9.11    2.40
   7  -3  -1    8.41    2.60
  -7   3   1    7.84    2.50
   7   3  -1   10.07    2.60
  -5  -3   1   25.22    4.75
  -5  -3   1   26.31    6.35
   5  -3  -1   26.56    4.75
   5   3  -1   26.57    4.80
   5   3  -1   26.56    5.20
  -5   3   1   25.24    4.70
  -3  -3   1   85.20   13.75
  -3  -3   1   83.18   18.30
   3  -3  -1   83.29   13.75
   3   3  -1   83.55   18.30
   3   3  -1   84.75   13.75
  -3   3   1   83.19   13.75
   3   3  -1   86.61   15.55
  -1  -3   1    7.48    1.55
   1  -3  -1    6.60    1.55
  -1  -3   1    6.57    1.70
   1  -3  -1    5.69    1.70
   1   3  -1    7.29    1.55
  -1   3   1    6.59    1.50
   1   3  -1    6.39    1.55
   1   3  -1    7.00    2.00
   1   3  -1    6.46    1.75
  -1   3   1    6.64    1.55
  -1  -3  -1   38.07    7.20
   1  -3   1   39.06    6.50
  -1  -3  -1   39.31    6.45
   1  -3   1   38.88    7.40
   1   3   1   38.33    6.45
   1   3   1   39.98    7.20
  -1   3  -1   38.10    6.45
   1   3   1   37.14    6.40
   1   3   1   36.01    8.50
  -1   3  -1   38.87    7.40
  -1   3  -1   36.85    6.45
  -3  -3  -1    0.12    0.35
  -3  -3  -1    0.14    0.55
   3  -3   1    0.01    0.40
   3   3   1    0.10    0.50
  -3   3  -1    0.03    0.35
   3   3   1    0.14    0.40
   5  -3   1   33.42    5.95
  -5  -3  -1   32.76    5.90
  -5  -3  -1   34.40    7.95
  -5   3  -1   32.86    5.95
   5   3   1   32.30    6.35
   5   3   1   34.97    6.00
   7  -3   1    4.90    2.10
  -7  -3  -1    4.89    2.90
   7   3   1    4.97    2.15
   9  -3   1    0.05    0.95
  -9  -3  -1    0.37    1.45
   9   3   1    0.19    0.90
 -11  -3  -1   24.71    7.70
 -10  -4   1    9.45    4.55
  10  -4  -1    9.20    3.20
  10   4  -1    9.23    3.00
  10   4  -1    8.21    3.25
  -8  -4   1   32.05    8.30
   8  -4  -1   31.57    6.15
   8   4  -1   31.76    6.50
   8   4  -1   30.12    6.15
  -6  -4   1   11.10    3.65
  -6  -4   1   10.77    2.60
   6  -4  -1    9.25    2.65
   6   4  -1   11.17    2.75
   6   4  -1   10.50    2.70
  -6   4   1    8.97    2.60
  -4  -4   1   -0.14    0.45
   4  -4  -1    0.01    0.50
  -4  -4   1    0.03    0.80
   4   4  -1   -0.06    0.60
   4   4  -1   -0.06    0.45
   4   4  -1   -0.13    0.50
  -4   4   1   -0.05    0.40
   2  -4  -1   38.86    7.75
   2  -4  -1   40.57    6.85
  -2  -4   1   40.09    7.70
  -2  -4   1   41.69    6.90
   2   4  -1   39.22    6.80
   2   4  -1   39.07    9.10
   2   4  -1   39.91    6.90
  -2   4   1   41.96    6.85
   2   4  -1   41.59    7.75
  -2   4   1   39.24    6.85
   0  -4  -1   15.52    2.95
   0  -4  -1   15.60    3.30
   0  -4   1   15.33    3.40
   0  -4  -1   15.82    3.00
   0  -4   1   15.42    3.05
   0  -4   1   16.10    3.05
   0   4   1   15.69    2.95
   0   4  -1   15.59    3.05
   0   4  -1   15.73    3.00
   0   4   1   15.31    2.95
   0   4  -1   15.70    3.45
   2  -4   1   12.66    2.65
  -2  -4  -1   12.79    2.60
  -2  -4  -1   12.78    2.75
   2  -4   1   11.79    3.00
   2   4   1   12.78    2.55
  -2   4  -1   13.41    2.65
   2   4   1   13.16    3.45
   2   4   1   13.02    2.65
   2   4   1   13.01    2.80
  -2   4  -1   12.91    2.65
  -4  -4  -1   29.15    5.35
   4  -4   1   29.14    6.15
  -4  -4  -1   31.11    7.25
   4  -4   1   30.78    5.40
   4   4   1   29.73    5.80
   4   4   1   30.90    5.45
   4   4   1   28.73    7.10
  -4   4  -1   30.21    5.40
  -6  -4  -1    0.89    1.25
   6  -4   1    0.64    0.80
   6   4   1    1.16    1.15
   6   4   1    0.73    0.85
  -6   4  -1    0.71    0.75
  -8  -4  -1    2.79    3.00
   8   4   1    2.55    1.50
   8   4   1    2.21    2.05
 -10  -4  -1   17.30    6.05
  10  -4   1   16.56    4.40
  10   4   1   14.89    4.35
  -9  -5   1    1.98    2.00
   9  -5  -1    2.81    2.40
   9   5  -1    1.68    1.35
  -7  -5   1    2.56    3.15
   7   5  -1    2.13    2.20
   5  -5  -1   22.03    4.45
  -5  -5   1   24.44    6.10
  -5  -5   1   21.90    4.40
   5   5  -1   23.27    4.50
  -5   5   1   21.83    4.40
   5   5  -1   22.10    4.80
   3  -5  -1    4.33    1.85
  -3  -5   1    3.86    1.65
   3  -5  -1    4.24    1.65
  -3  -5   1    4.24    1.65
   3   5  -1    4.47    1.55
  -3   5   1    4.45    1.60
   3   5  -1    4.35    1.75
   3   5  -1    4.48    1.80
   3   5  -1    3.39    1.80
  -3   5   1    4.43    1.60
  -1  -5   1    6.75    2.05
   1  -5  -1    6.94    1.90
  -1  -5   1    7.06    1.90
   1  -5  -1    6.60    2.00
   1   5  -1    6.49    2.30
   1   5  -1    6.69    2.10
  -1   5   1    7.13    1.85
  -1   5   1    6.81    1.80
   1   5  -1    6.87    1.90
   1   5  -1    6.77    1.80
  -1  -5  -1   -0.08    0.40
   1  -5   1   -0.10    0.50
  -1  -5  -1   -0.08    0.45
   1  -5   1   -0.08    0.50
   1   5   1    0.02    0.55
  -1   5  -1   -0.12    0.45
   1   5   1   -0.01    0.40
   1   5   1   -0.06    0.45
  -1   5  -1   -0.14    0.45
  -3  -5  -1    5.21    1.60
  -3  -5  -1    4.94    1.70
   3  -5   1    5.02    2.00
   3  -5   1    5.18    1.80
   3   5   1    5.19    2.20
   3   5   1    5.32    1.85
   3   5   1    5.74    1.70
  -3   5  -1    5.16    1.80
  -3   5  -1    5.19    1.75
   3   5   1    5.25    1.70
   5   5   1    0.68    0.80
   7  -5   1    1.03    1.00
   7   5   1    1.14    1.05
  -9  -5  -1    0.11    1.75
   9  -5   1    0.43    1.15
   9   5   1    0.08    1.20
   8  -6  -1    1.09    1.15
  -8  -6   1    0.87    1.85
   8   6  -1    1.12    0.95
   8   6  -1    0.69    1.20
   6  -6  -1   20.17    4.25
  -6   6   1   19.78    4.25
   6   6  -1   18.49    4.35
   6   6  -1   19.60    4.45
   4  -6  -1    4.95    2.00
  -4   6   1    3.82    1.95
   4   6  -1    5.61    2.05
  -4   6   1    4.23    1.95
   4   6  -1    5.22    2.00
   2  -6  -1    1.50    0.90
  -2  -6   1    1.17    1.00
   2  -6  -1    1.13    0.95
  -2  -6   1    1.51    0.85
  -2   6   1    1.12    0.85
   2   6  -1    1.65    1.65
  -2   6   1    1.18    0.90
   2   6  -1    1.20    0.85
   2   6  -1    1.66    0.95
   0  -6  -1   36.02    7.35
   0  -6   1   35.26    7.45
   0  -6   1   38.73    6.65
   0  -6  -1   34.89    6.60
   0   6  -1   39.60    7.50
   0   6   1   36.14    6.60
   0   6  -1   38.29    6.65
   0   6  -1   36.29    6.60
   0   6   1   36.04    6.60
  -2  -6  -1   35.50    6.45
   2  -6   1   36.01    7.55
  -2  -6  -1   36.26    7.15
   2  -6   1   36.06    6.60
  -2   6  -1   34.73    6.55
   2   6   1   34.39    6.45
  -2   6  -1   35.60    6.55
   2   6   1   40.37    6.55
   2   6   1   33.74    8.60
  -4   6  -1    0.41    0.90
   4   6   1    0.15    0.80
   6  -6   1    2.20    2.05
   6   6   1    2.79    1.55
   6   6   1    2.90    2.10
  -6   6  -1    2.14    2.05
  -8  -6  -1   10.44    4.65
   8  -6   1   10.22    3.30
   8   6   1    8.22    3.35
   7  -7  -1    2.64    2.35
   7   7  -1    2.49    2.45
  -7   7   1    2.25    2.25
   7   7  -1    2.39    2.00
   5  -7  -1    0.84    1.00
   5   7  -1    0.70    1.00
  -5   7   1    0.82    0.95
  -3  -7   1    0.05    0.65
   3  -7  -1   -0.06    0.75
   3   7  -1   -0.10    0.75
  -3   7   1   -0.16    0.70
  -3   7   1   -0.06    0.65
   3   7  -1   -0.11    0.75
   1  -7  -1   11.37    2.85
   1   7  -1   11.93    3.20
   1   7  -1   10.65    2.95
  -1  -7  -1   19.82    4.70
   1   7   1   21.68    4.45
  -1   7  -1   22.74    4.45
   1   7   1   19.48    4.40
  -3  -7  -1    1.50    1.65
   3  -7   1    2.58    2.10
  -3   7  -1    2.23    2.00
   3   7   1    2.11    1.70
   5  -7   1   -0.03    0.90
  -5   7  -1   -0.28    0.80
   5   7   1    0.01    0.85
   5   7   1   -0.12    0.70
   7  -7   1    0.55    1.15
   7   7   1    0.43    1.20
  -7   7  -1    0.66    1.05
   6  -8  -1    1.12    1.20
   6   8  -1    1.13    1.05
   6   8  -1    1.17    1.20
  -6   8   1    1.11    1.15
   4  -8  -1    2.61    2.25
   4   8  -1    2.91    2.20
  -4   8   1    2.76    2.20
   2  -8  -1    4.25    2.35
   2   8  -1    4.11    2.35
  -2   8   1    4.82    2.20
   0   8   1    0.80    0.90
   0   8  -1    0.51    0.85
   2  -8   1    0.34    0.95
  -2   8  -1    0.45    0.85
   2   8   1    0.72    0.95
   4  -8   1    2.56    2.20
  -4   8  -1    2.67    2.15
   4   8   1    2.72    2.35
   6  -8   1    0.37    1.20
  -6   8  -1    0.53    1.10
   3  -9  -1    1.04    1.10
  -3   9   1    0.63    0.95
   3   9  -1    0.93    1.10
   1   9  -1    0.27    0.90
  -1   9   1    0.30    0.95
   1   9   1   -0.23    0.85
  -1   9  -1   -0.21    0.85
   3  -9   1    0.14    1.05
  -3   9  -1    0.30    0.90
   3   9   1    0.23    1.10
  12   0  -2   -0.22    1.00
  -8   0   2   -0.03    0.60
   8   0  -2   -0.02    0.65
   6   0  -2    2.47    1.35
  -6   0   2    2.82    1.35
   4   0  -2  998.16  159.90
  -4   0   2 1000.00  159.60
  -2   0   2    5.71    1.15
   2   0  -2    6.24    1.20
   0   0  -2  370.21   70.20
   0   0  -2  403.82   61.40
  -4   0  -2    1.06    0.90
   4   0   2    1.26    0.90
  -6   0  -2    0.42    0.60
   6   0   2    0.36    0.60
   8   0   2   40.03    7.30
  10   0   2    0.33    1.00
  11  -1  -2    2.24    2.30
 -11  -1   2    2.67    3.15
   9  -1  -2    4.86    2.35
   9   1  -2    4.65    2.35
  -7  -1   2    8.41    2.25
   7  -1  -2    8.55    2.30
  -7  -1   2    8.52    2.95
   7   1  -2    8.42    2.30
  -7   1   2    8.21    2.20
   5  -1  -2  130.62   20.75
  -5  -1   2  129.28   20.75
  -5  -1   2  122.42   27.50
   5   1  -2  128.71   20.75
  -5   1   2  129.63   20.70
  -3  -1   2  263.40   41.25
  -3  -1   2  240.39   54.45
   3  -1  -2  254.16   41.30
  -3   1   2  265.75   41.25
   3   1  -2  256.53   41.35
  -1  -1   2  123.82   20.00
   1  -1  -2  126.35   20.00
   1   1  -2  123.39   23.00
   1   1  -2  128.46   20.15
  -1   1   2  128.64   20.00
   1   1  -2  120.29   26.90
  -1  -1  -2  588.07   92.15
   1  -1   2  597.57  105.25
   1  -1   2  570.33   92.45
  -1  -1  -2  515.86  122.70
   1   1   2  597.70   92.20
  -1   1  -2  568.85   92.40
  -1   1  -2  615.38  105.35
  -3  -1  -2   32.39    5.45
   3  -1   2   32.17    5.45
   3  -1   2   32.66    6.20
  -3   1  -2   33.20    5.50
   3   1   2   31.94    5.45
   5  -1   2    0.54    0.55
  -5   1  -2    0.58    0.55
  -7  -1  -2    8.01    2.30
   7  -1   2    8.52    2.40
  -7   1  -2    8.30    2.40
   7   1   2    8.95    2.45
   9  -1   2    4.49    2.25
   9   1   2    3.81    2.35
  11  -1   2    0.00    1.05
  11   1   2   -0.15    1.15
  10  -2  -2    0.67    1.05
  10   2  -2    0.89    1.15
  -8  -2   2    2.35    1.95
   8  -2  -2    2.96    1.95
  -8   2   2    2.92    1.85
   8   2  -2    2.67    1.95
  -6  -2   2    2.68    1.40
  -6  -2   2    2.50    1.75
   6  -2  -2    2.73    1.40
  -6   2   2    2.32    1.35
   6   2  -2    2.53    1.45
  -4  -2   2    6.90    2.15
   4  -2  -2    7.37    1.65
  -4  -2   2    6.34    1.65
   4   2  -2    6.18    1.70
  -4   2   2    7.33    1.60
  -2  -2   2  291.52   66.15
  -2  -2   2  311.88   49.70
   2  -2  -2  315.81   49.85
   2   2  -2  313.40   56.95
   2   2  -2  301.35   66.40
   2   2  -2  314.63   50.15
  -2   2   2  318.89   49.90
   0  -2  -2  779.21  130.55
   0  -2   2  819.12  131.00
   0  -2   2  831.66  130.95
   0  -2   2  848.95  149.15
   0   2  -2  826.07  149.20
   0   2   2  814.09  130.60
  -2  -2  -2   13.44    3.40
   2  -2   2   14.40    2.60
  -2  -2  -2   13.87    2.50
   2  -2   2   15.40    3.00
  -2   2  -2   13.89    2.60
   2   2   2   13.63    2.55
  -4  -2  -2  182.48   41.55
   4  -2   2  195.19   35.55
   4  -2   2  195.71   31.25
  -4  -2  -2  197.23   31.20
  -4   2  -2  196.29   31.25
   4   2   2  202.24   31.25
  -6  -2  -2   46.32   11.25
  -6  -2  -2   49.90    8.45
   6  -2   2   50.97    8.55
  -6   2  -2   48.84    8.50
   6   2   2   50.15    8.50
   8  -2   2    6.29    2.45
  -8  -2  -2    7.31    3.50
   8   2   2    6.52    2.55
  10  -2   2    0.43    1.10
 -10  -2  -2    0.36    1.65
  10   2   2    0.18    1.10
  11  -3  -2    1.11    1.25
 -11  -3   2    1.13    1.80
  11   3  -2    0.86    1.20
  -7  -3   2   63.69   14.25
  -7  -3   2   61.58   10.65
   7  -3  -2   63.46   10.70
  -7   3   2   60.20   10.65
   7   3  -2   62.81   10.70
  -5  -3   2  105.25   17.35
   5  -3  -2  105.55   17.35
  -5  -3   2  104.92   23.10
   5   3  -2  109.39   17.40
   5   3  -2  105.23   19.60
  -5   3   2  105.48   17.30
  -3  -3   2  110.61   24.45
   3  -3  -2  112.59   18.35
  -3  -3   2  114.85   18.40
   3   3  -2  116.99   20.85
   3   3  -2  112.73   18.40
   3   3  -2  112.12   24.45
  -3   3   2  115.10   18.35
  -1  -3   2  467.30   82.75
   1  -3  -2  455.71   72.90
  -1  -3   2  461.71   72.85
  -1   3   2  465.43   73.10
   1   3  -2  450.54   83.40
   1   3  -2  439.95   72.95
   1   3  -2  454.48   73.25
  -1   3   2  440.30   72.90
   1  -3   2  306.69   55.95
  -1  -3  -2  317.38   55.60
   1  -3   2  306.35   49.20
  -1  -3  -2  308.11   49.15
   1   3   2  304.38   49.05
  -1   3  -2  307.33   56.10
  -1   3  -2  300.33   49.40
   1   3   2  304.53   49.20
   1   3   2  302.39   65.00
  -1   3  -2  308.12   49.45
   3  -3   2   54.14   10.05
  -3  -3  -2   51.67    8.70
  -3  -3  -2   50.40   11.65
   3  -3   2   53.31    8.80
   3   3   2   54.04    9.60
   3   3   2   52.65    8.75
   3   3   2   52.71   11.65
  -3   3  -2   51.24    8.80
  -5  -3  -2   43.87    7.50
   5  -3   2   44.47    7.55
  -5  -3  -2   42.87   10.05
   5  -3   2   42.63    8.60
  -5   3  -2   42.81    7.55
   5   3   2   42.33    8.10
   5   3   2   45.71    7.55
   7  -3   2    6.59    2.35
  -7  -3  -2    7.06    3.20
   7   3   2    6.68    2.35
  -9  -3  -2    0.80    1.60
   9  -3   2    0.23    1.00
   9   3   2    0.32    1.00
  10  -4  -2    1.15    1.15
 -10  -4   2    1.24    1.75
  10   4  -2    0.85    1.20
  -8  -4   2   17.95    5.70
   8  -4  -2   17.84    4.10
   8   4  -2   18.36    4.30
   8   4  -2   17.03    4.15
  -6  -4   2   22.32    5.90
  -6  -4   2   21.95    4.35
   6  -4  -2   21.61    4.40
   6   4  -2   22.55    4.45
   6   4  -2   22.90    4.75
  -6   4   2   21.13    4.35
  -4  -4   2   49.17   11.90
   4  -4  -2   53.72    8.95
  -4  -4   2   52.64    8.95
   4   4  -2   54.25   10.10
  -4   4   2   54.51    8.95
   4   4  -2   53.21    9.00
   4   4  -2   52.22   11.95
   2  -4  -2   22.90    4.10
  -2  -4   2   22.39    4.65
  -2  -4   2   23.60    4.15
   2   4  -2   22.21    5.45
   2   4  -2   22.34    4.15
   2   4  -2   22.85    4.65
  -2   4   2   23.83    4.10
   2   4  -2   21.78    4.10
  -2   4   2   21.98    4.05
   0  -4   2  128.06   23.10
   0  -4   2  125.66   20.30
   0  -4  -2  125.20   20.20
   0  -4   2  127.88   20.30
   0  -4  -2  121.92   22.85
   0   4  -2  124.46   20.30
   0   4   2  125.84   20.20
   0   4  -2  125.52   20.25
   0   4  -2  124.45   23.05
   0   4   2  123.03   20.20
  -2  -4  -2   84.21   15.45
  -2  -4  -2   85.18   13.80
   2  -4   2   85.96   15.85
   2  -4   2   83.58   13.90
   2   4   2   84.60   18.40
   2   4   2   82.85   13.80
   2   4   2   85.95   13.85
  -2   4  -2   82.30   13.85
  -2   4  -2   85.86   13.90
   4  -4   2   96.64   15.75
   4  -4   2   94.68   17.90
  -4  -4  -2   97.07   20.90
  -4  -4  -2   91.53   15.65
   4   4   2   99.28   15.75
   4   4   2   95.25   17.45
  -4   4  -2   94.35   15.75
   6  -4   2    2.61    1.80
  -6  -4  -2    2.66    2.45
   6   4   2    2.15    1.15
   6   4   2    2.57    1.80
   8  -4   2    4.04    2.45
  -8  -4  -2    5.48    3.45
   8   4   2    4.74    1.65
   8   4   2    4.47    2.45
 -10  -4  -2    4.68    4.25
  10  -4   2    3.99    2.85
  10   4   2    3.73    2.85
   9  -5  -2    1.13    1.05
  -9  -5   2    0.92    1.65
   9   5  -2    0.80    1.10
   9   5  -2    1.07    1.00
   7  -5  -2    0.25    0.85
   7   5  -2    0.53    0.85
  -5  -5   2    0.24    0.65
   5  -5  -2    0.65    0.70
   5   5  -2    0.37    0.75
   5   5  -2    0.62    0.70
  -5   5   2    0.53    0.60
   3  -5  -2  126.18   20.35
  -3  -5   2  125.35   20.40
  -3  -5   2  125.96   23.10
  -3   5   2  130.57   20.40
   3   5  -2  121.77   27.10
  -3   5   2  121.95   20.35
   3   5  -2  121.98   20.35
   3   5  -2  124.70   20.45
   3   5  -2  125.33   23.10
  -1  -5   2   40.59    7.15
   1  -5  -2   42.39    7.10
  -1  -5   2   41.46    8.10
   1  -5  -2   39.41    7.95
  -1   5   2   42.71    7.10
  -1   5   2   39.37    7.05
   1   5  -2   42.11    8.10
   1   5  -2   41.60    7.15
   1   5  -2   40.08    7.10
   1  -5   2   11.41    2.60
  -1  -5  -2   11.12    2.55
  -1  -5  -2   11.05    2.45
   1  -5   2   10.70    2.85
  -1   5  -2   11.22    2.50
  -1   5  -2   10.61    2.90
   1   5   2   11.48    3.15
   1   5   2   11.13    2.45
   1   5   2   11.34    2.40
  -1   5  -2   10.32    2.55
  -3  -5  -2   22.24    4.35
   3  -5   2   22.67    4.45
  -3   5  -2   23.36    4.45
  -3   5  -2   23.58    4.45
   3   5   2   23.10    5.80
   3   5   2   23.05    4.45
   3   5   2   23.71    4.30
  -5  -5  -2    6.92    3.10
   5   5   2    6.70    2.25
   5   5   2    6.34    1.85
  -7  -5  -2    2.86    2.85
   7   5   2    2.33    2.10
   7   5   2    2.49    1.35
   9  -5   2   -0.12    1.10
  -9  -5  -2   -0.17    1.65
   9   5   2   -0.37    1.10
  -8  -6   2   -0.01    1.65
   8  -6  -2    0.12    0.95
   8   6  -2    0.07    1.00
   8   6  -2    0.12    0.85
   6  -6  -2    4.56    2.15
  -6   6   2    4.28    2.10
   6   6  -2    3.72    2.10
   4  -6  -2   21.19    4.20
  -4   6   2   21.01    4.20
   4   6  -2   20.43    4.30
  -4   6   2   19.64    4.20
   4   6  -2   21.14    4.65
  -2  -6   2    0.81    0.90
   2  -6  -2    1.67    1.45
   2  -6  -2    0.99    0.90
  -2  -6   2    1.65    1.40
  -2   6   2    1.03    0.80
  -2   6   2    1.05    0.80
   2   6  -2    1.19    0.75
   0  -6  -2   34.51    7.20
   0  -6  -2   33.85    6.50
   0  -6   2   33.93    7.45
   0  -6   2   38.99    6.60
   0   6   2   34.61    8.50
   0   6  -2   38.44    6.60
   0   6  -2   35.98    6.50
   0   6  -2   39.89    7.50
   0   6   2   35.96    6.50
   0   6   2   36.67    6.50
   2  -6   2  144.79   23.55
  -2  -6  -2  142.59   26.40
   2   6   2  141.41   23.45
   2   6   2  149.88   23.50
  -2   6  -2  143.64   23.55
  -2   6  -2  146.39   23.55
   2   6   2  138.63   31.15
   4  -6   2    3.99    2.35
  -4   6  -2    4.36    2.30
   4   6   2    3.70    2.05
   6  -6   2    0.21    0.95
  -6   6  -2    0.42    0.95
   6   6   2    0.65    1.00
  -8  -6  -2    5.10    3.95
   8  -6   2    4.44    2.60
   8   6   2    3.08    2.65
   7   7  -2    2.50    2.35
  -7   7   2    2.16    2.15
   7   7  -2    2.07    2.05
   5  -7  -2   13.33    3.50
  -5   7   2   13.13    3.40
   5   7  -2   13.60    3.60
   5   7  -2   13.41    3.65
   3  -7  -2   15.74    3.55
  -3   7   2   15.32    3.55
   3   7  -2   15.14    3.65
   3   7  -2   15.78    4.00
  -3   7   2   16.15    3.55
   1  -7  -2    0.77    0.90
  -1   7   2    0.58    0.90
  -1   7   2    0.68    0.80
   1   7  -2    1.00    0.95
   1  -7   2   96.90   16.55
  -1  -7  -2   99.33   18.50
   1   7   2  101.53   16.55
   1   7   2   99.09   16.45
  -1   7  -2   97.82   16.55
  -3  -7  -2   25.28    5.65
   3  -7   2   28.56    5.60
   3   7   2   26.07    5.35
  -3   7  -2   27.18    5.50
   3   7   2   31.04    5.60
   5  -7   2    0.55    1.05
   5   7   2    0.67    1.00
   5   7   2    0.53    0.80
  -5   7  -2    0.51    1.00
   7  -7   2    4.34    2.75
   7   7   2    4.54    2.80
  -7   7  -2    4.79    2.65
   6  -8  -2   -0.29    0.90
  -6   8   2   -0.22    0.80
   6   8  -2   -0.11    0.80
   6   8  -2    0.02    0.95
   4  -8  -2    0.60    1.00
   4   8  -2    0.52    1.00
   4   8  -2    0.46    1.00
  -4   8   2    0.53    0.90
   2  -8  -2    7.89    2.70
   2   8  -2    7.40    2.75
   2   8  -2    8.08    3.05
  -2   8   2    8.47    2.60
   0   8   2    1.92    1.65
   0   8  -2    1.19    1.00
   0   8   2    1.44    1.00
   2  -8   2   -0.09    0.90
  -2   8  -2   -0.21    0.75
   2   8   2   -0.05    0.65
   2   8   2   -0.05    0.85
  -4   8  -2    2.46    2.25
   4   8   2    2.64    2.25
  -6   8  -2    0.29    1.10
   3  -9  -2    0.28    0.90
  -3   9   2    0.00    0.80
   3   9  -2    0.20    0.90
   3   9  -2    0.28    0.95
   1   9  -2    2.30    2.20
  -1   9   2    1.25    1.10
  -1   9  -2    0.96    1.05
   1   9   2    1.12    1.10
   3  -9   2    1.37    1.25
  -3   9  -2    2.33    2.20
  12   0  -3   -0.24    0.95
 -12   0   3   -0.12    1.40
  10   0  -3   20.17    4.60
  -8   0   3   34.17    6.40
   8   0  -3   36.36    6.50
  -6   0   3   13.93    2.90
   6   0  -3   15.04    3.00
  -4   0   3  238.01   38.60
   4   0  -3  245.93   38.65
  -2   0   3   50.42   11.10
  -2   0   3   52.96    8.35
   2   0   3    0.62    0.65
   4   0   3   79.41   15.10
   4   0   3   83.03   13.40
  -4   0  -3   83.98   13.40
   6   0   3    9.61    2.40
  -6   0  -3    9.45    2.35
   8   0   3    0.03    0.80
  10   0   3   11.27    3.35
 -11  -1   3    0.17    1.30
  11  -1  -3    0.13    0.85
  11   1  -3    0.09    0.90
  -9  -1   3   30.54    7.85
   9  -1  -3   30.11    6.00
   9   1  -3   31.39    6.05
  -7  -1   3   41.94   10.10
   7  -1  -3   45.22    7.65
  -7  -1   3   43.46    7.60
  -7   1   3   43.46    7.60
   7   1  -3   43.89    7.65
  -5  -1   3  147.85   23.90
  -5  -1   3  144.29   31.80
   5  -1  -3  151.66   23.95
  -5   1   3  149.41   23.90
   5   1  -3  148.47   23.95
  -3  -1   3  114.30   18.65
  -3  -1   3  111.84   24.75
   3  -1  -3  118.29   18.65
  -3   1   3  117.45   18.65
   3   1  -3  118.46   18.65
   1  -1  -3   30.91    4.95
  -1  -1   3   31.43    5.05
   1   1  -3   31.35    5.80
   1   1  -3   28.69    6.65
  -1  -1  -3    9.82    2.40
  -1  -1  -3    9.96    1.75
   1  -1   3   10.93    2.25
   1  -1   3   11.18    1.85
  -1  -1  -3    9.23    2.00
  -1   1  -3   11.08    2.25
   1   1   3    9.75    1.75
  -1   1  -3   10.61    1.85
   3  -1   3    6.17    1.65
   3  -1   3    6.28    1.45
  -3  -1  -3    5.65    1.45
  -3   1  -3    6.57    1.45
   3   1   3    5.40    1.40
   3   1   3    5.39    1.30
   5  -1   3    0.52    0.55
   5  -1   3    0.41    0.60
  -5   1  -3    0.49    0.55
   7  -1   3    0.52    0.75
   7  -1   3    0.51    0.75
   7   1   3    0.83    0.80
   9  -1   3    2.28    2.10
   9   1   3    2.49    2.25
 -11  -1  -3   -0.26    1.75
  10  -2  -3    4.79    2.45
 -10  -2   3    6.03    3.40
  10   2  -3    4.42    2.50
  -8  -2   3   27.01    5.35
   8  -2  -3   27.97    5.40
  -8  -2   3   27.22    7.25
  -8   2   3   26.88    5.35
   8   2  -3   29.05    5.45
   6  -2  -3    0.85    0.65
  -6  -2   3    0.87    0.90
  -6   2   3    1.00    0.65
  -4  -2   3    9.64    2.05
  -4  -2   3    9.68    2.70
   4  -2  -3    9.61    2.05
   4   2  -3    9.62    2.10
   4   2  -3    9.39    2.65
  -4   2   3    9.97    2.00
   2  -2  -3   38.77    6.35
  -2  -2   3   38.69    6.45
   2   2  -3   38.32    7.35
  -2   2   3   39.17    6.35
   2   2  -3   37.06    8.50
   2   2  -3   38.98    6.45
   0  -2   3   36.83    6.90
   0  -2   3   36.29    6.00
   0  -2  -3   36.85    5.90
   0  -2   3   35.71    6.00
   0   2  -3   36.53    6.00
   0   2   3   35.72    5.85
   0   2   3   34.70    7.80
   0   2   3   36.09    5.90
   0   2  -3   35.28    6.85
   0   2  -3   36.13    6.00
   2  -2   3    9.33    1.85
  -2  -2  -3    8.86    2.40
  -2  -2  -3    8.83    1.80
   2  -2   3    9.63    2.25
  -2   2  -3    9.59    2.20
   2   2   3    8.96    1.80
  -2   2  -3    9.40    1.90
  -4  -2  -3    0.30    0.75
   4  -2   3    0.20    0.50
  -4   2  -3    0.24    0.50
  -6  -2  -3    9.27    3.30
  -6  -2  -3    9.96    2.35
   6  -2   3    9.09    2.70
   6  -2   3    9.29    2.45
   6   2   3   10.07    2.45
  -6   2  -3    9.22    2.45
   8  -2   3    4.18    2.35
  -8  -2  -3    6.28    3.20
   8   2   3    5.57    2.30
  10  -2   3    1.01    1.25
  10   2   3    0.85    1.20
  11  -3  -3    3.50    2.60
 -11  -3   3    3.98    3.55
  11   3  -3    3.77    2.65
  -9  -3   3   18.99    5.60
   9  -3  -3   17.18    4.20
   9   3  -3   18.47    4.30
   7  -3  -3  197.43   31.70
  -7  -3   3  189.13   31.65
  -7  -3   3  198.65   42.15
  -7   3   3  192.12   31.65
   7   3  -3  200.10   31.75
  -5  -3   3   52.57   11.85
   5  -3  -3   51.86    8.85
  -5  -3   3   53.18    8.90
  -5   3   3   52.59    8.85
   5   3  -3   51.75   10.05
   5   3  -3   53.49    8.95
   5   3  -3   51.60   11.80
   3  -3  -3   36.74    6.25
  -3  -3   3   37.11    6.35
  -3   3   3   37.38    6.25
   3   3  -3   35.98    8.40
   3   3  -3   37.05    7.20
   3   3  -3   37.77    6.35
  -1  -3   3   59.23   11.30
  -1  -3   3   61.98    9.90
   1  -3  -3   60.99    9.80
   1   3  -3   57.01    9.85
   1   3  -3   59.03   11.25
  -1   3   3   58.38    9.75
  -1   3   3   61.42    9.80
   1   3  -3   61.59    9.90
  -1  -3  -3   10.82    2.30
   1  -3   3   11.41    2.35
  -1  -3  -3   12.19    2.20
   1  -3   3   11.40    2.75
  -1   3  -3   11.70    2.30
   1   3   3   11.01    2.15
   1   3   3   11.68    2.20
  -1   3  -3   11.68    2.35
   1   3   3   10.47    2.85
  -1   3  -3   11.64    2.75
  -3  -3  -3   14.22    3.70
  -3  -3  -3   13.08    2.65
   3  -3   3   14.08    3.30
   3  -3   3   13.55    2.80
   3   3   3   13.82    2.75
  -3   3  -3   13.57    2.80
   5  -3   3    2.81    1.60
   5  -3   3    2.29    1.80
  -5  -3  -3    2.65    2.10
  -5  -3  -3    3.03    1.40
  -5   3  -3    2.72    1.55
   5   3   3    3.19    1.60
   7  -3   3    5.48    2.25
  -7  -3  -3    6.64    3.30
   7   3   3    6.20    2.25
   9  -3   3   -0.06    1.00
  -9  -3  -3    0.37    1.55
   9   3   3    0.06    1.00
 -10  -4   3    3.01    3.25
  10  -4  -3    1.32    1.15
  10   4  -3    2.20    2.25
  10   4  -3    2.35    2.40
  -8  -4   3   38.46    9.75
   8  -4  -3   39.41    7.30
   8   4  -3   39.44    7.40
   8   4  -3   39.69    8.15
  -8   4   3   40.85    7.60
   6  -4  -3   27.53    5.10
  -6  -4   3   25.90    6.90
  -6  -4   3   25.69    5.10
   6   4  -3   27.52    5.65
   6   4  -3   27.06    5.20
  -6   4   3   26.53    5.05
   4  -4  -3   11.74    2.65
  -4  -4   3   12.89    2.70
  -4   4   3   12.46    2.60
   4   4  -3   12.39    3.05
   4   4  -3   11.50    3.45
   4   4  -3   12.60    2.75
  -2  -4   3    1.58    1.20
   2  -4  -3    1.58    1.00
  -2  -4   3    1.33    1.10
  -2   4   3    1.38    1.00
   2   4  -3    1.24    1.10
   2   4  -3    1.44    1.25
   2   4  -3    1.57    1.20
  -2   4   3    1.58    0.95
   2   4  -3    1.56    1.00
   0  -4  -3   16.66    3.20
   0  -4   3   15.80    3.35
   0  -4   3   17.40    3.80
   0  -4   3   18.03    3.30
   0  -4  -3   16.53    3.50
   0   4  -3   17.58    3.25
   0   4   3   17.26    3.20
   0   4  -3   18.12    3.35
   0   4  -3   17.44    3.80
   0   4   3   17.45    3.20
   0   4   3   16.07    4.15
  -2  -4  -3    7.09    1.80
  -2  -4  -3    7.07    1.65
   2  -4   3    7.71    2.00
   2  -4   3    6.90    2.25
   2   4   3    7.58    2.40
  -2   4  -3    7.42    1.95
   2   4   3    7.60    1.80
  -2   4  -3    7.55    1.90
   2   4   3    7.33    1.90
  -2   4  -3    7.32    2.35
   4  -4   3    3.97    2.00
  -4  -4  -3    4.94    2.40
  -4  -4  -3    4.22    1.50
   4  -4   3    4.58    1.75
  -4   4  -3    3.96    1.65
   4   4   3    4.75    1.75
  -6  -4  -3   10.66    3.75
   6  -4   3   10.41    2.85
   6   4   3   10.88    2.85
  -8  -4  -3    0.58    1.45
   8  -4   3    0.01    1.00
   8   4   3    0.21    0.95
 -10  -4  -3   -0.06    1.70
   9  -5  -3    8.74    2.95
  -9  -5   3    9.97    4.30
   9   5  -3    8.67    3.10
   9   5  -3    8.64    3.05
   7  -5  -3    6.49    2.40
  -7  -5   3    5.17    3.50
  -7   5   3    5.86    2.30
   7   5  -3    7.11    2.55
   7   5  -3    5.61    2.55
   5  -5  -3    9.41    2.40
  -5  -5   3    7.76    2.45
   5   5  -3    7.75    2.50
  -5   5   3    9.40    2.35
   5   5  -3    9.75    2.65
   3  -5  -3   46.78    7.95
  -3  -5   3   45.54    9.10
  -3  -5   3   47.69    8.05
  -3   5   3   48.73    8.00
   3   5  -3   47.01    9.10
   3   5  -3   42.34   10.55
  -3   5   3   46.28    7.95
   3   5  -3   44.91    7.95
   3   5  -3   46.44    8.05
  -1  -5   3   13.40    3.25
   1  -5  -3   13.04    2.80
  -1  -5   3   12.94    2.90
   1  -5  -3   12.76    2.95
   1   5  -3   13.05    3.25
  -1   5   3   12.94    2.70
  -1   5   3   12.73    2.70
   1   5  -3   12.78    2.90
   1   5  -3   12.41    2.75
  -1  -5  -3    0.63    0.55
   1  -5   3    0.55    0.70
   1  -5   3    0.57    0.70
  -1  -5  -3    0.56    0.50
   1   5   3    0.64    0.55
  -1   5  -3    0.42    0.65
  -1   5  -3    0.59    0.80
   1   5   3    0.68    0.60
  -1   5  -3    0.32    0.55
   1   5   3    0.67    0.80
   3  -5   3    0.18    0.70
   3  -5   3    0.19    0.80
  -3  -5  -3    0.25    0.55
   3   5   3    0.30    0.85
  -3   5  -3    0.16    0.65
   3   5   3    0.30    0.55
   3   5   3    0.31    0.65
  -3   5  -3    0.17    0.55
   5  -5   3    0.02    0.85
  -5  -5  -3    0.54    1.30
   5   5   3    0.63    0.90
  -5   5  -3    0.29    0.85
  -7  -5  -3    0.26    1.30
   7   5   3    0.42    0.95
  -9  -5  -3   -0.20    1.50
   9   5   3   -0.39    1.10
   8  -6  -3    4.35    2.50
   8   6  -3    4.39    2.45
   8   6  -3    4.66    2.60
   6  -6  -3    7.53    2.55
  -6   6   3    6.49    2.45
   6   6  -3    6.48    2.55
   6   6  -3    6.74    2.65
  -6   6   3    7.85    2.40
   4  -6  -3   19.14    3.85
  -4   6   3   17.37    3.75
  -4   6   3   17.53    3.75
   4   6  -3   18.36    4.25
   4   6  -3   16.83    3.90
  -2  -6   3    2.89    2.00
  -2  -6   3    3.96    1.70
   2   6  -3    3.78    1.80
   2   6  -3    3.43    1.95
  -2   6   3    3.22    1.60
  -2   6   3    3.42    1.60
   0  -6  -3    0.44    0.70
   0   6   3    0.42    0.65
   0   6  -3    0.80    0.90
   0   6  -3    0.75    0.70
   0   6   3    0.44    0.75
   0   6   3    0.62    0.90
   0   6  -3    0.78    0.75
   2  -6   3   20.18    4.15
  -2  -6  -3   17.50    4.00
  -2   6  -3   20.60    4.10
   2   6   3   17.18    5.05
   2   6   3   18.66    3.90
   2   6   3   20.78    4.05
   4  -6   3   18.38    4.10
   4   6   3   19.39    4.05
  -4   6  -3   17.79    4.05
   4   6   3   15.02    3.80
   6   6   3    0.13    0.95
  -8  -6  -3    0.53    1.70
   8  -6   3    0.35    1.10
   8   6   3    0.21    1.10
   7  -7  -3    5.06    2.50
   7   7  -3    4.68    2.45
   7   7  -3    5.26    2.65
  -7   7   3    5.13    2.40
   5  -7  -3    8.08    2.75
  -5   7   3    8.34    2.70
   5   7  -3    8.31    2.80
   5   7  -3    8.10    2.95
   3  -7  -3    0.78    0.85
  -3   7   3    0.60    0.80
  -3   7   3    0.45    0.70
   3   7  -3    0.66    0.90
   1  -7  -3    0.07    0.70
   1   7  -3   -0.08    0.75
   1   7  -3    0.00    0.90
  -1  -7  -3    8.93    2.50
   1  -7   3    7.35    2.80
   1   7   3    8.02    2.60
  -1   7  -3    9.22    2.75
   1   7   3    8.10    2.70
   3  -7   3   13.09    3.60
   3   7   3   13.77    3.50
   3   7   3   10.60    3.15
  -3   7  -3   12.04    3.40
   5  -7   3    0.24    1.05
  -5   7  -3    0.28    0.95
   5   7   3    0.55    1.00
  -7   7  -3   -0.11    1.00
   6  -8  -3    0.38    1.00
   6   8  -3    0.31    0.95
   6   8  -3    0.38    0.95
   4  -8  -3    3.30    2.20
   4   8  -3    2.85    2.40
  -4   8   3    2.94    2.10
   4   8  -3    3.31    2.30
   2  -8  -3    1.02    1.00
  -2   8   3    1.69    1.70
   2   8  -3    2.02    2.30
   2   8  -3    1.04    1.00
   0   8   3    1.94    1.80
   0   8  -3    2.37    2.05
   0   8   3    2.06    2.05
   2  -8   3    0.41    0.95
   2   8   3    0.30    0.95
  -2   8  -3    0.08    0.80
   4  -8   3    0.24    1.05
  -4   8  -3    0.42    0.95
   4   8   3    0.57    1.00
   3  -9  -3    0.46    0.95
   3   9  -3    0.31    0.90
   3   9  -3    0.49    1.00
   1   9  -3    1.03    1.00
  -1   9   3    0.92    1.00
   1   9   3    0.34    0.95
  -1   9  -3    0.48    0.95
  10   0  -4   -0.22    0.75
 -10   0   4   -0.08    1.05
  -6   0   4   13.28    2.80
   6   0  -4   13.78    2.85
  -4   0   4   78.03   17.20
   4   0  -4   82.23   13.05
  -4   0   4   79.59   13.00
  -2   0   4  889.60  141.25
  -2   0   4  856.84  187.65
   2   0  -4  918.44  141.40
   0   0  -4    9.22    2.00
  -2   0  -4  269.87   42.15
  -2   0  -4  259.85   47.95
   2   0   4  264.46   42.15
   2   0   4  267.17   47.95
   4   0   4  752.02  121.15
  -4   0  -4  781.16  121.10
   4   0   4  756.82  137.50
   6   0   4    2.98    1.60
  -6   0  -4    2.78    1.55
   8   0   4    0.26    0.75
   8   0   4    0.52    0.85
  10   0   4    4.84    2.55
  11  -1  -4    2.81    2.25
 -11  -1   4    3.54    3.10
  11   1  -4    2.81    2.30
   9  -1  -4    5.51    2.30
  -9   1   4    5.00    2.15
   9   1  -4    5.12    2.35
  -7  -1   4   26.20    4.85
  -7  -1   4   23.89    6.40
   7  -1  -4   26.60    4.90
  -7   1   4   25.47    4.85
   7   1  -4   26.58    4.90
  -5  -1   4   20.94    5.05
  -5  -1   4   20.53    3.80
   5  -1  -4   20.56    3.80
   5   1  -4   21.41    3.85
  -5   1   4   21.02    3.80
  -3  -1   4  183.38   40.70
   3  -1  -4  196.59   30.60
  -3  -1   4  188.87   30.60
   3   1  -4  190.07   30.65
  -3   1   4  199.66   30.60
   1  -1  -4  261.64   41.80
  -1  -1   4  265.16   41.90
   1   1  -4  256.29   47.95
   1   1  -4  268.47   42.05
   1   1  -4  244.20   55.95
  -1   1   4  280.28   41.75
   1   1  -4  268.15   42.00
  -1  -1  -4   85.22   13.45
  -1  -1  -4   81.33   15.35
   1  -1   4   88.48   15.60
   1  -1   4   87.01   13.60
  -1  -1  -4   75.77   17.95
   1   1   4   85.03   13.45
  -1   1  -4   84.93   13.55
  -1   1  -4   86.54   15.55
  -1   1  -4   86.58   13.60
   3  -1   4  273.95   49.25
  -3  -1  -4  276.94   43.25
   3  -1   4  269.18   43.30
  -3   1  -4  278.12   43.30
   3   1   4  260.40   48.95
  -5  -1  -4    8.28    2.20
   5  -1   4   10.16    2.25
   5  -1   4    9.17    2.45
  -5   1  -4    9.87    2.25
   5   1   4    8.65    2.25
   5   1   4    8.19    2.10
   7  -1   4    0.17    0.75
   7  -1   4    0.31    0.75
   7   1   4    0.00    0.60
   7   1   4    0.47    0.80
   9  -1   4    0.64    1.00
   9   1   4    0.93    1.05
  10  -2  -4    0.80    0.95
 -10  -2   4    0.95    1.45
  10   2  -4    0.94    1.00
  -8  -2   4    1.04    1.40
  -8  -2   4    1.17    0.90
   8  -2  -4    1.08    0.90
  -8   2   4    0.99    0.85
   8   2  -4    1.28    0.95
  -6  -2   4    4.47    2.25
  -6  -2   4    5.39    1.70
   6  -2  -4    4.76    1.75
  -6   2   4    4.54    1.65
   6   2  -4    5.44    1.80
   4  -2  -4    2.04    1.00
  -4  -2   4    2.54    1.05
  -4   2   4    2.04    1.00
   4   2  -4    2.53    1.10
   4   2  -4    2.12    1.35
  -2  -2   4   50.86    8.35
   2  -2  -4   50.08    8.25
  -2   2   4   52.62    8.25
   2   2  -4   50.98    8.35
   2   2  -4   50.28    9.55
   2   2  -4   48.95   11.05
   0  -2   4   45.05    8.40
   0  -2   4   42.76    7.25
   0  -2   4   44.30    7.25
   0   2   4   42.30    7.10
   0   2  -4   45.08    7.30
   0   2  -4   43.97    8.35
   0   2  -4   44.96    7.25
  -2  -2  -4  167.59   26.55
   2  -2   4  165.30   26.70
   2  -2   4  172.46   30.45
  -2  -2  -4  160.87   35.40
  -2   2  -4  167.81   26.70
  -2   2  -4  169.53   30.40
   2   2   4  167.78   26.60
  -2   2  -4  161.08   26.65
   4  -2   4    5.80    1.70
  -4  -2  -4    4.81    2.20
  -4   2  -4    5.45    1.70
   4   2   4    4.35    1.65
  -6  -2  -4   28.12    6.90
   6  -2   4   28.13    5.15
  -6  -2  -4   27.15    5.00
   6  -2   4   26.84    5.75
   6   2   4   28.86    5.10
   6   2   4   24.15    5.10
  -8  -2  -4    5.63    3.30
   8  -2   4    3.74    2.25
   8   2   4    4.53    2.20
  10  -2   4    0.59    1.20
  10   2   4    0.79    1.20
 -11  -3   4    0.70    1.60
  11  -3  -4    0.90    1.10
  11   3  -4    0.72    1.10
  -9  -3   4    9.25    3.90
   9  -3  -4    8.55    2.75
   9   3  -4    8.63    2.85
  -7  -3   4    9.21    2.70
   7  -3  -4    9.44    2.70
  -7  -3   4    9.68    3.80
  -7   3   4    9.08    2.65
   7   3  -4    9.72    2.80
   5  -3  -4  135.78   21.60
  -5  -3   4  131.60   28.75
  -5  -3   4  130.75   21.60
   5   3  -4  131.91   24.55
  -5   3   4  132.41   21.55
   5   3  -4  132.53   28.75
   5   3  -4  135.53   21.65
  -3  -3   4  237.45   37.55
   3  -3  -4  230.48   37.40
   3   3  -4  232.03   42.65
   3   3  -4  231.25   49.85
   3   3  -4  236.04   37.65
  -3   3   4  238.32   37.45
   1  -3  -4   71.57   11.60
  -1  -3   4   71.75   11.75
  -1  -3   4   70.41   13.45
   1   3  -4   71.84   11.75
  -1   3   4   70.63   11.60
   1   3  -4   70.92   13.40
  -1   3   4   72.27   11.65
   1   3  -4   74.16   11.75
  -1  -3  -4  225.95   35.25
   1  -3   4  221.48   35.40
   1  -3   4  221.61   40.30
   1   3   4  213.04   35.20
  -1   3  -4  223.39   35.40
  -1   3  -4  220.90   35.35
   1   3   4  221.29   35.25
   1   3   4  219.12   46.85
  -1   3  -4  222.57   40.30
   3  -3   4   98.23   16.25
   3  -3   4   99.75   18.60
  -3  -3  -4  102.93   21.60
  -3  -3  -4   97.89   16.15
  -3   3  -4   97.50   16.25
   3   3   4  101.84   16.20
  -3   3  -4   99.85   16.30
   5  -3   4   16.63    4.00
   5  -3   4   16.74    3.50
  -5  -3  -4   17.11    4.65
  -5  -3  -4   16.44    3.30
   5   3   4   16.26    3.45
   7  -3   4    3.41    2.05
  -7  -3  -4    3.41    2.80
   7   3   4    3.56    2.05
  -9  -3  -4    0.75    1.65
   9  -3   4    0.16    1.05
   9   3   4    0.45    1.05
 -10  -4   4   -0.14    1.35
  10  -4  -4   -0.23    0.85
  10   4  -4    0.10    0.90
  10   4  -4    0.12    0.95
  -8  -4   4    4.63    3.00
   8  -4  -4    4.24    2.10
  -8   4   4    4.18    2.00
   8   4  -4    4.09    2.20
   8   4  -4    4.61    2.30
  -6  -4   4   43.87   10.70
   6  -4  -4   46.00    7.95
  -6  -4   4   43.40    8.00
   6   4  -4   46.69    9.05
   6   4  -4   44.97    8.10
  -6   4   4   46.01    7.95
   4  -4  -4   12.28    2.75
  -4  -4   4   13.02    2.85
   4   4  -4   12.72    3.25
   4   4  -4   12.87    2.85
   4   4  -4   13.06    3.65
  -4   4   4   12.84    2.70
  -2  -4   4   33.57    6.75
   2  -4  -4   33.31    5.75
  -2  -4   4   34.86    5.90
   2   4  -4   33.27    5.85
   2   4  -4   31.96    7.75
  -2   4   4   33.48    5.75
   2   4  -4   32.90    5.90
  -2   4   4   34.58    5.75
   2   4  -4   32.87    6.70
   0  -4   4   39.77    6.85
   0  -4   4   38.66    7.85
   0   4  -4   39.89    7.80
   0   4   4   39.72    6.65
   0   4   4   40.28    6.70
   0   4  -4   38.88    6.80
   0   4  -4   40.23    6.85
   0   4   4   38.78    8.80
   2  -4   4   29.20    5.20
  -2  -4  -4   28.23    5.00
  -2   4  -4   28.73    5.95
   2   4   4   26.87    4.95
   2   4   4   27.98    5.00
  -2   4  -4   28.47    5.15
  -2   4  -4   28.81    5.10
  -4  -4  -4   13.67    3.90
  -4  -4  -4   12.26    2.75
   4  -4   4   13.47    3.50
   4  -4   4   13.37    3.00
   4   4   4   12.89    2.90
  -4   4  -4   13.21    3.00
  -4   4  -4   12.56    2.90
  -6  -4  -4   23.72    6.40
   6  -4   4   24.16    4.90
   6   4   4   25.26    4.85
   8  -4   4    0.03    1.00
  -8  -4  -4    0.51    1.45
   8   4   4    0.32    0.95
  -9  -5   4    3.92    3.30
   9  -5  -4    2.85    2.15
   9   5  -4    2.72    2.30
   9   5  -4    3.47    2.35
  -7  -5   4    9.15    3.90
   7  -5  -4    8.97    2.65
   7   5  -4    8.72    2.80
   7   5  -4    9.40    3.05
  -7   5   4    9.06    2.60
   5  -5  -4    0.98    0.80
  -5   5   4    1.01    0.75
   5   5  -4    0.59    0.85
   5   5  -4    0.96    0.90
   3  -5  -4   -0.05    0.50
  -3   5   4   -0.04    0.45
  -3   5   4   -0.09    0.50
   3   5  -4   -0.02    0.50
   3   5  -4   -0.17    0.60
   3   5  -4   -0.06    0.70
  -1  -5   4  102.18   19.75
   1  -5  -4   97.25   19.40
  -1  -5   4  109.68   17.40
   1  -5  -4  108.56   17.20
   1   5  -4  101.48   17.25
  -1   5   4  105.05   17.20
   1   5  -4  110.33   17.35
  -1   5   4  107.63   17.20
   1   5  -4  105.98   19.75
   1  -5   4   29.58    5.45
  -1  -5  -4   27.61    5.65
  -1  -5  -4   29.66    5.25
  -1   5  -4   30.12    5.45
   1   5   4   29.96    5.25
   1   5   4   31.19    5.30
   1   5   4   28.54    6.95
  -1   5  -4   29.85    6.25
  -1   5  -4   28.09    5.35
  -3  -5  -4    0.09    0.55
   3  -5   4    0.17    0.75
  -3   5  -4    0.26    0.70
   3   5   4    0.20    0.50
   3   5   4   -0.03    0.70
   3   5   4    0.17    0.85
  -5  -5  -4    6.51    3.25
   5  -5   4    4.18    2.30
   5   5   4    4.86    2.25
  -5   5  -4    5.56    2.40
  -7  -5  -4    0.66    1.40
   7   5   4    0.56    1.00
   8  -6  -4    0.29    0.95
   8   6  -4    0.52    1.00
   8   6  -4    0.43    0.95
   6  -6  -4   -0.22    0.75
  -6   6   4   -0.12    0.70
   6   6  -4   -0.16    0.85
   6   6  -4    0.09    0.75
  -6   6   4   -0.16    0.65
  -4  -6   4   12.80    3.30
   4  -6  -4   13.59    3.10
  -4   6   4   12.39    3.00
   4   6  -4   12.66    3.20
   4   6  -4   12.73    3.50
  -4   6   4   12.40    3.00
  -2  -6   4   21.01    4.15
   2  -6  -4   21.54    4.00
   2  -6  -4   16.74    4.35
  -2   6   4   20.19    3.90
   2   6  -4   20.11    4.65
   2   6  -4   20.11    4.15
  -2   6   4   19.83    3.95
   0  -6  -4    0.40    0.60
   0   6  -4    0.43    0.95
   0   6   4    0.49    0.65
   0   6  -4    0.57    0.75
   0   6   4    0.31    0.70
   2  -6   4   22.59    4.85
   2   6   4   23.21    4.60
  -2   6  -4   25.32    4.85
   2   6   4   25.09    4.75
   2   6   4   24.41    6.15
   4  -6   4   57.27    9.75
   4   6   4   47.82    9.35
  -4   6  -4   55.76    9.65
   4   6   4   56.40    9.55
   6  -6   4    0.02    1.10
  -6   6  -4    0.00    1.00
   6   6   4    0.32    1.05
   7  -7  -4    0.63    0.95
   7   7  -4    0.52    0.95
  -7   7   4    0.47    0.85
   7   7  -4    0.49    0.95
   5  -7  -4    2.97    2.20
   5   7  -4    3.43    2.15
  -5   7   4    3.95    1.95
   5   7  -4    2.89    2.35
  -5   7   4    3.26    2.10
   3  -7  -4   21.96    4.45
   3   7  -4   20.65    4.55
   3   7  -4   21.16    5.05
  -3   7   4   21.29    4.40
  -3   7   4   20.97    4.35
   1  -7  -4    5.20    2.00
   1   7  -4    5.12    2.60
  -1   7   4    4.74    2.15
   1   7  -4    5.83    2.25
  -1   7   4    4.46    1.95
   1   7   4    1.18    1.05
  -1   7  -4    1.44    1.00
   1   7   4    1.12    0.95
   3  -7   4   52.03    9.65
   3   7   4   56.21    9.55
  -3   7  -4   53.24    9.60
   5  -7   4    4.87    2.70
  -5   7  -4    4.87    2.60
   5   7   4    5.53    2.65
   6  -8  -4    0.17    0.95
   6   8  -4    0.23    0.90
   6   8  -4    0.17    0.95
   4  -8  -4   -0.08    0.85
   4   8  -4    0.00    0.80
   4   8  -4   -0.11    0.90
  -4   8   4   -0.10    0.75
   2   8  -4    1.09    1.20
  -2   8   4    0.98    0.90
   2   8  -4    0.98    1.00
   0   8  -4    5.23    2.85
   0   8   4    5.28    2.40
   0   8  -4    5.09    2.40
   2  -8   4    0.64    1.05
  -2   8  -4    0.44    0.90
   2   8   4    0.38    1.05
   4  -8   4    0.20    1.10
   4   8   4    0.24    1.05
  -4   8  -4    0.06    0.90
   1   9  -4   -0.03    0.85
   1   9  -4    0.24    1.05
  -1   9  -4    2.70    2.25
  10   0  -5    0.35    0.85
 -10   0   5    0.47    1.25
  -8   0   5   40.89    7.45
  -8   0   5   41.85    9.80
   8   0  -5   42.69    7.50
  -6   0   5  147.39   23.70
  -6   0   5  145.67   31.45
   6   0  -5  146.25   23.75
   4   0  -5   87.72   14.15
  -4   0   5   86.59   14.10
  -4   0   5   86.70   18.70
   2   0  -5   79.81   12.80
   0   0  -5    8.59    1.95
  -2   0  -5    0.29    0.30
   2   0   5    0.31    0.30
   4   0   5    5.09    1.65
  -4   0  -5    4.41    1.60
  -6   0  -5   13.55    3.10
   6   0   5   13.13    3.20
   6   0   5   13.64    3.10
   8   0   5    0.98    0.95
   8   0   5    0.76    0.95
  10   0   5   -0.12    1.10
  11  -1  -5    4.71    2.45
 -11  -1   5    5.62    3.60
  11   1  -5    4.68    2.55
   9  -1  -5    0.05    0.70
  -9  -1   5    0.25    1.05
  -9  -1   5    0.11    0.65
  -9   1   5    0.08    0.60
   9   1  -5    0.03    0.70
   7  -1  -5   37.74    6.85
  -7  -1   5   38.85    9.00
  -7  -1   5   37.87    6.80
   7   1  -5   40.14    6.90
  -7   1   5   37.56    6.80
  -5  -1   5   35.56    6.15
   5  -1  -5   35.78    6.10
  -5  -1   5   35.13    8.10
   5   1  -5   36.14    6.15
  -5   1   5   35.37    6.10
  -3  -1   5  109.95   23.50
  -3  -1   5  106.25   17.70
   3  -1  -5  111.99   17.65
  -3   1   5  110.83   17.65
   3   1  -5  110.66   17.70
  -1  -1   5   48.88    8.60
   1   1  -5   55.90    8.60
   1   1  -5   55.60   10.00
   1   1  -5   55.61    8.60
   1   1  -5   49.59   11.45
  -1  -1  -5   19.30    3.75
   1  -1   5   19.29    4.00
   1  -1   5   20.67    3.35
  -1  -1  -5   17.62    4.30
  -1   1  -5   19.69    3.95
  -1   1  -5   19.28    3.30
  -1   1  -5   19.68    3.35
  -3  -1  -5    3.76    1.20
   3  -1   5    4.32    1.35
  -3   1  -5    3.71    1.35
   3   1   5    3.93    1.25
  -5  -1  -5    5.18    1.85
   5  -1   5    6.59    2.10
   5  -1   5    7.05    2.00
   5   1   5    5.42    1.60
   5   1   5    5.44    1.90
  -5   1  -5    6.49    1.95
   7  -1   5   -0.15    0.80
   7  -1   5    0.13    0.80
   7   1   5   -0.05    0.80
   7   1   5   -0.05    0.55
   9  -1   5   -0.28    0.95
   9   1   5    0.24    0.90
 -10  -2   5   18.67    5.45
  10  -2  -5   17.33    4.10
  10   2  -5   17.35    4.20
  -8  -2   5   26.58    5.25
   8  -2  -5   27.56    5.30
  -8  -2   5   28.63    7.10
  -8   2   5   27.13    5.25
   8   2  -5   27.82    5.35
  -6  -2   5   38.33    6.70
  -6  -2   5   37.46    8.90
   6  -2  -5   37.85    6.70
  -6   2   5   38.56    6.70
   6   2  -5   38.73    6.80
  -4  -2   5   16.91    3.10
  -4  -2   5   17.12    4.15
   4  -2  -5   15.42    3.05
   4   2  -5   17.79    3.15
  -4   2   5   16.07    3.05
   4   2  -5   16.30    4.10
   4   2  -5   15.50    3.70
  -2  -2   5   28.62    4.90
   2  -2  -5   28.09    4.75
   2   2  -5   29.13    4.90
   2   2  -5   28.41    5.75
   2   2  -5   29.17    6.50
   0   2   5    1.47    0.55
   0   2  -5    1.09    1.20
   0   2   5    1.18    0.55
  -2  -2  -5    4.82    1.10
   2  -2   5    4.64    1.70
  -2  -2  -5    4.28    1.65
   2  -2   5    4.42    1.40
  -2   2  -5    4.50    1.35
  -2   2  -5    4.46    1.30
   2   2   5    4.81    1.15
  -2   2  -5    4.16    1.75
   4  -2   5    2.95    1.65
  -4  -2  -5    2.15    1.85
   4  -2   5    2.91    1.40
  -4   2  -5    2.85    1.40
   6  -2   5    0.13    0.80
  -6  -2  -5   -0.08    1.05
   6  -2   5   -0.11    0.70
  -8  -2  -5    2.97    2.95
   8   2   5    2.49    2.10
  11  -3  -5    3.60    2.45
 -11  -3   5    3.63    3.40
  11   3  -5    2.67    2.50
  -9  -3   5    7.90    3.55
   9  -3  -5    6.21    2.50
  -9   3   5    6.60    2.35
   9   3  -5    7.39    2.60
  -7  -3   5   57.00   13.05
  -7  -3   5   54.57    9.80
   7  -3  -5   57.15    9.80
   7   3  -5   59.21    9.90
   7   3  -5   58.08   11.20
  -7   3   5   54.95    9.75
   5  -3  -5  199.03   32.80
  -5  -3   5  211.18   43.80
  -5  -3   5  200.95   32.90
   5   3  -5  195.76   37.40
   5   3  -5  210.62   43.75
  -5   3   5  203.65   32.85
   5   3  -5  208.45   32.95
  -3  -3   5   68.37   11.40
   3  -3  -5   67.75   11.25
  -3   3   5   70.04   11.25
   3   3  -5   69.00   13.05
   3   3  -5   69.33   11.40
   3   3  -5   68.10   15.10
   1  -3  -5   13.88    2.45
  -1  -3   5   14.18    2.70
  -1  -3   5   13.41    3.20
   1   3  -5   13.69    3.15
  -1   3   5   13.20    2.45
  -1   3   5   12.50    2.45
   1   3  -5   13.89    2.70
   1   3  -5   13.85    2.65
  -1   3   5   12.44    3.15
   1  -3   5   15.42    3.75
   1  -3   5   16.28    3.15
  -1  -3  -5   16.48    2.90
  -1   3  -5   16.14    3.10
   1   3   5   16.78    2.90
  -1   3  -5   15.64    3.70
  -1   3  -5   16.79    3.15
   3  -3   5    6.40    1.85
  -3  -3  -5    5.28    1.55
   3  -3   5    5.38    2.15
  -3  -3  -5    5.70    2.25
   3   3   5    5.46    1.60
  -3   3  -5    6.36    2.15
  -3   3  -5    5.72    1.70
  -3   3  -5    6.13    1.80
   5  -3   5    2.54    1.70
  -5  -3  -5    2.87    2.40
   5  -3   5    2.32    2.05
  -7  -3  -5    2.91    2.85
   7  -3   5    3.10    2.05
   7   3   5    2.78    2.00
  -9  -3  -5    0.58    1.55
   9   3   5    0.51    1.05
 -10  -4   5    0.82    1.50
  10  -4  -5    0.54    0.95
  10   4  -5    0.72    1.05
  10   4  -5    0.81    1.10
   8  -4  -5    4.04    2.10
  -8  -4   5    5.16    2.95
   8   4  -5    4.33    2.45
   8   4  -5    4.95    2.25
  -8   4   5    4.15    2.05
   6  -4  -5   90.13   15.20
  -6  -4   5   90.83   15.25
  -6  -4   5   94.03   20.35
   6   4  -5   90.16   17.35
  -6   4   5   90.95   15.20
   6   4  -5   93.00   15.35
   4  -4  -5    3.65    1.55
  -4   4   5    3.51    1.50
   4   4  -5    2.56    1.75
   4   4  -5    4.01    2.00
   4   4  -5    3.47    2.05
  -2  -4   5    1.88    1.40
   2  -4  -5    2.22    1.15
  -2  -4   5    2.30    1.60
   2   4  -5    2.09    1.60
   2   4  -5    2.31    1.65
  -2   4   5    2.49    1.15
  -2   4   5    2.27    1.10
   2   4  -5    2.07    1.40
   2   4  -5    2.30    1.20
   0  -4   5    2.19    1.65
   0   4   5    2.83    1.20
   0   4   5    2.66    1.35
   0   4  -5    2.59    1.30
   0   4  -5    2.09    1.70
   0   4   5    2.84    1.10
   0   4  -5    2.38    1.40
  -2  -4  -5    1.82    1.20
   2  -4   5    1.97    1.55
   2  -4   5    1.95    1.70
  -2   4  -5    1.79    1.35
   2   4   5    1.94    1.10
  -2   4  -5    1.93    1.75
   2   4   5    1.73    1.30
  -2   4  -5    2.08    1.45
   4  -4   5    0.61    0.80
  -4  -4  -5    0.88    1.10
  -4   4  -5    0.58    0.75
   4   4   5    0.28    0.75
  -6  -4  -5    0.19    1.20
   6  -4   5    0.25    0.85
   6   4   5    0.15    0.85
   8  -4   5    0.86    1.15
  -8  -4  -5    1.25    1.65
   8   4   5    1.02    1.10
   9  -5  -5    3.90    2.20
  -9  -5   5    5.12    3.60
   9   5  -5    4.07    2.50
   9   5  -5    4.07    2.40
   7  -5  -5   17.08    3.90
   7   5  -5   17.90    4.50
  -7   5   5   17.03    3.85
   7   5  -5   17.92    4.05
  -5  -5   5    8.24    2.50
   5  -5  -5    8.47    2.35
   5   5  -5    8.56    2.55
   5   5  -5    8.62    2.85
  -5   5   5    8.35    2.30
   3  -5  -5    9.05    2.25
  -3  -5   5    7.81    2.40
   3   5  -5    7.73    2.40
   3   5  -5    9.16    3.10
   3   5  -5    8.78    2.75
  -3   5   5    9.41    2.15
  -3   5   5    9.42    2.20
  -1  -5   5   26.63    5.00
  -1   5   5   25.80    4.70
  -1   5   5   24.53    6.15
   1   5  -5   26.16    4.85
   1   5  -5   26.84    4.95
  -1   5   5   26.24    4.70
   1   5  -5   25.89    5.65
  -1  -5  -5    9.39    2.30
  -1  -5  -5   10.11    2.30
   1  -5   5   10.52    2.65
   1   5   5   10.81    2.45
   1   5   5    9.94    2.30
  -1   5  -5   10.61    3.10
  -1   5  -5    9.96    2.65
   1   5   5    9.85    3.10
   3  -5   5    0.10    0.75
  -3   5  -5    0.32    0.75
   3   5   5    0.20    0.55
   3   5   5    0.08    0.70
  -5  -5  -5    0.74    1.35
   5  -5   5    0.46    0.95
  -5   5  -5    0.43    0.90
   5   5   5    0.41    0.90
  -7  -5  -5    0.03    1.50
   7   5   5   -0.26    1.00
   8  -6  -5    2.83    2.15
   8   6  -5    2.81    2.25
   8   6  -5    2.92    2.35
   6  -6  -5    4.95    2.25
  -6   6   5    4.05    2.05
  -6   6   5    4.43    2.10
   6   6  -5    3.81    2.50
   6   6  -5    4.54    2.25
  -4  -6   5   13.40    3.30
   4  -6  -5   13.63    3.15
   4   6  -5   13.62    3.25
  -4   6   5   13.08    3.05
  -4   6   5   12.69    3.05
   4   6  -5   12.68    3.70
  -2  -6   5    4.88    2.05
   2  -6  -5    5.38    2.00
  -2   6   5    4.98    1.85
   2   6  -5    5.84    2.45
   2   6  -5    5.53    2.15
  -2   6   5    5.38    1.90
   0  -6  -5    0.56    0.60
   0   6  -5    0.45    0.75
   0   6   5    0.51    0.60
   0   6   5    0.58    0.70
   0   6   5    0.48    0.80
  -2  -6  -5    0.09    0.40
  -2   6  -5    0.13    0.75
   2   6   5    0.22    0.65
   2   6   5    0.47    0.95
   2   6   5    0.39    0.80
  -2   6  -5    0.27    0.95
   4  -6   5   11.06    3.25
   4   6   5   10.49    3.10
  -4   6  -5   11.09    3.20
   6  -6   5    4.91    2.85
  -6   6  -5    5.20    2.75
   6   6   5    4.99    2.65
   7   7  -5    2.70    2.35
   7   7  -5    2.64    2.25
  -7   7   5    2.93    2.05
   5  -7  -5    7.23    2.65
  -5   7   5    7.22    2.50
   5   7  -5    6.53    2.95
   5   7  -5    7.27    2.65
   3  -7  -5   11.95    3.15
   3   7  -5   12.19    3.70
   3   7  -5   11.60    3.20
  -3   7   5   11.66    3.30
  -3   7   5   11.74    3.00
   1  -7  -5    0.49    0.75
  -1   7   5    0.32    0.85
   1   7  -5    0.55    1.10
  -1   7   5    0.75    1.00
  -1   7   5    0.25    0.70
   1   7  -5    0.60    0.90
  -1   7  -5   -0.22    1.00
   3   7   5    4.63    2.50
   5  -7   5    4.88    2.85
   5   7   5    5.09    2.70
  -5   7  -5    4.84    2.70
   4   8  -5    0.06    0.80
   4   8  -5    0.03    0.95
  -4   8   5    0.03    0.75
   2   8  -5    2.22    2.40
  -2   8   5    2.47    2.00
   2   8  -5    1.99    2.00
   0   8   5    0.03    0.90
   0   8  -5    0.34    1.10
   0   8  -5    0.08    0.85
   2   8   5   -0.25    1.00
  -2   8  -5    0.15    0.85
  10   0  -6    5.52    2.50
 -10   0   6    7.19    3.30
   8   0  -6    0.79    0.75
  -8   0   6    0.66    0.70
  -6   0   6    0.29    0.70
   6   0  -6   -0.04    0.50
  -6   0   6   -0.03    0.50
  -4   0   6   36.58    8.15
   4   0  -6   37.41    6.20
  -4   0   6   36.22    6.20
  -2   0   6  151.43   25.25
   2   0  -6  165.86   25.25
   0   0  -6  163.40   29.75
  -2   0  -6    1.21    1.05
   2   0   6    1.43    0.75
   4   0   6   74.65   14.55
   4   0   6   81.68   12.85
  -4   0  -6   79.36   12.80
   6   0   6   73.91   11.90
   6   0   6   67.43   13.25
   8   0   6    0.13    0.90
  11  -1  -6    0.12    0.90
  11   1  -6   -0.22    0.85
  -9  -1   6    3.57    1.85
  -9  -1   6    3.31    2.45
   9  -1  -6    3.37    1.90
   9   1  -6    3.23    2.00
  -9   1   6    3.10    1.75
  -7  -1   6    4.74    2.45
  -7  -1   6    4.94    1.85
   7  -1  -6    4.55    1.85
   7   1  -6    4.79    1.95
  -7   1   6    4.60    1.80
   5  -1  -6   36.89    6.30
  -5  -1   6   38.01    8.40
  -5  -1   6   36.08    6.35
  -5   1   6   35.86    6.30
   5   1  -6   37.07    6.40
  -3  -1   6   13.37    2.50
   3  -1  -6   13.89    2.40
   3   1  -6   13.63    2.50
  -3   1   6   12.81    3.05
   1   1  -6   80.83   14.70
   1   1  -6   80.77   12.70
   1   1  -6   79.81   12.70
   1   1  -6   74.10   16.90
   1  -1   6   78.48   14.15
  -1  -1  -6   75.49   13.95
  -1  -1  -6   68.17   16.15
   1  -1   6   80.49   12.25
  -1   1  -6   75.66   12.20
  -1   1  -6   77.46   14.15
  -1   1  -6   75.56   12.25
   3  -1   6   20.18    3.55
   3  -1   6   18.69    4.15
  -3  -1  -6   18.53    3.35
  -3   1  -6   19.72    3.55
  -3   1  -6   18.40    4.10
   3   1   6   20.25    3.40
   5  -1   6   76.82   14.55
  -5  -1  -6   76.28   12.70
   5  -1   6   80.08   12.80
   5   1   6   75.33   12.70
  -5   1  -6   77.59   12.80
   7  -1   6    1.68    1.85
   7  -1   6    1.96    1.90
   7   1   6    1.81    1.75
   9  -1   6   -0.13    0.95
   9   1   6    0.00    0.90
  10  -2  -6    3.84    2.20
 -10  -2   6    3.81    3.00
  10   2  -6    3.37    2.30
  -8  -2   6    9.66    3.30
   8  -2  -6    8.94    2.45
  -8  -2   6    9.32    2.45
  -8   2   6    8.86    2.40
   8   2  -6    9.51    2.60
  -6  -2   6    7.01    2.05
   6  -2  -6    5.61    2.00
  -6  -2   6    7.63    2.75
   6   2  -6    7.31    2.15
  -6   2   6    5.75    2.00
   4  -2  -6    2.85    1.20
  -4  -2   6    3.14    1.30
   4   2  -6    2.93    1.70
   4   2  -6    3.15    1.35
   4   2  -6    3.59    1.65
  -4   2   6    2.93    1.20
   2  -2  -6    1.58    0.65
  -2   2   6    1.29    0.65
   2   2  -6    1.44    0.90
   2   2  -6    1.36    1.30
   0  -2   6   42.07    8.35
   0   2  -6   42.06    8.30
   0   2  -6   44.18    7.15
   0   2  -6   43.42    7.15
  -2  -2  -6    1.62    1.25
   2  -2   6    1.65    1.15
   2  -2   6    1.95    1.50
  -2   2  -6    1.54    1.10
  -2   2  -6    1.79    1.05
  -2   2  -6    1.36    1.45
   2   2   6    1.97    0.75
  -4  -2  -6    8.99    3.10
   4  -2   6    9.78    2.75
  -4  -2  -6    8.77    2.00
   4  -2   6    8.85    2.30
   4   2   6    8.91    2.15
  -4   2  -6    8.94    2.30
  -6  -2  -6    0.68    1.20
   6  -2   6    0.56    0.85
   6  -2   6    0.65    0.90
   8  -2   6    3.65    2.20
  -8  -2  -6    3.94    3.10
   8   2   6    2.99    2.10
  -9  -3   6    1.25    1.45
   9  -3  -6    1.22    1.00
   9   3  -6    1.33    1.05
  -7  -3   6   20.87    4.25
  -7  -3   6   22.44    5.70
   7  -3  -6   21.02    4.20
   7   3  -6   21.12    4.30
  -7   3   6   20.76    4.20
   7   3  -6   21.43    5.00
  -5  -3   6   27.41    5.20
   5  -3  -6   27.25    5.10
   5   3  -6   29.39    6.10
   5   3  -6   28.08    6.95
  -5   3   6   27.44    5.10
   5   3  -6   29.05    5.30
  -3  -3   6   99.49   16.35
   3  -3  -6   97.41   16.15
   3   3  -6  101.35   18.75
   3   3  -6   99.04   21.70
  -3   3   6  102.59   16.20
   3   3  -6   98.95   16.25
   3   3  -6  101.14   16.35
  -1  -3   6  136.23   25.35
  -1  -3   6  138.49   22.15
  -1   3   6  129.81   29.00
  -1   3   6  142.95   21.90
  -1   3   6  133.45   21.90
   1   3  -6  137.28   22.15
   1   3  -6  139.80   22.10
   1   3  -6  138.77   25.30
   1  -3   6   11.14    3.00
   1  -3   6   12.29    2.50
  -1   3  -6   11.97    3.00
  -1   3  -6   11.07    2.50
  -1   3  -6   11.28    2.45
   1   3   6   11.09    2.10
   1   3   6   11.51    2.15
   3  -3   6   53.34    8.95
  -3  -3  -6   54.06   11.70
  -3  -3  -6   50.66    8.65
   3  -3   6   52.38   10.35
  -3   3  -6   51.88    8.95
  -3   3  -6   52.03    8.90
  -3   3  -6   52.93   10.25
   3   3   6   53.55    8.70
   5  -3   6   14.84    4.25
  -5  -3  -6   14.31    3.25
   5  -3   6   16.80    3.45
  -5  -3  -6   16.05    4.45
   5   3   6   14.81    3.25
  -7  -3  -6    6.55    3.30
   7  -3   6    6.23    2.45
   7   3   6    5.00    2.25
 -10  -4   6    5.54    3.55
  10  -4  -6    4.85    2.55
  10   4  -6    6.11    3.00
  10   4  -6    5.13    2.75
  -8  -4   6    1.27    1.40
   8  -4  -6    0.89    0.90
  -8   4   6    0.87    0.90
   8   4  -6    0.96    0.95
   8   4  -6    0.88    1.10
   6  -4  -6    6.48    2.05
  -6  -4   6    6.77    2.15
  -6   4   6    6.48    2.05
   6   4  -6    7.00    2.25
   6   4  -6    6.69    2.60
  -4  -4   6   58.43   10.20
   4  -4  -6   58.43   10.00
   4   4  -6   60.32   10.20
   4   4  -6   61.12   13.55
  -4   4   6   60.59   10.00
   4   4  -6   59.63   11.65
   2  -4  -6    1.63    1.20
  -2  -4   6    1.55    1.50
   2   4  -6    2.34    1.90
   2   4  -6    2.16    1.70
   2   4  -6    1.56    1.50
   2   4  -6    2.48    1.35
   0  -4   6    3.86    1.95
   0   4   6    4.46    1.35
   0   4  -6    3.97    1.55
   0   4  -6    4.45    2.05
   0   4  -6    3.44    1.65
   0   4   6    4.56    1.65
   2  -4   6   18.75    3.80
   2   4   6   17.06    3.45
  -2   4  -6   19.24    3.80
   2   4   6   18.40    3.50
  -2   4  -6   19.46    4.45
   4  -4   6    2.77    1.95
  -4  -4  -6    2.33    1.50
   4   4   6    2.23    1.65
  -4   4  -6    3.34    1.95
   6  -4   6    0.49    0.95
  -6  -4  -6    0.29    1.25
  -6   4  -6    0.51    0.90
   6   4   6    0.10    0.85
   8  -4   6    2.90    2.65
  -8  -4  -6    3.82    3.30
   8   4   6    3.36    2.30
   9   5  -6    0.80    1.15
   9   5  -6    0.37    0.95
   7  -5  -6    0.98    0.90
   7   5  -6    1.02    1.15
   5  -5  -6   14.11    3.20
  -5  -5   6   15.41    3.35
  -5   5   6   14.53    3.20
   5   5  -6   15.49    3.40
   5   5  -6   14.03    3.90
  -5   5   6   14.55    3.20
  -3  -5   6    0.46    0.75
   3  -5  -6    0.54    0.65
   3   5  -6    0.56    0.75
   3   5  -6    0.82    0.95
  -1  -5   6    0.20    0.65
   1   5  -6    0.34    0.85
  -1   5   6    0.22    0.60
   1   5  -6    0.16    0.70
  -1   5   6    0.22    0.55
   1   5  -6    0.30    0.85
   1  -5   6   25.60    4.95
  -1  -5  -6   22.25    4.95
  -1   5  -6   26.37    4.95
  -1   5  -6   25.84    5.80
   1   5   6   28.18    4.75
   1   5   6   24.35    4.65
   1   5   6   28.45    6.25
   3  -5   6    8.66    2.65
   3   5   6    7.99    2.20
   3   5   6    8.66    2.40
  -3   5  -6    9.49    2.70
   5  -5   6    4.10    2.35
   5   5   6    2.69    2.00
  -5   5  -6    3.98    2.35
  -7  -5  -6    1.02    1.65
   7  -5   6    0.44    1.20
   7   5   6    0.21    1.10
   8   6  -6    0.21    0.95
   8   6  -6    0.67    1.10
   6  -6  -6    0.66    0.85
   6   6  -6    0.59    1.10
   6   6  -6    0.65    0.90
  -6   6   6    0.68    0.85
  -4  -6   6   -0.14    0.75
   4   6  -6    0.05    0.75
  -4   6   6   -0.21    0.65
  -4   6   6   -0.08    0.60
  -2  -6   6   16.75    3.75
   2   6  -6   16.24    4.25
  -2   6   6   14.64    3.35
   2   6  -6   16.81    3.65
  -2   6   6   16.48    3.40
  -2   6   6   15.67    4.30
   0  -6  -6    9.29    2.45
   0   6  -6    9.82    3.25
   0   6  -6   10.22    2.75
  -2   6  -6   -0.15    1.00
   2   6   6   -0.03    0.75
   4  -6   6   11.12    3.25
  -4   6  -6   11.03    3.25
   4   6   6   10.39    3.00
   6  -6   6   11.31    4.10
  -6   6  -6   12.57    3.75
   6   6   6   10.60    3.45
  -5   7   6    0.22    0.75
   5   7  -6    0.27    1.05
   5   7  -6    0.44    0.85
  -3   7   6    0.59    0.85
   3   7  -6    0.64    0.90
   3   7  -6    0.68    1.15
  -1   7   6   15.62    3.40
   1   7  -6   14.11    4.25
   1   7  -6   14.74    3.65
  -1   7   6   14.14    4.25
  -1   7  -6   -0.13    1.05
   1   7   6   -0.28    0.85
  -1   7  -6   -0.13    0.80
   3   7   6    2.63    2.20
  -3   7  -6    2.95    2.40
  -4   8   6    0.18    0.80
   4   8  -6    0.27    1.05
   4   8  -6    0.33    0.85
   2   8  -6   -0.18    1.05
   2   8  -6    0.03    0.80
   0   8   6    0.36    0.95
   0   8  -6    0.60    0.90
   0   8  -6    0.90    1.25
   2   8   6    0.01    1.05
  -2   8  -6    0.75    0.95
 -10   0   7   40.94    9.70
  10   0  -7   37.70    7.35
  -8   0   7    2.11    1.40
   8   0  -7    1.87    1.50
  -8   0   7    2.55    1.90
   6   0  -7   39.07    6.95
  -6   0   7   39.31    6.95
  -6   0   7   42.50    9.15
   4   0  -7  140.05   21.95
  -4   0   7  134.08   29.10
  -4   0   7  135.33   21.95
  -2   0   7   84.07   13.70
   2   0  -7   85.88   13.70
   2   0  -7   86.74   15.95
   0   0  -7    3.53    1.55
   2   0   7    0.52    0.35
  -2   0  -7    0.55    0.60
  -2   0  -7    0.42    0.30
  -2   0  -7    0.40    0.30
   4   0   7    0.37    0.60
  -4   0  -7    0.27    0.50
   6   0   7    3.71    1.90
   6   0   7    3.82    1.95
   8   0   7    0.70    1.05
 -11  -1   7    0.17    1.55
 -11   1   7    0.93    1.45
  -9  -1   7    5.33    2.85
  -9  -1   7    4.55    2.00
   9  -1  -7    4.84    2.10
   9   1  -7    4.95    2.20
  -9   1   7    5.39    2.80
  -7  -1   7    7.33    2.05
  -7  -1   7    7.91    2.70
   7  -1  -7    7.17    2.05
  -7   1   7    8.54    2.60
  -7   1   7    7.37    2.05
   7   1  -7    7.70    2.15
   5  -1  -7   10.95    2.55
  -5  -1   7   14.16    3.45
  -5  -1   7   12.32    2.60
   5   1  -7   13.10    2.65
  -5   1   7   13.79    3.20
  -5   1   7   11.13    2.55
   3  -1  -7    7.10    1.40
  -3  -1   7    6.33    1.60
   3   1  -7    6.52    1.55
   3   1  -7    6.89    2.15
  -3   1   7    6.69    1.40
   1   1  -7   29.84    6.65
   1   1  -7   28.43    5.00
   1   1  -7   30.32    5.00
   1   1  -7   31.23    6.05
  -1  -1  -7   10.87    2.75
  -1  -1  -7   12.63    2.65
  -1   1  -7   11.75    2.20
  -1   1  -7   12.41    2.20
  -1   1  -7   11.84    2.90
   3  -1   7    6.27    1.70
  -3  -1  -7    6.35    1.40
   3  -1   7    5.71    2.10
  -3   1  -7    5.25    2.05
   3   1   7    6.89    1.45
  -3   1  -7    6.49    1.65
   5  -1   7    0.44    0.85
   5   1   7    0.64    0.70
   7   1   7    0.93    1.00
  10  -2  -7    9.16    2.85
 -10  -2   7    9.17    3.95
  10   2  -7    8.15    3.05
   8  -2  -7   32.99    6.30
  -8  -2   7   33.75    6.30
  -8  -2   7   36.79    8.45
   8   2  -7   35.64    6.45
  -8   2   7   33.44    6.30
   6  -2  -7   44.80    8.05
  -6  -2   7   46.09    8.15
  -6  -2   7   51.80   10.85
  -6   2   7   44.91    8.05
   6   2  -7   48.75    8.25
  -4  -2   7   39.64    6.70
   4  -2  -7   37.37    6.55
   4   2  -7   40.04    6.70
   4   2  -7   39.71    7.90
  -4   2   7   38.21    6.55
  -2  -2   7   15.96    3.10
   2   2  -7   16.28    3.80
   2   2  -7   16.90    3.05
   2   2  -7   16.97    4.05
   2   2  -7   16.84    3.10
   0   2  -7   14.42    2.65
   0   2  -7   13.82    2.65
   0   2  -7   14.09    3.35
  -2  -2  -7    0.13    0.35
   2  -2   7    0.04    0.65
  -2  -2  -7    0.17    0.60
   2  -2   7    0.09    0.55
  -2   2  -7    0.04    0.70
  -2   2  -7    0.18    0.50
  -2   2  -7    0.30    0.45
  -4  -2  -7    0.03    0.85
  -4  -2  -7   -0.01    0.45
   4  -2   7   -0.08    0.75
   4   2   7   -0.01    0.50
   6  -2   7   -0.03    0.85
  -6  -2  -7    0.20    1.15
   6  -2   7   -0.05    0.80
   6   2   7   -0.22    0.70
  -8  -2  -7   -0.05    1.45
   8  -2   7    0.10    0.95
   9  -3  -7    1.25    0.95
  -9  -3   7    1.96    2.60
   9   3  -7    2.17    2.40
   9   3  -7    1.24    1.05
  -7  -3   7    5.60    1.95
   7  -3  -7    4.84    1.90
  -7   3   7    5.07    1.90
   7   3  -7    5.73    2.05
   7   3  -7    5.07    2.50
  -5  -3   7   74.95   12.80
   5  -3  -7   75.08   12.70
   5   3  -7   76.65   14.75
  -5   3   7   77.09   12.70
   5   3  -7   80.19   17.10
   5   3  -7   76.88   12.85
   3  -3  -7   76.47   12.95
  -3  -3   7   77.88   13.20
   3   3  -7   80.67   17.55
  -3   3   7   80.06   12.95
   3   3  -7   83.07   15.25
   3   3  -7   78.65   13.20
   3   3  -7   82.38   13.15
  -1  -3   7   23.16    4.50
   1   3  -7   25.31    4.50
  -1   3   7   24.09    4.10
   1   3  -7   25.93    5.40
  -1   3   7   25.89    4.10
   1   3  -7   24.79    6.05
   1   3  -7   24.43    4.50
   1  -3   7    3.44    1.95
  -1  -3  -7    3.93    1.15
  -1   3  -7    3.91    2.00
  -1   3  -7    3.34    1.45
  -1   3  -7    3.06    1.50
  -3  -3  -7    3.22    1.20
   3  -3   7    3.62    1.75
   3  -3   7    3.27    2.15
  -3  -3  -7    3.58    1.95
   3   3   7    2.99    1.20
   3   3   7    3.41    1.25
  -3   3  -7    3.59    2.10
  -3   3  -7    3.06    1.65
  -5  -3  -7    1.64    2.20
   5  -3   7    1.88    1.80
  -5   3  -7    2.05    1.75
  -7  -3  -7    0.05    1.35
   7  -3   7    0.17    0.95
   8  -4  -7    2.52    1.85
   8   4  -7    2.40    2.35
   8   4  -7    2.15    2.00
   6  -4  -7    3.40    1.65
  -6  -4   7    3.87    1.80
  -6   4   7    2.85    1.65
   6   4  -7    3.03    2.25
   6   4  -7    3.82    1.85
  -4  -4   7   89.94   15.40
   4  -4  -7   90.86   15.15
  -4   4   7   95.62   15.15
   4   4  -7   96.55   20.50
   4   4  -7   91.50   15.40
   4   4  -7   92.71   17.65
  -4   4   7   92.53   15.20
  -2  -4   7   -0.17    0.70
  -2   4   7    0.15    0.55
  -2   4   7    0.15    0.30
   2   4  -7    0.16    0.90
   2   4  -7    0.00    0.80
   0   4   7    0.03    0.40
   0   4  -7   -0.11    0.80
   0   4   7    0.12    0.45
   2  -4   7    0.73    0.85
  -2   4  -7    0.67    0.75
   2   4   7    1.01    0.95
  -2   4  -7    0.67    1.00
   4  -4   7   -0.22    0.80
   4   4   7   -0.10    0.55
  -4   4  -7   -0.05    0.75
   6  -4   7    0.00    0.95
  -6  -4  -7   -0.19    1.20
   7   5  -7    5.13    2.30
   7   5  -7    4.28    2.70
   5  -5  -7   10.81    2.75
  -5  -5   7   11.38    2.95
   5   5  -7   10.62    3.45
  -5   5   7   11.26    2.70
   5   5  -7   11.33    2.90
   3  -5  -7    4.37    1.65
  -3  -5   7    5.20    1.95
   3   5  -7    3.74    2.40
  -3   5   7    4.61    1.65
  -3   5   7    4.60    1.65
   3   5  -7    5.20    1.90
  -1  -5   7    3.29    1.80
  -1   5   7    3.34    1.35
  -1   5   7    3.10    1.45
   1   5  -7    3.52    1.75
   1   5  -7    2.93    2.25
  -1  -5  -7    3.41    1.20
   1   5   7    3.47    1.30
  -1   5  -7    4.20    2.50
   3  -5   7    2.89    2.05
   3   5   7    2.88    1.60
  -3   5  -7    3.09    1.95
   5  -5   7    0.27    1.00
  -5   5  -7    0.24    1.00
   5   5   7    0.02    0.85
   6   6  -7    5.68    2.40
  -6   6   7    5.91    2.20
   6   6  -7    4.86    2.85
  -4  -6   7    3.47    2.05
   4   6  -7    3.31    1.95
  -4   6   7    2.70    1.75
   4   6  -7    2.26    2.40
  -2  -6   7   10.88    3.05
  -2   6   7   12.16    3.50
   2   6  -7   10.96    3.00
  -2   6   7   11.54    2.70
   2   6  -7   11.06    3.60
   0   6   7    0.41    0.75
   0   6  -7    0.49    1.05
   0   6  -7    0.10    0.80
   0   6   7    0.13    0.95
   2  -6   7   -0.30    0.85
   2   6   7   -0.12    0.70
  -2   6  -7   -0.14    1.05
   4  -6   7   -0.02    1.00
   4   6   7    0.25    0.85
  -4   6  -7    0.08    0.95
  -5   7   7    1.84    1.80
   5   7  -7    2.21    2.00
   5   7  -7    1.38    1.30
   3   7  -7    3.74    2.75
   3   7  -7    3.44    2.20
  -3   7   7    3.64    1.95
  -1   7   7    7.10    2.35
   1   7  -7    6.41    2.60
   1   7  -7    6.74    3.15
   1   7   7    0.23    0.90
  -1   7  -7    0.43    1.20
  -1   7  -7    0.21    0.90
 -10   0   8    7.57    3.45
   8   0  -8   16.57    3.65
  -8   0   8   18.02    4.75
   6   0  -8    3.88    1.50
  -6   0   8    3.84    1.45
  -6   0   8    4.85    1.90
   4   0  -8    0.96    0.90
  -4   0   8    0.91    0.85
   2   0  -8   20.53    4.45
   0   0  -8   94.43   17.55
  -2   0  -8    6.24    2.00
  -4   0  -8   -0.01    0.45
   4   0   8    0.04    0.55
   6   0   8   17.86    3.75
  -9   1   8   -0.10    1.05
   9   1  -8   -0.03    0.75
  -7  -1   8    0.73    0.65
   7  -1  -8    0.85    0.65
  -7   1   8    0.82    0.65
   7   1  -8    0.84    0.70
  -5  -1   8    0.39    0.55
   5  -1  -8    0.13    0.50
   5   1  -8    0.36    0.55
  -5   1   8    0.58    0.65
   3  -1  -8   12.06    2.25
   3   1  -8   13.20    2.45
   3   1  -8   14.21    3.30
  -3   1   8   11.51    2.30
   1   1  -8    0.64    0.75
   1   1  -8    0.55    0.50
   1   1  -8    0.73    0.70
   1   1  -8    0.76    0.65
  -1  -1  -8   17.53    3.65
  -1   1  -8   16.38    3.85
  -1   1  -8   17.61    2.95
  -1   1  -8   16.68    2.95
   3  -1   8    8.09    1.95
  -3   1  -8    8.04    2.50
  -3   1  -8    8.70    1.90
  -3   1  -8    6.95    1.85
   5  -1   8    2.00    1.85
   5  -1   8    2.41    1.55
  -5  -1  -8    2.73    1.35
   5   1   8    2.42    1.45
   7  -1   8   15.30    3.50
   7   1   8   12.98    3.35
 -10  -2   8    4.34    3.20
 -10   2   8    6.47    3.10
   8  -2  -8    6.77    2.15
  -8  -2   8    6.89    2.90
  -8   2   8    6.53    2.65
   8   2  -8    6.01    2.30
   6  -2  -8   15.27    3.20
  -6  -2   8   16.21    3.30
   6   2  -8   15.04    4.10
  -6   2   8   17.54    4.00
   6   2  -8   16.53    3.35
  -6   2   8   15.05    3.15
  -4  -2   8    9.93    2.40
   4   2  -8   10.54    2.40
   4   2  -8   10.05    3.15
  -2  -2   8    8.80    2.05
   2   2  -8    9.05    2.75
   2   2  -8    9.11    2.00
   2   2  -8    9.26    2.60
   2   2  -8    8.74    2.00
   0  -2  -8    2.02    1.30
   0   2  -8    2.36    1.05
   0   2  -8    2.06    1.70
   0   2  -8    2.35    1.05
  -2  -2  -8    9.01    2.45
   2  -2   8    9.90    2.85
   2  -2   8    8.91    2.15
  -2   2  -8    7.27    2.05
  -2   2  -8    8.97    2.10
  -2   2  -8    9.86    2.80
  -4  -2  -8    4.28    1.30
   4  -2   8    4.45    1.85
   4  -2   8    4.61    2.25
  -4  -2  -8    4.94    2.25
  -4   2  -8    3.88    1.80
   4   2   8    4.78    1.40
   6  -2   8   -0.11    0.85
  -6  -2  -8    0.32    1.20
   6   2   8   -0.22    0.75
  -9  -3   8    0.14    1.35
   9   3  -8    0.30    0.95
   9   3  -8    0.63    1.15
  -7  -3   8    0.23    0.75
   7  -3  -8    0.19    0.65
   7   3  -8    0.24    0.75
   7   3  -8    0.13    0.95
  -5  -3   8   21.48    4.20
   5  -3  -8   21.34    3.95
   5   3  -8   21.29    5.05
   5   3  -8   22.08    4.20
  -5   3   8   20.64    3.95
  -3  -3   8   34.01    6.10
   3  -3  -8   31.51    5.70
  -3   3   8   33.39    5.70
  -3   3   8   33.49    5.70
   3   3  -8   37.00    7.25
   3   3  -8   34.78    8.05
   3   3  -8   33.64    6.00
   3   3  -8   33.67    6.00
   1   3  -8   28.45    5.85
   1   3  -8   27.01    4.80
   1   3  -8   24.90    4.80
   1   3  -8   26.00    6.45
  -1  -3  -8   25.77    5.30
  -1   3  -8   26.04    5.00
  -1   3  -8   27.81    5.00
  -1   3  -8   30.99    6.05
  -3  -3  -8    0.82    0.90
  -3  -3  -8    0.85    0.75
   3  -3   8    0.56    0.75
  -3   3  -8    0.51    0.70
  -3   3  -8    0.84    1.00
   5  -3   8    8.32    2.65
  -5  -3  -8    9.61    3.35
   5   3   8    8.10    2.15
  -7  -3  -8    1.09    1.50
   7   3   8    0.80    0.90
   8   4  -8    9.52    3.50
   8   4  -8    9.14    3.00
  -6  -4   8    4.27    2.05
   6   4  -8    3.76    2.55
   6   4  -8    3.83    2.00
  -4  -4   8    3.56    1.85
   4  -4  -8    3.41    1.45
  -4   4   8    3.45    1.50
   4   4  -8    3.15    2.45
   4   4  -8    4.08    2.30
  -4   4   8    3.91    1.50
   4   4  -8    4.13    1.80
  -2  -4   8   35.00    6.55
   2   4  -8   37.21    7.70
   2   4  -8   34.68    6.45
   2   4  -8   34.01    8.55
  -2   4   8   37.45    6.10
  -2   4   8   38.63    6.10
   0   4  -8    0.92    0.80
   2  -4   8    0.18    0.75
   2   4   8    0.17    0.40
   2   4   8    0.12    0.40
  -2   4  -8   -0.04    0.70
  -2   4  -8   -0.23    0.95
   4  -4   8    5.15    2.30
   4   4   8    4.21    1.60
   6  -4   8   -0.04    1.00
   6   4   8   -0.17    0.80
   7   5  -8    0.04    1.05
   5   5  -8    0.06    1.00
  -5   5   8    0.13    0.70
   5   5  -8    0.35    0.75
  -3  -5   8    6.28    2.25
   3   5  -8    5.60    2.80
  -3   5   8    6.84    1.85
   3   5  -8    6.47    2.20
  -1   5   8    0.31    0.45
   1   5  -8    0.16    0.65
  -1   5   8    0.13    0.55
   1   5  -8   -0.26    0.95
   1   5   8    0.50    0.60
  -1   5  -8    0.43    0.75
  -3   5  -8    0.95    1.25
   3   5   8    0.99    0.75
   5  -5   8    0.65    1.10
   5   5   8    0.31    0.80
   6   6  -8    0.56    0.90
   6   6  -8    0.74    1.20
  -6   6   8    0.86    0.85
   4   6  -8    0.59    1.15
  -4   6   8    0.64    0.75
   4   6  -8    0.72    0.85
   2   6  -8    0.00    0.75
  -2   6   8   -0.22    0.70
   2   6  -8   -0.01    1.05
   0   6  -8    8.97    2.80
   0   6  -8    9.84    3.45
   0   6   8    9.74    2.40
   2   6   8    2.31    1.55
  -2   6  -8    2.78    2.60
   4  -6   8   -0.16    1.10
   4   6   8   -0.12    0.80
   3   7  -8    0.03    0.85
   3   7  -8    0.01    1.10
  -3   7   8   -0.03    0.75
  -1   7   8    0.23    0.80
   1   7  -8    0.12    1.20
   1   7   8    5.23    2.05
  -1   7  -8    5.07    3.05
  -8   0   9   46.55   10.70
  -6   0   9    0.84    0.60
   6   0  -9    0.76    0.60
   4   0  -9   18.10    3.05
  -4   0   9   14.51    2.95
   2   0  -9   51.32   10.00
   0   0  -9   32.19    6.55
  -2   0  -9    0.33    0.75
  -4   0  -9    0.17    0.40
   4   0   9    0.04    0.50
  -9  -1   9    6.62    2.95
  -9   1   9    6.48    2.95
  -7  -1   9    5.78    2.50
   7   1  -9    5.34    2.10
  -7   1   9    5.70    2.25
  -5  -1   9   16.65    3.25
   5  -1  -9   16.39    3.10
   5   1  -9   15.50    4.30
   5   1  -9   17.22    3.25
  -3  -1   9   -0.07    0.40
   3   1  -9   -0.03    0.35
   3   1  -9   -0.07    0.40
   1   1  -9   -0.16    0.70
   1   1  -9   -0.06    0.45
  -1  -1  -9    4.35    1.75
  -1   1  -9    4.14    2.05
  -3  -1  -9    2.09    1.65
  -3   1  -9    1.50    1.75
  -3   1  -9    1.86    1.10
   5  -1   9    0.74    0.80
  -5  -1  -9    0.62    1.05
   8   2  -9    5.07    2.75
  -8   2   9    4.63    2.45
   6   2  -9   23.94    5.55
   6   2  -9   23.20    4.55
  -6   2   9   24.12    5.45
   4  -2  -9   21.40    4.00
  -4  -2   9   24.94    4.35
  -4   2   9   20.87    4.05
   4   2  -9   24.59    5.50
   4   2  -9   24.97    4.35
   2   2  -9   27.76    4.85
   2   2  -9   26.99    4.85
   2   2  -9   27.61    6.45
   2   2  -9   28.30    6.05
   0  -2  -9    6.87    2.10
   0   2  -9    6.29    1.65
   0   2  -9    7.40    2.50
   0   2  -9    5.99    1.60
  -2  -2  -9    2.02    1.20
  -2   2  -9    2.14    1.30
  -2   2  -9    2.51    1.30
   4  -2   9    0.09    0.70
  -4  -2  -9    0.15    0.90
   6  -2   9   -0.25    0.85
   6   2   9   -0.17    0.65
   7   3  -9   -0.14    0.90
   5   3  -9    0.59    0.70
   5   3  -9    0.82    1.05
  -3  -3   9   47.45    8.20
   3   3  -9   48.08    9.70
   3   3  -9   47.67    8.15
   1   3  -9   10.21    2.55
   1   3  -9   10.24    3.35
   1   3  -9   10.62    2.50
  -1  -3  -9    2.51    1.30
  -1   3  -9    3.29    2.20
   3  -3   9    0.55    0.80
  -3   3  -9    0.75    1.05
   5  -3   9    0.27    0.95
   5   3   9    0.23    0.60
   8   4  -9   21.74    5.75
   6   4  -9    2.96    2.60
  -4   4   9    2.17    1.25
   4   4  -9    2.48    1.65
   4   4  -9    2.47    2.30
   2   4  -9   41.13    9.60
   2   4  -9   38.93    7.15
   2   4  -9   41.85    8.55
   0   4  -9    0.71    0.80
   0   4  -9    0.86    1.20
   4  -4   9    0.18    0.95
   4   4   9    0.31    0.55
   7   5  -9    1.26    1.40
   5   5  -9    3.42    2.65
  -5   5   9    4.18    1.75
   3   5  -9    0.73    1.20
   1   5  -9    0.32    1.10
  -1   5  -9    0.12    1.10
  -3   5  -9    0.08    1.15
   4   6  -9    3.94    2.80
  -4   6   9    4.84    1.85
   2   6  -9    1.10    1.30
  -2   6   9    1.50    1.40
   0   6   9    4.48    1.55
   0   6  -9    4.78    2.95
  -2   6  -9    0.46    1.20
   4   0 -10    2.16    2.15
  -4   0  10    2.88    1.10
   2   0 -10    2.41    1.95
   0   0 -10    2.53    1.90
  -2   0 -10   23.83    5.15
   3  -1 -10    0.54    0.85
   3   1 -10    0.18    0.35
   3   1 -10   -0.20    0.90
   1  -1 -10    0.30    0.80
   1   1 -10    0.62    0.90
  -1   1 -10    0.03    0.80
  -3   1 -10    1.79    1.95
   5  -1  10    0.05    0.70
   8   2 -10    3.83    2.75
   6   2 -10    4.43    2.55
   4   2 -10    7.65    3.15
   2   2 -10    2.45    2.40
   2   2 -10    3.40    1.30
   0  -2 -10    5.96    2.30
   0   2 -10    8.17    2.70
   0   2 -10    6.75    1.65
  -2   2 -10    1.71    2.00
   4  -2  10    0.37    0.75
   7   3 -10    3.51    2.70
   5   3 -10   -0.08    1.00
   3   3 -10   10.20    3.50
   1  -3 -10   20.69    4.65
   1   3 -10   20.68    5.10
  -1   3 -10    2.99    2.40
  -3   3 -10    3.08    2.45
   6   4 -10    6.65    3.25
  -6   4  10    7.07    2.05
  -4   4  10    3.58    1.20
   4   4 -10    3.64    2.60
   2   4 -10    0.77    1.15
   0   4 -10   11.76    3.85
  -2   4 -10    0.52    1.20
   3   5 -10    0.21    1.15
   1   5 -10    0.30    1.15
   6   0 -11   20.74    5.25
   2   0 -11    4.52    2.50
   0   0 -11    7.40    2.65
   7   1 -11    9.68    3.55
   5   1 -11    3.59    2.60
   3  -1 -11   13.17    3.60
   3   1 -11   11.95    3.80
   1  -1 -11    0.61    0.95
   1   1 -11    0.57    1.05
  -1   1 -11   -0.08    0.90
   6   2 -11    0.48    1.10
   4   2 -11    4.29    2.80
   2   2 -11    1.90    1.40
   0   2 -11    9.71    3.25
  -2   2 -11    2.01    2.15
   5   3 -11    0.68    1.20
   1   3 -11   16.87    4.60
  -1   3 -11    0.74    1.20
   4   4 -11    0.97    1.30
   2   4 -11    0.95    1.25
   0   4 -11   10.70    3.80
   4   0 -12    6.47    2.95
   2   0 -12    0.36    1.05
   0   0 -12    0.37    0.95
   5   1 -12    1.45    1.35
   3  -1 -12   -0.22    0.95
   1  -1 -12    0.19    1.00
   1   1 -12    0.13    1.10
  -1   1 -12   -0.06    0.95
   4  -2 -12    0.98    1.15
   2   2 -12    1.26    1.40
   0   2 -12    0.18    1.15
   3   3 -12    0.11    1.20
   1   3 -12    3.23    2.80
   0   0   0    0.00    0.00
;
_shelx_hkl_checksum              46050
loop_
_space_group_symop_operation_xyz
'x, y, z'
'-x, y, -z'
'x+1/2, y+1/2, z'
'-x+1/2, y+1/2, -z'
'-x, -y, -z'
'x, -y, z'
'-x+1/2, -y+1/2, -z'
'x+1/2, -y+1/2, z'
loop_
_atom_site_label
_atom_site_type_symbol
_atom_site_fract_x
_atom_site_fract_y
_atom_site_fract_z
_atom_site_U_iso_or_equiv
_atom_site_adp_type
_atom_site_occupancy
_atom_site_site_symmetry_order
_atom_site_calc_flag
_atom_site_refinement_flags_posn
_atom_site_refinement_flags_adp
_atom_site_refinement_flags_occupancy
_atom_site_disorder_assembly
_atom_site_disorder_group
Cl1 Cl 0.7297(3) 0.500000 0.0485(3) 0.0722(12) Uani 1 2 d S T P . .
F1 F 0.4245(7) 0.1984(8) 0.3244(7) 0.086(2) Uani 0.5 1 d . . P . .
N1 N 0.4245(7) 0.1984(8) 0.3244(7) 0.086(2) Uani 0.5 1 d . . P . .
H1 H 0.454091 0.102620 0.297976 0.103 Uiso 0.5 1 calc R U P . .
H2 H 0.365147 0.198512 0.377337 0.103 Uiso 0.5 1 calc R U P . .
C1 C 0.4234(10) 0.500000 0.3262(10) 0.043(2) Uani 1 2 d S T P . .
N2 N 0.2401(13) 0.500000 0.4758(13) 0.108(5) Uani 1 2 d S T P . .
F2 F 0.6119(6) 0.1966(6) 0.1592(5) 0.0732(17) Uani 1 1 d . . . . .
C2 C 0.4710(8) 0.3478(11) 0.2830(7) 0.053(2) Uani 1 1 d . . . . .
C3 C 0.5653(7) 0.3500(8) 0.1989(7) 0.0422(17) Uani 1 1 d . . . . .
C4 C 0.6147(10) 0.500000 0.1559(9) 0.039(2) Uani 1 2 d S T P . .
C5 C 0.3196(11) 0.500000 0.4108(11) 0.058(3) Uani 1 2 d S T P . .
loop_
_atom_site_aniso_label
_atom_site_aniso_U_11
_atom_site_aniso_U_22
_atom_site_aniso_U_33
_atom_site_aniso_U_23
_atom_site_aniso_U_13
_atom_site_aniso_U_12
Cl1 0.0616(19) 0.099(3) 0.063(2) 0.000 0.0298(15) 0.000
F1 0.102(5) 0.069(4) 0.093(5) 0.004(4) 0.041(4) -0.041(4)
N1 0.102(5) 0.069(4) 0.093(5) 0.004(4) 0.041(4) -0.041(4)
C1 0.033(5) 0.054(6) 0.043(5) 0.000 0.013(4) 0.000
N2 0.059(7) 0.200(17) 0.074(8) 0.000 0.035(6) 0.000
F2 0.096(4) 0.036(3) 0.096(4) -0.010(3) 0.042(3) 0.011(3)
C2 0.047(4) 0.064(5) 0.048(4) -0.005(4) 0.010(3) -0.014(4)
C3 0.047(4) 0.029(4) 0.052(4) 0.000(3) 0.012(3) -0.002(3)
C4 0.039(5) 0.036(5) 0.042(5) 0.000 0.012(4) 0.000
C5 0.037(6) 0.089(9) 0.048(6) 0.000 0.010(5) 0.000
loop_
_atom_type_symbol
_atom_type_description
_atom_type_scat_dispersion_real
_atom_type_scat_dispersion_imag
_atom_type_scat_source
C C 0.0033 0.0016 'International Tables Vol C Tables 4.2.6.8 and 6.1.1.4'
H H 0.0000 0.0000 'International Tables Vol C Tables 4.2.6.8 and 6.1.1.4'
N N 0.0061 0.0033 'International Tables Vol C Tables 4.2.6.8 and 6.1.1.4'
F F 0.0171 0.0103 'International Tables Vol C Tables 4.2.6.8 and 6.1.1.4'
Cl Cl 0.1484 0.1585 'International Tables Vol C Tables 4.2.6.8 and 6.1.1.4'
loop_
_geom_angle_atom_site_label_1
_geom_angle_atom_site_label_2
_geom_angle_atom_site_label_3
_geom_angle
_geom_angle_site_symmetry_1
_geom_angle_site_symmetry_3
_geom_angle_publ_flag
C2 C1 C2 119.2(9) 6_565 . ?
C2 C1 C5 120.4(4) 6_565 . ?
C2 C1 C5 120.4(4) . . ?
F1 C2 C3 120.8(7) . . ?
F1 C2 C1 119.5(7) . . ?
C3 C2 C1 119.7(7) . . ?
F2 C3 C4 119.8(6) . . ?
F2 C3 C2 118.3(6) . . ?
C4 C3 C2 121.9(7) . . ?
C3 C4 C3 117.5(9) . 6_565 ?
C3 C4 Cl1 121.2(4) . . ?
C3 C4 Cl1 121.2(4) 6_565 . ?
N2 C5 C1 179.9(13) . . ?
loop_
_geom_bond_atom_site_label_1
_geom_bond_atom_site_label_2
_geom_bond_distance
_geom_bond_site_symmetry_2
_geom_bond_publ_flag
Cl1 C4 1.704(9) . ?
F1 C2 1.344(9) . ?
C1 C2 1.373(9) 6_565 ?
C1 C2 1.373(9) . ?
C1 C5 1.444(14) . ?
N2 C5 1.107(15) . ?
F2 C3 1.365(8) . ?
C2 C3 1.367(10) . ?
C3 C4 1.365(8) . ?
