#------------------------------------------------------------------------------
#$Date: 2022-04-09 01:41:59 +0300 (Sat, 09 Apr 2022) $
#$Revision: 274437 $
#$URL: file:///home/coder/svn-repositories/cod/cif/7/24/47/7244747.cif $
#------------------------------------------------------------------------------
#
# This file is available in the Crystallography Open Database (COD),
# http://www.crystallography.net/
#
# All data on this site have been placed in the public domain by the
# contributors.
#
data_7244747
loop_
_publ_author_name
'D\;abrowska, Anna Maria'
'Adamczyk-Wo\'zniak, Agnieszka'
'Madura, Izabela Dorota'
_publ_section_title
;
 Effect of substituents in novel bioactive tavaborole derivatives on
 intermolecular interactions hierarchy
;
_journal_name_full               CrystEngComm
_journal_paper_doi               10.1039/D2CE00279E
_journal_year                    2022
_chemical_formula_moiety         'C11 H13 B F N O3'
_chemical_formula_sum            'C11 H13 B F N O3'
_chemical_formula_weight         237.03
_chemical_melting_point          358(2)
_chemical_name_systematic
5-Fluoro-3-morpholin-4-yl-2,1-benzoxaborol-1(3H)-ol
_space_group_crystal_system      triclinic
_space_group_IT_number           2
_space_group_name_Hall           '-P 1'
_space_group_name_H-M_alt        'P -1'
_atom_sites_solution_hydrogens   mixed
_atom_sites_solution_primary     direct
_audit_creation_date             2021-07-19
_audit_creation_method
;
Olex2 1.3
(compiled 2020.11.12 svn.r5f609507 for OlexSys, GUI svn.r6272)
;
_audit_update_record
;
2022-02-17 deposited with the CCDC.	2022-04-08 downloaded from the CCDC.
;
_cell_angle_alpha                99.383(3)
_cell_angle_beta                 100.605(4)
_cell_angle_gamma                91.220(4)
_cell_formula_units_Z            2
_cell_length_a                   6.1181(3)
_cell_length_b                   9.4155(4)
_cell_length_c                   10.1914(4)
_cell_measurement_reflns_used    8056
_cell_measurement_temperature    293(2)
_cell_measurement_theta_max      30.0630
_cell_measurement_theta_min      4.1200
_cell_volume                     568.53(4)
_computing_cell_refinement       'CrysAlisPro 1.171.38.46 (Rigaku OD, 2015)'
_computing_data_collection       'CrysAlisPro 1.171.38.46 (Rigaku OD, 2015)'
_computing_data_reduction        'CrysAlisPro 1.171.38.46 (Rigaku OD, 2015)'
_computing_molecular_graphics    'Olex2 1.3 (Dolomanov et al., 2009)'
_computing_publication_material  'Olex2 1.3 (Dolomanov et al., 2009)'
_computing_structure_refinement  'SHELXL 2018/3 (Sheldrick, 2015)'
_computing_structure_solution    'ShelXT (Sheldrick, 2015)'
_diffrn_ambient_temperature      293(2)
_diffrn_detector                 'CCD plate'
_diffrn_detector_area_resol_mean 10.3347
_diffrn_detector_type            Atlas
_diffrn_measured_fraction_theta_full 0.999
_diffrn_measured_fraction_theta_max 0.999
_diffrn_measurement_details
;
List of Runs (angles in degrees, time in seconds):

  # Type    Start    End  Width  t~exp~   \w     \q     \k     \f   Frames
#--------------------------------------------------------------------------
  1  \w    -67.00   5.00   1.00  140.00    --  -12.80 123.00-104.31   72
  2  \w    -89.00 -17.00   1.00  140.00    --  -12.80 157.00 112.09   72
  3  \w    -99.00  74.00   1.00  140.00    --  -12.80   0.00 150.00  173
  4  \w    -83.00  14.00   1.00  140.00    --  -12.80 -57.00 -60.00   97
  5  \w    -85.00  10.00   1.00  140.00    --  -12.80 -38.00  90.00   95
  6  \w    -72.00  -1.00   1.00  140.00    --  -12.80 131.00  -3.11   71
  7  \w    -85.00  10.00   1.00  140.00    --  -12.80 -38.00   0.00   95
  8  \w    -62.00 -16.00   1.00  140.00    --   13.11 155.00  80.83   46
  9  \w    -71.00  -1.00   1.00  140.00    --  -12.80 130.00 -50.66   70
 10  \w    -83.00 -12.00   1.00  140.00    --  -12.80 149.00  58.90   71
 11  \w     53.00  99.00   1.00  140.00    --   13.11-179.00-180.00   46
 12  \w     -9.00  86.00   1.00  140.00    --   13.11  38.00-120.00   95
 13  \w     -4.00  53.00   1.00  140.00    --   13.11 -99.00-120.00   57
 14  \w     -4.00  53.00   1.00  140.00    --   13.11 -99.00-180.00   57
 15  \w   -100.00 -34.00   1.00  140.00    --  -12.80-179.00  60.00   66
 16  \w    -71.00  -1.00   1.00  140.00    --  -12.80 130.00-162.09   70
 17  \w    -74.00 100.00   1.00  140.00    --   13.11   0.00-180.00  174
 18  \w    -74.00  28.00   1.00  140.00    --   13.11   0.00-120.00  102
 19  \w    -74.00 100.00   1.00  140.00    --   13.11   0.00-150.00  174
;
_diffrn_measurement_device       'four-circle diffractometer'
_diffrn_measurement_device_type  'Xcalibur, Atlas, Gemini ultra'
_diffrn_measurement_method       '\w scans'
_diffrn_orient_matrix_type
'CrysAlisPro convention (1999,Acta A55,543-557)'
_diffrn_orient_matrix_UB_11      -0.0267929000
_diffrn_orient_matrix_UB_12      0.0578730000
_diffrn_orient_matrix_UB_13      -0.0357523000
_diffrn_orient_matrix_UB_21      -0.0974038000
_diffrn_orient_matrix_UB_22      -0.0398049000
_diffrn_orient_matrix_UB_23      -0.0378432000
_diffrn_orient_matrix_UB_31      -0.0612012000
_diffrn_orient_matrix_UB_32      0.0302108000
_diffrn_orient_matrix_UB_33      0.0495210000
_diffrn_radiation_monochromator  graphite
_diffrn_radiation_probe          x-ray
_diffrn_radiation_type           'Mo K\a'
_diffrn_radiation_wavelength     0.71073
_diffrn_reflns_av_R_equivalents  0.0342
_diffrn_reflns_av_unetI/netI     0.0149
_diffrn_reflns_Laue_measured_fraction_full 0.999
_diffrn_reflns_Laue_measured_fraction_max 0.999
_diffrn_reflns_limit_h_max       7
_diffrn_reflns_limit_h_min       -7
_diffrn_reflns_limit_k_max       12
_diffrn_reflns_limit_k_min       -12
_diffrn_reflns_limit_l_max       13
_diffrn_reflns_limit_l_min       -13
_diffrn_reflns_number            26391
_diffrn_reflns_point_group_measured_fraction_full 0.999
_diffrn_reflns_point_group_measured_fraction_max 0.999
_diffrn_reflns_theta_full        25.242
_diffrn_reflns_theta_max         27.497
_diffrn_reflns_theta_min         3.259
_diffrn_source                   'fine-focus sealed X-ray tube'
_diffrn_source_type              'Enhance (Mo) X-ray Source'
_exptl_absorpt_coefficient_mu    0.109
_exptl_absorpt_correction_T_max  1.00000
_exptl_absorpt_correction_T_min  0.83316
_exptl_absorpt_correction_type   multi-scan
_exptl_absorpt_process_details
;
CrysAlisPro 1.171.38.46 (Rigaku Oxford Diffraction, 2015)
Empirical absorption correction using spherical harmonics,
 implemented in SCALE3 ABSPACK scaling algorithm.
;
_exptl_crystal_colour            colourless
_exptl_crystal_density_diffrn    1.385
_exptl_crystal_description       plate
_exptl_crystal_F_000             248
_exptl_crystal_recrystallization_method
'Re-crystallisation from solvent: 1:1 molar mixture of dichloromethane and hexane'
_exptl_crystal_size_max          0.45
_exptl_crystal_size_mid          0.12
_exptl_crystal_size_min          0.04
_refine_diff_density_max         0.227
_refine_diff_density_min         -0.160
_refine_diff_density_rms         0.028
_refine_ls_extinction_coef       0.075(6)
_refine_ls_extinction_expression Fc^*^=kFc[1+0.001xFc^2^\l^3^/sin(2\q)]^-1/4^
_refine_ls_extinction_method     'SHELXL-2018/3 (Sheldrick 2018)'
_refine_ls_goodness_of_fit_ref   1.065
_refine_ls_hydrogen_treatment    mixed
_refine_ls_matrix_type           full
_refine_ls_number_parameters     158
_refine_ls_number_reflns         2607
_refine_ls_number_restraints     0
_refine_ls_restrained_S_all      1.065
_refine_ls_R_factor_all          0.0435
_refine_ls_R_factor_gt           0.0338
_refine_ls_shift/su_max          0.000
_refine_ls_shift/su_mean         0.000
_refine_ls_structure_factor_coef Fsqd
_refine_ls_weighting_details
'w=1/[\s^2^(Fo^2^)+(0.0407P)^2^+0.0895P] where P=(Fo^2^+2Fc^2^)/3'
_refine_ls_weighting_scheme      calc
_refine_ls_wR_factor_gt          0.0866
_refine_ls_wR_factor_ref         0.0922
_reflns_Friedel_coverage         0.000
_reflns_number_gt                2123
_reflns_number_total             2607
_reflns_threshold_expression     'I > 2\s(I)'
_cod_data_source_file            d2ce00279e2.cif
_cod_data_source_block           TvO
_cod_depositor_comments
;
The following automatic conversions were performed:

data item '_chemical_melting_point' value '338-378 K' was changed to
'358(2)' -- the average value was taken and precision was estimated.

Automatic conversion script
Id: cif_fix_values 7556 2019-12-06 15:28:31Z antanas 
;
_cod_database_code               7244747
_shelx_shelxl_version_number     2018/3
_shelx_space_group_comment
;
The symmetry employed for this shelxl refinement is uniquely defined
by the following loop, which should always be used as a source of
symmetry information in preference to the above space-group names.
They are only intended as comments.
;
_shelx_estimated_absorpt_t_max   0.996
_shelx_estimated_absorpt_t_min   0.953
_reflns_odcompleteness_completeness 99.89
_reflns_odcompleteness_iscentric 1
_reflns_odcompleteness_theta     27.82
_olex2_refinement_description
;
1. Fixed Uiso
 At 1.2 times of:
  All C(H) groups, All C(H,H) groups
 At 1.5 times of:
  All O(H) groups
2.a Ternary CH refined with riding coordinates:
 C7(H7)
2.b Secondary CH2 refined with riding coordinates:
 C8(H8A,H8B), C11(H11A,H11B), C10(H10A,H10B), C9(H9A,H9B)
2.c Aromatic/amide H refined with riding coordinates:
 C2(H2), C5(H5), C3(H3)
;
_shelx_res_file
;
TITL kga-5_a.res in P-1
    kga-5.res
    created by SHELXL-2018/3 at 13:12:18 on 19-Jul-2021
REM Old TITL kga-5 in P-1 #2
REM SHELXT solution in P-1
REM R1 0.185, Rweak 0.014, Alpha 0.033, Orientation as input
REM Formula found by SHELXT: C12 N2 O3
CELL 0.71073 6.118122 9.415496 10.191402 99.3826 100.6048 91.2196
ZERR 2 0.000292 0.00038 0.000356 0.0032 0.0035 0.0036
LATT 1
SFAC C H B F N O
UNIT 22 26 2 2 2 6

L.S. 10
PLAN  5
SIZE 0.45 0.12 0.04
CONF
BOND $H
LIST 6
MORE -1
fmap 2
acta
OMIT -2 55
REM <olex2.extras>
REM <HklSrc "%.\\kga-5.hkl">
REM </olex2.extras>

WGHT    0.040700    0.089500
EXTI    0.075226
FVAR       1.16415
O2    6    0.438695    0.753619    0.478538    11.00000    0.04864    0.04130 =
         0.03167    0.00464    0.00355    0.00639
O3    6    0.114804    1.078882    0.202335    11.00000    0.05092    0.03985 =
         0.04877    0.00940    0.00285    0.00537
O1    6    0.804500    0.696993    0.580536    11.00000    0.04882    0.04723 =
         0.04502    0.00421   -0.00403    0.00268
H1    2    0.794380    0.759248    0.646922    11.00000   -1.50000
N1    5    0.191203    0.805632    0.280180    11.00000    0.03422    0.03868 =
         0.03694    0.00821    0.00801    0.00525
F1    4    0.327233    0.301984   -0.011526    11.00000    0.11512    0.06498 =
         0.05652   -0.02295    0.00916   -0.00732
C6    1    0.378812    0.577974    0.280888    11.00000    0.04471    0.03248 =
         0.03686    0.00815    0.00676   -0.00061
C7    1    0.270430    0.697889    0.358359    11.00000    0.03792    0.03945 =
         0.03574    0.00782    0.00567    0.00059
AFIX  13
H7    2    0.143569    0.655907    0.387839    11.00000   -1.20000
AFIX   0
C1    1    0.590020    0.557705    0.350250    11.00000    0.04366    0.03248 =
         0.04206    0.00873    0.00718    0.00204
C8    1    0.364839    0.886111    0.237823    11.00000    0.03980    0.04576 =
         0.04354    0.01214    0.01433    0.00670
AFIX  23
H8A   2    0.458445    0.819756    0.193487    11.00000   -1.20000
H8B   2    0.457510    0.944551    0.316355    11.00000   -1.20000
AFIX   0
C11   1    0.049465    0.906398    0.344436    11.00000    0.03794    0.04738 =
         0.04932    0.00883    0.01501    0.00695
AFIX  23
H11A  2    0.137081    0.965594    0.424430    11.00000   -1.20000
H11B  2   -0.066925    0.853562    0.372330    11.00000   -1.20000
AFIX   0
C10   1   -0.053074    1.000776    0.246406    11.00000    0.03887    0.04541 =
         0.05957    0.00704    0.00248    0.00650
AFIX  23
H10B  2   -0.146300    0.941567    0.168587    11.00000   -1.20000
H10A  2   -0.146560    1.068112    0.289701    11.00000   -1.20000
AFIX   0
C9    1    0.257863    0.981396    0.141515    11.00000    0.06202    0.04965 =
         0.04200    0.01369    0.01503    0.00805
AFIX  23
H9B   2    0.372967    1.035864    0.114086    11.00000   -1.20000
H9A   2    0.172326    0.921836    0.061015    11.00000   -1.20000
AFIX   0
C2    1    0.714031    0.449002    0.294864    11.00000    0.05400    0.03946 =
         0.05914    0.01009    0.01207    0.01000
AFIX  43
H2    2    0.855963    0.433931    0.339942    11.00000   -1.20000
AFIX   0
C5    1    0.284986    0.493670    0.158306    11.00000    0.05535    0.04373 =
         0.04181    0.00434    0.00175   -0.00310
AFIX  43
H5    2    0.143103    0.507723    0.112490    11.00000   -1.20000
AFIX   0
C4    1    0.413369    0.388279    0.108385    11.00000    0.07889    0.03910 =
         0.04350   -0.00377    0.01168   -0.00581
C3    1    0.623578    0.363817    0.172101    11.00000    0.07890    0.03681 =
         0.06143   -0.00007    0.02538    0.01002
AFIX  43
H3    2    0.704024    0.291082    0.133352    11.00000   -1.20000
AFIX   0
B1    3    0.624170    0.673591    0.480950    11.00000    0.04434    0.03414 =
         0.03832    0.01104    0.00498   -0.00011
HKLF 4




REM  kga-5_a.res in P-1
REM wR2 = 0.0922, GooF = S = 1.065, Restrained GooF = 1.065 for all data
REM R1 = 0.0338 for 2123 Fo > 4sig(Fo) and 0.0435 for all 2607 data
REM 158 parameters refined using 0 restraints

END

WGHT      0.0407      0.0895

REM Highest difference peak  0.227,  deepest hole -0.160,  1-sigma level  0.028
Q1    1   0.6172  0.6025  0.4200  11.00000  0.05    0.23
Q2    1   0.4722  0.5530  0.3268  11.00000  0.05    0.19
Q3    1   0.2413  0.7615  0.3245  11.00000  0.05    0.16
Q4    1   0.3155  0.6384  0.3071  11.00000  0.05    0.16
Q5    1   0.2622  0.8384  0.2575  11.00000  0.05    0.14
;
_shelx_res_checksum              26611
_shelx_hkl_file
;
   0   0   2 1556.05   10.40
   0   0   2 1489.12   10.47
   0   0   2 1524.21    6.40
   0   0  -2 1502.98    9.64
   0   0   2 1503.23    7.24
   0   0  -2 1565.19   10.97
   0   0   2 1567.22    8.80
   0   0   2 1559.45   10.51
   0   0  -2 1587.28    8.64
   0   0  -2 1601.75    6.62
   0   0   3    9.85    0.72
   0   0   3   10.88    1.61
   0   0  -3   10.29    1.06
   0   0  -3    8.71    0.92
   0   0   3   10.80    1.21
   0   0  -3    8.63    1.20
   0   0   3    9.31    0.93
   0   0   3   11.21    1.25
   0   0  -3    9.16    0.78
   0   0  -3   10.34    1.24
   0   0  -3    8.69    1.07
   0   0  -3   10.09    0.99
   0   0   3    9.86    1.31
   0   0   3   10.65    1.23
   0   0   3    8.96    1.26
   0   0  -3   11.07    0.75
   0   0   3   10.14    0.98
   0   0   3    9.86    0.88
   0   0  -4   95.09    3.23
   0   0  -4   93.88    3.63
   0   0  -4   99.84    2.61
   0   0   4   98.48    3.66
   0   0   4   95.85    3.78
   0   0  -4   98.21    3.57
   0   0   4   97.34    3.82
   0   0  -4   96.36    3.80
   0   0   4   96.47    3.75
   0   0   4   96.54    3.89
   0   0  -4   96.62    3.38
   0   0   4   96.84    3.07
   0   0  -4   97.59    3.14
   0   0   4   94.79    3.46
   0   0  -4   96.62    3.98
   0   0   4   97.30    2.35
   0   0   4   95.87    3.08
   0   0   4   98.98    2.73
   0   0   4   99.37    4.03
   0   0   4  105.90    4.46
   0   0   5    1.21    1.14
   0   0   5    0.76    0.49
   0   0   5    0.80    0.43
   0   0  -5    1.76    0.99
   0   0  -5    1.63    1.06
   0   0  -5    1.11    0.51
   0   0  -5    1.13    0.76
   0   0  -5    1.11    0.78
   0   0   5   -0.08    1.03
   0   0  -5    0.65    0.98
   0   0   5    2.16    1.08
   0   0   5    0.66    0.74
   0   0   5    0.12    0.97
   0   0  -5    0.88    1.08
   0   0  -5    0.31    0.72
   0   0   5    1.11    0.85
   0   0   5    2.23    0.94
   0   0  -5    0.69    0.77
   0   0   5    1.20    0.81
   0   0   5    0.83    0.69
   0   0   5    0.99    0.58
   0   0  -5    0.78    0.60
   0   0  -6  271.98    5.11
   0   0   6  268.95    7.81
   0   0  -6  273.11    7.36
   0   0   6  240.98    7.57
   0   0  -6  275.75    7.83
   0   0   6  273.99    8.09
   0   0   6  295.94    5.70
   0   0   6  273.92    8.82
   0   0  -6  290.57    7.64
   0   0   6  258.93    6.29
   0   0  -6  272.81    6.95
   0   0  -6  261.43    8.05
   0   0   6  285.19    4.99
   0   0   6  263.39    7.67
   0   0  -6  263.38    6.29
   0   0   6  275.35    6.41
   0   0  -6  285.09    8.20
   0   0   6  287.15    8.28
   0   0  -6  273.45    7.70
   0   0   7   36.32    3.57
   0   0   7   37.53    3.30
   0   0   7   34.08    3.05
   0   0   7   31.43    2.46
   0   0  -7   38.12    2.89
   0   0  -7   38.02    2.77
   0   0  -7   34.63    3.09
   0   0   7   36.80    3.52
   0   0   7   38.79    2.29
   0   0  -7   38.10    3.40
   0   0   7   39.91    3.49
   0   0  -7   37.82    3.06
   0   0   7   39.02    3.40
   0   0   7   38.96    2.00
   0   0  -7   35.83    3.05
   0   0  -7   34.56    1.98
   0   0  -7   41.20    3.29
   0   0   7   36.34    3.14
   0   0  -7   33.09    2.50
   0   0  -7   39.89    3.43
   0   0   8   84.22    4.17
   0   0   8   79.40    4.13
   0   0  -8   82.64    5.39
   0   0  -8   84.59    4.87
   0   0  -8   76.17    4.04
   0   0   8   81.97    5.07
   0   0   8   82.25    5.28
   0   0   8   81.40    4.70
   0   0  -8   83.02    5.27
   0   0  -8   87.04    4.65
   0   0  -8   84.15    4.85
   0   0  -8   82.01    3.24
   0   0  -8   81.95    5.02
   0   0   8   76.52    5.45
   0   0  -8   88.26    4.55
   0   0   8   79.59    4.99
   0   0   8   80.68    4.88
   0   0   8   89.33    3.14
   0   0   8   84.70    5.81
   0   0   8   75.70    4.91
   0   0   9    0.38    1.17
   0   0   9    0.64    0.49
   0   0  -9    3.10    1.46
   0   0   9    1.43    1.15
   0   0   9    1.49    1.00
   0   0  -9   -0.03    1.02
   0   0   9    0.61    0.72
   0   0  -9    0.71    0.87
   0   0   9    1.67    1.72
   0   0  -9    1.37    1.08
   0   0   9   -0.55    1.05
   0   0  -9    0.34    1.25
   0   0   9   -0.13    1.68
   0   0  -9   -0.57    0.68
   0   0   9   -1.41    1.34
   0   0  -9    0.78    0.57
   0   0  10    4.47    2.24
   0   0  10    0.59    1.06
   0   0  10    0.54    1.13
   0   0 -10    0.87    1.06
   0   0 -10    0.99    1.19
   0   0  10    0.77    1.24
   0   0 -10    1.20    1.52
   0   0  10    3.08    1.54
   0   0  11    9.19    2.03
   0   0  11   11.18    2.81
   0   0  11   10.46    2.94
   0   0  11   11.15    2.68
   0   0  11   11.53    2.35
   0   0 -11    9.45    2.46
   0   0 -11   11.22    2.01
   0   0 -11    8.66    2.24
   0   0  11    9.24    2.22
   0   0  12    1.09    1.27
   0   0 -12    2.35    1.63
   0   0 -12   -1.12    1.38
   0   0  12    1.41    1.62
   0   0  12   -0.78    1.30
   0   0  12   -2.99    2.03
   0   0  12    0.03    1.37
   0   0 -12    1.18    1.10
   0   0  12    1.98    1.48
   0   0 -13    1.97    1.49
   0   0  13    6.77    2.62
   0   0  13    7.70    2.48
   0   0  13    7.99    3.00
   0   0  13   10.41    2.64
   0   0  13    5.97    1.89
   0   0 -13    6.01    2.17
   0   0  13    8.22    2.26
   0  -1  13   -0.45    1.47
   0  -1  13    1.00    1.68
   0   1 -13   -3.09    2.09
   0  -1  13   -0.43    1.35
   0   1 -13    1.22    1.23
   0  -1  13   -1.86    1.70
   0  -1  13   -2.93    2.58
   0  -1  13    0.09    1.22
   0  -1  12    2.24    1.81
   0  -1  12    3.16    1.83
   0  -1  12   -0.93    1.75
   0  -1  12    0.00    1.38
   0  -1  12    0.36    1.12
   0   1 -12    0.42    1.35
   0   1 -12   -2.58    1.53
   0   1 -11   51.06    4.07
   0  -1  11   54.21    5.33
   0   1 -11   50.88    4.58
   0  -1  11   46.32    4.76
   0  -1  11   53.59    5.70
   0  -1  11   55.42    4.90
   0  -1  11   51.51    4.84
   0   1 -11   54.31    5.28
   0  -1  10   21.04    3.46
   0  -1  10   18.44    2.91
   0   1 -10   23.19    2.08
   0   1 -10   24.12    3.40
   0   1 -10   19.24    2.54
   0  -1  10   16.98    2.71
   0  -1  10   25.84    3.77
   0  -1  10   21.02    3.05
   0  -1  10   21.22    2.96
   0  -1  10   24.23    3.14
   0   1 -10   20.13    2.82
   0  -1   9  105.86    6.25
   0  -1   9  123.67    6.79
   0   1  -9  108.60    5.26
   0  -1   9  109.25    6.20
   0   1  -9  113.54    5.60
   0  -1   9  113.39    7.05
   0   1  -9  122.06    6.92
   0  -1   9  121.81    5.46
   0  -1   9  107.73    2.56
   0  -1   9  108.31    6.66
   0   1  -9  122.50    4.54
   0  -1   9  123.50    6.27
   0  -1   9  111.29    6.29
   0   1  -9  108.99    5.87
   0   1  -9  110.00    5.17
   0  -1   9  122.58    6.48
   0   1  -8   55.82    3.70
   0   1  -8   55.10    4.21
   0   1  -8   62.26    4.25
   0   1  -8   58.61    4.38
   0   1  -8   59.58    4.57
   0  -1   8   55.41    4.31
   0  -1   8   62.45    3.69
   0  -1   8   58.25    4.25
   0  -1   8   65.67    4.70
   0  -1   8   57.37    4.51
   0   1  -8   60.75    3.09
   0  -1   8   60.84    4.85
   0  -1   8   62.78    4.41
   0  -1   8   60.95    4.35
   0  -1   8   58.10    4.06
   0   1  -8   59.53    3.56
   0  -1   8   58.73    1.99
   0   1  -8   62.48    4.21
   0   1  -8   57.09    3.59
   0   1  -7  297.16    8.84
   0  -1   7  290.53    9.78
   0  -1   7  281.67    8.57
   0   1  -7  283.95    8.37
   0   1  -7  288.17    7.42
   0   1  -7  295.10    7.67
   0  -1   7  299.03    9.41
   0  -1   7  279.91    8.80
   0   1  -7  291.56    9.11
   0   1  -7  313.61    9.49
   0  -1   7  310.51    7.22
   0   1  -7  314.58    6.74
   0   1  -7  289.66    8.27
   0  -1   7  292.69    9.35
   0  -1   7  307.50    9.25
   0  -1   7  304.13    4.38
   0  -1   7  299.21    8.68
   0  -1   7  293.45    8.85
   0  -1   6   32.07    2.87
   0  -1   6   30.83    1.32
   0  -1   6   34.14    2.39
   0   1  -6   35.40    2.20
   0   1  -6   33.47    2.75
   0  -1   6   31.97    2.26
   0  -1   6   29.41    2.67
   0  -1   6   31.69    2.58
   0  -1   6   34.67    3.02
   0   1  -6   30.58    2.74
   0  -1   6   29.80    2.77
   0  -1   6   34.90    3.01
   0   1  -6   30.69    2.68
   0   1  -6   31.15    2.33
   0  -1   6   30.22    2.77
   0   1  -6   29.37    2.15
   0   1  -6   29.32    2.88
   0   1  -6   30.02    2.26
   0   1  -6   32.63    2.72
   0  -1   5    3.10    0.96
   0   1  -5    3.55    0.88
   0  -1   5    3.90    0.94
   0  -1   5    2.85    0.85
   0  -1   5    4.29    1.19
   0  -1   5    1.52    1.01
   0   1  -5    2.10    0.69
   0   1  -5    3.93    1.14
   0   1  -5    2.97    1.08
   0  -1   5    4.15    1.35
   0  -1   5    3.03    0.44
   0   1  -5    3.36    1.09
   0  -1   5    3.18    1.07
   0  -1   5    3.13    0.97
   0   1  -5    3.21    0.94
   0   1  -5    3.41    0.75
   0  -1   5    3.41    1.24
   0   1  -5    3.98    1.03
   0  -1   5    2.41    1.06
   0  -1   5    3.17    1.10
   0  -1   4   52.47    2.68
   0  -1   4   49.62    2.77
   0   1  -4   48.93    2.46
   0  -1   4   52.20    2.82
   0  -1   4   45.12    2.54
   0  -1   4   49.61    1.34
   0   1  -4   48.34    2.33
   0  -1   4   49.93    2.98
   0  -1   4   56.40    3.05
   0  -1   4   51.42    2.34
   0  -1   4   49.14    2.84
   0  -1   4   44.14    2.88
   0   1  -4   47.53    2.78
   0   1  -4   52.21    2.38
   0   1  -4   48.73    2.66
   0   1  -4   48.74    2.78
   0  -1   4   54.34    2.47
   0   1  -4   49.05    2.14
   0  -1   4   53.56    3.06
   0   1  -4   49.32    2.69
   0  -1   3   16.46    1.54
   0  -1   3   17.75    1.43
   0  -1   3   13.73    1.51
   0   1  -3   15.37    1.30
   0   1  -3   13.44    1.36
   0  -1   3   14.39    1.52
   0  -1   3   16.37    1.53
   0   1  -3   14.53    1.19
   0  -1   3   15.48    1.40
   0   1  -3   14.10    1.04
   0  -1   3   16.55    1.22
   0   1  -3   11.60    1.20
   0  -1   3   16.24    1.32
   0  -1   3   15.07    1.50
   0   1  -3   15.34    1.47
   0   1  -2   59.91    2.02
   0  -1   2   59.84    2.07
   0  -1   2   55.83    2.25
   0  -1   2   52.02    2.21
   0  -1   2   58.73    1.77
   0  -1   2   52.36    2.04
   0  -1   2   52.88    2.31
   0  -1   2   47.18    2.08
   0   1   1  606.38    5.07
   0  -1  -2 2507.73   15.74
   0   1   2 2624.61   14.09
   0  -1  -2 2594.93   13.63
   0   1   2 2614.00   11.52
   0   1   2 2592.36   13.35
   0  -1  -2 2586.89   12.17
   0  -1  -2 2652.63   13.16
   0   1   2 2510.15   12.49
   0   1   2 2607.63   13.17
   0   1   2 2549.23   13.59
   0   1   2 2673.80   14.09
   0  -1  -3  675.20    8.30
   0   1   3  677.32    8.59
   0   1   3  704.04    8.36
   0   1   3  668.05    8.13
   0   1   3  686.65    7.28
   0   1   3  684.19    8.52
   0  -1  -3  707.13    7.11
   0  -1  -3  687.86    6.89
   0  -1  -3  696.05    9.28
   0  -1  -3  666.43    9.63
   0   1   3  679.58    8.23
   0  -1  -3  666.62    9.33
   0   1   3  665.23    7.98
   0   1   3  677.36    7.00
   0   1   3  652.67    4.32
   0  -1  -3  681.87    8.30
   0  -1  -3  633.06    8.16
   0   1   3  709.14   10.73
   0  -1  -3  679.94    8.03
   0   1   4 1267.10    7.20
   0  -1  -4 1205.86   12.79
   0   1   4 1206.83   12.29
   0   1   4 1195.48   13.22
   0   1   4 1219.26   12.33
   0   1   4 1301.76   11.04
   0   1   4 1268.10   16.27
   0  -1  -4 1226.74   12.77
   0   1   4 1241.71   12.58
   0  -1  -4 1194.03   12.49
   0  -1  -4 1266.17   10.24
   0  -1  -4 1238.99   12.38
   0  -1  -4 1199.64   14.38
   0  -1  -4 1254.16   13.16
   0  -1  -4 1250.57   13.43
   0  -1  -4 1264.00   10.88
   0   1   4 1208.69   13.30
   0   1   4 1264.09   12.87
   0   1   4 1284.52   10.83
   0  -1  -4 1263.22   14.04
   0  -1  -4 1256.69   12.97
   0  -1  -5  327.95    8.42
   0  -1  -5  342.93    7.87
   0   1   5  326.09    7.86
   0  -1  -5  333.47    7.69
   0  -1  -5  314.65    6.16
   0   1   5  354.42    9.52
   0   1   5  344.73    6.39
   0   1   5  361.58    6.28
   0   1   5  333.82    7.47
   0  -1  -5  330.73    7.39
   0  -1  -5  337.34    7.78
   0  -1  -5  332.06    7.26
   0  -1  -5  338.73    8.16
   0   1   5  321.74    7.03
   0   1   5  336.83    7.26
   0   1   5  330.82    7.76
   0  -1  -5  330.13    7.45
   0  -1  -5  334.90    7.60
   0  -1  -5  333.25    5.72
   0   1   5  336.12    7.39
   0  -1  -5  338.70    7.30
   0  -1  -6  140.99    5.25
   0   1   6  139.57    5.75
   0  -1  -6  139.89    5.49
   0   1   6  147.37    4.59
   0  -1  -6  140.14    5.56
   0   1   6  135.06    4.90
   0  -1  -6  137.63    5.53
   0  -1  -6  141.80    6.04
   0   1   6  127.56    5.37
   0  -1  -6  135.86    4.45
   0  -1  -6  132.18    3.83
   0  -1  -6  134.11    5.19
   0   1   6  146.42    4.28
   0   1   6  137.32    6.51
   0  -1  -6  135.44    5.64
   0  -1  -7    4.64    1.36
   0  -1  -7    2.29    0.90
   0  -1  -7    2.62    1.11
   0   1   7    2.55    1.36
   0   1   7    2.29    0.70
   0  -1  -7    2.40    1.09
   0  -1  -7    2.86    1.37
   0  -1  -7    2.37    1.16
   0   1   7    1.78    0.95
   0   1   7    1.99    1.24
   0  -1  -7    2.07    0.93
   0   1   7    2.71    1.20
   0  -1  -7    1.77    1.01
   0   1   7    3.62    1.23
   0  -1  -7    2.06    0.89
   0   1   7    3.67    1.55
   0  -1  -7    3.10    1.18
   0   1   8   23.93    1.95
   0  -1  -8   24.90    2.60
   0   1   8   20.55    3.12
   0  -1  -8   19.08    2.52
   0   1   8   23.62    2.57
   0   1   8   17.88    2.52
   0  -1  -8   20.72    2.71
   0   1   8   21.50    2.62
   0  -1  -8   22.31    2.52
   0   1   8   19.50    2.61
   0   1   8   15.21    2.42
   0  -1  -8   18.71    2.08
   0  -1  -8   23.53    2.85
   0   1   8   22.78    2.15
   0   1   8   21.18    3.10
   0   1   8   18.67    2.26
   0   1   8   20.58    2.56
   0  -1  -8   21.63    2.58
   0  -1  -8   24.00    2.65
   0  -1  -9  330.30   10.17
   0   1   9  334.37   12.49
   0  -1  -9  342.49   11.03
   0   1   9  339.77    8.77
   0   1   9  309.56   10.51
   0   1   9  327.72   12.26
   0   1   9  324.58   10.92
   0  -1  -9  306.64    8.43
   0   1   9  332.98   10.03
   0   1   9  340.10    7.37
   0  -1  -9  325.68   10.35
   0   1   9  328.45   10.30
   0   1   9  325.01    9.36
   0   1   9  337.09   10.29
   0  -1 -10   87.51    6.04
   0   1  10   80.11    5.82
   0   1  10   86.18    5.52
   0   1  10   88.29    7.00
   0  -1 -10   78.10    4.58
   0   1  10   74.59    4.90
   0   1  10   83.81    5.50
   0   1  10   87.69    5.54
   0  -1 -10   84.62    5.68
   0   1  10   85.34    6.75
   0   1  11    0.49    1.28
   0   1  11    2.38    1.75
   0  -1 -11    1.38    1.23
   0  -1 -11    0.26    1.32
   0   1  11    0.68    1.81
   0   1  11    1.16    1.21
   0   1  11    0.39    1.18
   0  -1 -11    1.56    1.10
   0   1  11   -0.78    1.49
   0   1  11    0.76    1.32
   0   1  12    0.48    1.22
   0  -1 -12    2.16    1.68
   0  -1 -12    0.29    0.94
   0   1  12    1.82    1.30
   0   1  12    6.01    2.05
   0   1  12    1.01    1.19
   0   1  12    6.47    2.73
   0   1  12   -3.53    2.29
   0  -1 -12    0.30    1.38
   0  -1 -13   -2.10    1.84
   0   1  13    3.19    2.08
   0  -1 -13   -1.79    1.65
   0   1  13    1.65    1.92
   0  -2  14    2.69    1.92
   0  -2  13   -1.99    1.70
   0   2 -13   -0.45    1.69
   0   2 -13    1.51    1.32
   0  -2  13   -0.04    1.95
   0  -2  13    3.11    2.16
   0  -2  13    1.08    1.59
   0  -2  13   -0.70    1.38
   0  -2  12   -0.14    1.54
   0  -2  12    0.61    1.07
   0   2 -12    1.73    1.29
   0   2 -12   -0.18    1.36
   0  -2  12    1.60    1.48
   0  -2  12    0.86    1.34
   0  -2  12    0.24    1.77
   0  -2  12   -1.33    1.61
   0  -2  12    2.17    1.73
   0  -2  11    7.22    1.92
   0  -2  11    1.36    1.58
   0   2 -11    5.01    2.06
   0  -2  11    3.08    1.79
   0  -2  11    4.35    2.11
   0  -2  11    5.09    1.98
   0  -2  11    2.26    1.65
   0  -2  11    6.68    2.02
   0   2 -11    3.62    1.45
   0  -2  10   75.91    5.55
   0  -2  10   76.91    6.26
   0  -2  10   81.15    5.81
   0   2 -10   70.12    4.08
   0  -2  10   80.42    5.77
   0   2 -10   80.39    4.26
   0  -2  10   78.33    5.88
   0   2 -10   71.68    4.67
   0  -2  10   79.42    5.82
   0   2 -10   69.90    4.23
   0   2 -10   88.35    6.37
   0   2 -10   78.65    4.90
   0  -2  10   74.58    5.72
   0   2  -9   10.81    1.68
   0  -2   9   12.59    2.35
   0  -2   9   14.93    2.54
   0   2  -9   13.37    2.11
   0  -2   9   12.73    2.41
   0   2  -9   14.86    2.12
   0   2  -9   13.60    1.81
   0  -2   9   19.22    3.28
   0  -2   9   14.53    2.57
   0  -2   9   13.21    2.49
   0  -2   9   13.87    2.51
   0   2  -9   11.79    2.44
   0  -2   8   62.26    4.48
   0  -2   8   57.71    4.39
   0  -2   8   66.36    3.96
   0  -2   8   67.44    4.83
   0   2  -8   59.23    3.79
   0  -2   8   56.54    4.38
   0   2  -8   64.27    3.60
   0  -2   8   61.31    4.55
   0  -2   8   59.87    4.28
   0   2  -8   65.83    4.57
   0  -2   8   61.73    4.54
   0   2  -8   62.53    4.77
   0  -2   8   58.09    4.41
   0  -2   8   60.43    4.94
   0   2  -8   67.90    3.94
   0  -2   7   69.75    3.83
   0   2  -7   65.37    3.89
   0  -2   7   64.56    1.70
   0  -2   7   68.50    3.52
   0   2  -7   75.83    4.77
   0  -2   7   69.72    3.78
   0  -2   7   63.84    4.45
   0   2  -7   64.13    4.16
   0  -2   7   67.79    4.35
   0  -2   7   64.48    4.30
   0  -2   7   71.69    4.62
   0   2  -7   71.03    3.63
   0   2  -7   66.79    3.31
   0  -2   7   65.48    4.16
   0  -2   7   66.71    4.30
   0  -2   7   61.30    1.57
   0  -2   7   66.44    4.32
   0   2  -7   71.47    3.75
   0  -2   7   67.95    4.35
   0   2  -6   93.68    3.99
   0  -2   6   88.19    1.93
   0  -2   6   96.38    4.90
   0  -2   6   92.32    4.93
   0  -2   6   94.69    4.57
   0  -2   6   89.86    3.70
   0   2  -6   96.84    3.97
   0  -2   6   95.59    4.38
   0   2  -6   94.56    3.56
   0  -2   6   97.28    4.85
   0  -2   6   91.11    4.73
   0  -2   6   94.81    4.54
   0   2  -6   92.77    4.62
   0   2  -6   89.30    4.14
   0  -2   6   89.09    4.85
   0   2  -5   11.80    1.19
   0  -2   5   12.66    1.95
   0  -2   5   12.13    0.78
   0  -2   5   13.62    1.85
   0  -2   5   12.41    1.39
   0  -2   5   11.54    1.57
   0  -2   5   12.63    1.73
   0  -2   5   14.20    1.95
   0   2  -5   11.32    1.63
   0   2  -5   11.85    1.90
   0  -2   5   13.03    1.56
   0   2  -5   12.57    1.40
   0  -2   5   14.97    1.89
   0   2  -5   29.28    2.84
   0   2  -5   11.70    1.50
   0  -2   5   11.20    1.58
   0  -2   5   11.80    1.67
   0  -2   5   11.51    1.60
   0  -2   5   11.86    1.73
   0   2  -4  393.28    8.66
   0  -2   4  382.55    7.80
   0   2  -4  386.89    7.18
   0  -2   4  423.51    8.59
   0  -2   4  395.15    7.26
   0  -2   4  395.61    6.41
   0   2  -4  381.09    5.77
   0  -2   4  375.15    8.09
   0   2  -4  385.64    6.57
   0  -2   4  387.19    8.31
   0  -2   4  388.61    4.33
   0  -2   4  386.66    8.35
   0  -2   4  368.42    7.68
   0  -2   4  383.99    7.27
   0  -2   4  408.72    8.37
   0  -2   4  389.79    8.17
   0  -2   4  405.99    7.66
   0   2  -4  392.89    7.25
   0  -2   3  200.63    5.34
   0   2  -3  197.77    4.75
   0  -2   3  201.12    5.41
   0  -2   3  207.17    5.54
   0  -2   3  218.72    4.41
   0  -2   3  205.41    5.09
   0  -2   3  198.98    3.14
   0  -2   3  225.48    5.30
   0  -2   3  219.50    4.40
   0  -2   3  200.65    5.31
   0   2  -2 4110.40   19.72
   0   2  -2 4290.94   15.47
   0  -2   2 4040.55   21.77
   0  -2   2 4156.62   20.69
   0  -2   1   31.31    1.79
   0  -2   1   27.65    1.72
   0  -2   1   28.91    1.67
   0  -2   1   28.26    1.45
   0   2  -1   28.49    1.66
   0  -2   1   29.40    1.74
   0   2  -1   31.44    1.55
   0  -2   0   84.40    2.66
   0  -2   0   86.71    2.66
   0  -2   0   88.51    2.64
   0   2   0   86.39    1.65
   0  -2   0   80.35    1.57
   0  -2   0   94.00    2.61
   0  -2   0   96.77    2.07
   0   2   0   90.42    1.90
   0   2   0   87.18    2.15
   0  -2  -1 2650.08   15.05
   0   2   1 2731.75   11.90
   0  -2  -1 2650.12   14.99
   0   2   1 2689.07   15.01
   0   2   1 2783.21   15.53
   0  -2  -1 2632.20   13.61
   0   2   1 2724.81   13.51
   0  -2  -1 2753.07   14.96
   0  -2  -1 2631.32   12.54
   0  -2  -1 2748.42   12.07
   0  -2  -1 2622.25   14.43
   0  -2  -1 2718.30   12.98
   0  -2  -1 2681.03   15.73
   0  -2  -2 2412.88   15.00
   0   2   2 2482.12   14.76
   0  -2  -2 2437.57   13.04
   0  -2  -2 2474.20   17.48
   0  -2  -2 2469.89   13.47
   0   2   2 2322.31   17.79
   0   2   2 2551.54   15.37
   0   2   2 2401.88   15.42
   0   2   2 2458.97   13.22
   0  -2  -2 2466.17   14.45
   0   2   2 2441.40   16.17
   0  -2  -2 2431.34   15.38
   0   2   2 2406.56   14.10
   0   2   2 2441.95   15.36
   0  -2  -2 2451.19   15.13
   0  -2  -2 2457.88   15.39
   0  -2  -3   12.69    1.21
   0   2   3   11.63    1.80
   0   2   3   10.07    1.28
   0  -2  -3   10.41    1.46
   0  -2  -3   10.78    1.31
   0   2   3   12.03    1.29
   0  -2  -3   12.26    1.38
   0  -2  -3   12.38    1.24
   0   2   3   10.91    1.24
   0   2   3   10.19    1.29
   0   2   3   10.86    1.41
   0   2   3   11.81    1.07
   0   2   3   12.61    1.27
   0  -2  -3   11.82    1.29
   0   2   3   10.12    1.23
   0  -2  -3   11.97    1.15
   0   2   3   12.54    1.45
   0  -2  -3   11.52    1.29
   0  -2  -3   13.79    1.34
   0  -2  -3   11.50    1.28
   0   2   4  432.47    9.99
   0  -2  -4  412.20    6.55
   0  -2  -4  425.73    9.14
   0   2   4  456.35    7.77
   0   2   4  409.40    7.75
   0   2   4  410.65    8.02
   0  -2  -4  412.53    6.94
   0  -2  -4  440.58    8.22
   0  -2  -4  423.68    7.70
   0  -2  -4  426.76    7.71
   0  -2  -4  431.14    7.79
   0   2   4  427.64    7.67
   0  -2  -4  430.71    7.95
   0   2   4  417.41    8.16
   0   2   4  408.98    6.47
   0   2   4  423.61    7.77
   0  -2  -4  434.89    8.96
   0   2   4  416.84    7.93
   0  -2  -4  443.39    8.28
   0  -2  -4  422.59    9.27
   0  -2  -5   46.68    2.92
   0  -2  -5   48.56    2.90
   0   2   5   41.47    1.15
   0  -2  -5   42.05    3.34
   0  -2  -5   46.96    2.86
   0   2   5   41.84    2.34
   0   2   5   37.77    2.84
   0  -2  -5   47.17    3.22
   0   2   5   43.40    3.67
   0   2   5   42.10    2.90
   0   2   5   42.61    2.85
   0   2   5   44.41    2.84
   0   2   5   44.75    2.62
   0  -2  -5   42.81    2.40
   0   2   5   44.21    2.79
   0  -2  -5   41.94    2.35
   0  -2  -5   39.13    3.16
   0  -2  -5   45.41    3.23
   0   2   5   47.72    3.74
   0  -2  -5   42.00    2.85
   0   2   5   44.21    2.91
   0   2   6  156.33    7.03
   0  -2  -6  162.76    5.94
   0  -2  -6  163.99    6.14
   0  -2  -6  152.06    5.51
   0  -2  -6  149.02    5.65
   0  -2  -6  160.46    6.78
   0  -2  -6  158.89    6.40
   0  -2  -6  153.63    4.77
   0  -2  -6  151.44    4.79
   0   2   6  155.24    4.81
   0   2   6  172.27    5.33
   0  -2  -6  159.91    6.06
   0   2   6  166.49    7.37
   0   2   6  156.73    6.02
   0   2   6  157.10    6.03
   0  -2  -6  155.28    5.85
   0   2   6  159.61    5.82
   0  -2  -7   39.76    3.10
   0  -2  -7   38.90    3.31
   0  -2  -7   42.14    3.44
   0   2   7   39.63    3.18
   0  -2  -7   43.08    3.45
   0  -2  -7   43.49    3.45
   0   2   7   34.43    3.17
   0  -2  -7   44.06    2.73
   0   2   7   43.81    3.52
   0   2   7   45.49    4.38
   0  -2  -7   43.04    3.82
   0  -2  -7   42.93    3.35
   0  -2  -7   42.45    2.78
   0  -2  -7   45.41    3.76
   0   2   7   42.58    4.00
   0  -2  -7   43.91    3.33
   0   2   8   -0.92    1.11
   0  -2  -8   -0.72    0.85
   0  -2  -8    1.16    1.18
   0   2   8    0.14    0.86
   0   2   8   -0.01    1.04
   0   2   8    0.14    1.00
   0  -2  -8   -0.15    0.68
   0   2   8   -1.01    1.59
   0   2   8    0.44    1.24
   0   2   8    0.58    0.94
   0  -2  -8    1.36    1.24
   0   2   8   -0.42    0.59
   0  -2  -8    1.53    1.25
   0   2   8    1.31    1.54
   0  -2  -8    0.21    0.86
   0   2   9    8.62    2.39
   0   2   9    5.15    1.67
   0  -2  -9    8.19    1.59
   0   2   9    8.78    2.06
   0  -2  -9    7.41    1.59
   0  -2  -9    6.64    2.00
   0   2   9    7.01    1.86
   0   2   9    7.06    2.12
   0   2   9    8.73    1.91
   0   2   9    8.72    1.94
   0  -2  -9    5.88    1.78
   0   2   9    7.13    1.41
   0   2   9    5.38    1.67
   0   2  10    4.29    1.72
   0   2  10    4.21    1.79
   0   2  10    6.68    2.54
   0   2  10    6.90    1.77
   0  -2 -10    4.99    1.81
   0  -2 -10    4.80    1.36
   0   2  10    6.33    1.73
   0  -2 -10    5.23    1.79
   0   2  10    5.18    1.56
   0   2  10    7.66    2.24
   0   2  11   23.56    3.14
   0   2  11   27.34    3.37
   0  -2 -11   24.86    3.46
   0   2  11   26.23    3.78
   0   2  11   24.37    3.24
   0  -2 -11   23.23    3.52
   0   2  11   26.22    4.31
   0   2  11   21.83    3.86
   0   2  11   23.26    3.23
   0  -2 -11   34.69    3.31
   0   2  12    1.67    1.42
   0   2  12    4.68    1.75
   0  -2 -12   -0.31    1.61
   0   2  12    4.23    2.06
   0  -2 -12    0.57    1.35
   0   2  12    0.71    1.04
   0   2  12    1.90    1.30
   0   2  12    2.91    2.04
   0   2  12   -1.04    1.69
   0  -2 -13    5.25    2.18
   0   2  13    5.79    2.50
   0  -3  14    2.08    1.96
   0  -3  14    0.21    1.80
   0  -3  14   -0.70    1.88
   0  -3  13    2.54    1.94
   0  -3  13   -0.36    1.70
   0  -3  13    1.58    1.86
   0   3 -13   -0.57    1.70
   0  -3  13    0.50    1.38
   0   3 -13    2.86    2.28
   0  -3  13    1.52    1.91
   0  -3  13    0.09    1.40
   0  -3  13    1.84    1.65
   0   3 -12   -0.36    1.62
   0  -3  12    1.60    1.46
   0  -3  12   -3.08    2.07
   0  -3  12   -0.05    1.38
   0  -3  12    1.06    1.21
   0  -3  12   -0.07    1.26
   0  -3  12    2.69    1.74
   0   3 -12   -0.88    1.38
   0  -3  12   -0.55    1.73
   0  -3  11   44.13    4.83
   0   3 -11   42.36    4.86
   0  -3  11   53.31    5.08
   0  -3  11   50.35    5.14
   0  -3  11   46.49    4.92
   0   3 -11   48.37    4.17
   0  -3  11   47.86    5.38
   0  -3  11   47.13    4.74
   0  -3  11   45.22    4.68
   0  -3  10   18.99    2.95
   0  -3  10   19.06    3.04
   0   3 -10   18.41    3.11
   0  -3  10   15.92    2.76
   0   3 -10   19.36    2.22
   0   3 -10   19.06    2.39
   0  -3  10   17.87    3.46
   0   3 -10   17.14    2.39
   0  -3  10   18.63    3.00
   0  -3  10   17.56    2.81
   0   3 -10   17.68    2.55
   0  -3  10   19.46    3.14
   0   3 -10   20.32    1.99
   0  -3   9    7.15    1.94
   0   3  -9    3.84    1.22
   0  -3   9    6.33    2.03
   0   3  -9    5.15    1.47
   0  -3   9    4.37    1.69
   0   3  -9    6.08    1.04
   0  -3   9    3.98    1.72
   0  -3   9    8.30    2.46
   0  -3   9    9.19    2.34
   0   3  -9    5.82    2.02
   0   3  -9    6.12    1.24
   0  -3   9    6.77    1.86
   0   3  -9    5.31    1.29
   0  -3   8    1.46    1.30
   0  -3   8    4.33    1.56
   0   3  -8    2.48    0.99
   0   3  -8    2.33    1.41
   0   3  -8    1.95    0.87
   0   3  -8    1.59    0.55
   0  -3   8    2.43    1.13
   0  -3   8    1.56    1.51
   0   3  -8    3.71    1.37
   0  -3   8    2.31    1.18
   0  -3   8    1.78    1.25
   0  -3   8    3.01    0.95
   0  -3   8    1.95    1.34
   0  -3   8    2.01    1.15
   0  -3   8    4.61    1.35
   0  -3   7   97.46    5.58
   0  -3   7   84.78    4.67
   0  -3   7   86.27    5.13
   0   3  -7   94.28    4.58
   0  -3   7  102.27    5.58
   0  -3   7  100.22    4.99
   0   3  -7   93.42    3.81
   0  -3   7   92.32    5.33
   0  -3   7   84.12    2.10
   0  -3   7   93.95    4.09
   0  -3   7  100.54    5.65
   0   3  -7   91.67    4.25
   0   3  -7   92.90    5.55
   0   3  -7   93.24    3.06
   0  -3   7   95.76    5.48
   0  -3   7   92.23    5.13
   0  -3   7   87.60    2.06
   0   3  -7   88.51    4.55
   0  -3   7   96.87    5.44
   0   3  -7  100.68    5.86
   0  -3   6    9.29    1.85
   0   3  -6    8.91    1.17
   0   3  -6    8.73    1.34
   0  -3   6    8.41    1.54
   0  -3   6    7.80    1.81
   0   3  -6    8.12    0.80
   0  -3   6   10.17    1.85
   0  -3   6    6.64    1.44
   0   3  -6    7.91    1.83
   0  -3   6    8.64    1.24
   0   3  -6    7.09    1.35
   0  -3   6    8.33    1.51
   0  -3   6    8.64    1.65
   0  -3   6    7.49    1.46
   0   3  -6    9.09    1.48
   0  -3   6    2.50    1.27
   0  -3   6    9.91    1.80
   0  -3   6    9.59    1.90
   0  -3   6    9.41    0.80
   0  -3   5  392.95    7.65
   0  -3   5  413.17    9.34
   0   3  -5  399.83    8.54
   0  -3   5  397.84    9.70
   0  -3   5  415.50    9.89
   0  -3   5  404.77    9.30
   0  -3   5  410.57    9.67
   0  -3   5  406.73   10.11
   0   3  -5  407.91    4.14
   0   3  -5  429.15    8.98
   0  -3   5  414.71    9.38
   0  -3   5  396.05    7.37
   0   3  -5  437.17   10.56
   0  -3   5  436.74    9.93
   0  -3   5  403.85    5.34
   0  -3   4  209.97    4.07
   0  -3   4  233.50    6.49
   0   3  -4  213.19    5.88
   0  -3   4  237.21    6.69
   0  -3   4  227.36    6.79
   0  -3   4  226.46    5.30
   0  -3   4  219.11    6.57
   0  -3   4  232.37    7.01
   0  -3   4  227.08    6.87
   0  -3   4  227.44    4.83
   0  -3   4  240.56    7.04
   0   3  -3  193.53    5.25
   0  -3   3  184.32    5.51
   0  -3   3  184.75    5.88
   0  -3   3  188.65    4.64
   0  -3   3  183.81    5.69
   0  -3   3  187.40    5.42
   0  -3   3  189.14    3.28
   0  -3   3  174.72    3.85
   0  -3   3  184.95    5.77
   0  -3   2 2788.76   16.13
   0  -3   2 2706.35   19.94
   0   3  -2 2724.59   18.66
   0  -3   2 2757.35   20.39
   0   3  -2 2939.59   16.19
   0  -3   2 2709.26   20.51
   0   3  -2 2815.26   17.95
   0   3  -1   81.55    1.74
   0  -3   1   84.31    2.72
   0  -3   1   90.23    3.52
   0  -3   1   81.52    3.29
   0   3  -1   79.17    3.11
   0  -3   1   83.91    2.94
   0  -3   1   84.90    3.41
   0   3  -1   86.01    2.85
   0  -3   0 1002.22   10.96
   0  -3   0  971.45   10.56
   0  -3   0 1018.44    6.73
   0  -3   0 1027.09    8.76
   0   3   0 1087.08   11.14
   0   3   0 1021.37    6.84
   0   3   0  953.57    8.83
   0   3   0 1028.90    7.68
   0  -3   0  972.63   10.35
   0  -3   0 1022.04   11.11
   0  -3  -1    1.58    0.60
   0  -3  -1    2.79    0.83
   0   3   1    2.32    0.87
   0  -3  -1    1.44    0.70
   0  -3  -1    1.04    0.51
   0   3   1    1.51    0.79
   0   3   1    1.60    0.82
   0   3   1    2.82    0.95
   0   3   1    1.97    0.80
   0   3   1    1.41    0.61
   0  -3  -1    1.17    0.79
   0   3   1    1.88    0.71
   0   3   1    1.50    0.82
   0  -3  -1    3.11    1.03
   0  -3  -1    1.28    0.77
   0  -3  -1    1.55    0.70
   0  -3  -1    2.64    0.81
   0   3   2   31.99    2.18
   0   3   2   32.94    1.91
   0  -3  -2   32.22    2.11
   0  -3  -2   33.56    1.76
   0   3   2   35.72    1.89
   0   3   2   33.02    2.09
   0  -3  -2   32.68    2.36
   0  -3  -2   32.55    2.13
   0  -3  -2   34.04    2.18
   0  -3  -2   33.48    2.21
   0   3   2   34.43    2.15
   0  -3  -2   35.53    2.18
   0  -3  -2   35.16    1.97
   0  -3  -2   33.63    2.02
   0   3   2   31.29    2.45
   0  -3  -2   31.32    1.87
   0   3   2   34.49    1.80
   0   3   2   33.77    2.28
   0   3   2   31.07    2.21
   0   3   2   37.30    2.50
   0   3   3   10.54    1.13
   0  -3  -3    9.81    1.33
   0  -3  -3   10.91    1.41
   0  -3  -3   11.47    1.26
   0  -3  -3   12.13    1.44
   0   3   3   13.73    1.89
   0   3   3   12.44    1.51
   0   3   3   12.44    1.88
   0   3   3   11.08    1.41
   0   3   3   10.07    1.39
   0   3   3   12.51    1.61
   0  -3  -3    9.69    1.60
   0  -3  -3   11.25    1.31
   0  -3  -3   11.45    1.37
   0   3   3   11.00    1.26
   0  -3  -3   12.10    1.32
   0   3   3   10.96    1.36
   0  -3  -3   11.42    1.46
   0   3   3   11.21    1.41
   0   3   4   44.13    2.68
   0   3   4   45.15    2.37
   0  -3  -4   42.10    2.75
   0  -3  -4   42.48    2.63
   0   3   4   44.51    2.86
   0   3   4   41.78    2.66
   0   3   4   45.50    2.74
   0  -3  -4   41.48    2.44
   0   3   4   42.99    3.36
   0   3   4   42.60    2.86
   0  -3  -4   45.85    3.31
   0   3   4   46.38    2.89
   0  -3  -4   47.58    2.80
   0   3   4   43.71    2.98
   0   3   4   43.73    3.42
   0  -3  -4   43.75    2.83
   0  -3  -4   42.95    2.87
   0  -3  -4   46.70    2.75
   0  -3  -4   44.75    2.38
   0  -3  -5   87.28    4.07
   0   3   5   93.78    5.35
   0   3   5   87.31    5.13
   0  -3  -5   90.60    3.88
   0  -3  -5   87.34    3.53
   0   3   5   82.75    3.43
   0   3   5   84.65    4.31
   0   3   5   88.22    4.43
   0  -3  -5   91.61    3.85
   0  -3  -5   87.50    4.90
   0  -3  -5   92.81    4.92
   0  -3  -5   86.53    4.06
   0  -3  -5   90.76    4.32
   0   3   5   87.70    4.12
   0  -3  -5   86.25    4.31
   0  -3  -5   90.05    5.01
   0  -3  -5   91.81    4.49
   0   3   6   31.22    2.74
   0  -3  -6   32.51    2.79
   0  -3  -6   30.91    3.17
   0  -3  -6   30.08    2.75
   0   3   6   31.94    3.52
   0  -3  -6   29.41    2.42
   0  -3  -6   29.93    3.22
   0  -3  -6   31.91    2.76
   0  -3  -6   33.60    2.77
   0  -3  -6   31.20    2.84
   0   3   6   32.61    2.92
   0  -3  -6   31.57    2.69
   0  -3  -6   29.02    2.23
   0   3   6   35.15    3.57
   0  -3  -6   30.94    3.10
   0   3   6   31.14    2.85
   0  -3  -6   30.95    2.55
   0   3   7   20.10    2.45
   0  -3  -7   22.75    2.42
   0  -3  -7   23.61    2.66
   0   3   7   21.38    2.57
   0  -3  -7   22.60    2.82
   0   3   7   23.60    2.81
   0   3   7   23.99    3.23
   0  -3  -7   22.27    2.44
   0  -3  -7   22.12    2.54
   0   3   7   22.86    2.14
   0   3   7   24.68    2.45
   0  -3  -7   22.38    2.45
   0  -3  -7   23.56    2.25
   0   3   7   23.68    2.53
   0  -3  -7   21.75    2.10
   0   3   7   22.09    3.12
   0  -3  -7   22.20    2.47
   0   3   7   22.76    2.58
   0   3   7   21.44    2.47
   0  -3  -8   61.83    4.20
   0   3   8   63.19    3.68
   0  -3  -8   64.49    3.80
   0   3   8   61.31    4.18
   0   3   8   57.40    4.30
   0   3   8   61.28    5.37
   0  -3  -8   59.52    4.64
   0   3   8   63.57    4.52
   0  -3  -8   61.46    3.65
   0   3   8   65.12    3.99
   0   3   8   70.03    5.68
   0   3   8   59.81    4.61
   0   3   8   62.50    4.41
   0  -3  -8   64.05    4.44
   0  -3  -8   61.46    4.46
   0   3   8   64.13    4.39
   0  -3  -9   21.71    2.99
   0   3   9   22.89    2.93
   0   3   9   18.85    2.69
   0   3   9   22.67    2.87
   0  -3  -9   19.35    2.24
   0  -3  -9   17.97    2.79
   0   3   9   18.54    2.11
   0   3   9   18.93    3.32
   0   3   9   20.07    2.33
   0   3   9   17.61    3.28
   0  -3  -9   20.00    2.27
   0   3   9   21.30    2.71
   0   3   9   21.89    3.20
   0  -3 -10   21.89    2.51
   0   3  10   28.69    3.28
   0   3  10   23.98    3.22
   0  -3 -10   25.95    3.61
   0   3  10   28.67    3.51
   0   3  10   28.01    4.31
   0  -3 -10   25.38    3.42
   0   3  10   28.38    3.73
   0   3  10   24.29    3.12
   0   3  10   26.19    3.99
   0   3  11   57.77    5.00
   0  -3 -11   51.55    3.99
   0  -3 -11   60.77    5.45
   0   3  11   57.61    4.92
   0   3  11   56.37    6.14
   0   3  11   56.64    4.71
   0   3  11   54.42    5.33
   0   3  11   64.76    6.58
   0  -3 -11   59.69    5.42
   0   3  11   59.84    5.02
   0   3  12    2.53    1.60
   0  -3 -12    8.77    2.66
   0   3  12    7.24    2.58
   0  -3 -12    6.61    2.58
   0   3  12    1.61    1.86
   0   3  12    6.43    2.08
   0   3  13    4.70    2.02
   0   3  13    9.90    3.07
   0  -3 -13    3.88    2.08
   0  -4  14    1.77    1.73
   0   4 -14    0.34    1.37
   0  -4  14    4.62    2.35
   0  -4  14    5.88    2.32
   0  -4  13    0.97    1.38
   0  -4  13    0.65    1.76
   0  -4  13   -1.57    2.00
   0   4 -13   -3.79    2.57
   0  -4  13    2.49    1.74
   0  -4  13    0.15    1.58
   0  -4  13   -2.61    2.39
   0  -4  13   -3.27    1.69
   0   4 -13    0.87    1.32
   0  -4  12   15.69    3.00
   0  -4  12   14.35    3.13
   0  -4  12   15.74    3.78
   0  -4  12   11.59    2.79
   0  -4  12   13.29    2.86
   0   4 -12   14.99    3.27
   0   4 -12   16.18    2.80
   0  -4  12   16.60    3.18
   0  -4  12   14.67    3.01
   0  -4  11    5.11    2.30
   0  -4  11    5.20    2.12
   0  -4  11   -1.25    1.58
   0  -4  11    0.53    1.36
   0  -4  11    3.90    1.84
   0   4 -11    3.29    1.48
   0  -4  11    4.36    1.81
   0   4 -11    0.96    1.62
   0  -4  11    1.69    1.37
   0  -4  10   13.63    2.05
   0  -4  10   17.19    2.65
   0   4 -10   15.07    1.91
   0  -4  10   19.01    3.07
   0  -4  10   17.75    3.47
   0   4 -10   13.76    2.37
   0  -4  10   16.79    2.94
   0   4 -10   20.20    3.32
   0  -4  10   13.20    2.69
   0  -4  10   17.24    3.14
   0   4  -9  167.03    8.53
   0  -4   9  158.26    7.07
   0   4  -9  162.08    7.17
   0  -4   9  177.65    8.57
   0   4  -9  167.40    5.81
   0  -4   9  168.15    6.21
   0  -4   9  184.01    8.70
   0   4  -9  163.86    4.10
   0  -4   9  172.29    8.35
   0  -4   9  163.93    8.24
   0   4  -8   95.51    6.32
   0  -4   8   89.06    2.26
   0  -4   8  106.88    6.28
   0   4  -8   90.17    5.06
   0  -4   8   89.50    5.54
   0   4  -8   89.27    5.06
   0  -4   8   92.25    5.88
   0   4  -8   90.11    5.96
   0   4  -8   91.70    2.60
   0  -4   8   93.75    4.42
   0  -4   8   96.12    5.99
   0  -4   8   76.89    5.40
   0  -4   8   85.48    4.79
   0  -4   7   10.57    2.11
   0  -4   7   13.39    2.20
   0  -4   7   12.88    1.94
   0  -4   7   11.09    2.33
   0   4  -7   11.75    1.95
   0  -4   7   12.70    2.27
   0  -4   7   11.87    2.23
   0  -4   7   10.54    1.89
   0   4  -7    9.53    1.26
   0   4  -7    9.22    1.89
   0  -4   7   12.53    2.34
   0   4  -7   12.01    2.46
   0  -4   7   13.69    2.41
   0   4  -7   12.58    2.00
   0  -4   7   10.37    1.56
   0  -4   7   12.02    1.02
   0   4  -7   10.85    0.70
   0  -4   7   10.21    1.69
   0   4  -6   32.10    3.36
   0  -4   6   34.65    3.29
   0  -4   6   36.28    3.56
   0  -4   6   33.90    3.30
   0   4  -6   33.13    2.91
   0  -4   6   32.39    2.40
   0  -4   6   31.54    3.06
   0  -4   6   33.99    3.23
   0  -4   6   33.59    3.26
   0  -4   6   33.49    3.13
   0  -4   6   32.81    3.13
   0  -4   6   32.66    1.78
   0   4  -6   31.03    3.11
   0  -4   6   34.25    3.41
   0   4  -6   33.78    2.97
   0  -4   6   35.19    2.98
   0  -4   6   32.41    2.39
   0  -4   5   17.83    1.54
   0  -4   5   18.82    2.49
   0  -4   5   18.97    2.41
   0  -4   5   16.38    2.23
   0   4  -5   21.86    2.76
   0  -4   5   16.44    2.02
   0   4  -5   18.72    2.15
   0  -4   5   17.83    2.36
   0   4  -5   18.90    2.15
   0  -4   5   18.10    1.76
   0  -4   5   17.16    2.15
   0  -4   5   16.76    2.14
   0  -4   5   17.60    2.22
   0  -4   5   19.62    1.47
   0  -4   4   70.56    2.30
   0  -4   4   71.92    4.18
   0  -4   4   68.16    3.88
   0  -4   4   69.67    2.85
   0  -4   4   69.45    3.34
   0   4  -4   70.56    3.80
   0  -4   4   73.03    4.31
   0  -4   4   75.35    4.42
   0   4  -3  337.13    7.73
   0  -4   3  328.15    6.34
   0  -4   3  350.08    8.75
   0   4  -3  325.33    7.78
   0  -4   3  349.15    8.67
   0  -4   3  348.94    8.56
   0   4  -3  364.65    6.62
   0   4  -3  339.61    7.55
   0   4  -2  129.08    4.62
   0  -4   2  134.38    5.14
   0  -4   2  123.00    4.91
   0   4  -2  120.57    4.15
   0  -4   2  133.71    5.03
   0   4  -2  128.14    4.10
   0   4  -2  126.22    4.44
   0  -4   2  115.51    3.98
   0   4  -1   28.05    2.02
   0  -4   1   30.94    2.16
   0   4  -1   28.18    2.17
   0  -4   1   29.31    2.36
   0  -4   1   28.07    2.23
   0   4  -1   30.35    1.21
   0   4  -1   27.83    0.95
   0  -4   1   27.52    2.31
   0  -4   1   27.92    1.91
   0   4   0  101.21    3.98
   0  -4   0   91.44    3.95
   0  -4   0   99.44    3.96
   0   4   0   87.83    3.60
   0  -4   0   89.46    2.35
   0   4   0   91.30    3.30
   0  -4   0   92.36    3.88
   0  -4   0   90.10    3.01
   0   4   0   96.13    2.48
   0   4   0   89.58    2.63
   0  -4   0   88.47    3.68
   0   4   1  428.89    8.62
   0  -4  -1  419.43    8.14
   0  -4  -1  416.68    8.27
   0   4   1  413.21    7.98
   0  -4  -1  420.57    8.09
   0  -4  -1  434.98    6.13
   0  -4  -1  421.13    7.23
   0  -4  -1  426.51    7.80
   0  -4  -1  395.90    6.39
   0   4   1  397.95    7.95
   0   4   1  416.57    6.46
   0  -4  -1  440.50    8.57
   0   4   1  423.73    8.48
   0   4   1  409.22    7.47
   0   4   1  429.58    8.38
   0   4   1  419.59    7.16
   0  -4  -1  426.66    8.34
   0   4   2  301.56    6.34
   0  -4  -2  293.90    6.61
   0  -4  -2  285.17    5.71
   0   4   2  289.52    6.95
   0  -4  -2  274.47    5.99
   0   4   2  282.95    6.27
   0  -4  -2  283.76    6.88
   0   4   2  301.52    7.25
   0  -4  -2  278.84    7.04
   0   4   2  303.83    7.28
   0  -4  -2  290.08    5.87
   0  -4  -2  278.93    7.04
   0   4   2  289.21    5.57
   0  -4  -2  286.38    7.45
   0   4   2  285.38    6.99
   0  -4  -2  284.76    6.90
   0   4   2  281.32    7.02
   0   4   3   30.55    2.56
   0  -4  -3   32.32    2.15
   0   4   3   30.67    2.28
   0   4   3   32.84    2.49
   0   4   3   29.40    2.03
   0   4   3   30.61    2.51
   0   4   3   33.98    2.16
   0   4   3   31.62    2.79
   0  -4  -3   32.37    2.53
   0  -4  -3   31.31    2.00
   0   4   3   30.08    2.15
   0  -4  -3   34.71    2.51
   0  -4  -3   32.22    2.76
   0  -4  -3   34.61    2.54
   0  -4  -3   33.34    2.37
   0  -4  -3   33.29    2.32
   0   4   3   33.57    2.56
   0   4   3   32.41    2.80
   0  -4  -3   29.63    2.47
   0  -4  -3   31.05    2.42
   0  -4  -4  227.82    6.62
   0   4   4  234.46    5.87
   0   4   4  227.82    6.25
   0  -4  -4  228.61    7.76
   0  -4  -4  228.17    6.44
   0  -4  -4  234.07    6.88
   0  -4  -4  228.91    6.73
   0  -4  -4  225.82    5.77
   0   4   4  214.49    4.91
   0   4   4  226.57    6.41
   0   4   4  221.09    7.08
   0  -4  -4  230.35    6.83
   0   4   4  237.95    8.00
   0  -4  -4  232.78    5.90
   0   4   4  261.60    7.51
   0  -4  -4  226.61    6.86
   0   4   4  227.92    7.84
   0  -4  -5   75.47    3.65
   0  -4  -5   77.99    4.28
   0   4   5   76.17    4.87
   0  -4  -5   75.66    4.24
   0   4   5   76.81    4.44
   0  -4  -5   71.53    3.88
   0  -4  -5   76.06    4.04
   0  -4  -5   76.18    4.15
   0  -4  -5   77.60    4.86
   0   4   5   64.33    2.27
   0   4   5   73.48    4.95
   0   4   5   82.11    4.45
   0  -4  -5   68.42    3.39
   0  -4  -5   75.05    4.25
   0   4   5   76.42    3.94
   0   4   6   39.83    3.46
   0  -4  -6   37.60    2.65
   0  -4  -6   41.10    3.38
   0   4   6   46.57    4.46
   0  -4  -6   43.04    3.08
   0  -4  -6   38.57    3.02
   0  -4  -6   38.82    3.20
   0   4   6   40.92    3.21
   0  -4  -6   43.25    3.79
   0   4   6   41.73    4.04
   0   4   6   41.21    3.32
   0   4   6   44.87    3.32
   0   4   6   39.40    3.20
   0  -4  -6   39.28    3.14
   0  -4  -6   41.25    3.15
   0   4   6   46.62    3.51
   0   4   7   74.70    5.56
   0   4   7   75.93    4.65
   0   4   7   66.63    4.65
   0   4   7   64.77    3.65
   0  -4  -7   66.01    4.25
   0   4   7   67.70    4.48
   0  -4  -7   70.50    4.41
   0   4   7   71.54    4.37
   0  -4  -7   67.85    3.74
   0  -4  -7   65.88    4.42
   0   4   7   82.42    4.75
   0  -4  -7   71.70    4.18
   0   4   7   72.32    4.58
   0   4   7   65.62    5.42
   0  -4  -7   65.90    4.03
   0   4   8   -0.37    0.98
   0  -4  -8   -0.91    0.92
   0  -4  -8    0.45    0.83
   0  -4  -8    0.81    0.87
   0   4   8    0.91    0.97
   0   4   8    0.72    1.48
   0  -4  -8    0.32    0.84
   0   4   8    1.26    1.18
   0   4   8   -0.94    1.18
   0   4   8   -0.01    0.63
   0   4   8    0.54    1.44
   0   4   8    0.69    1.03
   0  -4  -9   16.69    2.19
   0  -4  -9   18.86    3.04
   0  -4  -9   14.71    2.12
   0   4   9   15.08    3.23
   0   4   9   17.83    2.84
   0   4   9   18.99    3.48
   0   4   9   18.29    2.74
   0   4   9   16.06    2.41
   0   4   9   17.90    2.70
   0   4   9   19.43    2.85
   0   4  10    1.83    1.22
   0   4  10    0.64    1.11
   0   4  10    0.55    2.06
   0   4  10    0.89    1.12
   0   4  10    1.45    1.47
   0  -4 -10   -1.74    1.56
   0   4  10   -0.74    1.29
   0   4  10    1.06    1.71
   0  -4 -10    1.02    1.03
   0  -4 -10    0.97    0.88
   0   4  11    2.13    1.50
   0   4  11    3.28    2.34
   0   4  11    0.33    1.60
   0   4  11   -0.63    1.14
   0   4  11   -0.15    1.29
   0  -4 -11    1.90    1.71
   0   4  11    1.31    1.27
   0   4  12   -1.00    1.33
   0  -4 -12    4.37    2.24
   0  -5  14    1.74    1.46
   0  -5  14   -0.01    1.84
   0  -5  13    0.66    1.68
   0   5 -13    4.81    1.81
   0  -5  13    1.10    1.86
   0  -5  13   -1.46    1.60
   0  -5  13    2.07    1.96
   0  -5  13    0.62    1.69
   0  -5  12   14.86    3.28
   0   5 -12   16.27    3.57
   0  -5  12   22.84    4.45
   0  -5  12   17.80    3.42
   0  -5  12   16.86    3.30
   0  -5  12   19.15    3.45
   0  -5  12   17.08    2.87
   0  -5  12   21.26    3.79
   0   5 -12   19.99    3.22
   0  -5  11   12.82    3.30
   0  -5  11    9.55    2.56
   0  -5  11    9.27    2.55
   0  -5  11    8.86    2.60
   0   5 -11    9.76    2.30
   0  -5  11   13.72    3.13
   0  -5  11   12.26    2.39
   0   5 -11   10.62    2.88
   0  -5  10   11.37    2.65
   0  -5  10    9.03    2.50
   0   5 -10    8.59    1.96
   0  -5  10   11.11    2.16
   0  -5  10    8.58    2.35
   0  -5  10    8.46    1.54
   0   5 -10    9.95    2.48
   0  -5  10    7.85    2.35
   0  -5   9   86.53    4.98
   0   5  -9   92.62    6.61
   0  -5   9  105.42    6.84
   0   5  -9   96.46    4.41
   0   5  -9   88.18    5.54
   0  -5   9   91.43    2.21
   0  -5   9   88.47    6.49
   0  -5   9   95.32    6.51
   0  -5   9   95.34    4.76
   0   5  -9  101.44    7.15
   0  -5   9   92.64    6.33
   0  -5   8    7.55    1.91
   0  -5   8    9.78    0.99
   0   5  -8    9.16    2.20
   0   5  -8    8.96    2.44
   0  -5   8   10.59    1.71
   0  -5   8   12.35    2.51
   0  -5   8   10.97    2.27
   0  -5   8   12.03    1.73
   0  -5   8    8.95    2.21
   0   5  -8    8.48    1.80
   0   5  -7   37.61    3.43
   0  -5   7   39.78    3.88
   0  -5   7   37.55    2.12
   0  -5   7   40.41    3.71
   0  -5   7   38.34    3.79
   0  -5   7   39.16    2.86
   0  -5   7   45.31    4.28
   0   5  -7   41.19    3.98
   0   5  -7   41.74    4.24
   0  -5   7   40.31    2.74
   0  -5   7   47.02    4.22
   0   5  -6   19.02    2.58
   0  -5   6   15.55    2.32
   0  -5   6   18.35    2.51
   0   5  -6   18.11    2.87
   0  -5   6   18.20    2.53
   0  -5   6   17.17    2.68
   0   5  -6   17.81    2.35
   0  -5   6   15.78    2.46
   0  -5   6   16.12    1.52
   0   5  -6   17.83    2.32
   0  -5   6   20.50    2.91
   0  -5   6   16.08    2.25
   0  -5   6   17.17    1.91
   0  -5   6   19.26    1.67
   0  -5   6   20.98    2.86
   0  -5   5  274.10    8.34
   0  -5   5  256.49    6.04
   0  -5   5  272.68    4.82
   0   5  -5  279.73    9.57
   0   5  -5  270.46    8.17
   0   5  -5  267.12    8.65
   0  -5   5  257.10    8.80
   0   5  -5  224.60    8.38
   0  -5   5  268.09    9.14
   0  -5   5  274.89    9.45
   0  -5   5  263.92    7.06
   0  -5   4   16.10    2.23
   0   5  -4   14.12    2.05
   0  -5   4   13.94    2.00
   0  -5   4   13.04    2.02
   0   5  -4   16.32    1.65
   0   5  -4   14.98    1.90
   0  -5   4   15.86    1.67
   0   5  -4   16.45    2.10
   0   5  -3  244.33    6.81
   0  -5   3  238.14    7.87
   0  -5   3  248.56    8.08
   0   5  -3  240.85    7.26
   0   5  -3  249.27    6.35
   0  -5   3  219.05    6.01
   0  -5   3  229.01    7.56
   0  -5   2  250.45    7.73
   0   5  -2  246.70    6.53
   0  -5   2  233.42    6.31
   0   5  -2  238.40    6.31
   0   5  -2  235.62    6.98
   0  -5   2  255.91    7.75
   0  -5   2  245.61    7.47
   0   5  -2  260.15    6.56
   0   5  -2  247.38    3.88
   0  -5   1   11.34    1.69
   0  -5   1   14.30    1.51
   0  -5   1   14.61    1.85
   0  -5   1   14.75    1.89
   0   5  -1   14.94    0.98
   0   5  -1   13.10    1.48
   0   5  -1   13.99    1.84
   0   5  -1   12.13    0.79
   0  -5   1   12.46    1.67
   0  -5   0  294.89    7.86
   0  -5   0  278.56    7.19
   0  -5   0  300.08    8.00
   0  -5   0  296.68    6.16
   0  -5   0  291.02    7.64
   0   5   0  291.62    7.91
   0  -5   0  294.01    7.26
   0   5   0  278.10    6.13
   0  -5   0  298.15    4.63
   0   5   0  299.41    7.28
   0   5   0  289.11    5.26
   0  -5  -1   21.85    2.27
   0   5   1   24.28    2.26
   0  -5  -1   21.75    1.49
   0  -5  -1   21.85    2.20
   0  -5  -1   23.83    2.26
   0   5   1   20.59    2.06
   0  -5  -1   20.97    2.12
   0   5   1   21.76    1.73
   0  -5  -1   22.83    2.11
   0  -5  -1   22.53    2.21
   0  -5  -1   22.25    1.78
   0  -5  -1   23.60    2.06
   0   5   1   22.17    1.83
   0   5   1   21.77    2.21
   0   5   2  232.06    6.56
   0   5   2  228.70    7.01
   0  -5  -2  234.73    6.97
   0  -5  -2  232.73    6.56
   0  -5  -2  230.03    6.90
   0  -5  -2  223.04    6.07
   0   5   2  228.63    5.47
   0  -5  -2  229.91    7.17
   0   5   2  222.40    6.61
   0  -5  -2  219.47    5.51
   0  -5  -2  234.90    7.32
   0  -5  -2  240.50    5.63
   0  -5  -2  244.98    7.36
   0   5   2  228.92    6.29
   0   5   3   15.45    1.72
   0   5   3   15.65    2.12
   0  -5  -3   17.38    2.10
   0   5   3   14.93    1.67
   0   5   3   15.63    2.02
   0  -5  -3   15.15    1.98
   0  -5  -3   15.70    2.18
   0  -5  -3   16.44    1.62
   0  -5  -3   14.89    1.94
   0   5   3   14.73    2.00
   0   5   3   13.63    1.75
   0  -5  -3   17.22    2.15
   0  -5  -3   16.52    1.83
   0  -5  -3   14.83    1.88
   0   5   4    2.58    1.15
   0  -5  -4    2.46    1.06
   0   5   4    3.62    1.25
   0  -5  -4    3.65    1.28
   0   5   4    4.74    1.44
   0   5   4    4.33    1.52
   0  -5  -4    2.14    0.93
   0  -5  -4    4.84    1.21
   0  -5  -4    3.38    1.07
   0  -5  -4    4.23    1.10
   0   5   4    3.13    0.82
   0   5   4    4.03    0.97
   0   5   4    3.99    1.23
   0  -5  -4    3.56    1.15
   0  -5  -4    4.72    1.04
   0   5   4    4.35    1.22
   0  -5  -4    2.85    0.98
   0   5   4    3.51    1.18
   0  -5  -5  524.82   11.43
   0  -5  -5  546.91   11.68
   0  -5  -5  538.83   12.01
   0   5   5  520.90   11.24
   0  -5  -5  510.38   11.20
   0   5   5  528.22   11.59
   0   5   5  559.36    7.86
   0   5   5  530.04   13.38
   0   5   5  521.26   12.26
   0  -5  -5  513.24    9.80
   0   5   5  557.40   12.55
   0  -5  -5  531.08   11.76
   0   5   5  545.91   10.85
   0   5   5  544.27   10.08
   0   5   5  513.75   10.84
   0  -5  -5  522.89   10.86
   0  -5  -5  536.72   11.87
   0   5   5  540.04   11.88
   0  -5  -5  545.91   13.51
   0   5   5  527.84   13.43
   0  -5  -5  521.38    9.94
   0   5   6  147.10    7.62
   0   5   6  150.79    6.58
   0   5   6  142.23    6.32
   0   5   6  151.70    6.08
   0  -5  -6  142.29    6.46
   0  -5  -6  138.41    5.96
   0   5   6  151.29    5.54
   0   5   6  140.74    7.58
   0  -5  -6  145.01    5.65
   0  -5  -6  138.94    6.12
   0  -5  -6  138.79    5.29
   0   5   6  130.36    2.86
   0   5   6  136.79    6.71
   0   5   6  146.87    6.25
   0  -5  -6  141.29    6.07
   0  -5  -7   35.21    3.02
   0   5   7   39.35    3.59
   0  -5  -7   33.38    3.37
   0   5   7   29.90    3.06
   0  -5  -7   35.46    3.33
   0   5   7   35.79    4.13
   0   5   7   33.89    3.25
   0   5   7   37.33    3.28
   0  -5  -7   32.17    3.14
   0  -5  -7   34.10    2.83
   0   5   7   33.82    3.61
   0   5   7   35.38    4.15
   0  -5  -7   35.34    3.25
   0   5   7   36.40    2.89
   0   5   8    2.26    1.62
   0   5   8    0.23    0.96
   0   5   8    2.12    1.20
   0   5   8    8.16    2.78
   0  -5  -8    0.14    0.92
   0   5   8    0.49    1.07
   0   5   8    3.55    1.32
   0  -5  -8    1.71    1.07
   0   5   9    0.16    1.03
   0  -5  -9    1.23    1.68
   0   5   9    1.38    0.96
   0   5   9   -0.62    1.52
   0   5   9    1.80    1.13
   0  -5  -9    2.36    1.17
   0   5   9   -0.63    1.25
   0   5   9    0.77    1.96
   0  -5  -9    0.30    0.83
   0   5  10    2.54    2.27
   0  -5 -10    1.22    1.06
   0   5  10    0.56    1.03
   0   5  10    2.87    1.43
   0   5  10    1.03    1.14
   0   5  10    1.47    1.18
   0   5  10   -0.26    1.72
   0  -5 -10   -0.30    1.49
   0   5  11    1.47    1.49
   0  -5 -11   -3.57    1.89
   0   5  11   -0.22    0.90
   0   5  11    3.06    2.20
   0  -5 -12    7.85    2.69
   0  -6  13   11.65    3.08
   0   6 -13   11.59    2.72
   0  -6  13   10.59    3.28
   0  -6  13    9.47    2.73
   0  -6  13   11.40    3.04
   0  -6  12   20.00    3.93
   0  -6  12   18.89    3.43
   0  -6  12   19.82    3.65
   0   6 -12   18.70    3.68
   0   6 -12   17.73    3.02
   0  -6  12   20.62    4.18
   0  -6  12   19.74    3.84
   0  -6  12   17.40    3.37
   0  -6  11   14.62    2.46
   0   6 -11   11.67    2.47
   0  -6  11   15.16    3.20
   0  -6  11    9.62    2.67
   0  -6  11   17.44    3.40
   0  -6  11   13.80    3.04
   0   6 -11   15.27    3.32
   0  -6  10   10.14    2.49
   0   6 -10    8.94    2.53
   0  -6  10   12.43    2.97
   0   6 -10   13.61    2.97
   0  -6  10   10.05    1.93
   0  -6  10    7.65    2.23
   0   6 -10   11.85    2.48
   0  -6  10    9.86    2.58
   0  -6  10    9.66    1.70
   0   6  -9    7.57    1.33
   0  -6   9    5.06    0.78
   0  -6   9    5.19    1.25
   0  -6   9    4.78    2.00
   0  -6   9    8.81    2.35
   0  -6   9    6.33    2.35
   0   6  -9    8.20    2.21
   0  -6   9    3.78    1.54
   0  -6   9    7.58    1.66
   0   6  -9    4.80    2.12
   0   6  -9    3.82    1.51
   0   6  -8   60.93    3.50
   0  -6   8   52.84    4.80
   0   6  -8   64.17    5.72
   0  -6   8   56.92    3.70
   0   6  -8   57.84    4.60
   0  -6   8   73.04    5.91
   0  -6   8   61.31    3.53
   0   6  -8   62.33    5.32
   0  -6   8   60.18    5.26
   0  -6   8   64.03    2.95
   0  -6   7   78.68    3.55
   0  -6   7   88.79    6.25
   0  -6   7   79.21    4.28
   0   6  -7   92.28    6.45
   0   6  -7   80.72    5.37
   0   6  -7   83.63    5.28
   0   6  -7   82.18    5.74
   0  -6   7   76.28    5.56
   0  -6   7   81.94    3.43
   0  -6   7   76.89    5.53
   0   6  -6  103.09    6.02
   0  -6   6   98.68    4.75
   0   6  -6   96.49    5.48
   0  -6   6   99.07    4.15
   0  -6   6  106.75    6.46
   0   6  -6  112.72    6.80
   0   6  -6   99.87    5.56
   0  -6   6  104.09    3.08
   0  -6   5    3.75    0.94
   0   6  -5    5.30    1.64
   0   6  -5    3.36    1.21
   0  -6   5    5.75    1.39
   0   6  -5    6.54    1.72
   0   6  -5    2.85    1.35
   0  -6   4    4.45    1.11
   0  -6   4    5.61    1.38
   0   6  -4    2.78    1.59
   0   6  -4    2.98    0.96
   0  -6   4    4.44    1.48
   0  -6   4    2.99    1.26
   0   6  -4    3.85    1.44
   0  -6   4    4.98    1.52
   0   6  -4    3.08    1.52
   0   6  -4    3.86    1.41
   0   6  -4    2.36    1.02
   0   6  -4    2.01    1.27
   0   6  -3   14.14    2.03
   0  -6   3   10.93    1.94
   0  -6   3   13.00    2.08
   0  -6   3   13.83    2.18
   0   6  -3   16.37    2.09
   0   6  -3   14.98    2.39
   0   6  -3   10.26    1.84
   0   6  -3   12.76    2.17
   0   6  -3   11.97    2.08
   0   6  -3   16.76    1.98
   0   6  -3   14.90    1.16
   0  -6   3   11.81    1.58
   0   6  -3   15.31    2.23
   0  -6   2   84.44    4.26
   0   6  -2  101.20    5.62
   0   6  -2   95.55    4.52
   0   6  -2  101.83    5.01
   0   6  -2   94.86    2.47
   0   6  -2  101.31    5.38
   0  -6   2  105.98    5.38
   0   6  -2   95.67    5.28
   0  -6   2  101.42    5.35
   0   6  -2   95.14    4.40
   0   6  -2   74.54    5.26
   0  -6   2   97.89    5.31
   0  -6   1  127.74    5.69
   0  -6   1  130.90    5.44
   0   6  -1  129.30    5.40
   0   6  -1  120.32    4.63
   0   6  -1  133.40    3.05
   0  -6   1  130.23    5.95
   0  -6   1  119.01    5.12
   0   6  -1  129.57    6.07
   0   6  -1  131.77    6.17
   0  -6   1  130.95    5.91
   0   6  -1  128.56    2.73
   0   6  -1  119.73    5.63
   0   6  -1  129.50    5.95
   0   6   0   11.81    1.77
   0   6   0    8.46    1.81
   0  -6   0   11.57    1.76
   0   6   0   12.64    2.01
   0   6   0   13.05    1.58
   0   6   0   12.55    1.90
   0   6   0   13.69    2.16
   0  -6   0   11.74    1.05
   0  -6   0   13.25    1.50
   0   6   0   13.37    1.26
   0   6   0   12.55    2.14
   0  -6   0   11.53    1.87
   0  -6   0   13.31    1.84
   0  -6   0   11.10    1.61
   0  -6   0   10.62    1.80
   0  -6   0   12.89    1.85
   0  -6  -1    8.70    1.65
   0  -6  -1    8.01    1.44
   0   6   1   11.16    2.02
   0   6   1    7.60    1.76
   0  -6  -1    9.22    1.10
   0   6   1    9.62    1.34
   0  -6  -1    8.24    1.59
   0  -6  -1    8.76    1.63
   0  -6  -1   11.55    1.88
   0   6   1    9.64    1.95
   0   6   1   10.22    1.75
   0   6   1    9.02    1.60
   0  -6  -1   11.54    1.45
   0  -6  -1    8.36    1.59
   0   6   1    7.72    1.19
   0  -6  -1    9.31    1.63
   0  -6  -2   -0.23    0.62
   0   6   2    0.05    0.84
   0  -6  -2    0.38    0.53
   0   6   2   -0.04    0.95
   0  -6  -2   -0.51    0.96
   0   6   2    0.53    0.88
   0  -6  -2    0.86    0.99
   0   6   2    0.11    0.77
   0  -6  -2   -0.41    0.71
   0  -6  -2   -0.57    0.95
   0   6   2    0.40    1.03
   0  -6  -2   -0.35    0.81
   0   6   2    0.23    0.98
   0  -6  -2   -0.56    0.70
   0   6   2    0.24    0.97
   0   6   2    0.65    0.57
   0  -6  -2   -0.77    0.83
   0  -6  -3   17.46    2.01
   0  -6  -3   14.50    2.03
   0   6   3   16.03    2.36
   0   6   3   15.72    1.78
   0   6   3   15.26    2.03
   0  -6  -3   17.19    2.34
   0  -6  -3   15.27    1.76
   0  -6  -3   16.21    2.26
   0   6   3   14.72    2.02
   0  -6  -3   15.69    2.06
   0  -6  -3   16.57    2.31
   0   6   3   16.02    2.25
   0  -6  -3   15.94    2.19
   0  -6  -3   15.22    1.93
   0   6   3   12.85    1.87
   0   6   3   14.87    2.12
   0   6   3   16.55    2.28
   0   6   4   22.02    2.77
   0   6   4   26.48    2.82
   0  -6  -4   23.46    2.88
   0   6   4   21.81    2.15
   0  -6  -4   26.15    2.58
   0  -6  -4   22.64    2.67
   0  -6  -4   21.06    2.06
   0  -6  -4   18.94    2.60
   0   6   4   18.93    2.57
   0  -6  -4   20.52    2.50
   0   6   4   19.41    2.62
   0   6   4   22.30    2.09
   0  -6  -4   25.01    2.73
   0   6   4   17.95    2.44
   0  -6  -4   23.76    2.45
   0  -6  -4   20.51    2.30
   0   6   4   17.12    2.18
   0  -6  -4   22.47    2.58
   0  -6  -5  102.78    5.50
   0   6   5  109.18    4.00
   0   6   5  102.62    5.42
   0  -6  -5   95.21    4.49
   0  -6  -5   95.46    5.46
   0   6   5   91.12    5.85
   0  -6  -5   98.28    5.31
   0   6   5   96.62    5.70
   0   6   5  105.02    5.21
   0  -6  -5  105.91    5.82
   0   6   5  102.33    4.84
   0   6   5   97.61    5.43
   0   6   5  104.12    5.57
   0  -6  -5   92.86    4.62
   0  -6  -5   98.41    4.98
   0  -6  -5  101.93    5.18
   0   6   6   61.64    2.46
   0   6   6   68.65    4.79
   0   6   6   65.90    4.10
   0   6   6   46.16    2.09
   0   6   6   61.15    4.41
   0   6   6   61.36    4.49
   0  -6  -6   61.42    3.84
   0   6   6   61.40    4.83
   0  -6  -6   61.07    3.88
   0  -6  -6   67.37    4.56
   0   6   6   66.85    5.36
   0  -6  -6   61.96    4.17
   0   6   7   32.04    3.97
   0   6   7   36.08    3.54
   0   6   7   36.64    3.69
   0  -6  -7   32.16    2.99
   0   6   7   38.50    4.35
   0  -6  -7   34.37    3.47
   0   6   7   36.06    3.54
   0   6   7   33.69    3.81
   0  -6  -8   66.01    4.28
   0   6   8   77.09    6.54
   0   6   8   70.26    5.15
   0   6   8   80.11    5.97
   0   6   8   62.37    5.96
   0   6   8   75.67    5.21
   0   6   8   73.51    5.34
   0  -6  -8   66.57    4.86
   0   6   9   49.65    5.62
   0   6   9   54.39    4.79
   0   6   9   52.89    5.88
   0  -6  -9   47.25    4.24
   0   6   9   55.49    4.61
   0  -6  -9   48.37    3.78
   0   6   9   53.44    5.19
   0   6   9   53.56    4.70
   0   6  10    6.56    2.44
   0  -6 -10   11.60    2.88
   0   6  10    6.38    2.16
   0   6  10    7.91    2.97
   0  -6 -10    4.52    1.68
   0  -6 -11    2.75    2.03
   0   7 -13    1.06    1.34
   0  -7  13    3.32    2.03
   0  -7  13    6.39    2.40
   0  -7  12    6.35    2.62
   0  -7  12    0.74    1.40
   0   7 -12    3.61    1.58
   0  -7  12    3.64    2.21
   0   7 -12    3.96    1.84
   0   7 -12    7.38    2.66
   0  -7  12    0.98    1.55
   0   7 -11    9.12    3.00
   0  -7  11    9.54    2.61
   0  -7  11    5.52    2.17
   0  -7  11    3.27    1.87
   0  -7  11    3.03    1.90
   0   7 -11    1.78    1.29
   0   7 -11   -0.20    1.72
   0   7 -11    5.93    2.04
   0   7 -10   -0.80    1.31
   0  -7  10   -0.02    0.71
   0   7 -10    1.78    1.98
   0   7 -10    1.01    1.39
   0  -7  10    4.97    2.30
   0  -7  10    1.25    1.77
   0  -7  10    2.93    1.81
   0   7 -10    2.86    1.53
   0  -7  10    4.32    1.95
   0  -7   9    0.92    0.81
   0  -7   9   -0.35    1.53
   0   7  -9   -0.99    1.49
   0   7  -9   -2.52    1.69
   0  -7   9    0.68    0.78
   0  -7   9   -1.15    1.76
   0   7  -9   -0.01    1.03
   0  -7   9    0.37    1.35
   0  -7   9   -0.08    0.46
   0  -7   9    1.49    1.61
   0   7  -9    0.24    1.69
   0   7  -8   37.18    4.75
   0  -7   8   27.54    2.28
   0  -7   8   33.81    4.30
   0   7  -8   33.82    4.13
   0   7  -8   26.86    3.46
   0  -7   8   32.91    4.04
   0   7  -8   27.03    3.40
   0  -7   8   30.93    2.08
   0  -7   8   29.69    3.95
   0  -7   8   28.41    2.78
   0  -7   8   40.24    4.57
   0   7  -7   12.73    2.28
   0  -7   7   12.40    1.94
   0  -7   7   23.56    3.72
   0  -7   7   14.10    1.77
   0   7  -7   12.25    2.42
   0   7  -7   13.96    2.66
   0  -7   7   18.97    3.32
   0   7  -7   16.78    3.33
   0   7  -6   47.48    4.80
   0   7  -6   43.88    3.95
   0  -7   6   40.93    3.42
   0   7  -6   39.11    3.98
   0   7  -6   43.06    3.98
   0  -7   6   44.33    3.18
   0   7  -5   29.62    3.10
   0   7  -5   32.75    3.76
   0  -7   5   29.04    2.67
   0   7  -5   34.22    3.97
   0   7  -5   29.24    3.21
   0   7  -5   29.71    3.39
   0   7  -4    2.32    1.00
   0   7  -4    3.66    1.93
   0   7  -4    2.46    1.25
   0   7  -4    2.94    1.41
   0   7  -4    2.25    0.70
   0   7  -4    2.60    1.24
   0  -7   4    1.93    0.89
   0  -7   4    2.35    0.41
   0   7  -4    3.31    1.29
   0   7  -3  171.20    6.65
   0   7  -3  178.25    8.09
   0   7  -3  162.32    6.58
   0   7  -3  171.87    7.78
   0   7  -3  170.05    6.54
   0  -7   3  147.37    6.03
   0   7  -3  170.32    7.83
   0   7  -3  167.88    3.65
   0   7  -3  161.14    6.95
   0  -7   2   17.77    2.23
   0   7  -2   15.87    2.54
   0   7  -2   20.33    2.77
   0   7  -2   18.07    2.26
   0   7  -2   19.60    1.20
   0   7  -2   17.79    2.75
   0   7  -2   19.08    2.51
   0   7  -2   20.87    2.36
   0   7  -2   20.25    2.75
   0   7  -2   16.60    2.03
   0   7  -1   58.54    4.09
   0   7  -1   59.66    4.52
   0  -7   1   60.21    4.07
   0   7  -1   56.26    3.95
   0   7  -1   54.33    3.46
   0   7  -1   59.10    4.46
   0   7  -1   58.48    4.29
   0   7  -1   63.03    4.78
   0  -7   1   54.32    4.20
   0  -7   1   60.60    4.31
   0  -7   1   60.41    4.40
   0  -7   1   61.85    4.48
   0  -7   0   28.59    3.04
   0   7   0   25.44    2.65
   0  -7   0   26.69    2.74
   0  -7   0   27.93    1.66
   0   7   0   27.88    3.19
   0   7   0   27.66    3.18
   0  -7   0   28.61    2.97
   0   7   0   28.12    1.93
   0  -7   0   25.64    2.25
   0  -7   0   29.38    3.10
   0   7   0   27.63    2.91
   0   7   0   26.06    2.28
   0  -7   0   23.70    2.63
   0   7   0   26.42    3.04
   0   7   0   26.56    2.77
   0  -7   0   27.75    2.68
   0   7   1    4.38    1.01
   0  -7  -1    4.11    0.98
   0   7   1    3.92    0.99
   0  -7  -1    5.50    1.41
   0  -7  -1    4.14    1.25
   0   7   1    5.19    1.56
   0  -7  -1    4.34    1.27
   0  -7  -1    3.79    1.25
   0   7   1    4.03    1.36
   0   7   1    5.25    1.45
   0  -7  -1    4.28    1.38
   0  -7  -1    4.36    1.27
   0   7   1    3.72    1.51
   0  -7  -1    3.19    1.24
   0  -7  -1    4.37    0.83
   0   7   1    3.95    1.29
   0   7   1    2.73    1.12
   0  -7  -2   95.85    4.21
   0   7   2  105.97    5.27
   0  -7  -2   92.74    4.72
   0   7   2   94.34    4.93
   0   7   2   94.62    4.13
   0   7   2   91.40    5.30
   0  -7  -2   95.31    5.54
   0  -7  -2   96.07    5.00
   0  -7  -2   92.61    5.27
   0  -7  -2   97.66    5.44
   0  -7  -2  106.14    5.92
   0   7   2   96.86    4.65
   0   7   2  105.12    5.84
   0  -7  -2   97.70    5.55
   0   7   2   98.38    5.72
   0  -7  -2   97.83    3.96
   0   7   2  106.62    5.75
   0  -7  -3  279.44    7.42
   0  -7  -3  268.07    9.50
   0  -7  -3  250.65    7.85
   0   7   3  253.77    8.11
   0   7   3  273.73    9.35
   0  -7  -3  249.98    8.74
   0   7   3  261.62    8.48
   0  -7  -3  261.63    9.26
   0   7   3  265.33    9.29
   0   7   3  270.19    9.12
   0   7   3  273.03    7.13
   0   7   3  265.56    7.62
   0   7   3  268.88    9.43
   0  -7  -3  287.01    8.68
   0  -7  -3  255.68    8.93
   0  -7  -3  270.83    8.93
   0  -7  -4   26.57    3.02
   0   7   4   27.51    2.84
   0  -7  -4   33.11    2.84
   0   7   4   32.78    3.30
   0   7   4   30.32    3.23
   0   7   4   29.18    2.63
   0   7   4   27.84    3.24
   0  -7  -4   32.21    2.70
   0  -7  -4   27.85    2.74
   0   7   4   28.30    3.22
   0   7   4   30.40    3.34
   0   7   5   19.48    1.96
   0   7   5   17.23    2.66
   0   7   5   17.13    2.63
   0   7   5   18.32    2.17
   0  -7  -5   15.56    2.10
   0  -7  -5   17.63    2.55
   0  -7  -5   16.86    2.07
   0   7   5   15.14    2.13
   0   7   5   18.03    2.87
   0  -7  -5   16.48    2.29
   0   7   5   19.57    2.68
   0   7   5   18.19    2.63
   0   7   6    3.95    1.50
   0  -7  -6    2.43    1.20
   0   7   6    5.68    2.10
   0   7   6    3.85    1.55
   0   7   6    6.56    1.96
   0   7   6    4.17    1.49
   0   7   6    4.47    1.56
   0  -7  -6    4.94    1.39
   0  -7  -7    5.66    1.54
   0   7   7    4.57    1.55
   0   7   7    3.51    1.60
   0   7   7    5.78    2.09
   0   7   7    3.59    1.65
   0  -7  -7    6.01    1.68
   0   7   7    7.63    2.02
   0   7   8   13.13    2.53
   0  -7  -8   13.64    2.16
   0   7   8   13.33    2.75
   0   7   8   12.48    2.38
   0  -7  -8   13.52    2.55
   0   7   8   12.88    2.85
   0   7   8   10.83    2.21
   0  -7  -9    9.63    2.20
   0   7   9   11.23    2.84
   0   7   9   12.52    2.70
   0   7   9   17.44    2.89
   0   7   9   15.92    2.92
   0   7   9   15.57    2.70
   0  -7 -10   -0.20    1.27
   0  -7 -10   -0.12    1.88
   0   8 -12    4.27    2.07
   0  -8  12    3.37    1.78
   0  -8  12    3.36    2.23
   0  -8  12    3.12    2.12
   0  -8  11   23.96    4.01
   0   8 -11   21.69    3.83
   0  -8  11   24.63    4.32
   0   8 -11   21.67    3.60
   0   8 -11   19.14    4.05
   0  -8  11   25.02    4.27
   0   8 -11   21.19    3.95
   0  -8  11   20.52    3.81
   0   8 -10    6.70    2.27
   0   8 -10    3.68    1.88
   0  -8  10    6.38    2.66
   0   8 -10    3.03    1.58
   0  -8  10    5.92    2.48
   0  -8  10    2.52    1.87
   0  -8  10    3.91    1.94
   0   8 -10    5.10    1.78
   0  -8   9    8.13    1.66
   0  -8   9    9.71    2.67
   0   8  -9   10.68    3.17
   0   8  -9   10.24    2.33
   0  -8   9    7.52    2.43
   0  -8   9   12.75    3.07
   0   8  -9   10.24    2.66
   0   8  -9    7.79    2.05
   0  -8   9    5.93    2.31
   0   8  -8    3.73    2.00
   0  -8   8    1.07    0.61
   0   8  -8    3.69    2.41
   0  -8   8    2.75    1.35
   0  -8   8    2.37    1.80
   0   8  -8    0.19    1.17
   0  -8   8    3.51    2.05
   0  -8   8    1.82    1.74
   0   8  -8    0.95    1.18
   0  -8   7    6.91    1.46
   0   8  -7   10.12    2.39
   0   8  -7    8.20    2.19
   0  -8   7    9.01    2.56
   0  -8   7   10.04    2.75
   0   8  -7    8.63    2.27
   0  -8   7    8.33    1.75
   0   8  -7    5.71    1.98
   0   8  -6    1.39    1.79
   0  -8   6    2.01    1.05
   0   8  -6    2.85    1.68
   0   8  -6   -0.32    1.11
   0  -8   6    0.33    1.01
   0   8  -6    1.85    1.67
   0   8  -5    2.95    1.30
   0   8  -5    4.64    1.83
   0   8  -5    3.22    1.49
   0   8  -5    5.48    0.96
   0   8  -5    4.85    1.95
   0  -8   5    5.07    1.41
   0   8  -5    5.42    2.04
   0  -8   4    0.78    0.92
   0  -8   4    0.42    0.37
   0   8  -4    0.25    0.44
   0   8  -4    1.39    1.56
   0   8  -4    1.21    1.28
   0   8  -4    0.83    1.04
   0   8  -4    1.42    1.59
   0   8  -4    0.34    1.08
   0   8  -3  130.34    7.54
   0  -8   3  114.61    5.89
   0   8  -3  124.63    6.19
   0   8  -3  133.08    6.86
   0   8  -3  131.90    3.05
   0   8  -3  139.18    7.63
   0   8  -3  136.50    7.42
   0   8  -3  128.45    6.07
   0   8  -2   11.27    2.57
   0   8  -2   11.54    2.16
   0   8  -2   12.12    1.83
   0  -8   2   10.32    1.88
   0   8  -2   13.68    2.59
   0   8  -2   10.65    2.54
   0   8  -1    7.43    2.00
   0   8  -1   10.73    2.43
   0   8  -1    9.82    2.00
   0  -8   1    8.83    1.89
   0  -8   1    8.89    1.73
   0   8  -1   11.45    1.76
   0   8  -1    8.74    1.90
   0   8  -1    9.72    1.71
   0   8  -1    9.57    2.10
   0  -8   0   42.67    3.58
   0   8   0   48.62    4.42
   0   8   0   46.92    4.50
   0   8   0   43.34    3.67
   0  -8   0   46.26    3.97
   0   8   0   45.97    3.19
   0   8   0   40.84    4.04
   0  -8   0   50.12    4.07
   0   8   0   47.05    3.90
   0  -8   0   46.21    3.17
   0   8   0   45.59    2.59
   0   8   1   74.92    3.96
   0   8   1   79.02    3.98
   0   8   1   82.45    5.79
   0   8   1   84.94    5.66
   0  -8  -1   77.21    5.07
   0   8   1   62.78    4.46
   0   8   1   77.38    4.83
   0   8   1   86.85    5.79
   0  -8  -1   84.02    4.83
   0  -8  -1   83.01    3.34
   0  -8  -1   79.41    5.24
   0   8   1   79.55    5.12
   0  -8  -1   87.46    4.23
   0   8   2   24.70    2.32
   0   8   2   28.61    3.47
   0   8   2   21.25    2.92
   0   8   2   22.50    2.40
   0  -8  -2   24.63    2.78
   0   8   2   24.48    3.23
   0   8   2   25.33    3.26
   0   8   2   24.47    2.82
   0   8   2   26.93    2.93
   0  -8  -2   24.32    2.30
   0  -8  -2   22.81    2.90
   0   8   3  323.82    9.85
   0   8   3  320.11    9.75
   0   8   3  352.74   11.63
   0  -8  -3  361.66    8.74
   0  -8  -3  323.30    9.57
   0   8   3  329.56   10.99
   0   8   3  347.46    9.84
   0   8   3  334.55   11.24
   0  -8  -3  325.01   10.68
   0  -8  -3  341.11    8.39
   0   8   3  339.95   11.45
   0   8   3  344.92    9.09
   0   8   3  344.91    8.47
   0   8   4   12.95    2.21
   0   8   4   12.35    2.36
   0  -8  -4   12.72    2.04
   0   8   4   15.35    1.99
   0   8   4   13.18    2.41
   0   8   4   15.38    2.55
   0   8   4   13.09    2.18
   0  -8  -4   15.30    2.60
   0  -8  -4   13.75    1.87
   0   8   4   13.63    2.51
   0  -8  -4   13.69    1.91
   0   8   4   14.25    2.00
   0  -8  -5   12.78    2.35
   0   8   5   13.75    2.46
   0   8   5   13.09    2.24
   0   8   5   18.22    2.77
   0  -8  -5   12.79    2.16
   0   8   5   14.88    2.71
   0   8   5   12.75    2.47
   0   8   5   18.39    3.00
   0  -8  -6   -1.11    1.16
   0   8   6    0.40    1.13
   0   8   6   -0.84    1.28
   0   8   6   -1.60    1.42
   0   8   6   -0.96    1.67
   0  -8  -6    0.62    1.21
   0   8   6    2.38    1.47
   0   8   6   -2.05    1.47
   0   8   7    1.91    1.63
   0   8   7   -1.65    1.29
   0  -8  -7    1.40    0.96
   0   8   7   -0.70    1.54
   0   8   7    0.94    1.22
   0  -8  -7    1.36    1.22
   0   8   7    0.79    1.27
   0   8   8   26.04    4.07
   0   8   8   21.63    3.18
   0   8   8   18.64    3.02
   0  -8  -8   17.45    2.99
   0   8   8   18.94    3.40
   0   8   8   22.19    3.20
   0   8   9   -3.56    1.70
   0  -8  -9   -0.10    1.29
   0  -9  12   16.56    3.71
   0  -9  12   18.44    3.98
   0  -9  11    2.80    1.88
   0  -9  11    7.62    3.12
   0  -9  11   10.28    3.06
   0   9 -11    1.07    1.22
   0  -9  10   44.37    5.54
   0   9 -10   38.77    5.58
   0  -9  10   36.75    5.05
   0  -9  10   41.95    5.32
   0  -9  10   38.43    5.25
   0   9 -10   38.85    5.16
   0   9 -10   35.45    4.62
   0   9 -10   38.15    4.61
   0   9  -9    4.11    2.00
   0  -9   9    3.13    2.00
   0   9  -9    5.03    2.35
   0  -9   9    4.72    2.49
   0  -9   9    0.38    1.65
   0   9  -9    1.63    1.81
   0   9  -9    6.09    2.29
   0  -9   9    3.94    1.38
   0   9  -8   35.28    4.56
   0   9  -8   28.53    3.86
   0   9  -8   29.24    3.92
   0   9  -8   33.79    4.90
   0  -9   8   35.81    4.84
   0  -9   8   29.02    3.27
   0  -9   8   31.02    2.88
   0  -9   8   27.31    4.27
   0   9  -7    8.34    1.38
   0   9  -7   12.63    3.41
   0   9  -7    9.65    2.35
   0   9  -7    7.92    2.15
   0  -9   7   18.00    3.57
   0  -9   7    6.48    1.58
   0   9  -7    9.01    2.39
   0  -9   7    8.85    1.98
   0   9  -6   -1.00    1.27
   0   9  -6    1.21    0.67
   0   9  -6   -1.87    1.87
   0  -9   6    1.75    1.27
   0  -9   6   -0.77    1.12
   0   9  -6    3.00    1.69
   0   9  -6   -2.04    1.51
   0   9  -5   49.54    4.59
   0   9  -5   49.90    2.27
   0   9  -5   44.69    4.38
   0  -9   5   46.24    3.89
   0   9  -5   45.59    5.05
   0   9  -5   43.51    4.43
   0   9  -5   46.87    5.17
   0   9  -4  235.87    3.94
   0  -9   4  225.48    4.85
   0   9  -4  220.43    9.62
   0   9  -4  231.31    9.03
   0  -9   4  217.06    8.43
   0   9  -4  242.01   10.86
   0   9  -4  223.56   10.75
   0   9  -4  227.98    9.31
   0   9  -3    0.46    1.02
   0   9  -3   -0.21    1.71
   0  -9   3   -0.31    0.58
   0   9  -3    1.00    1.02
   0   9  -3   -0.61    1.73
   0  -9   3   -0.59    1.04
   0   9  -2   49.64    5.07
   0   9  -2   53.75    4.23
   0   9  -2   50.17    3.85
   0   9  -2   52.55    4.51
   0   9  -2   51.75    4.16
   0  -9   2   50.40    4.20
   0   9  -2   53.19    5.24
   0   9  -2   49.91    4.89
   0   9  -1    4.61    1.36
   0   9  -1    5.13    1.97
   0   9  -1    3.64    1.80
   0   9  -1    8.08    1.94
   0   9  -1    5.81    1.82
   0   9  -1    4.93    1.47
   0  -9   1    4.91    1.43
   0  -9   1    4.47    1.45
   0   9  -1    5.67    2.09
   0   9   0   34.38    2.26
   0   9   0   31.86    2.88
   0   9   0   34.29    4.14
   0   9   0   39.04    4.36
   0   9   0   35.81    3.57
   0   9   0   34.43    3.18
   0  -9   0   33.91    3.39
   0   9   0   29.67    3.38
   0   9   0   35.50    4.10
   0  -9   0   32.06    3.47
   0   9   1  135.15    7.74
   0   9   1  139.01    8.06
   0   9   1  125.45    5.43
   0  -9  -1  134.33    5.53
   0   9   1  142.07    7.85
   0  -9  -1  132.96    4.25
   0   9   1  119.89    6.40
   0   9   1  126.23    6.93
   0  -9  -1  129.48    6.44
   0  -9  -1  127.67    6.95
   0   9   1  133.97    5.37
   0   9   2    0.42    1.18
   0  -9  -2    2.78    1.01
   0   9   2    4.63    1.39
   0  -9  -2    2.53    1.46
   0   9   2    1.74    1.11
   0   9   2    0.48    1.36
   0   9   2    2.30    1.31
   0   9   2    3.14    1.81
   0  -9  -2    2.87    1.60
   0   9   2   -0.47    1.16
   0   9   3   46.36    4.59
   0   9   3   42.33    4.52
   0   9   3   46.45    4.68
   0   9   3   40.02    3.77
   0  -9  -3   43.94    3.83
   0  -9  -3   51.94    4.67
   0   9   3   47.35    4.60
   0   9   3   41.94    3.73
   0  -9  -4    2.12    1.07
   0   9   4    8.19    2.17
   0   9   4    3.13    1.56
   0   9   4    3.91    1.88
   0   9   4    3.61    1.47
   0  -9  -4    4.31    1.48
   0   9   4    3.33    1.69
   0   9   4    4.73    1.39
   0   9   5   -1.29    1.40
   0   9   5   -0.75    1.21
   0  -9  -5    1.38    1.32
   0  -9  -5    1.28    1.99
   0   9   5    0.34    1.29
   0   9   5   -2.10    1.51
   0   9   5    1.41    1.50
   0   9   5    0.13    1.09
   0   9   6    1.88    1.51
   0   9   6    1.06    1.53
   0  -9  -6   -1.54    1.36
   0   9   6    0.93    1.17
   0   9   6   -0.18    1.47
   0   9   6    0.45    1.27
   0   9   6   -2.33    1.57
   0  -9  -6   -0.14    1.01
   0   9   7    9.80    2.54
   0   9   7   11.93    2.58
   0  -9  -7   10.13    2.40
   0   9   7    8.29    2.13
   0   9   7    6.07    2.09
   0  -9  -7    8.77    1.92
   0   9   7   10.97    2.66
   0  -9  -8    0.82    1.22
   0   9   8    5.29    2.17
   0 -10  11   -0.67    1.86
   0  10 -10    2.92    2.36
   0 -10  10   -3.31    2.48
   0 -10  10   -0.60    1.97
   0  10 -10    0.22    1.51
   0  10  -9    2.22    1.62
   0  10  -9    0.58    1.44
   0 -10   9   -2.95    2.01
   0  10  -9    5.53    2.12
   0 -10   9   -0.23    2.04
   0  10  -9    1.96    2.27
   0 -10   9   -0.88    1.91
   0  10  -8   11.65    3.44
   0  10  -8   17.21    3.29
   0 -10   8    9.83    1.87
   0 -10   8   18.82    4.18
   0  10  -8   11.06    2.62
   0  10  -8   15.55    3.27
   0 -10   8   15.23    2.54
   0 -10   7    0.13    0.97
   0  10  -7    2.01    1.65
   0  10  -7    3.00    2.09
   0 -10   7   -0.73    0.93
   0  10  -7    1.27    1.67
   0  10  -7    1.75    1.57
   0  10  -6    5.98    2.12
   0  10  -6    7.33    2.35
   0  10  -6    8.60    2.33
   0  10  -6    8.00    2.22
   0 -10   6    8.44    2.11
   0 -10   6    8.73    2.00
   0  10  -5   12.83    3.33
   0  10  -5   12.85    2.74
   0 -10   5    9.96    2.10
   0  10  -5    8.93    2.57
   0  10  -5   11.13    2.45
   0  10  -5   12.81    2.78
   0  10  -4    4.40    2.31
   0  10  -4    5.05    1.74
   0  10  -4    5.53    1.88
   0  10  -4    3.66    2.11
   0 -10   4    6.32    1.87
   0  10  -3    7.03    1.95
   0 -10   3    7.65    1.96
   0  10  -3    4.74    1.70
   0  10  -3    6.41    2.45
   0  10  -3    6.94    1.98
   0  10  -3    8.96    2.55
   0  10  -3    6.31    1.70
   0  10  -2   51.25    5.41
   0  10  -2   42.93    3.79
   0 -10   2   49.49    4.53
   0  10  -2   49.01    4.22
   0  10  -2   49.25    4.33
   0  10  -2   54.15    5.58
   0  10  -2   56.54    5.54
   0 -10   2   48.85    4.42
   0  10  -2   50.85    4.69
   0  10  -1   20.82    3.59
   0  10  -1   19.34    2.98
   0 -10   1   17.82    2.77
   0  10  -1   18.62    3.34
   0 -10   1   18.67    2.94
   0  10  -1   25.39    2.98
   0  10  -1   20.60    2.53
   0  10  -1   18.20    2.91
   0  10  -1   24.06    3.81
   0  10   0   62.62    5.97
   0  10   0   47.57    3.89
   0  10   0   50.58    5.25
   0 -10   0   47.01    4.32
   0 -10   0   50.36    4.72
   0  10   0   41.61    3.41
   0  10   0   50.14    5.16
   0  10   0   45.63    4.39
   0  10   0   51.73    4.56
   0 -10  -1  104.93    6.78
   0 -10  -1  100.98    6.15
   0  10   1  112.78    7.82
   0  10   1   98.28    6.58
   0  10   1  105.37    4.79
   0  10   1  110.92    7.60
   0  10   1   96.77    5.00
   0  10   1  120.09    7.77
   0  10   1   98.41    6.15
   0  10   2    1.20    0.84
   0  10   2    1.33    1.54
   0  10   2    4.22    1.83
   0  10   2    2.16    1.12
   0  10   2   -0.12    1.28
   0  10   2    2.26    1.65
   0 -10  -2    1.84    1.25
   0 -10  -2    1.85    1.24
   0  10   2    2.09    1.26
   0  10   3    0.75    1.14
   0 -10  -3    2.74    1.46
   0  10   3    0.45    1.29
   0  10   3    2.96    1.78
   0  10   3    3.78    1.74
   0  10   3    1.45    0.96
   0  10   3    1.89    1.12
   0 -10  -3    1.64    1.12
   0  10   4    5.00    1.93
   0  10   4   10.67    2.41
   0 -10  -4    5.28    1.79
   0  10   4   11.39    2.82
   0  10   4    8.60    2.07
   0  10   4    4.58    2.10
   0 -10  -4    5.41    1.76
   0  10   4    8.44    2.05
   0 -10  -5    5.68    1.83
   0  10   5    4.31    1.61
   0  10   5    5.52    2.02
   0  10   5    4.64    1.63
   0  10   5    7.71    2.32
   0  10   5    6.26    2.28
   0 -10  -5    2.40    1.48
   0  10   5    7.01    2.26
   0  10   6    7.14    2.33
   0  10   6    5.96    2.13
   0 -10  -6   10.67    2.65
   0  10   6    6.77    2.20
   0 -10  -6    8.34    2.06
   0  10   6   12.46    2.72
   0  10   7   10.19    2.82
   0 -11   9   -0.75    1.67
   0  11  -9    1.91    1.83
   0  11  -9    1.85    1.69
   0 -11   9   -0.02    1.65
   0  11  -8    3.49    1.90
   0  11  -8    3.64    2.13
   0 -11   8   -1.12    1.95
   0  11  -8    1.38    1.99
   0  11  -8    4.02    1.99
   0  11  -7    0.61    1.14
   0  11  -7   -0.97    1.93
   0 -11   7    0.45    0.92
   0  11  -7    0.34    1.50
   0  11  -7   -1.00    1.61
   0 -11   7    2.04    1.38
   0 -11   6    6.80    1.92
   0  11  -6    6.69    2.25
   0  11  -6    7.60    2.26
   0  11  -6    8.87    2.94
   0  11  -5    4.66    1.94
   0 -11   5    5.08    1.90
   0  11  -5    3.40    1.42
   0  11  -5    5.07    2.55
   0  11  -5    5.30    2.31
   0  11  -5    2.15    1.31
   0  11  -4   -4.19    2.43
   0 -11   4   -1.47    1.51
   0  11  -4    0.21    1.34
   0  11  -4    1.99    1.48
   0  11  -4   -1.75    1.59
   0  11  -4   -0.75    1.39
   0  11  -4    1.31    1.66
   0 -11   3   38.01    4.11
   0  11  -3   42.05    5.42
   0  11  -3   41.33    4.64
   0  11  -3   41.82    5.29
   0  11  -3   42.36    4.22
   0  11  -3   43.66    4.28
   0 -11   3   35.76    4.13
   0  11  -3   37.62    4.11
   0  11  -2   60.06    6.14
   0 -11   2   53.32    4.91
   0  11  -2   55.08    4.50
   0  11  -2   56.18    6.16
   0  11  -2   52.27    5.07
   0  11  -2   54.31    4.63
   0  11  -2   50.80    4.80
   0  11  -2   58.09    6.10
   0 -11   2   50.21    4.88
   0  11  -1    0.98    1.32
   0 -11   1    0.55    1.32
   0  11  -1    2.44    2.01
   0  11  -1   -1.74    2.18
   0  11  -1   -1.27    0.93
   0 -11   1    0.08    1.01
   0  11  -1   -1.03    1.24
   0  11  -1    1.10    1.19
   0  11  -1    1.28    1.90
   0 -11   0    5.12    1.61
   0  11   0    6.29    1.41
   0  11   0    5.44    1.49
   0  11   0    4.19    1.54
   0  11   0    7.65    2.53
   0  11   0    6.42    2.04
   0 -11   0    9.33    2.46
   0  11   0   10.52    2.83
   0  11   0    7.98    2.67
   0  11   1    5.65    2.40
   0  11   1    5.44    2.01
   0  11   1    5.69    2.48
   0 -11  -1    2.59    1.69
   0  11   1    4.53    1.85
   0 -11  -1    6.00    1.91
   0  11   1    4.65    2.33
   0  11   2   21.30    3.46
   0 -11  -2   16.18    3.02
   0  11   2   21.21    3.70
   0 -11  -2   20.36    3.20
   0  11   2   17.54    3.57
   0  11   2   15.39    2.72
   0  11   2   19.05    3.37
   0 -11  -3    1.25    1.25
   0  11   3    2.08    1.48
   0  11   3    4.76    2.11
   0  11   3    2.23    1.82
   0  11   3    2.08    1.29
   0  11   3    5.76    2.30
   0 -11  -3    7.30    3.74
   0  11   4   -1.01    1.67
   0  11   4    1.07    1.49
   0 -11  -4   -3.43    1.77
   0  11   4    0.36    1.53
   0  11   4    0.16    1.25
   0 -11  -4   -0.80    1.48
   0  11   5    0.88    1.54
   0  11   5    2.94    1.79
   0  11   5    3.43    1.96
   0 -11  -5    2.59    1.56
   0  12  -8    2.14    1.77
   0  12  -8    1.72    1.88
   0  12  -7    1.29    1.57
   0 -12   7    0.00    1.03
   0  12  -7   -0.91    1.42
   0  12  -6    5.67    2.24
   0  12  -6    3.62    2.01
   0 -12   6    2.53    1.13
   0  12  -6    9.57    2.25
   0  12  -5   -1.55    1.44
   0  12  -5    1.49    1.44
   0  12  -5    2.77    2.43
   0  12  -5   -0.16    1.00
   0 -12   5    0.82    1.18
   0  12  -5   -1.92    2.11
   0  12  -5    0.71    1.39
   0  12  -4    5.38    1.91
   0  12  -4    3.49    1.83
   0  12  -4    8.93    2.98
   0  12  -4    3.90    2.58
   0 -12   4    3.71    1.69
   0 -12   4    3.10    1.65
   0  12  -4    6.01    2.10
   0  12  -4    8.42    2.09
   0  12  -3   11.95    3.43
   0  12  -3   16.11    3.74
   0  12  -3   13.37    2.63
   0  12  -3   12.59    2.77
   0  12  -3   17.00    2.77
   0  12  -3   15.44    2.83
   0 -12   3   11.45    2.58
   0 -12   3   16.24    3.06
   0  12  -2    0.89    1.16
   0  12  -2    2.69    2.24
   0  12  -2    0.75    1.61
   0 -12   2   -1.13    1.19
   0  12  -2   -1.40    1.07
   0 -12   2    2.76    1.67
   0  12  -2    0.97    1.74
   0  12  -2   -0.36    1.35
   0  12  -1   32.06    4.93
   0  12  -1   19.64    3.37
   0 -12   1   26.46    3.83
   0  12  -1   25.71    4.35
   0  12  -1   21.06    3.51
   0  12  -1   27.58    4.73
   0 -12   1   22.35    3.44
   0  12   0    0.30    1.16
   0  12   0    0.74    1.87
   0 -12   0    0.73    1.13
   0  12   0   -0.06    1.90
   0  12   0   -1.60    1.72
   0 -12   0    1.65    1.22
   0  12   0    2.32    1.60
   0 -12  -1    3.80    1.75
   0  12   1    2.39    2.07
   0  12   1    4.14    2.27
   0  12   1    1.81    1.41
   0  12   1    1.09    1.40
   0 -12  -1    3.94    1.65
   0  12   1    1.99    1.87
   0  12   2    0.17    1.11
   0  12   2   -0.52    1.58
   0  12   2   -2.32    1.98
   0  12   2    0.57    1.47
   0 -12  -2   -2.76    1.53
   0  12   3   10.48    3.16
   0  12   3   14.54    3.53
   0 -12  -3    8.26    2.32
   0  12   3    8.82    2.46
   0  12   4    7.41    2.68
   0 -12  -4    8.03    2.13
   0  12   4   11.46    2.73
   0  12   4    6.71    2.57
   0  13  -6    9.45    2.79
   0 -13   6    9.64    2.65
   0 -13   5   -1.53    2.01
   0 -13   4    1.90    1.28
   0  13  -4    2.91    1.76
   0  13  -4    1.62    1.66
   0  13  -3    2.17    2.33
   0  13  -3    1.61    1.64
   0  13  -2   -1.25    1.87
   0  13  -2   -0.58    1.59
   0  13  -1    1.82    1.67
   0  13  -1    3.61    2.00
   0  13   0    2.37    1.47
  -1  13   2   23.35    4.16
   1 -13  -1    3.48    1.89
  -1  13   1    0.61    1.72
  -1  13   1    0.13    1.65
   1 -13   0    4.42    1.76
  -1  13   0    6.71    2.41
  -1  13   0    5.65    2.25
  -1  13   0    0.55    1.43
  -1  13  -1    2.48    1.53
   1 -13   1   -0.62    1.12
  -1  13  -1    0.85    1.29
  -1  13  -2    0.27    1.25
  -1  13  -2    0.25    1.06
  -1  13  -3   22.68    3.43
   1 -13   5   22.49    3.75
  -1  12   4   15.95    3.21
  -1  12   3   -2.91    1.56
   1 -12  -3    0.70    1.04
  -1  12   3    1.44    1.61
  -1  12   3    0.85    1.68
  -1  12   3   -0.78    1.78
   1 -12  -2   -0.01    1.42
  -1  12   2    1.81    1.70
  -1  12   2    0.21    1.37
  -1  12   2   -0.15    1.45
  -1  12   2    2.48    2.13
  -1  12   2    3.00    2.20
  -1  12   1    9.56    2.91
  -1  12   1    7.54    2.07
   1 -12  -1    7.73    2.25
  -1  12   1    4.26    2.04
   1 -12  -1    5.47    1.88
  -1  12   0   11.17    2.96
   1 -12   0   10.83    2.40
  -1  12   0    9.31    2.53
   1 -12   0   13.53    3.07
  -1  12   0   10.98    3.10
  -1  12   0   13.08    2.86
   1 -12   1    0.27    1.05
  -1  12  -1    0.49    1.53
  -1  12  -1   -1.45    1.15
   1 -12   1   -0.83    1.60
  -1  12  -1   -0.19    1.70
  -1  12  -1    0.65    1.41
  -1  12  -2    8.31    2.41
   1 -12   2    6.15    2.04
   1 -12   2    5.54    2.14
  -1  12  -2    7.91    2.10
  -1  12  -2    6.40    2.88
  -1  12  -2    5.96    2.48
  -1  12  -3   18.37    3.04
  -1  12  -3   16.32    3.63
  -1  12  -3   18.25    3.50
   1 -12   3   19.55    3.36
  -1  12  -3   27.36    4.82
  -1  12  -4    0.60    1.36
  -1  12  -4    0.42    0.88
  -1  12  -4    3.89    2.51
   1 -12   4    1.21    1.33
  -1  12  -4    4.69    1.85
  -1  12  -5   22.43    3.48
  -1  12  -5   24.57    3.47
  -1  12  -5   23.65    4.55
  -1  12  -5   22.41    3.99
   1 -12   5   17.22    3.10
   1 -12   6    2.52    1.67
  -1  12  -6    1.23    1.54
  -1  12  -6    4.49    2.16
   1 -12   7   73.29    5.90
  -1  12  -7   74.32    6.71
  -1  12  -7   70.65    6.34
  -1  12  -8   -1.22    1.57
  -1  12  -8    3.33    1.81
  -1  11   5    1.63    1.45
  -1  11   5   -0.06    1.27
   1 -11  -4   15.90    3.08
  -1  11   4   11.89    2.80
  -1  11   4    9.78    2.49
   1 -11  -4   15.47    2.67
  -1  11   4   18.71    3.52
  -1  11   4   20.88    3.49
  -1  11   4   10.87    2.72
   1 -11  -3    1.42    1.26
  -1  11   3   -1.23    1.62
  -1  11   3    2.03    1.75
  -1  11   3    1.11    1.58
  -1  11   3    0.53    1.34
   1 -11  -3    0.58    1.17
  -1  11   3    2.58    1.73
   1 -11  -2    7.96    2.15
  -1  11   2    6.01    2.20
  -1  11   2   10.43    2.86
  -1  11   2    4.35    2.14
   1 -11  -2    7.74    2.10
  -1  11   2    3.96    1.99
  -1  11   2    7.32    2.29
  -1  11   1    0.40    1.16
   1 -11  -1    0.60    1.03
  -1  11   1   -0.66    1.49
  -1  11   1    5.07    2.41
  -1  11   1    0.71    1.33
   1 -11  -1   -1.01    1.27
  -1  11   1   -0.27    1.47
   1 -11   0    2.19    1.51
  -1  11   0    4.83    2.17
  -1  11   0    3.84    1.82
  -1  11   0    1.87    1.36
   1 -11   0    3.78    1.53
  -1  11   0    8.16    2.93
  -1  11  -1    0.58    0.80
  -1  11  -1   -1.48    1.46
  -1  11  -1   -1.52    1.77
   1 -11   1    0.40    1.15
  -1  11  -1    0.15    0.80
  -1  11  -1    0.96    1.51
  -1  11  -1    0.34    1.35
   1 -11   1    0.18    1.21
  -1  11  -2    2.28    1.34
   1 -11   2    2.28    1.31
  -1  11  -2    1.54    1.81
  -1  11  -2    2.69    1.42
  -1  11  -2    2.21    1.64
  -1  11  -2    0.70    1.67
  -1  11  -2    2.16    1.23
  -1  11  -3    0.07    1.72
  -1  11  -3    1.73    1.06
  -1  11  -3   -1.48    1.90
  -1  11  -3    2.01    1.66
  -1  11  -3    2.41    1.33
   1 -11   3    0.77    1.41
  -1  11  -3    0.58    1.07
  -1  11  -4   14.09    2.55
   1 -11   4   14.34    2.79
  -1  11  -4   14.03    2.39
  -1  11  -4   12.32    2.36
  -1  11  -4   10.81    2.89
  -1  11  -4   14.83    3.21
  -1  11  -5   10.78    2.47
  -1  11  -5   10.76    2.66
   1 -11   5    6.34    1.93
  -1  11  -5    8.84    2.12
  -1  11  -5    9.22    1.86
  -1  11  -5   12.70    3.34
  -1  11  -6    0.20    1.24
   1 -11   6    0.47    1.35
  -1  11  -6    1.88    2.06
  -1  11  -6    1.29    1.40
  -1  11  -6    0.27    1.24
   1 -11   6   -0.04    1.47
  -1  11  -7    1.55    1.52
   1 -11   7    0.99    1.05
   1 -11   7   -0.18    1.96
  -1  11  -7    0.09    1.33
  -1  11  -7    1.30    1.54
  -1  11  -7    0.01    1.91
  -1  11  -8    6.42    2.09
  -1  11  -8    3.36    1.74
   1 -11   8    5.39    2.59
   1 -11   9    6.81    2.53
  -1  11  -9    8.22    2.82
  -1  11  -9    5.73    2.43
   1 -11   9    2.71    2.30
  -1  10   7    6.14    2.23
  -1  10   7   11.14    2.66
   1 -10  -7    4.88    2.00
  -1  10   6   10.77    2.52
  -1  10   6   12.60    2.59
  -1  10   6   13.11    2.72
  -1  10   6   10.89    2.75
   1 -10  -6    7.08    2.16
  -1  10   5   10.14    2.41
  -1  10   5    7.30    2.07
   1 -10  -5    7.11    2.11
  -1  10   5   10.65    2.32
  -1  10   5   13.13    2.73
  -1  10   5   11.78    2.58
   1 -10  -5    8.44    1.92
  -1  10   5   13.74    2.75
  -1  10   4   -0.41    1.15
  -1  10   4   -1.63    1.37
  -1  10   4    1.53    1.01
   1 -10  -4    0.03    1.25
  -1  10   4    0.66    1.41
  -1  10   4    0.15    1.13
   1 -10  -4   -0.31    0.90
  -1  10   4   -1.07    1.41
  -1  10   3   -1.06    1.45
  -1  10   3    0.31    1.19
  -1  10   3   -1.61    1.56
   1 -10  -3   -1.29    1.19
   1 -10  -3    0.57    1.08
  -1  10   3   -0.17    0.79
  -1  10   3    1.35    1.63
  -1  10   3    0.77    1.62
  -1  10   2   -1.17    1.79
   1 -10  -2    0.98    1.16
  -1  10   2    3.20    2.00
   1 -10  -2    0.01    1.23
  -1  10   2   -0.10    1.00
  -1  10   2    0.65    0.90
  -1  10   2    4.46    2.10
  -1  10   2    0.73    1.41
   1 -10  -1    1.80    1.42
  -1  10   1    5.43    2.14
  -1  10   1    2.56    0.77
  -1  10   1    2.28    1.27
  -1  10   1    1.91    1.61
  -1  10   1    3.34    1.86
   1 -10  -1    2.75    1.28
  -1  10   1    1.72    1.45
  -1  10   0    7.09    2.10
  -1  10   0    7.99    1.39
  -1  10   0    8.96    2.29
   1 -10   0    7.68    1.91
  -1  10   0   12.02    2.43
   1 -10   0    9.84    2.30
  -1  10   0   13.41    2.93
  -1  10   0    8.13    1.53
  -1  10   0   10.01    2.59
  -1  10  -1  181.76    9.54
  -1  10  -1  175.13    6.98
   1 -10   1  167.24    8.49
  -1  10  -1  192.11   10.07
  -1  10  -1  172.10    7.94
  -1  10  -1  170.73    8.73
  -1  10  -1  164.08    6.33
  -1  10  -2   10.13    1.98
  -1  10  -2   13.13    2.06
  -1  10  -2   10.29    2.45
   1 -10   2   10.83    2.38
  -1  10  -2    8.38    2.49
  -1  10  -2   14.78    3.13
  -1  10  -2   12.66    1.52
  -1  10  -2   11.47    2.02
  -1  10  -3    5.26    1.63
  -1  10  -3    3.91    1.88
  -1  10  -3    3.19    1.23
  -1  10  -3    3.17    1.77
  -1  10  -3    3.55    1.96
   1 -10   3    6.41    1.80
  -1  10  -3    4.62    0.97
  -1  10  -3    4.17    1.64
  -1  10  -3    4.72    1.36
  -1  10  -4    7.20    2.20
  -1  10  -4    6.14    1.47
   1 -10   4    3.96    1.63
  -1  10  -4    4.49    2.21
  -1  10  -4    5.39    1.71
  -1  10  -4    5.04    1.62
  -1  10  -5    5.91    2.56
  -1  10  -5    2.81    1.47
  -1  10  -5    4.48    1.27
  -1  10  -5    2.92    1.71
   1 -10   5    3.09    1.56
  -1  10  -5    0.65    1.14
  -1  10  -6    4.15    1.65
   1 -10   6    1.74    1.31
  -1  10  -6    3.05    1.56
  -1  10  -6    1.66    0.96
  -1  10  -6   12.96    2.84
   1 -10   6    4.02    1.63
  -1  10  -6   11.15    5.90
   1 -10   6    1.37    1.62
   1 -10   7    8.55    2.75
  -1  10  -7    9.73    2.91
   1 -10   7    9.37    2.09
  -1  10  -7    7.53    2.26
  -1  10  -7   11.52    2.78
  -1  10  -7    9.18    2.40
  -1  10  -8    8.81    2.42
  -1  10  -8    9.54    2.47
  -1  10  -8    7.43    3.31
   1 -10   8   12.09    3.22
   1 -10   8    8.29    1.82
   1 -10   8    9.26    3.16
  -1  10  -8   12.77    3.07
  -1  10  -9    1.67    1.81
   1 -10   9    4.24    2.41
  -1  10  -9    1.03    1.36
   1 -10   9   -3.49    2.34
   1 -10   9    1.58    1.74
  -1  10  -9    6.33    3.05
  -1  10  -9    0.78    1.33
   1 -10  10    3.31    2.14
   1 -10  10   -4.67    2.50
   1  -9  -9    5.49    1.78
   1  -9  -8    7.77    2.18
  -1   9   8   14.36    3.27
   1  -9  -7   -1.01    0.92
  -1   9   7   -0.73    1.48
  -1   9   7    1.38    1.22
  -1   9   7   -1.54    1.69
  -1   9   6    0.00    0.99
  -1   9   6    1.71    1.29
  -1   9   6   -0.14    1.03
   1  -9  -6    0.20    0.85
  -1   9   6   -1.91    1.58
  -1   9   6    0.95    1.36
   1  -9  -6    1.93    1.22
  -1   9   6    0.49    1.16
  -1   9   5   12.00    2.48
  -1   9   5    9.38    2.19
   1  -9  -5   10.11    2.24
  -1   9   5    9.17    2.35
  -1   9   5   13.83    2.56
   1  -9  -5   12.34    2.18
  -1   9   5    8.42    2.04
  -1   9   5   12.34    2.46
  -1   9   4   30.35    3.55
  -1   9   4   31.73    3.87
  -1   9   4   33.29    3.83
   1  -9  -4   33.58    3.90
  -1   9   4   32.08    4.01
  -1   9   4   29.54    3.44
   1  -9  -4   28.17    2.99
  -1   9   4   33.69    3.83
   1  -9  -3    8.47    1.89
  -1   9   3    8.29    2.01
  -1   9   3    8.28    2.15
  -1   9   3    7.51    1.77
  -1   9   3    5.26    1.70
   1  -9  -3    6.46    1.98
  -1   9   3    5.03    1.78
  -1   9   3    8.64    2.12
  -1   9   3    6.59    1.08
  -1   9   2    2.88    1.12
  -1   9   2    7.00    2.14
  -1   9   2    3.00    1.64
  -1   9   2    3.32    1.32
   1  -9  -2    3.49    0.99
  -1   9   2    3.74    1.54
  -1   9   2    4.03    1.48
  -1   9   2    4.23    0.95
   1  -9  -2    2.93    1.26
  -1   9   2    4.22    0.89
   1  -9  -2    3.13    1.58
  -1   9   1    3.07    1.58
  -1   9   1    3.63    0.96
   1  -9  -1    3.42    1.34
  -1   9   1    4.00    1.66
  -1   9   1    4.90    1.61
   1  -9  -1    3.41    1.30
  -1   9   1    3.35    1.67
  -1   9   1    2.53    1.33
  -1   9   0   29.94    3.74
  -1   9   0   28.52    3.40
  -1   9   0   29.98    3.30
   1  -9   0   25.47    2.84
  -1   9   0   28.36    2.38
  -1   9   0   33.20    3.93
  -1   9   0   30.36    3.75
   1  -9   0   26.72    3.36
   1  -9   1    5.62    1.31
  -1   9  -1    4.21    1.84
   1  -9   1    5.23    1.67
  -1   9  -1    5.32    1.79
  -1   9  -1    6.00    1.47
  -1   9  -1    5.77    1.15
  -1   9  -1    5.32    1.27
  -1   9  -1    3.35    1.21
  -1   9  -1    5.27    1.83
  -1   9  -2   94.06    6.56
  -1   9  -2   83.53    5.06
  -1   9  -2   89.87    3.84
   1  -9   2   85.80    4.20
  -1   9  -2   84.27    4.71
   1  -9   2   85.42    5.67
  -1   9  -2   83.89    5.81
  -1   9  -2   91.81    6.19
  -1   9  -2   88.78    5.10
  -1   9  -2   98.80    6.91
   1  -9   3   97.80    5.97
   1  -9   3   94.79    3.86
  -1   9  -3  101.38    6.60
  -1   9  -3  114.60    7.57
  -1   9  -3  114.67    7.42
  -1   9  -3  100.03    5.43
  -1   9  -3  108.73    6.63
  -1   9  -3  107.80    4.19
  -1   9  -3  104.21    5.79
  -1   9  -3   93.92    5.14
  -1   9  -4    1.92    1.82
  -1   9  -4    1.45    1.54
   1  -9   4    2.02    1.92
  -1   9  -4    0.69    0.84
  -1   9  -4   -2.79    2.02
  -1   9  -4    0.83    1.11
  -1   9  -4    0.62    0.76
  -1   9  -5   25.60    3.99
  -1   9  -5   27.37    2.69
  -1   9  -5   28.93    2.48
  -1   9  -5   29.97    3.79
   1  -9   5   24.56    2.99
  -1   9  -5   26.26    3.25
  -1   9  -5   28.57    3.50
  -1   9  -6   44.37    5.41
   1  -9   6   38.48    4.74
  -1   9  -6   37.21    4.13
  -1   9  -6   40.88    3.13
   1  -9   6   40.54    3.74
  -1   9  -6   36.93    4.05
  -1   9  -6   36.89    4.21
   1  -9   6   42.55    3.71
  -1   9  -7   12.65    2.70
  -1   9  -7   12.12    1.84
  -1   9  -7    8.71    2.53
  -1   9  -7   10.73    2.88
  -1   9  -7   11.83    2.87
   1  -9   7   12.01    1.95
   1  -9   7   12.66    3.03
   1  -9   7   11.36    2.05
   1  -9   8   -0.19    1.57
  -1   9  -8    3.15    1.98
   1  -9   8    1.72    1.03
  -1   9  -8    0.85    1.52
   1  -9   8    2.84    1.87
  -1   9  -8    1.30    1.44
  -1   9  -8    1.83    1.37
   1  -9   8    0.81    1.60
   1  -9   9    2.68    1.90
  -1   9  -9    2.71    1.67
   1  -9   9    1.26    1.47
  -1   9  -9    0.56    1.82
  -1   9  -9    1.99    1.26
   1  -9   9   -0.40    1.60
  -1   9  -9    1.53    1.91
  -1   9 -10    9.54    2.86
  -1   9 -10    8.94    2.39
  -1   9 -10    9.93    3.30
   1  -9  10   12.63    3.26
   1  -9  10    7.89    2.99
   1  -9  10    7.47    2.37
   1  -9  10    9.50    2.67
  -1   9 -10   11.43    2.75
   1  -9  11    8.61    2.48
   1  -9  11   18.49    3.50
   1  -8 -10    3.79    1.61
  -1   8   9   22.37    4.14
   1  -8  -9   23.02    3.41
  -1   8   8    7.74    2.21
  -1   8   8    7.07    2.22
   1  -8  -8   10.20    2.28
  -1   8   7   10.29    2.43
   1  -8  -7    7.37    1.89
  -1   8   7   11.18    2.12
  -1   8   7    9.87    2.16
  -1   8   7   15.16    2.46
   1  -8  -7   10.87    1.85
  -1   8   7   23.72    3.73
  -1   8   7   12.11    2.44
  -1   8   6    6.08    1.93
  -1   8   6    6.44    1.64
  -1   8   6    5.39    1.82
  -1   8   6    6.05    1.67
  -1   8   6    4.15    1.64
  -1   8   6    7.83    1.87
   1  -8  -6    5.76    1.44
   1  -8  -6    8.76    2.09
  -1   8   5    0.69    1.20
   1  -8  -5    0.23    0.88
   1  -8  -5   -1.08    1.29
  -1   8   5    0.45    1.00
  -1   8   5    1.25    1.41
  -1   8   5    1.57    1.25
  -1   8   5    0.96    1.11
  -1   8   5    2.25    1.39
  -1   8   4    2.19    1.54
  -1   8   4    3.13    0.74
   1  -8  -4    3.62    1.25
  -1   8   4    3.25    0.99
  -1   8   4    4.54    1.69
  -1   8   4    3.66    1.32
  -1   8   4    4.64    1.58
   1  -8  -4    3.91    1.39
  -1   8   4    2.69    1.36
  -1   8   4    3.78    1.65
   1  -8  -3  214.57    7.20
  -1   8   3  197.87    8.44
  -1   8   3  213.68    7.51
  -1   8   3  204.14    5.34
   1  -8  -3  204.06    4.95
  -1   8   3  200.35    8.22
  -1   8   3  206.58    8.49
  -1   8   3  207.47    7.91
   1  -8  -3  195.20    7.04
  -1   8   3  213.37    8.72
   1  -8  -3  199.70    8.51
  -1   8   3  201.88    8.35
  -1   8   2   63.72    4.70
  -1   8   2   61.76    2.84
   1  -8  -2   59.21    3.92
  -1   8   2   70.00    4.48
  -1   8   2   64.22    4.92
  -1   8   2   59.44    3.95
  -1   8   2   65.83    4.89
   1  -8  -2   59.52    4.60
  -1   8   2   61.08    4.72
  -1   8   2   64.96    4.77
   1  -8  -2   63.86    3.70
  -1   8   2   63.26    3.02
  -1   8   1    6.90    1.36
  -1   8   1    6.68    1.15
   1  -8  -1    8.31    1.71
  -1   8   1    8.31    1.22
  -1   8   1    7.47    1.99
  -1   8   1    6.91    1.88
   1  -8  -1    7.44    1.75
  -1   8   1    9.63    2.25
  -1   8   1    8.42    1.99
  -1   8   1    7.89    1.75
  -1   8   1    7.67    1.70
  -1   8   0    3.08    1.25
  -1   8   0    4.36    1.63
   1  -8   0    3.03    1.23
  -1   8   0    4.54    0.99
  -1   8   0    2.97    1.65
  -1   8   0    6.60    1.81
  -1   8   0    5.23    1.13
  -1   8   0    9.06    2.04
  -1   8   0    4.73    1.08
   1  -8   0    5.34    1.25
  -1   8  -1    3.72    1.18
   1  -8   1    5.13    1.50
  -1   8  -1    7.85    1.95
  -1   8  -1    6.37    2.02
  -1   8  -1    6.39    1.18
  -1   8  -1    5.30    1.87
  -1   8  -1    6.15    1.48
   1  -8   1    4.40    1.08
  -1   8  -1    8.04    2.10
  -1   8  -2   77.38    4.49
   1  -8   2   77.69    3.69
  -1   8  -2   76.03    4.37
  -1   8  -2   78.91    4.27
  -1   8  -2   80.16    5.84
  -1   8  -2   72.84    5.22
   1  -8   2   70.44    4.86
  -1   8  -2   77.75    3.46
  -1   8  -2   74.85    5.54
  -1   8  -2   82.50    5.28
   1  -8   3  111.50    3.79
  -1   8  -3  112.16    6.82
  -1   8  -3  103.83    6.78
  -1   8  -3  107.50    5.12
  -1   8  -3  109.71    4.19
  -1   8  -3  101.69    6.03
   1  -8   3   96.76    5.61
  -1   8  -3  109.28    5.37
  -1   8  -3  107.55    5.61
  -1   8  -4   16.16    1.77
  -1   8  -4   17.34    2.67
  -1   8  -4   16.99    3.17
  -1   8  -4   17.23    2.05
   1  -8   4   15.08    2.34
  -1   8  -4   15.57    2.63
  -1   8  -4   15.76    2.34
   1  -8   5   -0.45    1.02
  -1   8  -5   -1.35    1.45
  -1   8  -5    1.13    1.33
  -1   8  -5   -0.14    0.75
  -1   8  -5   -0.04    1.47
  -1   8  -5   -0.14    1.04
   1  -8   6    0.05    0.74
   1  -8   6   -0.69    0.87
  -1   8  -6   -0.92    1.40
  -1   8  -6    0.43    1.15
  -1   8  -6    0.57    1.09
   1  -8   6    0.63    1.28
  -1   8  -6    2.31    2.08
  -1   8  -7    1.17    1.13
   1  -8   7    2.18    1.75
   1  -8   7   -0.88    0.82
   1  -8   7    3.23    2.02
   1  -8   7    0.51    0.89
  -1   8  -7    1.30    1.51
  -1   8  -7    0.22    1.13
  -1   8  -7   -0.22    1.68
  -1   8  -8   33.58    4.69
   1  -8   8   29.51    2.84
   1  -8   8   32.81    3.95
  -1   8  -8   31.55    4.14
   1  -8   8   31.39    4.26
   1  -8   8   33.49    2.66
  -1   8  -8   32.58    3.91
  -1   8  -8   29.27    3.84
   1  -8   8   36.58    4.86
  -1   8  -9   15.07    2.97
  -1   8  -9    9.88    2.66
   1  -8   9    8.32    1.57
   1  -8   9   10.43    2.87
   1  -8   9   10.52    2.59
  -1   8  -9    6.29    2.28
   1  -8   9    8.12    2.35
  -1   8  -9    7.63    2.13
  -1   8 -10    6.27    2.39
  -1   8 -10    1.81    1.49
   1  -8  10    5.48    2.05
  -1   8 -10    5.97    3.04
  -1   8 -10    4.12    1.85
   1  -8  10    3.24    1.86
   1  -8  10    4.36    2.03
   1  -8  10    7.63    3.02
  -1   8 -11   -0.21    1.29
   1  -8  11   -2.40    1.94
   1  -8  11   -1.51    2.01
   1  -8  11    1.08    1.62
  -1   8 -11    0.34    1.44
  -1   8 -11   -1.30    1.72
   1  -7 -10    7.52    1.88
   1  -7 -10    8.47    2.72
  -1   7  10   12.58    3.39
  -1   7   9    0.27    0.96
   1  -7  -9    3.03    1.46
  -1   7   9   -0.90    1.61
  -1   7   8    6.70    1.69
  -1   7   8    5.92    1.98
   1  -7  -8    4.44    1.51
  -1   7   8    5.20    2.03
  -1   7   8    6.39    1.76
  -1   7   8    6.16    1.73
  -1   7   7    4.10    1.88
  -1   7   7    1.56    1.20
   1  -7  -7    2.56    0.98
  -1   7   7    3.29    1.69
   1  -7  -7    0.61    1.06
  -1   7   7    1.91    1.11
  -1   7   7    3.60    1.41
  -1   7   7    3.24    1.39
   1  -7  -6    5.30    1.25
  -1   7   6    4.67    1.46
  -1   7   6    3.05    1.45
   1  -7  -6    5.09    1.25
  -1   7   6    5.07    1.43
  -1   7   6    5.44    1.41
  -1   7   6    4.30    1.83
   1  -7  -6    3.90    1.37
  -1   7   6    4.49    1.65
   1  -7  -5   79.98    4.13
  -1   7   5   83.98    3.46
  -1   7   5   76.76    5.21
   1  -7  -5   80.20    4.91
   1  -7  -5   80.12    5.23
  -1   7   5   78.59    5.64
   1  -7  -5   76.81    4.69
   1  -7  -5   71.36    3.18
  -1   7   5   82.49    4.96
  -1   7   5   80.87    5.03
   1  -7  -5   80.22    4.27
  -1   7   5   75.73    5.40
   1  -7  -5   80.03    4.88
  -1   7   5   88.36    5.01
  -1   7   5   80.01    3.37
  -1   7   4    1.79    0.64
  -1   7   4    2.32    1.27
   1  -7  -4    2.33    1.03
   1  -7  -4    1.98    1.03
   1  -7  -4    3.48    1.08
   1  -7  -4    2.18    0.70
   1  -7  -4    1.64    0.93
  -1   7   4    2.09    1.19
   1  -7  -4    2.70    1.47
   1  -7  -4    2.93    1.09
   1  -7  -4    2.87    1.20
  -1   7   4    3.89    1.54
  -1   7   4    1.18    1.21
  -1   7   4    1.71    0.81
  -1   7   4    3.37    1.33
  -1   7   4    0.82    1.09
  -1   7   3  109.81    5.86
   1  -7  -3  107.14    5.59
  -1   7   3  115.24    5.83
   1  -7  -3  118.22    5.93
  -1   7   3  107.43    5.55
  -1   7   3  118.33    6.01
   1  -7  -3  113.03    3.48
   1  -7  -3  115.86    5.60
   1  -7  -3  116.79    5.90
   1  -7  -3  115.52    5.15
  -1   7   3  104.17    5.65
   1  -7  -3  108.31    4.81
  -1   7   3  112.44    3.76
  -1   7   3  122.59    5.84
   1  -7  -3  107.92    4.95
   1  -7  -3   99.60    5.64
  -1   7   2   83.84    3.07
   1  -7  -2   84.86    4.85
  -1   7   2   82.03    5.01
   1  -7  -2   88.44    4.78
  -1   7   2   89.88    5.22
  -1   7   2   83.54    4.51
  -1   7   2   85.61    5.10
  -1   7   2   81.63    4.42
   1  -7  -2   83.26    4.42
  -1   7   2   82.79    4.90
   1  -7  -2   80.87    4.93
   1  -7  -2   78.53    4.09
   1  -7  -2   81.62    4.84
   1  -7  -2   79.62    4.96
  -1   7   2   83.36    4.95
  -1   7   1   53.43    3.97
  -1   7   1   46.65    2.55
  -1   7   1   47.97    4.03
  -1   7   1   51.30    3.78
   1  -7  -1   47.05    3.36
   1  -7  -1   43.99    3.63
  -1   7   1   46.05    3.57
   1  -7  -1   48.91    4.20
   1  -7  -1   47.70    3.65
   1  -7  -1   54.18    3.35
   1  -7  -1   44.83    3.71
   1  -7  -1   47.48    3.27
  -1   7   1   46.26    2.41
  -1   7   1   46.68    3.82
  -1   7   1   51.10    3.09
  -1   7   1   53.74    4.10
  -1   7   1   47.36    3.04
   1  -7  -1   51.91    4.02
   1  -7   0    7.19    1.57
  -1   7   0    7.47    1.23
  -1   7   0    4.52    1.53
   1  -7   0    6.30    1.06
   1  -7   0    6.36    1.52
   1  -7   0    8.26    1.26
  -1   7   0    7.42    1.52
   1  -7   0    7.43    1.64
   1  -7   0    8.41    1.76
  -1   7   0    7.79    1.77
  -1   7   0    7.14    1.27
  -1   7   0    6.78    1.69
  -1   7   0    7.01    1.64
  -1   7   0    6.79    1.68
   1  -7   0    5.84    1.57
  -1   7   0    5.56    0.99
  -1   7  -1   -1.31    1.65
   1  -7   1   -0.25    0.87
   1  -7   1   -0.10    0.89
   1  -7   1   -0.97    1.02
   1  -7   1   -0.73    1.07
   1  -7   1   -0.46    0.93
  -1   7  -1   -0.83    1.11
  -1   7  -1   -0.04    0.67
  -1   7  -1   -0.18    1.01
  -1   7  -1   -1.02    1.42
   1  -7   1   -0.11    0.41
  -1   7  -1    0.63    1.25
  -1   7  -1    0.45    0.79
  -1   7  -1   -0.01    0.69
   1  -7   1    0.05    0.68
  -1   7  -1    0.59    0.63
   1  -7   2  239.19    8.93
   1  -7   2  241.09    9.05
  -1   7  -2  227.92    6.87
   1  -7   2  229.80    5.79
  -1   7  -2  223.19    5.63
   1  -7   2  249.80    9.06
  -1   7  -2  241.29    8.95
  -1   7  -2  234.27    6.91
   1  -7   2  220.70    7.78
   1  -7   2  242.97    8.83
  -1   7  -2  249.27    9.40
  -1   7  -2  235.83    8.25
  -1   7  -3   95.32    5.40
  -1   7  -3  102.30    6.09
   1  -7   3   93.76    5.09
   1  -7   3  114.08    6.29
  -1   7  -3   95.27    4.98
  -1   7  -3  100.02    4.85
  -1   7  -3  104.73    6.32
  -1   7  -3   94.54    4.31
  -1   7  -3   93.43    3.80
   1  -7   3   97.29    3.20
  -1   7  -4  122.24    4.66
   1  -7   4  116.33    6.66
   1  -7   4  109.06    5.45
  -1   7  -4  112.57    6.12
  -1   7  -4  127.01    7.25
  -1   7  -4  119.09    5.67
  -1   7  -4  121.81    6.03
   1  -7   5    6.76    2.06
  -1   7  -5    3.47    1.31
  -1   7  -5    3.54    1.77
  -1   7  -5    2.96    1.46
   1  -7   5    7.62    1.61
   1  -7   5    1.84    1.31
  -1   7  -5    4.01    1.44
   1  -7   6    2.00    0.94
  -1   7  -6    1.98    1.55
   1  -7   6    0.74    0.69
  -1   7  -6    1.93    1.76
  -1   7  -6    0.49    1.00
   1  -7   6    2.80    1.78
   1  -7   6    1.80    0.47
   1  -7   6    4.50    1.85
  -1   7  -7   -0.05    1.56
  -1   7  -7    0.30    1.14
   1  -7   7    2.14    1.05
   1  -7   7    2.03    1.60
   1  -7   7    1.33    1.74
   1  -7   7    3.50    1.83
   1  -7   7    1.52    0.60
   1  -7   7    2.05    0.85
  -1   7  -7    1.95    1.34
  -1   7  -8    0.55    1.28
   1  -7   8    2.28    0.89
   1  -7   8    2.94    0.93
   1  -7   8    1.36    0.60
   1  -7   8    0.92    1.36
  -1   7  -8    0.27    1.12
   1  -7   8   -0.92    1.50
   1  -7   8    0.34    1.37
  -1   7  -8    3.21    2.15
   1  -7   9   -1.34    1.62
  -1   7  -9    1.32    1.69
   1  -7   9    0.88    0.61
   1  -7   9   -2.55    2.30
  -1   7  -9    1.87    1.83
   1  -7   9    0.19    0.72
   1  -7   9    0.25    1.31
  -1   7  -9   -0.43    1.29
  -1   7 -10   -0.61    1.38
   1  -7  10    0.05    1.69
   1  -7  10   -0.30    1.34
   1  -7  10    0.93    1.34
   1  -7  10   -1.79    1.46
  -1   7 -10   -1.77    1.60
   1  -7  11   15.21    3.01
  -1   7 -11   19.52    3.73
  -1   7 -11   14.38    2.99
   1  -7  11   15.61    3.16
   1  -7  11   14.94    3.15
   1  -7  12   47.59    6.08
   1  -7  12   49.66    5.42
   1  -7  12   38.09    5.23
  -1   7 -12   40.36    4.88
   1  -7  12   45.43    5.32
   1  -6 -11    7.92    2.69
   1  -6 -10    0.84    0.91
  -1   6  10    2.04    1.52
  -1   6  10    3.60    2.20
   1  -6 -10   -1.14    1.88
  -1   6   9    2.27    1.80
  -1   6   9    0.74    0.88
  -1   6   9   -0.03    0.91
   1  -6  -9    2.53    1.25
  -1   6   9    1.67    1.02
  -1   6   9    0.75    1.02
  -1   6   9    1.29    1.83
  -1   6   8   57.53    4.11
   1  -6  -8   51.22    4.13
  -1   6   8   48.70    5.21
   1  -6  -8   49.83    3.22
  -1   6   8   54.80    4.98
  -1   6   8   55.29    4.09
  -1   6   8   55.59    3.95
   1  -6  -7   58.86    3.93
  -1   6   7   56.53    4.90
  -1   6   7   57.24    4.00
  -1   6   7   49.70    4.89
  -1   6   7   60.61    4.02
   1  -6  -7   52.22    3.19
   1  -6  -7   49.23    4.00
   1  -6  -7   59.96    4.18
  -1   6   7   56.44    3.99
   1  -6  -7   57.65    3.47
   1  -6  -6  110.19    5.38
   1  -6  -6  119.55    4.86
   1  -6  -6  107.09    4.42
  -1   6   6  110.68    6.36
   1  -6  -6  118.60    5.50
  -1   6   6  120.47    5.53
  -1   6   6  122.28    4.60
  -1   6   6  114.11    6.82
   1  -6  -6  120.37    4.41
   1  -6  -6  108.17    5.17
  -1   6   6  122.73    5.46
  -1   6   6  110.97    6.08
  -1   6   6  123.35    5.70
   1  -6  -6  116.56    5.90
  -1   6   5  372.56    9.35
  -1   6   5  376.10    6.23
  -1   6   5  384.75    9.70
  -1   6   5  381.65    9.82
   1  -6  -5  333.92    9.92
   1  -6  -5  354.32    7.90
   1  -6  -5  375.13    8.45
  -1   6   5  379.55    7.26
   1  -6  -5  385.43    7.20
  -1   6   5  366.95   10.97
   1  -6  -5  371.17    9.53
   1  -6  -5  371.90    9.32
   1  -6  -5  365.23    9.59
  -1   6   5  365.77   11.31
  -1   6   5  359.87   10.48
  -1   6   4    4.34    1.43
  -1   6   4    7.50    1.00
   1  -6  -4    5.45    1.24
   1  -6  -4    7.94    1.52
  -1   6   4    7.39    1.63
   1  -6  -4    7.96    1.05
   1  -6  -4    6.13    1.56
   1  -6  -4    5.64    1.32
  -1   6   4    6.09    1.65
   1  -6  -4    8.99    1.39
   1  -6  -4    7.04    1.26
  -1   6   4    8.46    1.74
   1  -6  -4    8.73    1.84
  -1   6   4    6.90    1.09
   1  -6  -4    6.80    1.44
   1  -6  -4    6.80    1.61
  -1   6   3   64.70    4.24
   1  -6  -3   74.97    4.14
  -1   6   3   66.81    4.15
  -1   6   3   66.59    2.62
   1  -6  -3   72.21    3.73
   1  -6  -3   77.14    4.72
  -1   6   3   65.96    3.47
   1  -6  -3   70.04    4.42
  -1   6   3   64.78    4.26
   1  -6  -3   68.68    3.48
   1  -6  -3   69.62    4.16
   1  -6  -3   69.62    4.36
   1  -6  -3   74.03    4.56
   1  -6  -3   68.98    4.88
   1  -6  -3   70.39    4.07
   1  -6  -3   64.71    3.62
   1  -6  -3   70.39    2.58
   1  -6  -2   66.08    3.99
   1  -6  -2   62.05    3.74
  -1   6   2   58.81    3.96
  -1   6   2   66.30    4.25
   1  -6  -2   64.45    3.35
   1  -6  -2   66.64    4.61
   1  -6  -2   67.38    4.01
  -1   6   2   60.66    3.90
   1  -6  -2   62.95    3.88
  -1   6   2   63.40    3.67
   1  -6  -2   60.68    3.45
   1  -6  -2   61.31    4.05
   1  -6  -2   60.95    2.33
  -1   6   2   62.08    2.38
  -1   6   1    0.56    1.05
   1  -6  -1    0.87    0.99
   1  -6  -1   -0.20    0.76
   1  -6  -1    1.21    0.97
   1  -6  -1    1.01    0.92
  -1   6   1    0.23    0.46
  -1   6   1    2.17    1.10
  -1   6   1    0.20    0.56
   1  -6  -1    0.20    0.62
   1  -6  -1    0.50    0.77
   1  -6  -1    1.06    0.67
  -1   6   1   -0.35    0.69
  -1   6   1   -0.04    0.83
  -1   6   1    0.00    0.42
  -1   6   0   13.03    2.08
   1  -6   0   11.06    1.83
  -1   6   0   11.72    1.73
   1  -6   0   13.72    1.79
  -1   6   0    8.30    1.09
   1  -6   0   13.37    1.92
   1  -6   0   13.10    1.42
  -1   6   0    6.81    1.80
  -1   6   0   10.53    1.61
   1  -6   0   10.70    1.26
   1  -6   0   14.34    2.06
   1  -6   0   11.01    1.73
  -1   6   0   11.15    1.31
  -1   6   0   14.24    2.24
   1  -6   0   11.60    1.88
  -1   6   0   10.94    1.82
  -1   6   0   11.29    1.84
  -1   6   0   12.63    1.44
  -1   6  -1  315.90    9.16
  -1   6  -1  333.36    8.87
  -1   6  -1  318.44    9.56
  -1   6  -1  313.67    7.13
   1  -6   1  323.02    9.10
  -1   6  -1  306.29    6.21
  -1   6  -1  321.26    8.60
   1  -6   1  329.33    5.51
   1  -6   1  312.56    8.31
  -1   6  -1  316.04    8.92
   1  -6   1  317.83    7.00
   1  -6   1  322.94    9.35
  -1   6  -1  308.84    6.73
  -1   6  -1  305.81    9.18
  -1   6  -1  300.18    7.42
   1  -6   1  302.37    9.03
   1  -6   1  333.98    9.34
   1  -6   1  300.08    8.48
   1  -6   2   49.61    3.47
   1  -6   2   46.20    2.38
   1  -6   2   51.33    3.95
  -1   6  -2   48.37    2.96
  -1   6  -2   47.33    3.95
   1  -6   2   48.08    3.71
  -1   6  -2   48.50    2.57
  -1   6  -2   50.99    3.58
   1  -6   2   47.60    3.82
  -1   6  -2   44.43    2.77
  -1   6  -2   49.23    3.85
  -1   6  -2   50.14    3.68
   1  -6   2   46.40    3.34
   1  -6   2   47.43    1.67
   1  -6   2   47.35    3.76
   1  -6   3   13.45    2.13
  -1   6  -3   12.95    1.52
   1  -6   3   12.62    0.80
  -1   6  -3   12.44    1.94
   1  -6   3   12.63    1.85
   1  -6   3   14.22    2.22
   1  -6   3   13.95    1.99
  -1   6  -3   14.31    2.14
   1  -6   3   10.49    1.97
  -1   6  -3   14.44    2.49
   1  -6   3   14.53    2.23
  -1   6  -3   13.60    1.80
   1  -6   3   13.05    1.15
   1  -6   4   16.58    2.50
   1  -6   4   15.24    2.39
   1  -6   4   14.12    1.02
   1  -6   4   14.74    2.35
  -1   6  -4   13.37    2.00
   1  -6   4   17.13    2.01
   1  -6   4   13.38    2.29
  -1   6  -4   15.44    2.18
  -1   6  -4   16.04    2.55
   1  -6   5   21.19    2.04
  -1   6  -5   19.51    2.60
  -1   6  -5   24.02    3.42
   1  -6   5   21.50    2.62
  -1   6  -5   24.06    2.86
   1  -6   5   21.04    2.23
   1  -6   5   25.72    3.30
   1  -6   5   23.30    1.65
   1  -6   5   19.11    2.80
   1  -6   6   23.15    1.99
  -1   6  -6   23.61    2.97
  -1   6  -6   27.49    3.76
   1  -6   6   24.91    2.00
   1  -6   6   25.69    3.23
   1  -6   6   24.68    3.45
  -1   6  -6   22.54    2.90
   1  -6   6   26.61    3.19
   1  -6   6   21.93    2.25
   1  -6   7   -0.97    1.22
  -1   6  -7    1.38    1.70
   1  -6   7    3.24    1.60
  -1   6  -7    0.23    1.13
   1  -6   7    0.41    1.09
   1  -6   7    0.14    0.60
  -1   6  -7    0.24    0.41
   1  -6   7    0.24    0.65
   1  -6   7    1.26    1.56
  -1   6  -7   -0.65    1.00
   1  -6   7   -0.13    0.52
   1  -6   8    0.76    0.69
  -1   6  -8    1.82    1.18
   1  -6   8    0.07    0.92
   1  -6   8   -0.41    1.18
   1  -6   8    1.53    1.39
  -1   6  -8    1.30    0.53
  -1   6  -8    2.32    1.65
  -1   6  -8    1.54    1.96
   1  -6   8    2.23    1.65
   1  -6   8    1.49    0.73
   1  -6   8   -0.81    1.40
   1  -6   9    0.05    0.48
   1  -6   9    3.38    1.62
  -1   6  -9   -1.67    1.55
   1  -6   9    0.59    0.61
   1  -6   9    0.56    1.41
   1  -6   9    1.98    1.68
  -1   6  -9    0.01    0.97
   1  -6   9   -0.10    1.13
   1  -6   9    0.45    1.75
   1  -6   9    0.68    0.93
  -1   6 -10    6.83    2.16
   1  -6  10    4.81    1.93
   1  -6  10    4.79    2.03
   1  -6  10    6.17    2.14
  -1   6 -10    7.60    2.11
   1  -6  10    4.30    1.87
   1  -6  10    6.74    1.64
   1  -6  11   22.54    4.01
   1  -6  11   25.59    3.17
   1  -6  11   24.05    3.48
  -1   6 -11   21.73    3.42
   1  -6  11   28.74    3.93
  -1   6 -11   26.50    4.27
   1  -6  11   30.45    4.68
   1  -6  11   27.22    4.10
   1  -6  12    2.16    1.90
  -1   6 -12    6.49    2.13
   1  -6  12    6.86    2.29
  -1   6 -12    7.90    2.76
   1  -6  12    6.89    2.71
   1  -6  12    8.82    2.97
   1  -6  12    7.70    2.42
   1  -5 -12    2.13    2.09
   1  -5 -11   16.31    3.16
  -1   5  11   16.97    3.68
  -1   5  11   16.92    3.16
  -1   5  11   13.51    3.63
   1  -5 -10    1.28    1.75
   1  -5 -10    3.20    1.24
  -1   5  10    0.85    1.20
  -1   5  10    2.20    1.58
  -1   5  10    3.02    2.30
  -1   5   9   -1.80    2.07
  -1   5   9    0.82    0.83
   1  -5  -9    0.47    1.14
  -1   5   9    0.34    1.01
   1  -5  -9    0.35    0.75
  -1   5   9    0.65    0.92
  -1   5   9   -1.44    0.98
   1  -5  -9   -0.86    1.47
  -1   5   9    2.49    2.09
   1  -5  -8   66.70    3.46
  -1   5   8   70.00    4.25
   1  -5  -8   62.87    4.27
  -1   5   8   68.43    4.10
  -1   5   8   64.90    5.97
  -1   5   8   68.96    4.33
  -1   5   8   72.46    5.40
  -1   5   8   71.61    6.15
  -1   5   8   65.34    4.15
  -1   5   7   18.86    2.07
   1  -5  -7   20.20    2.20
   1  -5  -7   18.05    1.92
  -1   5   7   19.02    3.39
   1  -5  -7   18.30    1.78
  -1   5   7   14.92    2.39
  -1   5   7   16.05    2.03
  -1   5   7   20.03    3.13
   1  -5  -7   16.67    2.09
  -1   5   7   16.58    2.05
   1  -5  -7   18.61    2.31
  -1   5   6   84.07    4.91
   1  -5  -6   78.22    3.49
   1  -5  -6   76.62    3.99
  -1   5   6   80.30    5.14
  -1   5   6   72.49    4.81
  -1   5   6   75.08    5.45
   1  -5  -6   77.32    4.19
   1  -5  -6   75.11    3.41
  -1   5   6   78.32    3.71
   1  -5  -6   75.93    4.44
  -1   5   6   82.98    5.86
  -1   5   5  279.47    9.60
  -1   5   5  291.86    9.19
   1  -5  -5  302.97    6.92
   1  -5  -5  294.42    8.91
   1  -5  -5  283.80    6.37
  -1   5   5  287.95    8.83
   1  -5  -5  300.17    7.79
  -1   5   5  328.39    9.39
   1  -5  -5  296.84    7.54
   1  -5  -5  305.44    7.93
   1  -5  -5  285.97    8.39
  -1   5   5  287.79    4.29
   1  -5  -5  299.40    8.65
  -1   5   5  300.36    6.46
   1  -5  -5  292.45    5.99
  -1   5   4  571.60   11.96
   1  -5  -4  525.01   10.09
  -1   5   4  553.94    7.53
   1  -5  -4  529.90    7.29
  -1   5   4  505.87   11.18
   1  -5  -4  526.16   10.70
   1  -5  -4  577.81   13.19
   1  -5  -4  527.74    9.86
  -1   5   4  531.13   12.03
   1  -5  -4  536.34   11.98
   1  -5  -4  525.67   11.47
   1  -5  -4  528.84   11.10
   1  -5  -4  543.53   13.29
   1  -5  -4  494.29    8.26
   1  -5  -4  505.10   10.06
  -1   5   4  535.41    7.47
   1  -5  -4  526.45    8.92
   1  -5  -4  557.83   11.89
  -1   5   4  505.78   11.39
   1  -5  -3   10.34    1.82
   1  -5  -3    9.28    1.29
   1  -5  -3    8.27    1.32
   1  -5  -3    8.90    1.64
  -1   5   3    8.29    1.38
  -1   5   3    8.45    1.62
   1  -5  -3    8.40    0.87
  -1   5   3    9.48    1.59
  -1   5   3    8.67    0.88
   1  -5  -3    9.05    1.43
   1  -5  -3   10.10    1.73
  -1   5   3    9.38    1.58
   1  -5  -3    8.29    1.38
  -1   5   3    8.98    1.56
  -1   5   3   10.24    1.30
  -1   5   3   10.20    1.71
   1  -5  -3    8.90    1.47
  -1   5   3    7.22    1.58
   1  -5  -3    8.39    1.61
   1  -5  -3   11.29    1.38
   1  -5  -3    9.60    1.73
  -1   5   2   17.19    1.11
  -1   5   2   23.77    1.98
  -1   5   2   18.98    2.04
   1  -5  -2   17.50    1.70
  -1   5   2   19.05    1.96
   1  -5  -2   18.63    1.79
  -1   5   2   20.05    2.04
  -1   5   2   17.37    2.07
  -1   5   2   18.18    1.94
   1  -5  -2   20.06    2.12
   1  -5  -2   19.30    2.13
   1  -5  -2   16.52    2.19
   1  -5  -2   19.74    2.04
  -1   5   2   19.69    1.96
   1  -5  -2   18.61    1.97
  -1   5   2   18.28    1.25
   1  -5  -2   18.42    1.76
   1  -5  -2   18.79    1.17
  -1   5   2   16.27    1.98
   1  -5  -2   21.34    1.99
   1  -5  -1  115.06    4.93
   1  -5  -1  125.99    4.95
  -1   5   1  122.91    5.21
  -1   5   1  124.99    4.98
  -1   5   1  128.94    4.79
   1  -5  -1  118.39    4.78
  -1   5   1  126.42    4.95
   1  -5  -1  125.67    4.53
   1  -5  -1  127.05    4.93
  -1   5   1  121.57    4.18
  -1   5   1  127.74    3.12
   1  -5  -1  121.82    4.72
  -1   5   1  121.13    4.69
   1  -5  -1  121.90    4.05
  -1   5   1  121.35    3.10
   1  -5  -1  127.83    4.51
  -1   5   1  126.25    4.35
   1  -5   0  123.98    3.86
   1  -5   0  132.71    5.22
   1  -5   0  122.63    3.78
  -1   5   0  118.57    5.08
  -1   5   0  121.45    3.63
  -1   5   0  115.15    4.37
   1  -5   0  128.48    5.16
  -1   5   0  123.66    3.88
   1  -5   0  128.15    5.00
   1  -5   0  119.40    4.56
  -1   5   0  118.52    4.63
  -1   5   0  124.92    3.43
   1  -5   0  124.53    5.04
   1  -5   0  126.59    5.13
   1  -5   0  127.25    4.45
  -1   5  -1  805.60   10.66
   1  -5   1  848.14   13.76
  -1   5  -1  828.90   10.59
  -1   5  -1  817.89    9.96
   1  -5   1  831.22   13.69
  -1   5  -1  804.77   12.41
   1  -5   1  846.75   13.72
   1  -5   1  884.69   12.68
   1  -5   1  822.11   12.62
   1  -5   1  852.46    8.34
  -1   5  -1  802.09    9.61
   1  -5   1  817.71   10.13
   1  -5   1  853.30   13.50
   1  -5   2  229.18    7.42
  -1   5  -2  218.48    6.17
  -1   5  -2  227.43    5.28
   1  -5   2  229.45    7.57
  -1   5  -2  221.63    5.85
  -1   5  -2  224.26    6.88
   1  -5   2  233.16    7.70
   1  -5   2  220.07    3.85
   1  -5   2  233.39    7.46
   1  -5   2  224.31    6.56
   1  -5   2  232.03    4.68
  -1   5  -2  210.31    5.16
   1  -5   3   33.46    2.64
  -1   5  -3   34.20    2.89
   1  -5   3   36.43    3.22
   1  -5   3   34.10    3.06
   1  -5   3   34.85    3.13
   1  -5   3   31.63    2.54
   1  -5   3   32.14    3.09
   1  -5   4   65.87    4.40
   1  -5   4   70.43    4.66
  -1   5  -4   66.35    4.09
   1  -5   4   64.79    4.03
  -1   5  -4   71.59    4.26
   1  -5   4   61.30    3.42
   1  -5   4   73.99    4.77
   1  -5   4   72.37    4.80
   1  -5   5   28.11    2.29
   1  -5   5   35.09    3.57
   1  -5   5   32.64    3.51
   1  -5   5   33.86    3.09
   1  -5   5   31.21    3.31
   1  -5   5   33.10    3.18
   1  -5   5   32.06    2.20
  -1   5  -5   29.81    3.11
  -1   5  -5   33.72    3.67
   1  -5   5   30.56    3.19
   1  -5   5   30.73    3.18
  -1   5  -5   28.47    2.84
   1  -5   5   27.41    1.93
  -1   5  -5   28.15    2.88
   1  -5   6  104.51    5.47
   1  -5   6  117.40    6.70
   1  -5   6  101.52    5.52
  -1   5  -6   98.12    5.44
   1  -5   6  120.06    4.81
  -1   5  -6  116.39    6.89
   1  -5   6   97.77    4.14
   1  -5   6  120.64    5.79
   1  -5   6  109.31    3.77
  -1   5  -6  123.83    6.60
   1  -5   6  105.70    6.04
   1  -5   7    0.36    1.36
  -1   5  -7   -0.37    1.14
  -1   5  -7   -1.92    1.89
   1  -5   7    0.38    0.45
   1  -5   7    0.32    1.04
   1  -5   7    1.00    1.16
   1  -5   7    1.97    0.96
  -1   5  -7    0.04    0.43
   1  -5   7   -1.11    1.22
   1  -5   7    0.24    0.93
   1  -5   7    0.51    0.67
  -1   5  -7   -0.36    1.46
  -1   5  -8   11.83    2.17
  -1   5  -8   13.30    2.93
  -1   5  -8   12.00    2.49
   1  -5   8   10.41    1.33
   1  -5   8   11.72    2.20
   1  -5   8   32.21    4.27
   1  -5   8    7.36    1.60
  -1   5  -8   12.35    1.26
   1  -5   8   11.14    2.34
   1  -5   8   12.50    2.14
   1  -5   8   10.32    2.12
   1  -5   8   12.74    2.85
   1  -5   8   13.04    1.39
   1  -5   9    0.67    0.54
  -1   5  -9   -0.79    1.26
   1  -5   9   -3.15    1.91
  -1   5  -9   -2.06    1.87
   1  -5   9    2.34    1.31
   1  -5   9   -0.10    1.46
   1  -5   9   -3.22    1.68
   1  -5   9   -0.63    1.43
   1  -5   9    1.12    1.15
   1  -5  10   14.11    3.00
   1  -5  10   11.65    2.61
   1  -5  10   14.78    2.47
   1  -5  10   15.20    3.10
   1  -5  10   14.76    2.70
  -1   5 -10   15.73    3.10
  -1   5 -10   12.49    2.52
   1  -5  10   11.19    2.56
   1  -5  11   12.07    2.86
   1  -5  11   14.48    3.20
   1  -5  11   14.94    3.30
  -1   5 -11    9.97    2.69
   1  -5  11   12.59    2.48
  -1   5 -11   12.79    2.63
   1  -5  11    9.43    2.31
   1  -5  11   13.10    2.72
   1  -5  12   14.97    3.40
  -1   5 -12   13.28    3.44
   1  -5  12   21.25    3.74
   1  -5  12   14.54    2.86
   1  -5  12   11.60    3.25
   1  -5  12   10.92    2.84
   1  -5  12   14.46    2.95
  -1   5 -12    9.58    2.34
   1  -5  12   10.78    2.51
  -1   5 -13   11.10    2.86
   1  -5  13    3.91    2.07
   1  -5  13    8.93    2.89
   1  -4 -12    2.86    2.01
  -1   4  12    0.48    1.01
  -1   4  11   14.08    3.24
  -1   4  11   14.79    3.66
  -1   4  11   11.77    2.45
   1  -4 -11   17.85    3.31
   1  -4 -11   13.53    2.47
   1  -4 -10   12.35    2.95
  -1   4  10    9.46    2.47
  -1   4  10   13.16    2.17
   1  -4 -10    9.98    1.75
  -1   4  10   14.43    2.09
  -1   4  10   12.57    3.15
  -1   4  10    8.55    2.18
   1  -4 -10   12.29    2.27
  -1   4  10   11.40    1.88
  -1   4   9    1.66    1.82
  -1   4   9    2.63    1.22
  -1   4   9    3.24    1.19
   1  -4  -9    3.48    0.94
  -1   4   9    2.89    1.01
  -1   4   9    6.07    1.73
   1  -4  -9    2.11    0.97
  -1   4   9    2.75    1.46
   1  -4  -9    4.52    1.76
   1  -4  -9    3.84    1.35
  -1   4   8    6.02    1.47
   1  -4  -8    2.96    0.88
  -1   4   8    2.59    1.04
  -1   4   8    0.75    1.39
   1  -4  -8    2.68    0.96
  -1   4   8    4.87    2.02
  -1   4   8    2.96    1.08
   1  -4  -8    3.29    1.25
   1  -4  -8    3.42    1.17
  -1   4   8    3.25    1.10
   1  -4  -8    2.99    0.90
   1  -4  -8    3.26    1.13
  -1   4   7  440.97   13.43
   1  -4  -7  405.33    9.47
   1  -4  -7  445.40    9.72
  -1   4   7  444.93    9.88
  -1   4   7  436.78    7.69
  -1   4   7  443.17   11.86
   1  -4  -7  444.28    9.36
   1  -4  -7  438.10    9.76
   1  -4  -7  431.67    7.77
   1  -4  -7  439.13    8.99
  -1   4   7  471.44   10.84
  -1   4   7  473.10   14.15
   1  -4  -6  287.42    7.36
  -1   4   6  298.30   10.59
   1  -4  -6  271.45    5.83
  -1   4   6  282.18    7.24
  -1   4   6  288.52   10.06
  -1   4   6  274.58    8.92
  -1   4   6  282.57    5.92
   1  -4  -6  274.88    8.65
  -1   4   6  297.72    8.42
   1  -4  -6  280.98    7.02
  -1   4   6  293.73    7.10
  -1   4   6  287.78    7.15
   1  -4  -6  281.89    6.52
   1  -4  -6  270.92    7.61
  -1   4   6  275.98    7.10
  -1   4   5  177.66    6.74
  -1   4   5  188.21    5.06
  -1   4   5  203.93    6.69
   1  -4  -5  182.00    6.68
  -1   4   5  186.07    7.82
   1  -4  -5  194.58    7.93
   1  -4  -5  185.74    6.65
  -1   4   5  180.90    5.29
   1  -4  -5  187.18    7.81
   1  -4  -5  178.89    6.68
   1  -4  -5  181.99    5.56
   1  -4  -5  180.89    7.63
  -1   4   5  182.51    5.55
  -1   4   5  176.86    6.69
   1  -4  -5  184.16    4.68
   1  -4  -5  176.56    4.49
   1  -4  -5  194.86    7.17
  -1   4   5  176.09    7.31
   1  -4  -5  174.49    5.96
   1  -4  -5  186.11    7.69
   1  -4  -5  177.70    5.26
  -1   4   5  173.53    5.36
   1  -4  -5  182.43    5.47
  -1   4   4  372.81    7.27
   1  -4  -4  365.79    7.41
   1  -4  -4  359.99    7.41
   1  -4  -4  377.38    8.99
  -1   4   4  362.17    8.88
  -1   4   4  365.16    4.91
   1  -4  -4  395.72   10.44
   1  -4  -4  372.65   10.33
  -1   4   4  368.88    9.56
  -1   4   4  370.99    7.56
  -1   4   4  371.15    8.72
  -1   4   4  363.68    7.40
   1  -4  -4  375.07    8.64
   1  -4  -4  345.52    6.05
   1  -4  -4  359.02    6.47
   1  -4  -4  361.91    8.31
  -1   4   4  378.76   10.35
  -1   4   4  368.92    9.08
   1  -4  -4  357.94    7.16
   1  -4  -4  368.77    5.72
   1  -4  -4  380.49    9.41
  -1   4   4  366.18    6.04
   1  -4  -3  216.10    6.79
  -1   4   3  208.48    6.44
   1  -4  -3  213.32    4.69
  -1   4   3  222.70    5.66
   1  -4  -3  233.59    7.24
   1  -4  -3  211.79    5.52
   1  -4  -3  221.41    5.69
   1  -4  -3  223.24    7.58
  -1   4   3  224.93    4.56
  -1   4   3  218.91    5.49
  -1   4   3  216.00    3.86
  -1   4   3  207.60    6.42
  -1   4   3  219.45    5.76
   1  -4  -3  215.96    5.43
   1  -4  -3  211.32    3.70
  -1   4   3  213.43    6.61
   1  -4  -3  216.77    6.38
   1  -4  -3  214.90    4.95
   1  -4  -2  264.74    5.53
   1  -4  -2  277.04    6.94
   1  -4  -2  269.06    6.07
   1  -4  -2  269.21    6.16
  -1   4   2  265.76    5.58
  -1   4   2  259.13    6.59
   1  -4  -2  273.50    5.99
   1  -4  -2  264.91    3.52
  -1   4   2  270.99    6.12
   1  -4  -2  270.89    5.99
   1  -4  -2  259.93    5.17
  -1   4   2  264.44    6.30
   1  -4  -2  269.42    6.90
  -1   4   2  253.82    6.75
  -1   4   2  273.27    6.41
   1  -4  -2  277.64    7.12
   1  -4  -2  264.84    6.01
  -1   4   2  275.45    6.28
  -1   4   2  262.63    3.73
   1  -4  -2  256.57    7.68
  -1   4   2  260.75    6.62
   1  -4  -1  176.99    5.12
  -1   4   1  186.30    5.04
  -1   4   1  189.74    5.47
   1  -4  -1  190.80    5.04
  -1   4   1  199.80    5.43
  -1   4   1  188.81    5.00
   1  -4  -1  183.57    5.19
  -1   4   1  194.00    5.42
  -1   4   1  199.26    5.40
   1  -4  -1  195.91    5.35
   1  -4  -1  183.05    5.62
  -1   4   1  191.11    3.12
  -1   4   1  182.24    3.13
   1  -4  -1  190.43    4.80
   1  -4  -1  182.42    5.05
  -1   4   1  178.26    4.75
   1  -4  -1  186.97    4.71
  -1   4   1  191.04    4.80
  -1   4   1  184.78    5.71
   1  -4   0  772.63    9.93
   1  -4   0  761.66   11.14
  -1   4   0  770.02   11.63
   1  -4   0  759.00    9.03
  -1   4   0  737.06    9.54
  -1   4   0  763.70    7.40
  -1   4   0  772.90   10.31
   1  -4   0  772.74    8.79
   1  -4   0  745.22   11.08
  -1   4   0  765.11    7.77
   1  -4   0  755.57   10.08
  -1   4   0  775.35   10.91
   1  -4   0  757.59   11.13
  -1   4   0  763.64   11.13
  -1   4   0  780.75   11.60
   1  -4   0  805.65   11.35
  -1   4   0  766.03    8.92
  -1   4   0  759.28   11.30
   1  -4   0  782.03   11.02
   1  -4   1  116.93    4.77
   1  -4   1  127.99    3.59
   1  -4   1  132.29    3.27
   1  -4   1  120.90    4.75
  -1   4  -1  132.64    4.55
  -1   4  -1  132.95    5.19
   1  -4   1  127.32    4.81
   1  -4   1  131.88    4.60
   1  -4   1  130.71    4.86
  -1   4  -1  131.51    3.67
  -1   4  -1  131.10    3.72
  -1   4  -1  127.74    4.99
  -1   4  -1  124.47    3.60
   1  -4   1  137.31    4.58
  -1   4  -1  123.19    3.80
   1  -4   2  184.95    3.75
   1  -4   2  164.57    4.99
  -1   4  -2  177.40    5.55
   1  -4   2  173.79    5.14
   1  -4   2  183.82    6.24
  -1   4  -2  177.99    4.53
   1  -4   2  189.39    6.24
  -1   4  -2  187.75    5.27
   1  -4   2  177.52    6.23
   1  -4   3  205.96    7.19
   1  -4   3  198.64    6.83
   1  -4   3  199.47    6.17
  -1   4  -3  198.91    6.16
   1  -4   3  188.06    6.61
   1  -4   3  195.06    6.88
  -1   4  -3  212.52    6.25
   1  -4   3  189.42    5.43
   1  -4   4  675.70   12.79
   1  -4   4  696.12    8.10
   1  -4   4  703.98   13.99
   1  -4   4  702.72   13.64
   1  -4   4  671.53   10.04
  -1   4  -4  707.82   12.29
   1  -4   4  690.49   12.54
   1  -4   5  417.19    6.21
   1  -4   5  408.58    7.79
  -1   4  -5  428.17   10.14
   1  -4   5  427.78    9.71
   1  -4   5  427.59   11.57
  -1   4  -5  404.74    9.84
   1  -4   5  420.19   11.42
   1  -4   5  386.33   10.24
   1  -4   5  445.34   10.33
   1  -4   5  412.61   11.11
   1  -4   5  407.74    8.34
   1  -4   5  396.17    9.41
   1  -4   5  428.26   10.71
  -1   4  -5  390.79    3.47
  -1   4  -5  428.72   10.64
  -1   4  -6  137.40    6.11
   1  -4   6  157.56    6.52
  -1   4  -6  141.69    3.53
   1  -4   6  153.42    3.92
   1  -4   6  150.81    5.73
   1  -4   6  156.76    7.36
   1  -4   6  148.34    7.20
   1  -4   6  148.24    7.09
  -1   4  -6  155.16    6.42
   1  -4   6  148.60    6.17
  -1   4  -6  158.98    7.62
   1  -4   6  139.13    6.59
   1  -4   6  138.12    6.45
   1  -4   6  158.29    6.31
   1  -4   6  143.57    4.62
   1  -4   6  145.45    5.93
  -1   4  -6  162.26    7.03
   1  -4   7   98.05    5.18
   1  -4   7  109.13    6.45
   1  -4   7  107.91    5.57
  -1   4  -7  110.19    5.58
  -1   4  -7  100.15    3.24
   1  -4   7   97.34    5.15
   1  -4   7  113.89    6.26
   1  -4   7  103.68    3.43
   1  -4   7   98.08    3.79
   1  -4   7  107.82    5.60
   1  -4   7   98.29    5.76
  -1   4  -7  103.63    5.46
  -1   4  -7  106.77    6.20
  -1   4  -8   40.48    3.71
  -1   4  -8   38.90    2.20
   1  -4   8   39.80    3.92
   1  -4   8   39.29    3.53
   1  -4   8   43.76    3.85
  -1   4  -8   38.07    4.06
   1  -4   8   47.80    4.59
   1  -4   8   42.50    3.77
   1  -4   8   38.18    3.52
   1  -4   8   36.49    3.75
   1  -4   8   37.79    2.34
   1  -4   9   78.49    5.46
   1  -4   9   72.30    6.00
   1  -4   9   60.01    4.92
   1  -4   9   72.30    4.92
   1  -4   9   71.11    5.20
   1  -4   9   77.79    5.78
   1  -4   9   76.23    3.09
   1  -4   9   68.33    5.03
   1  -4   9   69.45    3.00
  -1   4  -9   68.56    5.00
  -1   4  -9   81.87    6.23
  -1   4  -9   69.03    3.15
   1  -4   9   73.87    5.89
   1  -4  10  120.41    6.99
   1  -4  10  109.66    3.44
   1  -4  10  129.88    8.16
   1  -4  10  116.85    7.52
   1  -4  10  150.20    8.02
   1  -4  10   99.56    6.59
   1  -4  10  117.44    7.98
   1  -4  10  122.01    6.93
  -1   4 -10  112.53    6.65
  -1   4 -10  126.07    8.15
   1  -4  11   18.46    3.33
   1  -4  11   18.72    3.12
  -1   4 -11   19.87    3.72
   1  -4  11   17.75    3.49
   1  -4  11   18.78    3.92
  -1   4 -11   13.86    2.51
   1  -4  11   14.76    3.09
   1  -4  11   15.12    2.81
   1  -4  11   15.89    2.73
  -1   4 -12   -0.74    1.61
   1  -4  12    1.50    1.60
   1  -4  12    3.00    1.95
   1  -4  12   -2.56    1.93
   1  -4  12   -1.58    2.04
  -1   4 -12    0.12    1.29
   1  -4  12   -4.17    2.05
   1  -4  12    0.55    1.10
   1  -4  12    3.46    2.07
  -1   4 -13   -0.20    1.33
   1  -4  13    3.00    2.36
   1  -4  13   -1.26    1.84
   1  -4  13   -1.60    1.95
   1  -4  13    3.68    2.06
  -1   3  13   -0.88    1.07
   1  -3 -13    4.77    2.33
  -1   3  12    2.53    1.78
   1  -3 -12    0.83    1.25
   1  -3 -12    1.88    1.78
  -1   3  12    1.14    1.39
  -1   3  12    3.85    2.47
  -1   3  12    2.75    1.70
   1  -3 -11    0.02    1.04
  -1   3  11    2.35    1.88
  -1   3  11    1.96    1.73
  -1   3  11   -1.50    1.41
  -1   3  11    0.72    1.04
   1  -3 -11   -0.27    1.61
   1  -3 -10    0.77    1.12
   1  -3 -10    0.37    0.65
  -1   3  10    0.58    0.92
  -1   3  10    2.76    1.56
  -1   3  10    0.23    0.98
   1  -3 -10   -1.24    1.51
   1  -3 -10   -0.18    0.66
  -1   3  10    0.41    1.41
  -1   3  10   -0.33    0.92
  -1   3  10   -0.57    0.78
  -1   3  10   -0.82    1.68
  -1   3   9    3.45    1.72
  -1   3   9    3.49    1.03
   1  -3  -9    3.46    1.09
   1  -3  -9    2.65    1.01
  -1   3   9    5.00    1.38
   1  -3  -9    2.85    0.94
  -1   3   9    2.84    1.02
   1  -3  -9    2.73    1.73
   1  -3  -9    3.61    1.27
  -1   3   9    2.74    1.18
  -1   3   9    3.30    1.31
  -1   3   9    0.34    1.22
  -1   3   9    3.36    1.69
  -1   3   9    3.85    1.31
  -1   3   9    3.68    1.38
   1  -3  -8   44.44    3.43
  -1   3   8   45.53    4.24
  -1   3   8   44.25    2.52
  -1   3   8   42.60    3.76
  -1   3   8   50.79    3.32
   1  -3  -8   44.08    4.20
   1  -3  -8   41.78    2.50
   1  -3  -8   42.96    2.93
   1  -3  -8   41.42    2.98
  -1   3   8   42.64    4.44
  -1   3   8   43.68    4.67
  -1   3   8   43.95    3.45
  -1   3   7  173.72    5.49
   1  -3  -7  185.47    5.71
  -1   3   7  181.94    5.78
   1  -3  -7  173.93    5.64
  -1   3   7  174.53    6.33
  -1   3   7  184.12    5.89
  -1   3   7  172.10    4.62
   1  -3  -7  172.16    4.62
  -1   3   7  177.67    7.09
   1  -3  -7  174.94    7.08
   1  -3  -7  180.34    6.17
   1  -3  -7  173.91    5.70
  -1   3   7  177.54    8.51
  -1   3   7  172.13    8.21
  -1   3   7  175.79    7.44
  -1   3   6  127.14    5.94
   1  -3  -6  138.55    4.72
   1  -3  -6  128.45    4.71
  -1   3   6  134.85    3.75
   1  -3  -6  132.11    4.48
   1  -3  -6  131.26    5.81
  -1   3   6  139.47    4.67
  -1   3   6  133.65    4.45
   1  -3  -6  136.23    6.69
  -1   3   6  128.08    5.74
   1  -3  -6  146.04    6.35
   1  -3  -6  137.29    6.67
   1  -3  -6  128.84    3.68
   1  -3  -6  140.68    6.17
  -1   3   6  139.62    5.06
  -1   3   6  132.95    6.76
   1  -3  -6  153.31    7.27
   1  -3  -6  142.66    5.98
   1  -3  -6  141.62    6.08
   1  -3  -6  140.95    6.85
   1  -3  -6  129.25    4.76
  -1   3   6  133.21    6.64
  -1   3   6  139.37    4.73
   1  -3  -5   68.07    3.04
   1  -3  -5   71.47    4.58
  -1   3   5   64.79    2.84
  -1   3   5   66.26    4.05
   1  -3  -5   71.55    3.41
   1  -3  -5   74.28    4.58
   1  -3  -5   68.35    2.49
   1  -3  -5   71.91    4.65
   1  -3  -5   75.46    4.10
  -1   3   5   72.57    2.54
   1  -3  -5   71.25    3.14
   1  -3  -5   68.66    3.89
   1  -3  -5   69.56    4.50
  -1   3   5   64.21    4.29
   1  -3  -5   71.17    3.03
  -1   3   5   65.66    2.96
   1  -3  -5   69.92    4.12
  -1   3   5   65.74    3.82
  -1   3   5   62.82    3.88
  -1   3   5   69.15    3.13
  -1   3   5   65.80    3.08
  -1   3   4   62.44    3.86
  -1   3   4   60.59    3.50
   1  -3  -4   59.20    2.30
  -1   3   4   58.56    2.54
  -1   3   4   60.33    3.46
  -1   3   4   57.84    2.60
   1  -3  -4   61.96    2.65
   1  -3  -4   59.29    2.17
   1  -3  -4   59.90    3.94
   1  -3  -4   58.80    2.55
   1  -3  -4   59.22    3.07
   1  -3  -4   59.38    2.45
  -1   3   4   61.32    3.18
   1  -3  -4   57.19    2.64
   1  -3  -4   62.62    3.93
  -1   3   4   61.94    2.48
  -1   3   4   56.23    2.66
   1  -3  -3  755.44    8.88
  -1   3   3  783.50    6.77
  -1   3   3  769.67   11.38
  -1   3   3  777.74    8.86
  -1   3   3  762.00   11.86
   1  -3  -3  788.93    7.46
  -1   3   3  758.58   10.61
  -1   3   3  769.39    9.01
  -1   3   3  779.00   11.32
   1  -3  -3  764.48    8.88
  -1   3   3  763.43    8.59
  -1   3   3  783.37    6.97
   1  -3  -3  756.96   12.06
   1  -3  -3  780.25   11.51
   1  -3  -3  782.51   10.83
   1  -3  -3  733.71   10.39
   1  -3  -3  789.73   13.05
   1  -3  -3  761.75    8.52
   1  -3  -3  737.89    7.56
   1  -3  -3  771.50    6.52
   1  -3  -2  927.07   11.30
  -1   3   2  935.06   11.68
  -1   3   2  922.43    9.74
  -1   3   2  953.57    8.83
  -1   3   2  940.65   11.37
   1  -3  -2  935.40    9.47
   1  -3  -2  897.55    5.23
   1  -3  -2  939.29    9.25
  -1   3   2  968.64   11.08
   1  -3  -2  935.88    9.11
  -1   3   2  943.68   11.79
   1  -3  -2  959.11   10.80
  -1   3   2  931.82    5.37
   1  -3  -2  969.47   13.44
   1  -3  -2  965.69   11.92
  -1   3   2  948.52    9.49
   1  -3  -2  958.29    8.20
  -1   3   2  934.72    9.65
   1  -3  -2  937.97    8.56
   1  -3  -2  941.49    9.66
   1  -3  -1  575.83    7.48
  -1   3   1  568.72    8.15
   1  -3  -1  579.50    8.73
   1  -3  -1  612.53    8.05
   1  -3  -1  594.16    8.22
   1  -3  -1  582.54    7.70
  -1   3   1  560.57    7.85
  -1   3   1  589.57    7.87
   1  -3  -1  564.36    7.57
  -1   3   1  576.84    7.11
  -1   3   1  563.29    7.66
  -1   3   1  574.96    8.97
  -1   3   1  573.71    7.63
  -1   3   1  596.36    8.08
   1  -3  -1  568.79    7.70
  -1   3   1  546.98    7.92
   1  -3  -1  575.49    7.03
  -1   3   0  158.68    3.85
  -1   3   0  146.92    3.01
   1  -3   0  159.50    3.98
  -1   3   0  158.38    4.73
  -1   3   0  150.41    4.50
   1  -3   0  162.56    4.45
   1  -3   0  169.43    3.92
   1  -3   0  137.46    4.57
  -1   3   0  158.34    2.87
   1  -3   0  155.24    3.79
   1  -3   0  163.50    4.41
  -1   3   0  160.78    4.18
   1  -3   0  155.66    3.99
   1  -3   0  154.38    4.46
  -1   3   0  147.67    3.68
   1  -3   0  160.30    3.83
  -1   3   0  157.29    4.39
   1  -3   0  152.42    4.45
  -1   3   0  159.64    4.32
   1  -3   1    2.63    0.78
   1  -3   1    2.14    0.94
   1  -3   1    2.36    0.94
   1  -3   1    2.51    0.65
   1  -3   1    3.40    1.05
   1  -3   1    1.89    0.93
   1  -3   1    1.59    0.93
  -1   3  -1    2.62    0.78
  -1   3  -1    1.78    0.93
  -1   3  -1    2.12    0.60
  -1   3  -1    2.47    0.79
  -1   3  -2   37.59    1.50
  -1   3  -2   32.56    2.31
  -1   3  -2   32.29    2.15
   1  -3   2   31.13    2.15
   1  -3   2   30.98    2.64
   1  -3   2   35.32    2.65
   1  -3   2   32.36    2.47
   1  -3   2   33.11    2.22
   1  -3   3 3061.06   25.38
   1  -3   3 2880.69   24.26
   1  -3   3 3016.22   13.54
  -1   3  -3 3028.06   22.13
   1  -3   3 3076.74   23.22
   1  -3   3 2924.68   24.45
  -1   3  -3 3083.55   12.52
   1  -3   4    3.86    1.09
   1  -3   4    3.70    0.55
   1  -3   4    2.89    0.98
   1  -3   4    4.35    1.32
  -1   3  -4    3.30    1.06
   1  -3   4    5.33    1.46
  -1   3  -4    3.99    1.07
   1  -3   4    3.89    1.16
  -1   3  -4    3.63    0.47
  -1   3  -5  211.24    6.67
   1  -3   5  195.89    7.46
   1  -3   5  212.42    7.42
   1  -3   5  219.89    6.51
   1  -3   5  215.79    3.91
   1  -3   5  200.43    6.37
   1  -3   5  202.80    6.13
   1  -3   5  209.76    6.68
  -1   3  -5  192.10    6.48
   1  -3   5  189.12    6.59
  -1   3  -5  206.50    3.65
   1  -3   6    1.62    1.09
   1  -3   6    3.56    1.23
   1  -3   6    2.31    1.35
   1  -3   6    3.39    0.64
   1  -3   6    5.81    1.67
   1  -3   6    2.12    0.98
   1  -3   6    2.64    0.98
   1  -3   6    2.80    1.50
   1  -3   6    2.55    1.23
   1  -3   6    2.56    1.26
  -1   3  -6    2.06    0.84
   1  -3   6    1.62    1.08
  -1   3  -6    2.95    0.59
  -1   3  -6    3.74    1.41
  -1   3  -6    2.14    1.06
   1  -3   7  128.22    5.73
   1  -3   7  134.56    6.25
   1  -3   7  130.74    6.72
  -1   3  -7  120.08    5.73
  -1   3  -7  125.67    3.74
   1  -3   7  130.26    5.63
   1  -3   7  125.87    6.18
   1  -3   7  129.93    6.04
  -1   3  -7  133.20    5.78
   1  -3   7  133.71    5.91
   1  -3   7  139.83    6.10
  -1   3  -7  132.07    6.73
  -1   3  -8   37.44    2.48
   1  -3   8   38.87    3.53
   1  -3   8   36.92    3.24
   1  -3   8   36.83    3.67
   1  -3   8   41.65    4.11
   1  -3   8   36.93    2.17
  -1   3  -8   36.87    3.13
   1  -3   8   39.92    3.96
   1  -3   8   33.51    3.21
   1  -3   8   36.37    3.41
   1  -3   8   37.02    3.64
  -1   3  -8   33.80    3.22
  -1   3  -8   34.55    2.17
  -1   3  -8   34.36    3.78
  -1   3  -9    0.53    1.46
   1  -3   9    4.05    1.86
  -1   3  -9    1.69    1.14
  -1   3  -9    1.81    0.78
   1  -3   9    3.83    1.52
   1  -3   9    0.10    1.24
   1  -3   9    3.52    1.73
   1  -3   9   -0.53    0.99
   1  -3   9    2.07    1.20
   1  -3   9    0.96    1.34
   1  -3   9    2.60    0.66
   1  -3   9    0.90    1.09
  -1   3 -10   40.24    4.58
   1  -3  10   34.93    1.97
  -1   3 -10   34.23    3.63
   1  -3  10   36.51    4.31
   1  -3  10   38.24    4.26
   1  -3  10   30.72    3.50
   1  -3  10   34.03    4.12
   1  -3  10   39.22    3.94
   1  -3  10   36.82    4.35
   1  -3  10   39.28    3.90
   1  -3  11    2.92    1.49
   1  -3  11    3.53    1.94
   1  -3  11   -0.44    1.33
  -1   3 -11    1.05    1.23
   1  -3  11    0.19    1.33
  -1   3 -11    1.21    1.80
   1  -3  11   -0.68    1.15
   1  -3  11    0.58    1.46
   1  -3  11    0.02    1.58
   1  -3  12    2.78    2.02
   1  -3  12    0.92    1.72
   1  -3  12   -2.56    1.49
   1  -3  12    0.00    1.15
   1  -3  12   -2.85    1.81
   1  -3  12   -3.02    1.97
  -1   3 -12   -0.49    1.53
  -1   3 -12   -0.69    1.48
   1  -3  12    0.91    2.06
   1  -3  13   -0.41    1.58
  -1   3 -13    0.43    1.41
   1  -3  13    5.41    2.47
   1  -3  13    2.51    2.02
   1  -3  13    1.33    1.62
   1  -3  14   -1.17    1.88
   1  -2 -13   -0.62    1.25
  -1   2  13    2.94    2.14
   1  -2 -13    0.69    1.93
   1  -2 -12    3.51    1.68
  -1   2  12    7.30    2.44
  -1   2  12    9.17    2.35
  -1   2  12    6.97    2.55
  -1   2  12    3.31    1.69
   1  -2 -12    8.35    2.49
   1  -2 -11   -2.57    1.52
  -1   2  11   -0.84    0.99
  -1   2  11    1.32    1.54
  -1   2  11   -2.72    1.87
  -1   2  11   -0.01    0.96
  -1   2  11    0.55    1.05
   1  -2 -11   -0.78    1.65
  -1   2  11    1.48    1.33
  -1   2  11   -0.09    1.47
  -1   2  10    2.92    1.16
  -1   2  10    1.21    1.34
  -1   2  10    2.85    1.88
  -1   2  10    2.70    1.35
   1  -2 -10    2.96    0.91
   1  -2 -10    3.62    1.34
  -1   2  10    3.86    1.25
   1  -2 -10    3.56    1.92
  -1   2  10    2.59    1.08
  -1   2  10    1.18    1.48
  -1   2   9   14.53    2.32
  -1   2   9   14.47    2.26
  -1   2   9   13.65    2.89
  -1   2   9   15.57    1.70
   1  -2  -9   13.61    2.54
  -1   2   9   13.50    2.76
  -1   2   9   16.98    2.79
  -1   2   9   17.52    2.20
   1  -2  -9   14.52    1.68
   1  -2  -9   16.00    2.01
   1  -2  -9   13.72    2.33
   1  -2  -9   14.14    1.63
  -1   2   8    8.74    1.70
   1  -2  -8    5.78    1.49
  -1   2   8    6.77    1.06
  -1   2   8    7.39    2.15
  -1   2   8    8.70    1.52
   1  -2  -8    8.64    1.48
  -1   2   8    8.28    1.32
   1  -2  -8    8.53    1.25
  -1   2   8    7.19    1.60
  -1   2   8    6.56    1.74
  -1   2   8    6.66    2.09
   1  -2  -8    8.01    2.02
   1  -2  -8    7.33    1.13
  -1   2   7   13.80    2.32
   1  -2  -7   16.49    1.64
  -1   2   7   14.61    1.68
   1  -2  -7   15.16    2.23
   1  -2  -7   14.22    1.61
  -1   2   7   15.70    2.70
  -1   2   7   15.96    1.68
  -1   2   7   14.93    1.59
   1  -2  -7   14.51    2.43
   1  -2  -7   13.68    1.33
  -1   2   7   15.78    2.63
  -1   2   7   16.47    2.16
  -1   2   7   14.35    1.83
  -1   2   7   15.62    1.76
  -1   2   7   14.68    1.92
  -1   2   7   13.02    1.29
   1  -2  -7   15.21    1.95
   1  -2  -7   18.17    2.47
   1  -2  -7   12.67    2.17
   1  -2  -7   16.64    2.16
  -1   2   6  120.65    3.97
  -1   2   6  117.01    5.49
  -1   2   6  116.50    4.04
   1  -2  -6  121.21    5.55
  -1   2   6  129.52    6.40
  -1   2   6  119.36    4.10
   1  -2  -6  115.43    3.91
  -1   2   6  119.38    5.09
   1  -2  -6  117.50    5.43
   1  -2  -6  119.40    3.40
  -1   2   6  118.66    5.99
   1  -2  -6  115.98    3.98
   1  -2  -6  117.32    5.69
  -1   2   6  110.90    3.23
   1  -2  -6  117.68    5.97
   1  -2  -6  111.79    5.21
  -1   2   6  118.88    4.13
   1  -2  -6  122.27    5.59
   1  -2  -6  123.33    4.68
   1  -2  -6  120.65    6.10
   1  -2  -6  119.99    5.93
  -1   2   6  117.72    4.77
   1  -2  -6  115.67    5.15
  -1   2   5   35.47    2.18
   1  -2  -5   36.76    3.15
   1  -2  -5   38.74    2.04
  -1   2   5   36.27    1.65
   1  -2  -5   37.52    2.10
  -1   2   5   34.87    2.02
  -1   2   5   37.84    3.20
  -1   2   5   35.89    2.02
  -1   2   5   38.60    2.97
   1  -2  -5   33.76    2.06
   1  -2  -5   37.42    1.71
  -1   2   5   35.79    2.62
   1  -2  -5   35.90    3.09
  -1   2   5   35.07    1.97
   1  -2  -5   39.05    2.36
  -1   2   5   37.39    2.42
   1  -2  -4  309.21    5.53
  -1   2   4  317.73    7.17
  -1   2   4  314.90    7.55
  -1   2   4  312.91    7.51
   1  -2  -4  312.10    7.40
   1  -2  -4  313.68    8.17
  -1   2   4  314.20    6.11
  -1   2   4  303.81    7.95
  -1   2   4  317.69    4.95
   1  -2  -4  323.48    6.11
   1  -2  -4  334.88    4.27
  -1   2   4  322.94    5.35
  -1   2   4  316.61    5.81
  -1   2   4  313.68    4.14
   1  -2  -4  325.60    5.30
   1  -2  -4  316.18    8.33
  -1   2   4  315.09    5.14
   1  -2  -4  311.28    5.08
   1  -2  -3  154.67    5.38
  -1   2   3  152.60    4.80
   1  -2  -3  152.70    4.07
  -1   2   3  148.72    5.02
  -1   2   3  152.44    3.25
  -1   2   3  151.62    4.79
  -1   2   3  152.04    3.06
  -1   2   3  148.09    2.26
  -1   2   3  152.15    4.14
   1  -2  -3  151.20    3.11
   1  -2  -3  156.80    5.20
   1  -2  -3  153.06    3.01
   1  -2  -3  149.15    3.15
  -1   2   3  152.45    3.20
   1  -2  -3  146.13    2.99
  -1   2   3  160.08    3.16
  -1   2   3  153.63    4.62
   1  -2  -3  154.47    2.55
  -1   2   2   38.42    1.47
  -1   2   2   34.68    2.21
  -1   2   2   34.47    2.09
  -1   2   2   36.71    1.53
   1  -2  -2   38.50    2.06
   1  -2  -2   35.08    1.41
   1  -2  -2   39.41    2.49
  -1   2   2   36.84    1.50
  -1   2   2   35.77    2.32
  -1   2   2   33.34    1.35
   1  -2  -2   38.04    1.23
  -1   2   2   39.56    2.06
   1  -2  -2   39.48    1.53
   1  -2  -2   35.05    1.42
   1  -2  -2   37.06    1.49
  -1   2   2   35.58    2.11
   1  -2  -2   35.75    1.26
  -1   2   1  184.52    3.62
  -1   2   1  176.73    3.62
   1  -2  -1  194.61    4.34
   1  -2  -1  178.16    3.65
  -1   2   1  178.37    4.47
  -1   2   1  182.01    4.26
  -1   2   1  181.88    3.56
   1  -2  -1  185.93    3.38
   1  -2  -1  188.47    4.34
  -1   2   1  188.70    4.00
   1  -2  -1  184.29    3.45
   1  -2  -1  183.19    3.48
  -1   2   1  190.69    4.04
  -1   2   1  189.93    3.23
   1  -2  -1  184.46    3.16
  -1   2   1  186.22    3.48
  -1   2   0   24.55    1.29
  -1   2   0   24.94    1.58
   1  -2   0   24.27    1.48
   1  -2   0   24.89    1.68
  -1   2   0   26.79    1.77
  -1   2   0   25.75    1.53
   1  -2   0   25.74    1.60
  -1   2   0   25.43    1.82
  -1   2   0   22.54    1.37
   1  -2   0   20.54    1.58
   1  -2   0   26.15    1.29
   1  -2   0   26.89    1.60
   1  -2   0   26.04    1.64
   1  -2   0   25.25    1.10
  -1   2   0   23.06    1.08
   1  -2   1   88.59    3.28
  -1   2  -1   89.32    2.96
  -1   2  -1   88.29    2.40
   1  -2   1   92.47    2.50
   1  -2   1   87.28    3.10
   1  -2   1   86.25    3.15
  -1   2  -1   83.66    2.60
  -1   2  -1   83.37    1.72
   1  -2   1   82.53    2.65
   1  -2   2  419.63    7.21
   1  -2   2  406.73    7.83
  -1   2  -2  382.52    6.75
   1  -2   2  409.59    7.01
   1  -2   3 1130.47   14.50
   1  -2   3 1134.87   10.96
   1  -2   3 1166.10   10.95
  -1   2  -3 1141.56   12.68
   1  -2   3 1128.56   12.64
  -1   2  -3 1150.71   14.32
  -1   2  -3 1140.86    5.36
   1  -2   3 1150.49   13.50
  -1   2  -4   60.68    1.87
  -1   2  -4   55.22    3.46
  -1   2  -4   54.64    1.63
   1  -2   4   54.61    3.12
   1  -2   4   55.31    2.70
   1  -2   4   62.03    2.96
  -1   2  -4   54.29    3.08
   1  -2   4   53.14    3.50
   1  -2   4   59.66    2.90
  -1   2  -4   61.08    3.19
   1  -2   4   54.20    3.39
  -1   2  -5  178.89    3.60
  -1   2  -5  189.19    3.92
   1  -2   5  182.72    6.90
  -1   2  -5  204.12    6.00
   1  -2   5  184.43    6.67
   1  -2   5  182.35    5.34
   1  -2   5  180.51    5.47
   1  -2   5  192.55    6.40
  -1   2  -5  175.39    5.84
  -1   2  -5  188.22    6.80
   1  -2   5  185.53    5.68
   1  -2   5  178.74    5.83
   1  -2   6  192.64    6.19
  -1   2  -6  206.35    4.80
  -1   2  -6  192.73    4.38
   1  -2   6  202.16    7.47
   1  -2   6  200.41    7.58
   1  -2   6  201.71    6.50
   1  -2   6  197.26    6.49
  -1   2  -6  207.28    6.33
   1  -2   6  193.98    7.32
   1  -2   6  200.26    6.61
   1  -2   6  195.86    6.90
  -1   2  -6  199.77    7.48
  -1   2  -6  187.95    6.48
   1  -2   6  197.72    6.06
   1  -2   6  183.66    7.46
   1  -2   6  199.92    7.61
   1  -2   7  375.20    9.60
   1  -2   7  367.07    9.33
   1  -2   7  369.89   11.25
  -1   2  -7  391.59    9.03
   1  -2   7  350.32   10.02
  -1   2  -7  386.93   11.11
   1  -2   7  363.51    8.80
   1  -2   7  375.53    9.72
   1  -2   7  365.58    6.60
  -1   2  -7  374.56    7.25
   1  -2   7  358.47    9.10
   1  -2   7  379.53   10.97
  -1   2  -7  363.47    6.77
  -1   2  -7  356.21    9.44
   1  -2   7  364.87   10.69
  -1   2  -7  370.41   11.19
   1  -2   7  363.52   10.92
  -1   2  -8   31.38    3.10
   1  -2   8   34.54    3.06
   1  -2   8   33.59    3.55
   1  -2   8   33.74    3.26
  -1   2  -8   30.79    2.20
   1  -2   8   30.79    2.97
   1  -2   8   35.07    3.78
   1  -2   8   31.77    1.97
   1  -2   8   33.26    3.69
   1  -2   8   29.02    3.18
  -1   2  -8   32.02    2.42
  -1   2  -8   30.33    2.72
  -1   2  -8   30.77    3.57
   1  -2   9   62.65    5.19
   1  -2   9   54.34    4.25
  -1   2  -9   63.93    4.05
   1  -2   9   65.81    2.84
   1  -2   9   73.70    5.10
  -1   2  -9   66.97    3.72
  -1   2  -9   74.61    5.76
   1  -2   9   60.13    5.24
   1  -2   9   63.18    4.51
   1  -2   9   69.73    5.79
  -1   2  -9   57.93    4.39
   1  -2   9   68.10    5.22
   1  -2   9   63.23    5.11
  -1   2 -10    3.41    1.80
   1  -2  10    3.01    1.77
   1  -2  10    3.27    1.56
   1  -2  10    5.89    2.37
   1  -2  10    3.81    1.84
  -1   2 -10    3.52    1.52
   1  -2  10    1.83    1.57
   1  -2  10    2.14    1.01
   1  -2  10    4.38    1.40
   1  -2  10    4.81    1.97
   1  -2  11    8.72    2.57
   1  -2  11    8.56    2.53
  -1   2 -11    8.25    2.12
   1  -2  11    6.01    1.68
   1  -2  11    9.44    2.62
   1  -2  11   11.12    3.15
  -1   2 -11    7.34    2.30
   1  -2  11    5.57    2.07
  -1   2 -12    1.03    1.48
   1  -2  12    0.30    1.58
   1  -2  12    2.80    2.94
  -1   2 -12    0.56    1.13
   1  -2  12    6.90    2.30
   1  -2  12    2.26    2.14
   1  -2  12   -1.02    1.30
   1  -2  13   -0.77    1.57
   1  -2  13   -3.95    2.31
  -1   2 -13    2.40    1.30
   1  -2  13    0.57    1.32
   1  -2  13    2.12    1.97
   1  -2  14   -0.66    1.81
   1  -2  14   -1.86    2.31
   1  -2  14   -1.14    2.22
   1  -1 -14    1.90    2.02
   1  -1 -14    5.89    2.28
   1  -1 -13   19.34    3.47
  -1   1  13   26.72    4.48
   1  -1 -13   25.23    3.86
  -1   1  13   30.11    4.43
  -1   1  13   32.27    5.30
   1  -1 -12   16.22    3.22
  -1   1  12   12.59    2.90
   1  -1 -12   12.23    2.53
  -1   1  12   14.68    3.23
  -1   1  12   14.68    3.64
  -1   1  11    0.80    0.91
  -1   1  11    0.23    1.62
  -1   1  11    1.93    1.18
   1  -1 -11   -0.66    1.44
  -1   1  11   -0.12    1.54
  -1   1  11   -0.12    1.59
   1  -1 -11    0.62    1.30
  -1   1  11   -0.01    0.92
   1  -1 -11    1.12    0.84
  -1   1  10   46.98    4.54
  -1   1  10   50.54    3.14
   1  -1 -10   51.08    3.27
   1  -1 -10   55.61    4.59
  -1   1  10   50.18    4.13
  -1   1  10   50.68    3.95
  -1   1  10   50.19    5.15
   1  -1 -10   53.02    4.89
  -1   1  10   54.90    3.90
  -1   1  10   53.77    4.32
  -1   1  10   51.26    5.34
  -1   1  10   56.99    4.01
   1  -1  -9   14.38    1.92
  -1   1   9   11.43    1.99
   1  -1  -9   15.97    2.48
  -1   1   9   15.85    2.58
   1  -1  -9   14.11    1.66
   1  -1  -9   28.93    3.59
  -1   1   9   15.32    2.14
  -1   1   9   16.14    2.84
  -1   1   9   13.07    2.70
   1  -1  -8    4.65    1.36
   1  -1  -8    5.28    1.90
  -1   1   8    4.27    0.71
  -1   1   8    2.96    1.20
  -1   1   8    4.07    1.27
   1  -1  -8    3.39    0.93
   1  -1  -8    4.69    0.83
  -1   1   8    4.53    1.92
  -1   1   8    7.20    1.57
  -1   1   8    5.62    2.00
   1  -1  -8    4.72    1.14
  -1   1   8    5.16    1.69
  -1   1   8    4.07    0.89
  -1   1   7    1.06    0.76
   1  -1  -7    2.37    1.17
   1  -1  -7    0.35    0.95
   1  -1  -7   -0.20    1.29
  -1   1   7    0.85    0.65
   1  -1  -7    1.76    1.16
   1  -1  -7    0.44    0.68
   1  -1  -7    0.80    0.95
  -1   1   7    0.48    0.55
   1  -1  -7    1.02    0.46
  -1   1   7    1.35    0.75
   1  -1  -7    2.02    1.08
  -1   1   7    1.48    0.50
  -1   1   7    1.99    1.30
   1  -1  -7    0.91    0.57
  -1   1   7    0.71    1.01
   1  -1  -7    2.61    1.25
  -1   1   7    0.80    0.96
  -1   1   7    1.06    1.32
  -1   1   7    2.45    1.57
  -1   1   7    1.18    0.49
   1  -1  -7    1.23    0.78
   1  -1  -7    1.10    0.77
   1  -1  -7    0.76    0.64
  -1   1   7    1.53    0.82
  -1   1   6   82.13    2.88
   1  -1  -6   78.23    2.68
   1  -1  -6   79.51    4.52
  -1   1   6   74.44    2.64
  -1   1   6   72.47    3.38
   1  -1  -6   81.79    4.33
  -1   1   6   73.25    4.26
   1  -1  -6   73.59    3.16
   1  -1  -6   77.04    4.29
  -1   1   6   73.90    3.24
   1  -1  -6   77.18    4.01
   1  -1  -6   79.40    4.80
   1  -1  -6   77.10    2.73
  -1   1   6   79.03    3.24
  -1   1   6   77.65    4.66
   1  -1  -6   72.39    4.56
   1  -1  -6   77.57    4.30
  -1   1   6   73.09    3.78
  -1   1   6   71.20    3.05
   1  -1  -6   78.60    3.89
  -1   1   6   77.52    3.94
   1  -1  -6   76.05    4.57
  -1   1   5    6.97    0.81
  -1   1   5    7.22    1.29
  -1   1   5    7.46    1.03
   1  -1  -5    7.79    1.31
  -1   1   5    5.95    0.88
  -1   1   5    7.84    0.91
   1  -1  -5    6.20    0.78
   1  -1  -5    7.61    1.44
   1  -1  -5    7.71    0.98
  -1   1   5    7.39    1.50
  -1   1   5    5.96    0.92
   1  -1  -5    6.81    1.31
  -1   1   5    7.36    1.05
  -1   1   5    6.57    1.49
   1  -1  -5    7.15    0.82
   1  -1  -5    6.36    1.43
  -1   1   5    6.98    1.20
  -1   1   4  209.46    3.08
   1  -1  -4  209.13    3.80
  -1   1   4  209.39    3.74
   1  -1  -4  217.32    6.47
   1  -1  -4  210.04    4.07
  -1   1   4  210.11    6.26
  -1   1   4  206.23    3.86
  -1   1   4  209.98    3.70
   1  -1  -4  213.62    6.39
  -1   1   4  210.28    6.38
  -1   1   4  217.26    4.25
  -1   1   4  207.62    4.90
  -1   1   4  195.16    5.70
  -1   1   4  204.52    5.35
   1  -1  -4  214.53    3.16
   1  -1  -4  217.49    5.00
  -1   1   3   46.53    2.62
  -1   1   3   46.88    2.67
   1  -1  -3   48.31    1.09
  -1   1   3   46.02    1.04
   1  -1  -3   53.15    2.09
  -1   1   3   45.93    2.36
   1  -1  -3   42.91    1.18
   1  -1  -3   49.00    2.80
   1  -1  -3   52.95    2.63
  -1   1   3   48.02    1.34
  -1   1   3   48.72    2.79
  -1   1   3   48.71    1.38
  -1   1   3   51.62    2.02
  -1   1   3   49.54    2.64
   1  -1  -3   54.93    2.05
   1  -1  -3   49.91    2.80
  -1   1   3   62.25    1.61
  -1   1   3   48.60    1.96
   1  -1  -3   49.84    1.39
   1  -1  -2  925.13   10.12
  -1   1   2  938.26    9.00
  -1   1   2  908.12    9.63
  -1   1   2  931.39    9.93
   1  -1  -2  953.81    5.92
  -1   1   2  957.54    9.41
   1  -1  -2  939.70   10.49
  -1   1   2  941.80    9.69
  -1   1   2  931.31   10.16
   1  -1  -2  904.82    7.93
   1  -1  -2  883.85    6.27
  -1   1   1  896.28    7.95
  -1   1   1  882.48    7.32
   1  -1  -1  868.90    8.26
  -1   1   1  855.66    7.72
   1  -1  -1  851.83    7.89
  -1   1   1  853.96    8.57
   1  -1  -1  884.25    4.63
  -1   1   1  879.67    4.78
  -1   1   1  872.20    8.33
   1  -1  -1  875.53    6.58
   1  -1   0 2569.81   12.86
  -1   1   0 2589.61   11.41
   1  -1   0 2682.74   10.56
  -1   1   0 2588.30   12.93
  -1   1   0 2630.26    9.74
  -1   1   0 2727.59   13.70
  -1   1   0 2648.75   10.80
   1  -1   0 2735.52   12.92
  -1   1  -1   29.66    1.77
   1  -1   1   26.61    1.57
   1  -1   1   32.38    1.88
  -1   1  -1   34.37    1.67
   1  -1   1   30.08    1.55
   1  -1   2   11.57    1.23
   1  -1   2   13.55    1.49
  -1   1  -2   11.02    1.37
   1  -1   2   11.97    0.90
  -1   1  -2   13.04    1.36
   1  -1   2   12.89    0.94
   1  -1   2   13.51    1.33
   1  -1   3  164.58    4.36
   1  -1   3  171.52    5.43
  -1   1  -3  160.22    3.74
  -1   1  -3  161.94    2.52
   1  -1   3  168.18    3.78
   1  -1   3  166.73    3.62
   1  -1   3  168.55    2.51
  -1   1  -3  168.18    2.53
   1  -1   3  160.30    3.48
  -1   1  -3  162.38    4.52
  -1   1  -3  158.83    4.42
  -1   1  -3  164.92    5.12
   1  -1   3  165.44    5.00
   1  -1   4  195.69    5.21
  -1   1  -4  201.48    3.66
   1  -1   4  199.61    4.95
   1  -1   4  199.04    4.44
  -1   1  -4  205.99    5.20
   1  -1   4  195.72    5.43
   1  -1   4  197.15    4.67
   1  -1   4  201.05    3.51
  -1   1  -4  206.84    4.79
  -1   1  -4  189.65    4.92
  -1   1  -4  201.89    5.48
  -1   1  -4  196.20    3.68
   1  -1   4  199.28    6.45
  -1   1  -4  208.50    6.38
   1  -1   4  202.46    6.31
  -1   1  -5  904.00   12.27
   1  -1   5  936.31   10.02
   1  -1   5  902.08   15.09
  -1   1  -5  945.10    9.58
   1  -1   5  908.32   13.02
  -1   1  -5  926.77   11.70
   1  -1   5  916.95   12.05
   1  -1   5  916.75   14.67
   1  -1   5  936.80    9.01
  -1   1  -5  923.39   10.84
   1  -1   5  909.38   11.48
  -1   1  -5  917.17    9.26
   1  -1   5  962.22   12.42
  -1   1  -5 1005.39   12.19
  -1   1  -5  943.35   14.70
   1  -1   5  928.92   11.03
  -1   1  -5  918.63   12.68
   1  -1   6    4.90    1.31
   1  -1   6    3.83    1.16
   1  -1   6    3.60    1.33
   1  -1   6    4.44    0.83
   1  -1   6    4.66    1.19
   1  -1   6    4.55    0.82
   1  -1   6    2.00    1.07
   1  -1   6    5.02    1.42
  -1   1  -6    5.30    1.28
  -1   1  -6    3.38    1.06
  -1   1  -6    4.04    1.05
  -1   1  -6    5.28    1.06
  -1   1  -6    4.53    1.20
   1  -1   6    4.96    1.12
  -1   1  -6    5.47    1.36
   1  -1   6    4.89    1.09
   1  -1   6    3.73    1.60
   1  -1   6    5.72    1.54
  -1   1  -6    4.01    0.85
  -1   1  -6    5.10    0.86
  -1   1  -7    3.15    1.17
   1  -1   7    3.48    1.31
  -1   1  -7    2.38    1.38
   1  -1   7    3.76    1.29
   1  -1   7    2.78    0.92
   1  -1   7    4.38    1.64
  -1   1  -7    3.84    1.09
  -1   1  -7    2.60    1.10
  -1   1  -7    2.21    1.23
   1  -1   7    3.04    1.32
   1  -1   7    3.00    1.11
   1  -1   7    2.13    1.08
   1  -1   7    2.17    1.02
  -1   1  -7    3.58    0.88
  -1   1  -7    2.56    1.11
   1  -1   7    2.76    1.02
   1  -1   7    3.36    1.51
  -1   1  -7    3.96    0.90
  -1   1  -7    3.44    1.13
   1  -1   7    3.21    0.72
   1  -1   8    4.02    1.36
  -1   1  -8    4.17    1.64
   1  -1   8    2.87    1.04
  -1   1  -8    3.97    1.42
  -1   1  -8    5.41    1.46
   1  -1   8    5.17    0.91
   1  -1   8    4.63    2.01
  -1   1  -8    2.83    1.16
  -1   1  -8    5.22    1.12
   1  -1   8    2.92    1.61
   1  -1   8    3.17    0.95
  -1   1  -8    3.77    1.38
   1  -1   8    5.72    2.04
  -1   1  -8    3.74    1.09
   1  -1   8    6.29    2.01
   1  -1   8    5.82    1.89
   1  -1   9   82.95    5.67
   1  -1   9   81.44    3.40
  -1   1  -9   80.42    5.89
   1  -1   9   88.79    6.04
  -1   1  -9   77.38    4.22
  -1   1  -9   75.81    3.95
  -1   1  -9   81.18    5.04
  -1   1  -9   83.01    4.33
   1  -1   9   68.68    4.28
  -1   1  -9   69.25    4.71
   1  -1   9   80.83    5.52
   1  -1   9   83.74    6.36
   1  -1   9   84.66    6.19
  -1   1 -10    0.02    1.34
   1  -1  10   -0.24    1.27
   1  -1  10    0.02    1.37
   1  -1  10    0.32    0.68
   1  -1  10    0.01    1.22
  -1   1 -10   -0.35    1.09
   1  -1  10    2.91    1.78
   1  -1  10   -1.55    1.63
  -1   1 -10    0.24    0.59
   1  -1  11    1.56    1.75
  -1   1 -11   -0.50    1.45
   1  -1  11    1.52    1.53
  -1   1 -11    0.26    1.17
   1  -1  11    4.45    2.25
   1  -1  11    0.30    1.32
   1  -1  11    1.12    1.69
   1  -1  12   -1.12    2.15
  -1   1 -12    2.39    1.44
   1  -1  12    0.57    1.56
   1  -1  12    3.51    2.00
   1  -1  12   -0.60    1.33
   1  -1  12   -1.78    1.66
   1  -1  12    2.62    1.75
  -1   1 -12   -1.69    1.92
  -1   1 -13    0.03    1.29
   1  -1  13   -1.81    1.62
  -1   1 -13    0.63    1.44
   1  -1  13    0.58    1.35
   1  -1  13    2.68    1.80
   1  -1  13   -0.90    1.32
   1  -1  13    2.19    1.94
   1   0 -14    1.09    1.30
   1   0 -14    0.51    1.69
   1   0 -13   18.12    3.37
  -1   0  13   14.79    3.21
  -1   0  13   21.26    4.49
   1   0 -13   16.52    3.14
  -1   0  13   21.35    4.14
  -1   0  12   -0.72    1.00
  -1   0  12    3.08    2.04
   1   0 -12   -3.14    1.70
  -1   0  12   -0.18    1.03
  -1   0  12    2.40    1.83
   1   0 -12   -1.43    1.79
  -1   0  12    2.99    1.88
  -1   0  12    1.18    1.08
   1   0 -11   13.64    2.67
  -1   0  11   16.17    2.50
  -1   0  11   11.96    2.61
   1   0 -11   11.46    1.81
  -1   0  11   13.79    2.26
  -1   0  11    9.76    2.53
  -1   0  11   13.90    2.20
   1   0 -11   15.55    2.92
  -1   0  11   11.67    3.04
   1   0 -10    4.11    1.65
  -1   0  10    2.55    1.17
  -1   0  10    1.23    0.95
   1   0 -10    2.66    1.04
  -1   0  10    4.12    1.90
  -1   0  10    2.59    1.74
  -1   0  10    3.14    1.28
  -1   0  10    3.23    1.61
  -1   0  10    3.68    1.51
  -1   0  10    3.95    1.09
  -1   0  10    3.41    1.13
   1   0 -10    2.99    1.50
   1   0  -9    7.02    1.63
   1   0  -9    5.59    1.68
  -1   0   9    8.38    1.70
  -1   0   9    7.23    1.52
  -1   0   9    4.99    1.43
   1   0  -9    6.65    0.82
  -1   0   9    6.35    1.94
   1   0  -9    6.85    1.32
  -1   0   9    6.26    2.12
  -1   0   9    5.20    1.80
   1   0  -9    7.20    2.09
  -1   0   9    8.16    2.16
  -1   0   9    4.25    1.67
   1   0  -8   31.17    1.64
   1   0  -8   30.19    2.77
   1   0  -8   28.23    2.17
  -1   0   8   27.24    3.29
  -1   0   8   29.69    3.31
  -1   0   8   33.95    2.30
  -1   0   8   30.49    2.73
   1   0  -8   31.60    2.84
   1   0  -8   29.41    2.94
  -1   0   8   26.73    3.34
  -1   0   8   28.11    3.19
  -1   0   8   25.44    3.01
   1   0  -8   30.46    3.23
   1   0  -8   27.62    2.98
  -1   0   8   29.07    2.97
  -1   0   7  106.85    4.47
   1   0  -7  100.87    4.73
  -1   0   7  107.42    4.60
   1   0  -7  104.82    4.82
  -1   0   7  108.42    5.80
   1   0  -7  108.14    5.18
   1   0  -7  104.89    5.42
   1   0  -7  103.38    5.76
   1   0  -7  105.78    5.33
   1   0  -7  107.37    5.19
   1   0  -7   99.76    5.22
   1   0  -7  112.05    3.03
   1   0  -7  109.92    5.93
  -1   0   7  107.79    5.75
  -1   0   7  103.16    4.62
  -1   0   7  110.61    3.77
  -1   0   7  104.48    5.42
  -1   0   7  108.50    4.36
   1   0  -7  105.71    5.67
  -1   0   7  109.93    6.04
  -1   0   7  107.48    5.71
   1   0  -7  104.38    3.77
  -1   0   7  103.73    5.14
   1   0  -6  418.38    5.65
  -1   0   6  374.35    8.87
  -1   0   6  402.42    7.75
  -1   0   6  376.18    9.94
   1   0  -6  394.67    8.59
  -1   0   6  388.27    6.35
   1   0  -6  429.96   10.75
  -1   0   6  400.86    7.44
  -1   0   6  386.15    9.54
   1   0  -6  379.58    9.64
   1   0  -6  381.64    9.03
  -1   0   6  389.06    9.83
   1   0  -6  415.04   10.31
  -1   0   6  376.97    8.18
   1   0  -6  393.63   10.30
  -1   0   6  382.48    8.97
   1   0  -6  383.85    4.24
   1   0  -6  400.22    6.61
   1   0  -6  396.25    9.61
   1   0  -6  422.73    9.38
  -1   0   6  372.99    7.78
   1   0  -5  251.78    6.30
  -1   0   5  256.07    5.39
  -1   0   5  256.18    5.20
   1   0  -5  257.63    7.67
   1   0  -5  258.27    6.32
  -1   0   5  240.27    6.05
   1   0  -5  283.80    6.92
  -1   0   5  250.93    7.16
   1   0  -5  257.15    4.64
   1   0  -5  286.01    4.50
  -1   0   5  243.08    6.55
  -1   0   5  248.26    7.30
  -1   0   5  259.19    5.62
  -1   0   5  255.48    4.52
  -1   0   5  240.79    6.41
   1   0  -5  249.61    6.70
  -1   0   5  244.34    6.93
   1   0  -4  649.60   10.94
   1   0  -4  669.37   10.70
  -1   0   4  669.80    7.17
   1   0  -4  667.74    5.24
  -1   0   4  647.61   10.76
  -1   0   4  629.71    7.50
  -1   0   4  668.89    9.86
  -1   0   4  654.91   10.30
  -1   0   4  692.84    6.32
   1   0  -4  650.15    6.28
  -1   0   4  644.87    9.20
  -1   0   4  650.15    8.98
   1   0  -4  668.00    9.20
  -1   0   4  654.79    7.30
   1   0  -4  666.58    9.47
  -1   0   4  645.68   10.10
   1   0  -3  517.03    7.19
   1   0  -3  555.63    4.64
   1   0  -3  525.95    5.37
  -1   0   3  535.68    7.99
   1   0  -3  543.02    4.58
  -1   0   3  555.49    8.44
  -1   0   3  538.27    5.17
  -1   0   3  527.11    5.26
  -1   0   3  546.05    8.38
  -1   0   3  536.64    7.43
   1   0  -3  520.98    8.62
  -1   0   3  525.17    8.60
  -1   0   3  550.29    4.58
   1   0  -3  527.44    8.10
  -1   0   3  527.04    7.99
  -1   0   3  530.45    6.99
  -1   0   3  526.38    5.13
   1   0  -3  526.33    7.24
  -1   0   2  703.34    8.03
   1   0  -2  699.60    6.38
  -1   0   2  683.93    7.30
  -1   0   2  675.90    8.12
  -1   0   2  690.81    8.15
  -1   0   2  726.85    8.59
   1   0  -2  680.60    8.38
   1   0  -2  664.82    7.70
   1   0  -2  633.43    7.20
  -1   0   2  712.88    7.70
  -1   0   1 2280.30    8.35
  -1   0   1 2348.55    8.23
  -1   0   1 2307.02    8.38
  -1   0   1 2306.56   11.15
  -1   0   0  981.23    5.98
   1   0   1 2685.42   14.24
  -1   0  -1 2641.46   13.33
  -1   0  -1 2602.48   14.81
  -1   0  -1 2621.49   15.17
   1   0   1 2774.13   15.31
  -1   0  -2  667.33    8.73
   1   0   2  637.44    8.59
  -1   0  -2  655.90    5.00
  -1   0  -2  649.06    6.06
   1   0   2  688.90    5.75
  -1   0  -2  655.08    4.50
  -1   0  -2  683.10    9.01
   1   0   2  657.49    7.37
   1   0   2  660.07    6.53
  -1   0  -2  690.68    7.90
   1   0   3    7.75    1.08
  -1   0  -3    1.72    0.98
  -1   0  -3    8.04    1.28
   1   0   3    8.03    0.86
   1   0   3    7.42    0.96
  -1   0  -3    7.17    1.23
   1   0   3    8.10    1.05
  -1   0  -3    8.89    0.95
  -1   0  -3    8.11    0.87
  -1   0  -3    7.49    1.14
   1   0   3    8.49    1.27
  -1   0  -3    7.18    0.99
  -1   0  -4   53.16    2.32
   1   0   4   54.31    3.39
  -1   0  -4   56.88    2.66
   1   0   4   52.98    2.25
  -1   0  -4   52.30    2.73
  -1   0  -4   54.99    2.53
  -1   0  -4   54.04    3.21
  -1   0  -4   53.72    2.85
   1   0   4   53.70    2.41
   1   0   4   52.78    2.55
   1   0   4   52.32    2.70
   1   0   4   55.08    2.85
  -1   0  -4   54.38    2.28
   1   0   4   59.23    3.40
   1   0   4   55.80    3.29
   1   0   5  269.85    7.93
   1   0   5  259.85    5.45
  -1   0  -5  246.95    5.49
  -1   0  -5  260.39    6.22
   1   0   5  270.23    8.42
  -1   0  -5  251.21    6.50
  -1   0  -5  263.48    5.81
   1   0   5  259.89    5.49
  -1   0  -5  275.46    6.04
  -1   0  -5  265.45    5.67
  -1   0  -5  261.05    7.58
  -1   0  -5  263.84    6.81
   1   0   5  256.30    6.71
   1   0   5  263.89    5.92
  -1   0  -6   51.97    2.79
   1   0   6   52.20    2.60
   1   0   6   50.47    2.82
  -1   0  -6   49.89    2.80
  -1   0  -6   50.83    2.95
   1   0   6   46.59    2.59
   1   0   6   47.93    3.28
  -1   0  -6   54.10    3.16
  -1   0  -6   52.34    3.68
  -1   0  -6   40.94    2.88
  -1   0  -6   48.56    3.13
   1   0   6   53.95    4.12
   1   0   6   49.49    3.15
   1   0   6   50.86    3.79
   1   0   6   51.98    4.13
   1   0   6   43.19    3.72
  -1   0  -6   48.02    3.32
  -1   0  -6   49.97    3.76
   1   0   6   51.26    3.70
   1   0   6   55.05    3.92
   1   0   7   39.91    3.62
  -1   0  -7   40.81    2.81
  -1   0  -7   36.27    2.95
   1   0   7   38.47    3.43
   1   0   7   36.88    2.55
  -1   0  -7   38.60    3.25
   1   0   7   39.06    3.64
  -1   0  -7   35.21    2.69
   1   0   7   38.70    2.61
  -1   0  -7   40.57    3.13
   1   0   7   39.51    3.03
   1   0   7   39.36    2.40
  -1   0  -7   41.52    3.57
   1   0   7   36.28    3.60
  -1   0  -7   42.31    2.97
   1   0   7   45.86    4.22
   1   0   7   37.75    3.23
  -1   0  -7   37.15    3.52
   1   0   7   48.10    4.18
   1   0   8   89.11    4.09
   1   0   8   83.96    5.08
   1   0   8   94.76    5.82
   1   0   8   89.41    4.80
  -1   0  -8   83.60    4.30
   1   0   8   87.15    5.42
   1   0   8   86.91    6.18
  -1   0  -8   82.14    4.11
  -1   0  -8   86.25    4.59
  -1   0  -8   89.21    4.04
   1   0   8   85.45    3.69
   1   0   8   83.98    4.10
  -1   0  -8   84.67    4.83
  -1   0  -8   84.07    5.16
  -1   0  -8   82.88    4.69
   1   0   8   93.31    6.11
  -1   0  -8   79.14    5.51
  -1   0  -9    4.41    1.92
   1   0   9    2.67    1.37
  -1   0  -9    1.65    1.17
   1   0   9    2.61    1.41
  -1   0  -9    1.98    1.21
  -1   0  -9    2.98    1.93
   1   0   9    3.47    1.09
  -1   0  -9    5.92    1.23
   1   0   9    2.40    1.00
  -1   0  -9    3.61    1.19
   1   0   9    1.96    1.23
   1   0   9    3.94    2.02
  -1   0  -9    3.37    1.13
   1   0   9   -0.16    1.65
   1   0  10    0.36    0.61
  -1   0 -10   -1.28    1.54
  -1   0 -10    0.36    1.18
   1   0  10   -0.16    1.35
   1   0  10    0.56    1.58
   1   0  10    0.17    0.81
   1   0  10    1.47    1.45
   1   0  10    1.58    1.52
  -1   0 -10    0.44    1.08
   1   0  10    0.60    1.53
   1   0  10   -1.10    1.64
  -1   0 -11    0.09    1.42
  -1   0 -11    0.53    0.99
   1   0  11    1.16    1.59
   1   0  11    0.24    1.46
   1   0  11   -1.43    1.52
  -1   0 -11    0.60    1.36
   1   0  11    0.06    1.32
   1   0  11    0.61    1.40
   1   0  11    2.48    1.82
  -1   0 -12    1.56    1.73
   1   0  12    3.24    2.50
   1   0  12    1.46    1.74
  -1   0 -12    1.68    1.43
   1   0  12    2.25    1.72
   1   0  12    2.96    1.86
   1   0  12    1.13    1.65
   1   0  12   -0.60    1.53
   1   0  13    6.54    2.41
   1   0  13    2.50    1.80
  -1   0 -13    1.24    1.49
   1   0  13    2.09    2.04
  -1   0 -13    2.12    1.70
   1   0  13    5.90    2.13
   1   1 -14    1.09    1.94
  -1  -1  13    4.61    2.20
   1   1 -13    1.22    1.79
  -1  -1  13    1.14    1.91
  -1  -1  13    5.13    2.21
   1   1 -13    2.39    1.89
  -1  -1  12   50.18    4.36
   1   1 -12   44.30    4.95
   1   1 -12   45.25    3.69
   1   1 -12   41.19    4.59
  -1  -1  12   52.97    6.02
  -1  -1  12   51.62    5.45
  -1  -1  12   45.90    5.30
  -1  -1  12   47.54    4.42
  -1  -1  12   52.87    5.66
   1   1 -11  137.55    8.10
  -1  -1  11  130.51    6.93
  -1  -1  11  117.40    7.78
  -1  -1  11  136.18    8.40
  -1  -1  11  123.99    7.96
  -1  -1  11  127.01    8.60
   1   1 -11  130.30    7.86
   1   1 -11  118.47    5.58
  -1  -1  11  117.73    7.65
  -1  -1  11  132.10    6.70
   1   1 -10   21.96    3.15
  -1  -1  10   23.58    3.38
  -1  -1  10   22.99    2.70
  -1  -1  10   21.21    2.73
   1   1 -10   21.34    1.78
  -1  -1  10   22.36    2.79
  -1  -1  10   19.51    3.10
  -1  -1  10   20.54    3.29
  -1  -1  10   20.01    2.22
  -1  -1  10   19.94    3.12
  -1  -1  10   17.98    2.54
  -1  -1  10   20.67    3.31
   1   1 -10   21.41    3.14
   1   1 -10   21.84    2.32
   1   1 -10   22.25    2.56
  -1  -1   9   -1.22    1.42
  -1  -1   9    1.21    1.42
   1   1  -9    0.63    0.74
  -1  -1   9    0.59    0.70
  -1  -1   9    0.00    0.81
  -1  -1   9    0.57    1.00
  -1  -1   9    0.21    1.48
  -1  -1   9    0.59    1.53
   1   1  -9   -0.62    0.89
   1   1  -9   -0.56    0.57
  -1  -1   9   -0.89    1.02
  -1  -1   9    0.12    0.71
   1   1  -9   -0.03    1.26
  -1  -1   9   -1.34    1.34
  -1  -1   8   34.17    3.06
   1   1  -8   34.45    3.50
   1   1  -8   33.71    3.39
  -1  -1   8   29.59    3.55
  -1  -1   8   34.84    2.98
   1   1  -8   36.76    2.98
   1   1  -8   32.51    3.13
   1   1  -8   34.71    2.24
   1   1  -8   36.45    3.61
  -1  -1   8   32.55    3.38
  -1  -1   8   37.83    3.90
  -1  -1   8   28.40    3.31
  -1  -1   8   32.80    3.38
   1   1  -8   36.46    2.59
   1   1  -8   36.45    3.58
   1   1  -8   32.90    2.68
  -1  -1   8   32.35    3.23
  -1  -1   8   34.03    3.07
  -1  -1   7   29.25    2.98
  -1  -1   7   33.58    2.71
   1   1  -7   29.04    2.71
   1   1  -7   29.19    2.97
  -1  -1   7   27.58    2.10
   1   1  -7   29.14    3.04
   1   1  -7   28.99    1.99
  -1  -1   7   27.06    3.07
  -1  -1   7   28.38    2.87
  -1  -1   7   29.91    2.46
   1   1  -7   30.19    3.18
   1   1  -7   27.21    2.30
  -1  -1   7   26.53    2.49
   1   1  -7   24.47    2.87
  -1  -1   7   24.97    2.92
   1   1  -7   30.68    2.54
   1   1  -7   27.01    2.70
  -1  -1   7   26.71    2.54
  -1  -1   7   30.28    3.28
  -1  -1   7   27.70    2.94
   1   1  -7   25.24    2.03
  -1  -1   7   23.74    2.33
   1   1  -7   28.88    2.95
  -1  -1   7   25.90    2.69
  -1  -1   6  103.16    4.88
   1   1  -6  113.26    3.76
   1   1  -6  108.61    4.80
  -1  -1   6  110.72    4.30
   1   1  -6  101.61    3.66
  -1  -1   6   97.93    4.87
  -1  -1   6  106.58    3.72
  -1  -1   6   98.58    4.74
  -1  -1   6   98.92    4.53
  -1  -1   6  103.24    4.23
  -1  -1   6  103.67    5.21
  -1  -1   6  104.73    5.31
  -1  -1   6  107.41    4.39
   1   1  -6  103.29    5.31
   1   1  -6  113.00    5.48
   1   1  -6   98.01    4.94
  -1  -1   6  109.67    5.56
  -1  -1   6  112.21    5.21
   1   1  -6  104.40    4.03
   1   1  -6  111.45    5.13
  -1  -1   5   40.71    2.90
  -1  -1   5   42.39    2.54
  -1  -1   5   39.60    2.82
  -1  -1   5   43.45    2.86
  -1  -1   5   42.59    3.20
  -1  -1   5   40.08    2.90
   1   1  -5   47.49    3.11
  -1  -1   5   42.48    2.50
   1   1  -5   43.13    2.30
  -1  -1   5   46.34    2.26
   1   1  -5   41.64    3.08
   1   1  -5   45.95    2.92
   1   1  -5   44.36    2.66
   1   1  -5   40.25    2.32
  -1  -1   5   43.99    2.54
   1   1  -5   45.42    2.29
   1   1  -5   49.76    3.18
  -1  -1   5   43.24    2.84
   1   1  -5   43.29    2.56
   1   1  -4  113.76    3.71
  -1  -1   4  122.06    3.30
  -1  -1   4  114.74    4.12
   1   1  -4  117.40    4.26
   1   1  -4  113.11    3.14
  -1  -1   4  113.75    3.58
  -1  -1   4  113.93    3.49
  -1  -1   4  115.77    3.66
   1   1  -4  122.25    3.53
  -1  -1   4  114.27    4.37
  -1  -1   4  107.91    4.55
  -1  -1   4  109.95    4.03
   1   1  -4  107.95    4.53
   1   1  -4  115.62    3.72
  -1  -1   4  118.30    4.14
  -1  -1   4  112.39    4.20
   1   1  -4  117.34    4.14
  -1  -1   4  115.21    4.42
  -1  -1   4  114.25    3.55
  -1  -1   3   17.30    1.36
   1   1  -3   18.06    1.30
   1   1  -3   16.17    1.68
  -1  -1   3   17.55    1.33
   1   1  -3   17.81    1.37
  -1  -1   3   18.03    1.70
   1   1  -3   17.73    1.19
  -1  -1   3   17.23    1.28
  -1  -1   3   16.78    1.80
   1   1  -3   14.79    1.38
  -1  -1   3   15.76    1.58
  -1  -1   3   18.80    1.74
  -1  -1   3   16.10    1.65
   1   1  -3   18.07    1.35
  -1  -1   3   17.94    1.20
   1   1  -3   16.77    1.50
  -1  -1   3   16.64    1.51
  -1  -1   3   17.15    1.30
  -1  -1   2 4671.18   17.55
  -1  -1   2 4789.28   17.74
  -1  -1   2 4640.87   22.23
  -1  -1   2 4736.37   17.37
  -1  -1   2 4720.39   18.30
  -1  -1   1  212.79    4.04
  -1  -1   1  208.63    3.79
  -1  -1   1  215.56    3.72
  -1  -1   1  224.28    4.28
  -1  -1   1  221.43    3.45
  -1  -1   1  224.49    3.24
  -1  -1   1  220.93    3.84
   1   1  -1  229.05    4.10
  -1  -1   1  229.07    4.57
  -1  -1   1  213.60    2.94
  -1  -1   0 3908.94   17.63
  -1  -1   0 4034.51   15.70
  -1  -1   0 3890.27   17.24
   1   1   0 4053.29   17.22
  -1  -1   0 3858.34   17.60
  -1  -1   0 3905.02   15.98
  -1  -1  -1 1238.63   10.96
  -1  -1  -1 1271.87   11.24
   1   1   1 1292.49   11.55
  -1  -1  -1 1287.55   11.41
   1   1   1 1344.82   10.87
  -1  -1  -1 1351.19   10.28
  -1  -1  -1 1333.99   10.10
   1   1   2 2277.35   14.04
  -1  -1  -2 2300.40   14.58
  -1  -1  -2 2186.96   16.25
   1   1   2 2242.57   11.28
   1   1   2 2248.47   13.60
  -1  -1  -2 2323.41   14.88
  -1  -1  -2 2276.88   11.40
   1   1   2 2210.52   15.02
   1   1   2 2255.09   17.00
  -1  -1  -2 2188.00   16.76
  -1  -1  -3  165.18    4.49
  -1  -1  -3  173.40    4.12
  -1  -1  -3  169.24    5.25
   1   1   3  166.44    4.00
  -1  -1  -3  164.99    4.45
  -1  -1  -3  174.38    4.01
   1   1   3  174.02    5.21
   1   1   3  188.25    4.40
   1   1   3  168.22    4.28
   1   1   3  178.17    4.09
   1   1   3  168.98    4.59
  -1  -1  -3  178.64    5.20
   1   1   3  172.81    5.25
   1   1   4   77.88    3.17
   1   1   4   70.90    3.14
  -1  -1  -4   73.88    3.73
  -1  -1  -4   73.85    3.83
   1   1   4   78.28    3.97
   1   1   4   79.62    2.91
  -1  -1  -4   78.88    3.25
  -1  -1  -4   79.51    3.56
   1   1   4   79.89    4.11
   1   1   4   80.38    3.45
  -1  -1  -4   75.21    3.32
   1   1   4   70.43    2.97
  -1  -1  -4   77.64    3.16
   1   1   4   82.08    4.07
   1   1   4   78.67    3.98
   1   1   4   81.69    3.93
  -1  -1  -5  964.30   12.47
   1   1   5  926.55   11.76
  -1  -1  -5  937.84   14.60
   1   1   5  948.00   16.57
  -1  -1  -5  898.28   12.26
  -1  -1  -5  953.23   12.01
   1   1   5  936.84   10.42
  -1  -1  -5  960.12   14.41
   1   1   5  934.91   11.23
   1   1   5  975.34   15.31
  -1  -1  -5  934.66   13.55
  -1  -1  -5  974.65   11.69
   1   1   5  980.54   15.20
  -1  -1  -5  938.54   12.37
   1   1   5  877.66   12.19
  -1  -1  -5  924.66   14.31
  -1  -1  -6   10.81    1.56
  -1  -1  -6   10.64    1.74
   1   1   6    9.94    1.89
  -1  -1  -6   12.19    2.12
   1   1   6   11.48    1.97
   1   1   6    9.76    1.52
   1   1   6   10.54    1.33
  -1  -1  -6   10.45    1.58
  -1  -1  -6   11.62    1.60
   1   1   6   13.97    2.44
  -1  -1  -6    9.99    1.48
   1   1   6   12.52    2.01
   1   1   6   10.06    1.26
  -1  -1  -6   10.17    1.82
  -1  -1  -6    8.13    1.34
   1   1   6   10.05    1.58
  -1  -1  -6    9.59    1.61
   1   1   6   10.47    1.88
   1   1   6   12.15    1.53
   1   1   6   13.45    2.01
  -1  -1  -7  290.38    8.13
   1   1   7  266.64    8.23
  -1  -1  -7  275.72    7.61
  -1  -1  -7  282.65    7.62
   1   1   7  280.31    9.57
   1   1   7  270.69    7.46
   1   1   7  290.44   10.82
   1   1   7  281.94    8.99
   1   1   7  278.94    9.25
   1   1   7  284.73    6.33
   1   1   7  284.64    9.21
  -1  -1  -7  270.19    8.75
  -1  -1  -7  284.68    8.23
   1   1   7  288.34    8.06
   1   1   7  267.74    9.74
  -1  -1  -7  272.84    8.07
  -1  -1  -7  288.54    7.89
  -1  -1  -7  268.03    8.97
  -1  -1  -7  266.51    7.75
  -1  -1  -7  281.83    9.29
   1   1   8   63.38    3.93
   1   1   8   68.10    4.99
   1   1   8   65.34    4.47
  -1  -1  -8   58.03    3.96
   1   1   8   66.91    3.28
   1   1   8   72.72    5.86
  -1  -1  -8   63.60    4.01
  -1  -1  -8   67.78    4.03
   1   1   8   66.90    4.85
  -1  -1  -8   66.45    4.16
  -1  -1  -8   64.62    4.25
  -1  -1  -8   70.28    5.09
  -1  -1  -8   62.20    4.20
   1   1   8   71.70    4.31
  -1  -1  -8   64.71    4.73
   1   1   8   69.18    4.90
   1   1   8   67.02    5.34
   1   1   9   87.96    4.29
   1   1   9   94.77    6.19
   1   1   9   90.85    4.90
  -1  -1  -9   91.69    5.15
  -1  -1  -9   93.81    6.28
  -1  -1  -9   83.97    5.06
   1   1   9   94.44    6.08
   1   1   9   92.79    4.05
  -1  -1  -9   89.07    5.35
   1   1   9   82.99    5.39
   1   1   9   92.65    6.72
   1   1   9   99.10    7.13
   1   1   9   86.96    5.70
  -1  -1 -10    8.10    2.32
   1   1  10   14.01    2.68
  -1  -1 -10   11.73    2.22
   1   1  10   13.92    2.62
   1   1  10   11.38    2.55
   1   1  10   10.53    2.31
   1   1  10   15.61    3.33
   1   1  10   12.74    2.08
   1   1  10   12.10    2.89
  -1  -1 -10   11.56    2.21
   1   1  11    0.77    1.63
   1   1  11    1.53    1.75
   1   1  11    3.05    1.92
   1   1  11   -2.34    1.28
  -1  -1 -11   -1.59    1.25
  -1  -1 -11   -0.52    1.24
   1   1  11    0.02    1.42
   1   1  11   -0.42    0.97
  -1  -1 -11    0.96    1.27
   1   1  11    5.92    2.23
   1   1  12    1.58    1.22
   1   1  12    2.39    1.95
  -1  -1 -12    1.47    1.24
   1   1  12   -0.47    1.36
   1   1  12   -3.37    2.14
   1   1  12   -1.82    1.55
  -1  -1 -12    1.48    1.67
   1   1  12    0.51    1.32
   1   1  12    2.50    2.26
   1   1  13    4.12    2.11
   1   1  13    6.61    2.20
   1   1  13    7.52    2.68
  -1  -1 -13   11.56    3.19
   1   1  13    8.26    2.59
  -1  -2  14    0.23    1.32
  -1  -2  13    5.30    2.14
   1   2 -13    7.03    2.50
  -1  -2  13    5.45    2.04
  -1  -2  13    7.22    2.56
  -1  -2  13    5.87    2.52
  -1  -2  13    6.72    2.10
  -1  -2  13    4.37    2.04
  -1  -2  13    7.84    2.96
   1   2 -12    1.89    1.85
   1   2 -12    2.24    1.30
  -1  -2  12    2.21    1.17
  -1  -2  12   -1.95    1.29
  -1  -2  12    1.26    1.68
  -1  -2  12   -1.59    1.86
  -1  -2  12    0.38    1.24
  -1  -2  12    2.03    1.73
  -1  -2  12    2.61    2.53
   1   2 -11    4.96    1.51
  -1  -2  11    3.48    1.72
  -1  -2  11    5.60    2.13
   1   2 -11    4.21    1.93
  -1  -2  11    3.16    1.54
  -1  -2  11    5.25    1.67
  -1  -2  11    4.45    2.01
  -1  -2  11    1.11    1.55
  -1  -2  11    3.33    1.78
  -1  -2  10   13.83    2.29
  -1  -2  10   15.52    2.80
   1   2 -10   17.22    2.00
  -1  -2  10   18.10    2.59
  -1  -2  10   14.79    2.44
  -1  -2  10   16.40    2.77
  -1  -2  10   12.38    2.72
  -1  -2  10   16.05    2.28
   1   2 -10   15.64    2.83
   1   2 -10   16.95    2.19
  -1  -2  10   16.40    3.11
  -1  -2  10   17.86    3.23
   1   2 -10   17.15    2.92
   1   2 -10   16.21    2.05
  -1  -2  10   18.62    2.23
  -1  -2  10   18.75    2.79
  -1  -2   9   18.58    2.75
   1   2  -9   16.18    2.55
   1   2  -9   16.94    2.12
  -1  -2   9   15.24    2.59
   1   2  -9   19.18    2.64
  -1  -2   9   17.27    2.35
   1   2  -9   19.70    2.99
   1   2  -9   17.21    1.96
  -1  -2   9   17.75    2.57
   1   2  -9   16.90    2.04
  -1  -2   9   17.48    3.05
  -1  -2   9   18.92    3.00
  -1  -2   9   15.25    2.33
  -1  -2   9   17.09    2.03
  -1  -2   9   15.34    2.21
  -1  -2   9   20.21    2.55
   1   2  -9   22.49    2.45
  -1  -2   9   19.87    3.17
   1   2  -8  134.78    4.92
   1   2  -8  147.16    6.45
   1   2  -8  145.92    6.84
   1   2  -8  142.41    6.88
  -1  -2   8  140.83    6.93
   1   2  -8  141.30    5.40
  -1  -2   8  138.90    6.24
  -1  -2   8  139.38    7.13
  -1  -2   8  130.01    6.42
  -1  -2   8  138.00    6.08
  -1  -2   8  148.14    5.54
   1   2  -8  145.26    5.70
   1   2  -8  143.79    5.18
  -1  -2   8  143.41    6.21
  -1  -2   8  142.54    7.22
  -1  -2   8  135.90    6.73
  -1  -2   8  147.67    7.51
   1   2  -8  154.34    7.22
  -1  -2   8  138.39    6.10
  -1  -2   7   10.15    2.05
   1   2  -7   10.15    1.33
   1   2  -7   12.32    1.87
  -1  -2   7   11.89    1.99
   1   2  -7   10.67    1.54
   1   2  -7   10.50    1.76
  -1  -2   7    9.80    1.86
  -1  -2   7   10.28    1.72
  -1  -2   7    9.57    1.64
   1   2  -7   11.39    2.03
   1   2  -7   12.20    1.72
   1   2  -7   12.62    2.15
   1   2  -7   11.34    2.16
  -1  -2   7   10.54    1.72
   1   2  -7   12.89    1.69
   1   2  -7    9.11    1.89
  -1  -2   7    9.17    1.76
  -1  -2   7   10.55    2.11
  -1  -2   7    8.73    1.43
  -1  -2   7    8.50    1.64
  -1  -2   7   11.48    2.27
  -1  -2   6   31.30    2.67
  -1  -2   6   28.93    2.69
  -1  -2   6   31.37    2.54
  -1  -2   6   33.17    3.27
  -1  -2   6   30.90    2.59
  -1  -2   6   27.52    2.91
  -1  -2   6   33.27    2.35
   1   2  -6   24.32    2.36
  -1  -2   6   29.84    2.51
  -1  -2   6   29.13    2.59
   1   2  -6   29.68    2.93
   1   2  -6   29.47    2.21
   1   2  -6   26.51    2.83
  -1  -2   6   30.62    2.78
   1   2  -6   30.51    2.67
  -1  -2   6   31.88    2.92
   1   2  -6   31.70    2.77
  -1  -2   6   32.50    2.64
   1   2  -6   27.65    1.93
   1   2  -6   30.46    2.93
   1   2  -5   40.92    2.09
  -1  -2   5   43.33    2.86
  -1  -2   5   47.34    2.95
  -1  -2   5   44.07    3.13
   1   2  -5   45.77    2.99
  -1  -2   5   39.62    2.65
  -1  -2   5   41.88    2.69
   1   2  -5   26.82    2.68
  -1  -2   5   41.98    2.74
   1   2  -5   43.40    2.62
   1   2  -5   47.94    2.89
   1   2  -5   44.92    2.98
  -1  -2   5   38.17    3.16
  -1  -2   5   41.33    2.96
  -1  -2   5   44.93    2.88
  -1  -2   5   43.48    2.55
   1   2  -5   40.62    2.44
  -1  -2   5   41.61    2.97
   1   2  -4   -0.09    0.87
   1   2  -4    0.07    0.82
  -1  -2   4   -0.32    0.63
   1   2  -4    0.15    0.48
  -1  -2   4    0.12    0.68
  -1  -2   4   -0.15    1.03
   1   2  -4   -0.37    0.92
  -1  -2   4   -0.29    0.74
  -1  -2   4    0.77    1.01
  -1  -2   4   -0.23    0.62
   1   2  -4    0.03    0.86
   1   2  -4    0.42    0.70
   1   2  -4    0.42    0.73
   1   2  -4    0.63    0.61
  -1  -2   4   -0.30    0.72
  -1  -2   4    1.34    0.85
   1   2  -4    0.36    0.22
  -1  -2   4   -0.02    0.98
  -1  -2   4   -0.02    0.69
  -1  -2   3  315.67    6.05
  -1  -2   3  325.35    7.38
   1   2  -3  327.39    5.19
  -1  -2   3  336.01    6.90
  -1  -2   3  328.83    4.73
   1   2  -3  327.96    3.90
  -1  -2   3  321.97    5.80
  -1  -2   3  334.50    5.68
   1   2  -3  323.68    6.38
  -1  -2   3  330.09    7.09
  -1  -2   3  318.79    6.20
   1   2  -3  309.67    5.39
   1   2  -3  324.32    5.81
  -1  -2   3  316.27    3.84
  -1  -2   3  322.54    6.27
   1   2  -3  308.29    6.34
   1   2  -3  349.94    6.75
  -1  -2   3  313.70    6.29
   1   2  -3  320.08    6.56
  -1  -2   2 9722.66   32.00
  -1  -2   2 9803.66   31.54
   1   2  -2 9999.00   33.16
  -1  -2   2 9720.77   32.14
  -1  -2   1   22.76    1.66
  -1  -2   1   23.15    1.66
  -1  -2   1   23.24    1.43
  -1  -2   1   21.39    1.46
  -1  -2   1   21.45    0.78
   1   2  -1   24.12    1.73
  -1  -2   1   23.32    1.61
  -1  -2   0 1286.54    6.61
  -1  -2   0 1307.46   10.80
  -1  -2   0 1314.94   11.96
  -1  -2   0 1322.65   12.33
  -1  -2   0 1339.98   10.99
  -1  -2   0 1312.59   12.37
   1   2   0 1291.97   11.19
  -1  -2  -1    2.24    0.77
   1   2   1    3.30    1.00
   1   2   1    2.67    0.40
  -1  -2  -1    2.38    0.76
  -1  -2  -1    3.64    0.55
   1   2   1    3.26    0.75
  -1  -2  -1    2.75    0.90
  -1  -2  -1    2.29    0.84
  -1  -2  -1    2.78    0.61
  -1  -2  -1    4.20    0.94
  -1  -2  -2 1591.22    8.83
  -1  -2  -2 1530.81   13.16
  -1  -2  -2 1555.52   13.53
  -1  -2  -2 1580.88   15.04
  -1  -2  -2 1573.34   15.39
   1   2   2 1548.89   15.07
   1   2   2 1544.97   13.24
   1   2   2 1553.22   13.53
  -1  -2  -2 1544.09   15.13
   1   2   2 1553.77   14.10
  -1  -2  -2 1641.43   10.60
   1   2   3   10.19    1.26
   1   2   3    9.79    1.48
   1   2   3   10.37    1.10
   1   2   3   11.33    1.32
  -1  -2  -3   10.70    1.03
   1   2   3   10.53    1.16
  -1  -2  -3   13.06    1.46
   1   2   3   13.13    1.69
   1   2   3   12.85    1.74
   1   2   3   12.77    1.78
   1   2   3   11.12    1.63
  -1  -2  -3    8.86    1.33
  -1  -2  -3   11.48    1.42
  -1  -2  -3   11.50    1.52
  -1  -2  -3   10.98    1.57
   1   2   3   11.18    1.41
  -1  -2  -3   12.21    1.25
  -1  -2  -4 1897.22   18.10
   1   2   4 1756.86   21.30
  -1  -2  -4 1845.41   19.80
  -1  -2  -4 1791.34   16.44
   1   2   4 1871.90   17.29
   1   2   4 1865.48   16.64
  -1  -2  -4 1861.31   14.47
  -1  -2  -4 1810.53   19.02
  -1  -2  -4 1840.40   16.68
  -1  -2  -4 1909.33   16.08
   1   2   4 1920.73   17.17
   1   2   4 1890.56   19.89
   1   2   4 1761.34   14.06
   1   2   4 1958.58   19.88
  -1  -2  -4 1898.17   19.49
   1   2   4 1835.36   15.59
   1   2   5   62.31    3.43
  -1  -2  -5   61.06    2.99
  -1  -2  -5   56.27    3.22
  -1  -2  -5   58.67    3.15
  -1  -2  -5   63.77    3.52
   1   2   5   63.85    4.21
  -1  -2  -5   60.92    3.88
   1   2   5   55.86    2.52
  -1  -2  -5   57.34    3.65
  -1  -2  -5   61.79    3.59
  -1  -2  -5   58.00    3.64
   1   2   5   59.44    4.49
  -1  -2  -5   58.94    3.22
   1   2   5   59.14    3.88
  -1  -2  -5   58.81    3.79
   1   2   5   54.61    3.13
   1   2   6    0.47    0.83
   1   2   6    1.20    1.52
  -1  -2  -6    1.69    0.95
  -1  -2  -6    2.46    1.00
  -1  -2  -6    2.03    1.13
  -1  -2  -6    2.59    1.03
  -1  -2  -6    1.97    0.97
  -1  -2  -6    2.45    0.92
   1   2   6    1.91    0.82
  -1  -2  -6    1.40    0.77
   1   2   6    1.45    0.61
   1   2   6    3.04    1.35
   1   2   6    1.05    0.83
  -1  -2  -6    1.22    1.03
   1   2   6    1.95    1.25
   1   2   6    1.98    1.35
  -1  -2  -6    2.65    1.09
   1   2   6    1.15    0.80
  -1  -2  -6    2.01    1.22
  -1  -2  -7    6.50    1.50
  -1  -2  -7    5.94    1.78
  -1  -2  -7    5.75    1.64
  -1  -2  -7    4.51    1.18
   1   2   7    6.73    1.31
  -1  -2  -7    5.42    1.50
   1   2   7    4.43    1.65
   1   2   7    5.59    1.27
  -1  -2  -7    4.94    1.32
  -1  -2  -7    5.02    1.54
  -1  -2  -7    7.44    1.59
   1   2   7    6.15    1.80
   1   2   7    6.90    1.89
   1   2   7    3.93    1.31
   1   2   7    7.07    2.12
   1   2   7    5.51    0.92
  -1  -2  -7    3.69    1.11
  -1  -2  -7    7.35    1.50
   1   2   7    6.05    1.43
   1   2   7    4.63    1.81
  -1  -2  -8   52.73    4.05
   1   2   8   51.49    2.61
   1   2   8   49.59    4.21
   1   2   8   53.14    4.05
   1   2   8   53.43    3.54
  -1  -2  -8   53.00    3.85
   1   2   8   51.13    4.27
  -1  -2  -8   50.72    3.70
   1   2   8   50.67    3.78
   1   2   8   54.58    5.21
   1   2   8   48.17    4.32
  -1  -2  -8   48.92    3.61
  -1  -2  -8   50.76    4.46
   1   2   8   53.93    4.95
   1   2   9   22.06    3.17
   1   2   9   20.69    1.73
   1   2   9   18.88    2.90
   1   2   9   18.91    2.53
   1   2   9   22.55    3.59
   1   2   9   21.20    3.02
   1   2   9   19.08    3.50
  -1  -2  -9   22.03    2.69
   1   2   9   18.65    2.65
  -1  -2  -9   22.42    2.70
  -1  -2  -9   16.78    2.85
   1   2   9   25.12    2.56
   1   2  10    5.19    2.27
   1   2  10    5.75    1.90
   1   2  10    5.61    1.74
   1   2  10    3.14    1.75
  -1  -2 -10    8.00    1.90
   1   2  10    7.68    1.89
   1   2  10    3.56    1.68
   1   2  10    4.01    2.51
  -1  -2 -10    5.64    1.75
  -1  -2 -10    3.91    1.91
   1   2  11   10.97    2.53
  -1  -2 -11    9.36    2.11
   1   2  11   11.50    2.21
   1   2  11   12.88    3.36
   1   2  11   12.27    3.12
   1   2  11   10.54    2.43
   1   2  11    6.29    2.00
  -1  -2 -11   14.95    2.60
   1   2  11   11.64    2.62
  -1  -2 -11   12.33    2.89
   1   2  12   21.88    3.14
   1   2  12   27.96    4.08
  -1  -2 -12   29.74    4.46
   1   2  12   26.56    3.86
   1   2  12   26.38    3.84
   1   2  12   29.73    4.97
  -1  -2 -12   20.92    3.07
   1   2  12   26.20    4.44
   1   2  12   26.58    3.94
   1   2  13   -0.98    1.86
  -1  -3  14   -5.10    2.39
  -1  -3  14   -2.09    1.50
  -1  -3  14   -1.15    1.88
   1   3 -13   13.29    3.20
  -1  -3  13   14.73    3.13
  -1  -3  13   11.63    3.16
  -1  -3  13   18.89    4.13
  -1  -3  13   10.57    2.49
  -1  -3  13   14.80    2.92
  -1  -3  13   14.94    3.41
   1   3 -13   15.07    2.41
  -1  -3  13   11.00    2.82
  -1  -3  12   31.39    4.14
  -1  -3  12   24.90    3.80
  -1  -3  12   30.10    3.83
   1   3 -12   25.90    3.07
  -1  -3  12   24.33    3.70
  -1  -3  12   28.58    4.26
  -1  -3  12   25.02    4.22
  -1  -3  12   30.21    4.65
   1   3 -12   28.93    4.35
  -1  -3  11   45.58    4.39
  -1  -3  11   52.37    4.66
  -1  -3  11   44.40    4.53
  -1  -3  11   43.14    4.86
   1   3 -11   45.80    4.97
  -1  -3  11   52.66    5.59
  -1  -3  11   39.29    4.58
  -1  -3  11   45.84    5.19
   1   3 -11   41.07    3.64
   1   3 -10    8.06    1.71
  -1  -3  10    5.12    1.78
   1   3 -10    6.65    1.24
  -1  -3  10    5.65    1.99
  -1  -3  10    6.10    1.56
  -1  -3  10    6.84    2.04
   1   3 -10    4.15    1.23
  -1  -3  10    6.04    1.93
   1   3 -10    7.73    2.22
  -1  -3  10    6.88    2.21
  -1  -3  10    6.85    2.38
  -1  -3  10    7.94    2.01
  -1  -3   9   36.03    3.54
  -1  -3   9   39.68    3.89
   1   3  -9   33.98    2.94
  -1  -3   9   37.76    3.18
  -1  -3   9   34.81    4.02
  -1  -3   9   28.82    3.36
   1   3  -9   39.11    3.13
  -1  -3   9   35.42    3.26
  -1  -3   9   36.01    3.63
   1   3  -9   35.22    3.44
   1   3  -9   37.57    3.16
  -1  -3   9   34.34    3.94
  -1  -3   9   40.96    4.37
   1   3  -9   33.64    2.43
  -1  -3   9   36.13    3.53
   1   3  -9   36.65    3.98
  -1  -3   9   33.63    3.70
   1   3  -8   -1.33    1.57
   1   3  -8   -0.19    0.94
   1   3  -8    0.21    0.47
  -1  -3   8   -0.76    1.16
   1   3  -8    0.33    1.24
  -1  -3   8   -0.18    1.28
  -1  -3   8   -0.06    0.65
  -1  -3   8   -0.30    0.77
  -1  -3   8    5.35    2.22
  -1  -3   8   -0.83    1.02
   1   3  -8    0.71    0.88
   1   3  -8   -0.28    0.80
  -1  -3   8   -0.49    1.03
   1   3  -8    1.85    0.99
  -1  -3   8    0.19    1.38
  -1  -3   8   -0.31    1.60
  -1  -3   8   -1.20    1.38
  -1  -3   8   -0.27    1.23
  -1  -3   7    0.08    0.90
  -1  -3   7    0.13    0.71
  -1  -3   7   -0.52    0.84
  -1  -3   7    0.00    0.82
   1   3  -7    0.57    0.52
  -1  -3   7    1.10    0.97
   1   3  -7    1.67    1.04
  -1  -3   7   -0.40    1.05
  -1  -3   7    0.65    1.19
   1   3  -7    1.35    1.36
  -1  -3   7    0.34    0.66
  -1  -3   7    1.34    1.12
   1   3  -7    0.58    0.79
  -1  -3   7    0.74    0.85
  -1  -3   7    1.97    1.42
   1   3  -7    1.37    1.02
   1   3  -7    1.52    1.30
   1   3  -7    0.15    0.67
  -1  -3   7   -0.43    1.18
  -1  -3   7   -0.40    0.74
  -1  -3   6    9.26    1.76
   1   3  -6   10.13    1.07
  -1  -3   6   11.75    1.74
  -1  -3   6   12.51    1.82
   1   3  -6   10.30    1.49
   1   3  -6   10.52    1.81
   1   3  -6   11.66    1.85
  -1  -3   6   13.02    2.05
   1   3  -6   12.43    1.67
  -1  -3   6   12.30    1.96
  -1  -3   6    9.96    1.64
  -1  -3   6   11.65    1.60
   1   3  -6    9.34    1.77
  -1  -3   6   11.46    2.18
  -1  -3   6   12.14    2.28
   1   3  -5   -0.32    0.98
  -1  -3   5    0.31    0.72
  -1  -3   5   -0.14    0.78
   1   3  -5    0.58    0.61
  -1  -3   5   -0.36    0.96
   1   3  -5   -1.20    0.90
  -1  -3   5    1.05    0.95
  -1  -3   5    0.27    0.23
  -1  -3   5    0.02    0.87
   1   3  -5   -1.41    1.24
  -1  -3   5   -0.01    0.72
  -1  -3   5   -0.15    0.84
  -1  -3   5   -0.34    1.03
  -1  -3   5    0.68    1.15
   1   3  -5   -1.26    0.99
  -1  -3   4  171.65    3.41
   1   3  -4  165.78    4.21
  -1  -3   4  171.38    3.34
   1   3  -4  182.49    5.77
  -1  -3   4  166.82    5.43
  -1  -3   4  171.03    5.53
  -1  -3   4  163.45    6.22
  -1  -3   4  171.77    4.37
  -1  -3   4  175.87    6.27
  -1  -3   4  170.98    5.59
   1   3  -4  181.79    5.83
   1   3  -4  177.57    5.91
  -1  -3   4  166.93    5.51
  -1  -3   4  199.81    6.21
   1   3  -4  170.54    3.38
  -1  -3   4  167.50    5.05
   1   3  -4  156.55    5.38
   1   3  -4  162.86    4.98
  -1  -3   3   95.88    2.81
  -1  -3   3   92.32    4.12
   1   3  -3   97.61    3.96
  -1  -3   3   90.90    3.87
   1   3  -3   94.97    2.81
  -1  -3   3   95.81    3.89
  -1  -3   3   94.14    3.64
   1   3  -3   94.12    2.65
   1   3  -3   98.03    2.62
  -1  -3   3   91.58    3.93
  -1  -3   3  100.37    2.68
   1   3  -3   94.23    3.63
  -1  -3   2 1148.29   13.08
  -1  -3   2 1155.46   13.19
  -1  -3   2 1208.19   10.69
   1   3  -2 1197.23   10.76
   1   3  -2 1138.93    5.69
   1   3  -2 1131.61   12.54
  -1  -3   2 1183.22   13.02
  -1  -3   1    1.18    0.77
  -1  -3   1    1.02    0.81
  -1  -3   1    1.31    0.67
  -1  -3   1    0.78    0.74
  -1  -3   1    1.52    0.82
   1   3  -1    0.61    0.85
  -1  -3   0   61.21    3.13
  -1  -3   0   53.08    2.88
  -1  -3   0   54.78    3.02
   1   3   0   53.32    2.70
  -1  -3   0   55.51    2.65
  -1  -3   0   55.16    1.96
  -1  -3   0   53.69    2.62
  -1  -3  -1  121.59    4.55
  -1  -3  -1  119.92    4.40
  -1  -3  -1  120.71    4.54
   1   3   1  124.38    2.75
  -1  -3  -1  119.92    4.06
   1   3   1  122.92    3.43
  -1  -3  -1  122.59    3.47
  -1  -3  -1  127.00    4.19
  -1  -3  -1  111.04    3.82
   1   3   1  116.05    3.96
   1   3   2   49.80    2.82
  -1  -3  -2   56.50    3.20
  -1  -3  -2   52.59    2.88
  -1  -3  -2   55.86    2.96
   1   3   2   53.61    2.75
  -1  -3  -2   55.03    3.25
   1   3   2   58.51    2.07
  -1  -3  -2   57.99    2.08
  -1  -3  -2   56.22    3.28
   1   3   2   59.91    2.88
   1   3   2   57.62    3.05
  -1  -3  -2   56.05    2.33
  -1  -3  -2   54.91    2.75
  -1  -3  -2   50.85    2.73
   1   3   2   51.08    2.97
  -1  -3  -3  219.21    6.72
  -1  -3  -3  224.86    6.82
  -1  -3  -3  220.26    4.52
  -1  -3  -3  225.32    6.09
  -1  -3  -3  223.89    6.62
   1   3   3  226.49    6.43
  -1  -3  -3  233.67    5.27
   1   3   3  229.20    7.47
   1   3   3  216.24    5.74
  -1  -3  -3  217.85    5.75
   1   3   3  221.86    6.53
   1   3   3  230.47    6.31
  -1  -3  -3  218.64    6.18
  -1  -3  -3  224.04    6.18
  -1  -3  -4   46.58    2.99
   1   3   4   45.13    2.65
   1   3   4   41.01    2.25
  -1  -3  -4   45.08    3.19
  -1  -3  -4   44.94    2.33
  -1  -3  -4   45.58    2.90
  -1  -3  -4   46.66    2.88
  -1  -3  -4   44.73    3.29
   1   3   4   45.72    3.80
   1   3   4   43.58    3.15
   1   3   4   51.14    3.53
  -1  -3  -4   47.96    2.71
   1   3   4   46.05    3.07
  -1  -3  -5  123.96    5.24
   1   3   5  126.22    4.97
   1   3   5  113.64    4.66
   1   3   5  132.36    5.24
  -1  -3  -5  121.33    4.31
  -1  -3  -5  125.64    5.78
   1   3   5  136.29    6.94
  -1  -3  -5  122.82    5.72
   1   3   5  124.64    5.80
   1   3   5  121.19    5.56
  -1  -3  -5  120.71    5.53
   1   3   5  132.87    5.93
   1   3   5  125.32    5.26
  -1  -3  -5  127.37    5.06
  -1  -3  -5  116.29    4.76
  -1  -3  -5  131.50    5.49
  -1  -3  -5  129.81    4.91
   1   3   5  110.05    3.74
   1   3   5  143.65    6.28
   1   3   5  124.77    5.73
   1   3   6  258.05    7.62
   1   3   6  259.13   10.30
   1   3   6  245.32    8.62
  -1  -3  -6  251.84    8.79
   1   3   6  254.52    7.42
  -1  -3  -6  253.46    8.55
   1   3   6  272.61    9.46
   1   3   6  259.97    7.72
   1   3   6  250.96    8.00
  -1  -3  -6  248.56    7.30
  -1  -3  -6  265.96    8.91
   1   3   6  266.36    8.57
  -1  -3  -6  275.48    7.81
  -1  -3  -6  255.43    7.94
  -1  -3  -6  254.67    8.20
   1   3   6  266.55    8.91
  -1  -3  -6  254.68    7.44
   1   3   6  276.02    8.99
   1   3   6  248.61    5.36
   1   3   7  220.12    7.72
  -1  -3  -7  229.94    7.78
   1   3   7  221.42    7.88
  -1  -3  -7  229.50    7.16
   1   3   7  221.88    8.62
   1   3   7  227.60    8.54
   1   3   7  239.31    8.87
   1   3   7  220.61    7.34
  -1  -3  -7  229.60    8.59
  -1  -3  -7  211.66    7.16
   1   3   7  231.96   10.36
  -1  -3  -7  213.69    7.08
  -1  -3  -7  230.16    8.29
   1   3   7  234.50    9.50
   1   3   7  236.49    5.18
   1   3   7  224.75    7.50
  -1  -3  -8    0.32    0.72
   1   3   8   -0.02    1.12
   1   3   8    3.22    1.57
  -1  -3  -8    0.49    1.08
   1   3   8    3.57    1.68
   1   3   8    0.89    0.44
  -1  -3  -8    0.07    0.86
   1   3   8    2.21    1.37
   1   3   8    0.51    1.65
   1   3   8    1.38    0.97
   1   3   8   -1.06    1.39
   1   3   8   -0.13    1.00
  -1  -3  -8   -0.89    1.45
   1   3   9   27.34    3.47
   1   3   9   29.03    3.36
  -1  -3  -9   29.75    3.31
  -1  -3  -9   27.17    3.67
   1   3   9   28.45    4.16
   1   3   9   33.50    3.55
  -1  -3  -9   27.35    3.20
   1   3   9   29.43    4.13
   1   3   9   29.81    3.56
   1   3   9   27.10    3.51
   1   3  10   35.06    4.11
   1   3  10   38.79    4.21
   1   3  10   29.17    3.41
  -1  -3 -10   30.50    3.49
   1   3  10   27.62    4.35
  -1  -3 -10   26.26    3.13
   1   3  10   31.55    3.86
   1   3  10   30.96    4.42
  -1  -3 -10   34.11    4.26
   1   3  10   35.08    4.18
  -1  -3 -11   -0.29    1.24
  -1  -3 -11    0.66    1.22
   1   3  11    2.35    2.14
   1   3  11   -0.73    1.57
   1   3  11   -1.04    1.20
   1   3  11   -0.90    1.28
   1   3  11    0.27    1.46
   1   3  11    0.00    1.17
   1   3  11    0.55    1.33
  -1  -3 -11    2.07    1.82
   1   3  12    1.89    1.67
   1   3  12   -1.75    1.77
   1   3  12   -2.17    1.68
   1   3  12    0.24    1.03
   1   3  12    2.71    1.83
   1   3  12   -4.42    3.11
  -1  -4  14    1.32    1.52
  -1  -4  14    1.90    1.88
  -1  -4  14    1.14    1.76
   1   4 -13    3.77    1.75
  -1  -4  13    2.78    1.79
  -1  -4  13    1.34    1.59
  -1  -4  13    1.77    1.41
   1   4 -13    0.48    1.09
  -1  -4  13    0.29    1.59
  -1  -4  13    6.07    2.68
  -1  -4  13    0.03    1.90
  -1  -4  13    2.72    1.67
   1   4 -13    3.42    1.88
  -1  -4  12    2.53    1.39
   1   4 -12    4.40    1.81
  -1  -4  12    4.46    1.93
  -1  -4  12    4.16    2.03
   1   4 -12    0.38    0.96
  -1  -4  12    2.28    1.66
  -1  -4  12    3.68    1.83
  -1  -4  12    5.62    2.08
  -1  -4  12    4.99    2.38
   1   4 -11    4.37    2.12
  -1  -4  11    1.17    1.67
  -1  -4  11    2.91    1.74
  -1  -4  11    3.87    1.93
   1   4 -11    2.05    1.32
  -1  -4  11    1.55    1.57
  -1  -4  11    2.79    2.05
  -1  -4  11    4.79    2.40
  -1  -4  11    3.05    1.37
  -1  -4  10  142.46    7.68
  -1  -4  10  131.55    7.01
  -1  -4  10  128.85    8.03
  -1  -4  10  125.13    7.68
  -1  -4  10  150.82    8.69
  -1  -4  10  131.95    6.57
  -1  -4  10  138.85    8.38
   1   4 -10  129.70    6.46
   1   4 -10  135.61    8.15
  -1  -4   9   26.71    3.50
   1   4  -9   27.78    1.98
  -1  -4   9   25.77    3.59
  -1  -4   9   26.26    2.87
   1   4  -9   23.74    2.75
  -1  -4   9   23.18    2.81
  -1  -4   9   30.53    3.63
  -1  -4   9   27.30    3.92
   1   4  -9   28.16    2.69
   1   4  -9   32.05    3.65
  -1  -4   9   30.13    3.75
   1   4  -9   26.35    3.57
  -1  -4   8  155.11    6.46
  -1  -4   8  166.04    7.54
  -1  -4   8  160.38    6.50
  -1  -4   8  160.90    7.41
  -1  -4   8  176.23    7.80
  -1  -4   8  161.68    7.29
  -1  -4   8  171.75    8.36
   1   4  -8  167.95    6.17
   1   4  -8  173.01    6.96
  -1  -4   8  164.95    8.15
  -1  -4   8  160.53    7.61
  -1  -4   8  169.34    6.79
   1   4  -8  165.44    7.89
   1   4  -8  153.46    6.50
   1   4  -8  168.98    8.11
   1   4  -7    4.79    1.43
   1   4  -7    2.46    1.35
  -1  -4   7    4.71    1.81
  -1  -4   7    3.40    1.34
  -1  -4   7    2.58    1.10
  -1  -4   7    1.54    0.92
   1   4  -7    3.28    1.67
  -1  -4   7    3.92    1.28
  -1  -4   7    3.88    1.39
  -1  -4   7    3.70    1.40
  -1  -4   7    2.40    1.33
  -1  -4   7    4.15    1.76
  -1  -4   7    4.86    1.43
   1   4  -7    3.35    1.28
   1   4  -7    0.91    1.00
  -1  -4   7    2.81    1.02
  -1  -4   6  179.77    7.04
   1   4  -6  189.19    6.92
  -1  -4   6  175.58    6.38
  -1  -4   6  170.07    5.35
  -1  -4   6  183.16    7.06
  -1  -4   6  181.47    7.42
  -1  -4   6  173.07    3.41
  -1  -4   6  175.39    6.83
   1   4  -6  199.03    7.60
   1   4  -6  175.34    5.44
  -1  -4   6  169.90    7.40
  -1  -4   6  171.61    6.28
  -1  -4   6  173.97    6.82
  -1  -4   6  185.90    7.83
   1   4  -6  166.29    6.62
   1   4  -6  179.16    7.40
   1   4  -6  176.01    6.19
   1   4  -5   -0.56    1.14
  -1  -4   5   -0.18    1.29
  -1  -4   5    1.78    1.32
  -1  -4   5    1.10    0.92
  -1  -4   5    1.99    1.09
  -1  -4   5    0.34    0.48
   1   4  -5   -1.73    0.98
  -1  -4   5    0.35    0.90
  -1  -4   5    0.65    0.81
   1   4  -5   -0.08    1.21
   1   4  -5   -1.39    0.91
   1   4  -5    0.00    1.05
  -1  -4   5    0.05    0.63
   1   4  -5    0.05    0.52
  -1  -4   5    0.69    0.74
   1   4  -5    0.02    0.42
  -1  -4   4 1986.76   10.99
   1   4  -4 2029.69   14.76
  -1  -4   4 1875.80   20.08
   1   4  -4 1966.53   21.24
  -1  -4   4 1935.59   20.85
  -1  -4   4 1989.95   21.14
  -1  -4   4 2035.51   14.66
  -1  -4   4 1903.78   21.99
   1   4  -4 2020.32   21.67
   1   4  -4 1968.44   13.08
   1   4  -4 2010.88   21.19
   1   4  -4 1951.95   19.92
  -1  -4   4 1960.55   20.59
   1   4  -4 1905.42   19.08
  -1  -4   3   30.75    2.60
  -1  -4   3   29.05    2.50
  -1  -4   3   24.87    1.87
   1   4  -3   29.69    1.95
   1   4  -3   27.01    2.38
  -1  -4   3   28.70    2.54
   1   4  -3   27.37    1.23
   1   4  -3   29.36    1.30
   1   4  -3   28.84    2.36
   1   4  -2    3.50    0.96
   1   4  -2    2.96    1.18
  -1  -4   2    1.94    0.98
  -1  -4   2    2.66    0.96
  -1  -4   2    5.25    1.22
  -1  -4   2    3.19    0.94
  -1  -4   1  307.31    7.50
  -1  -4   1  307.56    7.66
  -1  -4   1  306.22    6.62
  -1  -4   1  310.78    6.80
  -1  -4   1  316.15    7.79
  -1  -4   1  309.50    7.00
   1   4  -1  309.29    7.02
  -1  -4   0  495.43    8.88
  -1  -4   0  525.76    9.92
  -1  -4   0  521.81   10.25
  -1  -4   0  531.78    8.91
  -1  -4   0  509.12    4.71
  -1  -4   0  516.65   10.09
  -1  -4   0  499.34    8.74
   1   4   0  487.32    8.65
  -1  -4   0  517.26    7.33
  -1  -4  -1   70.55    3.49
   1   4   1   67.10    3.33
  -1  -4  -1   74.43    3.86
  -1  -4  -1   71.76    3.92
   1   4   1   72.31    2.65
  -1  -4  -1   63.18    3.25
  -1  -4  -1   69.65    3.50
  -1  -4  -1   73.44    3.96
  -1  -4  -1   70.42    3.07
  -1  -4  -2  722.55    9.53
   1   4   2  685.82   10.59
  -1  -4  -2  692.99   12.50
  -1  -4  -2  679.52   10.57
   1   4   2  712.81    8.35
  -1  -4  -2  681.69   11.14
   1   4   2  732.20   12.49
  -1  -4  -2  701.38   12.24
   1   4   2  728.32   11.89
   1   4   2  710.42   10.58
  -1  -4  -2  701.87   12.61
  -1  -4  -2  707.18   10.68
  -1  -4  -2  722.11   11.29
  -1  -4  -3  206.82    4.91
   1   4   3  217.45    5.03
  -1  -4  -3  205.31    6.38
   1   4   3  232.38    7.80
   1   4   3  207.65    6.66
  -1  -4  -3  206.87    6.92
  -1  -4  -3  218.93    5.60
  -1  -4  -3  199.35    5.94
   1   4   3  216.37    6.70
  -1  -4  -3  210.84    7.15
   1   4   3  205.76    6.63
   1   4   3  210.96    6.52
  -1  -4  -3  207.47    6.38
  -1  -4  -3  218.18    7.23
  -1  -4  -3  218.18    6.46
   1   4   4   31.14    2.86
   1   4   4   33.56    3.39
  -1  -4  -4   31.42    2.65
  -1  -4  -4   29.85    2.06
   1   4   4   32.41    2.97
  -1  -4  -4   30.40    2.94
   1   4   4   32.10    3.01
  -1  -4  -4   29.23    2.53
  -1  -4  -4   28.70    2.93
   1   4   4   33.20    3.13
  -1  -4  -4   32.03    2.88
   1   4   4   33.22    2.82
   1   4   4   31.25    2.50
  -1  -4  -4   30.57    2.74
   1   4   4   32.66    2.90
  -1  -4  -4   33.74    2.49
   1   4   4   30.27    2.73
  -1  -4  -4   35.08    2.85
   1   4   5    2.71    0.78
   1   4   5    1.66    1.22
  -1  -4  -5    0.51    0.91
  -1  -4  -5    1.65    0.90
   1   4   5    3.27    1.06
   1   4   5    2.52    1.20
   1   4   5    2.25    1.32
   1   4   5    1.36    1.10
  -1  -4  -5    2.42    1.27
  -1  -4  -5    2.38    0.89
  -1  -4  -5    1.57    0.88
  -1  -4  -5    3.03    1.15
   1   4   5    1.52    0.90
  -1  -4  -5   10.52    1.93
   1   4   5    2.20    1.10
   1   4   5    1.86    0.84
   1   4   5    3.72    1.73
   1   4   6    8.62    1.76
  -1  -4  -6    9.09    1.79
   1   4   6    9.42    1.60
   1   4   6    9.70    1.73
   1   4   6    7.93    2.01
  -1  -4  -6    8.97    1.56
  -1  -4  -6   14.05    2.40
  -1  -4  -6    7.02    1.48
   1   4   6    8.68    1.76
   1   4   6    7.63    1.73
   1   4   6    8.43    2.38
  -1  -4  -6    6.16    1.47
   1   4   6    7.89    1.07
   1   4   6    8.09    1.70
   1   4   6    7.89    2.05
  -1  -4  -6    8.62    1.77
  -1  -4  -6    8.37    1.81
   1   4   7  129.70    6.52
   1   4   7  135.20    7.99
  -1  -4  -7  128.46    6.04
  -1  -4  -7  131.00    5.41
   1   4   7  133.33    6.89
   1   4   7  135.62    7.07
   1   4   7  135.82    6.73
  -1  -4  -7  129.86    5.82
   1   4   7  131.50    7.41
  -1  -4  -7  136.89    6.24
   1   4   7  132.42    3.81
   1   4   8    1.19    1.31
   1   4   8    0.88    1.37
  -1  -4  -8    0.51    1.06
   1   4   8    2.54    1.58
  -1  -4  -8    1.33    1.20
   1   4   8    2.01    0.42
   1   4   8   -0.32    1.12
   1   4   8    2.06    1.59
  -1  -4  -8    1.77    1.12
   1   4   8    1.57    1.34
   1   4   9    2.02    1.06
   1   4   9    3.76    1.52
   1   4   9    2.12    1.53
  -1  -4  -9    3.07    1.56
   1   4   9    6.32    2.74
   1   4   9    3.69    1.71
  -1  -4  -9    3.17    1.49
   1   4   9    3.89    1.60
  -1  -4 -10   26.86    3.54
   1   4  10   29.06    3.88
   1   4  10   25.85    3.67
  -1  -4 -10   21.25    2.91
   1   4  10   28.83    3.59
   1   4  10   22.24    3.35
   1   4  10   22.27    4.00
   1   4  10   28.76    4.57
   1   4  11    1.66    1.64
   1   4  11   -0.79    1.33
   1   4  11    2.91    1.87
  -1  -4 -11    1.12    1.07
   1   4  11    2.49    1.22
   1   4  11    3.64    2.01
   1   4  11   -1.23    1.80
   1   4  12    6.17    2.09
  -1  -5  14    8.72    2.84
   1   5 -13    1.86    1.99
  -1  -5  13    4.30    2.41
  -1  -5  13    6.26    2.05
  -1  -5  13    6.92    2.67
  -1  -5  13    5.56    1.99
   1   5 -13   18.05    2.86
   1   5 -13    3.32    1.79
  -1  -5  13    6.85    2.91
  -1  -5  13    4.74    2.02
  -1  -5  13    8.99    3.30
   1   5 -12    1.00    1.28
  -1  -5  12   -2.15    2.11
  -1  -5  12    0.65    1.87
  -1  -5  12    4.52    2.12
  -1  -5  12    0.03    1.58
  -1  -5  12    0.45    1.14
   1   5 -12   -0.92    1.88
   1   5 -12   -0.24    1.21
  -1  -5  12   -0.95    1.40
  -1  -5  12   -1.19    1.07
   1   5 -11   18.99    3.43
  -1  -5  11   16.28    3.17
  -1  -5  11   12.63    2.20
  -1  -5  11   13.19    2.99
  -1  -5  11   16.63    3.01
   1   5 -11   14.30    2.49
  -1  -5  11   17.08    2.71
  -1  -5  11   16.84    3.36
   1   5 -11   14.29    2.78
  -1  -5  11   20.37    3.75
   1   5 -10   33.08    4.31
   1   5 -10   33.06    3.96
  -1  -5  10   35.74    4.21
   1   5 -10   31.05    3.45
  -1  -5  10   29.50    3.16
  -1  -5  10   35.92    4.47
  -1  -5  10   30.76    4.19
  -1  -5  10   32.06    4.09
  -1  -5  10   32.80    3.41
  -1  -5  10   34.80    4.47
   1   5 -10   33.41    4.20
  -1  -5   9    3.33    1.90
  -1  -5   9    0.36    1.09
  -1  -5   9    2.31    1.28
  -1  -5   9    1.73    1.52
   1   5  -9    1.77    1.65
   1   5  -9    1.39    1.30
   1   5  -9    3.50    1.88
  -1  -5   9    1.83    0.95
  -1  -5   9    3.28    2.09
   1   5  -9    1.54    1.34
  -1  -5   8   80.06    5.89
  -1  -5   8   78.34    4.32
  -1  -5   8   76.63    5.84
  -1  -5   8   68.05    5.16
   1   5  -8   77.29    5.77
  -1  -5   8   68.94    4.44
   1   5  -8   73.68    5.20
  -1  -5   8   73.85    5.38
   1   5  -8   72.37    4.66
   1   5  -8   86.90    6.01
   1   5  -7  142.14    7.27
  -1  -5   7  125.18    6.50
  -1  -5   7  137.97    7.37
  -1  -5   7  131.24    6.87
  -1  -5   7  129.98    3.35
  -1  -5   7  125.09    5.87
  -1  -5   7  124.07    7.10
   1   5  -7  120.08    6.30
  -1  -5   7  123.81    6.51
  -1  -5   7  127.28    4.80
   1   5  -7  133.80    6.08
   1   5  -7  133.67    7.08
  -1  -5   6  309.85    9.90
  -1  -5   6  294.51    8.70
   1   5  -6  315.89   10.33
  -1  -5   6  296.60    9.49
   1   5  -6  243.25    9.33
   1   5  -6  302.80    9.81
  -1  -5   6  291.68   10.24
  -1  -5   6  301.06    6.46
  -1  -5   6  295.70    5.80
  -1  -5   6  305.05    9.39
  -1  -5   6  298.69    9.68
  -1  -5   6  302.56   10.12
  -1  -5   6  308.19    8.92
   1   5  -6  289.88    9.05
   1   5  -6  286.33    8.67
   1   5  -6  280.88    9.64
  -1  -5   5   77.53    1.89
   1   5  -5   84.43    5.20
  -1  -5   5   83.30    4.85
   1   5  -5   80.91    4.47
  -1  -5   5   80.18    4.53
   1   5  -5   79.21    4.95
   1   5  -5   95.08    5.20
   1   5  -5   83.92    3.31
  -1  -5   5   80.46    4.44
   1   5  -5   84.38    5.01
  -1  -5   5   87.75    5.06
  -1  -5   5   83.57    4.94
  -1  -5   5   87.40    5.45
   1   5  -5   81.75    4.65
  -1  -5   5   81.68    3.28
  -1  -5   4  949.14   15.90
   1   5  -4 1006.99   16.79
  -1  -5   4  957.99   15.68
   1   5  -4  975.43   16.41
  -1  -5   4  971.88   14.83
  -1  -5   4  948.37   15.99
   1   5  -4  946.44    7.37
   1   5  -4  956.93   11.96
   1   5  -4  979.99   16.19
   1   5  -4  945.17   14.98
   1   5  -4  904.28   14.48
  -1  -5   4  961.90   11.76
   1   5  -4  926.63   15.12
   1   5  -3    0.43    0.96
   1   5  -3    0.00    0.67
  -1  -5   3   -0.15    0.88
  -1  -5   3    0.35    0.70
  -1  -5   3   -0.22    0.80
   1   5  -3    0.01    0.15
   1   5  -3    1.73    1.19
  -1  -5   3   -0.07    0.65
   1   5  -2  200.65    6.32
   1   5  -2  223.52    6.35
  -1  -5   2  219.33    7.27
  -1  -5   2  208.31    7.13
  -1  -5   2  222.67    7.17
  -1  -5   2  220.16    6.07
  -1  -5   2  210.27    6.33
  -1  -5   1    0.43    0.81
  -1  -5   1    0.14    0.85
   1   5  -1    1.82    1.03
  -1  -5   1    0.34    0.59
  -1  -5   1    0.97    0.87
  -1  -5   1    0.31    0.68
   1   5  -1    0.77    0.65
  -1  -5   1   -0.35    0.78
  -1  -5   0    2.57    1.10
   1   5   0    2.13    0.86
  -1  -5   0    2.69    1.01
   1   5   0    3.51    1.14
   1   5   0    2.13    0.77
  -1  -5   0    1.75    0.86
  -1  -5   0    2.36    0.75
  -1  -5   0    2.60    1.01
  -1  -5   0    0.55    0.66
  -1  -5   0    2.82    1.02
  -1  -5   0    2.77    0.42
  -1  -5  -1   24.58    2.05
   1   5   1   23.72    1.89
  -1  -5  -1   25.63    2.60
  -1  -5  -1   28.08    2.48
  -1  -5  -1   28.13    2.79
   1   5   1   27.26    2.70
   1   5   1   25.86    2.29
  -1  -5  -1   27.31    2.59
  -1  -5  -1   26.22    2.33
  -1  -5  -1   25.23    1.55
  -1  -5  -1   27.81    2.36
   1   5   1   27.02    2.82
   1   5   1   28.75    2.80
   1   5   1   24.95    2.21
  -1  -5  -2   12.05    1.49
  -1  -5  -2   12.96    1.66
  -1  -5  -2    9.92    1.60
  -1  -5  -2   12.81    1.72
   1   5   2   12.46    1.68
  -1  -5  -2   11.93    1.89
   1   5   2   12.76    1.65
  -1  -5  -2   11.53    1.83
   1   5   2   10.01    1.30
   1   5   2   11.28    1.76
  -1  -5  -2   12.13    1.74
   1   5   2   11.76    1.87
   1   5   2   10.47    1.74
   1   5   2    9.30    1.82
  -1  -5  -2   11.49    1.91
   1   5   2   12.30    1.94
   1   5   3   48.00    3.18
  -1  -5  -3   46.50    3.32
   1   5   3   45.37    3.67
  -1  -5  -3   47.07    3.37
   1   5   3   45.71    3.74
   1   5   3   45.24    3.57
   1   5   3   48.24    3.17
   1   5   3   40.31    2.43
  -1  -5  -3   41.54    2.99
   1   5   3   44.43    3.60
  -1  -5  -3   46.09    3.68
  -1  -5  -3   43.40    3.61
   1   5   3   43.26    3.39
   1   5   3   44.22    3.28
   1   5   3   47.02    3.51
  -1  -5  -3   45.32    3.20
  -1  -5  -3   42.64    3.43
  -1  -5  -3   48.94    2.95
   1   5   4   35.64    3.20
  -1  -5  -4   34.64    3.31
   1   5   4   35.52    3.35
   1   5   4   32.60    2.39
   1   5   4   35.23    2.83
   1   5   4   34.12    3.25
  -1  -5  -4   30.58    2.83
   1   5   4   34.37    3.22
  -1  -5  -4   32.85    3.21
   1   5   4   34.37    3.56
  -1  -5  -4   32.36    2.78
  -1  -5  -4   32.83    3.25
  -1  -5  -4   34.85    2.43
   1   5   4   35.66    3.20
  -1  -5  -4   33.28    3.04
   1   5   4   36.58    3.12
  -1  -5  -4   34.81    2.67
  -1  -5  -4   32.66    2.82
   1   5   4   31.75    3.05
  -1  -5  -5   82.53    5.19
  -1  -5  -5   77.16    4.65
   1   5   5   69.52    4.76
  -1  -5  -5   83.70    4.45
   1   5   5   74.28    5.05
   1   5   5   83.21    5.05
  -1  -5  -5   76.70    4.35
  -1  -5  -5   82.10    5.07
   1   5   5   77.91    4.35
   1   5   5   80.54    5.70
   1   5   5   81.66    4.86
   1   5   5   91.38    5.33
   1   5   5   80.68    5.22
  -1  -5  -5   80.65    5.22
  -1  -5  -5   75.21    4.93
  -1  -5  -5   84.48    4.63
   1   5   6   53.97    4.32
   1   5   6   61.58    4.81
  -1  -5  -6   58.78    3.91
  -1  -5  -6   59.06    4.26
   1   5   6   55.76    4.52
   1   5   6   62.09    4.86
   1   5   6   65.12    4.68
   1   5   6   46.50    2.56
   1   5   6   61.14    5.27
  -1  -5  -6   67.06    4.25
   1   5   6   68.98    4.76
  -1  -5  -7    3.02    1.31
   1   5   7    2.49    1.35
   1   5   7    2.68    1.62
   1   5   7    1.59    1.41
   1   5   7    2.71    1.29
   1   5   7    2.28    0.64
   1   5   7    1.30    1.34
  -1  -5  -7    2.00    0.89
  -1  -5  -7    2.81    1.33
   1   5   7    3.91    1.92
   1   5   8   14.85    3.03
  -1  -5  -8   10.07    1.88
   1   5   8   17.20    2.92
   1   5   8   11.82    2.85
   1   5   8   17.73    2.98
   1   5   8    9.96    2.18
  -1  -5  -8   11.11    2.18
   1   5   8   11.16    2.25
   1   5   9   15.32    3.46
  -1  -5  -9   13.48    2.22
   1   5   9   15.96    3.00
  -1  -5  -9   18.35    2.93
  -1  -5  -9   15.07    2.52
   1   5   9   14.00    2.76
   1   5   9   17.70    3.43
   1   5   9   19.17    3.61
   1   5   9   16.40    2.87
   1   5  10   10.56    2.62
   1   5  10    5.43    1.79
  -1  -5 -10    7.52    1.95
   1   5  10    9.78    2.42
  -1  -5 -10    8.82    2.26
   1   5  10   14.97    3.50
   1   5  10   13.09    2.89
   1   5  10   11.89    3.05
   1   5  11   41.77    4.78
   1   5  11   44.09    4.96
   1   5  11   42.34    4.95
   1   5  11   42.67    4.81
   1   5  11   44.59    5.85
  -1  -6  13    5.04    2.38
   1   6 -13    7.94    3.12
  -1  -6  13    9.94    3.58
  -1  -6  13    7.53    2.38
  -1  -6  13   11.36    3.33
  -1  -6  13    9.12    2.99
   1   6 -12   -1.61    2.05
   1   6 -12   -0.34    1.33
  -1  -6  12    3.26    2.10
  -1  -6  12   -1.61    1.69
   1   6 -12    2.72    1.54
  -1  -6  12    4.87    2.54
  -1  -6  12    0.01    0.87
  -1  -6  12   -1.13    1.69
  -1  -6  12    3.46    2.36
   1   6 -11   11.91    2.69
  -1  -6  11   11.18    2.78
   1   6 -11   11.82    3.06
  -1  -6  11   11.85    3.10
  -1  -6  11   10.84    2.89
  -1  -6  11    9.14    2.00
  -1  -6  11   10.37    1.97
   1   6 -11   10.02    2.31
   1   6 -11   15.68    3.50
  -1  -6  11    9.83    2.72
  -1  -6  11    9.18    3.01
   1   6 -10    2.51    1.60
  -1  -6  10   -1.73    2.02
  -1  -6  10    1.19    1.65
  -1  -6  10    0.54    0.89
   1   6 -10   -1.36    1.75
  -1  -6  10    1.40    1.02
   1   6 -10    1.35    1.21
  -1  -6  10   -1.01    1.29
  -1  -6  10    0.94    1.63
   1   6 -10    2.04    1.83
  -1  -6   9   27.17    3.00
  -1  -6   9   31.41    2.82
  -1  -6   9   31.44    4.02
  -1  -6   9   24.95    3.58
   1   6  -9   23.97    3.62
  -1  -6   9   28.97    4.01
  -1  -6   9   29.19    3.94
   1   6  -9   26.00    3.67
   1   6  -9   26.37    3.18
   1   6  -9   27.14    3.93
   1   6  -8   89.15    5.52
  -1  -6   8   90.65    5.27
  -1  -6   8  102.39    6.74
  -1  -6   8   94.47    3.11
   1   6  -8   89.11    5.93
  -1  -6   8   91.07    6.65
  -1  -6   8   98.23    6.43
   1   6  -8  104.88    6.94
  -1  -6   8   92.13    6.55
  -1  -6   8   93.54    4.23
   1   6  -8   93.26    6.53
  -1  -6   7  143.12    7.90
  -1  -6   7  150.42    6.66
  -1  -6   7  155.99    7.59
   1   6  -7  152.54    8.02
  -1  -6   7  146.11    4.42
  -1  -6   7  152.62    8.09
   1   6  -7  139.07    7.01
   1   6  -7  152.93    6.91
   1   6  -7  144.93    7.58
  -1  -6   6   50.72    3.88
  -1  -6   6   52.11    4.94
   1   6  -6   52.16    4.45
   1   6  -6   52.55    2.95
   1   6  -6   57.43    4.80
   1   6  -6   49.06    4.13
  -1  -6   6   51.76    2.89
   1   6  -6   48.73    3.88
   1   6  -6   48.36    4.24
   1   6  -5  169.73    5.43
  -1  -6   5  178.39    7.18
  -1  -6   5  166.86    7.48
   1   6  -5  177.81    7.87
  -1  -6   5  161.68    5.34
   1   6  -5  170.52    7.67
  -1  -6   5  157.12    7.26
   1   6  -5  160.68    6.93
  -1  -6   5  156.09    2.67
   1   6  -5  168.00    6.90
   1   6  -5  151.94    7.00
  -1  -6   4   75.85    3.83
   1   6  -4   81.12    5.16
  -1  -6   4   83.20    5.11
   1   6  -4   85.93    5.19
   1   6  -4   74.54    4.66
   1   6  -4   83.74    5.27
  -1  -6   4   84.31    5.05
  -1  -6   4   77.22    4.97
   1   6  -4   83.22    4.00
   1   6  -4   75.58    2.02
  -1  -6   4   80.86    4.64
   1   6  -4   79.81    4.71
   1   6  -4   86.71    4.91
   1   6  -4   82.87    5.36
  -1  -6   3    8.59    1.43
   1   6  -3    9.71    1.80
  -1  -6   3   11.08    1.93
   1   6  -3   10.56    2.12
  -1  -6   3   10.76    1.93
  -1  -6   3   10.80    1.89
   1   6  -3    9.26    2.10
   1   6  -3   10.45    1.62
  -1  -6   3    9.67    1.75
   1   6  -3    8.88    1.82
   1   6  -3   10.29    2.07
  -1  -6   2   34.69    2.84
  -1  -6   2   38.04    3.38
   1   6  -2   35.19    2.86
  -1  -6   2   33.92    3.11
   1   6  -2   37.80    3.28
  -1  -6   2   32.96    2.80
  -1  -6   2   32.04    2.70
  -1  -6   2   42.36    3.53
   1   6  -2   32.67    1.30
   1   6  -2   33.42    2.83
  -1  -6   1  161.01    6.84
  -1  -6   1  153.69    5.84
  -1  -6   1  156.39    5.87
  -1  -6   1  162.40    6.66
  -1  -6   1  161.47    6.80
   1   6  -1  167.06    7.08
   1   6  -1  150.03    5.76
   1   6  -1  176.24    6.80
   1   6  -1  171.88    4.22
   1   6  -1  164.42    6.21
   1   6  -1  161.80    6.94
  -1  -6   1  163.67    5.85
   1   6  -1  153.02    6.65
  -1  -6   1  162.54    6.38
  -1  -6   0  177.17    7.23
   1   6   0  170.56    6.60
   1   6   0  161.78    5.37
  -1  -6   0  167.75    6.10
   1   6   0  174.90    7.06
  -1  -6   0  178.35    7.02
  -1  -6   0  179.60    7.20
   1   6   0  177.17    7.22
  -1  -6   0  179.11    6.74
   1   6   0  168.80    5.16
   1   6   0  159.48    5.73
  -1  -6   0  159.71    6.07
  -1  -6   0  168.68    5.58
  -1  -6   0  166.89    2.83
   1   6   0  174.45    7.22
  -1  -6   0  179.00    6.17
  -1  -6  -1   14.27    1.86
  -1  -6  -1   13.29    1.85
  -1  -6  -1   12.29    2.02
   1   6   1   14.42    1.79
   1   6   1   13.74    1.66
   1   6   1   16.70    2.23
  -1  -6  -1   13.18    1.71
   1   6   1   14.92    2.32
   1   6   1   15.05    2.19
  -1  -6  -1   11.69    1.87
  -1  -6  -1   13.14    2.04
   1   6   1   16.22    1.93
  -1  -6  -1   14.39    2.02
   1   6   1   13.42    2.12
  -1  -6  -1   13.48    1.95
  -1  -6  -1   13.58    1.18
  -1  -6  -2  108.05    5.00
  -1  -6  -2  111.32    5.07
   1   6   2  102.79    5.71
  -1  -6  -2  109.75    5.93
  -1  -6  -2  120.92    6.12
  -1  -6  -2  103.75    5.21
   1   6   2  104.92    4.19
  -1  -6  -2  115.20    4.01
  -1  -6  -2  115.61    5.88
  -1  -6  -2  114.46    5.16
   1   6   2  115.39    5.47
   1   6   2  108.95    4.82
   1   6   2  111.33    5.83
   1   6   2  115.01    5.70
   1   6   2  109.57    5.61
  -1  -6  -2  114.45    4.85
  -1  -6  -3    1.93    1.14
   1   6   3    2.86    1.48
  -1  -6  -3    3.25    1.22
  -1  -6  -3    2.24    1.14
  -1  -6  -3    2.32    1.03
  -1  -6  -3    2.39    0.97
   1   6   3    0.83    0.76
   1   6   3    2.51    1.25
  -1  -6  -3    1.34    0.83
   1   6   3   -0.24    1.14
   1   6   3    1.96    0.79
   1   6   3    1.03    1.19
  -1  -6  -3    3.88    1.46
   1   6   3    1.77    1.20
  -1  -6  -3    3.17    1.25
   1   6   3    2.12    1.00
   1   6   4   34.30    3.44
   1   6   4   37.37    2.70
  -1  -6  -4   38.91    3.48
   1   6   4   42.19    3.83
  -1  -6  -4   39.36    3.02
   1   6   4   42.37    3.99
  -1  -6  -4   35.23    3.11
   1   6   4   41.24    3.77
   1   6   4   38.51    3.62
  -1  -6  -4   39.98    3.50
  -1  -6  -4   44.42    3.27
   1   6   4   38.90    3.34
  -1  -6  -4   40.89    3.32
   1   6   5   29.72    3.48
  -1  -6  -5   24.25    2.90
  -1  -6  -5   32.43    3.05
   1   6   5   30.81    3.44
   1   6   5   27.80    2.94
   1   6   5   27.38    3.47
   1   6   5   32.01    3.41
  -1  -6  -5   31.28    2.98
   1   6   5   29.99    3.47
  -1  -6  -5   28.91    2.77
   1   6   5   29.72    3.31
  -1  -6  -5   31.44    3.13
   1   6   6    0.93    1.25
   1   6   6    0.51    1.25
   1   6   6   -0.46    1.14
   1   6   6   -0.35    1.17
  -1  -6  -6    0.12    0.72
  -1  -6  -6    0.72    1.05
   1   6   6    0.52    0.74
  -1  -6  -6    0.96    1.16
   1   6   6    1.82    0.78
   1   6   6    0.75    1.39
   1   6   6    1.51    1.59
   1   6   7   60.14    5.02
   1   6   7   58.33    5.01
   1   6   7   64.92    5.88
  -1  -6  -7   56.76    4.60
  -1  -6  -7   57.22    4.28
   1   6   7   58.78    5.11
   1   6   7   66.82    5.62
   1   6   7   61.95    4.97
   1   6   8    0.19    1.25
   1   6   8    1.16    1.43
   1   6   8    0.19    1.17
  -1  -6  -8    0.92    0.97
  -1  -6  -8    1.44    1.11
   1   6   8   -0.95    1.10
   1   6   8   -2.54    2.01
   1   6   8    1.63    1.88
   1   6   9    0.77    1.45
   1   6   9   -0.48    1.40
  -1  -6  -9    0.39    0.92
  -1  -6  -9   -1.70    1.31
   1   6   9    0.41    1.18
   1   6   9    1.86    1.83
   1   6   9    1.45    1.67
   1   6   9    2.41    2.30
   1   6  10   -1.04    1.26
   1   6  10    1.93    1.70
   1   6  10    1.30    1.45
   1   6  10   -0.06    1.54
  -1  -6 -10    0.14    1.34
   1   6  10    1.21    1.95
  -1  -7  13    1.15    1.54
   1   7 -13   -0.82    1.43
  -1  -7  13    2.91    1.73
  -1  -7  13    3.92    2.28
   1   7 -12   -3.14    1.79
  -1  -7  12   -6.78    2.60
  -1  -7  12   -0.35    1.74
   1   7 -12    3.66    2.25
  -1  -7  12   -0.48    1.54
  -1  -7  12    1.05    2.25
  -1  -7  12   -0.91    1.37
   1   7 -12   -4.15    2.19
   1   7 -12   -0.35    1.28
   1   7 -11    9.63    2.81
   1   7 -11    9.90    2.59
  -1  -7  11    6.72    1.91
  -1  -7  11    6.26    2.39
  -1  -7  11    4.04    2.03
   1   7 -11    7.66    2.12
  -1  -7  11   10.26    2.80
   1   7 -11    9.05    2.52
  -1  -7  11    7.94    2.68
  -1  -7  11   11.30    3.06
   1   7 -10    2.45    1.66
   1   7 -10    5.63    2.55
   1   7 -10    3.30    2.05
  -1  -7  10    2.60    1.79
  -1  -7  10    4.14    2.04
  -1  -7  10    2.91    1.25
   1   7 -10    4.13    1.62
  -1  -7  10    1.49    1.69
  -1  -7  10    4.63    2.21
   1   7  -9    2.33    1.57
  -1  -7   9    0.30    0.32
  -1  -7   9   -0.15    1.41
  -1  -7   9    0.53    0.95
  -1  -7   9    2.39    1.95
   1   7  -9    1.71    1.41
   1   7  -9    0.31    1.48
  -1  -7   9    1.55    1.66
  -1  -7   9    0.18    1.68
   1   7  -9    0.66    1.60
   1   7  -8   -0.30    1.26
  -1  -7   8    0.87    1.47
   1   7  -8    1.11    1.39
  -1  -7   8    0.01    0.47
  -1  -7   8    0.79    1.14
   1   7  -8   -0.04    1.10
  -1  -7   8   -0.55    1.27
   1   7  -8    0.62    1.69
  -1  -7   8   -0.86    1.75
   1   7  -7    3.30    1.54
   1   7  -7    4.68    1.81
   1   7  -7    6.38    2.12
  -1  -7   7    4.60    1.01
  -1  -7   7    3.68    1.31
  -1  -7   7    7.49    2.28
   1   7  -7    5.25    1.69
   1   7  -6    7.56    1.92
   1   7  -6    5.38    1.76
   1   7  -6    5.83    1.75
   1   7  -6    4.29    1.73
  -1  -7   6    6.08    1.30
   1   7  -6    5.55    1.20
  -1  -7   6    3.69    1.40
  -1  -7   6   10.86    2.92
   1   7  -6    2.28    1.70
  -1  -7   5  134.02    2.85
   1   7  -5  139.49    7.42
   1   7  -5  132.90    5.45
  -1  -7   5  130.71    5.41
   1   7  -5  143.72    7.66
   1   7  -5  135.97    3.20
   1   7  -5  131.17    6.61
   1   7  -5  126.21    6.57
   1   7  -5  130.54    6.80
  -1  -7   4   27.93    2.64
   1   7  -4   36.41    3.84
   1   7  -4   36.99    3.94
   1   7  -4   31.40    3.26
   1   7  -4   32.42    2.81
   1   7  -4   33.39    3.69
   1   7  -4   30.37    3.25
   1   7  -3   63.48    4.90
   1   7  -3   63.91    4.92
  -1  -7   3   51.44    3.61
   1   7  -3   59.35    3.94
   1   7  -3   53.87    4.04
   1   7  -3   55.61    4.55
   1   7  -3   55.29    4.21
  -1  -7   2   73.38    4.30
   1   7  -2   80.05    4.59
   1   7  -2   62.22    1.55
   1   7  -2   75.05    5.14
   1   7  -2   73.99    5.22
   1   7  -2   79.70    5.20
  -1  -7   2   75.12    4.46
  -1  -7   2   76.33    4.41
   1   7  -2   70.17    4.40
  -1  -7   1    0.31    0.91
  -1  -7   1    1.03    0.72
   1   7  -1    0.59    0.84
   1   7  -1   -0.63    1.23
   1   7  -1   -0.28    0.72
   1   7  -1    0.56    0.48
  -1  -7   1    0.38    0.91
   1   7  -1    2.22    1.32
   1   7  -1   -0.15    1.17
  -1  -7   0   62.59    3.90
   1   7   0   55.22    2.99
   1   7   0   60.51    4.73
   1   7   0   57.46    4.52
   1   7   0   50.75    4.27
  -1  -7   0   58.70    3.93
  -1  -7   0   55.41    1.58
  -1  -7   0   54.41    3.91
   1   7   0   60.27    3.59
   1   7   0   60.93    4.78
  -1  -7   0   59.32    3.69
   1   7   0   54.47    3.63
  -1  -7  -1   20.41    2.47
   1   7   1   20.26    2.11
   1   7   1   21.54    2.88
   1   7   1   24.65    3.03
   1   7   1   15.66    2.78
   1   7   1   20.62    2.14
   1   7   1   21.08    2.73
  -1  -7  -1   20.19    1.42
  -1  -7  -1   22.16    2.56
   1   7   1   21.88    3.01
  -1  -7  -1   21.59    2.37
  -1  -7  -1   22.40    2.40
   1   7   1   20.91    2.29
   1   7   2   10.84    2.24
  -1  -7  -2    2.72    0.94
  -1  -7  -2    2.34    1.05
   1   7   2    1.49    1.09
   1   7   2    2.38    1.59
   1   7   2    2.42    1.51
   1   7   2    3.56    1.08
   1   7   2    0.63    1.12
   1   7   2    2.41    1.10
  -1  -7  -2    1.63    1.04
  -1  -7  -2    3.44    1.21
   1   7   2    3.17    1.54
  -1  -7  -2    2.59    0.73
  -1  -7  -2    0.88    0.83
   1   7   3  181.46    6.86
  -1  -7  -3  201.62    7.13
   1   7   3  197.33    8.48
   1   7   3  201.78    8.31
   1   7   3  188.69    6.27
   1   7   3  196.12    8.36
  -1  -7  -3  178.46    7.07
   1   7   3  166.93    6.98
   1   7   3  187.05    7.67
   1   7   3  189.99    8.14
  -1  -7  -3  192.99    7.55
  -1  -7  -3  185.37    7.68
   1   7   3  197.69    7.63
  -1  -7  -3  185.38    7.14
   1   7   4   33.74    3.72
   1   7   4   31.17    2.66
   1   7   4   30.82    2.89
   1   7   4   37.44    3.82
  -1  -7  -4   35.15    3.30
  -1  -7  -4   37.32    3.01
  -1  -7  -4   38.45    3.68
  -1  -7  -4   34.52    3.44
   1   7   4   36.33    3.78
   1   7   4   40.20    3.85
   1   7   4   34.95    3.34
  -1  -7  -4   39.54    3.43
   1   7   4   36.12    3.78
  -1  -7  -4   35.42    3.16
   1   7   5    0.45    1.18
   1   7   5    0.12    1.10
  -1  -7  -5    0.58    0.98
   1   7   5   -1.49    1.48
  -1  -7  -5   -1.41    1.30
   1   7   5    0.40    1.16
   1   7   5   -1.35    1.41
   1   7   6   20.14    2.98
   1   7   6   19.18    3.01
   1   7   6   21.42    3.48
  -1  -7  -6   18.67    2.60
  -1  -7  -6   18.47    2.78
   1   7   6   16.65    2.86
   1   7   6   20.15    3.14
  -1  -7  -7   14.75    2.47
   1   7   7   13.28    2.69
  -1  -7  -7   14.04    2.54
   1   7   7   15.17    2.84
   1   7   7   11.89    2.79
   1   7   7   13.81    2.71
   1   7   8    0.61    1.47
   1   7   8    0.75    1.33
  -1  -7  -8    0.41    0.98
  -1  -7  -8   -0.12    1.12
   1   7   8    3.47    2.18
   1   7   8    0.05    1.44
   1   7   8    2.12    1.26
  -1  -7  -9   -0.04    1.08
   1   7   9    1.65    1.23
   1   7   9    2.09    1.60
   1   7   9    3.18    1.73
   1   7   9    4.51    2.35
   1   7   9    1.68    1.99
   1   7   9    0.73    1.38
  -1  -7  -9    3.30    1.57
  -1  -7 -10    4.32    1.74
   1   7  10    8.71    3.06
  -1  -8  12   11.36    2.96
   1   8 -12   10.16    2.34
  -1  -8  12   17.12    3.82
  -1  -8  12   12.33    3.49
  -1  -8  12    8.80    2.80
   1   8 -12   11.84    3.63
   1   8 -11    0.10    1.46
  -1  -8  11    0.90    1.48
   1   8 -11    0.71    1.04
  -1  -8  11    6.92    2.63
   1   8 -11   -0.65    2.10
   1   8 -11    2.57    2.08
  -1  -8  11   -1.00    1.53
  -1  -8  11    1.01    2.29
   1   8 -10    7.25    2.40
  -1  -8  10    3.69    1.46
   1   8 -10    3.77    2.26
  -1  -8  10    2.57    1.98
  -1  -8  10    5.26    2.18
   1   8 -10    8.70    2.78
  -1  -8  10    5.77    2.23
   1   8 -10    4.18    1.66
  -1  -8  10    6.63    2.44
   1   8  -9    8.40    2.39
  -1  -8   9    6.58    2.20
  -1  -8   9    7.22    1.94
  -1  -8   9    8.40    2.72
  -1  -8   9    3.06    1.92
   1   8  -9   10.01    2.70
   1   8  -9    7.98    2.64
  -1  -8   9    6.82    2.47
   1   8  -9    9.04    2.27
   1   8  -8    6.63    2.23
   1   8  -8   10.83    2.67
  -1  -8   8   10.87    2.61
  -1  -8   8    9.60    2.85
  -1  -8   8   10.02    1.53
  -1  -8   8   11.70    2.24
   1   8  -8   11.78    2.50
  -1  -8   8    9.31    2.66
   1   8  -8    8.06    2.47
   1   8  -7    2.34    1.57
  -1  -8   7    0.54    1.11
  -1  -8   7    4.73    2.31
   1   8  -7    3.55    1.99
   1   8  -7    2.14    1.56
  -1  -8   7    1.53    0.98
   1   8  -7   -0.02    1.08
   1   8  -6   -1.64    1.69
   1   8  -6   -1.04    1.36
  -1  -8   6    0.69    1.43
   1   8  -6    0.04    0.68
   1   8  -6   -0.24    0.42
  -1  -8   6    0.69    0.76
   1   8  -6   -0.70    1.27
   1   8  -6   -0.99    1.33
   1   8  -6   -1.50    2.02
  -1  -8   5   33.10    3.01
   1   8  -5   35.18    4.13
   1   8  -5   37.21    4.30
   1   8  -5   29.08    3.55
   1   8  -5   37.06    4.04
   1   8  -4    4.46    1.49
   1   8  -4   10.82    2.19
   1   8  -4    7.81    2.35
   1   8  -4    8.84    2.45
  -1  -8   4    5.74    1.45
   1   8  -4    5.56    1.79
   1   8  -3   50.20    4.71
  -1  -8   3   46.26    3.73
   1   8  -3   49.74    4.81
  -1  -8   3   48.79    3.95
   1   8  -3   51.29    4.67
   1   8  -3   47.16    4.01
   1   8  -3   50.48    4.13
  -1  -8   2    1.72    1.05
   1   8  -2    1.71    1.23
   1   8  -2    1.65    1.46
   1   8  -2    1.15    1.44
   1   8  -2    0.29    1.43
  -1  -8   2    0.78    1.06
  -1  -8   1    4.31    1.35
  -1  -8   1    3.66    1.26
   1   8  -1    2.96    1.20
   1   8  -1    5.63    2.00
   1   8  -1    3.72    0.67
   1   8  -1    3.26    1.21
   1   8  -1    1.84    1.32
   1   8  -1    3.87    1.79
  -1  -8   1    3.46    1.30
  -1  -8   1    6.17    1.49
  -1  -8   0    8.70    1.76
  -1  -8   0    9.19    1.69
   1   8   0   10.77    2.27
  -1  -8   0    7.23    1.59
   1   8   0    7.48    1.59
   1   8   0   10.32    1.40
   1   8   0    7.27    1.61
   1   8   0    9.89    2.37
  -1  -8   0    7.32    1.52
   1   8   0   12.32    2.62
  -1  -8  -1    1.53    0.99
  -1  -8  -1    0.36    1.06
   1   8   1    0.66    1.45
  -1  -8  -1   -1.28    1.29
   1   8   1   -0.08    0.87
   1   8   1   -2.05    1.62
   1   8   1    0.16    0.89
   1   8   1    0.77    0.97
   1   8   1    1.05    0.83
   1   8   1   -0.74    1.31
  -1  -8  -1    0.32    0.34
  -1  -8  -1   -0.42    0.79
  -1  -8  -2   18.53    2.39
   1   8   2   17.81    2.20
   1   8   2   15.21    2.81
   1   8   2   13.72    2.64
   1   8   2   15.68    2.76
   1   8   2   17.37    2.26
   1   8   2   14.63    2.09
   1   8   2   17.51    2.69
  -1  -8  -2   15.35    2.30
  -1  -8  -2   19.29    1.68
  -1  -8  -2   19.30    2.75
  -1  -8  -2   16.09    2.31
  -1  -8  -2   18.65    2.39
  -1  -8  -3    9.63    1.97
   1   8   3   13.33    1.94
   1   8   3   10.85    1.84
  -1  -8  -3    9.63    2.04
   1   8   3    7.11    2.07
  -1  -8  -3    7.00    1.60
   1   8   3    9.42    2.02
   1   8   3   11.73    2.54
   1   8   3    7.28    1.81
   1   8   3   10.10    1.98
   1   8   3    6.97    1.83
   1   8   3    9.90    1.87
   1   8   4   10.74    2.61
   1   8   4   14.04    2.03
  -1  -8  -4   12.06    2.41
   1   8   4   10.61    2.37
   1   8   4   12.84    2.56
  -1  -8  -4   15.44    2.03
  -1  -8  -4   11.88    2.11
   1   8   4   12.39    2.50
   1   8   4   12.58    2.36
   1   8   4    8.41    1.77
  -1  -8  -5    4.22    1.49
   1   8   5    3.49    1.54
   1   8   5    0.84    1.23
  -1  -8  -5    3.11    1.43
   1   8   5    6.18    1.52
   1   8   5    5.93    2.04
   1   8   5    3.15    1.68
   1   8   5    7.91    2.24
   1   8   6   14.99    2.87
   1   8   6   15.17    2.91
   1   8   6   13.66    2.73
  -1  -8  -6   13.40    2.55
  -1  -8  -6   18.01    2.70
   1   8   6   11.41    2.59
   1   8   6   12.88    2.72
   1   8   7   22.85    3.57
  -1  -8  -7   21.88    3.28
   1   8   7   20.08    3.33
   1   8   7   22.14    3.49
   1   8   7   17.57    3.22
   1   8   7   38.71    5.62
  -1  -8  -7   16.56    2.71
  -1  -8  -8   -2.18    1.41
   1   8   8    1.67    1.34
   1   8   8    0.24    1.40
   1   8   8    1.85    1.63
  -1  -8  -8   -3.13    1.64
   1   8   8   -0.16    1.43
   1   8   8    1.71    1.86
   1   8   9   19.77    3.73
  -1  -8  -9   11.19    2.65
   1   8   9   12.01    2.79
   1   8   9   10.37    2.86
  -1  -9  12    0.98    1.63
   1   9 -11   26.86    4.85
   1   9 -11   21.30    3.63
  -1  -9  11   19.61    4.11
  -1  -9  11   23.83    4.32
  -1  -9  11   23.90    4.34
   1   9 -10    8.67    2.59
  -1  -9  10    5.18    2.29
   1   9 -10    7.92    2.96
   1   9 -10    9.73    2.64
  -1  -9  10    4.63    2.45
  -1  -9  10    9.57    2.14
   1   9 -10    6.99    2.59
  -1  -9  10    4.41    2.05
  -1  -9  10    7.99    3.00
   1   9  -9   37.50    4.90
  -1  -9   9   33.59    3.83
  -1  -9   9   34.53    5.01
  -1  -9   9   34.36    4.93
   1   9  -9   43.53    5.57
   1   9  -9   35.83    4.40
  -1  -9   9   47.95    5.32
  -1  -9   9   40.08    5.22
   1   9  -9   30.85    4.22
   1   9  -8   12.98    3.04
  -1  -9   8   16.06    3.21
   1   9  -8    7.71    2.05
   1   9  -8   12.43    3.27
  -1  -9   8   10.99    2.45
  -1  -9   8   10.34    1.72
   1   9  -8   10.08    2.52
  -1  -9   8    9.07    2.97
   1   9  -7    0.19    1.39
   1   9  -7    1.63    1.34
   1   9  -7    1.61    1.63
   1   9  -7    1.44    1.98
   1   9  -7    1.24    1.50
  -1  -9   7   -1.83    1.32
  -1  -9   7    2.73    2.28
  -1  -9   7   -0.07    0.64
   1   9  -6    1.46    1.38
  -1  -9   6    1.28    1.53
   1   9  -6    0.72    1.30
   1   9  -6    1.21    1.70
  -1  -9   6    0.80    0.81
   1   9  -6   -0.68    1.42
   1   9  -5   45.06    5.11
   1   9  -5   61.09    5.69
  -1  -9   5   47.43    3.92
   1   9  -5   48.21    4.67
   1   9  -5   52.63    4.89
   1   9  -4    0.57    1.60
   1   9  -4    0.78    1.31
   1   9  -4    0.70    1.14
  -1  -9   4   -0.84    1.37
   1   9  -4   -0.95    1.83
   1   9  -4   -0.64    1.41
  -1  -9   3   47.57    4.01
   1   9  -3   54.92    5.44
   1   9  -3   55.32    5.26
  -1  -9   3   50.76    4.39
   1   9  -3   62.96    5.17
   1   9  -3   42.07    4.02
   1   9  -3   47.55    4.92
   1   9  -2    8.66    2.35
   1   9  -2    9.95    2.60
   1   9  -2    8.75    2.23
   1   9  -2    5.46    1.64
  -1  -9   2    7.67    1.96
   1   9  -2    6.80    1.73
  -1  -9   2    7.93    1.90
  -1  -9   1    0.11    0.98
   1   9  -1    0.81    1.42
   1   9  -1    0.05    0.98
   1   9  -1    1.72    0.52
   1   9  -1    0.28    1.52
  -1  -9   1    3.46    1.57
   1   9  -1   -0.70    1.62
   1   9  -1   -1.06    1.22
  -1  -9   1    0.14    0.71
  -1  -9   0    7.19    1.85
  -1  -9   0    6.90    1.63
   1   9   0    7.34    1.71
  -1  -9   0    6.36    1.79
   1   9   0    9.99    2.32
   1   9   0    6.58    2.02
   1   9   0    7.85    2.25
   1   9   0    8.67    2.06
   1   9   0    6.00    1.06
   1   9   0    9.31    1.89
   1   9   1  152.33    8.60
  -1  -9  -1  135.01    7.18
   1   9   1  137.16    6.26
   1   9   1  130.28    5.47
   1   9   1  155.98    8.47
  -1  -9  -1  138.85    6.76
   1   9   1  135.89    7.42
  -1  -9  -1  131.22    6.90
   1   9   1  151.48    8.43
   1   9   1  134.40    6.37
   1   9   2   35.15    3.44
   1   9   2   40.37    4.51
  -1  -9  -2   37.27    3.73
   1   9   2   45.28    4.84
  -1  -9  -2   41.53    4.14
   1   9   2   38.75    3.41
   1   9   2   35.68    3.22
   1   9   2   40.42    4.59
   1   9   2   38.97    4.17
  -1  -9  -3   17.94    2.70
   1   9   3   18.81    3.27
   1   9   3   23.27    3.58
   1   9   3   16.97    2.30
   1   9   3   18.63    3.11
   1   9   3   17.52    2.58
  -1  -9  -3   19.90    2.95
   1   9   3   16.80    2.33
   1   9   3   14.94    2.67
   1   9   4    3.86    1.68
  -1  -9  -4    1.37    1.11
   1   9   4    2.10    1.67
   1   9   4    1.44    1.47
   1   9   4    2.13    1.01
   1   9   4    1.96    1.33
  -1  -9  -4    1.91    1.32
   1   9   4    0.63    1.22
   1   9   5    4.67    2.00
  -1  -9  -5    4.98    1.71
   1   9   5    6.21    2.21
   1   9   5    7.24    2.21
   1   9   5    7.00    2.30
  -1  -9  -5    2.46    1.38
   1   9   5    6.04    1.97
   1   9   6    0.83    1.35
  -1  -9  -6    1.48    1.33
   1   9   6    0.27    1.33
  -1  -9  -6    0.07    1.22
   1   9   6    0.86    1.26
   1   9   6   -0.13    1.38
   1   9   6   -0.41    1.30
   1   9   7   10.81    2.81
   1   9   7   12.06    2.88
   1   9   7    7.54    2.36
  -1  -9  -7    7.21    2.04
   1   9   7   13.33    2.95
   1   9   7    8.57    2.57
  -1  -9  -7    9.63    2.27
   1   9   8    4.92    2.06
   1   9   8    4.78    2.01
   1   9   8    2.42    1.71
   1   9   8    3.36    1.87
   1  10 -10    9.82    3.10
   1  10 -10   11.98    2.92
  -1 -10  10   10.51    2.96
   1  10 -10   16.25    4.04
   1  10 -10   10.77    2.76
  -1 -10  10   11.18    3.27
  -1 -10  10    7.66    2.71
  -1 -10  10   11.46    3.21
   1  10  -9   13.71    3.35
   1  10  -9    7.69    2.30
  -1 -10   9   12.19    3.26
  -1 -10   9    9.31    3.05
   1  10  -9   17.14    3.88
  -1 -10   9   15.40    3.71
   1  10  -9   13.29    2.95
  -1 -10   9    7.75    2.16
  -1 -10   9    7.57    3.03
   1  10  -8    4.76    2.20
   1  10  -8    4.19    2.02
  -1 -10   8    0.01    1.29
  -1 -10   8   11.70    3.54
  -1 -10   8    4.67    1.31
   1  10  -8    7.06    3.00
   1  10  -7    2.43    1.83
   1  10  -7    1.90    1.36
   1  10  -7    0.68    1.62
   1  10  -7    1.01    2.04
  -1 -10   7    4.37    1.97
  -1 -10   7    2.49    1.13
  -1 -10   7    8.29    3.13
   1  10  -6    8.53    2.41
   1  10  -6    7.36    2.34
  -1 -10   6   12.67    2.90
   1  10  -6    5.92    2.64
   1  10  -6   11.05    3.14
  -1 -10   6    5.05    1.42
   1  10  -5    5.06    1.77
   1  10  -5    5.04    1.97
  -1 -10   5    7.92    1.87
   1  10  -5    7.56    2.57
   1  10  -5    8.48    2.63
  -1 -10   4    5.99    1.84
   1  10  -4    8.83    2.17
   1  10  -4    9.10    2.44
   1  10  -4    7.77    2.83
  -1 -10   4    6.58    1.95
   1  10  -4   12.34    2.78
   1  10  -4   10.46    2.94
  -1 -10   3   -1.00    1.13
   1  10  -3    1.68    1.49
   1  10  -3    2.30    2.05
   1  10  -3    0.20    1.21
   1  10  -3    0.80    1.75
  -1 -10   3   -0.62    1.02
   1  10  -3    2.14    1.74
   1  10  -2   75.62    6.51
   1  10  -2   75.56    6.66
   1  10  -2   72.50    6.50
   1  10  -2   56.49    4.70
  -1 -10   2   62.31    4.97
   1  10  -2   55.70    4.61
  -1 -10   2   63.98    5.20
   1  10  -2   73.72    5.39
   1  10  -1  107.11    7.75
  -1 -10   1   90.99    6.18
   1  10  -1   95.74    5.81
   1  10  -1  106.22    7.70
   1  10  -1  108.07    7.63
  -1 -10   1   94.18    6.22
   1  10  -1  101.82    6.53
   1  10  -1   83.97    5.49
   1  10   0   49.07    5.45
   1  10   0   48.05    5.28
   1  10   0   51.69    5.47
  -1 -10   0   48.67    4.61
   1  10   0   43.73    3.90
   1  10   0   43.74    3.95
  -1 -10   0   50.50    4.67
   1  10   0   51.13    4.82
   1  10   1  178.37   10.01
   1  10   1  173.70    9.56
   1  10   1  170.13    7.39
  -1 -10  -1  160.61    8.41
   1  10   1  171.85    6.38
   1  10   1  181.30    9.99
  -1 -10  -1  177.03    8.48
   1  10   1  166.45    8.82
   1  10   1  170.96    7.45
   1  10   2    1.56    1.05
   1  10   2    2.87    1.96
   1  10   2   -1.72    1.94
   1  10   2    4.64    2.09
   1  10   2    2.03    1.17
   1  10   2    2.48    1.28
  -1 -10  -2    4.92    2.00
  -1 -10  -2    1.78    1.26
   1  10   2    1.16    0.77
   1  10   3    2.38    1.41
  -1 -10  -3    5.51    1.84
  -1 -10  -3    0.76    1.14
   1  10   3    2.48    1.51
   1  10   3    0.89    1.38
   1  10   3    3.31    1.31
   1  10   3    3.34    1.95
   1  10   3    1.92    0.82
   1  10   3    4.85    1.47
   1  10   4    0.38    1.29
  -1 -10  -4    2.62    1.45
   1  10   4    0.77    1.46
   1  10   4    0.24    1.20
   1  10   4    0.34    1.74
  -1 -10  -4    0.33    0.96
   1  10   4   -1.15    1.09
  -1 -10  -5    4.21    1.69
   1  10   5    3.30    1.77
  -1 -10  -5    1.44    1.47
   1  10   5    3.86    1.80
   1  10   5    5.06    2.15
   1  10   5    4.42    2.00
   1  10   5    0.53    1.60
   1  10   6   10.49    2.91
   1  10   6    9.90    2.67
   1  10   6    8.74    2.29
  -1 -10  -6    8.42    2.10
   1  10   6   11.22    2.85
   1  10   7   -0.39    1.57
   1  10   7   -0.28    1.49
   1  10   7   -3.53    2.20
   1  11  -9    1.69    1.79
   1  11  -8   12.46    3.22
   1  11  -8   10.66    2.84
  -1 -11   8    8.05    2.48
  -1 -11   8   10.18    3.24
   1  11  -8   13.52    3.74
   1  11  -7   25.67    4.17
   1  11  -7   23.41    4.40
  -1 -11   7   25.34    3.92
  -1 -11   7   24.92    3.20
   1  11  -7   29.96    4.77
   1  11  -7   30.04    4.38
  -1 -11   7   48.28    6.40
   1  11  -6    6.70    2.23
  -1 -11   6   14.10    3.26
   1  11  -6   10.86    3.36
  -1 -11   6    5.40    1.55
   1  11  -6    8.89    2.66
   1  11  -6   11.80    3.28
   1  11  -5   -0.14    1.32
   1  11  -5    0.92    1.38
   1  11  -5    0.03    1.54
   1  11  -5    0.48    1.73
  -1 -11   5    0.79    1.14
  -1 -11   5    1.79    1.42
   1  11  -4    2.26    1.44
   1  11  -4    1.07    1.66
   1  11  -4    1.14    1.73
   1  11  -4    1.82    1.81
   1  11  -4    3.65    2.11
  -1 -11   4    1.92    1.18
  -1 -11   4   -0.13    1.39
  -1 -11   3    0.79    1.21
   1  11  -3    1.61    1.30
   1  11  -3    0.96    1.78
   1  11  -3    2.30    1.60
  -1 -11   3    0.80    1.07
   1  11  -3    3.74    1.96
   1  11  -3    2.02    1.81
   1  11  -3    3.12    2.07
  -1 -11   2    6.88    2.12
   1  11  -2    7.25    2.05
   1  11  -2   11.76    3.55
   1  11  -2    8.32    2.05
   1  11  -2    4.58    2.00
   1  11  -2    8.56    2.95
   1  11  -2   12.62    3.20
  -1 -11   2    8.42    2.25
   1  11  -2    9.23    2.26
   1  11  -1   49.95    5.85
  -1 -11   1   45.39    4.72
   1  11  -1   53.60    5.82
   1  11  -1   48.14    5.65
  -1 -11   1   45.14    4.66
   1  11  -1   48.58    4.48
   1  11  -1   47.14    4.83
   1  11  -1   44.40    4.13
   1  11  -1   43.04    4.36
  -1 -11   0   13.64    2.83
   1  11   0   14.08    3.48
   1  11   0   14.67    2.40
   1  11   0   15.59    3.54
   1  11   0   19.74    3.75
  -1 -11   0   10.39    2.62
   1  11   0   15.81    2.60
   1  11   0   12.41    2.63
  -1 -11  -1   13.53    2.78
   1  11   1   10.94    2.11
   1  11   1   11.36    3.06
   1  11   1    9.62    2.01
   1  11   1   11.57    3.08
  -1 -11  -1   14.38    2.89
   1  11   1   18.17    3.78
   1  11   1   10.14    2.41
   1  11   2   15.07    3.34
  -1 -11  -2   13.63    2.70
   1  11   2   12.74    3.12
  -1 -11  -2   12.75    2.66
   1  11   2   17.39    3.55
   1  11   2   27.67    4.15
   1  11   3   -0.15    1.27
  -1 -11  -3    0.76    1.47
   1  11   3    1.00    1.71
   1  11   3   -0.34    1.75
  -1 -11  -3    2.94    1.44
   1  11   3   -1.30    1.64
  -1 -11  -4    3.59    1.64
   1  11   4    7.81    2.77
   1  11   4    2.80    1.86
   1  11   4    6.09    2.47
   1  11   5    7.97    2.62
  -1 -11  -5    7.91    2.25
   1  11   5    3.95    1.92
   1  11   5    9.11    2.54
  -1 -12   7    5.12    1.98
   1  12  -7    5.65    2.39
   1  12  -7    3.13    1.98
   1  12  -6    7.08    2.56
   1  12  -6    0.30    1.61
  -1 -12   6    6.32    2.23
  -1 -12   6    0.33    1.25
  -1 -12   5   -0.65    1.53
   1  12  -5   -0.52    1.43
   1  12  -5    1.79    1.73
   1  12  -5    1.82    2.15
  -1 -12   5    0.21    1.27
   1  12  -5    2.78    2.10
  -1 -12   4    0.13    1.15
   1  12  -4    1.35    1.70
   1  12  -4    2.11    2.31
   1  12  -4   -4.23    2.52
   1  12  -4    1.36    1.70
  -1 -12   4    1.79    1.48
   1  12  -4    2.17    1.48
   1  12  -4   -1.02    1.62
   1  12  -3    2.60    1.52
   1  12  -3    9.87    2.69
   1  12  -3    6.92    2.06
   1  12  -3    4.61    2.06
  -1 -12   3    5.55    2.06
   1  12  -3    5.58    2.47
   1  12  -3    9.14    3.11
   1  12  -3    5.36    2.85
  -1 -12   3    7.06    2.22
  -1 -12   2    6.19    1.83
   1  12  -2    6.36    2.13
   1  12  -2    8.85    2.97
   1  12  -2    5.32    1.53
   1  12  -2    6.41    2.60
   1  12  -2    9.79    2.46
  -1 -12   2    7.24    2.22
   1  12  -2    5.67    2.49
   1  12  -2    6.59    2.16
   1  12  -1   24.44    3.47
   1  12  -1   27.17    3.60
   1  12  -1   28.87    3.51
  -1 -12   1   23.84    3.64
  -1 -12   1   24.22    3.73
   1  12  -1   30.22    4.99
   1  12  -1   26.71    4.79
   1  12  -1   23.12    3.57
   1  12  -1   19.87    4.09
   1  12   0   34.89    5.14
   1  12   0   32.23    5.00
  -1 -12   0   28.52    4.04
  -1 -12   0   32.17    4.24
   1  12   0   27.60    4.62
   1  12   0   28.16    4.01
  -1 -12  -1    0.15    0.99
   1  12   1    5.98    2.58
   1  12   1    4.15    2.28
   1  12   1    5.68    2.47
   1  12   1    1.04    1.35
  -1 -12  -2   29.63    3.96
   1  12   2   25.88    4.58
   1  12   2   24.68    4.44
   1  12   2   24.64    4.28
  -1 -12  -3    0.92    1.33
   1  13  -6    0.47    1.82
   1  13  -6   -0.41    1.64
   1  13  -5    4.20    2.03
   1  13  -5    5.09    2.23
   1  13  -5    8.41    2.54
   1  13  -5    4.49    2.06
  -1 -13   5    3.07    1.67
   1  13  -4    6.29    2.05
   1  13  -4    9.74    2.64
   1  13  -4    9.60    2.76
   1  13  -4    6.58    2.34
  -1 -13   4    4.19    1.81
   1  13  -3   10.59    2.63
   1  13  -3    7.67    2.28
  -2  13   1    6.06    2.73
   2 -13   0    1.42    1.78
  -2  13   0   -0.84    1.89
  -2  13   0    2.00    1.77
   2 -13   1   -2.50    1.77
  -2  13  -1    2.13    1.54
  -2  12   3   -3.34    1.97
   2 -12  -2    1.87    1.28
  -2  12   2   -2.09    1.69
  -2  12   2   -1.62    1.65
  -2  12   2    2.29    2.01
  -2  12   2    0.69    1.54
   2 -12  -1    0.08    1.25
  -2  12   1    5.20    2.46
  -2  12   1   -0.28    1.25
  -2  12   1    0.20    1.44
  -2  12   1    2.40    1.62
   2 -12   0   12.26    2.56
   2 -12   0   11.09    2.80
  -2  12   0   11.95    3.07
  -2  12   0   19.68    3.78
  -2  12   0   12.35    2.53
  -2  12  -1    0.69    1.46
   2 -12   1    1.94    1.80
  -2  12  -1   -0.98    1.35
   2 -12   1   -1.12    1.30
  -2  12  -2   -0.84    1.23
   2 -12   2    0.81    1.29
  -2  12  -2    1.16    2.24
  -2  12  -2    0.63    0.90
  -2  12  -3    2.10    1.59
   2 -12   3    4.26    2.08
  -2  12  -3    3.48    2.32
   2 -12   3   -0.32    2.00
   2 -12   4    6.05    2.12
  -2  12  -4    2.36    1.77
   2 -12   4    3.57    2.21
  -2  12  -4    6.14    2.24
  -2  12  -4    7.98    2.99
   2 -12   5    3.43    2.01
   2 -12   6   23.82    3.78
   2 -12   7    2.09    1.59
  -2  11   6    0.57    1.65
  -2  11   5    0.72    1.74
  -2  11   4   22.31    3.88
  -2  11   4   24.16    3.70
   2 -11  -4   24.53    3.85
  -2  11   3    0.15    1.47
  -2  11   3    1.31    1.67
   2 -11  -3    2.49    1.81
  -2  11   3   -0.08    1.34
  -2  11   3    1.14    1.27
   2 -11  -2    1.34    0.97
  -2  11   2    2.84    1.69
  -2  11   2    0.52    1.40
   2 -11  -2    1.65    1.28
  -2  11   2    0.07    1.46
  -2  11   2   -0.31    1.41
   2 -11  -1   -1.21    1.25
  -2  11   1    2.88    1.63
  -2  11   1    0.02    1.38
  -2  11   1   -0.66    1.40
   2 -11  -1   -0.60    1.42
  -2  11   1   -0.97    1.71
   2 -11   0    0.62    1.11
  -2  11   0   -1.34    1.78
   2 -11   0    0.23    1.32
  -2  11   0    0.35    1.18
  -2  11   0    2.71    1.96
  -2  11   0    1.08    1.55
  -2  11  -1   13.23    2.90
  -2  11  -1   13.62    2.45
  -2  11  -1   13.99    3.38
   2 -11   1   16.76    3.23
  -2  11  -2   -0.74    0.80
   2 -11   2   -0.78    1.32
  -2  11  -2   -1.86    1.45
  -2  11  -2    1.93    1.79
   2 -11   3    6.97    2.09
  -2  11  -3    9.10    1.87
  -2  11  -3   10.39    2.86
  -2  11  -3    8.56    2.70
  -2  11  -3    6.69    2.29
  -2  11  -3    9.42    2.02
  -2  11  -4   11.79    2.39
  -2  11  -4    8.21    1.86
  -2  11  -4   10.36    2.88
   2 -11   4   10.43    2.50
  -2  11  -4   12.82    3.56
   2 -11   4   12.63    3.09
  -2  11  -4    5.25    1.98
  -2  11  -5   37.25    4.17
   2 -11   5   32.23    4.07
  -2  11  -5   32.81    4.96
  -2  11  -5   31.13    4.47
   2 -11   5   32.22    4.82
  -2  11  -5   35.36    3.89
  -2  11  -5   31.96    4.40
  -2  11  -6    5.18    1.97
  -2  11  -6    0.60    1.24
  -2  11  -6    2.63    2.03
  -2  11  -6    2.46    1.81
   2 -11   6    4.14    2.54
  -2  11  -6    5.56    2.26
   2 -11   6    4.37    1.96
  -2  11  -7   21.93    3.50
  -2  11  -7   23.50    3.72
   2 -11   7   20.41    3.12
  -2  11  -8   -0.43    1.99
  -2  11  -8    2.29    1.91
   2 -10  -7    2.48    1.60
  -2  10   7    6.84    2.53
  -2  10   7    5.50    1.92
   2 -10  -6   36.28    4.44
  -2  10   6   31.54    4.38
  -2  10   6   25.38    3.83
  -2  10   6   31.13    4.29
  -2  10   5    2.44    1.82
   2 -10  -5    0.32    1.44
  -2  10   5    3.82    1.59
  -2  10   5   -0.24    1.36
   2 -10  -4    1.65    1.12
  -2  10   4    3.80    1.87
  -2  10   4    1.04    1.16
  -2  10   4    0.95    1.31
   2 -10  -4    2.00    1.41
  -2  10   4    1.09    1.32
  -2  10   3   26.60    3.57
  -2  10   3   26.24    3.83
  -2  10   3   22.89    3.29
  -2  10   3   24.68    3.54
   2 -10  -3   24.25    2.89
   2 -10  -3   27.91    3.88
  -2  10   2   53.02    4.91
   2 -10  -2   51.96    5.09
  -2  10   2   46.42    4.85
  -2  10   2   50.04    4.98
   2 -10  -2   47.25    4.00
  -2  10   2   55.33    4.97
   2 -10  -1    1.60    1.22
  -2  10   1    0.72    1.49
  -2  10   1    0.30    1.06
  -2  10   1    1.79    1.56
  -2  10   1    0.06    1.33
   2 -10  -1    0.36    1.16
  -2  10   0   17.40    3.20
  -2  10   0   20.32    3.32
  -2  10   0   16.94    2.75
   2 -10   0   17.55    3.15
  -2  10   0   18.24    2.42
  -2  10   0   17.26    3.23
  -2  10  -1   29.26    3.35
  -2  10  -1   31.05    4.04
  -2  10  -1   37.10    4.57
  -2  10  -1   33.14    3.01
   2 -10   1   33.27    4.06
  -2  10  -1   30.45    2.51
  -2  10  -2    3.66    1.28
  -2  10  -2    2.94    1.08
  -2  10  -2    3.96    1.95
  -2  10  -2    0.86    1.65
   2 -10   2    0.69    1.10
  -2  10  -2    4.36    1.51
  -2  10  -2    1.55    1.38
  -2  10  -2    0.08    1.05
  -2  10  -3   13.82    2.14
  -2  10  -3   18.09    3.88
  -2  10  -3   15.41    3.13
   2 -10   3   13.05    2.49
  -2  10  -3   16.07    2.96
  -2  10  -3   15.58    2.45
  -2  10  -3   13.95    2.03
  -2  10  -3   15.28    2.19
  -2  10  -4    7.85    1.96
  -2  10  -4    7.40    1.87
   2 -10   4    4.95    2.21
  -2  10  -4    7.16    2.48
  -2  10  -4    6.67    2.44
   2 -10   4    6.81    2.13
  -2  10  -4    5.85    2.08
  -2  10  -4    6.56    1.49
  -2  10  -4    5.07    1.29
   2 -10   5   60.09    5.21
  -2  10  -5   64.84    4.33
  -2  10  -5   61.57    5.97
   2 -10   5   70.86    6.72
  -2  10  -5   70.47    5.48
  -2  10  -5   74.21    7.04
  -2  10  -5   64.91    5.07
  -2  10  -5   60.71    5.67
  -2  10  -6   17.44    2.94
  -2  10  -6   18.64    3.32
   2 -10   6   14.48    2.70
  -2  10  -6   15.19    3.69
   2 -10   6   14.16    3.44
  -2  10  -6   19.33    3.24
  -2  10  -6   16.92    2.31
  -2  10  -7    1.38    1.37
  -2  10  -7    2.62    1.79
  -2  10  -7    0.77    1.74
   2 -10   7    5.10    3.52
   2 -10   7    3.95    1.61
  -2  10  -7    3.64    2.18
  -2  10  -8   -0.40    1.25
  -2  10  -8    2.48    2.34
   2 -10   8   -0.48    1.88
   2 -10   8   -0.39    1.47
  -2  10  -8   -1.43    1.78
   2 -10   8   -1.27    1.17
   2 -10   8    1.80    1.63
  -2  10  -8   -0.97    1.85
  -2  10  -9    8.20    2.44
   2 -10   9   14.76    3.12
  -2  10  -9   14.03    3.26
   2  -9  -9   -0.82    1.21
   2  -9  -8    2.24    1.66
  -2   9   8    2.27    1.99
  -2   9   7    2.62    1.74
   2  -9  -7    1.71    1.66
  -2   9   7    2.14    1.50
  -2   9   7    2.50    1.65
  -2   9   6   16.89    3.11
  -2   9   6   15.69    3.08
  -2   9   6    9.76    2.27
   2  -9  -6   16.55    3.00
   2  -9  -5    3.39    1.13
  -2   9   5    2.20    1.27
  -2   9   5    1.63    1.44
   2  -9  -5    1.84    1.57
  -2   9   5    5.40    1.61
  -2   9   5    0.57    1.18
  -2   9   5    2.24    1.57
  -2   9   5    1.53    1.17
   2  -9  -4   28.42    2.84
  -2   9   4   27.09    3.31
  -2   9   4   25.01    3.42
  -2   9   4   30.30    3.37
   2  -9  -4   22.65    3.46
  -2   9   4   28.03    3.65
  -2   9   4   35.37    3.81
  -2   9   4   28.92    3.50
   2  -9  -3    4.70    1.34
   2  -9  -3    4.18    1.58
  -2   9   3    4.96    1.68
  -2   9   3    4.10    1.73
  -2   9   3    4.35    1.90
  -2   9   3    7.46    2.04
   2  -9  -2    0.55    1.06
  -2   9   2    1.46    1.35
  -2   9   2    0.88    1.22
   2  -9  -2   -0.29    1.11
  -2   9   2    0.43    1.24
  -2   9   2    0.74    1.23
  -2   9   1    0.54    0.36
  -2   9   1    0.78    1.16
  -2   9   1    0.75    0.46
  -2   9   1    0.04    1.18
   2  -9  -1    0.35    1.15
  -2   9   1    0.18    1.17
   2  -9  -1   -0.61    0.90
  -2   9   1    1.54    1.26
  -2   9   1   -0.20    0.96
   2  -9  -1    0.71    0.87
   2  -9   0   13.16    2.53
  -2   9   0   15.00    2.74
  -2   9   0   19.74    3.07
  -2   9   0   14.93    2.78
  -2   9   0   17.45    2.66
  -2   9   0   18.28    2.28
  -2   9   0   18.59    1.79
  -2   9   0   15.86    1.53
  -2   9  -1    8.29    1.39
   2  -9   1   11.10    1.85
   2  -9   1    7.53    1.99
  -2   9  -1    5.37    1.90
  -2   9  -1    9.54    2.23
  -2   9  -1    8.35    1.54
  -2   9  -1   10.65    2.22
  -2   9  -1    7.63    1.71
   2  -9   2   37.87    2.93
   2  -9   2   36.01    3.96
  -2   9  -2   38.55    4.39
  -2   9  -2   40.51    4.54
   2  -9   2   32.89    4.06
  -2   9  -2   39.53    3.35
  -2   9  -2   39.64    3.14
  -2   9  -2   37.80    3.03
  -2   9  -2   40.80    3.32
  -2   9  -2   43.16    4.14
  -2   9  -3    8.79    1.77
  -2   9  -3    5.94    1.32
   2  -9   3    6.83    1.87
   2  -9   3    8.58    2.41
  -2   9  -3    8.55    2.39
  -2   9  -3    7.82    1.52
   2  -9   3    5.18    1.99
  -2   9  -3    7.72    2.31
  -2   9  -3    7.10    1.43
  -2   9  -3    8.61    1.99
  -2   9  -4    7.51    1.85
  -2   9  -4    7.26    1.65
  -2   9  -4    8.87    2.25
   2  -9   4    7.28    2.09
   2  -9   4    7.97    2.45
  -2   9  -4    7.89    2.54
   2  -9   4    8.56    2.33
  -2   9  -4   10.15    2.53
  -2   9  -4    8.66    1.78
  -2   9  -4    7.87    1.43
  -2   9  -5    4.84    1.68
  -2   9  -5    5.62    1.66
  -2   9  -5    3.95    0.94
  -2   9  -5    4.03    1.26
   2  -9   5    3.42    1.69
   2  -9   5    5.81    1.90
   2  -9   5    4.33    1.94
  -2   9  -5    6.63    2.89
  -2   9  -5    2.56    1.46
   2  -9   6   39.60    2.99
   2  -9   6   39.40    5.00
  -2   9  -6   40.52    5.39
   2  -9   6   39.98    4.95
  -2   9  -6   37.27    3.45
   2  -9   6   36.96    3.88
  -2   9  -6   37.11    3.92
  -2   9  -6   39.63    4.47
  -2   9  -6   39.93    4.30
   2  -9   7   44.84    4.10
   2  -9   7   49.16    5.55
   2  -9   7   50.57    5.79
  -2   9  -7   43.26    5.67
  -2   9  -7   45.98    3.97
  -2   9  -7   47.72    4.71
  -2   9  -7   43.54    4.84
  -2   9  -7   47.86    4.90
   2  -9   8   31.15    3.42
   2  -9   8   34.52    4.12
  -2   9  -8   26.15    4.67
   2  -9   8   34.18    4.89
  -2   9  -8   27.97    3.32
   2  -9   8   28.99    4.04
  -2   9  -8   30.20    4.00
  -2   9  -8   35.26    4.43
  -2   9  -8   30.82    4.24
   2  -9   9    5.87    2.12
  -2   9  -9    9.53    3.78
  -2   9  -9    7.41    2.21
   2  -9   9    8.62    3.00
  -2   9  -9    3.17    1.47
  -2   9  -9    5.55    2.30
   2  -9   9    5.70    2.08
  -2   9 -10   -0.07    1.32
  -2   9 -10    1.63    2.13
   2  -8  -9   31.61    3.87
  -2   8   9   33.19    4.82
  -2   8   8   26.61    4.22
  -2   8   8   25.16    3.79
   2  -8  -8   27.29    3.58
   2  -8  -7   -0.58    0.99
  -2   8   7    0.44    1.44
  -2   8   7    1.77    1.75
  -2   8   7    1.55    1.63
  -2   8   6    0.87    1.21
   2  -8  -6    2.05    1.27
   2  -8  -6    0.37    0.70
  -2   8   6    1.96    1.43
  -2   8   6    2.00    1.24
  -2   8   6    0.53    0.81
  -2   8   6    2.22    1.34
  -2   8   6    1.27    1.42
  -2   8   5   31.88    3.19
  -2   8   5   24.54    3.49
  -2   8   5   30.01    3.25
  -2   8   5   24.11    3.27
   2  -8  -5   26.73    2.46
   2  -8  -5   22.29    3.14
  -2   8   5   24.59    3.26
  -2   8   5   29.13    3.10
  -2   8   4    7.94    1.99
   2  -8  -4    7.04    1.43
  -2   8   4    3.85    1.44
  -2   8   4    6.19    1.97
   2  -8  -4    3.96    1.42
  -2   8   4    8.51    1.76
   2  -8  -4    6.71    1.67
  -2   8   4    5.65    1.18
  -2   8   4    8.26    2.11
  -2   8   4    5.10    1.71
   2  -8  -4    8.82    1.64
  -2   8   3   27.17    3.08
  -2   8   3   24.26    3.04
  -2   8   3   22.53    2.49
  -2   8   3   24.00    3.22
  -2   8   3   25.65    3.07
  -2   8   3   23.42    2.89
   2  -8  -3   24.77    2.81
   2  -8  -3   24.99    2.92
  -2   8   3   24.53    2.87
   2  -8  -3   24.68    2.49
   2  -8  -3   21.62    3.02
   2  -8  -3   25.19    2.73
   2  -8  -3   25.75    2.61
  -2   8   2   19.49    2.73
   2  -8  -2   18.35    2.48
  -2   8   2   16.35    2.50
   2  -8  -2   17.41    2.51
   2  -8  -2   14.38    2.43
   2  -8  -2   16.20    2.40
  -2   8   2   18.54    2.58
  -2   8   2   18.40    2.41
   2  -8  -2   17.56    2.15
   2  -8  -2   19.19    2.54
  -2   8   2   17.10    2.80
   2  -8  -2   15.24    2.08
   2  -8  -2   20.02    2.36
  -2   8   2   18.88    2.48
  -2   8   1  469.56   11.88
   2  -8  -1  460.29   13.10
  -2   8   1  470.44   13.41
  -2   8   1  505.04   13.03
  -2   8   1  480.25   13.17
   2  -8  -1  476.91   10.56
   2  -8  -1  512.92   11.43
  -2   8   1  491.83   11.10
  -2   8   1  478.76    6.72
  -2   8   1  469.18    6.07
   2  -8   0   71.38    4.30
  -2   8   0   68.15    5.27
  -2   8   0   66.14    4.01
  -2   8   0   65.60    4.29
   2  -8   0   72.07    5.12
  -2   8   0   67.09    5.05
  -2   8   0   69.91    5.08
   2  -8   0   60.39    4.85
   2  -8   0   72.83    3.85
  -2   8   0   62.77    2.87
  -2   8   0   70.46    3.25
  -2   8   0   66.34    4.57
  -2   8  -1    0.11    0.56
   2  -8   1    1.45    0.91
  -2   8  -1    2.26    1.50
   2  -8   1    0.95    1.09
  -2   8  -1    0.96    1.15
  -2   8  -1   -0.22    0.82
   2  -8   1    0.23    0.59
   2  -8   1   -0.83    1.24
  -2   8  -1    1.20    0.98
  -2   8  -1    0.51    1.45
  -2   8  -2   -0.50    0.80
   2  -8   2    0.75    0.72
  -2   8  -2   -0.62    1.49
  -2   8  -2    0.21    0.70
  -2   8  -2    0.20    1.56
  -2   8  -2   -0.77    1.27
   2  -8   2   -0.35    0.51
   2  -8   2    0.12    1.25
  -2   8  -2   -0.24    0.87
   2  -8   2    0.59    1.11
  -2   8  -3   92.32    5.10
  -2   8  -3   85.86    6.10
   2  -8   3   91.49    6.37
  -2   8  -3   92.69    4.72
  -2   8  -3   90.87    6.55
   2  -8   3   85.06    6.09
  -2   8  -3   90.53    4.32
   2  -8   3   77.70    5.31
  -2   8  -3   82.86    4.62
   2  -8   3   88.11    2.96
  -2   8  -3   90.84    5.88
  -2   8  -4   13.87    2.14
  -2   8  -4   12.06    2.79
  -2   8  -4   12.26    2.18
   2  -8   4   12.72    1.11
   2  -8   4    8.90    2.34
  -2   8  -4   12.56    2.33
   2  -8   4   14.45    2.84
   2  -8   4   10.18    2.03
  -2   8  -4   11.89    1.98
  -2   8  -4   13.97    1.61
   2  -8   5   32.60    3.41
   2  -8   5   37.75    4.53
  -2   8  -5   40.24    4.84
   2  -8   5   37.57    4.37
   2  -8   5   39.46    2.06
  -2   8  -5   38.39    3.33
  -2   8  -5   32.73    3.44
  -2   8  -5   36.56    2.37
  -2   8  -5   44.65    4.39
  -2   8  -5   37.64    3.84
  -2   8  -6   13.72    2.43
   2  -8   6   13.68    1.58
   2  -8   6   13.77    2.27
   2  -8   6   15.69    1.51
   2  -8   6   14.53    2.99
  -2   8  -6   13.96    1.33
   2  -8   6   18.72    3.57
  -2   8  -6   14.29    2.25
  -2   8  -6   20.71    3.83
  -2   8  -6   14.98    2.81
  -2   8  -7    8.16    2.22
   2  -8   7    8.45    2.23
   2  -8   7   14.78    3.44
  -2   8  -7    8.16    2.80
   2  -8   7    9.00    1.92
  -2   8  -7    5.55    1.97
   2  -8   7    6.29    2.39
  -2   8  -8    8.07    2.32
  -2   8  -8   11.33    2.52
   2  -8   8    6.88    2.48
   2  -8   8    8.21    1.80
  -2   8  -8   10.34    3.11
   2  -8   8    7.32    2.56
   2  -8   8    8.09    2.01
   2  -8   8    9.39    2.28
  -2   8  -9    8.67    2.65
   2  -8   9    7.72    2.11
   2  -8   9    7.21    1.64
  -2   8  -9    7.93    2.45
   2  -8   9    1.21    1.66
   2  -8   9    9.39    3.13
   2  -8   9    5.05    1.67
   2  -8  10    2.50    2.22
  -2   8 -10    2.28    1.66
   2  -8  10    1.42    2.22
   2  -8  10    3.83    1.59
  -2   8 -10    2.65    2.13
   2  -7 -10    8.06    2.79
   2  -7 -10   11.23    2.32
  -2   7  10    5.87    2.28
  -2   7   9    9.03    2.32
   2  -7  -9    3.81    1.42
  -2   7   9    9.70    2.70
  -2   7   8    3.07    1.64
   2  -7  -8    2.92    1.46
  -2   7   8    5.58    2.30
  -2   7   7    2.15    1.02
  -2   7   7    0.18    0.80
  -2   7   7    1.02    1.71
  -2   7   7    0.29    1.20
  -2   7   7   -0.92    1.52
  -2   7   7    1.05    1.02
   2  -7  -7   -0.65    1.18
  -2   7   6   32.99    2.96
   2  -7  -6   35.06    3.66
  -2   7   6   34.39    3.04
  -2   7   6   34.21    3.89
  -2   7   6   31.53    3.92
  -2   7   6   30.00    3.71
  -2   7   6   36.32    3.04
   2  -7  -6   30.96    2.30
   2  -7  -5    5.83    1.13
  -2   7   5    6.72    1.51
   2  -7  -5    3.06    1.22
  -2   7   5    4.47    0.92
  -2   7   5    5.26    1.81
   2  -7  -5    4.55    1.58
  -2   7   5    5.42    1.77
  -2   7   5    7.89    1.56
   2  -7  -5    4.91    1.18
   2  -7  -5    5.74    1.20
  -2   7   5    3.71    1.23
   2  -7  -5    4.73    1.26
  -2   7   5    6.40    1.69
  -2   7   4   32.09    3.38
  -2   7   4   35.31    3.09
   2  -7  -4   32.91    2.97
  -2   7   4   35.19    3.02
   2  -7  -4   35.28    3.55
   2  -7  -4   33.56    2.87
   2  -7  -4   31.55    2.44
  -2   7   4   30.04    3.37
  -2   7   4   32.47    3.56
   2  -7  -4   30.82    2.81
   2  -7  -4   32.08    2.65
  -2   7   4   40.43    3.37
  -2   7   3   74.81    4.64
  -2   7   3   73.08    4.82
   2  -7  -3   74.89    4.40
  -2   7   3   78.77    4.80
   2  -7  -3   73.45    4.42
   2  -7  -3   71.65    4.97
   2  -7  -3   67.04    4.04
  -2   7   3   81.27    4.69
  -2   7   3   70.56    4.00
   2  -7  -3   70.40    3.67
   2  -7  -3   83.40    5.27
   2  -7  -3   76.94    4.50
  -2   7   3   73.60    4.78
  -2   7   3   81.68    4.69
   2  -7  -3   75.00    4.05
  -2   7   3   70.35    5.01
   2  -7  -2   46.30    3.35
  -2   7   2   51.12    3.56
  -2   7   2   44.63    3.64
   2  -7  -2   43.25    3.90
   2  -7  -2   45.01    3.39
  -2   7   2   46.08    4.05
   2  -7  -2   46.06    3.56
   2  -7  -2   48.16    3.64
  -2   7   2   47.54    3.64
  -2   7   2   44.91    3.69
   2  -7  -2   45.74    3.88
   2  -7  -2   46.70    3.10
   2  -7  -2   49.59    3.72
   2  -7  -2   46.22    3.38
  -2   7   2   49.85    3.62
  -2   7   1   28.45    2.82
   2  -7  -1   33.50    2.98
  -2   7   1   30.61    3.14
  -2   7   1   31.65    3.15
  -2   7   1   29.51    1.52
  -2   7   1   32.67    3.02
  -2   7   1   30.56    3.38
   2  -7  -1   31.23    2.91
   2  -7  -1   32.12    2.74
   2  -7  -1   28.68    3.13
  -2   7   1   29.09    1.39
   2  -7  -1   29.03    2.98
   2  -7  -1   33.88    2.81
   2  -7  -1   31.78    3.05
   2  -7  -1   33.92    3.39
  -2   7   1   27.99    2.65
   2  -7  -1   29.94    2.73
  -2   7   1   29.21    2.75
  -2   7   0  174.30    6.33
   2  -7   0  189.31    6.62
  -2   7   0  189.98    7.83
   2  -7   0  191.58    7.69
  -2   7   0  205.78    7.68
  -2   7   0  198.40    7.81
   2  -7   0  182.52    7.61
   2  -7   0  183.83    7.78
   2  -7   0  194.24    6.03
  -2   7   0  194.04    8.14
   2  -7   0  189.13    7.35
  -2   7   0  175.77    6.09
  -2   7   0  185.29    4.53
   2  -7   0  186.91    7.51
   2  -7   0  188.90    6.95
  -2   7   0  188.74    4.89
  -2   7   0  191.54    7.06
  -2   7  -1  248.72    7.21
   2  -7   1  271.24    7.38
  -2   7  -1  283.86    9.89
   2  -7   1  266.22    9.39
  -2   7  -1  254.65    9.44
   2  -7   1  266.62    8.48
   2  -7   1  276.90    9.49
   2  -7   1  271.96    9.24
   2  -7   1  271.53    9.65
   2  -7   1  249.16    8.80
   2  -7   1  271.81    6.56
  -2   7  -1  255.03    7.21
  -2   7  -1  270.97    6.42
  -2   7  -1  271.78    8.74
  -2   7  -1  266.89    6.81
  -2   7  -2    4.67    1.11
  -2   7  -2    3.06    1.30
   2  -7   2    2.58    1.12
   2  -7   2    3.09    1.27
  -2   7  -2    4.90    1.81
   2  -7   2    4.15    1.04
  -2   7  -2    4.76    1.58
  -2   7  -2    1.55    0.71
   2  -7   2    4.15    0.94
  -2   7  -2    3.58    1.09
  -2   7  -3   52.10    4.76
  -2   7  -3   52.81    4.19
   2  -7   3   51.66    4.00
  -2   7  -3   50.46    2.86
   2  -7   3   51.66    4.57
   2  -7   3   53.68    4.56
   2  -7   3   55.12    2.66
  -2   7  -3   52.71    3.60
  -2   7  -3   58.49    3.73
  -2   7  -3   54.84    3.83
   2  -7   4   64.74    5.15
  -2   7  -4   67.19    5.62
   2  -7   4   54.40    4.12
   2  -7   4   66.64    5.41
  -2   7  -4   62.20    3.97
  -2   7  -4   58.93    4.59
  -2   7  -4   58.56    2.81
  -2   7  -4   56.19    4.11
   2  -7   4   61.12    4.25
  -2   7  -5    5.44    1.56
  -2   7  -5    5.37    0.85
   2  -7   5    4.43    1.82
  -2   7  -5    2.85    1.76
   2  -7   5    5.33    1.47
   2  -7   5    4.59    1.05
   2  -7   5    4.10    1.83
  -2   7  -5    3.56    1.48
  -2   7  -5    4.76    1.42
  -2   7  -6   15.26    2.62
   2  -7   6   15.84    1.38
  -2   7  -6   13.16    2.96
   2  -7   6   14.85    2.88
  -2   7  -6   11.94    2.33
  -2   7  -6   14.53    1.07
   2  -7   6   14.64    1.77
   2  -7   6   12.19    2.02
   2  -7   6   13.63    2.92
  -2   7  -7   16.33    2.75
   2  -7   7   18.44    2.80
  -2   7  -7   13.92    2.67
   2  -7   7   18.09    3.40
   2  -7   7   20.65    2.33
   2  -7   7   17.06    2.27
   2  -7   7   18.11    3.20
   2  -7   7   11.54    2.34
   2  -7   7   14.57    0.97
  -2   7  -7   18.93    3.61
  -2   7  -8   18.02    3.10
   2  -7   8   18.17    2.37
  -2   7  -8   23.41    4.09
   2  -7   8   12.92    2.97
   2  -7   8   23.53    3.93
   2  -7   8   18.09    2.33
   2  -7   8   17.43    2.76
   2  -7   8   18.68    2.75
  -2   7  -8   20.31    3.25
   2  -7   9   16.42    2.23
  -2   7  -9   26.39    4.20
   2  -7   9   21.79    3.13
  -2   7  -9   21.04    3.48
   2  -7   9   18.05    3.69
   2  -7   9   15.20    3.47
   2  -7   9   17.73    2.85
  -2   7 -10   24.64    4.06
   2  -7  10   29.38    4.85
   2  -7  10   20.03    3.56
   2  -7  10   14.37    3.55
  -2   7 -10   17.05    3.29
   2  -7  10   20.19    3.07
   2  -7  10   21.66    3.26
   2  -7  11    5.02    2.20
   2  -7  11    9.09    3.43
  -2   7 -11    6.61    2.30
   2  -7  11    3.01    2.31
  -2   7 -11    7.09    2.50
   2  -6 -11   16.91    3.69
  -2   6  10    6.29    2.11
  -2   6  10    6.97    2.70
   2  -6 -10    4.98    2.32
   2  -6 -10    6.55    1.73
  -2   6   9   14.43    2.79
   2  -6  -9   12.80    2.19
  -2   6   9   15.34    3.37
  -2   6   8    6.63    2.31
   2  -6  -8    4.24    1.56
  -2   6   8    7.16    2.20
  -2   6   7    1.04    1.10
  -2   6   7    1.79    1.12
   2  -6  -7    0.20    1.02
  -2   6   7    2.00    1.52
   2  -6  -7    1.67    0.59
  -2   6   6    7.08    1.97
  -2   6   6    3.35    1.35
   2  -6  -6    6.35    1.69
   2  -6  -6    7.14    1.34
   2  -6  -6    7.16    1.25
   2  -6  -6    8.75    1.14
  -2   6   6    7.33    2.01
   2  -6  -6    7.82    1.17
   2  -6  -6    7.48    1.34
   2  -6  -6    4.88    0.54
  -2   6   5  180.40    4.70
  -2   6   5  169.71    7.55
  -2   6   5  178.36    7.98
   2  -6  -5  178.28    5.97
   2  -6  -5  175.90    7.40
   2  -6  -5  181.26    5.91
  -2   6   5  179.01    8.23
   2  -6  -5  167.32    4.74
   2  -6  -5  179.82    5.74
   2  -6  -5  157.38    4.94
   2  -6  -4   23.24    2.79
  -2   6   4   21.71    2.80
  -2   6   4   20.30    2.58
   2  -6  -4   24.92    2.37
  -2   6   4   20.13    1.84
   2  -6  -4   25.74    3.06
   2  -6  -4   20.16    1.79
   2  -6  -4   22.00    1.94
   2  -6  -4   21.93    2.47
   2  -6  -4   21.49    2.06
   2  -6  -4   23.38    2.22
  -2   6   4   20.03    2.73
   2  -6  -3   25.56    2.35
  -2   6   3   26.43    2.74
   2  -6  -3   27.35    2.97
  -2   6   3   27.17    3.06
   2  -6  -3   28.94    3.02
   2  -6  -3   30.29    2.47
   2  -6  -3   21.94    2.40
   2  -6  -3   28.41    2.16
  -2   6   3   26.50    2.89
   2  -6  -3   28.15    2.69
  -2   6   3   27.31    2.82
   2  -6  -3   26.67    2.48
   2  -6  -3   25.80    2.18
   2  -6  -2   -0.43    0.79
   2  -6  -2   -0.41    0.72
   2  -6  -2   -0.34    0.79
  -2   6   2    1.11    1.02
   2  -6  -2    0.15    1.00
   2  -6  -2    0.28    0.59
   2  -6  -2   -0.09    0.69
  -2   6   2    0.57    0.87
   2  -6  -2    0.56    0.82
   2  -6  -2   -0.07    0.99
   2  -6  -2   -0.16    0.70
   2  -6  -1    8.19    1.49
   2  -6  -1    8.21    1.47
   2  -6  -1    7.87    1.71
   2  -6  -1    7.49    1.51
   2  -6  -1    9.04    1.45
  -2   6   1    8.66    1.51
   2  -6  -1    8.91    1.52
  -2   6   1    8.39    1.55
  -2   6   1    7.46    1.74
   2  -6  -1    8.93    1.49
   2  -6  -1    8.14    1.52
   2  -6  -1    7.90    1.81
  -2   6   1    7.58    1.39
  -2   6   1    8.08    1.49
  -2   6   1    6.62    0.67
  -2   6   1    6.86    0.63
   2  -6   0  264.05    7.35
  -2   6   0  267.36    8.55
   2  -6   0  269.55    8.40
   2  -6   0  241.85    8.19
  -2   6   0  271.03    8.18
  -2   6   0  250.62    8.57
  -2   6   0  274.12    8.33
   2  -6   0  265.60    8.10
   2  -6   0  248.61    8.25
   2  -6   0  265.48    8.27
   2  -6   0  266.66    6.86
  -2   6   0  257.44    7.00
  -2   6   0  253.51    6.89
   2  -6   0  278.37    7.72
  -2   6   0  267.56    5.00
  -2   6   0  274.63    7.78
  -2   6   0  259.50    5.28
  -2   6  -1  334.15    7.39
   2  -6   1  345.07    7.81
  -2   6  -1  358.12   10.51
   2  -6   1  332.81    9.80
  -2   6  -1  337.45   10.14
   2  -6   1  310.71    9.58
   2  -6   1  350.61    9.77
  -2   6  -1  372.85    9.91
  -2   6  -1  342.11    9.14
  -2   6  -1  343.71    8.08
   2  -6   1  377.48    9.35
   2  -6   1  353.93    9.96
   2  -6   1  317.49    9.17
  -2   6  -1  338.05    6.79
  -2   6  -1  343.08    7.31
   2  -6   1  357.58    7.49
   2  -6   2    9.48    1.44
   2  -6   2    9.13    1.33
   2  -6   2   10.54    1.89
   2  -6   2    9.18    1.74
   2  -6   2    9.19    1.26
   2  -6   2    8.30    1.75
  -2   6  -2    8.09    1.97
  -2   6  -2   11.68    2.33
   2  -6   2    9.32    1.75
  -2   6  -2    8.40    1.15
  -2   6  -2   11.61    1.96
   2  -6   2   11.45    2.27
  -2   6  -2   11.40    1.96
  -2   6  -2    9.52    1.53
   2  -6   2   17.02    2.20
   2  -6   2    2.06    1.85
   2  -6   3   -0.07    0.70
  -2   6  -3    0.25    0.42
  -2   6  -3    0.10    1.20
   2  -6   3   -0.48    1.05
   2  -6   3    0.13    0.88
  -2   6  -3   -0.74    0.82
  -2   6  -3   -0.04    1.02
   2  -6   3   -0.78    1.43
   2  -6   3    0.23    1.02
   2  -6   3    1.14    0.95
   2  -6   3   -0.61    1.02
  -2   6  -4    6.27    1.55
   2  -6   4    6.03    1.51
   2  -6   4    4.98    1.73
  -2   6  -4    5.46    2.08
   2  -6   4    6.03    1.99
   2  -6   4    3.82    1.35
  -2   6  -4    6.19    0.82
  -2   6  -4    5.97    1.67
  -2   6  -5    3.21    1.40
  -2   6  -5    3.26    0.52
   2  -6   5    2.36    0.56
  -2   6  -5    2.35    1.67
   2  -6   5    2.47    1.30
   2  -6   5    3.34    1.63
  -2   6  -5    1.74    1.19
   2  -6   5    3.68    1.61
   2  -6   6   61.62    5.43
   2  -6   6   60.70    1.83
   2  -6   6   67.74    4.43
   2  -6   6   63.04    4.46
   2  -6   6   60.49    3.95
  -2   6  -6   75.28    6.13
  -2   6  -6   60.03    4.75
  -2   6  -6   63.25    4.90
   2  -6   6   58.67    5.01
  -2   6  -7   30.31    4.26
  -2   6  -7   29.77    3.64
   2  -6   7   28.50    3.70
   2  -6   7   26.79    3.84
   2  -6   7   26.70    3.10
   2  -6   7   32.68    3.24
   2  -6   7   25.83    2.58
   2  -6   7   32.76    3.06
   2  -6   7   33.54    3.30
  -2   6  -7   31.64    3.61
  -2   6  -8   -0.92    1.49
  -2   6  -8    0.38    1.11
   2  -6   8    0.25    0.64
   2  -6   8    1.67    2.14
   2  -6   8    0.57    1.11
   2  -6   8    1.38    1.48
   2  -6   8    1.29    1.27
   2  -6   8   -0.13    1.29
  -2   6  -9    7.24    2.30
   2  -6   9   11.31    2.83
  -2   6  -9    5.92    2.00
   2  -6   9    6.38    2.41
   2  -6   9    7.97    1.90
   2  -6   9    5.73    2.06
   2  -6   9    6.17    1.70
   2  -6   9    9.29    2.17
   2  -6   9    6.36    1.36
   2  -6  10   23.81    3.15
   2  -6  10   23.26    3.70
   2  -6  10   29.93    4.55
   2  -6  10   29.26    4.66
   2  -6  10   29.07    3.55
   2  -6  10   23.44    3.83
  -2   6 -10   20.92    3.65
   2  -6  10   26.59    3.37
  -2   6 -10   23.21    3.60
  -2   6 -11    7.32    2.68
   2  -6  11    7.35    2.41
  -2   6 -11    8.32    2.28
   2  -6  11    1.81    1.75
   2  -6  11    7.46    2.96
   2  -6  11    5.40    2.36
   2  -5 -11    2.82    2.13
  -2   5  11   -2.89    2.43
  -2   5  11    2.56    1.89
  -2   5  11    2.05    2.02
  -2   5  10   -0.67    1.25
   2  -5 -10   -0.32    1.47
   2  -5 -10    2.02    1.18
  -2   5  10    2.11    2.17
  -2   5  10   -1.73    1.92
   2  -5  -9    1.52    1.55
  -2   5   9    2.92    1.96
   2  -5  -9    2.43    1.14
  -2   5   9    6.31    2.71
  -2   5   9    3.61    1.72
  -2   5   8    9.04    1.36
   2  -5  -8    9.99    1.83
  -2   5   8    9.64    1.29
  -2   5   8    8.38    2.00
  -2   5   8    8.31    2.52
   2  -5  -8    9.70    0.96
  -2   5   8   10.54    1.40
  -2   5   8   14.30    3.23
  -2   5   7    7.08    2.03
   2  -5  -7    7.26    0.96
  -2   5   7    7.87    1.22
  -2   5   7    9.35    1.32
   2  -5  -7    7.68    1.24
  -2   5   7    6.83    1.75
   2  -5  -7    9.14    1.78
   2  -5  -7    9.89    1.29
  -2   5   7    8.44    1.20
  -2   5   7    8.23    2.35
   2  -5  -7    7.54    0.93
   2  -5  -7   10.41    1.09
  -2   5   7    8.99    1.13
  -2   5   6   25.95    3.26
  -2   5   6   21.07    3.01
  -2   5   6   21.90    1.93
   2  -5  -6   18.25    1.66
   2  -5  -6   21.72    2.59
  -2   5   6   20.47    1.78
   2  -5  -6   19.09    1.41
   2  -5  -6   20.87    1.87
  -2   5   6   18.44    2.65
  -2   5   6   22.37    1.89
   2  -5  -6   21.14    1.54
   2  -5  -6   18.36    1.23
   2  -5  -5    3.61    0.91
  -2   5   5    1.64    0.73
   2  -5  -5    1.53    0.54
  -2   5   5    1.75    1.26
   2  -5  -5    1.40    0.63
   2  -5  -5    2.37    0.81
  -2   5   5    0.92    0.47
  -2   5   5    2.82    0.79
   2  -5  -5    0.92    0.98
  -2   5   5    2.68    1.23
   2  -5  -5    2.01    0.61
  -2   5   5    1.85    0.68
  -2   5   5    1.06    1.17
  -2   5   5    3.05    1.22
   2  -5  -4  202.51    7.24
   2  -5  -4  206.37    5.65
   2  -5  -4  208.73    7.81
   2  -5  -4  181.44    5.49
   2  -5  -4  200.80    5.32
  -2   5   4  210.53    5.11
   2  -5  -4  200.55    5.51
  -2   5   4  213.32    5.78
  -2   5   4  197.52    7.61
   2  -5  -4  195.88    4.55
  -2   5   4  207.41    7.85
  -2   5   4  200.63    7.35
   2  -5  -4  204.91    7.06
  -2   5   4  211.76    5.63
   2  -5  -4  210.12    8.10
  -2   5   4  217.27    5.96
   2  -5  -4  207.24    5.01
   2  -5  -3  175.97    6.24
   2  -5  -3  185.55    5.49
   2  -5  -3  185.48    7.26
   2  -5  -3  183.62    7.09
  -2   5   3  185.29    5.47
   2  -5  -3  178.84    6.73
  -2   5   3  184.49    5.53
   2  -5  -3  168.54    5.16
  -2   5   3  185.01    5.68
   2  -5  -3  178.77    5.15
   2  -5  -3  167.97    4.43
  -2   5   3  172.51    5.10
   2  -5  -3  180.44    5.57
  -2   5   3  182.48    6.52
   2  -5  -3  183.05    6.89
  -2   5   3  174.60    6.71
   2  -5  -3  183.19    6.47
  -2   5   3  177.89    6.48
   2  -5  -3  176.26    6.82
   2  -5  -3  180.04    4.84
   2  -5  -3  190.03    8.04
   2  -5  -3  182.10    7.08
  -2   5   3  177.50    6.96
   2  -5  -2    7.58    1.42
   2  -5  -2    8.21    1.29
   2  -5  -2    8.11    1.42
   2  -5  -2    6.83    1.24
  -2   5   2    9.57    1.49
   2  -5  -2    7.45    1.20
  -2   5   2    9.19    1.75
   2  -5  -2    8.38    1.66
  -2   5   2    6.70    1.41
   2  -5  -2    7.35    1.12
  -2   5   2    7.39    1.29
  -2   5   2    4.80    1.23
   2  -5  -2    7.37    1.48
   2  -5  -2    9.98    1.64
   2  -5  -2    8.05    1.39
  -2   5   2    8.17    1.53
   2  -5  -2    6.63    1.25
  -2   5   2    7.17    1.53
   2  -5  -2    8.85    1.84
   2  -5  -1   14.79    1.85
  -2   5   1   14.82    1.70
   2  -5  -1   16.42    2.09
   2  -5  -1   15.25    1.80
  -2   5   1   17.64    1.90
  -2   5   1   14.82    2.18
   2  -5  -1   13.85    1.68
   2  -5  -1   14.98    1.80
  -2   5   1   16.50    2.04
   2  -5  -1   15.47    1.85
  -2   5   1   14.72    1.86
   2  -5  -1   15.41    1.76
   2  -5  -1   17.11    1.73
   2  -5  -1    9.93    1.82
  -2   5   1   13.32    0.74
  -2   5   1   11.93    0.68
  -2   5   1   14.93    1.67
  -2   5   0  323.75    7.13
   2  -5   0  348.87    7.95
   2  -5   0  334.33    8.38
   2  -5   0  352.22    8.84
  -2   5   0  328.95    9.03
   2  -5   0  345.92    8.58
  -2   5   0  339.07    5.60
   2  -5   0  341.70    8.92
   2  -5   0  317.87    8.51
   2  -5   0  355.67    7.69
  -2   5   0  353.67    5.30
  -2   5   0  326.10    7.49
   2  -5   0  355.16    7.93
  -2   5   0  345.82    8.00
  -2   5  -1   35.00    2.20
   2  -5   1   33.46    2.97
   2  -5   1   38.80    2.53
   2  -5   1   37.26    3.11
   2  -5   1   29.39    2.71
  -2   5  -1   34.23    2.88
  -2   5  -1   34.83    3.13
   2  -5   1   33.97    2.93
   2  -5   1   37.06    3.02
   2  -5   1   33.97    2.97
   2  -5   1   36.21    2.74
   2  -5   1   35.52    2.44
  -2   5  -1   38.40    2.32
  -2   5  -1   31.38    2.42
  -2   5  -1   37.12    2.88
   2  -5   1   33.31    2.16
  -2   5  -2  297.47    5.48
  -2   5  -2  314.58    8.93
  -2   5  -2  308.91    9.54
   2  -5   2  298.93    8.89
   2  -5   2  289.54    8.18
   2  -5   2  313.36    9.28
   2  -5   2  334.94    9.54
   2  -5   2  314.30    9.17
  -2   5  -2  317.18    7.64
   2  -5   2  316.47    8.31
   2  -5   2  319.96    9.53
  -2   5  -2  314.27    8.38
  -2   5  -2  304.67    7.35
   2  -5   2  303.10    7.37
   2  -5   3   -0.11    0.69
   2  -5   3    0.49    0.87
  -2   5  -3    0.56    0.53
   2  -5   3    1.41    1.00
  -2   5  -3    0.51    1.22
   2  -5   3    0.49    0.74
  -2   5  -3    0.52    0.36
  -2   5  -3   -1.15    0.95
   2  -5   3    0.63    0.89
  -2   5  -3    1.53    1.10
   2  -5   3   -1.55    1.49
   2  -5   3    0.70    1.00
  -2   5  -3    0.47    0.91
  -2   5  -4    6.46    1.61
  -2   5  -4    6.16    0.57
   2  -5   4    7.05    1.50
  -2   5  -4    6.91    0.86
   2  -5   4    8.30    1.80
   2  -5   4    5.21    1.31
   2  -5   4    5.78    1.35
  -2   5  -4    6.65    1.55
   2  -5   4    8.62    2.05
  -2   5  -4    8.00    1.81
   2  -5   4    5.21    1.69
   2  -5   4    8.36    1.77
  -2   5  -4    8.44    2.22
  -2   5  -5    7.88    1.68
   2  -5   5   10.16    1.87
  -2   5  -5   10.22    1.00
   2  -5   5    8.29    1.90
   2  -5   5    8.10    1.45
  -2   5  -5    7.82    2.31
  -2   5  -5    6.94    1.74
   2  -5   5   11.06    2.35
  -2   5  -6    2.34    1.50
  -2   5  -6    3.29    0.60
   2  -5   6    2.72    1.13
   2  -5   6    1.72    1.23
  -2   5  -6    1.93    1.65
   2  -5   6    3.73    1.37
  -2   5  -6    3.15    1.38
   2  -5   6    1.06    1.32
   2  -5   6    1.68    1.05
   2  -5   6    0.91    1.01
   2  -5   7    4.10    1.20
  -2   5  -7    4.70    0.70
   2  -5   7    6.45    1.32
  -2   5  -7    6.21    1.91
   2  -5   7    5.34    1.42
  -2   5  -7    8.82    2.25
   2  -5   7    6.47    2.02
   2  -5   7    5.64    1.89
   2  -5   7    3.41    1.26
   2  -5   7    5.42    1.51
  -2   5  -8    2.59    1.52
  -2   5  -8    1.56    0.47
   2  -5   8   -0.39    1.14
   2  -5   8    0.67    0.73
  -2   5  -8    3.46    1.53
   2  -5   8    1.83    0.84
   2  -5   8   -0.41    1.42
   2  -5   8    0.79    1.07
   2  -5   8   -1.85    1.72
   2  -5   8    0.66    0.99
  -2   5  -9   21.65    3.49
   2  -5   9   14.78    2.85
   2  -5   9   18.90    2.15
   2  -5   9   22.03    3.75
   2  -5   9   16.01    3.28
  -2   5  -9   19.01    3.12
   2  -5   9   16.67    2.50
   2  -5   9   20.27    3.04
   2  -5   9   18.95    3.48
   2  -5   9   18.38    2.63
  -2   5 -10   51.78    5.54
   2  -5  10   50.71    5.80
   2  -5  10   51.24    5.77
   2  -5  10   40.13    4.59
   2  -5  10   45.90    4.71
   2  -5  10   44.10    4.12
   2  -5  10   42.10    4.79
   2  -5  10   49.33    4.32
  -2   5 -10   42.43    4.53
  -2   5 -11   -0.24    1.68
  -2   5 -11   -0.54    1.45
   2  -5  11    1.78    1.87
   2  -5  11   -2.24    1.87
   2  -5  11    2.25    2.26
   2  -5  11    1.64    1.70
   2  -5  12    0.76    1.49
   2  -5  12    0.22    1.72
  -2   5 -12   -0.17    1.21
   2  -5  12    2.43    2.08
   2  -5  12    2.29    1.70
   2  -5  12    1.24    1.77
  -2   4  12    2.24    1.79
   2  -4 -12    0.35    1.53
  -2   4  11    0.07    1.06
   2  -4 -11   -1.50    1.81
  -2   4  11    0.78    1.77
  -2   4  11   -0.72    1.46
  -2   4  10   19.28    3.70
   2  -4 -10   13.01    1.88
  -2   4  10   11.18    2.39
   2  -4 -10   12.98    2.94
  -2   4  10   14.22    3.36
   2  -4 -10   14.72    2.18
   2  -4  -9   20.25    3.45
  -2   4   9   17.69    2.86
   2  -4  -9   18.09    2.15
  -2   4   9   19.40    1.76
  -2   4   9   20.24    1.69
  -2   4   9   18.07    3.41
  -2   4   9   21.76    1.85
  -2   4   9   18.46    3.63
   2  -4  -9   20.83    2.37
  -2   4   8    0.98    0.60
  -2   4   8    0.39    0.42
  -2   4   8    1.32    0.69
   2  -4  -8   -1.32    1.53
   2  -4  -8    0.50    0.90
  -2   4   8    0.39    0.43
  -2   4   8    0.13    0.43
   2  -4  -8    0.35    0.31
  -2   4   8    0.02    1.28
   2  -4  -8    0.60    0.31
   2  -4  -8    1.15    0.57
   2  -4  -8    0.67    0.74
  -2   4   8    0.22    1.77
  -2   4   8    1.20    1.15
   2  -4  -8    0.96    0.84
   2  -4  -7  458.64    7.88
  -2   4   7  433.54    7.43
  -2   4   7  429.12    6.94
   2  -4  -7  431.57    6.97
  -2   4   7  424.90   11.84
   2  -4  -7  424.84    5.17
  -2   4   7  434.56    7.20
  -2   4   7  413.40   13.18
   2  -4  -7  418.75    9.85
  -2   4   7  461.09   14.29
   2  -4  -7  459.61    8.39
   2  -4  -7  447.02    5.48
  -2   4   7  441.62    8.23
   2  -4  -6  203.91    4.48
  -2   4   6  204.15    4.90
  -2   4   6  200.36    7.70
   2  -4  -6  205.97    4.81
  -2   4   6  198.41    8.06
  -2   4   6  198.09    4.67
  -2   4   6  196.65    8.42
   2  -4  -6  202.24    4.57
   2  -4  -6  197.11    3.48
   2  -4  -6  203.28    3.71
   2  -4  -6  210.32    6.98
  -2   4   6  199.79    8.97
   2  -4  -6  199.37    4.75
  -2   4   6  201.44    4.59
  -2   4   6  200.47    4.63
  -2   4   5  189.50    4.63
   2  -4  -5  187.34    4.40
   2  -4  -5  194.91    4.43
   2  -4  -5  186.94    3.43
  -2   4   5  183.70    7.34
  -2   4   5  183.75    4.42
   2  -4  -5  196.70    6.63
  -2   4   5  191.80    7.16
   2  -4  -5  189.82    4.26
   2  -4  -5  184.29    7.20
   2  -4  -5  215.97    8.39
  -2   4   5  197.32    7.91
   2  -4  -5  193.48    6.95
   2  -4  -5  195.24    8.04
  -2   4   5  194.74    4.41
   2  -4  -5  183.84    3.35
  -2   4   4  102.18    3.36
   2  -4  -4  118.43    5.68
   2  -4  -4  106.37    3.36
   2  -4  -4  109.32    2.77
  -2   4   4  105.91    3.51
   2  -4  -4  102.76    3.34
   2  -4  -4  109.22    4.88
   2  -4  -4  102.68    3.39
   2  -4  -4  115.00    5.51
   2  -4  -4  107.54    4.95
   2  -4  -4  110.85    5.04
   2  -4  -4  105.17    5.56
  -2   4   4  102.92    5.27
  -2   4   4  105.91    3.35
   2  -4  -4  107.55    3.23
  -2   4   4  107.23    3.43
  -2   4   4  107.39    5.01
   2  -4  -4  111.76    5.55
  -2   4   4  100.46    5.34
   2  -4  -4  110.83    5.97
   2  -4  -4  106.72    5.28
  -2   4   4  110.85    5.13
   2  -4  -4  108.77    2.95
   2  -4  -4  115.75    5.51
   2  -4  -3  106.21    5.01
   2  -4  -3   98.42    4.77
   2  -4  -3   98.49    3.26
  -2   4   3  101.30    4.54
   2  -4  -3  103.90    4.98
   2  -4  -3  101.14    2.86
  -2   4   3   97.62    4.95
  -2   4   3   94.94    3.50
  -2   4   3   94.17    3.46
   2  -4  -3   99.12    3.71
   2  -4  -3  100.03    4.56
   2  -4  -3   97.78    3.41
   2  -4  -3  100.29    4.91
  -2   4   3   99.12    4.91
   2  -4  -3  101.68    3.36
   2  -4  -3   97.87    4.44
   2  -4  -3   95.26    4.96
  -2   4   3   98.20    4.54
   2  -4  -3  102.36    5.45
   2  -4  -3   94.58    3.01
   2  -4  -3  101.15    4.49
  -2   4   3   94.70    3.28
   2  -4  -2  246.68    7.13
   2  -4  -2  233.79    6.33
  -2   4   2  239.25    5.79
  -2   4   2  227.53    5.49
  -2   4   2  220.45    6.75
   2  -4  -2  230.33    6.80
   2  -4  -2  233.71    5.28
  -2   4   2  207.04    5.60
   2  -4  -2  231.88    5.49
   2  -4  -2  234.60    5.42
  -2   4   2  235.63    6.39
   2  -4  -2  252.36    7.14
  -2   4   2  227.18    7.13
   2  -4  -2  224.00    6.15
  -2   4   2  235.28    6.54
   2  -4  -2  232.63    7.91
   2  -4  -2  232.85    5.05
  -2   4   2  235.77    5.05
   2  -4  -1  353.86    7.38
   2  -4  -1  364.74    8.18
  -2   4   1  348.64    7.18
   2  -4  -1  365.75    7.93
  -2   4   1  378.07    7.83
   2  -4  -1  365.28    7.30
   2  -4  -1  370.34    7.48
   2  -4  -1  323.84    7.75
  -2   4   1  371.70    7.79
  -2   4   1  346.07    8.64
   2  -4  -1  376.08    8.17
   2  -4  -1  363.55    7.75
  -2   4   1  339.70    7.50
   2  -4  -1  351.62    8.28
   2  -4  -1  361.48    6.76
   2  -4  -1  366.37    7.27
  -2   4   1  362.23    6.88
   2  -4   0   12.78    1.56
  -2   4   0   13.37    1.53
  -2   4   0   11.13    1.28
   2  -4   0   10.22    1.55
  -2   4   0   12.76    1.72
   2  -4   0   12.26    1.61
   2  -4   0   13.10    1.33
   2  -4   0   10.81    1.63
   2  -4   0   13.10    1.78
   2  -4   0   12.57    1.66
  -2   4   0   11.05    1.73
   2  -4   0   11.16    1.60
  -2   4   0   11.09    1.77
   2  -4   0   12.72    1.55
   2  -4   0   12.07    1.46
   2  -4   0   12.12    1.43
  -2   4   0   11.29    1.02
  -2   4   0   10.37    1.47
   2  -4   0   12.29    1.06
  -2   4  -1   30.56    2.74
  -2   4  -1   35.75    2.34
   2  -4   1   34.09    2.38
  -2   4  -1   31.57    1.75
   2  -4   1   33.81    2.82
   2  -4   1   28.09    2.42
   2  -4   1   32.15    2.66
   2  -4   1   32.93    2.81
  -2   4  -1   34.02    2.53
  -2   4  -1   32.24    2.43
   2  -4   1   36.79    2.52
   2  -4   1   32.71    2.72
  -2   4  -1   32.89    2.09
   2  -4   1   33.13    2.11
  -2   4  -2    7.41    1.30
   2  -4   2    6.35    1.21
   2  -4   2    9.69    1.69
  -2   4  -2    8.07    1.13
  -2   4  -2    7.26    0.74
   2  -4   2    7.67    1.29
   2  -4   2    8.88    1.86
  -2   4  -2    6.72    1.42
   2  -4   2    7.89    1.57
   2  -4   2    5.13    1.56
  -2   4  -2    6.77    1.38
   2  -4   3   97.50    5.25
  -2   4  -3   95.97    3.31
   2  -4   3   78.69    4.59
  -2   4  -3   85.46    1.70
   2  -4   3   94.31    5.12
  -2   4  -3   98.97    5.50
  -2   4  -3   84.67    4.38
   2  -4   3   92.94    4.42
  -2   4  -4    2.44    1.25
   2  -4   4    1.76    0.91
  -2   4  -4    2.42    0.73
  -2   4  -4    0.17    1.18
   2  -4   4    2.21    1.06
  -2   4  -4    0.39    0.91
   2  -4   4    1.04    0.95
   2  -4   4    1.19    1.24
  -2   4  -4    1.10    1.09
   2  -4   4    1.10    0.97
  -2   4  -5    7.72    1.73
   2  -4   5   10.39    1.94
   2  -4   5    8.00    1.96
   2  -4   5    9.26    1.72
  -2   4  -5    8.32    1.09
   2  -4   5    7.84    1.90
  -2   4  -5    7.51    1.60
  -2   4  -5    8.41    1.69
   2  -4   5    8.19    1.75
   2  -4   5    7.59    1.41
   2  -4   5    7.37    1.34
  -2   4  -6    9.14    2.06
   2  -4   6    9.09    2.01
  -2   4  -6    7.74    1.76
   2  -4   6    9.15    1.92
   2  -4   6    5.76    1.15
   2  -4   6    6.90    1.36
   2  -4   6    6.72    1.38
  -2   4  -7    6.55    2.00
  -2   4  -7    4.78    1.45
   2  -4   7    2.94    1.05
   2  -4   7    2.39    1.34
   2  -4   7    3.67    1.06
   2  -4   7    3.14    1.43
   2  -4   7    3.32    1.15
   2  -4   7    4.84    1.81
   2  -4   8   39.16    4.28
  -2   4  -8   40.96    3.93
   2  -4   8   46.89    3.50
   2  -4   8   50.87    5.02
  -2   4  -8   47.65    4.65
   2  -4   8   45.74    4.27
   2  -4   8   45.56    4.67
   2  -4   8   46.78    4.51
   2  -4   8   49.63    3.78
   2  -4   8   43.11    3.51
   2  -4   9   74.89    4.86
   2  -4   9   78.55    5.69
   2  -4   9   77.23    6.39
   2  -4   9   74.12    6.47
   2  -4   9   70.15    5.55
   2  -4   9   75.57    5.82
   2  -4   9   77.36    4.97
  -2   4  -9   68.63    5.40
  -2   4  -9   74.02    6.13
  -2   4 -10   14.85    3.10
   2  -4  10    5.78    1.76
   2  -4  10   11.40    2.61
   2  -4  10   16.00    3.50
   2  -4  10   11.74    2.14
   2  -4  10   10.34    2.72
   2  -4  10   15.38    3.07
   2  -4  10   11.69    2.14
  -2   4 -10   13.98    2.66
  -2   4 -11   -1.69    1.51
   2  -4  11   -0.29    1.43
  -2   4 -11    2.29    1.80
   2  -4  11    3.88    1.58
   2  -4  11   -0.49    1.96
   2  -4  11    4.35    2.41
   2  -4  11   -2.53    1.55
   2  -4  11    1.32    1.43
  -2   4 -12    2.22    1.99
   2  -4  12    1.43    1.51
   2  -4  12    4.30    2.05
  -2   4 -12    1.96    1.42
   2  -4  12    3.88    2.16
   2  -4  12   -3.36    1.61
   2  -4  12    1.41    1.89
   2  -4  12    8.21    3.18
   2  -4  13    2.63    1.67
   2  -3 -12   -0.33    1.88
  -2   3  12   -2.04    1.45
  -2   3  12    1.79    1.86
  -2   3  12   -1.14    1.82
  -2   3  12    0.93    1.65
   2  -3 -11   -0.18    0.92
   2  -3 -11    3.97    2.03
  -2   3  11    0.15    1.65
  -2   3  11    0.56    1.06
  -2   3  11    0.47    1.89
   2  -3 -10   14.66    2.26
   2  -3 -10   13.07    1.69
  -2   3  10   15.30    3.40
   2  -3 -10   10.93    2.61
  -2   3  10   15.18    2.64
  -2   3  10   15.06    2.89
  -2   3  10   15.05    3.07
  -2   3   9   38.08    4.56
   2  -3  -9   35.60    2.67
   2  -3  -9   38.28    4.39
  -2   3   9   38.78    4.68
  -2   3   9   37.65    3.87
  -2   3   9   38.69    2.26
  -2   3   9   39.06    2.22
  -2   3   9   34.29    4.00
  -2   3   9   40.22    2.39
   2  -3  -9   35.97    1.59
   2  -3  -9   36.44    3.08
  -2   3   9   38.27    3.20
   2  -3  -8    0.75    0.90
  -2   3   8    0.40    0.57
  -2   3   8   -0.01    0.42
  -2   3   8    0.17    0.45
  -2   3   8    0.05    0.47
   2  -3  -8    0.69    0.70
   2  -3  -8   -0.25    0.27
  -2   3   8    0.40    1.07
   2  -3  -8    0.58    1.74
   2  -3  -8    0.01    0.45
  -2   3   8    0.27    0.51
  -2   3   8    2.56    1.66
  -2   3   8    0.51    1.38
   2  -3  -8    0.15    0.20
  -2   3   8   -0.74    1.45
  -2   3   7  212.23    8.59
  -2   3   7  217.04    4.58
   2  -3  -7  210.12    2.90
   2  -3  -7  223.75    6.18
  -2   3   7  240.91   10.02
   2  -3  -7  229.55    9.25
  -2   3   7  216.72    8.07
   2  -3  -7  222.32    4.49
  -2   3   7  214.29    4.27
   2  -3  -7  212.17    6.34
  -2   3   7  215.13    4.41
   2  -3  -7  218.89    3.03
  -2   3   7  232.46    9.54
  -2   3   7  210.64    5.02
  -2   3   7  230.21    6.28
   2  -3  -6    2.58    0.83
  -2   3   6    0.76    0.47
  -2   3   6    0.91    0.38
  -2   3   6    0.91    0.39
  -2   3   6    1.02    0.38
   2  -3  -6    1.17    0.90
   2  -3  -6    0.67    0.18
   2  -3  -6    1.98    0.90
   2  -3  -6    1.23    0.36
  -2   3   6    1.05    1.22
  -2   3   6   -0.05    1.04
  -2   3   6    0.57    0.88
  -2   3   6    1.46    1.47
   2  -3  -5   14.69    0.99
   2  -3  -5   16.68    2.17
  -2   3   5   13.56    2.10
  -2   3   5   15.11    1.04
   2  -3  -5   15.56    0.94
   2  -3  -5   15.05    1.72
  -2   3   5   14.03    0.94
  -2   3   5   15.12    0.96
   2  -3  -5   15.14    2.11
   2  -3  -5   16.07    1.25
   2  -3  -5   14.79    0.92
   2  -3  -5   14.45    2.15
  -2   3   5   12.52    1.83
  -2   3   5   14.58    2.27
   2  -3  -5   16.78    2.10
   2  -3  -5   15.41    2.26
  -2   3   5   17.20    2.66
   2  -3  -5   14.86    2.26
   2  -3  -5   16.54    2.17
   2  -3  -4  949.39   14.99
  -2   3   4  872.24    7.60
   2  -3  -4  896.58    7.25
  -2   3   4  890.26   13.49
  -2   3   4  861.71    7.19
   2  -3  -4  898.51    7.11
  -2   3   4  848.79    6.98
   2  -3  -4  857.30    6.47
   2  -3  -4  887.83    6.84
   2  -3  -4  869.78   12.34
   2  -3  -4  919.93    8.95
   2  -3  -4  915.16   15.19
  -2   3   4  870.12   14.81
   2  -3  -4  862.88    5.29
   2  -3  -4  918.88   13.56
   2  -3  -4  892.12   15.14
   2  -3  -4  876.88    6.53
  -2   3   4  875.96   14.29
   2  -3  -4  855.70    5.66
  -2   3   4  865.82   13.81
   2  -3  -4  937.05   16.09
   2  -3  -3   79.53    2.39
   2  -3  -3   79.76    4.10
  -2   3   3   78.40    2.48
   2  -3  -3   77.37    2.24
   2  -3  -3   79.60    2.32
  -2   3   3   78.11    4.19
   2  -3  -3   78.93    1.95
  -2   3   3   81.07    3.78
  -2   3   3   84.70    3.05
   2  -3  -3   81.68    2.94
   2  -3  -3   76.85    3.66
   2  -3  -3   83.25    4.26
   2  -3  -3   79.89    4.17
  -2   3   3   73.05    4.07
  -2   3   3   77.29    3.86
   2  -3  -3   79.17    2.08
   2  -3  -3   84.07    4.59
  -2   3   3   81.64    2.40
  -2   3   2 2686.50   16.32
   2  -3  -2 2798.37   20.09
   2  -3  -2 2655.72   21.94
   2  -3  -2 2660.70   21.44
   2  -3  -2 2677.74   15.42
   2  -3  -2 2654.76   22.47
  -2   3   2 2779.12   22.99
   2  -3  -2 2662.50   15.33
  -2   3   2 2805.92   20.26
   2  -3  -2 2808.39   18.27
   2  -3  -2 2649.83   14.93
  -2   3   2 2875.36   18.49
   2  -3  -2 2806.88   21.16
  -2   3   2 2622.54   20.77
   2  -3  -2 2844.17   22.66
   2  -3  -2 2810.15   14.16
   2  -3  -2 2770.20   24.95
  -2   3   2 2764.46   14.45
   2  -3  -1  937.57   11.31
  -2   3   1 1058.95   13.27
   2  -3  -1  963.79   12.49
   2  -3  -1  999.68   11.01
   2  -3  -1  958.01   12.61
   2  -3  -1  988.25   10.72
   2  -3  -1  968.00   11.74
  -2   3   1 1013.96   11.45
  -2   3   1  947.01   13.08
  -2   3   1  986.47   10.85
   2  -3  -1  974.46   10.73
  -2   3   1 1040.34   11.85
   2  -3  -1  996.37   10.65
  -2   3   1  971.94   10.00
   2  -3  -1 1046.94   13.26
   2  -3  -1  990.46   12.15
  -2   3   1  958.23   11.91
   2  -3  -1 1026.61    9.81
   2  -3  -1  960.64    6.14
  -2   3   1  953.67    5.76
   2  -3  -1  993.22   10.71
   2  -3   0    4.95    0.79
  -2   3   0    2.68    1.09
   2  -3   0    3.54    0.72
  -2   3   0    4.11    0.98
   2  -3   0    3.07    0.76
   2  -3   0    4.28    1.01
   2  -3   0    3.56    1.05
  -2   3   0    4.30    0.79
   2  -3   0    4.09    0.88
   2  -3   0    5.14    1.19
   2  -3   0    5.25    1.05
   2  -3   0    4.53    1.09
  -2   3   0    3.19    0.92
  -2   3   0    3.18    1.00
   2  -3   0    2.81    0.83
  -2   3   0    4.84    1.05
  -2   3   0    3.86    0.71
  -2   3   0    4.81    1.02
   2  -3   1  222.79    6.41
  -2   3  -1  226.22    3.85
  -2   3  -1  235.11    5.53
  -2   3  -1  236.60    6.79
   2  -3   1  209.63    5.97
   2  -3   1  218.71    4.26
  -2   3  -1  214.56    6.29
   2  -3   1  235.32    6.38
   2  -3   1  225.79    3.85
  -2   3  -1  214.17    5.70
  -2   3  -1  220.15    5.73
   2  -3   1  227.08    5.63
  -2   3  -1  213.59    5.08
   2  -3   1  212.68    5.05
  -2   3  -2 1109.02    5.93
   2  -3   2 1104.74    7.48
   2  -3   2 1050.31   13.97
   2  -3   2 1144.42   15.86
  -2   3  -2 1075.03   13.68
  -2   3  -2 1162.67   13.60
   2  -3   2 1119.77   13.23
  -2   3  -2 1155.94   11.82
  -2   3  -3   42.26    2.42
   2  -3   3   34.97    2.91
   2  -3   3   43.04    3.39
  -2   3  -3   38.47    3.13
  -2   3  -3   35.29    2.78
   2  -3   3   38.33    2.82
   2  -3   4  911.14   16.38
   2  -3   4  890.86   10.24
  -2   3  -4  905.53   15.99
  -2   3  -4  916.08   14.25
   2  -3   4  837.22   13.91
   2  -3   4  836.60   10.64
  -2   3  -4  799.77   13.47
  -2   3  -4  886.17   14.55
   2  -3   4  855.70   14.23
   2  -3   5   10.44    1.87
   2  -3   5   11.36    2.18
  -2   3  -5   10.13    1.77
   2  -3   5   13.16    2.26
   2  -3   5   12.03    1.40
   2  -3   5   12.92    1.54
  -2   3  -5   12.98    2.17
  -2   3  -5   12.11    1.96
   2  -3   5   10.14    1.84
   2  -3   5    9.12    1.96
  -2   3  -5   11.16    2.06
   2  -3   5   12.78    1.51
   2  -3   5    9.99    1.65
   2  -3   6  153.17    7.46
   2  -3   6  134.98    6.39
   2  -3   6  150.57    7.26
  -2   3  -6  153.05    6.49
  -2   3  -6  139.37    6.87
   2  -3   6  141.89    5.09
   2  -3   6  151.20    5.24
   2  -3   6  139.76    4.93
  -2   3  -6  133.11    6.19
  -2   3  -7    2.12    1.53
   2  -3   7    2.54    1.46
   2  -3   7    0.87    0.62
  -2   3  -7   -2.14    1.62
   2  -3   7    0.68    1.65
   2  -3   7    1.46    1.50
   2  -3   7    0.08    1.26
   2  -3   7    2.93    1.15
   2  -3   7    0.78    0.86
   2  -3   8   34.69    4.02
   2  -3   8   38.31    3.23
   2  -3   8   35.55    3.73
   2  -3   8   38.89    4.35
   2  -3   8   36.13    2.85
   2  -3   8   36.23    3.01
   2  -3   8   37.10    3.98
   2  -3   8   35.22    3.70
  -2   3  -8   37.61    3.77
  -2   3  -8   34.27    4.02
   2  -3   9   41.59    4.80
   2  -3   9   49.62    5.05
   2  -3   9   46.86    4.27
   2  -3   9   43.87    3.50
   2  -3   9   42.74    3.01
   2  -3   9   45.54    4.38
   2  -3   9   46.37    3.77
  -2   3  -9   42.72    4.15
  -2   3  -9   46.17    4.81
   2  -3   9   48.58    4.90
  -2   3 -10   15.44    3.03
   2  -3  10   22.52    3.12
   2  -3  10   19.04    3.55
   2  -3  10   16.64    3.25
  -2   3 -10   20.41    3.05
   2  -3  10   17.54    2.99
   2  -3  10   22.21    3.61
   2  -3  10   17.44    2.37
   2  -3  10   19.88    2.72
  -2   3 -11    6.55    2.27
   2  -3  11    8.49    2.63
   2  -3  11    6.68    2.16
  -2   3 -11    9.21    2.34
   2  -3  11   10.07    3.03
   2  -3  11    8.51    2.76
   2  -3  11    5.72    1.93
   2  -3  11    8.11    2.80
  -2   3 -12    7.79    2.56
   2  -3  12    2.61    1.57
   2  -3  12    6.44    2.50
  -2   3 -12    7.13    2.34
   2  -3  12    8.46    2.81
   2  -3  12    3.39    1.98
   2  -3  12    6.20    2.64
  -2   3 -13    0.53    1.22
   2  -3  13   -2.13    1.79
   2  -2 -13    7.97    3.00
  -2   2  12    5.66    2.43
  -2   2  12    3.53    1.84
   2  -2 -12    5.29    2.42
   2  -2 -12    5.07    1.88
  -2   2  12    1.35    2.02
   2  -2 -11    1.82    0.97
   2  -2 -11    0.33    1.76
  -2   2  11    1.48    1.38
  -2   2  11    1.88    1.66
  -2   2  11    3.51    1.76
   2  -2 -10    4.24    1.59
   2  -2 -10    1.68    1.48
  -2   2  10    3.01    0.86
  -2   2  10    2.62    1.74
   2  -2 -10    1.73    0.61
  -2   2  10    1.90    0.78
  -2   2  10    2.42    1.70
  -2   2  10    2.46    0.76
  -2   2  10    4.41    2.29
  -2   2  10    2.54    1.33
  -2   2   9  221.67    9.64
  -2   2   9  239.55    6.19
  -2   2   9  250.19    5.96
  -2   2   9  243.13    5.72
  -2   2   9  232.53    5.84
   2  -2  -9  247.35   10.34
  -2   2   9  240.17    5.57
  -2   2   9  230.69    8.90
  -2   2   9  226.04    4.08
  -2   2   9  250.11   11.00
  -2   2   9  251.00   11.25
   2  -2  -9  226.02    5.76
   2  -2  -9  258.71    4.64
   2  -2  -9  249.48    8.31
  -2   2   9  240.52    8.23
  -2   2   8   57.55    4.69
  -2   2   8   58.15    2.76
  -2   2   8   57.37    2.58
  -2   2   8   54.17    2.38
  -2   2   8   53.86    4.08
  -2   2   8   54.51    1.75
  -2   2   8   62.81    5.19
   2  -2  -8   53.34    4.73
  -2   2   8   58.25    2.54
  -2   2   8   56.03    5.04
   2  -2  -8   55.82    2.89
   2  -2  -8   59.71    1.96
   2  -2  -8   61.63    3.91
  -2   2   8   59.07    3.74
  -2   2   7   35.13    3.48
   2  -2  -7   37.48    2.37
  -2   2   7   38.58    1.97
   2  -2  -7   40.82    3.98
  -2   2   7   47.98    4.28
  -2   2   7   38.63    1.74
  -2   2   7   32.83    1.09
  -2   2   7   34.07    3.12
  -2   2   7   39.80    1.87
  -2   2   7   43.04    4.13
  -2   2   7   36.01    1.71
   2  -2  -7   50.61    1.43
   2  -2  -7   40.53    2.86
  -2   2   7   40.02    2.81
  -2   2   6   23.61    2.77
   2  -2  -6   30.21    2.91
   2  -2  -6   26.19    2.62
  -2   2   6   22.38    2.76
   2  -2  -6   23.94    2.86
   2  -2  -6   26.54    2.91
   2  -2  -6   24.74    2.69
  -2   2   6   24.32    3.00
   2  -2  -6   23.30    1.85
  -2   2   6   21.84    1.03
  -2   2   6   18.99    1.21
  -2   2   6   21.83    2.33
   2  -2  -6   25.74    2.77
  -2   2   6   21.35    1.13
   2  -2  -6   26.30    2.91
   2  -2  -6   25.79    2.59
   2  -2  -6   22.77    2.80
  -2   2   6   20.60    1.03
   2  -2  -6   22.52    2.78
   2  -2  -6   27.33    2.80
   2  -2  -6   25.40    1.97
  -2   2   5    8.84    1.46
   2  -2  -5    7.59    0.93
   2  -2  -5    9.70    1.24
   2  -2  -5   10.77    1.69
  -2   2   5    8.31    1.56
  -2   2   5   10.78    1.88
   2  -2  -5    8.70    1.70
   2  -2  -5    9.43    0.73
   2  -2  -5   11.36    1.85
  -2   2   5    5.53    1.46
   2  -2  -5   10.13    1.21
  -2   2   4  108.88    4.81
   2  -2  -4  114.55    4.90
   2  -2  -4  114.14    2.84
  -2   2   4  109.34    4.91
   2  -2  -4  111.89    3.94
  -2   2   4  112.18    5.17
   2  -2  -4  101.45    4.87
  -2   2   4  104.66    4.61
   2  -2  -4  114.68    5.28
   2  -2  -4  112.20    2.88
  -2   2   4  107.79    4.43
   2  -2  -4  113.31    3.05
  -2   2   3  879.37   12.09
   2  -2  -3  888.77   12.69
  -2   2   3  856.41   12.68
   2  -2  -3  823.62   10.75
  -2   2   3  871.98   11.48
   2  -2  -3  868.87    8.73
   2  -2  -3  872.58   12.93
  -2   2   3  862.21   13.11
   2  -2  -3  864.31   13.52
   2  -2  -3  925.24    6.81
   2  -2  -3  865.04    6.91
   2  -2  -2    3.38    0.55
  -2   2   2    3.00    0.41
   2  -2  -2    3.82    1.10
   2  -2  -2    2.83    0.41
  -2   2   2    2.98    0.77
   2  -2  -2    3.33    0.90
   2  -2  -2    3.54    0.58
  -2   2   2    3.20    1.08
   2  -2  -2    3.03    0.48
   2  -2  -2    3.26    0.58
  -2   2   2    3.23    0.53
  -2   2   2    3.31    0.99
  -2   2   2    2.98    0.63
   2  -2  -2    3.25    0.57
   2  -2  -2    2.66    0.76
   2  -2  -2    3.17    1.06
   2  -2  -2    3.25    1.04
   2  -2  -2    2.87    0.83
  -2   2   2    3.36    1.11
   2  -2  -2    2.90    0.84
   2  -2  -1  112.28    4.11
  -2   2   1  110.37    3.66
   2  -2  -1  107.59    3.21
  -2   2   1  104.80    3.98
   2  -2  -1  105.65    3.23
   2  -2  -1  105.22    2.42
   2  -2  -1  105.88    3.62
   2  -2  -1  104.34    3.00
  -2   2   1  110.13    3.32
  -2   2   1  106.65    2.93
   2  -2  -1  103.99    3.44
  -2   2   1  107.15    3.69
   2  -2  -1  108.85    2.75
   2  -2  -1   99.68    3.40
  -2   2   1  100.47    3.75
  -2   2   1  101.94    2.35
  -2   2   0  388.77    5.54
  -2   2   0  400.30    7.31
   2  -2   0  408.04    7.64
   2  -2   0  374.69    6.64
  -2   2   0  373.25    7.18
   2  -2   0  368.78    5.92
  -2   2   0  360.45    6.76
   2  -2   0  373.03    5.15
   2  -2   0  365.68    6.87
  -2   2   0  384.44    5.33
   2  -2   0  394.92    7.09
  -2   2   0  358.66    6.93
   2  -2   0  386.04    6.02
  -2   2   0  372.06    6.15
  -2   2   0  374.36    5.92
   2  -2   0  370.02    5.52
  -2   2  -1  291.66    6.42
  -2   2  -1  313.73    6.46
   2  -2   1  279.95    3.50
   2  -2   1  282.21    4.34
   2  -2   1  303.54    7.10
   2  -2   1  296.66    6.69
  -2   2  -1  277.58    6.36
  -2   2  -1  279.29    5.93
  -2   2  -1  287.57    6.79
   2  -2   1  270.88    6.34
   2  -2   1  285.45    5.86
  -2   2  -1  288.54    5.96
   2  -2   1  278.74    5.70
  -2   2  -2   31.25    2.57
   2  -2   2   30.48    2.57
   2  -2   2   29.31    2.28
  -2   2  -2   29.52    2.22
  -2   2  -2   27.04    2.17
   2  -2   2   32.22    2.30
   2  -2   3   46.56    3.03
  -2   2  -3   54.39    3.55
   2  -2   3   53.14    3.65
   2  -2   3   54.59    1.85
  -2   2  -3   49.34    3.12
   2  -2   3   51.67    3.21
   2  -2   4    7.64    1.42
   2  -2   4    8.33    1.54
  -2   2  -4    6.98    1.45
   2  -2   4    7.21    1.59
   2  -2   4    7.77    0.89
  -2   2  -4    7.29    1.56
  -2   2  -4    8.64    1.48
   2  -2   4    9.42    1.03
   2  -2   4    8.68    0.98
   2  -2   5  837.69   16.47
   2  -2   5  848.20   15.99
   2  -2   5  852.98   10.01
  -2   2  -5  821.90   13.91
   2  -2   5  848.84   10.26
   2  -2   5  846.73    9.64
   2  -2   5  848.06   15.58
   2  -2   5  897.56   14.25
  -2   2  -5  934.49   14.33
   2  -2   5  858.66   13.82
  -2   2  -5  901.00   16.55
  -2   2  -5  887.38   15.57
   2  -2   5  836.69   15.28
  -2   2  -6  253.51    3.45
  -2   2  -6  275.11    9.71
   2  -2   6  255.34    9.66
   2  -2   6  256.94    5.82
   2  -2   6  260.53    9.29
   2  -2   6  259.91    8.04
  -2   2  -6  264.28    8.04
   2  -2   6  277.39    8.42
   2  -2   6  255.87    7.95
   2  -2   6  262.80    6.53
  -2   2  -6  236.61    8.04
   2  -2   6  264.05    9.53
  -2   2  -6  268.89    9.28
   2  -2   6  241.47    5.99
   2  -2   7  361.95   11.43
  -2   2  -7  349.55    5.23
  -2   2  -7  313.85    9.68
   2  -2   7  364.59   11.88
   2  -2   7  321.12    9.56
  -2   2  -7  345.76    9.64
   2  -2   7  322.44    7.68
   2  -2   7  343.88    8.37
   2  -2   7  318.14    9.79
  -2   2  -7  350.29   11.20
   2  -2   8  395.81   13.17
   2  -2   8  398.41   11.11
  -2   2  -8  402.33    6.54
   2  -2   8  383.26    8.83
   2  -2   8  400.59   12.85
   2  -2   8  398.57   13.00
   2  -2   8  384.22    9.10
   2  -2   8  377.70   11.29
  -2   2  -8  368.47   11.12
  -2   2  -8  409.68   13.00
   2  -2   9   37.09    4.46
   2  -2   9   35.87    2.77
   2  -2   9   32.55    4.15
   2  -2   9   43.75    5.77
   2  -2   9   34.90    3.50
   2  -2   9   42.87    4.21
  -2   2  -9   35.41    3.77
  -2   2  -9   38.45    4.46
  -2   2 -10    1.48    1.58
   2  -2  10    1.52    1.44
  -2   2 -10    0.30    1.21
   2  -2  10    2.05    1.83
   2  -2  10    0.91    1.31
   2  -2  10    0.87    1.55
   2  -2  10    0.33    1.71
   2  -2  10    2.06    1.25
  -2   2 -11   -1.69    1.86
   2  -2  11    1.80    1.74
   2  -2  11   -0.11    1.82
   2  -2  11    0.17    1.30
   2  -2  11    1.01    1.17
  -2   2 -11    0.15    1.02
   2  -2  11    1.74    2.10
   2  -2  11   -0.09    1.40
  -2   2 -12    0.51    1.76
   2  -2  12   -0.10    1.61
   2  -2  12   -3.04    1.93
   2  -2  12    0.93    2.06
   2  -2  12    0.86    1.47
   2  -2  12    1.66    1.47
  -2   2 -12    2.02    1.51
   2  -2  13    2.16    1.83
  -2   2 -13    4.82    2.04
   2  -2  13    3.15    1.96
   2  -2  13    4.06    2.40
   2  -2  13    4.85    2.38
   2  -1 -13   -0.80    1.20
   2  -1 -13    3.78    2.22
  -2   1  13   -1.46    1.47
  -2   1  13    0.31    1.49
  -2   1  13    1.88    1.94
   2  -1 -12    3.89    1.78
  -2   1  12    5.90    2.20
   2  -1 -12   -1.60    2.02
  -2   1  12    1.47    1.70
  -2   1  12    2.04    2.70
   2  -1 -11    3.37    1.63
  -2   1  11    0.92    1.46
  -2   1  11    0.92    1.68
  -2   1  11    4.02    1.78
   2  -1 -11    1.88    1.80
   2  -1 -10    5.68    1.65
  -2   1  10    5.17    1.14
  -2   1  10    4.03    1.04
  -2   1  10    5.78    1.26
   2  -1 -10    6.46    0.78
   2  -1 -10    6.30    2.15
  -2   1  10    4.59    1.85
   2  -1 -10    5.91    0.96
  -2   1  10    4.02    1.68
  -2   1  10    4.51    1.95
  -2   1   9   93.97    3.78
  -2   1   9   97.46    3.95
   2  -1  -9   84.18    2.81
  -2   1   9   93.97    3.88
  -2   1   9   98.52    6.97
   2  -1  -9   88.47    6.11
  -2   1   9   92.38    3.70
  -2   1   9   84.95    6.29
  -2   1   9   89.24    2.91
  -2   1   9   92.76    3.97
   2  -1  -9   92.47    3.15
   2  -1  -9   95.99    5.43
  -2   1   9   93.63    5.27
  -2   1   9   87.78    5.96
   2  -1  -8   91.31    5.84
  -2   1   8   84.78    3.32
  -2   1   8   84.48    5.84
  -2   1   8   87.75    3.26
  -2   1   8   84.03    5.92
  -2   1   8   92.07    3.45
  -2   1   8   86.61    3.21
   2  -1  -8   85.99    2.95
  -2   1   8   90.68    3.50
  -2   1   8   86.91    2.59
  -2   1   8   86.86    5.98
  -2   1   8   81.82    4.86
   2  -1  -8   93.34    2.83
   2  -1  -8  104.94    5.51
  -2   1   8   91.64    4.82
  -2   1   8   83.42    5.43
  -2   1   7    0.37    0.36
   2  -1  -7   -0.27    0.81
  -2   1   7    0.09    0.35
  -2   1   7    0.08    0.21
  -2   1   7   -0.08    0.39
   2  -1  -7    0.38    0.78
  -2   1   7   -0.16    0.83
  -2   1   7   -0.44    0.42
   2  -1  -7    0.69    0.57
   2  -1  -7    0.20    0.89
   2  -1  -7    1.55    1.56
  -2   1   7    0.55    1.07
   2  -1  -7   -0.08    0.22
   2  -1  -7    0.03    0.30
   2  -1  -7    0.19    0.24
  -2   1   7    0.32    1.08
   2  -1  -7    0.52    0.79
  -2   1   7    0.42    1.06
  -2   1   7    1.42    1.36
  -2   1   7    0.35    0.38
  -2   1   7    0.23    1.21
  -2   1   6   56.20    3.89
   2  -1  -6   65.42    3.93
   2  -1  -6   67.05    3.92
   2  -1  -6   55.94    3.86
  -2   1   6   59.29    1.99
   2  -1  -6   61.50    2.60
  -2   1   6   55.90    1.88
  -2   1   6   58.49    1.86
  -2   1   6   57.95    1.84
  -2   1   6   57.33    1.85
  -2   1   6   59.43    4.22
  -2   1   6   58.52    1.81
  -2   1   6   51.24    1.25
   2  -1  -6   61.43    2.03
   2  -1  -6   62.49    4.43
  -2   1   6   62.66    3.72
   2  -1  -6   56.65    3.85
   2  -1  -6   61.96    4.30
  -2   1   6   59.05    4.39
  -2   1   6   56.74    4.02
  -2   1   6   64.00    4.55
   2  -1  -6   60.05    4.19
   2  -1  -6   67.08    4.49
   2  -1  -6   61.33    1.43
   2  -1  -6   65.76    3.48
  -2   1   5  149.61    5.83
   2  -1  -5  165.04    5.90
   2  -1  -5  160.76    4.20
   2  -1  -5  168.37    3.58
   2  -1  -5  156.05    4.46
  -2   1   5  146.00    5.33
  -2   1   5  157.49    6.29
  -2   1   5  162.77    6.55
   2  -1  -5  155.20    6.40
  -2   1   5  158.41    5.96
   2  -1  -5  160.04    6.30
   2  -1  -5  173.33    5.01
  -2   1   4   33.60    2.67
  -2   1   4   35.37    2.49
   2  -1  -4   34.88    2.64
  -2   1   4   33.86    2.69
  -2   1   4   33.51    2.73
   2  -1  -4   33.25    1.87
   2  -1  -4   35.62    1.80
   2  -1  -4   33.93    2.78
  -2   1   4   35.82    2.91
  -2   1   4   33.49    2.56
  -2   1   4   36.41    3.00
   2  -1  -4   36.03    2.09
   2  -1  -4   34.71    2.76
   2  -1  -4   36.44    2.08
  -2   1   3   40.51    2.68
   2  -1  -3   42.08    2.64
  -2   1   3   38.17    2.67
  -2   1   3   40.61    2.70
   2  -1  -3   38.99    1.82
   2  -1  -3   40.49    2.03
   2  -1  -3   38.09    2.62
  -2   1   3   38.65    2.43
  -2   1   3   38.48    2.77
  -2   1   3   38.93    2.85
  -2   1   3   36.85    2.47
  -2   1   3   39.74    2.77
  -2   1   3   36.11    2.75
   2  -1  -3   36.88    2.60
   2  -1  -3   37.00    1.80
   2  -1  -2  685.57    9.56
   2  -1  -2  683.55   10.12
   2  -1  -2  675.76    5.15
   2  -1  -2  673.69    5.48
  -2   1   2  667.53    9.66
   2  -1  -2  672.55    5.15
  -2   1   2  671.79    9.67
  -2   1   2  670.10    5.37
   2  -1  -2  709.14    8.68
   2  -1  -2  677.58    5.07
   2  -1  -2  675.64    5.08
  -2   1   2  674.68    5.20
   2  -1  -2  679.36    9.91
  -2   1   2  650.88    9.20
  -2   1   2  671.35    9.48
   2  -1  -2  686.62   10.07
  -2   1   2  665.43    6.65
   2  -1  -2  699.49    6.96
   2  -1  -1  706.81    8.82
   2  -1  -1  692.80    8.67
   2  -1  -1  730.52   10.36
   2  -1  -1  675.01    7.22
   2  -1  -1  674.55    8.85
  -2   1   1  671.29    9.06
  -2   1   1  693.44    6.71
   2  -1  -1  715.70    7.12
  -2   1   1  684.40    7.25
  -2   1   1  715.47    9.28
   2  -1  -1  702.73    7.87
   2  -1  -1  707.99    9.11
  -2   1   1  711.87    8.90
   2  -1  -1  715.58    6.64
  -2   1   1  705.50    9.13
  -2   1   1  686.57    7.97
   2  -1  -1  684.61    8.07
  -2   1   1  696.29    7.24
   2  -1  -1  695.11    7.08
   2  -1   0  830.80    7.46
   2  -1   0  820.28    9.48
  -2   1   0  813.07    8.31
   2  -1   0  834.66    8.85
   2  -1   0  835.07    9.32
  -2   1   0  811.06    9.50
  -2   1   0  823.07    8.59
   2  -1   0  829.23    9.26
   2  -1   0  786.85    9.77
   2  -1   0  799.01    7.85
  -2   1   0  819.96    9.95
   2  -1   0  844.28    8.51
   2  -1   0  816.36    6.69
   2  -1   0  827.93    9.19
  -2   1   0  827.50    8.75
  -2   1   0  805.43    9.40
  -2   1  -1  426.11    7.12
  -2   1  -1  417.14    7.71
  -2   1  -1  419.77    6.69
  -2   1  -1  425.39    5.02
   2  -1   1  382.99    7.19
   2  -1   1  407.45    4.19
  -2   1  -1  424.21    6.97
  -2   1  -1  427.79    7.65
   2  -1   1  406.07    7.27
  -2   1  -2  347.11    3.87
  -2   1  -2  330.70    7.69
   2  -1   2  316.42    6.84
  -2   1  -2  334.64    6.87
   2  -1   2  338.73    7.39
  -2   1  -3  443.45    9.71
  -2   1  -3  441.49    8.77
   2  -1   3  395.81    8.05
  -2   1  -3  396.34    8.17
   2  -1   3  430.31    4.15
   2  -1   3  417.25    9.12
  -2   1  -4  205.81    3.15
   2  -1   4  212.30    3.34
   2  -1   4  203.25    7.57
   2  -1   4  210.73    7.07
  -2   1  -4  217.32    7.36
  -2   1  -4  208.52    6.40
   2  -1   4  196.79    6.06
   2  -1   4  205.43    3.59
  -2   1  -4  205.24    6.35
  -2   1  -4  201.88    4.30
  -2   1  -5   69.18    2.25
   2  -1   5   69.91    4.56
   2  -1   5   74.63    4.78
   2  -1   5   73.43    3.93
   2  -1   5   70.66    2.28
  -2   1  -5   75.80    4.74
  -2   1  -5   72.53    4.01
   2  -1   5   69.39    2.59
   2  -1   5   80.74    4.24
   2  -1   5   69.70    3.77
   2  -1   5   72.69    4.85
  -2   1  -5   71.16    4.08
  -2   1  -5   70.59    3.07
   2  -1   5   78.61    4.68
  -2   1  -6    5.52    1.66
   2  -1   6    5.84    1.38
  -2   1  -6    5.68    1.37
   2  -1   6    8.75    2.21
  -2   1  -6    4.47    1.39
   2  -1   6    1.70    1.29
  -2   1  -6    5.51    0.84
   2  -1   6    2.34    1.45
  -2   1  -6    5.50    1.57
   2  -1   6    4.33    1.24
   2  -1   6    6.13    1.42
  -2   1  -6    4.60    1.06
   2  -1   6    4.69    0.80
   2  -1   7   40.25    2.87
  -2   1  -7   41.11    2.30
   2  -1   7   33.27    3.75
  -2   1  -7   44.21    3.39
   2  -1   7   37.46    2.14
   2  -1   7   42.35    3.33
   2  -1   7   39.76    4.03
  -2   1  -7   38.99    2.99
  -2   1  -7   35.84    3.32
   2  -1   7   38.39    3.23
  -2   1  -7   43.20    4.09
   2  -1   8   25.32    3.39
   2  -1   8   22.94    3.28
   2  -1   8   22.90    2.21
  -2   1  -8   26.06    2.88
   2  -1   8   26.83    2.86
   2  -1   8   23.40    1.92
   2  -1   8   26.98    3.77
  -2   1  -8   24.14    2.57
  -2   1  -8   23.32    2.95
   2  -1   8   26.17    3.08
  -2   1  -8   24.93    1.97
  -2   1  -8   29.11    3.69
  -2   1  -9   18.05    3.15
   2  -1   9   19.30    3.40
   2  -1   9   18.31    2.40
   2  -1   9   16.79    2.64
   2  -1   9   18.32    2.05
   2  -1   9   19.22    3.27
   2  -1   9   15.97    3.22
  -2   1  -9   20.50    2.98
  -2   1  -9   17.53    2.42
   2  -1   9   20.01    3.29
  -2   1 -10   -2.67    2.02
   2  -1  10    3.08    1.46
   2  -1  10   -0.58    1.47
   2  -1  10    0.05    1.66
   2  -1  10   -0.44    0.86
   2  -1  10   -1.23    1.63
  -2   1 -10   -1.34    1.23
   2  -1  10    2.49    1.89
  -2   1 -11   13.87    3.23
   2  -1  11   11.45    2.59
   2  -1  11   13.56    3.03
  -2   1 -11   15.36    2.79
   2  -1  11   13.30    3.03
   2  -1  11    7.40    2.45
   2  -1  11   16.39    3.49
   2  -1  11    5.73    1.51
   2  -1  11   14.59    3.52
  -2   1 -12    5.90    2.25
   2  -1  12    8.75    2.70
   2  -1  12    4.76    2.25
  -2   1 -12    5.45    1.96
   2  -1  12    5.53    2.27
   2  -1  12   10.20    2.96
   2  -1  12    3.28    1.97
   2  -1  12    4.63    2.11
   2  -1  13   -2.92    2.39
   2  -1  13    2.56    2.04
  -2   1 -13   -0.53    1.75
   2  -1  13    4.22    2.15
   2  -1  13    1.88    2.04
   2   0 -14   22.82    3.76
   2   0 -14   20.45    3.48
   2   0 -13    3.23    1.69
   2   0 -13    3.21    1.64
  -2   0  13    5.16    2.18
   2   0 -13    3.55    1.96
  -2   0  13    3.63    2.23
  -2   0  13    3.36    2.22
   2   0 -12   15.92    3.01
   2   0 -12   11.99    2.89
  -2   0  12   13.68    3.00
  -2   0  12   17.59    3.44
  -2   0  12   21.80    3.97
   2   0 -11    1.04    1.21
   2   0 -11   -0.66    1.76
  -2   0  11    0.02    0.84
  -2   0  11    0.29    1.13
  -2   0  11   -0.14    0.68
  -2   0  11   -1.06    1.78
   2   0 -11   -0.13    0.68
  -2   0  11    0.05    1.78
  -2   0  11   -2.11    2.15
   2   0 -10   -1.41    1.54
  -2   0  10    0.50    0.56
  -2   0  10   -0.26    0.62
   2   0 -10    1.04    1.53
  -2   0  10   -2.39    1.71
  -2   0  10    0.38    0.51
   2   0 -10    0.41    0.70
  -2   0  10    1.64    1.60
  -2   0  10    0.72    0.58
  -2   0  10    2.20    1.69
  -2   0  10    1.58    1.58
  -2   0  10   -0.11    1.89
   2   0  -9    1.52    1.33
  -2   0   9    0.10    0.60
   2   0  -9    0.08    0.59
  -2   0   9    0.48    0.53
  -2   0   9    0.03    0.70
  -2   0   9   -0.51    0.48
   2   0  -9    0.86    1.55
  -2   0   9   -0.30    1.34
  -2   0   9    0.02    0.54
  -2   0   9    0.16    0.60
   2   0  -9    0.11    0.36
  -2   0   9    0.20    1.13
  -2   0   9    0.19    1.08
  -2   0   9    1.08    1.23
  -2   0   9    1.14    1.40
   2   0  -8   13.92    2.18
   2   0  -8   12.83    2.01
  -2   0   8   13.37    1.52
  -2   0   8   13.32    1.47
  -2   0   8   12.62    1.42
  -2   0   8   14.88    2.58
   2   0  -8   11.01    2.32
  -2   0   8   13.89    1.48
   2   0  -8   15.15    1.31
  -2   0   8   12.97    2.29
  -2   0   8   11.17    2.13
   2   0  -8   11.25    0.72
  -2   0   8   12.42    2.48
  -2   0   8   15.88    2.63
  -2   0   8   14.46    1.55
  -2   0   8   14.54    2.71
   2   0  -8   15.47    1.38
  -2   0   8   12.81    1.17
   2   0  -7   39.20    3.14
  -2   0   7   40.17    2.27
  -2   0   7   38.67    3.40
  -2   0   7   44.24    2.37
   2   0  -7   43.58    3.61
   2   0  -7   40.38    3.79
   2   0  -7   46.70    3.43
   2   0  -7   42.00    1.61
   2   0  -7   39.22    3.43
  -2   0   7   40.84    2.21
   2   0  -7   44.00    4.00
  -2   0   7   39.08    2.16
  -2   0   7   40.38    2.17
   2   0  -7   34.22    2.23
   2   0  -7   41.30    3.44
   2   0  -7   40.53    3.68
   2   0  -7   38.56    3.37
   2   0  -7   40.78    3.84
  -2   0   7   44.32    3.77
  -2   0   7   46.78    4.05
  -2   0   7   39.18    3.52
  -2   0   7   46.26    4.10
   2   0  -7   41.46    3.29
  -2   0   7   38.78    3.75
  -2   0   7   39.35    1.81
   2   0  -7   41.80    1.99
   2   0  -6  139.92    5.46
  -2   0   6  142.58    3.65
   2   0  -6  154.48    6.26
  -2   0   6  139.75    5.95
   2   0  -6  150.58    5.67
   2   0  -6  144.49    3.20
  -2   0   6  142.54    3.53
  -2   0   6  144.69    3.08
  -2   0   6  141.25    3.52
   2   0  -6  157.68    6.00
   2   0  -6  155.42    6.46
  -2   0   6  139.89    6.20
  -2   0   6  140.07    3.47
  -2   0   6  155.96    6.78
   2   0  -6  147.35    6.64
  -2   0   6  144.17    3.61
  -2   0   6  146.39    6.52
   2   0  -6  141.64    6.15
   2   0  -6  145.96    5.11
  -2   0   6  134.95    5.92
   2   0  -6  150.17    3.23
   2   0  -6  154.45    5.65
   2   0  -5  218.76    6.38
   2   0  -5  226.69    4.17
   2   0  -5  219.49    7.52
  -2   0   5  207.81    3.57
  -2   0   5  220.87    7.42
   2   0  -5  212.27    6.80
  -2   0   5  216.19    3.32
  -2   0   5  218.20    6.97
  -2   0   5  217.70    7.12
  -2   0   5  209.29    3.56
  -2   0   5  210.52    3.59
   2   0  -5  206.43    5.53
  -2   0   5  216.51    3.77
  -2   0   5  213.90    6.75
   2   0  -5  222.35    6.18
  -2   0   4    1.77    0.35
   2   0  -4    3.55    0.98
   2   0  -4    2.56    0.95
  -2   0   4    1.93    1.15
   2   0  -4    1.24    0.77
  -2   0   4    1.62    0.36
  -2   0   4    1.99    1.17
  -2   0   4    1.71    0.37
  -2   0   4    1.40    0.34
  -2   0   4    1.17    0.33
  -2   0   4    0.68    1.03
   2   0  -4    0.97    0.37
  -2   0   4    1.78    0.43
  -2   0   4    2.02    1.07
  -2   0   4    2.75    1.25
   2   0  -4    1.46    0.91
  -2   0   4    1.69    1.04
  -2   0   4    1.37    0.96
   2   0  -4    1.51    0.78
  -2   0   3    0.97    0.60
   2   0  -3    1.75    0.80
  -2   0   3    1.57    0.35
   2   0  -3    2.20    0.91
   2   0  -3    1.84    0.43
  -2   0   3    1.26    0.37
  -2   0   3    2.08    0.99
  -2   0   3    1.56    0.91
  -2   0   3    1.65    0.36
  -2   0   3    1.62    0.39
   2   0  -3    1.48    0.73
   2   0  -3    1.50    0.43
   2   0  -3    1.45    0.42
  -2   0   3    1.66    0.38
  -2   0   3    3.29    1.38
   2   0  -3    1.32    0.71
  -2   0   3    1.35    0.85
  -2   0   3    1.52    0.88
   2   0  -3    1.31    0.81
  -2   0   2   72.40    2.84
   2   0  -2   79.52    3.46
  -2   0   2   71.24    3.21
  -2   0   2   68.65    2.05
  -2   0   2   70.25    3.08
  -2   0   2   68.96    2.06
   2   0  -2   71.02    2.06
  -2   0   2   71.69    2.07
  -2   0   2   74.43    3.18
   2   0  -2   70.50    2.10
   2   0  -2   73.32    1.99
  -2   0   2   70.50    1.96
  -2   0   2   77.22    3.36
   2   0  -2   72.37    3.22
  -2   0   2   72.60    2.93
   2   0  -2   69.02    2.05
   2   0  -2   70.24    3.10
   2   0  -2   73.95    2.93
  -2   0   2   79.61    3.23
  -2   0   2   69.69    2.68
   2   0  -2   66.59    2.70
   2   0  -2   73.61    2.73
   2   0  -1    4.71    1.03
  -2   0   1    3.74    0.84
   2   0  -1    4.29    0.69
   2   0  -1    4.27    0.96
  -2   0   1    3.92    0.73
   2   0  -1    3.59    0.79
   2   0  -1    6.91    1.05
   2   0  -1    3.32    0.75
   2   0  -1    3.88    0.82
  -2   0   1    4.57    0.95
   2   0  -1    4.60    0.80
   2   0  -1    3.84    1.02
  -2   0   1    3.46    0.79
   2   0  -1    3.70    0.78
  -2   0   1    3.53    0.74
  -2   0   1    4.44    0.79
   2   0  -1    4.34    0.88
  -2   0   1    5.00    1.01
  -2   0   1    5.44    1.19
  -2   0   1    3.48    1.02
  -2   0   1    4.49    0.99
   2   0   0  687.23    8.56
  -2   0   0  690.41    8.46
  -2   0   0  672.69    8.89
   2   0   0  663.44    6.91
  -2   0   0  689.86    7.10
  -2   0   0  686.75    8.67
   2   0   0  687.63    8.67
   2   0   0  669.96    9.39
  -2   0   0  677.93    7.90
  -2   0   0  685.17    6.57
  -2   0   0  681.92    8.77
   2   0   0  669.66    8.78
  -2   0   0  655.07    6.17
   2   0   0  647.27    6.62
   2   0   0  660.14    6.65
   2   0   1  449.59    7.65
  -2   0  -1  466.01    6.52
  -2   0  -1  454.87    8.22
  -2   0  -1  465.59    5.60
  -2   0  -1  459.64    8.04
   2   0   1  442.94    7.96
  -2   0  -1  449.10    7.23
   2   0   1  449.91    8.18
  -2   0  -2  261.69    6.97
  -2   0  -2  264.96    6.79
   2   0   2  252.01    6.19
  -2   0  -2  261.80    6.09
  -2   0  -2  255.65    3.28
   2   0   2  265.11    6.78
  -2   0  -3  285.31    7.90
  -2   0  -3  281.57    7.62
   2   0   3  276.23    6.59
  -2   0  -3  283.88    6.81
   2   0   3  286.25    5.45
  -2   0  -3  272.96    6.70
   2   0   3  287.85    4.84
  -2   0  -3  275.65    4.53
   2   0   3  291.76    7.82
  -2   0  -4  195.33    6.96
   2   0   4  188.34    5.60
  -2   0  -4  194.38    6.84
  -2   0  -4  191.22    5.94
   2   0   4  179.49    5.60
  -2   0  -4  187.45    3.57
  -2   0  -4  180.10    4.48
  -2   0  -4  176.28    5.81
   2   0   4  180.20    4.97
   2   0   4  194.58    6.98
   2   0   4  202.37    4.44
   2   0   5    7.05    1.58
   2   0   5    5.09    1.49
  -2   0  -5    6.11    1.44
   2   0   5    6.34    1.20
  -2   0  -5    6.68    0.82
   2   0   5    7.09    1.36
  -2   0  -5    5.75    0.90
   2   0   5    5.93    1.53
  -2   0  -5    3.01    1.21
  -2   0  -5    5.12    1.39
   2   0   5    6.52    1.35
  -2   0  -5    5.60    1.06
   2   0   5    6.40    0.95
  -2   0  -6   93.74    3.62
   2   0   6   91.02    3.54
   2   0   6   90.77    5.58
  -2   0  -6   87.44    3.18
   2   0   6   88.86    5.39
  -2   0  -6   96.74    5.63
  -2   0  -6   81.45    4.58
   2   0   6   91.48    4.43
  -2   0  -6   94.90    3.72
   2   0   6   96.68    4.93
  -2   0  -6   86.13    4.68
  -2   0  -6   83.46    4.07
   2   0   6   91.24    4.38
  -2   0  -6   87.39    5.38
   2   0   7  527.02   11.05
  -2   0  -7  517.56    9.27
   2   0   7  528.64   14.19
   2   0   7  550.64   15.13
   2   0   7  493.94    8.86
  -2   0  -7  534.91   11.22
   2   0   7  494.26   10.04
  -2   0  -7  521.52    9.69
  -2   0  -7  495.13   10.85
  -2   0  -7  496.05   11.80
  -2   0  -7  521.45    8.76
   2   0   7  525.22   13.97
   2   0   7  499.00   11.35
  -2   0  -7  528.61   13.93
   2   0   7  531.28   13.46
  -2   0  -8   -0.11    1.53
  -2   0  -8    0.45    0.71
   2   0   8    0.30    0.98
  -2   0  -8    0.59    1.05
   2   0   8    1.04    1.64
   2   0   8    0.09    1.45
   2   0   8    2.32    1.90
   2   0   8    0.50    0.70
   2   0   8    0.88    1.44
   2   0   8    0.78    0.88
  -2   0  -8    0.18    0.83
  -2   0  -8   -0.34    0.65
   2   0   8   -0.83    0.79
   2   0   8    0.15    1.48
   2   0   9   58.45    5.33
   2   0   9   65.56    5.56
   2   0   9   59.27    5.22
   2   0   9   57.48    5.72
   2   0   9   58.63    3.55
  -2   0  -9   53.34    4.48
   2   0   9   60.71    4.12
   2   0   9   57.06    3.65
   2   0   9   55.28    5.37
   2   0   9   56.50    4.50
  -2   0  -9   56.60    5.31
  -2   0 -10    0.97    1.63
   2   0  10    0.56    0.80
   2   0  10    2.29    1.59
   2   0  10   -0.04    1.23
   2   0  10   -1.56    1.71
   2   0  10    1.49    1.44
  -2   0 -10    2.01    1.45
   2   0  10   -0.52    1.37
   2   0  10   -0.58    0.71
   2   0  10   -0.16    1.50
  -2   0 -11   -2.75    2.39
  -2   0 -11    0.18    1.19
   2   0  11    1.02    1.38
   2   0  11    0.41    1.41
   2   0  11    3.06    2.08
   2   0  11   -1.12    1.93
   2   0  11   -1.12    2.00
   2   0  11   -2.10    2.16
  -2   0 -12    4.18    2.14
   2   0  12    1.52    1.48
   2   0  12    5.83    2.42
   2   0  12    0.83    1.65
  -2   0 -12    2.90    1.69
   2   0  12    2.43    1.53
   2   0  12    5.18    2.44
   2   0  13    3.01    2.13
   2   0  13   -0.58    2.11
  -2   0 -13   -0.07    1.22
   2   0  13    2.02    1.69
   2   0  13    0.99    1.88
   2   1 -14   -1.71    1.58
   2   1 -14   -0.48    1.79
   2   1 -14   -0.16    1.49
   2   1 -13   20.13    3.28
  -2  -1  13   23.18    4.01
  -2  -1  13   25.89    4.20
  -2  -1  13   25.99    4.42
  -2  -1  13   24.76    4.66
   2   1 -13   32.72    4.39
   2   1 -13   27.56    4.25
   2   1 -12   50.36    5.30
  -2  -1  12   48.20    5.55
  -2  -1  12   50.37    5.58
  -2  -1  12   57.76    6.17
  -2  -1  12   51.16    5.89
   2   1 -12   50.07    4.86
   2   1 -12   54.29    5.34
  -2  -1  12   46.27    5.16
   2   1 -11   39.49    4.57
  -2  -1  11   40.61    4.93
  -2  -1  11   41.42    3.40
  -2  -1  11   44.10    3.58
  -2  -1  11   45.44    4.91
  -2  -1  11   37.10    4.67
  -2  -1  11   36.62    4.82
   2   1 -11   40.86    2.97
  -2  -1  11   41.78    4.65
   2   1 -11   45.62    4.70
   2   1 -10    2.80    1.59
  -2  -1  10    1.77    1.49
  -2  -1  10    0.34    0.87
   2   1 -10    3.59    2.00
  -2  -1  10    3.62    1.46
   2   1 -10    2.17    0.90
  -2  -1  10    0.84    0.65
   2   1 -10    1.76    0.75
  -2  -1  10    1.78    1.41
  -2  -1  10    0.62    0.66
  -2  -1  10   -0.46    1.64
  -2  -1  10    0.59    1.57
  -2  -1  10    0.15    1.67
   2   1  -9    4.55    1.77
  -2  -1   9    2.88    0.73
   2   1  -9    2.79    1.12
  -2  -1   9    3.46    1.00
  -2  -1   9    1.51    1.32
  -2  -1   9    3.11    0.95
  -2  -1   9    3.71    1.62
   2   1  -9    2.23    1.72
  -2  -1   9    2.93    0.82
   2   1  -9    2.45    0.80
  -2  -1   9    4.69    1.74
  -2  -1   9    2.16    1.52
  -2  -1   9    3.72    1.76
   2   1  -9    3.09    0.90
  -2  -1   9    2.58    1.51
   2   1  -8   38.68    3.10
  -2  -1   8   45.20    3.01
  -2  -1   8   44.50    3.83
  -2  -1   8   39.39    3.72
  -2  -1   8   41.30    2.79
   2   1  -8   41.16    3.98
  -2  -1   8   39.40    2.65
  -2  -1   8   39.50    2.76
   2   1  -8   37.53    2.57
  -2  -1   8   43.19    3.83
  -2  -1   8   38.54    3.98
  -2  -1   8   44.72    2.51
  -2  -1   8   40.93    4.11
  -2  -1   8   39.24    3.96
   2   1  -8   39.74    3.49
   2   1  -8   42.63    2.54
  -2  -1   8   42.22    2.81
   2   1  -8   46.23    3.93
   2   1  -7   -0.27    0.99
   2   1  -7    0.92    1.12
   2   1  -7   -0.11    0.73
   2   1  -7   -0.69    0.73
   2   1  -7   -0.33    0.80
   2   1  -7    2.82    1.35
  -2  -1   7    0.47    0.58
  -2  -1   7   -0.17    1.22
  -2  -1   7    0.04    0.50
   2   1  -7   -0.13    1.51
  -2  -1   7   -0.28    0.56
  -2  -1   7    0.31    0.97
  -2  -1   7   -0.87    1.35
   2   1  -7   -0.22    0.60
   2   1  -7    0.30    0.70
   2   1  -7    0.22    0.57
   2   1  -7    0.69    1.03
  -2  -1   7    0.44    0.47
  -2  -1   7   -0.27    0.91
   2   1  -7    0.63    0.94
  -2  -1   7   -0.45    1.14
  -2  -1   7    1.23    1.45
   2   1  -7   -0.10    0.94
   2   1  -7   -0.16    0.85
  -2  -1   7    0.71    1.12
  -2  -1   7   -0.07    0.54
   2   1  -6   78.73    3.90
   2   1  -6   88.26    4.83
  -2  -1   6   77.20    3.14
   2   1  -6   81.11    3.46
  -2  -1   6   78.28    4.50
  -2  -1   6   78.61    3.13
  -2  -1   6   78.37    3.08
  -2  -1   6   79.54    4.77
   2   1  -6   79.59    4.09
  -2  -1   6   86.56    3.45
   2   1  -6   75.44    4.37
   2   1  -6   75.60    1.67
  -2  -1   6   73.40    4.38
  -2  -1   6   80.02    4.92
   2   1  -6   88.01    4.41
   2   1  -6   80.99    4.98
  -2  -1   6   83.34    2.99
  -2  -1   6   83.72    4.73
   2   1  -6   76.45    3.98
  -2  -1   6   85.00    4.61
   2   1  -6   87.77    3.07
   2   1  -6   84.47    4.48
  -2  -1   5   75.07    3.68
   2   1  -5   74.51    3.57
  -2  -1   5   71.31    2.70
  -2  -1   5   72.33    4.08
   2   1  -5   69.00    3.48
   2   1  -5   74.93    3.01
  -2  -1   5   69.00    2.64
  -2  -1   5   72.14    4.22
   2   1  -5   68.20    3.48
  -2  -1   5   68.04    4.23
  -2  -1   5   70.68    2.71
   2   1  -5   68.94    4.23
  -2  -1   5   69.14    3.96
  -2  -1   5   71.28    2.63
  -2  -1   5   67.03    3.81
   2   1  -5   70.71    3.83
   2   1  -5   72.70    2.60
  -2  -1   4  411.25    8.40
  -2  -1   4  464.26    8.34
   2   1  -4  442.78    8.42
  -2  -1   4  415.74    6.09
  -2  -1   4  423.58    9.37
   2   1  -4  417.66    6.44
  -2  -1   4  408.39    6.13
   2   1  -4  423.01    6.43
  -2  -1   4  417.02    6.07
   2   1  -4  401.92    7.70
  -2  -1   4  418.43    5.58
   2   1  -4  421.30    8.68
   2   1  -4  417.01    6.43
  -2  -1   4  422.11    8.88
  -2  -1   4  410.88    9.46
   2   1  -4  424.57    7.67
   2   1  -4  403.70    9.34
   2   1  -4  413.20    8.30
  -2  -1   4  425.00    9.12
   2   1  -4  402.67    8.04
  -2  -1   4  408.58    8.23
  -2  -1   4  424.98    5.98
   2   1  -4  423.39    8.33
  -2  -1   3  444.69    7.76
  -2  -1   3  446.83    8.77
   2   1  -3  411.29    6.06
   2   1  -3  419.43    6.05
   2   1  -3  427.02    6.19
  -2  -1   3  428.34    8.51
  -2  -1   3  419.53    6.04
   2   1  -3  405.44    8.06
  -2  -1   3  430.71    6.19
  -2  -1   3  427.20    5.65
  -2  -1   3  428.10    8.77
   2   1  -3  409.43    6.83
  -2  -1   3  412.43    7.00
   2   1  -3  429.02    7.44
  -2  -1   3  424.67    7.37
  -2  -1   3  424.96    6.18
   2   1  -3  419.14    6.90
  -2  -1   3  466.21    7.76
  -2  -1   3  403.84    7.36
   2   1  -3  402.53    7.35
  -2  -1   3  427.40    5.89
   2   1  -2  487.04    6.76
   2   1  -2  498.75    7.26
  -2  -1   2  501.51    6.34
  -2  -1   2  508.88    9.06
   2   1  -2  499.73    8.34
   2   1  -2  488.62    6.75
  -2  -1   2  515.59    8.37
   2   1  -2  492.06    6.82
   2   1  -2  481.29    6.61
  -2  -1   2  503.83    6.83
   2   1  -2  498.70    6.21
  -2  -1   2  501.38    6.96
   2   1  -2  483.22    8.35
  -2  -1   2  505.49    8.51
   2   1  -2  494.43    6.99
  -2  -1   2  496.92    6.95
  -2  -1   2  486.48    8.53
  -2  -1   2  483.89    6.40
  -2  -1   2  495.80    6.99
   2   1  -2  486.07    6.24
  -2  -1   2  490.52    6.79
   2   1  -2  512.12    8.04
  -2  -1   1   69.41    2.05
  -2  -1   1   66.95    3.28
  -2  -1   1   65.15    2.75
   2   1  -1   64.16    2.74
   2   1  -1   65.91    2.30
   2   1  -1   69.27    2.83
   2   1  -1   64.45    2.67
  -2  -1   1   65.17    2.68
  -2  -1   1   68.15    2.59
   2   1  -1   63.03    2.45
  -2  -1   1   69.40    2.82
  -2  -1   1   65.75    2.47
   2   1  -1   67.27    2.51
  -2  -1   1   68.20    2.72
   2   1  -1   63.53    2.02
   2   1  -1   66.04    1.90
  -2  -1   1   66.07    2.75
   2   1  -1   65.22    2.89
  -2  -1   0  123.74    2.40
  -2  -1   0  120.38    4.05
  -2  -1   0  122.73    3.16
  -2  -1   0  118.05    3.96
   2   1   0  122.61    2.41
  -2  -1   0  122.18    3.66
  -2  -1   0  128.36    3.26
   2   1   0  118.39    1.78
  -2  -1   0  122.69    4.11
   2   1   0  117.46    3.94
   2   1   1   36.18    2.42
  -2  -1  -1   35.86    1.05
  -2  -1  -1   37.46    2.53
  -2  -1  -1   35.62    2.40
  -2  -1  -1   33.89    2.20
   2   1   1   36.48    2.41
   2   1   1   35.99    2.56
  -2  -1  -2  151.22    5.27
  -2  -1  -2  160.13    5.59
  -2  -1  -2  149.14    4.68
   2   1   2  152.46    4.95
   2   1   2  155.09    2.72
   2   1   2  158.85    5.56
  -2  -1  -3 1259.34   16.78
  -2  -1  -3 1250.78   16.30
   2   1   3 1298.51   14.58
   2   1   3 1314.45   14.59
  -2  -1  -3 1282.79    9.34
  -2  -1  -3 1238.96   14.37
   2   1   3 1309.79   12.37
   2   1   3 1285.69   10.36
   2   1   3 1324.80   17.04
   2   1   4   45.30    3.08
  -2  -1  -4   48.67    3.50
   2   1   4   40.17    2.62
  -2  -1  -4   44.01    1.82
  -2  -1  -4   45.71    3.47
  -2  -1  -4   43.00    2.10
  -2  -1  -4   40.37    2.89
  -2  -1  -4   43.50    2.52
   2   1   4   44.85    2.48
   2   1   4   41.97    2.30
   2   1   4   47.21    3.54
   2   1   5   22.29    2.29
   2   1   5   23.81    2.77
  -2  -1  -5   23.00    1.59
  -2  -1  -5   23.37    2.73
   2   1   5   20.59    2.61
   2   1   5   19.31    2.01
   2   1   5   19.90    2.12
   2   1   5   26.65    2.87
  -2  -1  -5   21.82    1.75
  -2  -1  -5   21.52    2.28
  -2  -1  -5   21.56    2.01
  -2  -1  -5   23.67    2.63
   2   1   5   21.96    2.69
   2   1   5   22.80    1.93
   2   1   5   22.06    2.61
  -2  -1  -5   23.10    2.51
   2   1   5   25.65    2.05
  -2  -1  -5   20.68    2.65
   2   1   6   13.66    1.63
   2   1   6   17.85    2.58
  -2  -1  -6   14.37    1.60
  -2  -1  -6   15.41    2.10
  -2  -1  -6   14.92    1.53
   2   1   6   16.09    2.50
  -2  -1  -6   16.93    2.37
   2   1   6   14.83    2.38
   2   1   6   11.82    1.58
   2   1   6   15.80    2.11
   2   1   6   12.27    1.68
  -2  -1  -6   15.46    2.00
   2   1   6   15.70    1.87
   2   1   6   18.56    2.63
  -2  -1  -6   12.44    2.35
   2   1   7   18.02    2.01
   2   1   7   15.23    2.58
  -2  -1  -7   20.31    2.04
   2   1   7   19.14    2.14
   2   1   7   16.84    2.12
  -2  -1  -7   16.82    1.74
   2   1   7   18.88    2.88
   2   1   7   17.64    2.72
  -2  -1  -7   19.54    2.08
   2   1   7   20.02    3.17
  -2  -1  -7   16.45    2.33
  -2  -1  -7   18.17    2.24
   2   1   7   18.60    2.10
   2   1   7   17.79    2.78
  -2  -1  -7   21.72    3.02
   2   1   8   -0.46    1.48
   2   1   8   -1.20    1.50
  -2  -1  -8   -0.03    0.74
  -2  -1  -8   -0.28    0.93
   2   1   8   -0.68    1.32
  -2  -1  -8    1.38    0.90
   2   1   8    0.09    0.89
  -2  -1  -8   -0.52    0.79
   2   1   8    0.56    0.78
   2   1   8   -0.75    0.86
   2   1   8   -0.42    1.47
   2   1   8   -0.37    0.70
  -2  -1  -8    0.37    0.73
  -2  -1  -8    0.11    0.72
   2   1   8   -1.26    1.66
  -2  -1  -8   -0.09    1.55
   2   1   9   11.46    2.12
  -2  -1  -9    9.56    1.57
  -2  -1  -9   12.06    2.33
   2   1   9   13.10    2.78
   2   1   9   10.60    1.78
   2   1   9    9.70    2.41
   2   1   9   15.60    3.38
   2   1   9   10.30    1.62
   2   1   9   11.61    2.71
   2   1   9   12.16    2.79
  -2  -1  -9   13.91    2.96
   2   1  10    2.14    1.09
   2   1  10    4.54    1.97
   2   1  10    5.48    2.20
   2   1  10    3.03    1.31
   2   1  10    4.04    1.76
   2   1  10    6.02    1.43
   2   1  10    4.55    2.06
   2   1  10    5.31    2.05
  -2  -1 -10    3.84    1.61
  -2  -1 -10    2.86    1.98
   2   1  11    1.93    1.62
   2   1  11    1.88    2.15
  -2  -1 -11    1.94    1.43
   2   1  11   -0.45    1.62
   2   1  11    5.43    2.11
   2   1  11    3.00    2.20
   2   1  11   -0.30    0.85
   2   1  11    0.80    2.05
  -2  -1 -11    0.13    1.36
   2   1  12   10.21    2.80
   2   1  12    8.24    2.62
   2   1  12    1.31    1.20
   2   1  12   10.51    3.01
  -2  -1 -12    6.83    2.17
   2   1  12    8.71    2.92
  -2  -1 -12    9.71    2.97
   2   2 -14    5.58    2.30
   2   2 -14    3.33    1.70
  -2  -2  14   -4.08    2.31
  -2  -2  14    0.13    1.28
   2   2 -13   25.68    3.70
  -2  -2  13   30.80    4.51
  -2  -2  13   29.37    4.63
  -2  -2  13   34.66    5.07
  -2  -2  13   38.60    5.51
  -2  -2  13   34.89    4.79
   2   2 -13   34.55    4.53
   2   2 -12    0.68    1.20
   2   2 -12    1.52    1.61
   2   2 -12    9.44    2.93
  -2  -2  12    2.00    1.26
  -2  -2  12   -0.22    1.28
  -2  -2  12    4.14    1.62
  -2  -2  12    2.56    1.98
  -2  -2  12    0.74    1.67
  -2  -2  12    1.06    1.96
  -2  -2  12    1.03    1.42
   2   2 -11   57.54    5.41
  -2  -2  11   57.12    4.42
  -2  -2  11   59.41    5.06
  -2  -2  11   61.21    4.39
  -2  -2  11   57.88    5.43
  -2  -2  11   51.87    5.49
  -2  -2  11   52.10    5.65
  -2  -2  11   59.37    5.91
   2   2 -11   53.99    4.89
  -2  -2  11   59.26    5.53
   2   2 -11   58.60    3.88
   2   2 -11   52.92    5.09
   2   2 -10    5.10    1.51
   2   2 -10    6.63    2.17
   2   2 -10    5.86    1.43
  -2  -2  10    4.80    1.68
  -2  -2  10    5.93    1.43
  -2  -2  10    5.15    1.44
  -2  -2  10    4.84    1.18
  -2  -2  10    5.30    1.47
  -2  -2  10    4.29    1.39
  -2  -2  10    5.18    1.18
   2   2 -10    6.45    1.45
   2   2 -10    4.29    1.18
  -2  -2  10    7.70    2.10
  -2  -2  10    5.29    2.01
   2   2 -10    5.95    2.12
  -2  -2  10    5.09    2.19
  -2  -2  10    3.17    1.62
  -2  -2  10    2.84    1.66
   2   2  -9   51.16    3.53
  -2  -2   9   50.79    3.59
   2   2  -9   51.71    3.41
  -2  -2   9   50.25    3.57
   2   2  -9   51.24    4.63
  -2  -2   9   51.82    3.54
  -2  -2   9   44.79    4.02
  -2  -2   9   49.00    4.36
  -2  -2   9   51.79    4.93
  -2  -2   9   52.25    5.04
  -2  -2   9   45.69    4.49
   2   2  -9   50.15    4.12
  -2  -2   9   50.27    4.46
   2   2  -9   50.91    3.22
   2   2  -9   57.06    4.74
   2   2  -8  100.65    4.62
   2   2  -8  101.22    5.01
  -2  -2   8   94.10    5.61
  -2  -2   8   97.74    4.70
  -2  -2   8   92.97    4.51
  -2  -2   8   96.06    4.54
   2   2  -8  109.63    4.79
   2   2  -8  103.48    5.90
  -2  -2   8   98.69    5.61
  -2  -2   8   90.43    6.01
  -2  -2   8  100.71    6.51
  -2  -2   8   99.96    5.96
  -2  -2   8   91.01    5.61
   2   2  -8   92.67    5.24
   2   2  -8   95.19    6.02
   2   2  -8   96.58    4.18
   2   2  -8  108.13    6.02
   2   2  -7  194.93    7.85
   2   2  -7  189.48    6.03
   2   2  -7  188.84    7.55
  -2  -2   7  188.23    7.36
  -2  -2   7  185.27    5.91
  -2  -2   7  186.41    8.13
   2   2  -7  196.97    6.54
  -2  -2   7  189.16    7.94
  -2  -2   7  183.56    5.77
  -2  -2   7  199.47    6.46
   2   2  -7  207.20    6.94
   2   2  -7  179.44    6.34
   2   2  -7  196.12    7.32
  -2  -2   7  187.15    5.93
  -2  -2   7  182.62    7.14
   2   2  -7  198.63    8.30
   2   2  -7  184.15    7.16
   2   2  -7  205.39    7.11
  -2  -2   7  212.15    8.72
  -2  -2   7  198.14    5.66
  -2  -2   7  188.89    7.52
  -2  -2   7  177.91    7.26
   2   2  -7  187.43    6.95
   2   2  -7  188.76    5.49
   2   2  -7  196.75    7.67
   2   2  -6  126.87    4.75
   2   2  -6  127.31    5.88
   2   2  -6  124.27    4.87
  -2  -2   6  112.43    4.26
  -2  -2   6  113.29    4.33
  -2  -2   6  115.51    4.39
  -2  -2   6  115.09    5.82
   2   2  -6  125.04    5.22
  -2  -2   6  114.47    5.21
  -2  -2   6  120.65    6.13
   2   2  -6  109.52    5.12
   2   2  -6  127.24    5.07
  -2  -2   6  117.12    5.51
  -2  -2   6  120.90    4.23
  -2  -2   6  115.28    5.39
   2   2  -6  108.20    4.99
   2   2  -6  115.84    4.10
   2   2  -6  117.71    5.55
   2   2  -5    6.78    1.39
   2   2  -5    5.90    1.50
  -2  -2   5    5.81    1.22
   2   2  -5    6.63    1.26
   2   2  -5    6.78    1.19
   2   2  -5    5.81    1.23
   2   2  -5    5.15    1.40
   2   2  -5    7.33    1.32
  -2  -2   5    6.17    1.05
  -2  -2   5    6.35    1.37
  -2  -2   5    5.63    1.42
  -2  -2   5    6.06    1.40
  -2  -2   5    4.89    1.02
  -2  -2   5    6.41    0.96
  -2  -2   5    4.22    1.46
   2   2  -5    5.28    1.05
   2   2  -5    5.62    0.60
  -2  -2   5    7.09    1.15
  -2  -2   5    6.77    1.50
   2   2  -5    7.19    1.14
  -2  -2   5    4.88    1.28
  -2  -2   4  147.59    4.58
  -2  -2   4  148.82    5.75
   2   2  -4  155.31    4.74
  -2  -2   4  144.91    4.41
   2   2  -4  143.60    5.06
   2   2  -4  159.19    4.74
   2   2  -4  143.04    3.25
  -2  -2   4  146.51    5.73
   2   2  -4  152.85    4.62
  -2  -2   4  144.33    4.45
   2   2  -4  150.20    4.95
  -2  -2   4  142.45    5.85
   2   2  -4  148.65    5.02
   2   2  -4  151.07    4.33
  -2  -2   4  140.79    4.94
  -2  -2   4  141.55    4.62
  -2  -2   4  146.28    4.20
  -2  -2   4  141.10    4.33
  -2  -2   3 1442.44   14.19
  -2  -2   3 1341.07   16.36
   2   2  -3 1392.55   13.42
   2   2  -3 1393.97   13.55
  -2  -2   3 1386.13   13.46
   2   2  -3 1363.68   14.06
  -2  -2   3 1392.46   13.21
   2   2  -3 1371.74   13.28
  -2  -2   3 1405.11   16.19
  -2  -2   3 1355.72   12.05
  -2  -2   3 1339.45   11.72
  -2  -2   3 1308.04   16.28
   2   2  -3 1353.13   11.56
  -2  -2   3 1325.24   13.30
  -2  -2   3 1350.85   11.81
   2   2  -3 1373.50   11.09
  -2  -2   3 1309.39   13.19
   2   2  -3 1346.31   12.99
   2   2  -3 1324.41   14.49
  -2  -2   3 1387.06   12.68
  -2  -2   2  352.97    8.03
   2   2  -2  351.73    6.78
  -2  -2   2  323.45    5.16
  -2  -2   2  328.12    6.82
   2   2  -2  345.77    6.03
   2   2  -2  353.16    6.84
  -2  -2   2  339.66    6.87
  -2  -2   2  329.89    6.61
   2   2  -2  346.63    6.66
  -2  -2   2  343.02    6.13
  -2  -2   2  341.97    7.55
   2   2  -2  331.32    5.26
  -2  -2   2  344.30    7.29
  -2  -2   2  343.87    5.71
  -2  -2   2  339.26    4.40
   2   2  -2  329.75    7.21
  -2  -2   1  429.50    7.14
  -2  -2   1  417.93    7.34
  -2  -2   1  442.99    7.74
  -2  -2   1  446.62    8.16
  -2  -2   1  440.07    7.93
  -2  -2   1  456.42    6.07
  -2  -2   1  439.38    4.98
  -2  -2   1  435.23    8.12
   2   2  -1  422.68    7.88
  -2  -2   0    7.19    1.17
   2   2   0    7.03    1.34
   2   2   0    7.64    0.55
  -2  -2   0    6.73    1.25
  -2  -2   0    7.47    1.31
  -2  -2   0    7.29    1.25
   2   2   1  123.92    4.59
  -2  -2  -1  127.19    4.95
  -2  -2  -1  136.27    5.04
   2   2   1  132.64    3.08
  -2  -2  -1  130.47    4.86
  -2  -2  -1  127.58    4.33
   2   2   2   48.72    3.07
  -2  -2  -2   46.88    3.22
  -2  -2  -2   46.44    3.10
  -2  -2  -2   43.34    2.74
  -2  -2  -2   49.32    3.29
   2   2   2   46.13    2.37
   2   2   2   42.72    3.07
   2   2   3 1034.79    8.89
  -2  -2  -3 1004.00    6.87
  -2  -2  -3 1042.38   15.38
   2   2   3  972.24   13.04
  -2  -2  -3 1057.12   16.08
  -2  -2  -3  995.58   13.34
   2   2   3 1031.82   12.65
   2   2   3 1081.02   13.25
   2   2   3 1014.44   15.49
   2   2   4    4.48    1.22
   2   2   4    4.26    1.14
   2   2   4    2.94    1.41
  -2  -2  -4    6.15    1.60
  -2  -2  -4    3.01    0.60
  -2  -2  -4    2.50    0.90
   2   2   4    3.79    0.78
   2   2   4    3.29    1.02
   2   2   4    2.26    1.13
   2   2   4    3.37    1.23
  -2  -2  -4    3.45    1.18
   2   2   4    3.31    1.08
  -2  -2  -4    3.27    1.03
   2   2   4    3.76    1.09
   2   2   4    2.95    1.09
   2   2   5   10.82    1.91
  -2  -2  -5   10.79    1.65
   2   2   5   12.01    1.69
   2   2   5   11.61    1.77
   2   2   5   11.41    2.18
  -2  -2  -5    9.85    1.17
   2   2   5   12.58    2.20
   2   2   5    9.13    1.28
   2   2   5   10.28    1.56
   2   2   5   10.94    2.22
  -2  -2  -5    9.91    1.79
  -2  -2  -5   11.77    1.94
   2   2   5   10.59    1.52
  -2  -2  -5   12.75    1.53
  -2  -2  -5   12.03    1.92
  -2  -2  -5   10.87    1.79
   2   2   5    9.10    1.78
   2   2   6   80.31    4.30
   2   2   6   83.89    5.37
   2   2   6   82.01    5.43
   2   2   6   78.97    4.27
   2   2   6   75.89    3.82
  -2  -2  -6   82.15    3.63
  -2  -2  -6   78.74    3.63
   2   2   6   85.42    5.97
  -2  -2  -6   82.66    4.00
  -2  -2  -6   77.11    4.45
  -2  -2  -6   77.68    4.48
   2   2   6   76.27    5.11
   2   2   6   82.98    5.18
  -2  -2  -6   74.68    5.11
   2   2   6   79.68    3.99
   2   2   7   14.01    2.91
  -2  -2  -7   12.73    1.79
   2   2   7   14.53    2.67
  -2  -2  -7   12.96    2.08
   2   2   7   12.93    2.62
   2   2   7   10.84    1.75
   2   2   7   13.07    1.85
   2   2   7   12.68    1.71
   2   2   7   12.22    2.30
   2   2   7   11.39    1.81
  -2  -2  -7   11.31    1.66
  -2  -2  -7    9.87    1.78
   2   2   7   12.30    2.42
  -2  -2  -7   12.67    2.50
   2   2   8   -0.44    0.87
  -2  -2  -8    0.73    0.73
  -2  -2  -8    0.38    0.93
  -2  -2  -8    0.83    0.71
   2   2   8   -0.47    1.27
   2   2   8   -0.14    1.27
  -2  -2  -8    0.28    0.85
   2   2   8   -1.28    1.13
   2   2   8    0.62    1.36
   2   2   8    0.31    1.48
   2   2   8    2.48    2.20
   2   2   8    0.59    0.92
  -2  -2  -8   -0.30    1.50
   2   2   9    0.16    1.54
   2   2   9   -0.15    1.50
   2   2   9    0.70    0.95
   2   2   9    0.65    1.64
   2   2   9    1.17    1.70
  -2  -2  -9    0.62    0.95
  -2  -2  -9   -0.25    1.06
   2   2   9   -0.95    1.03
   2   2   9    1.33    0.64
   2   2   9    0.42    1.54
  -2  -2  -9    2.66    1.81
   2   2  10    1.01    1.02
   2   2  10   -0.06    1.52
  -2  -2 -10    0.18    1.03
   2   2  10    2.60    1.86
   2   2  10   -1.65    1.55
   2   2  10   -0.05    1.55
   2   2  10   -1.52    1.86
  -2  -2 -10    2.92    1.82
   2   2  10    1.22    1.07
   2   2  11   10.69    2.91
   2   2  11    6.10    2.41
   2   2  11    9.13    2.03
  -2  -2 -11    6.88    2.08
   2   2  11    9.02    2.66
   2   2  11    7.12    2.68
   2   2  11    9.93    2.92
   2   2  11    5.67    1.75
  -2  -2 -11    7.92    2.75
   2   2  12    2.15    1.84
  -2  -2 -12    7.76    2.30
   2   2  12    1.76    1.96
   2   2  12    1.06    1.59
  -2  -3  14    5.18    2.29
  -2  -3  14    3.79    2.23
   2   3 -13   19.57    3.73
   2   3 -13   16.26    3.17
  -2  -3  13   18.86    3.53
  -2  -3  13   20.95    4.01
  -2  -3  13   17.36    3.68
  -2  -3  13   22.52    4.43
  -2  -3  13   17.98    3.44
   2   3 -12   15.15    2.94
   2   3 -12   20.44    3.64
  -2  -3  12   18.16    3.05
  -2  -3  12   19.96    2.99
  -2  -3  12   19.94    2.84
  -2  -3  12   19.11    3.35
  -2  -3  12   16.70    3.30
  -2  -3  12   15.77    3.38
  -2  -3  12   22.79    4.28
  -2  -3  12   23.32    4.13
   2   3 -12   19.23    2.50
   2   3 -11    5.60    1.76
   2   3 -11    8.86    2.40
  -2  -3  11    3.37    1.71
  -2  -3  11    3.70    2.09
  -2  -3  11    5.49    1.62
  -2  -3  11    3.74    1.43
   2   3 -11    6.54    1.59
  -2  -3  11    5.04    1.84
  -2  -3  11    4.93    1.81
  -2  -3  11    6.04    2.49
  -2  -3  11    3.74    2.19
   2   3 -10    0.11    1.17
   2   3 -10    0.80    1.39
   2   3 -10   -0.16    0.65
  -2  -3  10    1.20    1.36
  -2  -3  10    2.07    1.54
  -2  -3  10   -0.75    1.06
  -2  -3  10    1.20    0.91
  -2  -3  10    3.58    1.61
   2   3 -10    2.39    1.11
  -2  -3  10    2.32    0.92
   2   3 -10    0.21    0.79
  -2  -3  10    2.64    1.63
  -2  -3  10    1.45    1.02
  -2  -3  10    5.18    2.23
  -2  -3  10    1.16    1.44
  -2  -3  10    1.03    1.53
   2   3  -9    1.30    1.30
   2   3  -9    0.02    1.40
  -2  -3   9   -0.23    0.78
   2   3  -9    0.15    0.62
   2   3  -9   -0.82    1.32
  -2  -3   9    0.30    1.15
  -2  -3   9    0.37    1.08
  -2  -3   9   -0.30    0.81
  -2  -3   9    0.36    0.72
  -2  -3   9   -0.10    0.98
  -2  -3   9    1.58    1.35
   2   3  -9   -1.59    0.95
  -2  -3   9   -0.67    1.09
  -2  -3   9   -2.06    1.75
   2   3  -9   -1.15    1.03
  -2  -3   9   -0.36    0.96
  -2  -3   9   -1.62    1.68
   2   3  -8    2.51    1.31
   2   3  -8    3.74    1.64
  -2  -3   8    3.57    1.04
   2   3  -8    2.99    0.95
  -2  -3   8    3.53    1.09
   2   3  -8    3.71    1.51
  -2  -3   8    2.30    0.77
  -2  -3   8    3.14    1.15
  -2  -3   8    4.39    1.46
  -2  -3   8    3.61    1.59
  -2  -3   8    3.72    1.39
   2   3  -8    5.82    1.55
   2   3  -8    3.62    1.15
  -2  -3   8    4.34    1.51
   2   3  -8    4.46    1.41
  -2  -3   8    3.48    1.67
  -2  -3   8    3.53    1.78
   2   3  -8    4.43    1.32
  -2  -3   8    4.48    1.55
   2   3  -7   -0.64    1.07
   2   3  -7    0.46    1.34
  -2  -3   7    0.43    0.75
  -2  -3   7   -1.11    0.90
   2   3  -7    0.43    1.11
  -2  -3   7    0.72    1.17
   2   3  -7   -0.37    0.76
   2   3  -7    1.02    1.03
  -2  -3   7    0.56    0.74
  -2  -3   7    0.72    1.14
   2   3  -7    0.47    0.92
   2   3  -7   -0.08    0.78
  -2  -3   7    0.44    0.93
   2   3  -7   -0.38    0.79
  -2  -3   7    0.19    1.05
  -2  -3   7    0.35    1.42
   2   3  -7    0.15    0.77
  -2  -3   7   -1.04    1.17
   2   3  -6    1.67    1.15
   2   3  -6    2.50    1.39
   2   3  -6    1.51    0.37
  -2  -3   6    0.48    0.74
  -2  -3   6    1.35    0.99
   2   3  -6    1.73    1.24
  -2  -3   6    0.70    1.02
   2   3  -6    1.29    1.10
  -2  -3   6    2.87    0.93
  -2  -3   6    0.93    0.60
  -2  -3   6    0.22    0.78
   2   3  -6    0.93    0.97
  -2  -3   6    2.03    0.88
  -2  -3   6    0.60    0.84
   2   3  -6    1.20    0.86
  -2  -3   6    0.66    1.03
   2   3  -6    1.04    0.90
   2   3  -5   84.13    4.10
  -2  -3   5   78.36    3.37
   2   3  -5   79.67    2.55
   2   3  -5   84.23    4.28
  -2  -3   5   84.45    4.72
   2   3  -5   85.58    4.18
  -2  -3   5   75.29    4.59
  -2  -3   5   80.17    3.88
  -2  -3   5   78.92    3.82
  -2  -3   5   85.08    5.00
  -2  -3   5   77.60    3.84
   2   3  -5   78.72    3.38
  -2  -3   5   71.46    3.97
  -2  -3   5   74.00    3.85
  -2  -3   5   84.53    3.80
   2   3  -5   79.91    4.24
   2   3  -5   76.96    3.65
  -2  -3   4 1935.36   18.62
  -2  -3   4 1923.95   16.01
  -2  -3   4 1896.57   21.20
   2   3  -4 1918.78   19.09
  -2  -3   4 1919.13   18.49
   2   3  -4 1942.73   13.49
   2   3  -4 1981.44   19.06
   2   3  -4 1992.75   18.85
  -2  -3   4 1909.03   18.04
  -2  -3   4 1903.56   21.51
   2   3  -4 1905.88   16.83
  -2  -3   4 1891.50   22.04
   2   3  -4 1966.04   14.57
  -2  -3   4 1844.57   18.23
  -2  -3   4 1883.47   16.23
   2   3  -4 1902.90   19.73
  -2  -3   4 1896.68   17.39
   2   3  -3  288.74    7.16
  -2  -3   3  294.33    8.17
   2   3  -3  288.08    7.14
  -2  -3   3  296.06    8.24
   2   3  -3  280.18    5.55
  -2  -3   3  283.75    7.06
  -2  -3   3  291.67    6.99
   2   3  -3  297.18    7.09
  -2  -3   3  275.07    6.20
   2   3  -3  281.69    6.23
   2   3  -3  291.67    4.93
  -2  -3   3  285.61    4.96
  -2  -3   3  285.39    6.29
  -2  -3   3  273.55    6.98
  -2  -3   3  273.14    4.97
  -2  -3   3  293.24    7.91
   2   3  -3  287.02    7.36
  -2  -3   3  291.37    6.70
  -2  -3   2  576.04   10.28
  -2  -3   2  564.49    8.51
   2   3  -2  591.63    8.50
   2   3  -2  565.64   10.02
  -2  -3   2  591.75   10.29
   2   3  -2  575.50    9.86
  -2  -3   2  580.06    9.95
  -2  -3   2  566.31    9.00
   2   3  -2  563.22    6.02
  -2  -3   2  568.42    6.09
  -2  -3   2  584.14    7.81
   2   3  -2  584.56   10.18
  -2  -3   2  547.12    4.90
   2   3  -2  569.66   10.21
  -2  -3   1  525.96   10.04
  -2  -3   1  501.11    8.43
  -2  -3   1  523.01    9.96
  -2  -3   1  523.21    9.67
  -2  -3   1  524.67    5.90
  -2  -3   1  513.50    6.05
  -2  -3   1  505.22    8.67
   2   3  -1  476.93    9.07
  -2  -3   0  130.04    5.22
  -2  -3   0  127.23    5.18
  -2  -3   0  124.43    4.49
  -2  -3   0  124.27    4.51
  -2  -3   0  137.04    5.22
   2   3   0  121.31    4.65
  -2  -3  -1   17.65    2.09
   2   3   1   14.92    1.78
  -2  -3  -1   18.61    2.16
  -2  -3  -1   20.04    1.98
  -2  -3  -1   17.77    2.03
  -2  -3  -1   14.30    1.67
   2   3   1   16.52    1.16
  -2  -3  -1   17.06    0.80
   2   3   2   65.86    3.77
  -2  -3  -2   67.88    4.12
  -2  -3  -2   69.12    4.05
  -2  -3  -2   68.88    3.61
  -2  -3  -2   66.58    3.56
  -2  -3  -2   71.03    4.20
  -2  -3  -2   71.52    1.96
   2   3   2   70.21    3.01
   2   3   2   68.35    4.03
  -2  -3  -3  349.43    9.37
   2   3   3  330.23    9.39
  -2  -3  -3  316.15    3.65
   2   3   3  340.63    8.34
   2   3   3  346.75    9.45
  -2  -3  -3  307.52    7.98
   2   3   3  345.75    7.72
   2   3   3  332.84    9.13
  -2  -3  -3  343.96    9.57
   2   3   3  325.56    8.12
  -2  -3  -3  322.72    8.02
   2   3   3  323.24    8.00
  -2  -3  -3  341.33    5.36
  -2  -3  -3  338.44    9.44
   2   3   3  331.84    9.23
  -2  -3  -3  341.85    8.89
  -2  -3  -4  252.67    8.73
  -2  -3  -4  248.40    4.27
   2   3   4  252.65    8.70
  -2  -3  -4  237.78    7.31
   2   3   4  255.39    8.55
  -2  -3  -4  255.76    8.53
   2   3   4  261.19    7.62
  -2  -3  -4  248.67    7.42
  -2  -3  -4  260.53    5.49
   2   3   4  269.48    9.00
   2   3   4  252.11    7.27
   2   3   4  268.09    7.71
   2   3   4  231.80    6.72
   2   3   4  260.79    8.61
   2   3   4  259.06    7.58
  -2  -3  -4  274.40    8.30
   2   3   5  531.96   11.31
   2   3   5  529.78    9.20
   2   3   5  549.73   13.38
   2   3   5  547.19   13.07
   2   3   5  572.45   11.90
   2   3   5  471.81    9.66
  -2  -3  -5  512.16   11.19
  -2  -3  -5  563.44   10.73
   2   3   5  538.14   13.39
  -2  -3  -5  552.66    9.12
   2   3   5  558.18   12.43
  -2  -3  -5  540.92    7.64
   2   3   5  539.32   11.22
   2   3   5  569.55   13.45
  -2  -3  -5  535.48   12.18
   2   3   6    0.66    1.27
   2   3   6    0.10    1.30
  -2  -3  -6    1.87    0.91
  -2  -3  -6    0.53    0.95
   2   3   6    1.07    0.95
  -2  -3  -6    0.26    0.46
   2   3   6    1.04    0.73
   2   3   6    0.08    1.54
   2   3   6    1.58    0.84
  -2  -3  -6    1.67    1.07
   2   3   6    1.13    1.33
  -2  -3  -6    0.57    0.93
   2   3   6   -0.11    1.18
   2   3   7   43.29    3.29
   2   3   7   41.20    3.48
   2   3   7   41.13    4.34
   2   3   7   49.21    4.60
  -2  -3  -7   40.60    3.09
   2   3   7   39.12    4.11
   2   3   7   40.19    2.86
   2   3   7   43.60    4.84
  -2  -3  -7   44.17    3.48
  -2  -3  -7   39.65    3.53
   2   3   7   42.83    4.17
  -2  -3  -8    0.02    0.81
   2   3   8    0.39    1.00
  -2  -3  -8   -0.71    1.18
   2   3   8   -1.82    1.65
   2   3   8    1.72    1.11
   2   3   8   -0.10    0.63
   2   3   8   -0.68    1.35
   2   3   8    2.12    1.78
  -2  -3  -8    3.32    1.18
   2   3   8    0.84    1.50
   2   3   8   -2.10    1.80
   2   3   9    0.14    0.97
   2   3   9    1.91    1.73
  -2  -3  -9   -0.57    0.96
   2   3   9   -0.41    1.52
   2   3   9   -0.19    1.29
   2   3   9    2.82    1.41
   2   3   9    0.79    1.46
  -2  -3  -9   -0.07    0.85
   2   3   9   -3.20    2.32
   2   3  10    8.75    1.97
   2   3  10    7.38    2.41
  -2  -3 -10    6.89    1.79
   2   3  10    8.20    2.58
   2   3  10    7.57    2.35
   2   3  10    8.59    2.80
   2   3  10    7.08    1.97
   2   3  10    8.98    2.62
   2   3  11    5.69    2.48
  -2  -3 -11    3.28    1.73
   2   3  11    4.98    2.17
   2   3  11    4.85    2.32
   2   3  11    1.78    1.95
   2   3  11    3.59    1.62
   2   3  11    0.11    1.86
   2   3  12   22.75    4.10
  -2  -3 -12   20.21    3.32
   2   3  12   20.70    3.82
   2   3  12   30.77    4.54
  -2  -4  14    1.06    1.71
   2   4 -13    1.63    3.55
   2   4 -13    1.67    1.61
  -2  -4  13   -0.03    1.57
  -2  -4  13    1.75    1.50
  -2  -4  13    2.10    1.64
  -2  -4  13    0.53    1.31
  -2  -4  13   -0.03    2.48
  -2  -4  13   -2.28    2.28
   2   4 -12    0.68    1.58
   2   4 -12    2.12    1.61
  -2  -4  12   -1.48    1.55
  -2  -4  12    4.61    1.83
  -2  -4  12    1.11    1.39
  -2  -4  12   -1.23    1.21
   2   4 -12    3.69    1.49
  -2  -4  12    3.61    1.66
  -2  -4  12    0.94    1.48
  -2  -4  12    0.38    2.13
  -2  -4  12    4.27    2.36
   2   4 -11   -0.12    0.94
   2   4 -11   -0.26    1.35
  -2  -4  11   -0.63    1.14
  -2  -4  11    0.92    1.33
   2   4 -11   -0.75    1.05
  -2  -4  11    0.45    1.29
  -2  -4  11    0.90    1.66
  -2  -4  11   -0.40    1.62
  -2  -4  11    0.98    1.55
  -2  -4  11   -3.08    1.67
   2   4 -10   43.22    4.51
  -2  -4  10   43.70    4.24
  -2  -4  10   49.60    4.43
  -2  -4  10   46.62    4.34
  -2  -4  10   41.38    4.82
  -2  -4  10   49.84    5.42
  -2  -4  10   45.31    4.63
  -2  -4  10   46.99    4.85
   2   4 -10   43.75    4.41
   2   4 -10   46.29    3.75
   2   4 -10   42.58    4.76
   2   4  -9   -0.07    1.09
   2   4  -9   -0.20    1.35
  -2  -4   9   -1.50    1.40
   2   4  -9    0.07    1.20
  -2  -4   9   -0.55    1.03
  -2  -4   9   -0.88    0.99
  -2  -4   9   -0.06    0.84
  -2  -4   9   -0.58    1.12
   2   4  -9    0.32    0.88
   2   4  -9    0.72    1.01
  -2  -4   9   -1.36    1.37
  -2  -4   9   -1.74    1.57
  -2  -4   9    0.04    1.72
  -2  -4   9    0.77    0.82
  -2  -4   9   -1.20    1.31
  -2  -4   9    4.00    1.26
   2   4  -8   10.24    2.18
   2   4  -8   12.15    2.53
  -2  -4   8   11.13    2.13
  -2  -4   8    9.87    2.02
   2   4  -8   12.56    2.39
  -2  -4   8   12.29    1.96
  -2  -4   8   10.40    2.13
   2   4  -8   11.24    1.91
  -2  -4   8   10.24    2.00
   2   4  -8   11.46    1.85
  -2  -4   8   14.08    1.97
  -2  -4   8   10.38    1.84
  -2  -4   8   11.46    2.05
   2   4  -8    8.61    2.12
  -2  -4   8    8.17    2.30
  -2  -4   8   11.20    2.60
   2   4  -8   10.73    1.81
  -2  -4   8   13.00    2.33
  -2  -4   7   64.57    4.53
  -2  -4   7   70.79    4.40
   2   4  -7   69.58    1.84
   2   4  -7   75.92    4.88
  -2  -4   7   74.42    4.51
   2   4  -7   43.11    4.73
  -2  -4   7   68.49    4.07
  -2  -4   7   69.89    4.30
  -2  -4   7   69.95    5.42
   2   4  -7   75.06    4.02
  -2  -4   7   68.58    5.39
  -2  -4   7   70.22    4.77
  -2  -4   7   72.60    4.19
  -2  -4   7   73.16    4.72
   2   4  -7   70.07    4.66
   2   4  -7   65.28    4.83
   2   4  -7   68.16    4.10
   2   4  -6    2.13    1.21
  -2  -4   6    3.01    1.04
   2   4  -6    2.78    1.40
  -2  -4   6    2.69    0.92
  -2  -4   6    1.81    1.08
  -2  -4   6    2.04    1.30
  -2  -4   6    2.10    0.79
   2   4  -6    4.09    0.71
   2   4  -6    3.61    1.04
  -2  -4   6    1.26    1.25
   2   4  -6    3.78    1.40
  -2  -4   6    2.44    0.89
  -2  -4   6    3.66    1.17
   2   4  -6    4.10    1.33
   2   4  -6    4.25    1.28
  -2  -4   6    1.40    1.46
   2   4  -6    2.89    1.45
  -2  -4   6    2.23    1.20
   2   4  -6    2.93    0.86
  -2  -4   5  203.10    5.13
  -2  -4   5  192.41    6.73
  -2  -4   5  190.57    7.28
  -2  -4   5  191.50    6.58
   2   4  -5  211.45    7.33
  -2  -4   5  191.89    6.75
   2   4  -5  205.91    7.26
  -2  -4   5  200.45    7.80
   2   4  -5  200.07    7.10
   2   4  -5  188.96    5.42
  -2  -4   5  186.03    7.82
   2   4  -5  190.43    4.92
  -2  -4   5  185.39    6.58
   2   4  -5  195.35    4.74
  -2  -4   5  196.32    6.26
  -2  -4   5  195.54    6.33
   2   4  -5  189.80    7.01
  -2  -4   4 1805.47   21.99
  -2  -4   4 1848.76   16.41
  -2  -4   4 1766.79   21.58
  -2  -4   4 1730.76   19.76
  -2  -4   4 1732.21   19.73
  -2  -4   4 1742.32   14.98
   2   4  -4 1767.52   20.17
   2   4  -4 1746.35   14.90
  -2  -4   4 1772.84   19.51
   2   4  -4 1794.32   20.38
   2   4  -4 1777.80   19.94
   2   4  -4 1717.92   15.32
  -2  -4   4 1730.18   22.24
   2   4  -4 1740.33   12.40
  -2  -4   4 1759.38   18.29
   2   4  -4 1698.01   20.11
  -2  -4   3   28.94    3.21
   2   4  -3   17.76    2.07
   2   4  -3   19.73    1.75
  -2  -4   3   18.02    1.91
  -2  -4   3   19.10    1.77
   2   4  -3   20.41    2.32
  -2  -4   3   18.05    2.08
   2   4  -3   20.10    2.29
   2   4  -3   19.49    1.15
  -2  -4   3   29.40    2.51
  -2  -4   3   17.54    2.08
  -2  -4   3   21.12    2.22
   2   4  -3   18.26    2.17
  -2  -4   2  441.80    9.73
   2   4  -2  429.69    8.26
  -2  -4   2  442.56    8.40
  -2  -4   2  454.91   10.13
  -2  -4   2  458.61   10.15
  -2  -4   2  440.56    4.39
  -2  -4   2  434.73    8.75
   2   4  -2  414.23    9.46
   2   4  -1   23.50    2.11
  -2  -4   1   21.86    2.09
  -2  -4   1   23.75    2.36
  -2  -4   1   24.12    1.14
  -2  -4   1   23.60    2.38
  -2  -4   1   25.07    2.21
  -2  -4   1   25.32    2.58
  -2  -4   1   21.42    0.89
   2   4  -1   21.19    2.26
  -2  -4   0  239.35    7.70
  -2  -4   0  245.25    7.81
  -2  -4   0  247.47    7.61
  -2  -4   0  243.93    6.82
  -2  -4   0  241.36    6.81
  -2  -4   0  232.79    3.50
   2   4   0  229.93    6.83
  -2  -4  -1   32.36    1.57
  -2  -4  -1   31.65    2.95
   2   4   1   30.33    1.24
  -2  -4  -1   32.03    2.60
  -2  -4  -1   30.61    2.57
  -2  -4  -1   31.88    2.98
  -2  -4  -1   35.60    3.05
  -2  -4  -1   36.22    2.98
   2   4   1   31.63    2.69
   2   4   2  214.10    6.87
   2   4   2  222.06    7.76
  -2  -4  -2  233.27    8.06
   2   4   2  235.57    7.72
  -2  -4  -2  223.75    7.74
  -2  -4  -2  227.02    7.93
  -2  -4  -2  212.85    6.86
   2   4   2  232.11    6.90
  -2  -4  -2  214.42    6.71
   2   4   2  229.49    5.63
  -2  -4  -2  229.23    4.35
  -2  -4  -2  229.84    7.43
   2   4   3   36.25    3.07
  -2  -4  -3   32.62    2.86
  -2  -4  -3   39.66    3.51
  -2  -4  -3   35.37    3.22
   2   4   3   39.07    3.41
   2   4   3   37.38    3.46
   2   4   3   35.04    3.39
   2   4   3   36.15    2.88
  -2  -4  -3   34.92    2.90
   2   4   3   35.98    3.01
  -2  -4  -3   36.65    3.36
   2   4   3   38.57    2.73
   2   4   3   39.12    3.16
  -2  -4  -3   36.25    2.03
   2   4   3   36.32    3.28
  -2  -4  -3   36.67    3.13
   2   4   4  110.33    6.09
  -2  -4  -4  106.27    2.96
   2   4   4  108.66    5.28
  -2  -4  -4  109.94    5.32
   2   4   4  106.56    5.88
  -2  -4  -4  106.55    5.97
   2   4   4  104.89    5.65
   2   4   4  111.50    5.23
  -2  -4  -4  110.56    3.86
   2   4   4  106.33    5.20
   2   4   4  113.68    5.21
  -2  -4  -4   99.93    5.64
   2   4   4  108.01    5.77
  -2  -4  -4   98.40    4.96
  -2  -4  -4  105.76    5.45
   2   4   5   16.77    2.29
  -2  -4  -5   16.20    2.19
   2   4   5   15.19    2.50
   2   4   5   17.62    2.85
  -2  -4  -5   14.51    2.14
   2   4   5   14.90    1.81
   2   4   5   15.96    2.76
   2   4   5   17.39    2.70
  -2  -4  -5   17.34    1.41
  -2  -4  -5   14.25    1.61
   2   4   5   14.54    2.22
   2   4   6    1.54    1.25
  -2  -4  -6    1.66    0.81
   2   4   6    1.35    0.75
   2   4   6    1.92    1.20
   2   4   6    2.21    1.47
  -2  -4  -6    1.80    0.59
  -2  -4  -6    0.88    1.12
   2   4   6    3.02    1.68
   2   4   6   -0.47    1.54
   2   4   6    1.88    1.39
  -2  -4  -6    1.15    0.88
  -2  -4  -7    6.88    1.49
  -2  -4  -7    4.42    1.40
  -2  -4  -7    3.47    0.92
   2   4   7    3.51    1.48
   2   4   7    4.55    1.80
   2   4   7    4.73    1.51
   2   4   7    2.96    1.61
   2   4   7    5.49    1.15
   2   4   7    5.79    2.12
  -2  -4  -7    5.22    1.52
   2   4   7   12.81    3.14
   2   4   8   17.95    1.87
   2   4   8   18.12    3.18
  -2  -4  -8   17.68    2.68
   2   4   8   17.52    3.18
   2   4   8   24.14    3.59
  -2  -4  -8   16.23    2.36
   2   4   8   19.61    2.79
   2   4   8   18.09    3.63
   2   4   8   18.62    3.13
   2   4   9   13.01    2.88
  -2  -4  -9    9.66    1.98
   2   4   9    7.97    2.39
   2   4   9    8.07    2.63
  -2  -4  -9    5.65    1.82
   2   4   9    7.43    1.88
   2   4   9    7.64    2.40
   2   4  10    0.60    1.81
   2   4  10    0.04    1.14
   2   4  10   -0.33    1.46
  -2  -4 -10   -0.41    1.30
   2   4  10    2.50    1.87
   2   4  10   -2.70    2.37
   2   4  10   -2.61    2.25
   2   4  11   -0.14    1.42
   2   4  11   -1.16    1.85
  -2  -4 -11    0.39    1.20
   2   4  11    1.95    1.20
   2   4  11    0.34    1.40
   2   4  11    1.59    1.71
   2   5 -13   -3.07    2.40
   2   5 -13   -1.34    1.35
  -2  -5  13    1.98    1.39
  -2  -5  13   -0.95    1.42
  -2  -5  13   -0.13    1.24
  -2  -5  13   -0.21    1.20
  -2  -5  13   -1.13    1.70
  -2  -5  13    2.32    2.16
  -2  -5  13    0.44    1.68
  -2  -5  13    5.67    2.67
   2   5 -12    9.29    2.89
   2   5 -12    7.34    2.15
  -2  -5  12   11.93    2.99
  -2  -5  12   11.09    2.45
  -2  -5  12   11.71    2.57
  -2  -5  12   10.19    2.72
   2   5 -12   12.19    2.32
  -2  -5  12    8.12    2.66
  -2  -5  12    9.81    2.81
  -2  -5  12   17.26    3.56
   2   5 -11   15.49    3.21
   2   5 -11   18.66    3.15
  -2  -5  11   21.35    3.16
  -2  -5  11   18.98    2.90
  -2  -5  11   20.02    3.96
  -2  -5  11   18.63    3.19
   2   5 -11   17.98    3.34
   2   5 -11   16.97    2.74
  -2  -5  11   16.44    3.46
  -2  -5  11   20.36    3.73
  -2  -5  11   17.85    3.48
   2   5 -10   19.59    3.16
   2   5 -10   17.09    3.17
   2   5 -10   20.05    3.23
  -2  -5  10   20.12    3.03
  -2  -5  10   17.60    3.27
  -2  -5  10   19.36    3.00
  -2  -5  10   17.65    3.04
   2   5 -10   19.57    2.66
  -2  -5  10   19.09    2.73
  -2  -5  10   20.12    3.60
  -2  -5  10   22.33    3.90
  -2  -5   9   22.87    3.11
   2   5  -9   27.41    2.93
  -2  -5   9   27.26    3.40
  -2  -5   9   26.71    3.97
  -2  -5   9   24.84    2.87
   2   5  -9   28.07    3.63
  -2  -5   9   30.07    3.71
  -2  -5   9   29.95    4.26
  -2  -5   9   25.60    3.49
   2   5  -9   25.95    3.46
   2   5  -9   29.92    3.90
   2   5  -9   24.33    2.87
  -2  -5   8   36.25    3.75
   2   5  -8   45.02    4.27
   2   5  -8   42.03    3.34
  -2  -5   8   43.05    4.66
   2   5  -8   42.17    3.22
  -2  -5   8   44.78    4.77
  -2  -5   8   43.41    4.14
  -2  -5   8   39.84    3.89
   2   5  -8   36.86    3.87
   2   5  -8   39.90    4.23
   2   5  -8   37.76    3.39
  -2  -5   7   42.19    3.84
   2   5  -7   43.98    2.10
  -2  -5   7   41.45    3.68
  -2  -5   7   40.29    3.56
  -2  -5   7   40.26    3.65
   2   5  -7   43.14    3.13
  -2  -5   7   43.86    4.50
   2   5  -7   43.37    3.88
   2   5  -7   42.54    2.86
   2   5  -7   44.99    4.02
  -2  -5   7   38.10    3.67
  -2  -5   7   42.05    4.39
  -2  -5   7   42.29    3.42
  -2  -5   7   42.67    3.75
   2   5  -7   36.86    3.59
   2   5  -7   37.48    3.91
   2   5  -7   40.97    3.43
   2   5  -6    4.70    1.60
   2   5  -6    4.81    1.67
  -2  -5   6    4.95    1.01
  -2  -5   6    4.56    1.40
  -2  -5   6    3.91    1.30
  -2  -5   6    3.21    1.29
   2   5  -6    4.13    0.85
  -2  -5   6    5.86    1.59
  -2  -5   6    3.64    1.11
   2   5  -6    4.31    1.49
  -2  -5   6    3.66    0.83
   2   5  -6    4.57    1.53
   2   5  -6    3.21    0.89
   2   5  -6    2.36    1.49
   2   5  -6    9.38    1.77
  -2  -5   6    5.01    1.75
  -2  -5   6    4.50    1.68
  -2  -5   6    6.00    2.28
   2   5  -6    4.29    0.95
  -2  -5   5  118.22    3.93
  -2  -5   5  112.11    4.11
  -2  -5   5  118.10    5.82
  -2  -5   5  116.16    6.08
   2   5  -5  114.76    6.06
   2   5  -5  118.88    4.29
   2   5  -5  119.47    5.96
  -2  -5   5  110.99    6.40
   2   5  -5  114.51    5.80
  -2  -5   5  112.57    5.54
  -2  -5   5  111.59    5.44
   2   5  -5  116.87    3.99
  -2  -5   5  120.42    6.44
  -2  -5   5  112.54    5.65
   2   5  -5  114.96    3.47
  -2  -5   5  108.40    5.17
   2   5  -5  115.82    5.82
   2   5  -5  112.23    5.91
  -2  -5   4  232.41    8.46
   2   5  -4  256.90    8.54
   2   5  -4  234.70    8.11
  -2  -5   4  237.28    7.90
   2   5  -4  242.45    8.14
  -2  -5   4  224.23    7.86
   2   5  -4  242.95    6.43
   2   5  -4  233.66    5.32
  -2  -5   4  221.70    8.61
  -2  -5   4  230.54    7.04
   2   5  -4  240.07    3.99
  -2  -5   4  236.62    8.06
  -2  -5   4  233.02    7.01
  -2  -5   4  244.70    6.39
  -2  -5   4  238.56    7.84
  -2  -5   4  243.22    7.59
   2   5  -4  232.39    8.03
  -2  -5   3    1.04    0.92
   2   5  -3   -0.15    0.98
   2   5  -3   -1.36    1.36
  -2  -5   3    0.40    0.90
  -2  -5   3    0.07    0.67
  -2  -5   3   -0.29    0.99
  -2  -5   3   -0.05    0.73
   2   5  -3   -0.45    1.01
   2   5  -3   -0.77    1.36
  -2  -5   3   -0.21    0.84
   2   5  -3   -0.07    0.63
   2   5  -2   71.95    3.84
  -2  -5   2   76.99    3.93
  -2  -5   2   77.99    4.60
  -2  -5   2   75.14    4.56
  -2  -5   2   77.77    4.52
  -2  -5   2   71.18    3.90
  -2  -5   2   77.01    4.32
   2   5  -2   71.21    4.24
  -2  -5   1   57.95    3.56
  -2  -5   1   52.45    3.75
  -2  -5   1   54.35    3.96
  -2  -5   1   58.74    4.08
  -2  -5   1   52.69    2.00
   2   5  -1   54.91    3.48
  -2  -5   1   55.34    3.50
  -2  -5   1   62.19    3.91
   2   5  -1   54.67    3.61
   2   5   0   29.13    1.82
  -2  -5   0   28.63    2.98
  -2  -5   0   24.82    2.49
  -2  -5   0   27.66    2.80
  -2  -5   0   28.08    2.61
  -2  -5   0   27.41    2.89
  -2  -5   0   28.58    1.60
  -2  -5   0   28.09    2.76
   2   5   0   27.08    2.65
   2   5   1  255.93    8.59
  -2  -5  -1  239.08    7.61
   2   5   1  262.38    8.65
   2   5   1  257.42    7.92
  -2  -5  -1  262.02    8.92
  -2  -5  -1  266.23    9.17
  -2  -5  -1  262.93    8.71
   2   5   1  254.05    4.59
   2   5   1  245.77    8.22
   2   5   1  255.36    7.51
  -2  -5  -1  249.55    7.52
  -2  -5  -1  239.77    5.36
  -2  -5  -1  272.38    8.44
   2   5   1  232.01    7.40
   2   5   2    7.36    1.38
  -2  -5  -2    8.21    1.67
  -2  -5  -2    7.82    1.64
   2   5   2    6.43    1.78
  -2  -5  -2    7.68    1.81
   2   5   2    6.57    1.75
  -2  -5  -2    6.48    1.57
  -2  -5  -2    7.33    1.60
  -2  -5  -2    6.56    0.98
  -2  -5  -2    6.89    1.66
   2   5   2    9.59    1.69
   2   5   2    5.93    1.58
   2   5   2    7.50    0.86
   2   5   2    7.59    1.66
  -2  -5  -2    8.31    1.23
   2   5   3  103.66    5.86
  -2  -5  -3  103.15    5.33
   2   5   3  101.57    5.69
   2   5   3   99.58    5.20
   2   5   3   99.71    5.77
  -2  -5  -3   95.41    5.02
   2   5   3   98.35    5.30
   2   5   3  106.06    4.70
  -2  -5  -3  103.41    3.78
   2   5   3   96.38    5.52
  -2  -5  -3  105.71    5.51
   2   5   4   46.81    3.52
   2   5   4   42.39    4.07
  -2  -5  -4   41.80    3.59
   2   5   4   47.54    4.27
   2   5   4   44.37    4.19
  -2  -5  -4   43.39    3.50
   2   5   4   44.90    3.72
  -2  -5  -4   47.60    2.80
   2   5   4   48.01    4.10
  -2  -5  -5  233.72    5.28
   2   5   5  226.89    9.41
  -2  -5  -5  229.79    8.47
   2   5   5  179.27    6.37
   2   5   5  228.50   10.05
  -2  -5  -5  217.82    8.00
   2   5   5  229.16    9.10
  -2  -5  -5  239.83    6.73
   2   5   5  240.22    8.59
   2   5   5  218.10    9.37
   2   5   5  215.19    8.41
  -2  -5  -6    8.62    1.19
   2   5   6    6.19    1.29
   2   5   6   10.44    2.32
  -2  -5  -6    6.03    1.64
   2   5   6    6.51    1.73
   2   5   6    7.41    2.10
   2   5   6   10.48    2.29
  -2  -5  -6    8.55    1.90
  -2  -5  -6    7.60    1.31
   2   5   6    9.91    2.62
   2   5   6    8.89    2.10
  -2  -5  -7    6.35    1.74
   2   5   7    8.25    2.23
   2   5   7    6.86    2.21
   2   5   7   10.88    2.56
  -2  -5  -7    7.01    1.82
   2   5   7    8.20    1.34
   2   5   7    9.35    2.45
   2   5   7   14.15    2.37
   2   5   7   11.19    2.58
   2   5   8   -0.21    1.58
   2   5   8    0.65    1.35
  -2  -5  -8    0.60    1.12
   2   5   8   -1.82    1.54
   2   5   8    0.34    1.27
   2   5   8    0.48    1.09
   2   5   8    3.76    2.25
   2   5   9    8.99    2.53
  -2  -5  -9    9.30    2.16
   2   5   9    6.97    2.29
   2   5   9    8.17    2.57
   2   5   9   10.25    2.40
   2   5   9    7.53    2.63
   2   5  10   13.30    3.27
  -2  -5 -10   12.57    2.59
   2   5  10   15.92    2.94
   2   5  10   13.28    3.18
   2   5  10   16.62    3.29
   2   5  10   13.80    3.45
   2   5  10   17.43    3.66
   2   5  11   13.41    2.73
   2   5  11   16.32    3.42
   2   5  11   14.74    3.37
   2   5  11   17.04    3.59
  -2  -6  13    1.16    1.22
   2   6 -13    4.18    1.70
  -2  -6  13    0.24    1.70
  -2  -6  13    0.58    1.88
  -2  -6  13    3.52    2.04
  -2  -6  13    1.87    1.68
   2   6 -12    5.34    2.33
   2   6 -12    7.10    2.25
   2   6 -12   12.03    3.17
  -2  -6  12    5.13    1.63
  -2  -6  12    6.04    2.20
  -2  -6  12   10.07    2.62
  -2  -6  12    4.55    2.01
  -2  -6  12   14.74    3.37
   2   6 -12    7.60    2.10
  -2  -6  12    8.94    2.70
   2   6 -11    3.70    1.86
   2   6 -11    7.56    2.33
  -2  -6  11    6.52    1.91
   2   6 -11    4.32    1.89
  -2  -6  11    5.51    2.09
  -2  -6  11    6.60    2.29
   2   6 -11    5.76    1.83
  -2  -6  11    4.65    2.35
  -2  -6  11    5.96    2.36
  -2  -6  11    5.13    2.05
   2   6 -10   -0.22    1.12
   2   6 -10    0.86    1.79
   2   6 -10    0.18    1.15
  -2  -6  10    0.18    1.13
  -2  -6  10   -0.05    1.48
   2   6 -10   -0.38    1.37
  -2  -6  10   -0.96    1.43
  -2  -6  10   -0.53    1.26
  -2  -6  10    0.34    1.68
  -2  -6  10   -0.43    1.43
   2   6  -9   -0.51    1.34
   2   6  -9    2.20    1.95
  -2  -6   9    0.92    1.24
   2   6  -9    0.45    1.50
  -2  -6   9    0.53    1.28
  -2  -6   9   -1.18    1.74
   2   6  -9    2.62    1.41
  -2  -6   9    1.82    1.82
  -2  -6   9    0.53    1.50
  -2  -6   9   -1.17    1.55
  -2  -6   8   45.24    4.16
  -2  -6   8   49.96    5.31
   2   6  -8   50.26    3.30
  -2  -6   8   51.10    4.58
  -2  -6   8   59.79    5.66
   2   6  -8   54.36    4.99
  -2  -6   8   56.15    4.71
   2   6  -8   47.31    4.43
   2   6  -8   52.14    4.91
   2   6  -8   51.66    4.31
   2   6  -7    1.82    1.48
   2   6  -7    2.49    1.49
  -2  -6   7    1.33    1.08
   2   6  -7    3.50    1.91
  -2  -6   7    3.65    1.58
   2   6  -7    2.52    1.54
   2   6  -7    1.79    0.74
  -2  -6   7    3.03    0.90
   2   6  -7    2.84    0.80
   2   6  -7    4.80    1.64
  -2  -6   7    3.80    1.74
  -2  -6   7    3.84    1.93
   2   6  -7    3.16    0.93
  -2  -6   6 1458.32   13.01
  -2  -6   6 1403.53   22.27
   2   6  -6 1373.87   15.34
   2   6  -6 1425.20   22.66
   2   6  -6 1457.76   23.23
   2   6  -6 1443.57   14.30
  -2  -6   6 1424.59   24.87
  -2  -6   6 1392.56   20.95
   2   6  -6 1429.45   12.98
  -2  -6   6 1412.88   15.55
   2   6  -6 1395.18   21.95
   2   6  -6 1407.49   22.48
  -2  -6   5   32.78    2.24
   2   6  -5   26.91    3.20
  -2  -6   5   30.64    3.49
   2   6  -5   25.94    3.19
   2   6  -5   29.39    3.41
  -2  -6   5   29.65    2.48
  -2  -6   5   48.17    5.11
   2   6  -5   30.75    2.48
   2   6  -5   30.58    1.89
  -2  -6   5   35.41    3.50
   2   6  -5   30.37    1.51
   2   6  -5   35.49    3.83
   2   6  -5   26.26    3.22
  -2  -6   4   77.49    4.03
   2   6  -4   74.47    3.99
   2   6  -4   77.90    5.25
  -2  -6   4   78.33    5.07
   2   6  -4   71.29    4.99
   2   6  -4   76.01    5.14
  -2  -6   4   76.41    4.86
  -2  -6   4   69.08    4.20
  -2  -6   4   77.22    4.98
   2   6  -4   71.73    2.73
   2   6  -4   64.04    4.51
  -2  -6   3   52.16    4.12
   2   6  -3   42.36    3.87
   2   6  -3   48.72    3.34
  -2  -6   3   45.98    3.24
   2   6  -3   44.30    3.97
  -2  -6   3   50.39    4.01
   2   6  -3   44.04    3.87
  -2  -6   3   45.91    3.80
  -2  -6   3   42.41    3.31
  -2  -6   3   46.69    3.64
   2   6  -3   40.88    3.62
  -2  -6   3   51.12    3.83
   2   6  -2  137.23    6.75
  -2  -6   2  145.64    6.84
  -2  -6   2  137.78    5.66
   2   6  -2  146.63    6.88
  -2  -6   2  138.95    6.67
   2   6  -2  138.27    6.53
  -2  -6   2  137.23    6.49
   2   6  -2  142.52    5.80
  -2  -6   2  145.78    6.23
  -2  -6   2  132.23    5.73
   2   6  -2  126.18    5.99
  -2  -6   2  144.19    6.37
  -2  -6   1   43.46    3.80
   2   6  -1   39.69    3.20
  -2  -6   1   38.13    3.19
   2   6  -1   38.45    3.61
  -2  -6   1   42.98    3.78
   2   6  -1   38.92    3.59
  -2  -6   1   40.99    3.61
  -2  -6   1   35.88    3.10
   2   6  -1   36.03    3.55
  -2  -6   1   35.62    2.03
  -2  -6   1   40.02    3.32
   2   6  -1   36.35    3.21
  -2  -6   1   41.05    3.48
   2   6   0  162.29    7.30
   2   6   0  154.80    4.64
   2   6   0  152.99    7.11
   2   6   0  150.33    6.90
  -2  -6   0  152.02    6.23
  -2  -6   0  153.90    3.02
  -2  -6   0  159.61    6.44
  -2  -6   0  159.81    4.48
  -2  -6   0  164.59    6.71
   2   6   0  145.46    6.13
   2   6   1   60.12    2.71
  -2  -6  -1   62.07    4.24
   2   6   1   63.60    4.75
   2   6   1   63.85    4.63
  -2  -6  -1   57.88    3.95
  -2  -6  -1   60.54    3.04
  -2  -6  -1   66.05    4.45
   2   6   1   64.47    4.71
   2   6   1   57.07    3.91
   2   6   2   31.52    3.08
  -2  -6  -2   30.57    2.22
   2   6   2   30.44    3.51
   2   6   2   29.12    1.82
  -2  -6  -2   28.01    2.97
   2   6   2   32.79    3.51
   2   6   2   30.11    3.30
   2   6   2   29.83    3.04
  -2  -6  -2   27.21    2.85
  -2  -6  -2   32.13    2.48
  -2  -6  -2   35.07    3.32
   2   6   3    1.64    1.33
  -2  -6  -3    3.95    1.30
   2   6   3    2.89    1.26
   2   6   3    2.34    1.43
   2   6   3    2.73    0.69
  -2  -6  -3    3.30    0.97
   2   6   3    4.27    1.58
  -2  -6  -3    1.16    1.09
   2   6   3    1.97    1.30
   2   6   3    3.09    1.29
  -2  -6  -3    2.71    0.96
  -2  -6  -4    2.72    1.32
   2   6   4    3.39    1.70
   2   6   4    4.49    1.77
  -2  -6  -4    5.29    1.71
  -2  -6  -4    3.05    0.96
   2   6   4    3.22    1.63
   2   6   4    4.79    1.87
   2   6   4    3.64    1.42
   2   6   5   83.56    6.01
   2   6   5   84.10    6.04
  -2  -6  -5   86.15    5.57
   2   6   5   88.18    6.01
   2   6   5   90.17    6.62
  -2  -6  -5   86.84    5.34
   2   6   5   89.08    5.47
  -2  -6  -5   93.43    4.47
   2   6   5   88.62    5.77
   2   6   6    3.05    1.49
   2   6   6    5.26    1.98
  -2  -6  -6    5.19    1.67
   2   6   6    0.56    1.31
   2   6   6    3.01    1.64
  -2  -6  -6    2.94    1.37
   2   6   6    3.21    1.17
   2   6   6    2.21    1.67
   2   6   6    4.41    1.70
  -2  -6  -7    1.81    1.44
   2   6   7    2.74    1.35
   2   6   7    2.01    1.71
   2   6   7    2.43    1.79
  -2  -6  -7    1.13    1.08
   2   6   7    2.49    1.54
   2   6   7    0.65    0.55
   2   6   7    3.09    1.96
   2   6   7    4.83    1.96
   2   6   8   29.51    3.80
   2   6   8   22.70    3.76
   2   6   8   21.60    3.59
   2   6   8   26.28    3.85
   2   6   8   28.80    4.47
  -2  -6  -8   28.51    3.51
   2   6   8   25.63    3.87
  -2  -6  -9    1.23    1.37
   2   6   9    3.26    1.84
   2   6   9    7.78    2.65
   2   6   9    0.81    1.61
   2   6   9    2.73    1.58
   2   6   9    0.93    1.71
   2   6   9    4.86    2.18
   2   6  10   13.67    3.21
  -2  -6 -10    9.66    2.30
   2   6  10   12.95    3.05
   2   6  10    9.89    2.81
   2   6  10   16.28    3.64
   2   6  10    6.07    2.06
  -2  -7  13    0.70    1.59
   2   7 -13   -0.25    1.17
  -2  -7  13    3.46    2.31
   2   7 -12    1.14    1.61
   2   7 -12   -0.65    1.51
  -2  -7  12    1.91    1.36
  -2  -7  12    1.76    1.75
   2   7 -12    3.32    2.11
  -2  -7  12    0.55    1.41
   2   7 -12   -0.19    1.37
  -2  -7  12    0.73    1.93
  -2  -7  12    1.25    2.27
  -2  -7  12    1.99    1.81
   2   7 -11    3.75    2.45
   2   7 -11   -0.57    1.22
  -2  -7  11    1.19    1.52
  -2  -7  11    0.24    1.16
   2   7 -11    0.59    1.25
  -2  -7  11   -1.56    1.88
   2   7 -11   -0.24    1.42
  -2  -7  11   -1.26    1.51
  -2  -7  11   -0.46    2.02
  -2  -7  11    1.33    1.80
   2   7 -10    3.25    2.17
   2   7 -10    1.08    1.15
   2   7 -10    0.67    1.53
  -2  -7  10   -0.15    1.46
  -2  -7  10    1.22    1.69
   2   7 -10   -0.54    1.23
  -2  -7  10    0.80    1.63
  -2  -7  10   -0.26    1.08
  -2  -7  10   -1.00    2.02
  -2  -7  10    0.75    1.47
   2   7  -9    2.25    1.85
   2   7  -9    2.01    1.55
  -2  -7   9    1.67    1.46
   2   7  -9    1.97    1.55
  -2  -7   9    1.35    1.37
   2   7  -9    2.80    1.69
  -2  -7   9    4.01    2.35
  -2  -7   9    0.90    1.83
  -2  -7   9    0.38    1.34
   2   7  -8    1.16    1.30
   2   7  -8   -1.25    1.70
   2   7  -8   -0.21    1.53
  -2  -7   8   -0.74    1.33
  -2  -7   8    0.50    1.25
  -2  -7   8    0.89    0.63
   2   7  -8    0.55    1.21
  -2  -7   8   -5.78    2.30
  -2  -7   8    0.64    1.86
   2   7  -7   -0.58    1.38
   2   7  -7   -1.72    1.59
  -2  -7   7   -1.87    1.67
  -2  -7   7   -1.99    1.54
   2   7  -7    1.33    1.83
   2   7  -7   -0.56    0.70
   2   7  -7    0.56    1.34
  -2  -7   7    0.12    0.63
  -2  -7   7   -1.46    1.83
   2   7  -7    0.20    0.47
   2   7  -6   -0.33    1.46
   2   7  -6    0.17    1.16
  -2  -7   6   -0.69    0.55
  -2  -7   6   -0.80    1.61
   2   7  -6    1.79    1.66
   2   7  -6    0.61    1.44
   2   7  -6   -0.72    1.49
   2   7  -6    1.02    0.91
  -2  -7   6   -0.72    0.70
   2   7  -6    0.07    0.35
  -2  -7   6    3.94    2.44
   2   7  -6    0.09    0.36
  -2  -7   5   45.26    4.37
   2   7  -5   46.97    4.48
   2   7  -5   49.12    4.62
  -2  -7   5   44.75    3.74
   2   7  -5   42.42    1.76
  -2  -7   5   46.45    3.33
   2   7  -5   50.73    4.70
   2   7  -5   45.15    3.35
   2   7  -5   50.00    4.38
   2   7  -5   45.31    4.25
   2   7  -4  317.36   11.26
   2   7  -4  320.53    9.06
   2   7  -4  303.39   10.91
  -2  -7   4  305.78    8.73
   2   7  -4  306.06   10.79
  -2  -7   4  280.89    9.09
   2   7  -4  291.54    4.64
   2   7  -4  301.70   10.28
  -2  -7   3    8.37    1.77
   2   7  -3    8.34    1.96
   2   7  -3   10.13    2.43
   2   7  -3    9.29    2.18
   2   7  -3    7.77    1.56
   2   7  -3    7.70    1.86
  -2  -7   3   14.95    2.20
   2   7  -3    8.57    0.96
   2   7  -2   84.93    5.74
   2   7  -2   85.21    5.61
  -2  -7   2   83.97    4.84
  -2  -7   2   76.54    4.73
   2   7  -2   89.77    5.92
   2   7  -2   74.38    4.80
   2   7  -1   70.53    5.24
  -2  -7   1   68.03    4.43
   2   7  -1   71.11    5.24
   2   7  -1   73.01    5.20
  -2  -7   1   68.44    4.54
  -2  -7   1   64.32    3.11
   2   7  -1   60.43    4.30
   2   7   0   21.77    3.08
   2   7   0   23.68    2.08
   2   7   0   32.13    3.55
   2   7   0   26.07    3.26
   2   7   0   26.89    2.56
  -2  -7   0   24.18    2.75
  -2  -7   0   27.02    2.96
  -2  -7   0   27.52    2.14
   2   7   0   23.91    2.77
   2   7   1   31.22    3.58
   2   7   1   29.24    2.21
  -2  -7  -1   30.09    3.17
   2   7   1   28.08    3.39
   2   7   1   29.09    2.95
  -2  -7  -1   26.35    2.96
   2   7   1   29.51    3.54
  -2  -7  -1   30.50    1.77
  -2  -7  -1   28.04    2.35
   2   7   1   27.74    2.92
  -2  -7  -2   -0.76    0.95
   2   7   2   -0.46    1.11
   2   7   2   -0.99    1.38
   2   7   2   -1.32    1.30
   2   7   2   -0.23    1.15
  -2  -7  -2   -0.67    1.04
  -2  -7  -2    0.88    0.85
   2   7   2   -0.80    1.12
   2   7   2    0.90    1.05
   2   7   2   -0.51    0.68
  -2  -7  -2    0.54    0.55
  -2  -7  -2    0.04    0.55
   2   7   3  129.69    6.49
   2   7   3  132.95    7.51
   2   7   3  126.94    7.38
  -2  -7  -3  136.85    6.95
   2   7   3  133.01    4.29
   2   7   3  133.83    7.34
  -2  -7  -3  133.12    6.57
   2   7   3  144.57    7.52
   2   7   3  135.83    7.14
  -2  -7  -3  144.01    6.10
  -2  -7  -3  139.57    5.26
   2   7   4   59.85    5.25
   2   7   4   60.72    5.23
   2   7   4   56.52    4.95
   2   7   4   56.18    5.14
  -2  -7  -4   56.69    4.54
   2   7   4   54.40    4.74
  -2  -7  -4   57.25    3.53
  -2  -7  -4   56.61    4.72
   2   7   5    0.55    1.19
  -2  -7  -5    1.17    1.21
   2   7   5    0.12    1.39
   2   7   5    2.70    1.55
   2   7   5    3.51    1.91
  -2  -7  -5    1.71    1.17
   2   7   5    5.99    2.55
   2   7   6    2.48    1.60
   2   7   6    2.55    1.68
   2   7   6    4.71    1.95
  -2  -7  -6    3.75    1.46
   2   7   6    2.72    1.06
   2   7   6    3.76    2.07
  -2  -7  -6    2.42    1.40
   2   7   6    2.45    1.52
  -2  -7  -7    6.54    1.79
   2   7   7    7.77    2.34
   2   7   7   17.10    3.19
   2   7   7    4.84    2.10
   2   7   7    8.87    2.54
  -2  -7  -7   10.51    2.40
   2   7   7    6.31    2.14
   2   7   8    6.21    2.34
   2   7   8    9.92    2.88
  -2  -7  -8    5.72    1.94
   2   7   8    7.78    2.35
   2   7   8    7.91    2.48
  -2  -7  -8    6.73    2.11
   2   7   8    7.08    2.43
   2   7   8    6.93    2.56
   2   7   9   44.04    5.37
   2   7   9   39.87    4.71
   2   7   9   41.10    5.01
   2   7   9   41.38    5.15
  -2  -7  -9   38.91    4.34
   2   7   9   44.23    5.24
  -2  -8  13   42.36    5.30
  -2  -8  13    2.41    2.13
   2   8 -12   -0.32    2.00
  -2  -8  12   -0.46    1.59
   2   8 -12    4.39    1.95
  -2  -8  12    0.86    1.68
   2   8 -11    0.29    1.54
   2   8 -11   -2.78    1.96
  -2  -8  11    0.63    1.11
  -2  -8  11    0.24    1.43
  -2  -8  11   -2.56    2.10
  -2  -8  11    0.34    1.75
   2   8 -11    3.58    1.78
  -2  -8  11   -1.23    2.06
   2   8 -10    7.01    2.54
   2   8 -10    8.53    2.62
  -2  -8  10    2.78    1.55
   2   8 -10   11.52    2.99
  -2  -8  10    4.46    2.16
   2   8 -10    9.13    2.23
  -2  -8  10    6.18    2.52
  -2  -8  10    9.42    3.05
  -2  -8  10    7.50    2.15
  -2  -8  10   10.50    2.57
   2   8  -9   -0.70    1.73
   2   8  -9    0.49    1.29
  -2  -8   9    1.76    1.56
   2   8  -9    4.38    1.85
  -2  -8   9    3.13    1.82
  -2  -8   9    2.23    2.01
  -2  -8   9    3.29    2.41
   2   8  -8    7.54    2.26
   2   8  -8   11.75    2.56
  -2  -8   8    9.49    2.42
   2   8  -8    8.20    2.53
  -2  -8   8    6.94    2.08
  -2  -8   8    9.16    1.50
  -2  -8   8    9.70    2.85
   2   8  -8    6.82    2.25
  -2  -8   8    9.13    2.74
   2   8  -7    0.35    1.26
   2   8  -7   -1.48    1.67
  -2  -8   7    0.61    1.27
  -2  -8   7   -0.28    1.54
   2   8  -7    2.18    2.02
  -2  -8   7    0.46    0.75
  -2  -8   7    0.09    1.63
   2   8  -7    0.42    1.43
   2   8  -6   13.81    2.76
   2   8  -6   15.51    2.80
  -2  -8   6   16.69    2.93
  -2  -8   6   17.23    1.51
  -2  -8   6   17.07    2.88
   2   8  -6   19.16    3.45
   2   8  -6   16.97    3.18
   2   8  -6   13.06    1.90
  -2  -8   6   18.18    2.30
  -2  -8   6   24.15    4.10
   2   8  -6   18.38    3.31
  -2  -8   5   56.25    5.33
   2   8  -5   53.45    5.14
  -2  -8   5   54.83    4.44
  -2  -8   5   54.41    3.98
   2   8  -5   57.08    5.28
   2   8  -5   56.93    5.39
   2   8  -5   47.61    4.55
   2   8  -5   53.10    4.77
   2   8  -4   99.52    6.82
  -2  -8   4   98.50    5.41
   2   8  -4  107.40    7.01
   2   8  -4  105.63    6.81
  -2  -8   4   93.70    5.69
   2   8  -4   96.32    6.23
  -2  -8   3    1.74    1.04
   2   8  -3   -1.71    1.37
   2   8  -3   -0.58    1.50
   2   8  -3    2.63    1.72
  -2  -8   3    0.20    1.02
   2   8  -3    2.81    1.77
   2   8  -3    1.37    0.39
   2   8  -3    0.69    0.29
  -2  -8   2    1.16    1.15
   2   8  -2    2.55    1.39
   2   8  -2    1.62    1.66
   2   8  -2    2.41    1.75
  -2  -8   2    1.14    1.18
   2   8  -2    1.28    0.58
   2   8  -2   -0.37    1.44
  -2  -8   2    1.47    0.73
  -2  -8   1   10.07    2.06
   2   8  -1    6.31    1.76
   2   8  -1    7.50    2.11
   2   8  -1    9.02    1.62
  -2  -8   1    7.34    1.87
   2   8  -1    7.70    2.21
   2   8  -1    9.81    2.29
   2   8  -1    8.72    1.28
  -2  -8   1    7.76    1.29
   2   8   0   59.04    5.22
   2   8   0   54.40    3.42
  -2  -8   0   56.85    4.54
   2   8   0   60.68    5.28
   2   8   0   60.71    5.11
   2   8   0   59.45    3.83
  -2  -8   0   62.53    4.63
  -2  -8   0   62.08    3.53
   2   8   0   58.16    4.41
   2   8   1   26.27    2.30
  -2  -8  -1   25.17    3.16
   2   8   1   28.47    3.84
   2   8   1   23.78    3.38
   2   8   1   26.14    3.49
   2   8   1   30.45    3.09
  -2  -8  -1   29.69    3.27
  -2  -8  -1   28.29    1.53
  -2  -8  -1   26.76    2.45
   2   8   1   23.35    2.89
  -2  -8  -2    0.34    0.94
   2   8   2   -1.23    1.50
   2   8   2    0.58    1.25
  -2  -8  -2    0.32    0.97
   2   8   2    0.98    1.15
  -2  -8  -2   -0.61    0.75
   2   8   2   -0.63    0.95
   2   8   2    0.43    1.20
   2   8   2   -0.82    1.40
  -2  -8  -2   -0.63    0.53
  -2  -8  -2    1.20    0.74
  -2  -8  -3   -1.27    1.13
   2   8   3    4.28    1.98
   2   8   3    0.22    0.66
   2   8   3    0.49    1.33
   2   8   3    1.59    1.76
  -2  -8  -3   -0.69    1.40
   2   8   3    0.43    1.01
   2   8   3   -0.21    1.17
   2   8   3    0.22    1.27
   2   8   4    2.35    1.62
  -2  -8  -4    1.25    1.16
   2   8   4    3.57    1.76
   2   8   4    2.07    1.60
  -2  -8  -4    1.37    1.11
   2   8   4    0.72    1.34
   2   8   5   46.65    5.08
   2   8   5   52.98    5.33
  -2  -8  -5   50.68    4.86
   2   8   5   43.74    4.90
  -2  -8  -5   48.59    4.49
   2   8   5   46.73    5.01
   2   8   5   55.04    5.28
   2   8   6    4.91    1.89
  -2  -8  -6    2.83    1.28
   2   8   6    1.35    1.44
   2   8   6    5.13    2.28
   2   8   6   -0.30    1.45
  -2  -8  -6    2.00    1.29
   2   8   6    3.12    1.78
   2   8   7    2.19    1.88
   2   8   7    2.09    1.53
   2   8   7    1.75    1.28
   2   8   7    3.45    2.17
  -2  -8  -7    4.97    1.77
  -2  -8  -7    1.23    1.30
   2   8   7    4.36    2.24
   2   8   8    1.17    1.63
  -2  -8  -8   -2.64    1.57
   2   8   8    0.88    1.32
  -2  -8  -8    0.07    1.11
   2   8   8    2.31    1.96
   2   8   8   -3.17    1.89
  -2  -9  12   -2.45    2.19
  -2  -9  11    0.49    1.07
   2   9 -11    0.72    1.78
  -2  -9  11    1.45    1.91
  -2  -9  11    3.66    1.56
  -2  -9  11    0.16    1.48
   2   9 -10    4.18    2.64
   2   9 -10    3.22    1.91
  -2  -9  10    2.93    1.88
  -2  -9  10    3.88    1.71
   2   9 -10    6.14    2.74
  -2  -9  10    1.65    1.88
  -2  -9  10    3.94    2.89
  -2  -9  10    0.37    1.59
  -2  -9  10    5.95    2.21
   2   9  -9    4.66    2.48
   2   9  -9   -1.35    1.70
  -2  -9   9   -1.72    1.76
   2   9  -9    2.62    2.21
  -2  -9   9    3.51    1.87
  -2  -9   9    0.74    1.97
   2   9  -8    5.38    2.46
   2   9  -8    5.60    2.16
  -2  -9   8    1.59    1.30
  -2  -9   8    1.21    1.47
   2   9  -8    1.66    2.09
   2   9  -8    1.24    1.69
  -2  -9   8    2.01    0.97
  -2  -9   8    0.05    1.80
   2   9  -7    0.63    1.41
   2   9  -7   -0.14    1.30
  -2  -9   7    5.56    2.26
  -2  -9   7    0.19    1.45
   2   9  -7    1.99    2.21
   2   9  -7   -0.47    1.41
  -2  -9   7   -0.14    0.69
  -2  -9   7    0.82    1.93
   2   9  -6   16.02    3.08
   2   9  -6   20.72    3.34
  -2  -9   6   17.05    2.36
   2   9  -6   17.71    3.34
  -2  -9   6   14.76    2.98
  -2  -9   6   20.13    3.89
   2   9  -6   34.37    4.39
  -2  -9   6   15.84    2.67
  -2  -9   5    1.46    1.08
   2   9  -5   -1.16    1.42
   2   9  -5    0.13    1.27
   2   9  -5    2.79    2.34
   2   9  -5   -1.25    1.68
   2   9  -5   -0.49    1.60
  -2  -9   5    0.73    0.98
   2   9  -4    3.71    1.73
   2   9  -4    1.41    1.59
   2   9  -4    0.64    1.77
   2   9  -4    2.41    1.85
  -2  -9   4    3.31    1.50
   2   9  -4    1.76    1.66
  -2  -9   4    2.65    1.36
   2   9  -3   54.51    5.46
  -2  -9   3   50.46    4.34
   2   9  -3   57.76    5.50
   2   9  -3   59.34    5.46
  -2  -9   3   53.61    4.59
   2   9  -3   52.99    4.75
  -2  -9   2   15.32    2.50
   2   9  -2   12.73    2.43
   2   9  -2   16.52    3.24
   2   9  -2   17.98    3.48
   2   9  -2   15.41    2.93
  -2  -9   2   14.46    2.51
   2   9  -2   15.73    1.30
  -2  -9   2   17.71    2.10
  -2  -9   1    7.45    2.05
   2   9  -1    2.43    1.32
   2   9  -1    5.22    1.37
   2   9  -1    5.67    2.25
   2   9  -1    6.89    2.46
   2   9  -1    4.49    2.18
  -2  -9   1    3.26    1.30
   2   9  -1    4.50    0.99
  -2  -9   0    0.70    1.05
   2   9   0   -1.36    1.26
   2   9   0   -0.28    1.58
   2   9   0    0.83    0.80
   2   9   0    0.22    1.56
  -2  -9   0    0.81    1.26
   2   9   0    0.62    1.42
   2   9   0    0.01    0.64
  -2  -9  -1    0.36    1.19
   2   9   1    0.14    1.07
   2   9   1   -1.70    1.91
   2   9   1    1.46    1.03
   2   9   1    1.44    1.81
   2   9   1    0.86    1.40
  -2  -9  -1   -0.46    1.26
   2   9   1    0.19    0.73
   2   9   1    2.60    1.60
  -2  -9  -2   10.05    2.24
   2   9   2   10.00    1.52
   2   9   2   12.90    2.99
   2   9   2    8.89    2.44
  -2  -9  -2    9.49    2.18
   2   9   2   13.15    2.92
   2   9   2   10.80    2.21
   2   9   2   10.06    1.97
   2   9   2   13.46    2.61
   2   9   3   34.04    3.70
   2   9   3   36.28    4.56
  -2  -9  -3   30.25    3.80
   2   9   3   32.64    4.43
   2   9   3   27.17    3.91
   2   9   3   32.21    3.64
  -2  -9  -3   29.90    3.59
   2   9   3   29.11    3.85
  -2  -9  -4    1.96    1.16
   2   9   4    6.47    2.51
   2   9   4    4.04    2.01
   2   9   4    6.01    2.03
  -2  -9  -4    4.80    1.71
   2   9   4    4.06    1.72
   2   9   4    3.52    1.76
   2   9   5   36.94    4.80
   2   9   5   35.92    4.68
   2   9   5   41.93    4.96
  -2  -9  -5   39.47    4.62
   2   9   5   35.31    4.36
  -2  -9  -5   38.40    4.19
   2   9   5   38.91    4.70
   2   9   6    1.57    1.86
   2   9   6   -1.52    1.68
   2   9   6   -1.62    1.38
  -2  -9  -6    1.73    1.07
   2   9   6    0.98    1.48
  -2  -9  -6    0.98    1.18
   2   9   6    0.70    1.67
   2   9   7    0.45    1.48
   2   9   7   -1.88    1.85
  -2  -9  -7    0.95    1.50
   2   9   7    1.60    1.90
   2   9   7    0.94    1.30
   2  10 -10    1.86    1.88
  -2 -10  10    5.38    2.20
  -2 -10  10    3.07    2.14
  -2 -10  10    1.72    1.21
   2  10  -9    2.20    1.85
   2  10  -9    3.50    1.88
  -2 -10   9    2.02    1.75
  -2 -10   9    1.86    1.76
  -2 -10   9    2.74    2.29
   2  10  -9    8.65    3.08
  -2 -10   9    6.34    2.54
   2  10  -8    2.27    1.86
   2  10  -8    0.00    1.47
  -2 -10   8   -0.08    1.31
  -2 -10   8   -1.10    1.90
   2  10  -8    2.37    1.83
   2  10  -8    3.58    2.27
  -2 -10   8   -0.80    1.84
  -2 -10   8    0.91    1.30
   2  10  -7    5.31    2.18
   2  10  -7    5.83    2.19
  -2 -10   7   10.64    2.92
   2  10  -7    6.95    2.60
  -2 -10   7    4.97    1.88
   2  10  -7    6.29    2.48
  -2 -10   7    7.52    1.71
  -2 -10   7   14.73    3.75
  -2 -10   7    5.17    1.83
  -2 -10   6    1.33    1.40
   2  10  -6    3.47    2.07
   2  10  -6   -0.61    1.58
  -2 -10   6    3.83    2.45
   2  10  -6    0.73    1.87
   2  10  -6    1.84    1.68
  -2 -10   6    1.04    0.88
  -2 -10   5    4.16    1.58
   2  10  -5    2.11    1.55
   2  10  -5    6.48    2.10
   2  10  -5    5.45    2.40
   2  10  -5    5.31    2.45
   2  10  -5    4.20    2.24
  -2 -10   5    4.36    1.60
  -2 -10   4    1.51    1.25
   2  10  -4    1.94    1.59
   2  10  -4   -0.60    1.19
   2  10  -4   -0.90    2.09
   2  10  -4    1.04    1.76
   2  10  -4   -0.04    1.63
  -2 -10   4   -0.38    1.23
  -2 -10   3    0.50    1.20
   2  10  -3   -0.29    1.30
   2  10  -3    1.36    1.63
   2  10  -3    1.63    1.51
   2  10  -3    0.87    1.52
  -2 -10   3   -0.26    1.13
  -2 -10   2    1.22    1.29
   2  10  -2    0.12    1.17
  -2 -10   2   -0.40    1.20
   2  10  -2   -0.23    1.88
   2  10  -2   -0.23    1.12
   2  10  -2    0.74    1.47
   2  10  -2    1.87    1.69
  -2 -10   1    4.37    1.82
   2  10  -1    5.49    1.84
   2  10  -1    4.25    2.34
   2  10  -1    3.82    1.40
   2  10  -1    5.81    2.45
   2  10  -1    4.72    2.34
  -2 -10   1    3.40    1.57
  -2 -10   0   17.34    3.03
   2  10   0   17.12    2.81
   2  10   0   18.06    3.60
   2  10   0   16.66    2.22
   2  10   0   16.12    3.24
  -2 -10   0   16.12    2.86
   2  10   0   16.17    2.98
   2  10   0   16.20    3.23
  -2 -10  -1    8.13    2.03
   2  10   1   10.81    2.97
   2  10   1    8.65    2.85
   2  10   1    9.62    2.79
  -2 -10  -1    8.62    2.13
   2  10   1    9.65    1.81
   2  10   1    9.31    2.44
   2  10   1    3.72    1.50
  -2 -10  -2   -0.23    1.36
   2  10   2    1.80    1.48
   2  10   2   -3.13    2.23
   2  10   2    0.17    1.67
   2  10   2   -0.44    1.26
  -2 -10  -2   -0.12    1.22
   2  10   2   -0.60    1.04
   2  10   2    0.16    1.20
   2  10   3    9.00    2.91
  -2 -10  -3    8.46    2.17
   2  10   3    9.13    2.21
  -2 -10  -3    7.39    2.17
   2  10   3    9.49    2.63
   2  10   3    6.94    2.51
   2  10   3    9.52    2.19
   2  10   3    5.83    2.14
   2  10   4    4.97    2.29
  -2 -10  -4    3.22    1.69
   2  10   4    3.25    2.07
   2  10   4    4.36    2.12
   2  10   4    2.93    1.60
  -2 -10  -4    3.14    1.71
   2  10   4    5.88    1.88
  -2 -10  -5    1.03    1.33
   2  10   5    1.82    1.78
   2  10   5    0.88    1.63
   2  10   5   -0.68    1.08
  -2 -10  -6   -0.64    1.29
   2  10   6    1.72    1.21
  -2 -11   9   -0.10    1.85
  -2 -11   9    3.12    2.16
  -2 -11   8    1.96    1.22
   2  11  -8    0.29    1.46
   2  11  -8   -1.58    1.83
  -2 -11   8   -0.34    1.38
  -2 -11   8   -4.34    2.34
  -2 -11   7   -0.16    1.32
   2  11  -7    1.61    1.88
   2  11  -7    4.23    2.07
  -2 -11   7    4.16    2.02
  -2 -11   7    1.52    1.72
   2  11  -7    0.61    2.19
   2  11  -7    0.76    1.68
  -2 -11   7    2.43    1.29
  -2 -11   7    5.18    2.90
  -2 -11   6   -0.12    1.10
   2  11  -6   -1.90    2.11
   2  11  -6    0.37    1.30
   2  11  -6   -0.78    2.14
  -2 -11   6    2.96    2.06
   2  11  -6   -0.08    1.49
  -2 -11   6   -0.58    1.05
  -2 -11   5    7.00    2.17
   2  11  -5    8.14    2.41
   2  11  -5    8.70    2.39
   2  11  -5   14.66    3.68
   2  11  -5   10.14    3.10
   2  11  -5    6.71    2.52
  -2 -11   5    6.83    1.93
  -2 -11   4    4.86    1.78
   2  11  -4    8.17    2.55
   2  11  -4    8.00    2.20
   2  11  -4   10.78    3.10
   2  11  -4    8.43    3.12
   2  11  -4    6.81    2.47
  -2 -11   4    6.61    2.16
  -2 -11   3    6.27    2.09
   2  11  -3    6.96    2.35
   2  11  -3    6.13    2.11
   2  11  -3    5.93    2.73
   2  11  -3    5.40    2.53
   2  11  -3    2.11    1.33
   2  11  -3    5.34    2.53
  -2 -11   3    4.33    1.70
  -2 -11   2    4.70    1.90
   2  11  -2    2.17    1.48
   2  11  -2    2.69    1.45
   2  11  -2    1.05    1.49
  -2 -11   2    2.03    1.40
   2  11  -2    3.77    1.94
   2  11  -2    6.03    2.42
   2  11  -1   69.50    6.99
   2  11  -1   70.14    4.91
  -2 -11   1   74.87    6.14
   2  11  -1   76.34    7.16
   2  11  -1  101.54    7.95
  -2 -11   1   70.05    5.96
   2  11  -1   74.16    6.29
   2  11  -1   71.39    5.67
  -2 -11   0   16.46    3.13
   2  11   0   14.64    2.80
   2  11   0   14.19    3.34
   2  11   0   14.66    3.32
   2  11   0   15.29    3.33
  -2 -11   0   16.12    3.18
   2  11   0   17.39    3.19
  -2 -11  -1   12.53    2.67
   2  11   1   11.51    2.32
   2  11   1   19.26    3.96
   2  11   1   13.94    3.24
   2  11   1   15.26    3.33
  -2 -11  -1   10.02    2.67
   2  11   1   13.05    3.01
  -2 -11  -2   -1.03    1.44
   2  11   2    0.07    1.15
   2  11   2   -0.95    1.69
   2  11   2    0.63    1.50
   2  11   2   -0.48    1.53
   2  11   2    2.25    2.04
  -2 -11  -2   -0.23    1.21
  -2 -11  -3    0.24    1.16
   2  11   3    2.31    1.86
   2  11   3   -1.14    1.76
   2  11   3    2.00    1.80
  -2 -11  -4    1.46    1.27
  -2 -12   8    0.00    1.61
  -2 -12   7   12.89    3.13
  -2 -12   7    6.88    3.03
   2  12  -6   -3.44    2.06
   2  12  -6    0.03    1.48
  -2 -12   6    1.36    1.28
  -2 -12   6    3.64    2.61
   2  12  -5    2.28    1.70
   2  12  -5    3.83    2.25
  -2 -12   5    2.23    1.62
   2  12  -4    5.37    2.05
   2  12  -4    6.80    2.36
   2  12  -4    3.84    1.99
  -2 -12   4    7.07    2.25
  -2 -12   3   20.36    3.50
   2  12  -3   15.65    3.25
   2  12  -3   16.21    3.05
  -2 -12   3   21.48    3.50
  -2 -12   2    9.06    2.63
   2  12  -2    2.61    1.53
   2  12  -2    7.17    2.95
   2  12  -2    2.73    1.44
   2  12  -2    6.89    2.74
   2  12  -2   11.63    3.41
  -2 -12   2    4.57    1.83
   2  12  -2    2.16    1.74
  -2 -12   1   24.96    3.81
  -2 -12   1   25.35    3.90
   2  12  -1   27.87    4.13
   2  12  -1   25.37    3.67
   2  12   0    4.15    1.54
   2  13  -4   -1.12    1.39
   2  13  -4    6.90    3.26
   2  13  -3   17.10    3.40
   2  13  -3   16.64    3.21
  -3  12   2   -0.56    1.48
  -3  12   1    4.07    1.99
   3 -12  -1    6.47    2.35
  -3  12   1    9.97    2.30
  -3  12   0    0.72    1.64
   3 -12   0    1.87    1.82
  -3  12   0    2.05    1.58
   3 -12   0    0.76    1.22
  -3  12  -1    2.56    1.97
   3 -12   1    2.45    1.70
   3 -12   2    4.79    2.40
  -3  12  -2    0.24    1.91
  -3  12  -3    0.49    1.75
   3 -12   3    4.05    2.12
  -3  12  -3    1.87    1.60
  -3  11   4    4.73    2.03
  -3  11   4    7.30    2.22
  -3  11   3    6.26    2.29
  -3  11   3    3.59    1.83
   3 -11  -3    0.60    1.57
  -3  11   2   -0.06    1.28
   3 -11  -2    1.77    1.09
  -3  11   2   -0.02    1.28
  -3  11   2   -0.54    1.50
   3 -11  -1    5.59    1.93
  -3  11   1    1.22    1.61
  -3  11   1   -0.05    1.48
   3 -11  -1   -0.40    1.60
   3 -11  -1    0.62    1.54
  -3  11   1   -1.24    1.44
  -3  11   0    0.35    1.45
  -3  11   0    1.18    1.66
   3 -11   0    1.88    1.77
   3 -11   0    1.98    1.63
  -3  11   0   -0.31    1.20
  -3  11  -1   -2.83    2.22
  -3  11  -1    0.52    1.56
   3 -11   1    1.34    1.62
   3 -11   1    0.12    1.71
  -3  11  -1    1.09    0.90
  -3  11  -2    5.14    2.15
  -3  11  -2    6.35    2.14
   3 -11   2    4.53    1.75
   3 -11   2    3.58    1.88
  -3  11  -2    5.05    2.01
  -3  11  -3    6.82    2.27
  -3  11  -3   10.04    3.06
  -3  11  -3    6.64    2.77
   3 -11   3    8.34    2.33
   3 -11   3    4.76    2.33
  -3  11  -4    2.64    2.74
  -3  11  -4    2.08    1.73
   3 -11   4   -1.17    1.10
   3 -11   4   -0.25    1.73
  -3  11  -4    1.88    1.62
  -3  11  -5    0.20    1.59
   3 -11   5    1.15    1.31
  -3  11  -5   -1.01    1.83
   3 -11   5    2.18    1.96
  -3  11  -5   -0.27    1.68
   3 -11   6    0.25    1.42
  -3  11  -7   -0.70    1.39
   3 -11   7   -0.35    1.19
   3 -10  -6   29.76    4.16
  -3  10   6   22.32    4.05
   3 -10  -5    1.58    1.48
  -3  10   5   -0.53    1.07
  -3  10   5    1.05    1.54
  -3  10   4    1.67    1.29
  -3  10   4    2.73    1.93
   3 -10  -4    0.94    1.50
   3 -10  -3   -0.90    0.96
  -3  10   3   -0.92    1.28
  -3  10   3    0.48    1.12
   3 -10  -3   -0.76    1.44
  -3  10   2   16.81    2.88
   3 -10  -2   16.13    2.45
  -3  10   2   21.07    3.39
  -3  10   2   19.06    3.44
   3 -10  -2   19.60    3.34
  -3  10   2   20.84    3.02
  -3  10   1    1.19    1.45
   3 -10  -1    1.82    1.51
  -3  10   1   -1.09    1.66
   3 -10  -1    3.03    1.78
  -3  10   1    0.08    1.05
  -3  10   1    1.23    1.15
  -3  10   0   -0.11    1.49
  -3  10   0    0.13    1.47
   3 -10   0   -1.44    1.43
   3 -10   0    0.14    1.44
  -3  10   0   -0.07    1.06
  -3  10   0   -0.39    1.13
  -3  10  -1    0.22    1.61
  -3  10  -1   -1.47    1.51
   3 -10   1   -0.15    1.32
  -3  10  -1   -0.30    1.45
   3 -10   1   -2.15    1.74
   3 -10   1    2.04    1.64
  -3  10  -1   -0.98    1.32
  -3  10  -2    4.26    2.03
   3 -10   2    5.30    2.02
  -3  10  -2    6.43    2.21
  -3  10  -2    1.09    1.53
   3 -10   2    6.21    2.30
   3 -10   2    2.53    1.68
  -3  10  -2    4.06    1.18
  -3  10  -2    7.88    1.88
  -3  10  -3   -0.50    0.99
  -3  10  -3    0.33    0.64
   3 -10   3   -0.36    1.63
  -3  10  -3   -0.09    1.56
  -3  10  -3    2.00    1.83
   3 -10   3    0.85    1.30
  -3  10  -3    3.08    1.73
   3 -10   3   -0.24    1.19
  -3  10  -3   -1.14    0.73
  -3  10  -3    1.09    1.08
  -3  10  -4   17.25    3.54
  -3  10  -4   17.14    3.32
   3 -10   4   16.35    2.96
   3 -10   4   19.59    3.82
  -3  10  -4   20.37    3.46
   3 -10   4   16.95    3.46
  -3  10  -4   18.75    2.70
  -3  10  -4   19.09    2.58
  -3  10  -4   20.43    2.89
  -3  10  -5    4.32    1.90
  -3  10  -5   -1.88    1.15
   3 -10   5    1.50    1.51
  -3  10  -5    1.72    1.57
   3 -10   5   -3.18    2.11
  -3  10  -5    0.31    1.93
  -3  10  -5    0.20    1.25
   3 -10   5    0.46    1.66
  -3  10  -5   -0.50    1.11
  -3  10  -6   13.64    2.69
  -3  10  -6   13.65    2.53
  -3  10  -6   17.45    4.05
  -3  10  -6   14.41    3.18
   3 -10   6   13.30    2.79
   3 -10   6   14.86    3.54
   3 -10   6   13.59    3.36
  -3  10  -6   14.54    2.55
  -3  10  -6   24.62    4.17
  -3  10  -7    6.72    2.25
  -3  10  -7    5.84    1.87
  -3  10  -7   16.41    4.27
   3 -10   7    5.28    1.90
  -3  10  -7    2.23    1.80
   3 -10   7    6.61    2.64
  -3  10  -7    7.96    2.11
   3 -10   7    3.81    2.21
  -3  10  -8   14.48    3.19
  -3  10  -8    9.06    2.37
   3 -10   8   11.40    2.47
  -3  10  -9    1.67    2.70
  -3   9   8   11.23    2.89
  -3   9   8    8.55    2.73
   3  -9  -8    9.60    2.69
  -3   9   7    2.39    2.04
  -3   9   7    3.53    1.90
   3  -9  -7    0.70    1.16
  -3   9   7    1.56    1.79
  -3   9   6   25.83    3.96
  -3   9   6   27.00    3.80
   3  -9  -6   24.39    3.70
  -3   9   5    0.88    0.93
  -3   9   5    2.45    1.70
   3  -9  -5    3.88    1.88
   3  -9  -4   11.53    1.79
  -3   9   4   11.66    2.40
  -3   9   4   10.52    2.10
  -3   9   4   13.04    2.87
   3  -9  -4   11.64    2.48
   3  -9  -3    0.02    0.72
  -3   9   3    2.13    1.76
  -3   9   3    0.09    1.28
   3  -9  -3    0.48    1.31
  -3   9   3    1.08    1.13
  -3   9   3    1.49    1.33
  -3   9   2    6.63    1.74
  -3   9   2   12.06    2.42
  -3   9   2    8.87    2.42
   3  -9  -2   11.47    2.58
  -3   9   2   11.85    2.35
   3  -9  -2    8.79    1.73
  -3   9   1   15.92    2.89
  -3   9   1   16.47    3.06
   3  -9  -1   15.73    2.85
   3  -9  -1   15.16    2.74
   3  -9  -1   15.63    2.91
  -3   9   1   16.83    2.55
  -3   9   1   16.21    2.44
  -3   9   0    0.91    1.45
  -3   9   0    2.88    1.63
   3  -9   0    0.18    1.11
  -3   9   0    1.36    1.33
   3  -9   0    2.38    1.81
   3  -9   0    1.90    1.38
  -3   9   0    1.32    0.91
  -3   9   0    0.80    1.09
  -3   9  -1   12.16    2.73
  -3   9  -1   10.31    2.60
   3  -9   1    7.38    2.08
   3  -9   1    9.68    2.29
  -3   9  -1   11.57    2.48
   3  -9   1   12.28    2.66
  -3   9  -1   12.40    1.94
  -3   9  -1   13.78    2.29
  -3   9  -1   11.40    1.43
  -3   9  -1   12.47    1.54
  -3   9  -2   10.99    1.80
  -3   9  -2    9.79    1.54
  -3   9  -2   10.70    2.55
  -3   9  -2    7.71    2.19
   3  -9   2    8.27    2.24
   3  -9   2    7.01    2.06
  -3   9  -2    9.61    2.34
   3  -9   2   10.09    2.47
  -3   9  -2   11.11    1.75
  -3   9  -2    8.33    1.75
  -3   9  -3   66.37    3.63
   3  -9   3   53.59    4.95
  -3   9  -3   63.18    5.88
   3  -9   3   67.80    6.02
   3  -9   3   63.93    5.92
  -3   9  -3   65.57    6.09
  -3   9  -3   66.92    4.78
  -3   9  -3   67.19    4.31
  -3   9  -3   63.70    5.39
  -3   9  -3   70.64    4.67
  -3   9  -4    8.92    2.00
  -3   9  -4    6.47    1.63
  -3   9  -4    9.36    2.54
  -3   9  -4    7.74    2.39
   3  -9   4    4.65    1.76
   3  -9   4   10.04    2.74
  -3   9  -4    6.69    1.97
   3  -9   4    6.48    2.21
  -3   9  -4    8.67    1.98
  -3   9  -5   10.96    2.35
  -3   9  -5    9.61    2.02
  -3   9  -5   11.95    2.82
   3  -9   5    9.15    2.21
   3  -9   5   10.61    2.83
  -3   9  -5   13.31    2.61
   3  -9   5   12.33    2.99
  -3   9  -5   11.95    2.23
  -3   9  -5   11.87    3.00
  -3   9  -6    3.44    1.65
  -3   9  -6    2.49    1.91
   3  -9   6    1.24    1.25
   3  -9   6    1.95    1.60
  -3   9  -6    1.01    1.33
  -3   9  -6    5.32    1.82
   3  -9   6    3.31    2.01
  -3   9  -7   14.79    3.06
  -3   9  -7   20.91    4.32
   3  -9   7   17.41    2.89
   3  -9   7   13.97    3.29
  -3   9  -7   21.60    3.59
   3  -9   7   23.95    3.68
   3  -9   7   20.93    4.05
  -3   9  -7   13.80    2.59
  -3   9  -8    9.27    2.60
   3  -9   8    4.48    1.64
  -3   9  -8    8.69    2.56
   3  -9   8    6.17    2.54
   3  -9   8    5.67    2.49
  -3   9  -8    9.03    2.30
  -3   9  -9    7.55    2.65
  -3   9  -9    3.70    1.63
   3  -8  -9    2.88    1.53
  -3   8   9    3.69    1.84
  -3   8   8    2.68    1.43
  -3   8   8    0.77    1.30
   3  -8  -8    2.80    1.43
  -3   8   8    2.38    1.78
   3  -8  -7    0.48    1.54
  -3   8   7   -0.45    1.40
  -3   8   7    0.33    1.11
  -3   8   7   -2.53    2.00
  -3   8   6   11.27    2.66
  -3   8   6    7.71    2.20
  -3   8   6   17.48    3.03
   3  -8  -6    8.82    2.28
   3  -8  -5   12.53    2.47
  -3   8   5   14.07    2.25
  -3   8   5   12.66    2.43
  -3   8   5   13.09    2.86
   3  -8  -4   12.45    2.45
  -3   8   4   15.95    2.37
  -3   8   4   12.01    2.62
   3  -8  -4   13.69    1.73
  -3   8   4   11.72    2.33
   3  -8  -3    5.94    1.26
   3  -8  -3    3.04    1.05
  -3   8   3    4.06    1.90
  -3   8   3    3.64    1.76
  -3   8   3    4.50    1.89
   3  -8  -3    6.95    1.52
   3  -8  -3    4.19    1.85
   3  -8  -3    3.89    1.19
   3  -8  -3    4.25    1.61
  -3   8   3    7.06    1.94
   3  -8  -2  154.91    8.04
  -3   8   2  157.38    7.40
  -3   8   2  147.60    8.11
   3  -8  -2  148.20    6.75
   3  -8  -2  152.25    6.66
   3  -8  -2  143.13    7.26
  -3   8   2  139.75    6.83
   3  -8  -2  157.51    6.49
  -3   8   2  147.00    6.90
   3  -8  -2  154.41    6.95
  -3   8   1    2.52    1.47
   3  -8  -1    2.77    1.52
   3  -8  -1    4.88    1.63
   3  -8  -1    5.55    1.42
   3  -8  -1    5.36    1.89
  -3   8   1    5.97    1.58
  -3   8   1    4.14    1.65
  -3   8   1    3.65    1.33
  -3   8   1    3.22    1.23
  -3   8   0   22.44    3.14
  -3   8   0   20.50    2.32
  -3   8   0   20.96    3.23
   3  -8   0   20.74    2.93
   3  -8   0   19.81    3.10
   3  -8   0   19.42    2.94
   3  -8   0   22.27    2.41
  -3   8   0   22.55    2.68
  -3   8   0   20.01    1.51
  -3   8   0   20.65    1.42
  -3   8   0   20.94    2.70
   3  -8   1   19.90    2.44
  -3   8  -1   16.29    2.00
  -3   8  -1   20.71    3.15
   3  -8   1   15.63    2.19
  -3   8  -1   15.30    2.91
   3  -8   1   16.73    2.72
  -3   8  -1   16.99    2.54
   3  -8   1   15.84    2.79
   3  -8   1   13.67    2.59
   3  -8   1   19.10    2.20
  -3   8  -1   15.15    2.26
  -3   8  -1   15.33    1.62
  -3   8  -1   15.60    1.72
  -3   8  -2    5.88    1.24
  -3   8  -2    7.36    2.07
   3  -8   2    8.06    2.08
  -3   8  -2    7.65    2.23
   3  -8   2    7.90    2.31
  -3   8  -2    7.63    1.93
   3  -8   2    5.16    1.09
   3  -8   2    4.92    1.93
   3  -8   2    5.32    1.25
  -3   8  -2    5.18    1.51
  -3   8  -2    6.79    1.24
  -3   8  -3   96.98    7.05
   3  -8   3  100.57    6.25
  -3   8  -3   96.32    6.75
  -3   8  -3   97.26    3.94
   3  -8   3  106.12    7.12
   3  -8   3   97.79    6.92
   3  -8   3  101.89    4.58
  -3   8  -3  100.18    5.62
  -3   8  -3  102.40    5.18
  -3   8  -3   99.88    6.33
  -3   8  -3  100.00    5.43
   3  -8   4   63.66    5.72
  -3   8  -4   60.84    5.86
   3  -8   4   56.72    4.69
  -3   8  -4   60.11    5.53
  -3   8  -4   57.83    2.53
   3  -8   4   61.27    5.69
  -3   8  -4   59.32    4.56
  -3   8  -4   55.90    4.94
  -3   8  -4   60.15    4.65
  -3   8  -5    9.49    2.14
   3  -8   5    8.14    1.97
  -3   8  -5    9.87    2.82
   3  -8   5   11.30    2.64
  -3   8  -5    9.48    2.36
   3  -8   5   12.11    2.84
  -3   8  -5    9.54    2.09
  -3   8  -6   -0.28    1.26
   3  -8   6   -1.38    1.10
  -3   8  -6   -0.99    1.50
   3  -8   6    0.01    1.37
  -3   8  -6   -0.05    1.18
  -3   8  -6    3.87    2.37
  -3   8  -7    2.89    1.64
   3  -8   7    2.30    1.28
  -3   8  -7    2.38    1.56
   3  -8   7    1.41    1.90
   3  -8   7    4.52    1.68
  -3   8  -7    2.01    1.42
   3  -8   7    2.12    1.22
  -3   8  -8    6.56    2.07
   3  -8   8    3.83    1.41
  -3   8  -8    7.43    2.36
   3  -8   8    6.31    2.23
   3  -8   8    4.37    1.36
   3  -8   8    1.49    2.24
  -3   8  -9    1.10    1.56
  -3   8  -9    0.47    1.42
   3  -8   9    1.70    1.77
   3  -8   9   -0.25    1.89
   3  -8   9    1.21    1.25
  -3   8 -10    0.78    1.39
  -3   7   9    6.65    2.10
   3  -7  -9    5.14    1.76
  -3   7   9    6.33    2.54
   3  -7  -8   75.29    5.63
  -3   7   8   80.67    6.38
  -3   7   8   76.01    6.57
  -3   7   8   74.31    6.79
  -3   7   7    5.72    1.97
  -3   7   7    4.59    1.81
   3  -7  -7    6.27    1.91
  -3   7   7    3.12    1.58
  -3   7   6   -1.08    1.01
  -3   7   6    0.26    0.71
   3  -7  -6    0.20    1.02
  -3   7   6    1.41    1.34
  -3   7   6    1.97    1.74
  -3   7   5   12.74    2.60
  -3   7   5    9.57    2.13
   3  -7  -5   10.52    2.20
   3  -7  -5    9.77    1.25
  -3   7   5    9.92    2.45
   3  -7  -4   48.30    3.35
   3  -7  -4   45.31    4.29
  -3   7   4   45.98    4.51
  -3   7   4   45.58    4.01
   3  -7  -4   47.87    3.13
  -3   7   4   43.22    3.36
   3  -7  -4   37.39    3.48
   3  -7  -4   45.40    2.69
   3  -7  -4   41.22    3.01
  -3   7   4   48.28    4.27
   3  -7  -4   47.21    2.91
   3  -7  -3   86.41    4.60
  -3   7   3   82.02    5.11
  -3   7   3   92.01    4.98
   3  -7  -3   83.51    3.85
   3  -7  -3   79.57    5.51
  -3   7   3   81.48    5.80
   3  -7  -3   86.12    4.39
  -3   7   3   72.18    4.37
   3  -7  -3   68.33    4.87
   3  -7  -3   84.25    4.45
  -3   7   3   89.20    5.43
   3  -7  -3   85.08    4.14
  -3   7   2    6.07    1.85
  -3   7   2    6.27    1.52
   3  -7  -2    5.54    1.43
   3  -7  -2    5.11    1.26
   3  -7  -2    3.87    1.50
   3  -7  -2    8.17    1.47
   3  -7  -2    7.96    1.53
   3  -7  -2    7.18    1.71
  -3   7   2    4.48    1.45
   3  -7  -2    7.93    1.69
   3  -7  -2   12.08    2.09
  -3   7   2    5.88    1.37
  -3   7   2    9.11    1.96
  -3   7   2    8.07    1.88
  -3   7   1  194.72    7.87
   3  -7  -1  185.04    7.33
   3  -7  -1  165.63    7.68
  -3   7   1  174.59    6.61
  -3   7   1  180.56    8.33
   3  -7  -1  182.56    7.23
   3  -7  -1  182.73    7.10
   3  -7  -1  186.78    7.53
   3  -7  -1  172.33    7.64
   3  -7  -1  181.39    7.05
  -3   7   1  176.16    7.00
   3  -7  -1  186.04    6.68
  -3   7   1  176.68    6.71
   3  -7   0  259.41    8.36
  -3   7   0  283.20    9.84
   3  -7   0  267.34    9.32
   3  -7   0  261.72    9.52
  -3   7   0  261.46    7.59
  -3   7   0  257.47    9.95
   3  -7   0  259.09    9.12
   3  -7   0  270.65    9.10
   3  -7   0  261.42    9.32
   3  -7   0  212.06    9.43
   3  -7   0  262.50    8.40
   3  -7   0  263.43    8.14
  -3   7   0  249.92    8.09
   3  -7   0  276.58    8.52
  -3   7   0  266.06    4.95
  -3   7   0  254.74    5.32
  -3   7   0  252.08    8.35
  -3   7  -1    9.03    1.35
   3  -7   1    9.93    1.82
  -3   7  -1   10.36    1.57
  -3   7  -1   12.20    2.21
   3  -7   1    9.81    1.59
  -3   7  -1   11.53    2.44
   3  -7   1    9.18    2.06
   3  -7   1   10.70    2.29
  -3   7  -1    9.73    1.89
   3  -7   1    9.81    1.60
  -3   7  -1    8.19    1.74
  -3   7  -1   10.05    1.39
   3  -7   1   11.50    2.55
  -3   7  -2   89.01    3.75
   3  -7   2  100.06    6.19
  -3   7  -2   98.07    6.37
   3  -7   2   93.56    6.06
   3  -7   2   89.54    5.55
  -3   7  -2   92.31    5.21
   3  -7   2  101.90    4.82
  -3   7  -2  106.37    6.62
  -3   7  -2   93.32    5.53
   3  -7   2   91.75    4.43
  -3   7  -3    1.50    1.07
   3  -7   3    0.73    0.82
  -3   7  -3    1.69    1.76
   3  -7   3    1.46    0.56
  -3   7  -3   -0.06    1.33
   3  -7   3    0.14    1.25
  -3   7  -3    0.64    0.45
  -3   7  -3   -0.05    1.21
   3  -7   3    3.69    1.93
   3  -7   3    0.38    1.00
   3  -7   3    1.69    0.89
  -3   7  -3   -0.60    1.20
   3  -7   4  117.92    3.70
  -3   7  -4  142.98    8.43
   3  -7   4  114.83    6.32
  -3   7  -4  117.90    2.82
   3  -7   4  133.49    7.75
   3  -7   4  115.58    7.21
  -3   7  -4  126.84    6.39
  -3   7  -4  120.70    7.29
  -3   7  -4  115.33    6.67
  -3   7  -4  111.89    6.04
   3  -7   5  101.35    7.10
   3  -7   5   79.64    5.25
   3  -7   5   81.65    6.25
  -3   7  -5   98.97    7.47
  -3   7  -5   84.51    5.39
  -3   7  -5   84.95    5.93
  -3   7  -5   90.46    5.80
   3  -7   6   67.02    4.84
   3  -7   6   87.41    6.80
   3  -7   6   76.73    6.29
   3  -7   6   90.06    5.07
  -3   7  -6   75.70    5.82
  -3   7  -6   76.60    5.74
   3  -7   7   26.67    3.08
   3  -7   7   35.48    4.69
   3  -7   7   32.54    4.48
   3  -7   7   25.62    3.06
   3  -7   7   32.42    3.12
  -3   7  -7   29.52    3.84
  -3   7  -7   25.46    3.61
  -3   7  -8    2.84    1.76
   3  -7   8    0.86    0.96
  -3   7  -8    2.21    1.57
   3  -7   8   -0.68    1.41
   3  -7   8    1.15    1.18
   3  -7   8    1.22    1.63
   3  -7   8    0.95    0.96
  -3   7  -9   -0.44    1.77
   3  -7   9    2.86    1.95
   3  -7   9   -0.19    0.89
  -3   7  -9    1.13    1.39
   3  -7   9    2.95    1.77
   3  -7   9    0.62    1.50
  -3   7 -10   -0.49    1.31
   3  -7  10    3.01    2.07
   3  -7  10   -0.09    1.69
   3  -7  10   -0.03    2.06
  -3   7 -10   -1.04    1.67
   3  -7  10    2.45    1.73
   3  -7  11    1.68    1.65
   3  -6 -10   16.89    3.74
   3  -6 -10   11.28    2.16
  -3   6  10    9.93    2.60
  -3   6  10   15.12    3.21
   3  -6  -9    6.81    1.80
  -3   6   9    7.78    2.34
   3  -6  -9    4.37    2.42
  -3   6   9    5.59    1.98
  -3   6   8    0.70    1.00
   3  -6  -8    1.86    1.13
  -3   6   8    0.52    1.62
   3  -6  -7   -0.28    0.97
  -3   6   7   -0.01    1.05
   3  -6  -6    1.86    1.36
   3  -6  -6    2.98    0.44
  -3   6   6    2.13    0.67
  -3   6   6    3.91    1.56
  -3   6   6    1.63    1.05
  -3   6   6    1.04    1.30
  -3   6   5    6.43    1.17
   3  -6  -5    6.77    1.77
   3  -6  -5   11.19    1.36
  -3   6   5    6.10    1.77
   3  -6  -5    6.89    1.01
  -3   6   5    7.50    1.35
   3  -6  -5    7.66    0.94
  -3   6   5    6.14    1.89
   3  -6  -5    4.82    1.31
  -3   6   5    9.11    2.09
   3  -6  -5    7.63    0.91
   3  -6  -5    6.78    1.12
  -3   6   4   86.97    4.10
   3  -6  -4   87.05    3.89
   3  -6  -4   88.43    5.48
  -3   6   4   83.50    5.71
  -3   6   4   78.73    4.97
   3  -6  -4   84.84    3.67
   3  -6  -4   83.36    3.73
   3  -6  -4   72.61    4.28
   3  -6  -4   80.46    3.14
  -3   6   4   79.09    5.19
   3  -6  -4   85.37    3.35
   3  -6  -3  102.41    4.47
  -3   6   3   91.82    5.80
  -3   6   3   98.52    5.29
   3  -6  -3   95.05    4.24
   3  -6  -3   91.66    5.56
   3  -6  -3  100.84    4.27
   3  -6  -3  100.88    4.54
  -3   6   3  100.35    4.78
   3  -6  -3   94.61    5.06
   3  -6  -3   97.31    5.55
  -3   6   3   97.85    5.45
   3  -6  -3   98.90    3.93
   3  -6  -2   33.93    3.17
   3  -6  -2   29.00    2.58
   3  -6  -2   30.18    2.59
   3  -6  -2   28.64    3.12
   3  -6  -2   31.63    2.57
   3  -6  -2   33.24    2.82
  -3   6   2   28.46    3.28
  -3   6   2   25.80    2.66
   3  -6  -2   29.55    2.90
   3  -6  -2   29.17    2.96
  -3   6   2   29.93    2.93
  -3   6   2   29.80    2.80
   3  -6  -2   28.47    2.65
   3  -6  -2   30.69    2.38
  -3   6   2   29.88    2.39
   3  -6  -1  270.28    8.54
   3  -6  -1  271.59    8.36
   3  -6  -1  262.34    8.96
  -3   6   1  248.30    7.31
  -3   6   1  257.64    9.44
   3  -6  -1  263.89    8.36
   3  -6  -1  272.63    8.32
   3  -6  -1  270.72    8.16
   3  -6  -1  271.82    8.02
   3  -6  -1  279.14    8.43
  -3   6   1  269.38    8.57
   3  -6  -1  264.88    8.60
  -3   6   1  276.86    8.72
   3  -6  -1  270.16    8.36
  -3   6   1  253.03    8.02
   3  -6  -1  272.51    7.70
   3  -6  -1  273.71    7.46
  -3   6   1  265.13    7.52
   3  -6   0   17.67    2.22
   3  -6   0   18.97    2.13
  -3   6   0   19.66    2.63
  -3   6   0   15.86    1.81
   3  -6   0   16.74    2.39
   3  -6   0   17.74    2.39
   3  -6   0   15.74    2.30
   3  -6   0   16.38    2.26
  -3   6   0   19.49    2.55
   3  -6   0   15.82    2.18
   3  -6   0   16.68    2.11
   3  -6   0   12.00    2.53
  -3   6   0   16.51    2.62
   3  -6   0   18.44    2.11
  -3   6   0   12.62    1.86
  -3   6   0   18.54    1.38
  -3   6   0   18.46    2.20
  -3   6   0   16.46    1.40
   3  -6   1  956.15   15.21
  -3   6  -1  878.91   11.65
  -3   6  -1  974.49   18.02
   3  -6   1  951.74   17.42
  -3   6  -1  942.66   17.82
   3  -6   1  942.33   17.07
   3  -6   1  922.74   16.60
   3  -6   1  941.99   16.91
   3  -6   1  938.28   14.77
  -3   6  -1  847.84   14.79
   3  -6   1  887.64   16.36
   3  -6   1  901.72   14.86
   3  -6   1  902.99   16.88
  -3   6  -1  937.03   15.64
  -3   6  -1  889.85   12.12
   3  -6   1  879.21   11.90
   3  -6   2    4.70    1.21
  -3   6  -2    5.34    2.07
   3  -6   2    5.60    1.63
   3  -6   2    5.13    1.04
  -3   6  -2    3.49    1.49
   3  -6   2    4.26    1.56
   3  -6   2    5.37    1.58
  -3   6  -2    4.46    0.85
   3  -6   2    5.52    1.53
  -3   6  -2    7.20    1.79
   3  -6   2    6.34    1.94
   3  -6   2    6.49    1.90
  -3   6  -2    5.47    1.59
  -3   6  -3  218.60    9.53
   3  -6   3  206.67    4.91
   3  -6   3  206.42    7.97
  -3   6  -3  209.95    8.73
  -3   6  -3  211.89    4.07
   3  -6   3  225.01    9.17
   3  -6   3  173.37    8.64
  -3   6  -3  204.81    7.69
  -3   6  -3  213.12    8.14
  -3   6  -3  218.61    7.51
   3  -6   3  211.38    7.39
  -3   6  -4   10.46    1.90
   3  -6   4    9.10    1.84
  -3   6  -4   12.05    1.51
   3  -6   4   11.17    1.93
  -3   6  -4   10.94    2.54
   3  -6   4    9.36    0.80
  -3   6  -4    7.29    1.77
   3  -6   4   10.09    2.24
   3  -6   4    9.51    2.34
  -3   6  -4   10.60    1.94
  -3   6  -5   66.96    3.18
   3  -6   5   54.28    4.22
   3  -6   5   64.36    5.45
   3  -6   5   61.58    5.08
  -3   6  -5   57.44    4.71
  -3   6  -5   60.37    4.67
  -3   6  -6   16.05    2.75
   3  -6   6   14.66    3.03
  -3   6  -6   16.65    1.58
   3  -6   6   12.69    2.88
   3  -6   6   13.14    2.26
  -3   6  -6   14.48    2.53
   3  -6   6   15.04    2.19
   3  -6   6   17.75    2.16
  -3   6  -7    0.84    1.48
  -3   6  -7    0.98    0.50
   3  -6   7    1.44    1.05
  -3   6  -7    3.55    1.80
   3  -6   7    0.01    1.28
   3  -6   7    1.09    0.96
   3  -6   7    0.72    0.93
   3  -6   7    1.41    1.43
  -3   6  -8    2.43    1.68
   3  -6   8    3.10    1.73
   3  -6   8    1.28    1.02
  -3   6  -8    1.50    1.19
   3  -6   8    2.80    1.88
   3  -6   8    1.98    1.51
   3  -6   8   -0.24    1.28
   3  -6   8    1.99    1.18
   3  -6   8    2.31    1.12
  -3   6  -9   19.53    3.54
   3  -6   9   22.02    3.57
   3  -6   9   19.33    2.59
   3  -6   9   20.61    3.98
  -3   6  -9   20.00    3.40
   3  -6   9   15.19    3.35
   3  -6   9   19.70    3.12
   3  -6   9   17.27    3.44
  -3   6 -10    1.76    1.56
   3  -6  10   -1.00    1.28
   3  -6  10    2.92    2.56
   3  -6  10    3.02    1.76
  -3   6 -10    2.94    1.72
   3  -6  10    2.65    2.07
   3  -6  10    2.36    1.92
   3  -6  11   -0.41    1.43
   3  -6  11    1.67    1.65
   3  -5 -11    2.43    2.17
  -3   5  11    1.74    1.66
  -3   5  11    2.76    1.78
  -3   5  10    6.15    2.02
   3  -5 -10    4.31    2.42
   3  -5 -10    7.72    1.75
  -3   5  10    8.35    2.66
   3  -5  -9    3.18    1.17
   3  -5  -9    3.96    1.97
  -3   5   9    1.58    1.57
  -3   5   9    3.85    1.82
   3  -5  -8   20.79    3.65
   3  -5  -8   17.54    2.45
  -3   5   8   21.35    3.12
  -3   5   8   15.64    3.05
  -3   5   7    0.33    1.05
  -3   5   7   -0.90    1.34
   3  -5  -7    3.83    1.53
  -3   5   7   -0.40    1.36
  -3   5   6   21.81    1.30
  -3   5   6   27.23    3.16
  -3   5   6   28.04    3.47
   3  -5  -6   26.69    2.96
   3  -5  -6   25.24    1.12
  -3   5   6   26.33    3.51
  -3   5   5   12.21    2.33
   3  -5  -5   13.71    1.65
   3  -5  -5   12.63    1.07
  -3   5   5   10.54    2.27
   3  -5  -5   14.24    2.11
   3  -5  -5   13.04    1.04
   3  -5  -5   14.56    1.16
   3  -5  -5   14.07    1.17
   3  -5  -5   13.06    0.82
  -3   5   5   15.68    2.36
   3  -5  -5   12.75    0.83
  -3   5   5   13.57    1.31
  -3   5   5   16.34    2.56
  -3   5   4  104.56    3.86
   3  -5  -4  105.61    3.60
   3  -5  -4   99.14    5.39
   3  -5  -4  101.94    3.46
  -3   5   4  106.93    5.44
  -3   5   4  102.43    5.94
   3  -5  -4  100.00    3.34
   3  -5  -4  102.37    3.53
  -3   5   4  107.82    4.58
   3  -5  -4   99.84    4.44
   3  -5  -4  101.40    2.95
  -3   5   4   98.62    5.53
   3  -5  -4  101.88    3.03
   3  -5  -3    9.10    1.57
  -3   5   3   10.33    1.39
   3  -5  -3   12.76    2.09
   3  -5  -3    9.88    1.28
   3  -5  -3   12.64    1.43
  -3   5   3   10.46    2.05
  -3   5   3    8.18    1.54
   3  -5  -3    9.69    1.80
   3  -5  -3   10.54    1.26
   3  -5  -3   10.77    1.41
   3  -5  -3   10.65    1.92
   3  -5  -3   11.15    1.65
   3  -5  -3    8.01    1.66
   3  -5  -3    9.85    1.10
   3  -5  -3    9.44    1.70
  -3   5   3    8.84    1.79
   3  -5  -2  159.69    6.60
  -3   5   2  162.31    5.72
   3  -5  -2  159.17    6.36
   3  -5  -2  156.51    5.31
   3  -5  -2  151.85    5.17
  -3   5   2  144.45    5.56
  -3   5   2  146.78    6.74
   3  -5  -2  159.10    5.43
  -3   5   2  157.23    5.87
   3  -5  -2  146.44    5.75
   3  -5  -2  153.40    6.49
   3  -5  -2  160.93    6.69
   3  -5  -2  160.75    6.32
  -3   5   2  148.58    6.13
   3  -5  -2  154.67    6.43
   3  -5  -2  159.48    4.77
   3  -5  -2  162.08    5.24
   3  -5  -2  156.04    5.76
  -3   5   2  148.49    4.79
  -3   5   1    0.12    0.68
  -3   5   1   -0.11    0.17
   3  -5  -1   -0.20    0.60
   3  -5  -1    1.05    0.97
  -3   5   1   -0.09    0.20
  -3   5   1   -0.09    1.09
   3  -5  -1    0.58    0.69
   3  -5  -1    0.45    1.07
   3  -5  -1   -1.29    0.98
   3  -5  -1   -0.20    0.93
  -3   5   1    0.17    0.78
   3  -5  -1    1.36    1.13
  -3   5   1   -0.07    0.74
   3  -5  -1   -0.35    0.92
   3  -5  -1   -0.13    0.76
   3  -5  -1    0.26    0.98
   3  -5  -1    0.07    0.71
  -3   5   1   -0.89    1.09
   3  -5  -1    0.12    0.69
   3  -5   0    6.91    0.94
  -3   5   0    7.42    2.07
   3  -5   0    5.93    1.34
  -3   5   0    4.69    0.97
  -3   5   0    5.34    0.83
   3  -5   0    5.34    1.35
   3  -5   0    6.81    1.22
   3  -5   0    6.98    1.44
   3  -5   0    5.09    1.53
   3  -5   0    6.29    1.39
  -3   5   0    4.99    1.16
   3  -5   0    5.77    1.42
  -3   5   0    6.00    1.42
   3  -5   0    4.07    1.38
   3  -5   0    5.76    1.39
   3  -5   0    6.95    1.14
  -3   5   0    5.56    1.40
  -3   5   0    6.37    1.68
  -3   5   0    5.17    0.92
   3  -5   1   72.09    3.39
   3  -5   1   71.68    4.54
   3  -5   1   69.13    4.43
   3  -5   1   68.29    4.44
  -3   5  -1   71.12    2.98
   3  -5   1   68.68    4.34
   3  -5   1   77.05    4.61
  -3   5  -1   69.91    4.71
  -3   5  -1   77.52    4.88
   3  -5   1   60.64    4.35
  -3   5  -1   69.18    4.12
  -3   5  -1   74.51    4.77
   3  -5   1   73.88    4.03
  -3   5  -1   70.51    4.09
  -3   5  -1   75.32    3.56
   3  -5   1   69.97    3.42
   3  -5   2   85.48    4.57
   3  -5   2   82.36    3.18
   3  -5   2   85.31    4.89
  -3   5  -2   81.51    5.13
  -3   5  -2   86.67    5.46
   3  -5   2   85.39    5.24
   3  -5   2   84.36    5.13
   3  -5   2   89.03    5.20
  -3   5  -2   89.67    2.80
   3  -5   2   79.69    4.93
  -3   5  -2   82.29    4.63
  -3   5  -2   89.24    4.91
   3  -5   2   87.53    4.30
  -3   5  -3  103.40    6.27
   3  -5   3   94.18    2.72
  -3   5  -3   87.44    5.39
   3  -5   3   88.39    5.53
   3  -5   3  102.54    6.07
   3  -5   3   98.24    5.81
   3  -5   3   92.85    5.46
  -3   5  -3   97.51    5.14
  -3   5  -3   92.28    5.15
  -3   5  -3   89.71    4.79
   3  -5   3   92.53    4.85
  -3   5  -4   87.63    3.93
   3  -5   4   91.59    5.85
   3  -5   4   71.87    4.97
  -3   5  -4   77.85    5.03
  -3   5  -4   83.12    4.99
   3  -5   4   80.29    4.90
  -3   5  -5  199.72    5.79
   3  -5   5  168.56    8.13
   3  -5   5  190.70    8.83
   3  -5   5  201.17    5.84
  -3   5  -5  172.50    7.78
  -3   5  -5  193.31    8.14
  -3   5  -6   21.63    3.04
  -3   5  -6   22.21    2.00
   3  -5   6   19.01    3.03
   3  -5   6   30.50    2.97
   3  -5   6   20.75    3.30
   3  -5   6   22.57    3.16
   3  -5   6   19.09    2.15
   3  -5   6   23.51    2.19
  -3   5  -6   18.57    2.85
  -3   5  -7    5.99    1.94
  -3   5  -7    3.18    0.92
   3  -5   7    2.69    0.80
  -3   5  -7    3.68    1.67
   3  -5   7    1.84    1.49
   3  -5   7    2.48    1.50
   3  -5   7    2.90    1.06
   3  -5   7    3.46    1.78
   3  -5   7    2.84    0.94
   3  -5   8   73.36    6.68
   3  -5   8   70.08    6.28
   3  -5   8   67.23    5.75
   3  -5   8   66.32    4.13
   3  -5   8   70.15    3.98
  -3   5  -8   64.79    5.51
  -3   5  -8   69.20    5.89
  -3   5  -9   23.75    3.83
   3  -5   9   22.40    3.47
   3  -5   9   23.86    4.19
   3  -5   9   24.18    4.25
  -3   5  -9   23.31    3.61
   3  -5   9   24.16    3.61
   3  -5   9   23.68    3.46
  -3   5 -10    5.03    2.01
   3  -5  10    6.23    2.48
   3  -5  10    2.18    1.64
  -3   5 -10    5.51    1.90
   3  -5  10    8.18    2.79
   3  -5  10    4.77    2.45
   3  -5  10    8.94    2.51
  -3   5 -11    3.14    2.29
   3  -5  11    3.19    2.28
   3  -5  11   -1.76    2.12
  -3   5 -11   -0.72    1.13
   3  -5  11    3.90    1.93
   3  -5  11    1.97    1.77
   3  -5  11    4.71    2.36
   3  -5  12    3.88    2.15
   3  -4 -11   15.78    3.64
  -3   4  11   14.91    3.65
  -3   4  11   17.04    3.27
  -3   4  11   14.98    3.43
  -3   4  10    6.09    2.01
  -3   4  10    3.20    2.15
   3  -4 -10    5.53    2.41
   3  -4 -10    2.95    1.05
  -3   4  10   10.82    3.22
   3  -4  -9    5.43    1.06
   3  -4  -9    2.67    0.94
   3  -4  -9    3.64    1.77
  -3   4   9    4.00    1.90
  -3   4   9    4.00    1.59
  -3   4   9    2.02    2.03
   3  -4  -8    4.49    0.91
   3  -4  -8    4.48    0.83
   3  -4  -8    3.41    1.09
   3  -4  -8    5.40    2.07
  -3   4   8    3.41    1.69
  -3   4   8    3.15    1.49
   3  -4  -7   50.11    3.66
  -3   4   7   54.56    4.82
  -3   4   7   52.55    4.36
  -3   4   7   54.56    4.88
   3  -4  -7   53.51    2.26
   3  -4  -7   54.37    2.29
   3  -4  -6    0.48    0.27
   3  -4  -6    0.32    0.16
  -3   4   6    0.62    0.92
   3  -4  -6    0.51    0.39
  -3   4   6   -1.72    1.66
   3  -4  -6    0.11    0.93
  -3   4   6    0.17    1.28
  -3   4   5  139.09    6.92
   3  -4  -5  143.39    6.02
  -3   4   5  141.08    6.27
   3  -4  -5  146.62    4.52
  -3   4   5  150.89    7.39
  -3   4   5  147.06    6.83
  -3   4   4    4.45    1.30
   3  -4  -4    5.79    1.47
   3  -4  -4    5.53    1.39
   3  -4  -4    5.51    0.65
  -3   4   4    4.21    1.54
   3  -4  -4    8.03    1.63
   3  -4  -4    5.03    0.61
   3  -4  -4    5.15    0.66
  -3   4   4    4.42    1.00
   3  -4  -4    5.39    0.55
   3  -4  -4    5.96    1.06
   3  -4  -4    5.12    1.48
   3  -4  -4    5.25    0.55
   3  -4  -4    5.12    1.44
   3  -4  -4    5.92    0.71
   3  -4  -4    6.15    1.47
   3  -4  -4    4.46    1.38
  -3   4   4    4.81    0.73
  -3   4   4    4.91    1.38
   3  -4  -3   40.04    3.37
   3  -4  -3   42.37    3.45
   3  -4  -3   39.79    2.06
   3  -4  -3   41.11    2.12
   3  -4  -3   41.90    3.37
   3  -4  -3   42.88    3.49
  -3   4   3   41.67    2.31
   3  -4  -3   38.12    1.95
  -3   4   3   44.22    3.16
   3  -4  -3   41.88    2.14
  -3   4   3   43.80    2.96
   3  -4  -3   39.96    2.74
  -3   4   3   35.55    3.33
   3  -4  -3   44.48    3.65
   3  -4  -3   38.30    3.44
   3  -4  -3   38.95    3.18
  -3   4   3   42.92    3.37
   3  -4  -3   37.33    3.20
   3  -4  -3   40.77    1.89
   3  -4  -3   41.74    3.79
   3  -4  -3   37.69    3.16
  -3   4   3   40.78    1.98
   3  -4  -3   40.83    3.03
  -3   4   2  126.10    4.95
   3  -4  -2  135.80    5.82
  -3   4   2  135.11    4.71
   3  -4  -2  127.98    5.42
   3  -4  -2  133.21    4.43
   3  -4  -2  124.44    5.50
   3  -4  -2  130.33    4.33
   3  -4  -2  134.27    4.31
   3  -4  -2  133.02    4.35
  -3   4   2  125.03    5.38
   3  -4  -2  133.62    5.96
   3  -4  -2  136.14    5.60
   3  -4  -2  129.37    4.99
  -3   4   2  124.10    5.86
   3  -4  -2  130.82    5.44
   3  -4  -2  133.58    3.89
  -3   4   2  134.64    4.13
   3  -4  -2  130.65    4.91
   3  -4  -1  101.93    4.22
  -3   4   1  108.40    5.09
   3  -4  -1  104.52    4.99
   3  -4  -1  105.95    4.51
   3  -4  -1   88.42    4.71
  -3   4   1  101.35    4.48
  -3   4   1   91.98    4.98
   3  -4  -1   98.59    4.26
  -3   4   1  100.75    3.99
   3  -4  -1   98.96    4.14
   3  -4  -1   95.79    4.50
   3  -4  -1  103.41    5.05
   3  -4  -1   96.63    4.68
  -3   4   1   93.30    4.60
   3  -4  -1   98.22    4.36
   3  -4  -1   98.71    3.70
  -3   4   1   97.66    3.91
   3  -4  -1   99.47    3.99
   3  -4  -1   95.70    2.69
  -3   4   1   95.21    2.55
  -3   4   0   44.99    2.30
   3  -4   0   54.24    3.61
   3  -4   0   50.95    3.32
   3  -4   0   51.03    3.39
   3  -4   0   48.77    2.85
  -3   4   0   42.68    3.42
   3  -4   0   51.67    3.29
  -3   4   0   50.99    2.59
  -3   4   0   49.37    3.40
   3  -4   0   46.89    3.33
  -3   4   0   48.83    3.38
   3  -4   0   48.11    2.87
  -3   4   0   45.46    2.96
   3  -4   0   45.41    2.49
  -3   4   0   47.08    2.50
   3  -4   0   47.30    2.44
  -3   4  -1  162.71    6.40
   3  -4   1  169.25    6.57
  -3   4  -1  171.70    6.56
   3  -4   1  166.76    6.39
   3  -4   1  177.84    6.41
   3  -4   1  158.15    6.19
   3  -4   1  164.40    4.61
  -3   4  -1  177.38    4.20
  -3   4  -1  173.70    6.28
   3  -4   1  173.61    5.75
   3  -4   1  167.66    4.08
  -3   4  -1  162.15    5.78
  -3   4  -1  170.36    5.35
   3  -4   1  167.26    5.16
   3  -4   2   88.96    2.90
   3  -4   2   92.92    5.24
  -3   4  -2   91.02    4.98
   3  -4   2   96.94    5.20
  -3   4  -2   97.43    5.15
   3  -4   2   87.37    4.87
  -3   4  -2   89.12    4.69
   3  -4   2   95.47    4.58
  -3   4  -2   85.38    4.54
   3  -4   2   81.57    4.08
   3  -4   3  176.62    7.65
   3  -4   3  177.89    7.28
  -3   4  -3  188.30    7.35
   3  -4   3  148.82    6.59
   3  -4   3  174.46    6.52
  -3   4  -3  151.44    6.39
  -3   4  -3  168.28    6.49
   3  -4   3  159.65    6.26
   3  -4   4   20.50    2.99
  -3   4  -4   18.82    2.40
   3  -4   4   20.72    2.67
   3  -4   4   18.57    2.66
   3  -4   4   21.35    1.58
  -3   4  -4   19.80    2.51
   3  -4   4   19.75    2.45
  -3   4  -5   15.79    2.51
   3  -4   5   15.67    2.83
  -3   4  -5   11.47    2.07
   3  -4   5   15.31    2.81
   3  -4   5   14.20    2.44
   3  -4   5   13.44    1.57
   3  -4   5   13.88    1.35
   3  -4   6   32.09    3.93
   3  -4   6   32.27    3.53
   3  -4   6   34.74    2.43
   3  -4   6   35.44    4.00
   3  -4   6   32.79    2.44
   3  -4   6   36.67    2.28
  -3   4  -6   29.55    3.38
  -3   4  -6   35.76    3.82
   3  -4   7  103.57    7.13
   3  -4   7   73.87    5.98
   3  -4   7   70.82    3.53
   3  -4   7   62.84    5.18
   3  -4   7   63.48    3.46
   3  -4   7   72.49    3.46
  -3   4  -7   60.72    5.02
  -3   4  -7   69.58    5.57
  -3   4  -8    1.86    1.47
   3  -4   8    1.69    1.50
   3  -4   8    0.59    1.60
   3  -4   8    3.22    2.17
   3  -4   8    3.22    1.71
   3  -4   8    3.38    0.98
  -3   4  -8    3.08    1.66
   3  -4   8    3.07    1.01
  -3   4  -9   -0.67    1.58
   3  -4   9   -1.73    1.83
   3  -4   9    4.02    2.21
   3  -4   9   -0.37    1.39
  -3   4  -9    2.07    1.63
   3  -4   9    0.03    1.43
   3  -4   9   -0.95    1.49
  -3   4 -10    7.57    2.46
   3  -4  10    8.13    2.29
   3  -4  10    6.83    2.42
   3  -4  10   14.92    3.39
   3  -4  10   14.07    3.17
   3  -4  10   12.69    3.01
  -3   4 -10    8.26    2.27
  -3   4 -11    9.14    2.87
   3  -4  11   10.97    2.85
   3  -4  11   12.72    3.49
  -3   4 -11    6.34    2.19
   3  -4  11   12.79    3.16
   3  -4  11   10.06    2.82
   3  -4  11    6.13    2.03
   3  -4  12    2.31    1.74
   3  -4  12    4.88    2.56
   3  -3 -12    2.37    2.47
  -3   3  12   -0.64    1.81
  -3   3  12    0.37    1.27
  -3   3  12   -2.04    2.32
   3  -3 -11    6.23    2.36
  -3   3  11    4.97    2.15
  -3   3  11    5.73    2.19
  -3   3  11    8.74    2.90
   3  -3 -10    9.27    1.71
   3  -3 -10    9.49    1.59
   3  -3 -10    6.87    2.43
  -3   3  10    9.88    2.22
  -3   3  10    9.73    2.78
  -3   3  10    8.03    2.43
   3  -3 -10    7.10    1.28
  -3   3  10    8.99    2.92
   3  -3  -9    0.80    0.86
   3  -3  -9    0.88    0.81
   3  -3  -9   -0.61    0.63
   3  -3  -9   -0.54    1.57
  -3   3   9    0.43    1.64
  -3   3   9   -1.62    1.53
  -3   3   9    0.23    0.98
  -3   3   9   -0.75    1.94
   3  -3  -8    0.54    0.66
   3  -3  -8    0.37    0.53
   3  -3  -8    0.93    0.68
   3  -3  -8   -1.16    1.60
  -3   3   8   -0.76    1.23
  -3   3   8    3.54    2.04
  -3   3   8    0.73    0.98
   3  -3  -7    7.91    1.17
   3  -3  -7    8.27    1.10
   3  -3  -7    6.35    1.28
  -3   3   7    8.11    1.79
   3  -3  -7    7.96    2.06
   3  -3  -7    7.01    0.62
  -3   3   7    5.23    1.62
  -3   3   7    7.51    2.24
   3  -3  -6   40.81    3.00
  -3   3   6   42.33    3.96
   3  -3  -6   43.14    2.04
  -3   3   6   46.41    3.77
  -3   3   6   39.11    3.97
   3  -3  -6   44.29    4.08
   3  -3  -6   45.72    2.17
   3  -3  -6   43.18    2.13
  -3   3   5    5.57    1.69
   3  -3  -5    5.90    0.85
  -3   3   5    6.18    1.74
   3  -3  -5    6.70    1.62
   3  -3  -5    6.93    1.44
  -3   3   5    8.10    1.79
   3  -3  -5    9.79    2.15
   3  -3  -5    8.13    0.80
   3  -3  -5    7.49    0.77
  -3   3   5    7.51    1.59
   3  -3  -4  234.27    8.00
   3  -3  -4  218.48    7.05
   3  -3  -4  236.99    7.95
  -3   3   4  220.59    7.91
   3  -3  -4  218.02    5.53
  -3   3   4  220.42    7.06
   3  -3  -4  235.64    8.39
   3  -3  -4  224.90    8.21
   3  -3  -4  228.81    7.48
  -3   3   4  219.22    7.48
   3  -3  -4  225.02    7.89
   3  -3  -4  229.75    7.83
   3  -3  -4  223.58    6.86
   3  -3  -4  231.77    8.55
   3  -3  -4  224.57    3.36
   3  -3  -4  213.61    3.22
   3  -3  -4  223.30    7.68
   3  -3  -3  351.49    9.28
   3  -3  -3  358.18    9.41
   3  -3  -3  341.03    8.22
   3  -3  -3  340.43    4.97
   3  -3  -3  356.69    9.12
   3  -3  -3  340.61    4.86
   3  -3  -3  337.95    8.50
  -3   3   3  360.70    9.60
   3  -3  -3  336.73    4.93
   3  -3  -3  339.99    4.82
   3  -3  -3  344.37    4.76
  -3   3   3  367.02    7.96
   3  -3  -3  333.90    7.29
  -3   3   3  343.43    8.20
   3  -3  -3  356.79    9.88
   3  -3  -3  346.41    9.52
   3  -3  -3  344.19    4.51
  -3   3   3  339.54    8.82
   3  -3  -3  333.93    8.84
   3  -3  -3  347.51   10.00
  -3   3   3  353.96    4.90
   3  -3  -3  321.52    3.80
   3  -3  -3  326.79    3.84
  -3   3   2  144.30    5.98
   3  -3  -2  146.55    5.77
   3  -3  -2  150.72    5.99
   3  -3  -2  139.04    4.85
  -3   3   2  144.38    4.93
   3  -3  -2  141.18    4.14
   3  -3  -2  136.23    3.87
  -3   3   2  131.32    5.61
   3  -3  -2  141.98    4.12
   3  -3  -2  136.62    3.98
   3  -3  -2  132.22    3.77
  -3   3   2  145.28    5.28
   3  -3  -2  138.34    4.89
   3  -3  -2  152.84    6.18
   3  -3  -2  137.77    3.52
  -3   3   2  128.33    5.27
   3  -3  -2  132.18    5.15
  -3   3   2  147.06    3.96
  -3   3   2  139.02    2.83
   3  -3  -2  132.55    2.86
   3  -3  -1   38.78    3.12
   3  -3  -1   30.11    2.16
   3  -3  -1   34.73    2.53
   3  -3  -1   34.96    2.35
  -3   3   1   32.15    2.84
   3  -3  -1   33.20    2.78
   3  -3  -1   34.80    2.38
   3  -3  -1   35.60    2.40
   3  -3  -1   34.35    2.27
   3  -3  -1   28.96    2.48
  -3   3   1   34.98    2.28
   3  -3  -1   35.68    2.99
  -3   3   1   31.59    2.68
   3  -3  -1   33.19    2.02
   3  -3  -1   34.02    2.39
  -3   3   1   33.37    2.18
   3  -3  -1   36.18    1.85
  -3   3   1   34.90    1.76
  -3   3   0  312.04    6.15
   3  -3   0  292.28    5.68
   3  -3   0  304.34    6.61
   3  -3   0  300.19    7.72
  -3   3   0  303.01    8.09
   3  -3   0  299.52    7.40
   3  -3   0  319.00    7.41
   3  -3   0  280.19    7.60
  -3   3   0  300.02    7.91
   3  -3   0  318.19    6.73
   3  -3   0  295.04    5.97
  -3   3   0  301.44    6.91
   3  -3   0  282.79    6.00
  -3   3  -1   14.93    1.62
   3  -3   1   16.49    1.17
   3  -3   1   16.83    1.45
   3  -3   1   20.09    2.37
   3  -3   1   17.42    2.13
  -3   3  -1   13.72    1.96
   3  -3   1   18.34    2.11
  -3   3  -1   17.03    2.04
   3  -3   1   15.61    2.05
   3  -3   1   18.16    1.86
   3  -3   1   15.57    1.21
  -3   3  -1   16.87    2.07
  -3   3  -1   17.73    1.96
  -3   3  -1   18.91    1.94
   3  -3   1   13.69    1.61
   3  -3   2   36.85    1.69
  -3   3  -2   35.11    2.91
   3  -3   2   36.71    3.20
   3  -3   2   39.08    3.24
   3  -3   2   38.93    3.20
  -3   3  -2   37.75    3.24
   3  -3   2   34.92    2.97
  -3   3  -2   35.72    2.97
   3  -3   2   40.44    2.85
  -3   3  -2   37.91    2.90
   3  -3   2   36.14    1.31
   3  -3   2   37.24    2.79
  -3   3  -3    1.40    1.01
   3  -3   3    1.98    0.92
   3  -3   3    2.70    1.12
   3  -3   3    2.25    0.98
   3  -3   3    1.98    1.10
   3  -3   3    2.83    1.42
  -3   3  -3    1.49    0.93
   3  -3   3    1.00    1.03
  -3   3  -3    2.36    1.12
  -3   3  -3    1.74    1.05
   3  -3   3    1.54    0.31
  -3   3  -4    9.54    1.82
   3  -3   4   10.48    1.82
   3  -3   4   11.34    2.25
   3  -3   4   11.62    1.77
   3  -3   4   10.68    1.84
   3  -3   4   13.31    2.27
  -3   3  -4   10.64    1.87
   3  -3   4   10.84    2.08
  -3   3  -4   11.86    2.16
  -3   3  -4   14.88    2.19
   3  -3   4   11.55    1.16
   3  -3   4   10.24    0.73
  -3   3  -5   15.47    2.44
   3  -3   5   13.69    1.23
  -3   3  -5   14.31    2.28
   3  -3   5   13.08    2.44
   3  -3   5   16.03    2.39
   3  -3   5   12.98    1.23
   3  -3   5   13.24    1.02
   3  -3   5   14.04    2.60
   3  -3   6   41.55    4.31
   3  -3   6   35.86    2.00
   3  -3   6   45.23    4.39
   3  -3   6   39.34    3.75
   3  -3   6   37.63    2.09
  -3   3  -6   35.15    3.51
  -3   3  -6   39.85    3.97
  -3   3  -7   21.04    3.16
   3  -3   7   19.92    3.19
  -3   3  -7   15.47    2.56
   3  -3   7   22.58    3.41
   3  -3   7   17.89    2.86
   3  -3   7   21.91    1.72
   3  -3   7   28.43    3.39
  -3   3  -8   16.43    3.08
   3  -3   8   15.88    2.67
   3  -3   8   21.99    3.67
  -3   3  -8   17.06    2.92
   3  -3   8   17.26    3.29
   3  -3   8   20.09    3.05
   3  -3   8   15.32    1.52
  -3   3  -9   -0.27    1.47
   3  -3   9    3.03    1.48
   3  -3   9    3.26    2.02
  -3   3  -9    0.34    1.06
   3  -3   9    3.03    1.96
   3  -3   9    2.91    1.57
   3  -3   9    4.84    2.13
   3  -3  10   33.07    4.68
   3  -3  10   23.08    3.43
   3  -3  10   27.59    4.44
   3  -3  10   24.39    3.62
   3  -3  10   23.29    3.91
  -3   3 -10   26.15    3.72
  -3   3 -10   30.49    4.51
  -3   3 -11   -2.17    1.78
  -3   3 -11    3.13    1.36
   3  -3  11    2.23    2.23
   3  -3  11   -1.45    1.35
   3  -3  11   -0.97    1.71
   3  -3  11    2.41    2.01
   3  -3  11   -0.25    1.17
   3  -3  12    5.04    2.27
   3  -3  12   11.59    2.94
   3  -2 -12    5.12    2.21
  -3   2  12    7.50    2.73
  -3   2  12    6.60    2.83
  -3   2  12    1.67    2.14
   3  -2 -11   -1.16    1.27
   3  -2 -11    0.27    0.85
   3  -2 -11    1.98    1.83
  -3   2  11    0.49    1.59
  -3   2  11    1.03    1.48
   3  -2 -10    8.28    1.75
   3  -2 -10    6.08    1.35
   3  -2 -10   11.29    2.70
   3  -2 -10    6.93    1.07
  -3   2  10    7.07    2.25
  -3   2  10    7.17    2.30
  -3   2  10   10.41    2.66
  -3   2   9  251.91   10.66
   3  -2  -9  242.01    6.36
   3  -2  -9  265.20   11.28
  -3   2   9  247.07   11.14
  -3   2   9  260.71   11.65
   3  -2  -9  265.54    8.08
   3  -2  -9  279.99    8.43
  -3   2   8  102.62    6.48
   3  -2  -8   97.08    4.15
   3  -2  -8  100.04    6.69
  -3   2   8  101.03    6.73
  -3   2   8  104.80    6.99
   3  -2  -8   99.46    4.51
   3  -2  -8  110.17    4.86
  -3   2   7  107.50    6.33
   3  -2  -7  111.56    4.51
   3  -2  -7  106.98    6.51
   3  -2  -7  114.52    3.00
  -3   2   7  109.84    6.65
  -3   2   7  112.24    6.76
   3  -2  -7  111.06    4.32
   3  -2  -7  120.29    4.72
   3  -2  -6    0.43    0.67
   3  -2  -6   -0.16    0.55
   3  -2  -6   -0.31    0.73
  -3   2   6    0.51    0.94
   3  -2  -6   -0.02    0.88
   3  -2  -6    0.19    0.38
  -3   2   6   -0.78    1.18
  -3   2   6   -0.16    0.97
  -3   2   6    0.67    1.35
   3  -2  -5    6.59    1.17
   3  -2  -5    6.32    0.90
   3  -2  -5    6.74    0.93
   3  -2  -5    6.28    1.38
   3  -2  -5    8.36    1.61
  -3   2   5    5.38    1.60
  -3   2   5    5.68    1.58
   3  -2  -5    7.81    1.53
   3  -2  -5    7.78    1.06
  -3   2   5    7.20    1.49
   3  -2  -5    8.85    2.24
  -3   2   5    7.97    1.80
   3  -2  -5    7.62    1.46
   3  -2  -5    7.66    1.67
   3  -2  -5    6.79    1.55
   3  -2  -5    7.07    1.52
   3  -2  -5    6.83    1.38
  -3   2   5    6.25    1.56
   3  -2  -5    7.86    1.69
   3  -2  -5    8.11    1.45
   3  -2  -4   72.73    4.27
   3  -2  -4   71.77    3.89
  -3   2   4   64.63    4.01
  -3   2   4   64.93    4.17
   3  -2  -4   73.28    4.31
   3  -2  -4   61.22    4.11
   3  -2  -4   70.69    3.12
   3  -2  -4   65.93    4.27
   3  -2  -4   69.39    3.57
  -3   2   4   67.47    4.06
   3  -2  -4   70.46    4.24
   3  -2  -4   73.27    4.54
   3  -2  -4   71.30    2.60
   3  -2  -4   65.84    4.00
   3  -2  -4   70.45    2.66
   3  -2  -3  602.67   11.97
  -3   2   3  553.25   10.94
   3  -2  -3  552.56    5.24
   3  -2  -3  554.93    5.17
   3  -2  -3  556.42    5.55
   3  -2  -3  551.29    5.24
   3  -2  -3  549.17    5.39
   3  -2  -3  564.86    9.19
   3  -2  -3  562.95    5.55
  -3   2   3  572.83   11.45
   3  -2  -3  565.79    5.31
   3  -2  -3  574.75   10.22
  -3   2   3  587.12   11.12
   3  -2  -3  574.77   11.00
   3  -2  -3  563.69   11.84
  -3   2   3  577.54    5.82
  -3   2   3  574.86    6.81
   3  -2  -3  578.30    7.01
   3  -2  -2  365.21    5.72
   3  -2  -2  428.95    9.99
  -3   2   2  364.95    8.23
   3  -2  -2  371.25    5.99
   3  -2  -2  387.07    8.62
   3  -2  -2  392.51    7.73
  -3   2   2  368.58    8.69
   3  -2  -2  378.73    5.80
   3  -2  -2  370.47    7.72
   3  -2  -2  372.59    5.51
   3  -2  -2  371.78    8.58
  -3   2   2  375.69    8.55
   3  -2  -2  387.27    8.85
   3  -2  -2  376.51    8.05
  -3   2   2  374.77    5.84
   3  -2  -2  371.94    9.09
   3  -2  -2  380.68    6.36
  -3   2   2  412.56    6.20
   3  -2  -1    4.22    0.88
  -3   2   1    4.04    0.90
   3  -2  -1    3.28    1.05
  -3   2   1    3.47    0.75
   3  -2  -1    4.92    0.93
   3  -2  -1    4.10    0.97
   3  -2  -1    4.30    0.89
  -3   2   1    4.82    1.16
   3  -2  -1    4.73    1.05
   3  -2  -1    4.32    0.97
  -3   2   1    4.68    1.42
   3  -2  -1    4.30    0.90
  -3   2   1    6.47    1.14
   3  -2  -1    2.93    1.03
   3  -2  -1    3.70    0.97
   3  -2  -1    4.09    0.91
  -3   2   1    2.96    0.98
   3  -2   0  114.07    4.03
   3  -2   0  113.29    4.67
  -3   2   0  105.44    3.69
   3  -2   0  114.12    4.45
   3  -2   0  109.57    3.36
  -3   2   0  106.32    4.43
   3  -2   0  122.62    4.41
  -3   2   0  105.72    4.37
   3  -2   0  106.78    4.51
   3  -2   0  114.42    3.83
  -3   2   0  109.89    4.70
   3  -2   0  114.32    3.92
   3  -2   0  111.60    3.22
  -3   2   0  108.84    4.03
   3  -2   0  106.89    3.91
  -3   2   0  112.06    3.90
  -3   2  -1  157.97    5.08
   3  -2   1  156.49    3.41
   3  -2   1  161.85    4.21
  -3   2  -1  156.86    3.90
  -3   2  -1  150.74    5.22
   3  -2   1  159.41    6.07
   3  -2   1  173.61    5.75
  -3   2  -1  153.11    5.77
   3  -2   1  144.90    5.43
  -3   2  -1  155.22    5.68
   3  -2   1  154.23    3.87
   3  -2   1  162.58    5.10
   3  -2   1  144.83    2.57
  -3   2  -1  151.51    5.17
   3  -2   1  158.35    5.75
   3  -2   1  156.39    5.20
   3  -2   2  142.11    6.18
   3  -2   2  146.63    5.99
  -3   2  -2  134.10    4.95
   3  -2   2  133.37    2.53
  -3   2  -2  142.24    2.99
   3  -2   2  152.87    5.87
  -3   2  -2  147.57    6.13
   3  -2   2  129.63    5.37
   3  -2   2  135.56    2.96
   3  -2   2  142.28    5.17
  -3   2  -2  132.07    5.16
   3  -2   2  142.30    5.49
  -3   2  -3    2.40    1.22
   3  -2   3    1.56    0.92
   3  -2   3    1.44    1.16
   3  -2   3    2.04    0.94
  -3   2  -3    1.09    0.99
   3  -2   3    0.46    0.72
  -3   2  -3    1.59    1.00
   3  -2   3    2.15    1.40
  -3   2  -3    1.08    0.83
   3  -2   3    1.57    1.13
   3  -2   3    1.55    0.30
  -3   2  -4   13.89    2.17
   3  -2   4   13.46    2.28
  -3   2  -4   11.56    1.87
   3  -2   4   12.51    2.17
   3  -2   4   12.10    0.69
  -3   2  -4   15.41    2.33
  -3   2  -4   14.44    2.20
   3  -2   4   14.82    2.25
   3  -2   4   11.77    1.95
   3  -2   4   14.46    1.98
   3  -2   4   16.31    2.28
   3  -2   5   15.96    2.59
  -3   2  -5   20.90    2.64
   3  -2   5   15.99    2.33
   3  -2   5   17.75    2.64
  -3   2  -5   16.37    2.32
  -3   2  -5   23.18    2.98
   3  -2   6  253.91   10.18
   3  -2   6  229.26    9.43
   3  -2   6  226.26    8.51
   3  -2   6  219.87    7.59
  -3   2  -6  210.18    8.24
  -3   2  -6  227.94    9.39
   3  -2   7  181.09    9.14
   3  -2   7  184.14    8.92
   3  -2   7  159.77    7.45
   3  -2   7  163.08    7.03
  -3   2  -7  163.28    7.67
  -3   2  -7  162.29    8.36
  -3   2  -8    1.83    1.72
   3  -2   8    6.49    1.85
  -3   2  -8    5.26    1.76
   3  -2   8    4.72    2.03
   3  -2   8    5.93    2.07
   3  -2   8    4.38    1.71
  -3   2  -9    1.60    1.60
   3  -2   9    1.16    1.53
   3  -2   9    2.24    1.72
   3  -2   9    0.98    1.35
   3  -2   9   -1.12    1.24
   3  -2   9   -0.39    1.08
  -3   2  -9   -0.58    1.23
  -3   2 -10   -0.75    1.56
   3  -2  10    0.62    1.36
   3  -2  10   -2.30    2.33
  -3   2 -10   -3.57    1.95
   3  -2  10    4.49    2.48
   3  -2  10   -0.04    1.40
   3  -2  10   -0.53    1.02
   3  -2  11   -0.66    1.51
   3  -2  11   -1.05    1.28
  -3   2 -11    1.09    1.35
   3  -2  11    0.54    1.42
   3  -2  11    0.61    1.51
   3  -2  11   -1.05    1.04
   3  -2  11    2.77    2.14
   3  -2  12    4.85    1.61
   3  -2  12    5.33    2.89
   3  -1 -13   -0.50    1.82
  -3   1  13   -0.57    1.62
   3  -1 -12   -0.13    1.41
   3  -1 -12   -0.25    1.14
   3  -1 -12   -1.14    1.53
  -3   1  12    0.86    1.38
  -3   1  12    4.00    2.02
  -3   1  12    0.71    2.05
   3  -1 -11   27.28    4.21
  -3   1  11   22.99    3.64
  -3   1  11   27.02    4.04
  -3   1  11   30.76    4.47
   3  -1 -11   24.10    3.02
   3  -1 -11   26.80    3.28
   3  -1 -10    1.47    1.14
   3  -1 -10    1.89    1.03
   3  -1 -10    3.94    2.17
  -3   1  10   -0.42    1.53
  -3   1  10    2.15    1.57
  -3   1  10    1.87    1.59
  -3   1   9   80.48    5.97
   3  -1  -9   72.28    2.91
   3  -1  -9   80.83    6.17
   3  -1  -9   68.14    1.98
   3  -1  -9   66.71    2.12
  -3   1   9   76.41    6.05
  -3   1   9   78.89    6.27
  -3   1   9   76.07    6.18
   3  -1  -9   74.41    4.56
   3  -1  -9   80.20    4.88
  -3   1   8   19.80    2.96
   3  -1  -8   19.32    2.95
   3  -1  -8   18.47    1.39
   3  -1  -8   18.78    1.66
   3  -1  -8    9.81    1.22
  -3   1   8   16.85    2.73
  -3   1   8   18.07    2.89
  -3   1   8   17.46    2.91
  -3   1   8   20.78    3.15
   3  -1  -8   17.33    2.15
   3  -1  -8   20.39    2.39
   3  -1  -7   -0.10    0.80
   3  -1  -7    0.66    0.91
  -3   1   7   -0.37    1.18
   3  -1  -7   -0.58    1.15
  -3   1   7    1.67    1.32
   3  -1  -7    0.95    0.74
   3  -1  -7    0.39    0.46
  -3   1   7    0.43    1.15
  -3   1   7   -1.68    1.53
  -3   1   7    0.57    1.22
  -3   1   7   -0.51    1.32
  -3   1   6  192.49    7.59
   3  -1  -6  209.18    7.63
   3  -1  -6  212.55    8.10
   3  -1  -6  200.29    5.45
  -3   1   6  205.45    7.92
   3  -1  -6  219.56    7.48
   3  -1  -6  214.06    7.90
   3  -1  -6  203.25    8.14
   3  -1  -6  211.92    5.30
   3  -1  -6  207.48    8.16
  -3   1   6  194.78    8.01
   3  -1  -6  198.81    8.30
  -3   1   6  198.60    8.28
   3  -1  -6  213.78    7.43
  -3   1   6  214.36    8.42
   3  -1  -6  213.34    8.46
  -3   1   6  216.83    8.42
   3  -1  -6  199.50    7.85
   3  -1  -6  203.14    7.59
   3  -1  -6  193.82    5.70
   3  -1  -6  215.93    6.39
  -3   1   5   50.48    3.68
  -3   1   5   54.09    3.91
   3  -1  -5   45.85    3.47
  -3   1   5   50.26    3.79
   3  -1  -5   50.08    2.84
   3  -1  -5   48.36    3.53
   3  -1  -5   45.66    3.73
   3  -1  -5   49.18    2.67
   3  -1  -5   52.15    4.05
  -3   1   5   49.84    4.00
   3  -1  -5   44.73    3.22
  -3   1   5   48.67    3.83
  -3   1   5   42.59    3.33
   3  -1  -5   46.25    3.64
  -3   1   5   50.90    3.98
   3  -1  -5   47.03    3.62
   3  -1  -5   48.26    3.52
   3  -1  -5   47.51    2.62
   3  -1  -5   47.83    2.73
  -3   1   4  633.84   11.80
   3  -1  -4  671.43   12.65
  -3   1   4  629.53   12.35
   3  -1  -4  647.18   12.70
   3  -1  -4  657.35    9.96
  -3   1   4  628.00   12.21
   3  -1  -4  691.43   13.33
  -3   1   4  660.78   12.99
  -3   1   4  645.42   11.75
   3  -1  -4  655.97   12.64
   3  -1  -4  646.83   12.43
   3  -1  -4  627.23   11.59
   3  -1  -4  658.03    9.28
   3  -1  -3  463.20   10.52
  -3   1   3  439.28    9.52
   3  -1  -3  431.17    4.92
   3  -1  -3  448.58    9.35
  -3   1   3  439.85    9.51
   3  -1  -3  431.90    5.02
   3  -1  -3  415.58    5.31
   3  -1  -3  456.97    8.82
   3  -1  -3  422.63    4.87
  -3   1   3  424.96    5.23
   3  -1  -3  439.82    8.39
   3  -1  -3  429.72    5.00
  -3   1   3  421.93    9.62
  -3   1   3  437.60    9.21
  -3   1   3  438.68    5.13
  -3   1   3  451.18    9.40
   3  -1  -3  433.93    9.39
   3  -1  -3  442.47    9.67
  -3   1   3  447.70    7.16
   3  -1  -3  436.05    7.19
   3  -1  -2  369.51    7.61
   3  -1  -2  389.65    8.70
  -3   1   2  380.52    8.29
   3  -1  -2  368.66    5.97
   3  -1  -2  380.97    6.04
  -3   1   2  380.58    8.33
   3  -1  -2  380.41    8.19
   3  -1  -2  375.37    5.88
  -3   1   2  370.37    6.08
   3  -1  -2  397.08    8.29
   3  -1  -2  400.56    7.64
   3  -1  -2  380.45    8.15
   3  -1  -2  371.89    5.61
   3  -1  -2  384.40    8.27
  -3   1   2  375.08    8.29
  -3   1   2  377.35    5.76
  -3   1   2  381.67    7.73
   3  -1  -2  385.57    7.88
   3  -1  -2  374.52    8.42
  -3   1   2  398.06    7.02
   3  -1  -2  372.14    6.65
   3  -1  -1  100.92    3.60
   3  -1  -1  103.91    3.83
   3  -1  -1  108.01    4.33
  -3   1   1  109.29    4.11
   3  -1  -1   99.70    3.95
  -3   1   1  106.39    4.15
   3  -1  -1  112.66    3.83
   3  -1  -1  106.89    3.93
   3  -1  -1  108.98    3.79
   3  -1  -1  107.19    3.69
  -3   1   1  101.78    3.74
   3  -1  -1  102.42    4.38
   3  -1  -1  105.04    3.65
   3  -1  -1  106.85    3.39
   3  -1  -1  106.35    3.91
  -3   1   1  103.73    4.32
  -3   1   1  103.76    3.46
  -3   1   1  101.38    3.45
   3  -1  -1  103.69    3.56
  -3   1   1  106.87    3.80
   3  -1   0  205.66    5.52
   3  -1   0  227.27    6.13
   3  -1   0  222.48    5.75
  -3   1   0  218.09    5.32
   3  -1   0  217.52    5.60
  -3   1   0  205.71    5.51
   3  -1   0  213.38    4.83
   3  -1   0  222.43    5.91
  -3   1   0  210.72    5.96
   3  -1   0  218.78    6.37
   3  -1   0  211.98    5.34
   3  -1   0  209.34    4.71
  -3   1   0  217.21    6.36
  -3   1   0  207.64    5.34
   3  -1   0  205.97    5.96
  -3   1   0  227.33    5.89
  -3   1  -1   25.60    1.75
   3  -1   1   28.01    2.52
  -3   1  -1   24.33    1.99
   3  -1   1   26.02    2.40
  -3   1  -1   23.88    2.27
   3  -1   1   24.51    2.35
   3  -1   1   24.75    1.27
  -3   1  -1   23.20    2.29
   3  -1   1   25.71    2.07
  -3   1  -1   23.70    2.10
   3  -1   1   26.13    1.39
   3  -1   1   26.41    2.31
  -3   1  -1   27.32    2.26
  -3   1  -2   82.18    2.69
   3  -1   2   78.23    4.41
  -3   1  -2   78.84    3.37
   3  -1   2   83.27    4.37
  -3   1  -2   79.36    4.39
   3  -1   2   72.94    3.98
  -3   1  -2   77.39    3.88
   3  -1   2   79.68    4.22
   3  -1   3   11.95    1.86
  -3   1  -3   11.53    0.99
  -3   1  -3   10.61    1.72
  -3   1  -3    9.60    1.61
  -3   1  -3    8.38    1.69
  -3   1  -3   10.45    1.81
   3  -1   3   10.65    1.71
  -3   1  -3   17.45    2.27
   3  -1   4   12.23    2.03
  -3   1  -4   10.12    0.90
   3  -1   4    9.53    1.64
  -3   1  -4   10.06    1.84
   3  -1   4   11.64    2.15
   3  -1   4   11.52    2.13
  -3   1  -4   11.02    1.79
  -3   1  -4   12.76    2.09
  -3   1  -4    9.80    1.70
   3  -1   4    9.09    1.65
   3  -1   4   11.33    0.91
  -3   1  -4   13.15    2.22
   3  -1   5   36.58    1.65
   3  -1   5   35.87    3.75
   3  -1   5   32.34    3.44
  -3   1  -5   30.53    3.19
   3  -1   5   34.71    3.17
  -3   1  -5   37.21    1.54
   3  -1   5   30.11    2.54
  -3   1  -5   32.57    3.12
  -3   1  -5   38.95    3.73
   3  -1   6  443.28   13.32
   3  -1   6  447.43   10.70
   3  -1   6  408.02    5.87
  -3   1  -6  419.80    5.48
   3  -1   6  437.41   12.73
   3  -1   6  425.44   11.14
   3  -1   6  435.23   10.18
  -3   1  -6  393.52   11.12
  -3   1  -6  447.65   13.00
  -3   1  -7  121.15    3.21
   3  -1   7  125.97    7.55
   3  -1   7  120.37    5.71
   3  -1   7  119.35    3.45
   3  -1   7  128.81    7.43
   3  -1   7  114.62    6.12
   3  -1   7  122.68    5.92
  -3   1  -7  114.51    6.34
  -3   1  -7  123.94    7.38
   3  -1   8   99.26    7.12
   3  -1   8   93.57    6.70
   3  -1   8   92.53    3.29
   3  -1   8   88.85    5.56
  -3   1  -8   78.33    5.53
   3  -1   8   92.80    5.48
  -3   1  -8   95.48    6.93
  -3   1  -9    6.63    2.08
  -3   1  -9    9.45    2.23
   3  -1   9   10.87    2.96
   3  -1   9    8.95    2.01
   3  -1   9   11.81    2.89
   3  -1   9   11.50    3.07
   3  -1   9   13.45    2.36
   3  -1   9   14.07    3.10
  -3   1 -10   24.72    4.17
   3  -1  10   27.44    4.27
   3  -1  10   27.37    4.29
   3  -1  10   26.65    3.37
   3  -1  10   27.31    4.22
   3  -1  10   28.87    4.51
  -3   1 -10   25.40    3.66
   3  -1  10   31.20    5.01
   3  -1  10   26.00    3.51
  -3   1 -11    4.96    1.76
   3  -1  11    5.65    2.47
   3  -1  11    9.76    2.81
   3  -1  11    5.47    2.49
   3  -1  11    5.47    2.41
   3  -1  11    5.26    2.53
   3  -1  11    9.54    3.14
  -3   1 -11    5.93    2.40
  -3   1 -12    0.55    1.33
   3   0 -13   12.19    2.68
   3   0 -13    8.70    2.53
   3   0 -13    9.38    2.82
  -3   0  13    9.15    2.86
  -3   0  13   12.58    3.26
  -3   0  13    7.39    3.13
   3   0 -12    2.78    1.50
   3   0 -12    2.20    1.20
   3   0 -12    7.73    2.56
  -3   0  12    4.53    2.32
  -3   0  12    3.46    1.69
  -3   0  12    4.01    2.06
  -3   0  12    1.84    2.12
   3   0 -11   46.98    5.19
  -3   0  11   54.26    5.69
  -3   0  11   53.56    5.96
  -3   0  11   60.78    6.16
   3   0 -11   57.04    4.77
   3   0 -11   57.17    4.87
  -3   0  11   55.79    5.48
   3   0 -10    6.38    1.78
   3   0 -10    9.76    1.95
  -3   0  10    7.76    0.96
  -3   0  10    7.60    0.89
   3   0 -10    8.43    2.21
  -3   0  10    7.44    0.89
  -3   0  10    8.73    2.29
   3   0 -10    8.14    1.05
  -3   0  10    8.22    0.69
  -3   0  10    4.61    1.87
  -3   0  10    7.48    2.42
  -3   0  10    9.96    2.63
  -3   0  10   11.52    2.83
   3   0  -9   15.96    2.41
  -3   0   9   13.64    1.12
  -3   0   9   16.79    2.84
   3   0  -9   13.84    0.95
  -3   0   9   13.52    1.08
  -3   0   9   14.35    1.12
  -3   0   9   14.90    1.12
   3   0  -9   13.78    2.76
  -3   0   9   13.73    1.09
  -3   0   9   11.96    2.52
   3   0  -9   15.92    1.67
  -3   0   9   14.57    0.85
  -3   0   9   13.72    2.54
  -3   0   9   14.05    0.85
  -3   0   9   14.31    1.08
  -3   0   9   13.97    2.89
  -3   0   9   12.98    2.68
  -3   0   9   18.76    3.24
   3   0  -9   17.71    2.52
   3   0  -8   -0.80    1.00
  -3   0   8    0.01    0.15
   3   0  -8    2.09    1.07
  -3   0   8    0.25    0.20
  -3   0   8   -0.02    1.23
  -3   0   8    0.52    0.29
   3   0  -8    0.30    0.50
   3   0  -8   -0.84    1.44
  -3   0   8   -0.10    0.20
  -3   0   8   -0.32    1.12
  -3   0   8   -0.23    0.25
  -3   0   8    0.42    1.19
  -3   0   8   -1.57    1.50
  -3   0   8   -0.11    1.66
  -3   0   8    0.38    1.17
  -3   0   8    0.02    0.22
   3   0  -7    0.19    0.89
   3   0  -7    1.69    1.03
  -3   0   7    0.05    0.14
   3   0  -7    1.47    1.24
  -3   0   7   -0.32    1.07
  -3   0   7    0.29    1.36
  -3   0   7    0.00    0.15
  -3   0   7    0.19    0.19
  -3   0   7    0.03    0.18
   3   0  -7    0.59    0.50
  -3   0   7    0.18    0.18
   3   0  -7   -1.31    1.49
  -3   0   7    0.28    1.21
  -3   0   7    0.02    0.17
  -3   0   7    0.05    0.18
  -3   0   7    1.76    1.41
  -3   0   7   -0.26    1.17
  -3   0   7    0.50    1.40
   3   0  -7    0.49    0.79
   3   0  -6   44.36    3.45
   3   0  -6   42.34    3.52
   3   0  -6   51.69    4.03
  -3   0   6   42.21    3.74
   3   0  -6   47.04    2.46
  -3   0   6   37.67    1.23
   3   0  -6   42.44    3.26
   3   0  -6   42.48    3.71
  -3   0   6   41.01    1.31
  -3   0   6   41.43    1.35
   3   0  -6   44.83    3.67
  -3   0   6   39.58    1.32
  -3   0   6   46.49    3.99
  -3   0   6   41.03    1.28
   3   0  -6   43.27    3.87
  -3   0   6   42.96    3.86
   3   0  -6   43.93    3.31
  -3   0   6   47.39    4.08
   3   0  -6   46.20    3.95
  -3   0   6   44.85    1.40
   3   0  -6   42.45    3.42
  -3   0   6   44.14    3.74
   3   0  -6   42.60    3.46
   3   0  -6   41.95    2.91
   3   0  -6   46.34    3.20
  -3   0   6   43.03    3.54
  -3   0   5  165.59    6.28
  -3   0   5  196.04    6.90
   3   0  -5  199.51    7.00
   3   0  -5  159.36    2.92
  -3   0   5  186.55    7.13
  -3   0   5  163.89    2.78
   3   0  -5  189.49    6.82
  -3   0   5  170.79    2.81
   3   0  -5  181.47    7.12
  -3   0   5  165.86    2.82
   3   0  -5  195.12    7.30
  -3   0   5  171.33    2.89
   3   0  -5  183.78    7.37
  -3   0   5  177.76    7.25
   3   0  -5  177.21    6.14
  -3   0   5  177.79    7.14
  -3   0   5  177.51    6.37
   3   0  -5  173.77    7.06
   3   0  -5  183.80    6.54
   3   0  -5  181.68    6.55
  -3   0   5  178.99    3.16
   3   0  -5  163.51    5.37
   3   0  -5  187.81    5.89
  -3   0   4   81.82    4.09
  -3   0   4  102.42    4.82
   3   0  -4  102.66    5.00
  -3   0   4   88.74    4.69
   3   0  -4   90.02    2.41
  -3   0   4   85.48    2.40
   3   0  -4   84.95    4.31
   3   0  -4   89.97    2.46
  -3   0   4   86.42    2.32
   3   0  -4   88.15    2.42
  -3   0   4   84.41    2.34
  -3   0   4   82.84    4.60
   3   0  -4   85.85    4.09
  -3   0   4   87.78    4.25
   3   0  -4   88.13    4.62
  -3   0   4   94.98    4.60
   3   0  -4   88.50    4.30
  -3   0   4   91.46    3.71
   3   0  -4   90.76    3.82
  -3   0   4   94.56    2.61
   3   0  -3    0.75    0.43
  -3   0   3    1.00    0.65
   3   0  -3    1.55    0.88
  -3   0   3    1.00    0.96
  -3   0   3    1.12    0.50
  -3   0   3    1.35    1.08
   3   0  -3    0.37    0.56
  -3   0   3    1.03    0.49
   3   0  -3    1.16    0.80
   3   0  -3    1.43    0.63
   3   0  -3    1.33    0.82
   3   0  -3    0.79    0.56
  -3   0   3    1.08    0.45
  -3   0   3    1.16    0.93
   3   0  -3   -0.08    0.85
  -3   0   3    0.63    1.01
  -3   0   3    0.23    1.00
   3   0  -3    0.64    0.89
   3   0  -3    0.51    0.88
  -3   0   3    0.05    0.83
   3   0  -3    0.96    0.75
  -3   0   2    0.74    0.66
   3   0  -2    0.68    0.50
   3   0  -2    0.18    0.79
  -3   0   2    0.56    0.57
  -3   0   2   -0.05    0.96
   3   0  -2    0.78    0.68
  -3   0   2    0.36    0.51
  -3   0   2    0.80    0.81
   3   0  -2   -0.14    0.64
   3   0  -2    0.38    0.57
   3   0  -2    0.72    0.89
   3   0  -2    0.84    0.78
   3   0  -2    1.13    0.67
  -3   0   2    0.47    0.54
   3   0  -2    0.18    0.80
   3   0  -2    0.56    0.63
   3   0  -2    0.47    0.78
  -3   0   2    1.03    0.92
   3   0  -2    1.64    0.84
  -3   0   2   -0.02    0.74
  -3   0   2    0.72    1.04
   3   0  -2    1.90    0.79
   3   0  -1  144.96    4.60
   3   0  -1  147.77    5.30
  -3   0   1  147.44    5.01
  -3   0   1  133.30    4.52
   3   0  -1  139.80    4.24
  -3   0   1  142.79    4.37
   3   0  -1  147.16    4.60
   3   0  -1  141.24    4.39
   3   0  -1  147.11    4.52
  -3   0   1  135.93    4.43
   3   0  -1  138.43    5.15
   3   0  -1  138.81    4.05
   3   0  -1  143.67    4.44
  -3   0   1  139.31    4.31
  -3   0   1  137.28    4.05
  -3   0   1  135.81    4.80
  -3   0   1  143.70    4.16
  -3   0   1  146.95    4.89
   3   0  -1  137.16    4.56
   3   0  -1  136.84    3.85
   3   0   0  132.12    4.66
   3   0   0  134.09    3.47
  -3   0   0  141.48    4.70
   3   0   0  139.41    4.98
  -3   0   0  136.10    4.97
   3   0   0  134.08    3.85
  -3   0   0  137.94    3.96
   3   0   0  142.30    4.97
   3   0   0  145.31    4.92
  -3   0   0  136.41    4.88
   3   0   0  138.57    5.33
   3   0   0  133.35    3.64
   3   0   0  137.37    4.43
   3   0   0  143.39    3.85
  -3   0   0  139.75    3.59
  -3   0   0  133.39    4.83
  -3   0   0  132.04    4.35
  -3   0   0  133.87    3.38
   3   0   0  129.39    5.02
  -3   0   0  133.81    4.81
   3   0   1  295.28    7.36
  -3   0  -1  283.91    7.85
   3   0   1  309.55    7.89
  -3   0  -1  306.38    6.49
   3   0   1  309.79    8.04
  -3   0  -1  289.88    5.51
   3   0   1  300.86    7.73
  -3   0  -1  295.49    7.74
   3   0   1  297.27    7.04
   3   0   1  301.85    7.89
  -3   0  -1  280.93    6.80
  -3   0  -1  280.74    3.78
   3   0   1  305.74    8.01
  -3   0  -2   84.10    4.25
  -3   0  -2  100.53    3.62
  -3   0  -2   91.06    4.78
  -3   0  -2   90.62    3.08
  -3   0  -2   91.08    4.67
   3   0   2   90.19    4.43
  -3   0  -2   85.54    4.11
   3   0   2   88.34    4.61
  -3   0  -3  176.21    6.94
   3   0   3  176.23    6.32
  -3   0  -3  181.21    6.30
  -3   0  -3  164.98    2.86
  -3   0  -3  176.29    7.02
   3   0   3  171.42    6.80
   3   0   4    0.58    0.71
   3   0   4    0.54    0.67
  -3   0  -4    1.04    1.00
   3   0   4    2.40    1.06
   3   0   4    1.41    1.29
  -3   0  -4    0.88    0.86
   3   0   4    2.43    1.38
  -3   0  -4    2.28    1.19
   3   0   4    1.38    1.17
   3   0   4    2.38    1.03
  -3   0  -4    0.39    0.75
   3   0   4    1.60    1.10
   3   0   4    0.99    0.56
  -3   0  -4    1.21    0.43
  -3   0  -4    0.29    1.01
   3   0   5   90.75    5.72
   3   0   5   98.68    5.88
   3   0   5   92.02    4.82
   3   0   5   91.37    5.59
   3   0   5   81.63    4.68
  -3   0  -5   88.79    4.96
  -3   0  -5   89.42    3.28
   3   0   5   87.76    3.96
  -3   0  -5   87.36    5.60
   3   0   5   86.89    3.36
   3   0   6   88.63    3.53
   3   0   6   94.63    6.16
   3   0   6   90.62    4.94
   3   0   6   96.12    6.13
   3   0   6   95.56    5.97
   3   0   6   89.50    5.08
  -3   0  -6   88.59    5.28
  -3   0  -6   90.55    3.76
   3   0   6   90.39    4.42
  -3   0  -6   94.78    6.15
   3   0   7    3.76    0.97
  -3   0  -7    4.52    1.02
   3   0   7    4.59    2.09
   3   0   7    3.32    1.11
  -3   0  -7    3.51    1.47
   3   0   7    5.52    2.15
   3   0   7    4.69    1.88
   3   0   7    4.23    1.39
  -3   0  -7    1.32    0.55
  -3   0  -7    2.57    1.52
   3   0   8   86.23    6.70
   3   0   8   84.75    3.87
   3   0   8   86.89    6.62
   3   0   8   91.55    6.66
   3   0   8   89.21    5.45
  -3   0  -8   86.41    5.76
   3   0   8   91.05    6.74
   3   0   8   87.16    5.06
  -3   0  -8   83.91    6.51
   3   0   9   26.02    4.11
   3   0   9   23.26    2.18
   3   0   9   23.08    2.90
   3   0   9   27.59    4.02
   3   0   9   23.75    4.16
  -3   0  -9   24.18    3.32
   3   0   9   28.40    4.17
   3   0   9   31.32    4.40
   3   0   9   21.53    2.82
  -3   0  -9   27.27    4.12
   3   0  10    5.81    2.36
  -3   0 -10    8.45    2.12
   3   0  10    8.32    1.99
   3   0  10    5.50    2.17
   3   0  10    5.80    2.07
   3   0  10    9.70    2.01
   3   0  10    7.44    2.63
   3   0  10    9.12    2.87
  -3   0 -10    9.39    2.84
  -3   0 -11   18.98    3.31
   3   0  11   19.38    3.85
   3   0  11   31.44    5.26
   3   0  11   24.30    4.12
   3   0  11   26.03    4.71
   3   0  11   19.38    3.89
   3   0  11   25.89    3.48
  -3   0 -11   23.46    4.25
   3   1 -14    6.93    2.48
   3   1 -14    8.51    2.59
   3   1 -13    3.01    1.71
   3   1 -13    7.33    2.28
   3   1 -13    8.43    2.78
  -3  -1  13    5.92    2.42
  -3  -1  13    7.97    2.39
  -3  -1  13    5.00    2.50
  -3  -1  13    6.51    2.83
   3   1 -12   24.86    3.68
   3   1 -12   29.15    4.43
  -3  -1  12   25.93    4.00
  -3  -1  12   25.31    4.00
  -3  -1  12   20.98    3.88
  -3  -1  12   34.36    4.99
  -3  -1  12   26.40    4.42
   3   1 -12   27.27    3.74
  -3  -1  11   46.60    4.87
   3   1 -11   54.37    5.54
  -3  -1  11   54.86    5.49
  -3  -1  11   57.10    5.99
  -3  -1  11   57.30    5.97
  -3  -1  11   50.28    5.49
   3   1 -11   53.74    4.80
   3   1 -11   50.10    4.79
  -3  -1  11   47.25    5.02
  -3  -1  10   74.04    5.85
   3   1 -10   75.29    6.26
  -3  -1  10   85.32    3.78
  -3  -1  10   81.82    3.79
  -3  -1  10   73.75    6.03
  -3  -1  10   81.70    6.75
  -3  -1  10   81.82    6.79
  -3  -1  10   79.97    6.51
   3   1 -10   82.38    5.51
   3   1 -10   85.57    5.88
  -3  -1  10   72.00    5.81
   3   1  -9   12.54    2.28
   3   1  -9   13.37    2.25
  -3  -1   9   10.06    1.38
  -3  -1   9   10.23    2.20
  -3  -1   9    8.85    1.17
  -3  -1   9   10.61    1.40
   3   1  -9    5.70    2.09
  -3  -1   9   10.42    1.33
  -3  -1   9    7.91    1.91
  -3  -1   9    9.10    1.19
  -3  -1   9    7.66    2.03
   3   1  -9    6.08    1.49
  -3  -1   9   10.85    1.18
  -3  -1   9   10.44    2.47
  -3  -1   9    7.21    2.19
  -3  -1   9    9.58    2.32
   3   1  -8   10.84    1.93
   3   1  -8   10.83    2.22
   3   1  -8   13.23    2.08
  -3  -1   8   10.82    1.20
  -3  -1   8   10.35    2.18
  -3  -1   8   10.73    1.23
   3   1  -8    9.31    0.72
  -3  -1   8   10.78    1.20
   3   1  -8   10.72    2.30
  -3  -1   8   11.07    2.18
  -3  -1   8   11.52    1.37
  -3  -1   8   11.07    1.11
  -3  -1   8    8.73    2.07
  -3  -1   8    9.06    2.29
  -3  -1   8   11.14    1.15
  -3  -1   8   12.04    2.64
   3   1  -8    8.96    0.73
  -3  -1   8   11.02    2.35
   3   1  -7   52.19    3.75
   3   1  -7   50.05    2.64
  -3  -1   7   51.92    4.31
  -3  -1   7   49.94    2.36
   3   1  -7   48.82    4.25
  -3  -1   7   51.22    2.38
  -3  -1   7   50.83    2.67
  -3  -1   7   48.29    2.12
   3   1  -7   47.43    3.93
  -3  -1   7   42.05    3.88
  -3  -1   7   48.72    2.35
  -3  -1   7   49.73    4.49
   3   1  -7   50.92    3.68
  -3  -1   7   46.43    4.36
   3   1  -7   49.21    2.11
  -3  -1   7   50.51    2.34
  -3  -1   7   49.33    4.09
   3   1  -7   50.26    3.54
  -3  -1   7   44.94    3.84
   3   1  -7   47.80    3.66
  -3  -1   6    0.82    0.52
   3   1  -6    0.02    0.97
   3   1  -6   -0.23    0.95
  -3  -1   6   -0.16    1.06
   3   1  -6   -0.01    0.83
   3   1  -6    0.58    0.99
   3   1  -6    0.88    0.86
   3   1  -6    0.34    0.61
  -3  -1   6    0.02    1.16
  -3  -1   6    0.24    0.39
   3   1  -6    0.24    0.89
  -3  -1   6    0.14    0.38
   3   1  -6    0.06    0.85
  -3  -1   6   -0.02    1.12
  -3  -1   6    0.30    0.40
  -3  -1   6    1.70    1.40
  -3  -1   6   -0.12    0.36
   3   1  -6    1.78    1.48
   3   1  -6    0.87    0.98
  -3  -1   6   -0.15    1.20
  -3  -1   6   -1.85    1.63
   3   1  -6    0.94    0.80
   3   1  -6    1.37    1.09
   3   1  -6    0.88    0.90
  -3  -1   6    0.39    1.09
   3   1  -6   -0.76    0.92
  -3  -1   5   58.96    3.72
   3   1  -5   56.42    3.78
  -3  -1   5   50.99    3.86
   3   1  -5   51.90    2.46
  -3  -1   5   51.02    2.36
   3   1  -5   51.54    2.46
  -3  -1   5   48.64    2.33
   3   1  -5   52.99    3.60
   3   1  -5   50.42    3.84
   3   1  -5   52.33    2.63
  -3  -1   5   57.06    4.05
  -3  -1   5   49.45    2.28
  -3  -1   5   52.51    2.20
   3   1  -5   54.38    3.83
   3   1  -5   53.55    4.00
  -3  -1   5   52.21    3.97
   3   1  -5   56.96    3.39
  -3  -1   5   51.31    3.38
  -3  -1   5   53.19    4.08
   3   1  -5   52.44    3.46
   3   1  -5   52.28    3.34
  -3  -1   5   53.97    2.35
   3   1  -5   47.46    3.15
  -3  -1   5   47.35    3.35
   3   1  -4    7.82    1.47
  -3  -1   4   10.60    1.75
   3   1  -4   10.43    1.23
  -3  -1   4   11.78    1.94
  -3  -1   4    8.49    1.05
  -3  -1   4    9.35    1.11
   3   1  -4    9.57    1.19
   3   1  -4   11.27    1.59
   3   1  -4   10.37    1.25
  -3  -1   4    9.92    1.12
  -3  -1   4    9.26    1.63
  -3  -1   4    9.76    1.56
  -3  -1   4   10.30    1.09
  -3  -1   4   10.37    1.87
   3   1  -4    9.29    1.41
  -3  -1   4   10.58    1.64
  -3  -1   4   10.43    1.53
   3   1  -4    9.85    1.41
  -3  -1   4   10.62    1.11
  -3  -1   3   70.90    3.34
  -3  -1   3   77.33    4.02
  -3  -1   3   76.85    4.06
  -3  -1   3   76.37    4.28
  -3  -1   3   68.70    2.98
   3   1  -3   71.40    3.53
   3   1  -3   74.77    3.05
  -3  -1   3   71.39    3.04
   3   1  -3   73.08    2.99
  -3  -1   3   72.00    3.03
   3   1  -3   72.30    2.78
  -3  -1   3   68.87    2.72
   3   1  -3   77.19    4.17
  -3  -1   3   68.88    3.94
   3   1  -3   72.35    3.42
  -3  -1   3   68.40    3.44
  -3  -1   3   76.24    4.07
   3   1  -3   72.30    3.00
   3   1  -3   69.31    3.27
   3   1  -3   72.94    3.17
  -3  -1   3   75.06    3.64
   3   1  -3   70.81    3.62
  -3  -1   2  190.15    4.74
  -3  -1   2  196.07    6.49
   3   1  -2  188.50    5.06
   3   1  -2  194.08    5.26
  -3  -1   2  186.38    5.23
   3   1  -2  191.48    5.79
  -3  -1   2  192.24    5.75
   3   1  -2  196.23    5.18
  -3  -1   2  174.91    5.01
   3   1  -2  192.66    4.76
  -3  -1   2  180.33    4.68
   3   1  -2  196.42    5.95
  -3  -1   2  174.99    5.67
   3   1  -2  200.90    5.48
  -3  -1   2  188.33    5.38
   3   1  -2  195.22    5.29
  -3  -1   2  191.00    5.80
  -3  -1   2  183.24    5.22
   3   1  -2  183.14    4.46
   3   1  -2  178.96    4.53
  -3  -1   2  194.90    5.93
   3   1  -2  177.45    5.54
  -3  -1   1  144.96    5.38
   3   1  -1  138.95    4.85
   3   1  -1  140.03    3.82
   3   1  -1  141.53    4.85
  -3  -1   1  136.09    4.78
  -3  -1   1  137.61    4.40
   3   1  -1  141.61    4.75
  -3  -1   1  135.14    4.73
   3   1  -1  135.84    4.32
  -3  -1   1  124.24    4.11
  -3  -1   1  142.47    4.56
  -3  -1   1  138.30    4.66
  -3  -1   1  139.54    4.50
  -3  -1   1  136.47    4.80
   3   1  -1  135.71    3.32
  -3  -1   1  144.95    5.19
   3   1  -1  135.04    4.86
   3   1   0  107.56    4.52
   3   1   0  125.60    4.98
  -3  -1   0  121.40    4.77
   3   1   0  123.03    4.87
  -3  -1   0  115.11    4.79
   3   1   0  117.69    3.08
  -3  -1   0  115.51    3.11
  -3  -1   0  117.69    3.56
   3   1   0  119.08    4.74
  -3  -1   0  112.14    4.62
   3   1   0  108.20    4.96
   3   1   0  120.70    4.29
  -3  -1   0  122.08    3.64
  -3  -1   0  111.69    4.14
  -3  -1   0  122.33    4.45
   3   1   0  110.05    2.39
   3   1   1  136.11    5.27
   3   1   1  121.82    2.13
  -3  -1  -1  136.49    5.62
  -3  -1  -1  133.46    2.90
  -3  -1  -1  138.53    3.15
  -3  -1  -1  130.96    5.34
   3   1   1  132.90    5.53
  -3  -1  -1  143.72    3.27
  -3  -1  -1  133.77    4.82
   3   1   1  135.39    5.66
  -3  -1  -2  116.27    5.52
  -3  -1  -2  111.28    2.55
  -3  -1  -2  113.20    5.28
   3   1   2  100.95    5.04
  -3  -1  -2  109.07    2.25
  -3  -1  -2  108.74    4.61
   3   1   2  110.41    2.29
  -3  -1  -2  102.47    1.96
   3   1   2  111.01    5.32
   3   1   3    1.43    0.89
  -3  -1  -3    0.61    0.83
   3   1   3    1.10    0.38
  -3  -1  -3    0.16    0.54
   3   1   3    0.12    0.76
  -3  -1  -3    1.38    0.46
  -3  -1  -3    1.99    0.98
   3   1   3    0.71    0.95
  -3  -1  -4   54.08    3.95
   3   1   4   51.71    4.26
  -3  -1  -4   52.50    4.17
   3   1   4   57.22    3.79
   3   1   4   51.61    4.17
   3   1   4   55.94    4.29
  -3  -1  -4   52.66    4.09
   3   1   4   51.63    3.59
   3   1   4   54.39    3.72
  -3  -1  -4   45.39    1.36
  -3  -1  -4   47.62    3.51
  -3  -1  -4   48.17    2.52
   3   1   4   52.21    2.86
   3   1   4   54.09    2.48
   3   1   4   52.20    4.08
   3   1   5  134.49    7.02
   3   1   5  142.15    7.28
   3   1   5  136.31    6.88
   3   1   5  125.87    5.72
   3   1   5  136.18    5.97
  -3  -1  -5  132.79    2.95
  -3  -1  -5  124.05    5.94
  -3  -1  -5  129.71    4.55
   3   1   5  122.66    4.30
   3   1   5  131.01    4.75
   3   1   6  102.18    4.45
  -3  -1  -6  111.16    3.25
   3   1   6  100.83    6.45
   3   1   6  102.53    6.42
   3   1   6  105.94    6.49
   3   1   6  101.82    5.24
  -3  -1  -6  102.88    5.67
  -3  -1  -6   99.80    4.42
   3   1   6  104.92    6.14
   3   1   6   97.77    4.27
  -3  -1  -6  105.00    6.46
   3   1   7   42.46    3.04
   3   1   7   46.74    4.76
   3   1   7   41.93    4.38
   3   1   7   39.13    3.47
   3   1   7   41.02    4.40
  -3  -1  -7   41.03    2.28
  -3  -1  -7   45.11    4.04
  -3  -1  -7   41.25    3.13
   3   1   7   52.86    4.69
   3   1   7   40.90    3.08
  -3  -1  -7   43.19    4.52
   3   1   8   21.52    2.30
   3   1   8   18.87    3.47
   3   1   8   19.92    2.57
   3   1   8   21.49    3.33
   3   1   8   22.15    3.57
   3   1   8   26.40    4.07
  -3  -1  -8   22.40    3.08
   3   1   8   26.27    3.64
   3   1   8   23.01    2.56
  -3  -1  -8   23.97    3.69
   3   1   9    7.27    2.66
   3   1   9    2.84    0.98
  -3  -1  -9    2.46    1.27
   3   1   9    3.41    2.06
   3   1   9    6.55    1.61
   3   1   9    4.59    2.21
   3   1   9    2.73    2.08
   3   1   9    2.51    1.25
   3   1   9    3.46    1.88
  -3  -1  -9    3.29    2.00
   3   1  10   -1.83    2.13
  -3  -1 -10    2.31    1.71
   3   1  10    0.37    1.66
   3   1  10    4.44    1.47
   3   1  10    1.70    1.85
   3   1  10    0.10    1.64
   3   1  10    3.03    1.84
  -3  -1 -10    2.22    1.82
   3   1  11   10.23    2.88
  -3  -1 -11    2.78    1.37
   3   1  11    2.84    2.12
   3   1  11    4.64    2.22
   3   1  11    4.21    2.00
   3   1  11    4.60    2.34
  -3  -1 -11    6.32    2.64
   3   2 -14    2.21    1.83
   3   2 -14    3.13    1.98
  -3  -2  14    1.38    1.62
   3   2 -13   11.67    3.05
   3   2 -13   10.76    2.73
  -3  -2  13   13.56    3.51
  -3  -2  13   12.24    3.09
  -3  -2  13    9.00    2.92
  -3  -2  13   13.16    3.44
  -3  -2  13   16.33    3.98
   3   2 -12   43.04    5.21
  -3  -2  12   44.90    5.07
  -3  -2  12   39.55    4.79
  -3  -2  12   45.13    5.69
  -3  -2  12   41.43    5.58
  -3  -2  12   46.16    5.59
   3   2 -12   39.03    4.59
  -3  -2  12   45.17    5.18
   3   2 -12   45.88    5.01
   3   2 -11   16.94    3.01
   3   2 -11   18.27    3.11
  -3  -2  11   16.91    2.19
  -3  -2  11   22.44    3.46
   3   2 -11   17.74    3.44
  -3  -2  11   17.79    2.21
  -3  -2  11   15.42    3.11
  -3  -2  11   20.22    3.73
  -3  -2  11   22.64    4.06
  -3  -2  11   17.65    3.33
  -3  -2  11   18.54    3.36
  -3  -2  10   42.18    4.42
   3   2 -10   40.84    4.69
  -3  -2  10   46.44    4.68
  -3  -2  10   47.06    5.23
  -3  -2  10   46.31    5.26
  -3  -2  10   44.98    4.88
   3   2 -10   41.46    4.14
  -3  -2  10   46.22    4.68
   3   2 -10   47.81    4.65
   3   2  -9   34.38    3.26
  -3  -2   9   30.75    3.65
  -3  -2   9   31.31    2.52
  -3  -2   9   29.56    2.49
   3   2  -9   30.69    4.02
  -3  -2   9   30.91    2.46
   3   2  -9   24.22    2.51
  -3  -2   9   29.35    3.63
  -3  -2   9   26.39    3.84
  -3  -2   9   36.75    4.48
  -3  -2   9   30.90    2.29
  -3  -2   9   33.48    3.95
   3   2  -9   32.16    3.45
  -3  -2   9   29.54    3.61
   3   2  -9   33.79    3.94
   3   2  -8  127.41    6.07
  -3  -2   8  118.45    4.61
   3   2  -8  132.32    5.37
  -3  -2   8  115.26    6.65
  -3  -2   8  121.34    4.70
  -3  -2   8  116.41    4.52
  -3  -2   8  126.45    5.16
  -3  -2   8  118.02    4.15
   3   2  -8  125.18    7.10
  -3  -2   8  118.94    6.55
  -3  -2   8  120.90    7.35
  -3  -2   8  132.38    7.71
  -3  -2   8  126.77    4.53
  -3  -2   8  126.66    6.82
   3   2  -8  119.71    6.05
  -3  -2   8  115.17    6.34
   3   2  -8  127.02    6.63
  -3  -2   7   27.21    2.60
   3   2  -7   26.61    2.74
   3   2  -7   27.68    2.42
  -3  -2   7   24.21    3.00
  -3  -2   7   24.68    2.05
  -3  -2   7   25.96    2.13
   3   2  -7   23.68    3.13
  -3  -2   7   22.68    1.96
  -3  -2   7   24.42    1.84
   3   2  -7   25.10    1.35
   3   2  -7   21.00    2.56
  -3  -2   7   20.63    3.10
   3   2  -7   23.48    2.52
  -3  -2   7   30.98    3.72
  -3  -2   7   26.05    2.90
  -3  -2   7   24.54    1.97
   3   2  -7   21.00    2.53
  -3  -2   7   23.38    2.80
   3   2  -7   27.92    3.06
  -3  -2   6   52.71    3.54
   3   2  -6   58.54    4.45
  -3  -2   6   54.08    4.20
   3   2  -6   55.35    3.18
  -3  -2   6   50.49    2.84
   3   2  -6   51.56    3.79
   3   2  -6   51.67    2.25
  -3  -2   6   47.72    2.78
   3   2  -6   50.11    4.05
   3   2  -6   52.74    3.07
  -3  -2   6   53.57    4.28
  -3  -2   6   49.93    2.79
  -3  -2   6   49.06    2.53
   3   2  -6   47.48    3.61
   3   2  -6   55.78    3.85
   3   2  -6   49.09    4.12
  -3  -2   6   50.87    4.33
   3   2  -6   51.94    3.37
   3   2  -6   48.91    3.57
  -3  -2   6   51.58    4.38
  -3  -2   6   53.27    2.81
  -3  -2   6   49.76    3.69
   3   2  -6   50.80    3.57
   3   2  -6   53.07    3.82
  -3  -2   5   71.11    3.95
  -3  -2   5   68.22    4.54
   3   2  -5   70.44    3.46
  -3  -2   5   72.51    3.38
   3   2  -5   67.67    3.97
   3   2  -5   70.59    3.47
   3   2  -5   66.20    2.80
  -3  -2   5   69.25    3.32
   3   2  -5   63.34    4.27
  -3  -2   5   73.76    4.65
   3   2  -5   70.75    3.41
  -3  -2   5   68.51    3.27
  -3  -2   5   64.54    2.91
   3   2  -5   70.97    4.22
   3   2  -5   71.51    4.66
  -3  -2   5   62.99    4.44
   3   2  -5   70.54    3.57
   3   2  -5   70.05    3.89
  -3  -2   5   62.15    3.54
  -3  -2   5   66.63    4.72
  -3  -2   5   65.73    3.72
  -3  -2   5   66.01    3.86
  -3  -2   5   68.36    3.13
   3   2  -5   63.10    3.87
  -3  -2   4   49.84    3.28
  -3  -2   4   49.78    3.78
   3   2  -4   47.39    2.77
   3   2  -4   49.60    2.89
   3   2  -4   47.06    2.50
  -3  -2   4   46.49    2.78
   3   2  -4   40.47    3.23
  -3  -2   4   47.63    3.54
   3   2  -4   47.13    2.81
  -3  -2   4   43.48    2.62
  -3  -2   4   45.57    2.48
   3   2  -4   46.05    3.54
  -3  -2   4   49.52    3.70
   3   2  -4   47.54    3.11
   3   2  -4   49.53    2.84
   3   2  -4   45.33    2.96
  -3  -2   4   43.39    2.80
  -3  -2   4   45.80    2.77
  -3  -2   4   47.97    2.76
  -3  -2   4   36.37    2.79
  -3  -2   4   44.32    2.89
   3   2  -4   42.23    3.11
  -3  -2   4   49.46    2.72
  -3  -2   3  140.15    5.63
  -3  -2   3  127.70    4.71
  -3  -2   3  134.05    5.82
   3   2  -3  127.10    4.58
  -3  -2   3  124.27    4.65
   3   2  -3  128.41    4.56
   3   2  -3  128.66    4.35
   3   2  -3  126.75    4.49
  -3  -2   3  126.35    5.35
   3   2  -3  136.45    4.63
  -3  -2   3  125.10    4.55
  -3  -2   3  124.67    4.15
  -3  -2   3  121.03    5.40
   3   2  -3  126.11    4.27
  -3  -2   3  124.02    4.25
   3   2  -3  124.07    4.19
   3   2  -3  123.89    3.51
  -3  -2   3  118.52    4.12
   3   2  -3  122.59    5.01
  -3  -2   2  745.28   13.23
  -3  -2   2  694.46   11.39
   3   2  -2  722.05   11.26
   3   2  -2  712.66    9.39
   3   2  -2  735.42   11.27
   3   2  -2  748.00   10.83
  -3  -2   2  712.97   11.67
  -3  -2   2  693.93   11.67
   3   2  -2  719.81   10.88
  -3  -2   2  710.85   11.30
   3   2  -2  724.28   10.19
  -3  -2   2  658.81    9.91
   3   2  -2  713.15    9.70
  -3  -2   2  701.44    9.83
   3   2  -2  701.84    8.44
   3   2  -2  684.71    6.55
  -3  -2   2  690.04   11.24
   3   2  -2  672.26   11.42
  -3  -2   2  700.38    8.46
  -3  -2   1  385.94    4.93
  -3  -2   1  371.55    8.65
  -3  -2   1  368.01    9.06
   3   2  -1  368.91    8.58
   3   2  -1  374.46    5.83
   3   2  -1  378.83    8.58
   3   2  -1  393.15    8.24
  -3  -2   1  363.84    7.60
   3   2  -1  379.35    8.45
  -3  -2   1  368.35    8.48
   3   2  -1  376.94    7.65
  -3  -2   1  376.40    7.73
  -3  -2   1  370.42    7.84
  -3  -2   1  362.10    7.10
  -3  -2   1  371.55    8.68
   3   2  -1  347.77    3.89
   3   2  -1  338.31    8.16
   3   2   0  257.26    7.48
  -3  -2   0  246.12    7.51
   3   2   0  260.33    7.52
  -3  -2   0  248.90    7.48
   3   2   0  250.44    3.61
  -3  -2   0  244.26    5.72
   3   2   0  260.87    7.35
  -3  -2   0  258.46    7.48
  -3  -2   0  253.04    6.63
  -3  -2   0  251.62    5.95
  -3  -2   0  255.03    6.22
   3   2   0  238.03    7.06
   3   2   1  268.95    7.73
  -3  -2  -1  300.05    8.65
  -3  -2  -1  282.88    8.30
  -3  -2  -1  291.85    5.59
  -3  -2  -1  289.98    8.24
  -3  -2  -1  278.87    7.31
   3   2   2  118.58    5.36
  -3  -2  -2  108.02    5.53
  -3  -2  -2  110.90    5.46
   3   2   2  108.79    5.15
  -3  -2  -2  115.50    4.96
   3   2   2  115.72    5.70
   3   2   3    0.66    0.86
   3   2   3    0.07    0.76
  -3  -2  -3    1.37    1.09
   3   2   3    1.47    1.29
   3   2   3    0.11    0.82
   3   2   3   -0.37    0.68
   3   2   3    0.34    1.22
  -3  -2  -3    0.17    0.79
   3   2   3    0.47    0.26
  -3  -2  -3    0.50    0.88
  -3  -2  -3    0.45    0.81
   3   2   3    0.94    0.85
   3   2   3    0.58    1.19
   3   2   4  156.74    7.40
  -3  -2  -4  151.99    2.70
   3   2   4  156.16    6.33
   3   2   4  162.27    7.59
   3   2   4  159.67    7.30
   3   2   4  150.25    6.29
  -3  -2  -4  155.43    4.04
  -3  -2  -4  151.28    6.29
   3   2   4  159.35    5.53
   3   2   4  171.86    6.31
   3   2   4  159.24    3.71
   3   2   5  276.92   10.35
  -3  -2  -5  268.30    4.84
   3   2   5  280.38   10.37
  -3  -2  -5  266.24    4.76
   3   2   5  277.46   10.14
   3   2   5  253.70    8.03
  -3  -2  -5  271.82    5.69
  -3  -2  -5  241.33    8.32
  -3  -2  -5  268.58    7.41
   3   2   5  264.92    7.52
   3   2   5  283.06    8.93
   3   2   5  262.65    5.81
   3   2   6    0.65    1.41
  -3  -2  -6   -0.90    1.17
  -3  -2  -6    0.89    0.47
   3   2   6    0.87    1.27
  -3  -2  -6    0.89    0.48
   3   2   6   -0.43    0.69
   3   2   6    1.52    1.58
   3   2   6    0.31    0.85
   3   2   6    0.46    0.77
  -3  -2  -6    0.87    0.61
  -3  -2  -6   -0.58    0.71
   3   2   6   -0.58    1.21
   3   2   7   -1.47    1.32
  -3  -2  -7   -0.57    1.13
  -3  -2  -7   -0.50    0.66
   3   2   7    0.43    1.30
  -3  -2  -7   -0.23    0.51
   3   2   7    0.10    0.91
   3   2   7   -1.02    0.85
   3   2   7    1.05    1.48
   3   2   7   -0.03    0.91
  -3  -2  -7    1.54    0.76
  -3  -2  -7    1.50    0.82
   3   2   7   -0.84    1.37
   3   2   8    1.00    1.34
  -3  -2  -8    1.81    1.35
   3   2   8    2.11    1.84
   3   2   8    0.79    0.82
   3   2   8    3.38    1.91
   3   2   8    0.32    0.78
   3   2   8    4.38    2.51
   3   2   8    2.23    1.08
   3   2   8    0.26    1.21
   3   2   9   24.10    2.77
   3   2   9   22.96    2.73
  -3  -2  -9   17.70    2.85
   3   2   9   26.16    4.00
   3   2   9   24.66    4.00
   3   2   9   25.16    2.81
   3   2   9   27.94    4.09
   3   2   9   22.93    4.25
   3   2   9   24.02    3.84
   3   2  10    1.62    1.88
  -3  -2 -10    4.37    1.72
   3   2  10    5.13    2.47
   3   2  10    5.06    2.35
   3   2  10    0.41    1.63
   3   2  10    1.85    1.95
   3   2  11    6.50    2.59
  -3  -2 -11    7.06    2.17
   3   2  11   10.22    2.98
   3   2  11    6.07    2.39
   3   2  11    8.61    2.80
   3   3 -14    7.54    2.24
  -3  -3  14    3.48    1.81
   3   3 -13   -3.44    2.44
   3   3 -13    4.75    2.19
  -3  -3  13    4.06    1.53
  -3  -3  13   -2.23    2.04
  -3  -3  13   -1.40    1.64
  -3  -3  13    0.58    1.91
  -3  -3  13    0.89    2.03
  -3  -3  13    0.05    2.10
   3   3 -12    5.64    2.25
   3   3 -12    1.63    1.25
  -3  -3  12   -0.38    1.57
  -3  -3  12    3.85    1.78
  -3  -3  12    4.34    1.84
  -3  -3  12    3.06    1.85
  -3  -3  12    2.12    1.90
  -3  -3  12    3.79    2.30
   3   3 -11   19.30    3.36
   3   3 -11   19.81    3.20
  -3  -3  11   22.43    3.45
  -3  -3  11   18.22    3.39
  -3  -3  11   22.87    2.77
  -3  -3  11   19.45    3.22
  -3  -3  11   19.42    3.79
  -3  -3  11   19.73    3.81
  -3  -3  11   16.90    3.28
   3   3 -10    2.62    1.86
   3   3 -10    0.79    1.10
   3   3 -10    1.46    1.19
  -3  -3  10    0.54    1.27
  -3  -3  10    2.17    1.91
  -3  -3  10    1.43    1.57
  -3  -3  10    0.67    1.04
  -3  -3  10    1.51    1.68
  -3  -3  10   -2.23    1.97
  -3  -3  10    1.38    1.56
  -3  -3   9   93.37    4.81
   3   3  -9   99.71    5.47
  -3  -3   9   94.52    6.28
  -3  -3   9   94.03    4.81
  -3  -3   9   95.72    4.77
  -3  -3   9  103.89    5.39
  -3  -3   9   87.36    6.75
  -3  -3   9  104.69    7.38
  -3  -3   9   90.73    4.46
  -3  -3   9   97.65    6.39
  -3  -3   9   94.55    6.20
   3   3  -9   93.49    5.94
   3   3  -9   98.78    6.53
  -3  -3   8   75.67    5.45
  -3  -3   8   76.08    4.22
  -3  -3   8   74.64    4.17
  -3  -3   8   75.04    4.08
   3   3  -8   82.69    4.77
   3   3  -8   75.70    4.99
  -3  -3   8   84.13    6.26
  -3  -3   8   81.52    6.29
  -3  -3   8   80.33    4.11
  -3  -3   8   79.03    5.29
  -3  -3   8   76.14    5.29
   3   3  -8   73.84    5.03
   3   3  -8   83.31    5.71
   3   3  -7   14.67    2.50
  -3  -3   7   12.83    1.95
  -3  -3   7   11.59    1.68
   3   3  -7   11.69    1.00
  -3  -3   7   12.51    1.75
  -3  -3   7   13.63    2.37
  -3  -3   7   11.72    2.09
  -3  -3   7   15.21    1.78
   3   3  -7   11.02    1.88
   3   3  -7   13.79    1.97
  -3  -3   7   12.19    1.53
   3   3  -7   11.49    1.86
  -3  -3   7   12.89    2.54
   3   3  -7   12.82    1.84
  -3  -3   7   11.55    2.60
  -3  -3   7    9.68    1.81
   3   3  -7   15.80    2.44
   3   3  -6   13.63    2.07
  -3  -3   6   17.08    2.11
  -3  -3   6   17.22    1.95
   3   3  -6   16.51    2.07
  -3  -3   6   14.48    2.39
   3   3  -6   14.15    1.26
   3   3  -6   18.72    2.22
  -3  -3   6   15.61    1.85
  -3  -3   6   15.44    2.21
   3   3  -6   15.05    2.01
  -3  -3   6   15.25    1.82
  -3  -3   6   15.86    1.69
   3   3  -6   15.39    2.11
  -3  -3   6   11.26    2.20
   3   3  -6   13.47    1.71
  -3  -3   6   17.30    2.84
   3   3  -6   17.55    2.51
  -3  -3   5   89.62    4.29
  -3  -3   5   91.41    5.45
  -3  -3   5   89.40    4.31
   3   3  -5   87.02    3.31
   3   3  -5   91.30    4.44
  -3  -3   5   88.25    4.27
   3   3  -5   89.88    4.41
  -3  -3   5   88.40    5.33
   3   3  -5  102.87    4.65
  -3  -3   5   86.17    4.13
  -3  -3   5   82.05    3.72
  -3  -3   5   78.88    5.17
   3   3  -5   90.03    3.90
  -3  -3   5   89.73    5.64
  -3  -3   5   85.82    3.98
  -3  -3   5   84.02    4.34
  -3  -3   5  101.15    5.18
   3   3  -5   88.40    4.79
  -3  -3   4  205.84    6.62
  -3  -3   4  184.26    7.40
   3   3  -4  190.05    6.21
   3   3  -4  176.99    5.03
   3   3  -4  190.51    6.23
  -3  -3   4  180.68    6.16
  -3  -3   4  182.14    6.22
  -3  -3   4  190.50    7.22
   3   3  -4  189.99    6.11
  -3  -3   4  174.45    5.95
  -3  -3   4  185.02    5.53
  -3  -3   4  187.27    7.35
   3   3  -4  176.60    5.11
  -3  -3   4  172.49    5.12
  -3  -3   4  187.97    7.59
  -3  -3   4  185.03    4.93
  -3  -3   4  165.83    5.61
  -3  -3   4  194.12    6.78
   3   3  -4  176.89    6.60
  -3  -3   3  673.86   13.78
   3   3  -3  785.09   12.73
  -3  -3   3  814.81   13.21
   3   3  -3  801.45   11.23
   3   3  -3  801.42   12.72
  -3  -3   3  800.16   13.93
   3   3  -3  809.52   12.53
  -3  -3   3  802.20   12.86
  -3  -3   3  785.81   11.58
  -3  -3   3  796.69   13.13
  -3  -3   3  774.88   14.14
   3   3  -3  787.48    9.95
  -3  -3   3  758.20    9.79
  -3  -3   3  761.73    7.57
  -3  -3   3  754.60   10.38
   3   3  -3  775.77   13.43
   3   3  -2    8.67    1.34
   3   3  -2    8.30    1.60
  -3  -3   2    7.84    1.39
   3   3  -2    9.03    1.67
  -3  -3   2    8.26    1.50
  -3  -3   2    8.83    1.05
   3   3  -2    7.85    1.10
  -3  -3   2    6.72    1.40
  -3  -3   2    9.02    2.12
   3   3  -2    9.72    1.65
   3   3  -2    7.43    1.27
  -3  -3   2    7.81    1.44
  -3  -3   2    8.38    1.58
  -3  -3   2    8.48    1.65
   3   3  -2   10.13    1.78
  -3  -3   2    5.79    0.94
   3   3  -1   71.45    4.12
  -3  -3   1   67.45    4.09
   3   3  -1   66.74    2.37
   3   3  -1   66.64    3.64
   3   3  -1   69.15    4.01
  -3  -3   1   71.83    4.23
  -3  -3   1   65.10    3.56
   3   3  -1   71.37    3.99
  -3  -3   1   70.44    4.13
   3   3  -1   65.16    3.51
  -3  -3   1   66.07    3.59
  -3  -3   1   67.33    3.77
  -3  -3   1   67.55    2.96
  -3  -3   1   68.75    2.01
   3   3  -1   69.91    3.99
  -3  -3   0   14.43    1.78
   3   3   0   14.64    2.01
   3   3   0   13.12    0.70
  -3  -3   0   15.79    2.13
  -3  -3   0   16.66    2.13
   3   3   0   16.43    2.24
  -3  -3   0   21.81    2.58
   3   3   0   16.83    2.20
   3   3   0   19.17    2.43
  -3  -3   0   15.55    1.59
   3   3   1  442.66   10.43
  -3  -3  -1  493.99   11.72
  -3  -3  -1  489.86   11.50
  -3  -3  -1  483.92   11.71
  -3  -3  -1  457.04    9.97
   3   3   1  479.29    5.92
   3   3   2   83.32    4.69
   3   3   2  101.01    5.54
   3   3   2   97.43    4.85
   3   3   2   96.21    5.43
  -3  -3  -2   96.82    5.43
   3   3   2  101.64    5.44
  -3  -3  -2   91.55    5.17
  -3  -3  -2   92.57    5.40
   3   3   2   97.37    4.75
  -3  -3  -2   89.80    4.63
   3   3   2   88.09    3.42
   3   3   2   89.19    5.24
  -3  -3  -2  101.82    5.33
  -3  -3  -3   13.18    2.02
   3   3   3   12.90    2.32
   3   3   3   13.28    1.98
   3   3   3   17.29    2.53
   3   3   3   14.07    2.33
   3   3   3   12.43    2.02
   3   3   3   13.73    1.74
   3   3   4   26.45    3.48
   3   3   4   27.83    3.29
   3   3   4   24.21    3.13
   3   3   4   21.89    2.54
  -3  -3  -4   25.92    2.92
   3   3   4   27.80    2.70
   3   3   4   26.98    2.64
  -3  -3  -5    2.28    1.03
  -3  -3  -5    3.13    0.36
   3   3   5    2.91    1.64
   3   3   5   -0.01    1.56
   3   3   5    4.39    1.94
   3   3   5    1.24    1.03
  -3  -3  -5    2.60    0.85
   3   3   5    2.54    1.29
   3   3   5    4.43    1.24
   3   3   6    2.46    1.00
  -3  -3  -6    2.10    1.10
   3   3   6    1.03    1.51
  -3  -3  -6    2.27    0.49
   3   3   6    3.01    1.53
  -3  -3  -6    2.10    0.79
   3   3   6    2.20    1.11
   3   3   6    2.57    1.68
   3   3   6    1.93    0.77
  -3  -3  -6    3.71    1.08
  -3  -3  -6    3.42    1.19
   3   3   6    3.72    1.53
  -3  -3  -7    1.20    1.24
   3   3   7    0.30    1.27
   3   3   7    2.15    1.20
   3   3   7   -0.14    1.36
  -3  -3  -7    1.32    0.83
   3   3   7    2.63    1.88
   3   3   7    0.33    0.72
   3   3   7   -0.66    1.63
   3   3   7    1.52    0.78
   3   3   7    1.77    1.49
  -3  -3  -8    1.31    0.97
   3   3   8   -0.23    1.48
   3   3   8   -1.53    1.57
   3   3   8   -0.61    0.92
   3   3   8   -1.76    1.07
   3   3   8    3.73    2.20
   3   3   8   -0.21    0.82
   3   3   8   -0.03    1.51
   3   3   8    0.24    1.30
   3   3   9    0.73    1.33
  -3  -3  -9    0.51    1.14
   3   3   9   -2.58    2.05
   3   3   9   -1.31    1.97
   3   3   9    2.00    2.22
   3   3   9    0.54    0.98
   3   3   9    0.17    1.46
   3   3  10   12.72    3.48
  -3  -3 -10    5.78    1.96
   3   3  10    8.27    2.97
   3   3  10    8.49    2.65
   3   3  10    8.86    2.59
   3   3  10   24.85    4.46
  -3  -3 -11    9.58    2.44
   3   3  11    3.73    1.93
  -3  -4  14   -1.15    1.57
  -3  -4  14    3.76    2.14
   3   4 -13    1.93    1.77
   3   4 -13    1.44    1.55
  -3  -4  13    5.20    1.76
  -3  -4  13   -2.67    1.38
  -3  -4  13    3.24    1.67
  -3  -4  13    3.19    2.11
  -3  -4  13    2.14    2.00
  -3  -4  13    4.43    2.71
   3   4 -12    1.53    1.93
   3   4 -12   -1.40    1.22
  -3  -4  12    1.28    1.37
  -3  -4  12   -0.05    1.40
  -3  -4  12    0.06    1.49
  -3  -4  12   -0.77    1.85
  -3  -4  12    0.61    2.08
  -3  -4  12    3.96    2.25
   3   4 -11    6.22    2.24
   3   4 -11    3.13    1.39
   3   4 -11    3.70    1.76
  -3  -4  11    3.36    1.76
  -3  -4  11    4.84    1.88
  -3  -4  11    5.77    1.78
  -3  -4  11   -0.06    1.69
  -3  -4  11   -0.72    2.19
  -3  -4  11    5.42    2.05
   3   4 -10   21.28    3.57
  -3  -4  10   18.99    3.12
  -3  -4  10   22.84    3.14
  -3  -4  10   22.18    3.86
  -3  -4  10   27.79    4.34
   3   4 -10   25.07    3.23
  -3  -4  10   22.89    3.41
  -3  -4  10   21.55    3.31
   3   4 -10   22.25    3.25
   3   4  -9    1.19    1.42
   3   4  -9    0.51    0.99
  -3  -4   9    0.09    1.34
   3   4  -9    0.18    1.35
  -3  -4   9   -1.33    1.29
  -3  -4   9   -1.21    1.04
  -3  -4   9    1.00    0.83
  -3  -4   9   -0.67    0.84
  -3  -4   9    2.06    1.34
  -3  -4   9    0.97    1.63
  -3  -4   9   -0.25    1.64
  -3  -4   9    0.86    0.96
  -3  -4   9   -0.92    1.25
   3   4  -8   18.31    2.92
   3   4  -8   13.61    2.32
  -3  -4   8   15.20    2.12
   3   4  -8   13.54    0.87
  -3  -4   8   15.84    2.63
   3   4  -8   14.33    2.40
  -3  -4   8   15.86    2.55
  -3  -4   8   16.05    2.23
  -3  -4   8   14.72    2.07
   3   4  -8   16.62    2.39
  -3  -4   8   15.14    3.03
  -3  -4   8   13.55    2.79
   3   4  -8   13.18    1.89
  -3  -4   8   15.03    2.02
  -3  -4   8   13.55    2.32
  -3  -4   7  107.12    4.78
  -3  -4   7   95.00    6.09
   3   4  -7  108.57    5.67
  -3  -4   7   96.47    5.10
   3   4  -7  100.59    3.28
   3   4  -7  103.70    5.56
  -3  -4   7  101.69    5.08
  -3  -4   7   93.84    4.47
   3   4  -7   98.74    5.09
  -3  -4   7   96.27    6.51
   3   4  -7   99.78    4.56
  -3  -4   7  107.87    7.06
  -3  -4   7  100.13    5.16
  -3  -4   7  100.22    5.67
  -3  -4   7  104.94    5.45
  -3  -4   7  103.95    4.96
   3   4  -7  102.90    5.89
   3   4  -7   98.22    6.03
  -3  -4   6   11.99    1.63
   3   4  -6   12.04    2.37
   3   4  -6   11.27    2.14
  -3  -4   6   13.42    1.83
   3   4  -6   13.70    2.23
   3   4  -6   13.40    1.39
  -3  -4   6   14.29    2.19
   3   4  -6   11.02    1.95
  -3  -4   6   12.14    1.81
  -3  -4   6   13.94    2.52
   3   4  -6   10.27    1.86
  -3  -4   6   12.33    1.86
  -3  -4   6   12.91    1.81
   3   4  -6   11.50    1.75
  -3  -4   6   10.27    2.32
   3   4  -6   15.24    1.72
  -3  -4   6   11.94    1.91
  -3  -4   6   10.16    2.36
  -3  -4   5    0.81    1.03
  -3  -4   5    0.72    0.68
   3   4  -5    0.52    0.96
  -3  -4   5    0.12    0.82
  -3  -4   5   -0.58    1.45
   3   4  -5    0.45    1.04
  -3  -4   5   -0.06    0.92
  -3  -4   5    0.79    0.79
   3   4  -5    0.02    1.05
  -3  -4   5    0.66    0.74
   3   4  -5    0.87    0.64
   3   4  -5    2.73    1.34
  -3  -4   5   -0.04    0.76
  -3  -4   5    0.19    0.71
  -3  -4   5   -0.77    1.20
  -3  -4   5    2.81    1.31
   3   4  -5    0.40    0.57
  -3  -4   5    0.18    1.35
  -3  -4   5    0.34    0.64
  -3  -4   4   48.35    3.40
  -3  -4   4   44.80    4.01
   3   4  -4   47.13    3.58
  -3  -4   4   46.04    3.47
   3   4  -4   50.31    3.64
  -3  -4   4   47.46    3.55
  -3  -4   4   48.34    3.89
   3   4  -4   44.20    3.42
  -3  -4   4   46.74    3.40
  -3  -4   4   45.21    3.09
  -3  -4   4   40.99    3.76
   3   4  -4   46.40    2.47
   3   4  -4   45.13    2.76
  -3  -4   4   45.98    3.03
  -3  -4   4   44.85    2.30
  -3  -4   4   47.75    3.69
   3   4  -4   40.14    3.48
  -3  -4   4   45.23    3.26
  -3  -4   3  271.56    9.35
  -3  -4   3  280.16    8.62
   3   4  -3  265.71    8.19
  -3  -4   3  267.57    8.36
  -3  -4   3  271.36    8.65
   3   4  -3  273.17    8.12
  -3  -4   3  267.89    8.20
   3   4  -3  276.33    8.29
  -3  -4   3  253.27    7.22
  -3  -4   3  265.70    8.76
  -3  -4   3  266.39    5.36
  -3  -4   3  259.76    6.30
   3   4  -3  263.79    6.88
  -3  -4   3  240.10    3.41
  -3  -4   3  281.19    8.57
   3   4  -3  258.16    8.33
  -3  -4   3  282.32    8.04
  -3  -4   2    0.14    0.82
   3   4  -2   -0.97    1.09
  -3  -4   2    0.18    0.56
   3   4  -2   -0.25    0.99
   3   4  -2    0.47    1.21
  -3  -4   2    0.78    0.95
   3   4  -2    1.93    0.88
   3   4  -2   -0.67    1.20
  -3  -4   2    0.32    0.76
  -3  -4   2    0.92    0.95
  -3  -4   2    0.32    0.78
  -3  -4   2    1.05    1.33
  -3  -4   2    0.02    0.45
  -3  -4   1  483.35   11.75
   3   4  -1  481.04   11.45
   3   4  -1  506.78   10.31
   3   4  -1  492.94   11.38
   3   4  -1  478.75   10.97
  -3  -4   1  502.66   11.66
  -3  -4   1  507.77   12.00
   3   4  -1  488.15   10.16
  -3  -4   1  474.36   10.21
  -3  -4   1  462.88    7.21
  -3  -4   1  470.52    5.81
   3   4  -1  437.52   10.46
   3   4   0   11.75    1.73
  -3  -4   0   11.47    1.74
   3   4   0    9.58    1.78
   3   4   0   10.81    0.68
   3   4   0   10.99    2.05
  -3  -4   0   11.00    1.88
   3   4   0   10.86    2.03
  -3  -4   0   12.49    1.98
   3   4   0   11.45    1.78
   3   4   0   14.25    2.29
  -3  -4   0   13.04    2.16
  -3  -4   0   12.08    1.37
  -3  -4   0   14.08    2.23
   3   4   1  617.06   12.93
  -3  -4  -1  700.20   15.04
   3   4   1  704.10   13.05
   3   4   1  700.11   14.10
  -3  -4  -1  693.69   14.54
  -3  -4  -1  697.90   14.89
   3   4   1  678.50   12.62
  -3  -4  -1  649.25   12.55
   3   4   1  652.61   14.29
   3   4   1  713.93   14.62
  -3  -4  -1  761.27   14.93
  -3  -4  -2    0.43    0.86
   3   4   2   -0.39    1.07
   3   4   2    1.81    1.31
   3   4   2    0.59    1.47
   3   4   2    1.08    1.27
   3   4   2    0.39    0.58
   3   4   3   65.56    4.53
   3   4   3   60.86    4.86
   3   4   3   68.20    5.06
   3   4   3   67.71    5.04
  -3  -4  -3   65.22    4.34
   3   4   3   67.97    3.54
  -3  -4  -4   15.11    2.26
   3   4   4   18.97    3.02
   3   4   4   18.45    2.80
   3   4   4   15.34    2.27
   3   4   4   14.66    2.66
   3   4   4   19.13    2.48
   3   4   4   16.26    2.13
  -3  -4  -5    2.38    1.30
   3   4   5    2.08    1.61
   3   4   5    3.14    1.79
   3   4   5    2.74    1.19
   3   4   5    0.94    0.98
   3   4   5    1.46    1.09
   3   4   5    0.29    1.37
   3   4   6    0.14    0.94
  -3  -4  -6    0.33    0.94
   3   4   6   -0.26    1.55
   3   4   6    0.77    1.49
   3   4   6   -2.14    1.61
   3   4   6    0.15    0.83
   3   4   6   -1.08    1.81
  -3  -4  -6    1.98    1.15
   3   4   6   -0.99    1.35
  -3  -4  -7   -0.33    1.11
   3   4   7    1.08    1.44
   3   4   7   -0.14    1.52
  -3  -4  -7    0.64    0.83
   3   4   7   -0.07    1.56
   3   4   7    2.07    1.27
   3   4   7    0.60    0.82
   3   4   7   -1.53    1.54
  -3  -4  -8    1.84    1.47
   3   4   8    2.06    2.03
   3   4   8    0.09    1.55
   3   4   8    0.99    0.96
   3   4   8    0.32    1.43
   3   4   8    2.53    1.13
   3   4   8    0.73    1.42
   3   4   8    1.39    1.26
   3   4   9    9.75    2.91
  -3  -4  -9    4.43    1.72
   3   4   9    5.97    2.23
   3   4   9    3.51    1.95
   3   4   9    3.96    1.57
   3   4   9    3.96    1.43
   3   4   9    0.35    1.72
   3   4  10    2.51    1.37
   3   4  10    0.47    1.40
  -3  -4 -10    3.07    1.57
   3   4  10    3.08    2.31
   3   4  10    5.02    2.36
   3   4  10   -0.22    1.58
   3   5 -13    1.52    1.81
   3   5 -13   -0.10    1.47
  -3  -5  13    3.43    1.85
   3   5 -12    2.89    2.24
   3   5 -12    0.96    1.37
   3   5 -12    1.51    1.39
  -3  -5  12    0.19    1.74
  -3  -5  12    4.79    2.08
  -3  -5  12    3.79    1.79
  -3  -5  12   -0.13    1.51
  -3  -5  12    4.57    2.03
  -3  -5  12    0.86    1.47
   3   5 -11    8.15    2.51
   3   5 -11    1.81    1.62
   3   5 -11    4.10    1.83
  -3  -5  11    3.65    1.80
  -3  -5  11    2.87    1.63
  -3  -5  11    6.17    2.38
  -3  -5  11    7.32    2.68
  -3  -5  11    2.46    1.74
  -3  -5  11    2.72    2.05
   3   5 -10   -0.02    1.58
   3   5 -10   -0.05    1.36
  -3  -5  10    2.93    1.44
   3   5 -10    1.50    1.52
  -3  -5  10    2.57    1.73
  -3  -5  10    2.81    1.32
  -3  -5  10    0.20    1.36
  -3  -5  10    1.27    2.08
  -3  -5  10    1.85    1.54
   3   5  -9    2.66    1.63
   3   5  -9    0.66    1.08
  -3  -5   9   -0.15    1.32
   3   5  -9    2.12    1.32
  -3  -5   9    0.45    1.27
   3   5  -9    1.27    0.89
  -3  -5   9    3.19    2.00
  -3  -5   9    1.27    1.65
  -3  -5   9    1.59    1.33
   3   5  -8    8.55    2.42
   3   5  -8    8.24    2.14
  -3  -5   8    6.09    1.26
  -3  -5   8    6.94    1.94
   3   5  -8    8.14    1.98
  -3  -5   8    8.01    2.05
   3   5  -8    6.96    0.84
   3   5  -8    5.97    1.76
   3   5  -8    9.39    1.83
  -3  -5   8    6.03    2.18
  -3  -5   8    7.60    2.26
   3   5  -8    7.70    1.52
  -3  -5   8    7.43    1.90
  -3  -5   8    8.26    1.65
  -3  -5   7    0.06    0.82
   3   5  -7    1.95    1.75
   3   5  -7   -0.26    1.23
  -3  -5   7    1.02    0.81
  -3  -5   7    0.85    1.43
  -3  -5   7    1.36    1.32
  -3  -5   7   -1.09    1.09
  -3  -5   7    0.91    0.82
   3   5  -7    0.38    0.52
   3   5  -7    1.58    1.30
  -3  -5   7    1.11    1.05
   3   5  -7   -0.19    1.33
   3   5  -7    1.22    0.77
  -3  -5   7    0.38    1.19
  -3  -5   7   -0.28    1.39
   3   5  -7   -0.02    0.56
  -3  -5   7    1.38    1.05
  -3  -5   6  203.38    6.37
   3   5  -6  199.89    8.13
  -3  -5   6  195.16    8.73
  -3  -5   6  198.61    7.85
   3   5  -6  187.12    5.56
   3   5  -6  181.85    7.84
  -3  -5   6  187.47    7.61
   3   5  -6  189.58    7.95
  -3  -5   6  185.91    7.43
  -3  -5   6  185.42    6.68
  -3  -5   6  189.36    9.02
   3   5  -6  186.16    5.45
  -3  -5   6  204.36    9.47
  -3  -5   6  185.51    7.39
  -3  -5   6  193.26    7.23
   3   5  -6  190.59    8.15
   3   5  -6  179.61    8.14
  -3  -5   5    1.04    0.81
   3   5  -5    2.33    1.25
   3   5  -5    2.76    1.44
  -3  -5   5    3.14    1.42
  -3  -5   5    1.64    1.16
  -3  -5   5    3.21    1.21
   3   5  -5    5.06    1.61
   3   5  -5    3.13    0.96
   3   5  -5    4.42    1.52
  -3  -5   5    2.79    1.13
  -3  -5   5    2.34    1.50
  -3  -5   5    3.62    1.18
  -3  -5   5    3.65    1.73
   3   5  -5    3.51    0.94
  -3  -5   5    3.37    1.21
  -3  -5   5    3.76    0.96
  -3  -5   4    4.63    1.37
   3   5  -4    5.33    1.52
  -3  -5   4    6.19    1.77
  -3  -5   4    6.10    1.45
  -3  -5   4    5.62    1.55
  -3  -5   4    8.13    1.72
   3   5  -4    7.07    1.69
   3   5  -4    7.26    1.84
  -3  -5   4    8.63    1.87
   3   5  -4    8.26    1.40
   3   5  -4    6.24    1.74
  -3  -5   4    6.86    1.48
  -3  -5   4    6.96    1.57
   3   5  -4    7.37    1.34
  -3  -5   4    8.16    2.04
  -3  -5   4    7.11    0.90
  -3  -5   3   10.79    1.83
   3   5  -3   10.32    1.93
  -3  -5   3   11.83    1.58
  -3  -5   3   13.53    2.49
   3   5  -3   13.62    2.29
  -3  -5   3   11.06    2.06
   3   5  -3    9.12    1.98
  -3  -5   3   13.59    2.16
  -3  -5   3   13.88    2.23
   3   5  -3   11.57    1.65
   3   5  -3   12.37    2.14
  -3  -5   3   12.92    2.07
  -3  -5   3   13.05    1.79
  -3  -5   3   13.25    2.11
  -3  -5   3   12.85    2.39
  -3  -5   3   11.77    1.05
  -3  -5   2   20.19    2.67
   3   5  -2   19.92    2.65
   3   5  -2   22.04    2.34
  -3  -5   2   18.14    2.24
   3   5  -2   19.39    2.55
  -3  -5   2   18.41    2.44
   3   5  -2   18.04    2.46
  -3  -5   2   19.17    2.28
  -3  -5   2   18.86    1.21
  -3  -5   2   17.14    1.67
  -3  -5   2   22.47    2.80
  -3  -5   2   17.02    2.35
   3   5  -2   18.69    2.49
   3   5  -1  241.74    7.69
   3   5  -1  219.53    8.27
  -3  -5   1  234.99    8.81
  -3  -5   1  223.04    7.50
  -3  -5   1  230.97    8.52
   3   5  -1  218.67    8.04
   3   5  -1  220.71    8.34
  -3  -5   1  211.66    7.34
  -3  -5   1  231.71    4.64
  -3  -5   1  227.40    4.79
  -3  -5   1  229.61    8.77
  -3  -5   1  242.27    8.55
   3   5  -1  202.01    7.55
   3   5   0   39.07    3.65
   3   5   0   46.13    3.98
  -3  -5   0   38.46    3.31
   3   5   0   41.97    3.71
  -3  -5   0   43.18    3.39
  -3  -5   0   39.74    2.22
   3   5   0   40.99    1.59
  -3  -5   0   38.66    1.62
   3   5   0   40.87    3.58
  -3  -5  -1   11.19    1.96
   3   5   1    9.78    1.94
   3   5   1   10.91    2.28
   3   5   1   11.94    2.26
   3   5   1   12.15    2.10
  -3  -5  -1   12.34    2.09
  -3  -5  -1   14.79    0.80
  -3  -5  -1   10.62    0.66
   3   5   2   87.03    5.19
   3   5   2   91.75    5.82
   3   5   2   87.42    5.74
  -3  -5  -2   92.12    5.27
   3   5   2   88.45    5.62
  -3  -5  -2   88.60    5.16
   3   5   3  273.20    9.54
   3   5   3  308.80   11.28
   3   5   3  296.10   10.74
  -3  -5  -3  288.91    9.62
   3   5   3  296.73   10.48
  -3  -5  -3  285.80    9.43
  -3  -5  -3  284.75    3.68
   3   5   3  298.23    7.51
  -3  -5  -4    0.93    1.06
   3   5   4   -0.16    1.35
   3   5   4    1.52    1.67
   3   5   4    3.44    1.63
   3   5   4    1.56    1.03
   3   5   4    0.75    1.00
   3   5   4    1.36    1.00
  -3  -5  -5   15.70    2.57
   3   5   5   18.42    3.09
   3   5   5   17.36    3.01
   3   5   5   17.29    3.00
   3   5   5    9.85    2.15
   3   5   5   18.56    2.63
   3   5   5   16.00    2.52
   3   5   6    2.78    1.52
  -3  -5  -6    1.12    1.08
   3   5   6    0.16    1.33
   3   5   6    1.41    1.51
   3   5   6    3.23    1.81
   3   5   6    2.68    1.11
   3   5   6    2.35    1.69
   3   5   6    1.45    1.17
   3   5   7   -0.20    1.56
  -3  -5  -7    0.65    1.20
   3   5   7   -0.23    1.23
   3   5   7   -2.29    2.03
   3   5   7   -1.53    1.80
   3   5   7   -0.81    0.84
   3   5   7   -0.15    1.77
   3   5   7    1.04    1.23
  -3  -5  -8    1.62    1.38
   3   5   8   -1.99    2.07
   3   5   8    0.75    1.79
   3   5   8   -1.10    1.18
   3   5   8    0.34    1.46
   3   5   8   -0.09    1.38
   3   5   8    0.80    1.34
   3   5   9    3.41    2.24
  -3  -5  -9    4.16    1.52
   3   5   9    1.23    1.55
   3   5   9    4.14    1.88
   3   5   9   -0.15    2.41
   3   5   9    1.58    1.43
   3   5   9    7.40    2.45
  -3  -5 -10    6.67    2.19
   3   5  10    8.12    2.82
   3   5  10    8.64    2.43
  -3  -6  13    1.87    1.66
  -3  -6  13    0.94    1.51
   3   6 -12   12.31    3.26
   3   6 -12    4.16    1.82
   3   6 -12    4.09    2.04
  -3  -6  12    9.57    2.56
  -3  -6  12   14.99    3.70
  -3  -6  12    4.70    2.06
  -3  -6  12    8.14    2.64
  -3  -6  12    8.77    3.19
  -3  -6  12    6.74    2.35
   3   6 -11    2.90    1.95
   3   6 -11   -0.01    1.45
   3   6 -11    1.40    1.66
  -3  -6  11    1.44    1.32
  -3  -6  11   -0.16    1.63
  -3  -6  11    1.52    1.36
  -3  -6  11    0.48    1.60
  -3  -6  11    1.37    2.03
  -3  -6  11    0.26    1.62
   3   6 -10    2.92    1.80
   3   6 -10    1.65    1.37
   3   6 -10    2.47    1.72
  -3  -6  10    2.33    1.71
  -3  -6  10    2.10    1.50
  -3  -6  10    5.30    2.00
  -3  -6  10    2.27    2.01
  -3  -6  10    5.39    2.58
  -3  -6  10    3.64    1.86
   3   6  -9   11.27    2.72
   3   6  -9    8.44    2.22
  -3  -6   9    8.62    2.39
   3   6  -9   10.51    2.59
  -3  -6   9   10.39    2.41
  -3  -6   9    6.90    2.40
  -3  -6   9   14.70    3.32
  -3  -6   9   10.16    2.36
   3   6  -8    4.60    2.14
   3   6  -8    0.70    1.28
  -3  -6   8    1.77    0.88
   3   6  -8    2.33    1.64
  -3  -6   8    0.99    1.32
   3   6  -8    0.65    1.30
  -3  -6   8    3.74    1.86
   3   6  -8    2.34    0.95
  -3  -6   8    4.03    1.92
  -3  -6   8    1.85    1.72
   3   6  -8    1.84    0.83
  -3  -6   8    3.21    1.30
  -3  -6   8    1.53    1.08
  -3  -6   7  156.46    5.47
  -3  -6   7  151.05    8.11
   3   6  -7  157.37    8.00
   3   6  -7  145.54    7.71
  -3  -6   7  143.70    6.49
   3   6  -7  146.55    5.11
  -3  -6   7  153.98    8.93
   3   6  -7  146.29    4.92
  -3  -6   7  157.75    9.03
  -3  -6   7  149.93    7.39
  -3  -6   7  151.12    6.61
   3   6  -7  148.96    7.85
   3   6  -7  138.99    7.80
  -3  -6   6  292.60    7.75
  -3  -6   6  283.07   11.02
   3   6  -6  297.38   10.82
   3   6  -6  281.39    7.54
   3   6  -6  303.44   10.76
   3   6  -6  278.17   10.10
  -3  -6   6  262.62    8.65
  -3  -6   6  265.14   11.29
   3   6  -6  298.18    6.15
  -3  -6   6  297.11    9.68
   3   6  -6  256.52   10.07
   3   6  -6  279.60   10.55
  -3  -6   5   14.25    2.06
   3   6  -5   15.34    2.51
  -3  -6   5   20.78    2.35
  -3  -6   5   12.84    2.12
  -3  -6   5   16.46    2.93
   3   6  -5   13.90    2.74
   3   6  -5   12.80    2.42
   3   6  -5   18.92    2.84
   3   6  -5   16.35    1.87
   3   6  -5   15.18    1.19
  -3  -6   5   15.09    2.76
  -3  -6   5   17.28    1.74
   3   6  -5   16.10    1.93
  -3  -6   4   15.47    2.18
   3   6  -4   12.81    2.17
  -3  -6   4   18.11    3.06
   3   6  -4   12.00    2.33
   3   6  -4   16.63    2.04
  -3  -6   4   15.13    2.04
   3   6  -4    8.55    1.92
   3   6  -4   16.60    2.68
   3   6  -4   15.56    1.83
  -3  -6   4   15.61    2.97
  -3  -6   4   18.05    2.25
  -3  -6   4   15.91    1.34
  -3  -6   3   -0.42    1.01
   3   6  -3   -0.03    1.11
  -3  -6   3    0.09    0.74
   3   6  -3    0.09    1.26
   3   6  -3   -0.95    1.43
   3   6  -3    1.05    0.78
   3   6  -3    0.29    1.08
  -3  -6   3   -0.56    1.12
  -3  -6   2    1.73    1.01
  -3  -6   2    4.89    1.27
   3   6  -2    3.92    1.55
   3   6  -2    4.99    1.65
   3   6  -2    3.81    1.49
   3   6  -2    1.38    1.23
  -3  -6   2    3.94    1.40
   3   6  -1   98.92    6.01
  -3  -6   1  102.25    5.46
   3   6  -1  100.55    6.05
   3   6  -1  104.10    6.00
  -3  -6   1   98.05    5.34
  -3  -6   1   94.23    2.46
   3   6  -1   88.20    5.32
  -3  -6   0    3.92    1.28
   3   6   0    4.33    1.59
   3   6   0    3.49    1.51
   3   6   0    3.48    0.67
   3   6   0    3.08    1.48
   3   6   0    3.44    1.55
  -3  -6   0    5.19    1.52
  -3  -6   0    3.40    0.68
   3   6   1   20.82    2.77
   3   6   1   19.08    3.03
  -3  -6  -1   21.45    2.80
   3   6   1   15.92    2.61
  -3  -6  -1   16.95    2.41
   3   6   1   15.74    2.71
  -3  -6  -1   19.07    1.30
   3   6   2   54.24    4.37
   3   6   2   65.52    5.23
   3   6   2   59.68    5.02
  -3  -6  -2   60.32    4.60
   3   6   2   62.72    4.99
  -3  -6  -2   61.07    4.54
  -3  -6  -2   62.53    2.20
   3   6   3   21.67    3.02
   3   6   3   23.21    3.37
  -3  -6  -3   24.63    3.11
   3   6   3   29.36    3.60
   3   6   3   26.75    3.58
  -3  -6  -3   26.91    3.18
   3   6   3   27.92    3.29
  -3  -6  -3   23.50    1.41
  -3  -6  -4    3.72    1.44
   3   6   4    2.75    1.52
   3   6   4    2.30    1.76
   3   6   4    2.61    1.63
  -3  -6  -4    2.00    1.03
   3   6   4    2.43    1.17
  -3  -6  -5    2.15    1.30
   3   6   5    0.82    1.56
   3   6   5    0.60    1.52
   3   6   5   -0.44    1.20
   3   6   5   -0.32    0.76
   3   6   5    1.61    1.79
   3   6   5    3.08    1.40
   3   6   5    0.69    0.89
   3   6   6   14.79    2.63
  -3  -6  -6   14.43    2.56
   3   6   6   14.96    3.26
   3   6   6   15.30    3.07
   3   6   6   14.36    2.96
   3   6   6   11.45    2.03
   3   6   6   15.99    3.37
   3   6   6   14.65    2.63
  -3  -6  -7    9.92    2.28
   3   6   7   13.79    2.65
   3   6   7   17.37    3.43
   3   6   7    9.29    2.61
   3   6   7   12.00    2.91
   3   6   7   16.23    3.73
   3   6   7   18.01    3.09
   3   6   8   -1.34    1.93
   3   6   8   -0.63    1.62
   3   6   8   -2.37    1.69
  -3  -6  -8    0.34    1.20
   3   6   8    0.54    1.50
   3   6   8    1.62    1.37
  -3  -6  -9    1.46    1.25
   3   6   9    0.97    1.64
   3   6   9    0.08    2.00
   3   6   9   -2.57    1.88
   3   6   9    1.08    1.44
  -3  -7  13   -0.22    1.28
  -3  -7  13    1.03    1.91
   3   7 -12    8.56    2.84
  -3  -7  12    4.80    1.88
  -3  -7  12    2.09    1.67
  -3  -7  12    1.53    1.55
  -3  -7  12    1.50    1.65
   3   7 -11    2.53    1.75
   3   7 -11    3.37    1.84
  -3  -7  11    2.64    1.81
   3   7 -11    1.82    1.99
  -3  -7  11    6.21    2.35
  -3  -7  11    2.47    1.63
  -3  -7  11    3.43    2.09
  -3  -7  11    3.52    2.45
  -3  -7  11    2.95    1.78
   3   7 -10    4.71    2.40
   3   7 -10    0.74    1.30
  -3  -7  10    4.48    2.04
   3   7 -10    1.85    1.67
  -3  -7  10    4.16    1.83
  -3  -7  10    0.84    1.59
  -3  -7  10    9.41    3.03
  -3  -7  10    2.75    1.64
   3   7  -9    5.23    2.12
   3   7  -9    7.74    2.57
   3   7  -9    8.70    2.68
  -3  -7   9    7.36    2.37
  -3  -7   9    7.86    2.24
  -3  -7   9    5.78    2.31
  -3  -7   9    3.62    2.27
  -3  -7   9    7.03    2.23
  -3  -7   9    4.75    1.57
  -3  -7   8   40.97    2.65
  -3  -7   8   45.22    4.91
   3   7  -8   37.78    4.50
   3   7  -8   36.82    4.27
  -3  -7   8   29.72    3.31
  -3  -7   8   35.38    4.86
  -3  -7   8   45.01    5.40
  -3  -7   8   31.68    3.95
  -3  -7   8   41.26    3.92
   3   7  -8   34.93    4.33
   3   7  -8   38.78    4.70
  -3  -7   7    2.95    1.30
   3   7  -7    7.42    2.26
   3   7  -7    2.94    1.66
  -3  -7   7    4.96    1.19
  -3  -7   7    4.01    1.68
   3   7  -7    7.87    2.36
   3   7  -7    4.38    2.12
   3   7  -7    2.69    0.86
   3   7  -7    5.61    2.14
  -3  -7   7    5.79    2.16
  -3  -7   7    3.20    1.69
  -3  -7   7    8.33    2.76
  -3  -7   7    5.04    1.49
  -3  -7   6  202.79    6.59
  -3  -7   6  184.66    9.40
   3   7  -6  196.57    9.46
   3   7  -6  179.78    6.68
   3   7  -6  178.50    8.89
  -3  -7   6  169.09    7.46
   3   7  -6  172.85    5.51
  -3  -7   6  187.59    9.88
   3   7  -6  165.00    3.35
  -3  -7   6  172.61    7.90
   3   7  -6  183.20    8.87
   3   7  -6  170.59    8.63
   3   7  -6  183.64    8.89
  -3  -7   5   30.53    3.99
   3   7  -5   35.77    4.07
   3   7  -5   33.05    3.95
  -3  -7   5   33.22    3.06
   3   7  -5   36.51    4.05
  -3  -7   5   30.54    3.23
   3   7  -5   37.16    2.75
  -3  -7   5   44.64    5.06
  -3  -7   5   36.60    3.45
  -3  -7   5   37.95    2.59
   3   7  -5   32.65    3.80
  -3  -7   4   81.05    6.35
   3   7  -4   66.31    5.38
   3   7  -4   72.95    5.62
  -3  -7   4   69.72    4.55
   3   7  -4   69.01    5.39
  -3  -7   4   63.70    4.54
   3   7  -4   67.52    3.51
  -3  -7   4   87.39    6.82
  -3  -7   4   70.67    4.41
  -3  -7   4   69.40    2.83
   3   7  -4   62.62    5.10
   3   7  -3   60.03    5.18
   3   7  -3   53.62    4.79
  -3  -7   3   61.41    4.40
   3   7  -3   59.05    4.93
  -3  -7   3   54.11    4.25
  -3  -7   3   61.10    3.87
  -3  -7   3   49.98    1.73
  -3  -7   3   54.26    1.76
   3   7  -3   52.97    4.50
  -3  -7   2    0.49    0.93
   3   7  -2   -0.02    1.11
   3   7  -2    3.09    1.67
   3   7  -2   -0.48    1.44
  -3  -7   2    4.23    1.59
   3   7  -2    0.12    1.24
   3   7  -1  103.77    6.64
   3   7  -1  103.09    6.53
  -3  -7   1  117.45    6.29
   3   7  -1  111.16    6.61
  -3  -7   1  100.96    5.85
   3   7  -1   98.35    5.81
  -3  -7   0    7.14    1.70
   3   7   0    8.69    1.84
   3   7   0    7.92    2.13
   3   7   0   10.31    1.15
   3   7   0   11.46    2.54
   3   7   0   11.39    2.44
  -3  -7   0    9.94    2.13
  -3  -7   0   10.42    0.94
   3   7   1   51.27    4.37
  -3  -7  -1   58.03    2.71
   3   7   1   50.79    1.93
   3   7   1   50.41    4.81
  -3  -7  -1   60.04    4.77
   3   7   1   59.69    5.27
   3   7   1   55.05    4.81
  -3  -7  -1   52.33    4.30
   3   7   2   27.62    3.39
   3   7   2   27.01    3.71
  -3  -7  -2   33.60    3.69
   3   7   2   35.53    4.05
   3   7   2   34.59    4.15
  -3  -7  -2   31.16    3.48
  -3  -7  -2   34.12    1.99
   3   7   3  102.22    6.42
   3   7   3  106.17    7.21
  -3  -7  -3  101.12    6.44
   3   7   3  113.17    7.25
   3   7   3  108.59    6.95
  -3  -7  -3  105.52    6.43
   3   7   3  105.50    6.57
   3   7   3  111.77    7.35
  -3  -7  -4   -0.50    0.94
   3   7   4    1.20    1.71
   3   7   4   -0.02    1.75
   3   7   4    1.63    1.72
  -3  -7  -4    0.16    1.10
   3   7   4   -0.27    1.27
   3   7   4   -1.12    1.33
  -3  -7  -5    1.32    1.33
   3   7   5   -0.13    1.37
   3   7   5    2.00    1.86
   3   7   5    2.04    1.69
  -3  -7  -5    4.12    1.46
   3   7   5    0.95    0.97
   3   7   5   -1.70    1.63
   3   7   5    3.37    1.51
   3   7   6    0.35    1.35
  -3  -7  -6    0.15    1.01
   3   7   6   -1.23    1.51
   3   7   6    1.73    1.54
   3   7   6    0.64    1.56
   3   7   6    0.19    0.85
   3   7   6    0.19    1.55
  -3  -7  -7    5.71    1.81
   3   7   7    6.80    2.64
   3   7   7    8.41    2.04
   3   7   7    7.99    2.51
   3   7   7    7.09    2.68
   3   7   7    3.71    2.07
  -3  -7  -8   21.21    3.38
   3   7   8   25.93    4.53
   3   7   8   36.79    5.06
   3   7   8   19.08    3.29
   3   7   8   23.48    4.07
   3   8 -12   -1.29    1.47
  -3  -8  12    0.68    1.58
  -3  -8  12    2.16    1.78
  -3  -8  12    0.97    1.42
   3   8 -11   -0.02    1.60
  -3  -8  11    0.30    1.35
   3   8 -11    0.67    1.88
  -3  -8  11    0.49    1.34
  -3  -8  11   -0.83    1.43
  -3  -8  11    2.54    2.34
  -3  -8  11   -0.99    1.98
  -3  -8  11    2.79    1.83
  -3  -8  11   -0.03    1.28
   3   8 -10    6.21    2.38
   3   8 -10    4.52    1.99
  -3  -8  10    2.54    1.63
   3   8 -10    2.42    1.75
  -3  -8  10    4.08    2.02
  -3  -8  10    4.66    2.62
  -3  -8  10    6.70    2.65
  -3  -8  10    7.61    2.51
  -3  -8  10    2.77    1.48
  -3  -8   9    4.37    1.77
   3   8  -9    4.75    2.22
   3   8  -9    9.70    2.72
  -3  -8   9    6.78    2.42
  -3  -8   9    7.78    2.26
   3   8  -9   13.21    2.98
   3   8  -9    5.35    2.19
  -3  -8   9    8.67    2.92
  -3  -8   9   10.16    3.12
  -3  -8   9    9.11    2.32
  -3  -8   8  189.45   10.08
   3   8  -8  176.16    9.99
   3   8  -8  197.32   10.38
  -3  -8   8  177.22    8.34
  -3  -8   8  186.47   11.27
  -3  -8   8  196.40    9.64
  -3  -8   8  207.12   11.75
  -3  -8   8  206.67    8.57
   3   8  -8  169.26    9.51
   3   8  -8  193.56   10.38
  -3  -8   7    5.79    1.75
   3   8  -7    2.72    1.80
   3   8  -7    4.78    1.83
  -3  -8   7    5.19    1.15
  -3  -8   7    3.84    1.71
  -3  -8   7    5.79    2.24
   3   8  -7    5.02    2.05
   3   8  -7    4.87    2.12
   3   8  -7    2.47    1.89
  -3  -8   7    1.86    1.77
  -3  -8   7    4.86    1.32
  -3  -8   6    7.30    1.83
   3   8  -6    9.43    2.37
   3   8  -6    7.04    2.23
  -3  -8   6   15.35    2.10
  -3  -8   6    6.51    1.88
  -3  -8   6    4.54    2.10
   3   8  -6    4.79    2.09
   3   8  -6    5.96    2.31
   3   8  -6    6.05    2.15
  -3  -8   6    8.80    1.79
  -3  -8   6    8.56    2.64
  -3  -8   5   11.53    2.26
   3   8  -5   14.42    2.85
  -3  -8   5   15.09    2.40
  -3  -8   5   14.25    2.95
   3   8  -5   10.23    2.69
   3   8  -5   14.89    3.05
   3   8  -5   12.68    2.70
  -3  -8   5   15.09    2.34
  -3  -8   5   17.32    3.70
   3   8  -4   28.82    3.90
  -3  -8   4   28.22    3.16
   3   8  -4   28.51    3.87
   3   8  -4   30.39    4.08
  -3  -8   4   26.92    3.28
   3   8  -4   25.79    2.04
  -3  -8   4   31.88    3.23
   3   8  -4   24.98    3.49
  -3  -8   3   10.03    2.15
   3   8  -3   10.50    2.33
   3   8  -3   11.12    2.70
   3   8  -3    7.95    2.42
   3   8  -3    8.73    2.29
  -3  -8   3    8.90    2.15
  -3  -8   3    7.48    0.81
   3   8  -2  159.26    8.73
   3   8  -2  148.74    8.47
  -3  -8   2  142.18    7.35
   3   8  -2  135.03    7.99
  -3  -8   2  144.84    7.33
   3   8  -2  122.01    6.90
  -3  -8   1    6.04    1.81
   3   8  -1    6.92    1.81
   3   8  -1   10.28    2.53
   3   8  -1    7.73    1.34
   3   8  -1    7.52    2.20
   3   8  -1   12.63    2.69
  -3  -8   1    6.45    1.78
  -3  -8   0    3.23    1.52
   3   8   0    3.05    1.56
   3   8   0    2.67    1.45
   3   8   0    3.25    1.87
   3   8   0    3.17    0.84
   3   8   0    2.18    1.81
  -3  -8   0    3.19    1.51
  -3  -8  -1   -1.00    1.01
   3   8   1    1.20    1.17
   3   8   1    0.90    0.48
   3   8   1   -0.16    1.44
   3   8   1    0.87    1.49
  -3  -8  -1    0.40    1.18
   3   8   1    2.40    1.35
   3   8   1    2.10    1.50
  -3  -8  -1    0.50    0.35
   3   8   2    0.38    0.98
  -3  -8  -2    2.35    1.35
   3   8   2    0.18    1.31
   3   8   2    0.63    1.40
   3   8   2    2.25    1.56
   3   8   2    0.17    1.36
  -3  -8  -2    1.14    1.37
   3   8   2    0.52    1.34
   3   8   3   41.04    4.26
   3   8   3   44.45    5.11
   3   8   3   43.48    4.97
  -3  -8  -3   37.55    4.21
   3   8   3   43.75    4.87
   3   8   3   40.50    4.46
  -3  -8  -3   41.74    4.29
   3   8   3   43.80    4.60
  -3  -8  -4    2.28    1.59
   3   8   4    2.06    1.66
   3   8   4   -0.75    1.78
   3   8   4    0.54    1.44
  -3  -8  -4    1.09    0.99
   3   8   4    0.68    1.27
   3   8   4   -0.47    1.20
   3   8   5    7.73    2.29
  -3  -8  -5    4.97    1.88
   3   8   5    1.25    1.76
   3   8   5    2.56    1.55
   3   8   5    3.84    2.12
  -3  -8  -5    5.12    1.88
   3   8   5    6.74    2.55
   3   8   6   17.25    3.25
   3   8   6   25.11    4.24
   3   8   6   16.70    3.52
   3   8   6   15.62    3.44
  -3  -8  -6   22.26    3.49
   3   8   6   24.23    4.11
   3   8   7    3.17    1.91
  -3  -8  -7    1.26    1.35
   3   8   7    2.78    2.10
   3   8   7    3.95    2.22
   3   8   7    2.78    1.40
   3   8   7    3.13    1.80
  -3  -9  11   -0.94    1.48
  -3  -9  11    1.07    1.70
   3   9 -11    0.98    1.76
  -3  -9  11   -0.40    1.81
  -3  -9  10    0.52    1.57
   3   9 -10   -2.39    2.09
   3   9 -10   -1.75    1.79
  -3  -9  10    2.71    1.80
  -3  -9  10   -4.85    2.44
   3   9 -10   -3.18    2.06
  -3  -9  10   -0.03    2.63
  -3  -9  10    1.21    2.20
  -3  -9   9    1.24    1.26
   3   9  -9    2.13    2.20
   3   9  -9    5.07    2.25
  -3  -9   9   -1.56    2.10
  -3  -9   9    2.29    2.03
   3   9  -9    0.13    1.92
   3   9  -9   -3.18    2.31
  -3  -9   9    5.56    2.55
  -3  -9   9    3.86    2.36
  -3  -9   8    7.09    1.91
   3   9  -8   11.22    2.90
   3   9  -8    3.52    1.79
  -3  -9   8    5.48    2.12
  -3  -9   8    8.96    2.70
   3   9  -8    8.50    2.80
   3   9  -8    5.32    2.24
  -3  -9   8    3.22    2.22
  -3  -9   8   10.77    3.54
  -3  -9   7    6.10    1.88
   3   9  -7    6.16    2.35
   3   9  -7    4.73    2.05
  -3  -9   7    6.40    2.21
   3   9  -7    4.46    2.23
   3   9  -7   10.69    2.70
  -3  -9   7    5.10    1.89
   3   9  -7    0.21    1.88
  -3  -9   7    6.43    1.59
  -3  -9   7    2.25    2.08
  -3  -9   6    5.27    1.90
   3   9  -6    6.26    2.32
   3   9  -6    5.21    2.13
  -3  -9   6    3.79    1.74
  -3  -9   6    7.08    2.30
   3   9  -6    3.80    1.97
   3   9  -6    3.74    2.09
   3   9  -6    5.14    2.28
  -3  -9   6    6.79    1.73
  -3  -9   6    8.13    2.87
  -3  -9   5    0.47    1.08
   3   9  -5    1.06    1.71
   3   9  -5    0.34    1.33
  -3  -9   5    0.48    1.57
  -3  -9   5    1.92    2.08
   3   9  -5   -0.25    1.40
   3   9  -5   -0.64    1.62
   3   9  -5    1.11    1.52
  -3  -9   5    0.02    0.93
  -3  -9   4    3.53    1.48
  -3  -9   4    4.82    1.60
   3   9  -4    3.59    1.95
   3   9  -4    4.86    2.26
   3   9  -4    4.22    2.34
   3   9  -4    6.91    2.24
  -3  -9   4    5.70    1.86
  -3  -9   3    7.94    1.96
   3   9  -3    6.64    2.08
   3   9  -3    8.04    2.47
   3   9  -3    6.79    2.42
   3   9  -3    9.89    2.74
  -3  -9   3    6.50    1.88
  -3  -9   2   12.32    2.55
   3   9  -2   12.28    2.44
   3   9  -2   17.97    3.46
   3   9  -2   14.05    1.98
   3   9  -2   12.53    3.07
   3   9  -2   15.62    3.13
  -3  -9   2   13.20    2.56
   3   9  -2   13.30    1.80
  -3  -9   1    2.11    1.28
   3   9  -1    1.54    1.53
   3   9  -1   -0.18    1.51
   3   9  -1    1.17    0.92
   3   9  -1    2.78    1.94
   3   9  -1    1.28    1.70
  -3  -9   1   -1.76    1.50
   3   9  -1    0.26    0.81
   3   9   0   31.46    4.38
  -3  -9   0   28.59    3.71
   3   9   0   32.51    4.33
   3   9   0   36.36    3.55
   3   9   0   33.33    4.47
  -3  -9   0   33.13    3.85
   3   9   0   31.09    3.83
   3   9   1   28.35    3.68
   3   9   1   38.41    4.82
   3   9   1   36.81    4.80
  -3  -9  -1   30.67    3.85
   3   9   1   25.76    3.95
   3   9   1   29.51    3.46
  -3  -9  -1   31.46    3.78
  -3  -9  -2   -1.80    1.45
   3   9   2    0.69    1.31
   3   9   2   -0.86    1.72
   3   9   2   -0.67    1.62
   3   9   2   -0.86    1.58
  -3  -9  -2    1.81    1.37
   3   9   2    0.39    1.11
   3   9   2    0.05    1.28
   3   9   3    5.65    2.07
  -3  -9  -3    4.77    1.92
   3   9   3    9.52    2.89
   3   9   3    5.26    2.33
   3   9   3    3.33    1.85
  -3  -9  -3    4.18    1.85
   3   9   3    4.60    1.82
   3   9   3    5.65    2.06
  -3  -9  -4   19.66    3.31
   3   9   4   20.41    3.67
  -3  -9  -4   26.41    3.90
   3   9   4   28.76    4.41
   3   9   4   25.43    4.07
   3   9   4   14.27    2.99
   3   9   4   22.62    3.62
   3   9   5    2.00    1.61
  -3  -9  -5   -0.85    1.23
   3   9   5    0.86    2.00
   3   9   5    2.79    1.91
   3   9   5   -1.14    1.57
  -3  -9  -5   -1.90    1.53
   3   9   5   -0.21    1.42
  -3  -9  -6   -0.76    1.28
   3   9   6    0.90    1.70
  -3 -10  10    7.31    2.42
  -3 -10  10    3.47    1.75
  -3 -10   9   -1.24    1.40
  -3 -10   9   -2.23    1.80
  -3 -10   9   -2.86    2.16
   3  10  -9   -2.32    2.23
   3  10  -9    1.05    1.93
  -3 -10   8    0.91    1.22
   3  10  -8    3.31    1.98
   3  10  -8    2.47    1.98
  -3 -10   8    2.42    1.68
  -3 -10   8    2.70    1.88
   3  10  -8    6.53    2.61
   3  10  -8    1.06    1.94
  -3 -10   8    4.24    2.24
  -3 -10   7    3.24    1.68
   3  10  -7    3.25    1.85
   3  10  -7    5.66    2.28
  -3 -10   7    3.09    1.78
   3  10  -7    3.51    2.01
  -3 -10   7    4.19    2.28
   3  10  -7    2.72    2.32
  -3 -10   7    4.61    1.53
  -3 -10   7    2.13    1.52
  -3 -10   6    5.66    1.98
   3  10  -6    3.12    1.62
   3  10  -6    7.24    2.74
  -3 -10   6    4.95    1.80
  -3 -10   6    0.73    1.71
   3  10  -6    6.97    3.07
   3  10  -6    4.90    2.32
   3  10  -6    4.62    2.14
  -3 -10   6    4.37    1.64
  -3 -10   6   10.64    3.74
  -3 -10   5    2.76    1.47
   3  10  -5    5.54    2.32
  -3 -10   5    5.91    1.99
   3  10  -5    1.08    1.46
  -3 -10   5    5.05    2.51
   3  10  -5    3.28    2.31
   3  10  -5   -0.40    2.06
   3  10  -5    4.57    2.10
  -3 -10   5    2.79    1.24
  -3 -10   5   13.80    3.84
  -3 -10   4   13.63    2.76
  -3 -10   4   18.23    2.83
   3  10  -4   11.27    2.70
   3  10  -4   15.51    3.56
   3  10  -4    9.73    3.30
   3  10  -4    9.56    2.81
  -3 -10   4   11.29    2.40
  -3 -10   3    1.34    1.22
   3  10  -3    3.03    1.48
   3  10  -3   -0.08    1.88
   3  10  -3   -0.52    1.49
   3  10  -3    2.12    1.65
  -3 -10   3    2.05    1.31
  -3 -10   2   -0.54    1.10
   3  10  -2   -0.13    1.39
   3  10  -2    0.57    1.96
   3  10  -2   -1.11    0.92
   3  10  -2   -2.16    1.62
   3  10  -2   -3.36    2.14
  -3 -10   2    3.50    2.57
  -3 -10   1    0.46    0.92
   3  10  -1    0.62    1.30
   3  10  -1    1.77    1.60
   3  10  -1   -0.14    1.52
   3  10  -1    1.11    1.66
  -3 -10   1   -1.37    1.62
  -3 -10   0    0.32    1.02
   3  10   0    4.08    1.80
   3  10   0    5.08    2.29
   3  10   0    2.00    1.70
   3  10   0    2.47    1.74
  -3 -10   0    0.54    1.13
   3  10   1   22.60    3.51
   3  10   1   22.58    4.11
   3  10   1   29.38    4.37
   3  10   1   24.70    4.09
  -3 -10  -1   23.22    3.53
  -3 -10  -1   28.77    3.90
   3  10   1   29.65    4.20
  -3 -10  -2    1.64    1.18
   3  10   2    1.56    1.53
   3  10   2    3.84    2.19
   3  10   2    0.27    1.51
   3  10   2    2.01    1.59
  -3 -10  -2    5.27    1.93
   3  10   2    1.71    1.46
  -3 -10  -3   -1.65    1.25
   3  10   3   -0.73    1.58
  -3 -10  -3   -1.43    1.64
   3  10   3    1.22    1.65
   3  10   3    2.23    1.93
   3  10   3    0.13    1.20
   3  10   3    2.26    1.42
   3  10   3   -0.18    1.20
  -3 -10  -4    2.79    1.56
   3  10   4    1.46    1.16
  -3 -11   9   -0.62    1.92
  -3 -11   8    1.47    1.56
  -3 -11   8   -1.34    2.05
   3  11  -7    2.22    2.09
   3  11  -7    3.69    2.22
  -3 -11   7   -0.01    1.38
  -3 -11   7    0.54    1.96
  -3 -11   6    0.42    1.24
   3  11  -6    1.17    1.53
   3  11  -6   -0.69    1.64
  -3 -11   6   -1.45    1.64
  -3 -11   6    3.15    2.28
   3  11  -6    1.87    2.09
   3  11  -6    0.25    1.88
  -3 -11   6    0.45    1.02
   3  11  -6    1.04    1.63
  -3 -11   5    6.76    1.91
   3  11  -5   11.61    3.01
  -3 -11   5    7.55    2.33
   3  11  -5    6.58    2.32
  -3 -11   5   10.33    3.37
   3  11  -5    9.73    3.17
   3  11  -5    8.35    3.01
  -3 -11   5    8.17    2.19
   3  11  -5   10.98    3.24
  -3 -11   4    1.89    1.63
   3  11  -4   -1.39    1.72
   3  11  -4   -1.09    1.54
   3  11  -4    2.06    2.01
   3  11  -4   -2.39    2.05
   3  11  -4    3.29    1.82
  -3 -11   4   -0.83    1.44
  -3 -11   3   -1.21    1.10
   3  11  -3   -0.11    1.38
   3  11  -3    0.20    1.61
   3  11  -3    0.87    1.64
   3  11  -3    1.46    1.72
  -3 -11   3   -0.12    1.50
  -3 -11   2    1.56    1.85
   3  11  -2   -1.13    1.40
   3  11  -2    2.50    2.46
   3  11  -2    2.30    2.27
   3  11  -2    2.17    2.00
  -3 -11   2   -0.54    1.33
  -3 -11   1    0.83    1.16
   3  11  -1    0.05    1.55
   3  11  -1    0.19    1.84
   3  11  -1   -3.89    2.51
  -3 -11   1   -0.65    1.37
   3  11  -1    0.06    1.83
  -3 -11   0    3.51    1.79
   3  11   0    1.91    1.53
   3  11   0    2.43    1.80
   3  11   0    2.98    2.14
  -3 -11   0    3.93    1.78
   3  11   0    3.56    1.92
   3  11   0   -0.89    1.71
  -3 -11  -1    0.98    1.17
   3  11   1    0.12    1.31
   3  11   2   -0.02    1.26
  -3 -12   6   -0.34    0.99
  -3 -12   5    0.77    1.24
   3  12  -4    0.75    1.43
   3  12  -4   -0.16    1.43
  -3 -12   4   -2.00    1.79
   3  12  -3    0.49    1.69
   3  12  -3    1.55    1.41
  -3 -12   3   -1.85    1.79
   3  12  -2    5.67    2.15
   3  12  -1    1.02    1.26
   3  12   0    1.12    1.31
  -4  12  -1    8.44    2.97
   4 -12   1    5.85    2.16
  -4  12  -2   -2.06    1.73
  -4  12  -2   -0.61    1.45
  -4  11   4   11.39    2.56
  -4  11   3   49.69    5.05
  -4  11   2   12.98    2.59
  -4  11   2   16.12    3.16
  -4  11   1   -1.90    1.21
  -4  11   1    2.06    1.36
  -4  11   0    1.38    1.55
   4 -11   0    3.63    2.19
   4 -11   0    2.59    1.87
  -4  11   0   -0.65    1.40
  -4  11  -1    0.42    1.46
   4 -11   1    1.50    1.49
   4 -11   1    0.42    1.37
   4 -11   1    0.55    1.89
  -4  11  -1    3.09    1.66
  -4  11  -1   -1.20    1.39
  -4  11  -2    6.06    2.58
   4 -11   2    2.68    1.61
   4 -11   2    3.87    2.10
  -4  11  -2    1.00    1.61
   4 -11   2   -2.42    1.95
  -4  11  -3    1.11    2.13
   4 -11   3    1.75    1.52
   4 -11   3    4.77    2.32
  -4  11  -3    2.48    2.20
   4 -11   3   -0.12    1.56
  -4  11  -4    4.20    2.41
   4 -11   4   -0.21    1.23
   4 -11   4    2.42    1.94
  -4  11  -4    2.60    1.69
  -4  10   5    5.69    2.11
  -4  10   4   10.49    3.06
   4 -10  -4    5.99    2.11
  -4  10   4    7.02    2.11
  -4  10   3    3.78    1.79
   4 -10  -3    5.76    2.01
  -4  10   3    4.50    1.71
  -4  10   3    6.06    2.30
  -4  10   2    0.99    1.42
  -4  10   2    3.53    2.07
   4 -10  -2    1.64    1.46
  -4  10   2    3.89    1.63
   4 -10  -2    1.42    1.49
  -4  10   2    4.15    1.97
   4 -10  -1   26.34    3.99
  -4  10   1   30.86    4.54
  -4  10   1   31.30    3.44
   4 -10  -1   36.06    4.30
  -4  10   1   35.26    4.43
   4 -10  -1   22.98    3.87
  -4  10   1   31.25    3.73
  -4  10   0    2.16    1.78
  -4  10   0   -1.78    1.87
   4 -10   0    1.91    1.48
  -4  10   0    0.78    0.83
   4 -10   0    2.31    2.04
   4 -10   0    2.11    1.87
  -4  10   0    0.57    1.29
  -4  10   0    1.82    1.36
  -4  10  -1   12.42    3.05
  -4  10  -1   13.69    3.37
   4 -10   1   11.53    2.70
   4 -10   1   13.54    3.09
  -4  10  -1   11.54    2.56
   4 -10   1   11.10    3.09
  -4  10  -1   15.88    2.82
  -4  10  -2    2.32    2.02
  -4  10  -2    4.77    2.03
   4 -10   2    1.99    1.38
   4 -10   2   -0.39    1.53
  -4  10  -2    1.43    1.60
   4 -10   2    1.68    1.76
  -4  10  -2    1.17    1.58
  -4  10  -3    9.67    2.97
  -4  10  -3    9.87    2.78
   4 -10   3    7.92    2.31
   4 -10   3    8.41    2.72
  -4  10  -3    9.05    2.79
   4 -10   3   10.77    2.83
  -4  10  -3    8.80    2.20
  -4  10  -4   15.36    3.59
  -4  10  -4   13.65    3.12
   4 -10   4   14.81    3.00
   4 -10   4   13.73    3.25
  -4  10  -4   20.83    3.63
   4 -10   4   12.51    3.06
  -4  10  -4   14.97    2.85
  -4  10  -5   16.61    3.55
   4 -10   5   20.00    3.39
   4 -10   5   23.10    4.21
  -4  10  -5   23.54    3.89
   4 -10   5   11.88    3.33
  -4  10  -5   21.36    3.38
   4 -10   6    7.74    2.27
  -4  10  -6    8.93    2.15
  -4  10  -7   15.91    3.21
   4 -10   7   12.09    2.70
  -4  10  -7    7.11    2.22
   4  -9  -7   -0.09    1.15
  -4   9   6   -0.37    1.09
  -4   9   6    1.05    1.68
   4  -9  -6    0.86    1.00
  -4   9   5    5.45    2.15
   4  -9  -5    0.56    1.22
  -4   9   5    3.06    1.68
  -4   9   4   13.45    3.13
   4  -9  -4   12.65    2.72
  -4   9   4    9.51    2.20
  -4   9   4    9.22    2.57
  -4   9   3    5.53    1.80
  -4   9   3    3.13    1.89
   4  -9  -3    5.98    1.98
  -4   9   3    4.57    1.67
   4  -9  -3    4.08    1.89
  -4   9   3    4.47    1.96
  -4   9   2   13.93    2.58
  -4   9   2   15.15    3.13
   4  -9  -2   13.96    2.89
  -4   9   2   15.46    2.51
   4  -9  -2   17.52    2.74
   4  -9  -2   11.94    2.68
  -4   9   2   16.45    2.78
  -4   9   1   11.73    2.60
  -4   9   1   11.00    2.71
   4  -9  -1   10.64    2.54
  -4   9   1    9.38    1.88
   4  -9  -1   12.11    2.61
   4  -9  -1    7.37    2.39
  -4   9   1    8.69    1.84
  -4   9   1   10.56    2.33
  -4   9   0   -0.53    1.26
  -4   9   0   -0.92    1.75
   4  -9   0    0.98    1.50
  -4   9   0   -0.38    0.78
  -4   9   0    0.03    0.92
   4  -9   0    1.05    1.53
  -4   9   0    1.33    1.41
  -4   9  -1    2.63    1.73
  -4   9  -1    1.36    1.69
   4  -9   1    3.51    1.74
   4  -9   1   -0.40    1.51
  -4   9  -1    0.67    1.22
   4  -9   1    2.18    1.48
  -4   9  -1    1.94    1.00
  -4   9  -1    2.52    1.38
  -4   9  -2    4.93    2.00
  -4   9  -2    6.14    2.22
   4  -9   2    7.21    2.14
   4  -9   2    6.74    2.45
  -4   9  -2    5.15    1.81
   4  -9   2    8.58    2.37
  -4   9  -2    8.38    1.98
  -4   9  -3   15.85    2.27
  -4   9  -3   15.31    3.25
  -4   9  -3   16.15    3.24
   4  -9   3   14.13    2.82
   4  -9   3   15.90    3.30
  -4   9  -3   15.39    2.94
   4  -9   3   16.90    3.22
  -4   9  -3   14.07    2.70
  -4   9  -3   15.46    2.17
  -4   9  -4   23.87    4.18
  -4   9  -4   25.77    4.02
   4  -9   4   23.78    3.53
   4  -9   4   23.81    4.11
   4  -9   4   23.59    3.94
  -4   9  -4   21.57    3.44
  -4   9  -4   21.66    3.23
  -4   9  -4   20.13    2.65
  -4   9  -4   23.70    3.08
  -4   9  -5    2.03    1.42
  -4   9  -5    6.11    2.31
   4  -9   5    2.82    1.49
  -4   9  -5    3.42    1.59
   4  -9   5    5.45    2.57
   4  -9   5    7.14    2.71
  -4   9  -5    3.61    1.66
  -4   9  -6   12.66    2.73
  -4   9  -6   13.06    3.02
   4  -9   6    9.75    2.58
  -4   9  -6   12.56    2.91
   4  -9   6   10.33    3.09
   4  -9   6    8.33    2.75
  -4   9  -6   11.22    2.48
  -4   9  -7    0.95    1.57
  -4   9  -7    0.50    1.41
   4  -9   7    0.49    1.13
  -4   9  -7   -0.23    1.52
   4  -9   7   -0.71    1.66
  -4   9  -7    0.63    1.27
  -4   9  -8    3.31    1.84
   4  -9   8    5.25    1.88
  -4   9  -8   -1.32    1.38
   4  -8  -9   -3.90    1.77
  -4   8   8   18.99    3.82
   4  -8  -8   20.37    3.55
  -4   8   7    3.55    1.72
  -4   8   7   -0.01    1.12
   4  -8  -7    2.53    1.61
  -4   8   6   -0.61    1.27
  -4   8   6   -0.08    1.09
   4  -8  -6    1.44    1.45
  -4   8   5   -0.56    1.27
  -4   8   5    0.80    1.55
   4  -8  -5    0.17    1.22
  -4   8   5   -0.76    1.34
  -4   8   4    5.81    2.04
   4  -8  -4    5.12    1.83
  -4   8   4    7.39    1.69
   4  -8  -4    7.16    1.87
  -4   8   4    8.71    2.23
  -4   8   4    7.86    2.05
  -4   8   3    6.24    1.59
  -4   8   3    5.42    2.09
   4  -8  -3    6.10    1.97
   4  -8  -3    8.16    1.76
   4  -8  -3    4.78    1.87
  -4   8   3    5.77    1.72
  -4   8   3    4.05    1.66
  -4   8   2    0.54    1.00
  -4   8   2    0.03    1.34
   4  -8  -2    0.40    1.22
   4  -8  -2    1.09    1.24
   4  -8  -2   -0.64    1.25
  -4   8   2   -1.12    1.13
  -4   8   2    0.26    0.86
  -4   8   2    0.69    1.41
  -4   8   1   -0.32    1.18
  -4   8   1   -0.32    1.42
   4  -8  -1   -0.79    1.42
  -4   8   1    1.33    2.25
   4  -8  -1    0.39    1.63
  -4   8   1    0.27    0.80
   4  -8  -1   -0.45    1.22
  -4   8   1   -0.67    1.17
  -4   8   0    1.28    1.43
  -4   8   0    3.77    1.99
   4  -8   0    1.21    1.25
   4  -8   0    2.94    1.52
  -4   8   0    1.18    1.16
   4  -8   0    1.16    1.42
  -4   8   0   -0.82    1.11
  -4   8   0    0.34    0.66
  -4   8  -1    1.07    0.63
  -4   8  -1    0.25    0.62
  -4   8  -1    0.68    1.42
  -4   8  -1   -0.63    1.46
   4  -8   1    1.10    1.37
   4  -8   1    0.00    1.19
  -4   8  -1    0.24    1.15
   4  -8   1   -0.73    1.24
  -4   8  -1   -0.16    1.30
  -4   8  -1   -0.12    0.55
  -4   8  -2   -0.04    0.86
  -4   8  -2   -1.30    1.76
  -4   8  -2    0.87    1.44
   4  -8   2    0.57    1.14
  -4   8  -2   -0.42    1.19
   4  -8   2   -0.15    1.48
  -4   8  -2    0.49    0.52
   4  -8   2   -0.09    1.32
  -4   8  -2   -1.19    1.43
  -4   8  -3   -0.89    1.09
  -4   8  -3    0.43    1.58
  -4   8  -3   -0.39    1.44
   4  -8   3    0.87    1.25
  -4   8  -3    0.31    1.20
   4  -8   3   -0.26    1.52
   4  -8   3    1.87    1.49
  -4   8  -3    3.05    1.78
  -4   8  -4    0.42    1.26
  -4   8  -4   -0.50    1.22
   4  -8   4    0.89    1.33
  -4   8  -4   -0.64    1.17
   4  -8   4    0.72    1.64
   4  -8   4   -1.44    1.54
  -4   8  -4    0.69    1.29
  -4   8  -5    1.97    1.27
  -4   8  -5    1.09    1.54
   4  -8   5    6.36    2.24
  -4   8  -5    0.94    1.39
   4  -8   5   -0.16    1.40
   4  -8   5    1.02    1.50
  -4   8  -5    2.66    1.69
   4  -8   6   45.49    4.52
  -4   8  -6   48.39    5.44
   4  -8   6   56.64    6.05
   4  -8   6   49.44    5.69
  -4   8  -6   51.59    4.96
  -4   8  -6   54.57    5.47
  -4   8  -6   49.32    4.96
  -4   8  -7    0.07    1.31
   4  -8   7   -0.51    2.00
  -4   8  -7    2.53    1.92
   4  -8   7   -1.21    1.32
  -4   8  -7    0.47    1.27
   4  -8   7   -0.13    1.70
   4  -8   7    1.89    1.47
  -4   8  -7    3.25    1.90
  -4   8  -8   24.44    3.92
   4  -8   8   18.69    2.86
  -4   8  -8   22.76    3.88
   4  -8   8   17.68    3.92
  -4   8  -8   18.90    3.27
  -4   8  -9    2.47    1.99
  -4   8  -9    2.00    1.28
   4  -7  -9    5.70    1.90
   4  -7  -8    0.92    1.23
  -4   7   8    1.01    1.72
  -4   7   8    0.89    1.35
  -4   7   7    9.36    2.52
   4  -7  -7    9.84    2.35
  -4   7   7    5.48    1.86
  -4   7   6    0.18    1.30
   4  -7  -6   -0.62    1.28
  -4   7   6    1.90    1.27
  -4   7   5    1.31    1.36
  -4   7   5    1.40    1.44
   4  -7  -5    0.39    1.02
   4  -7  -5    2.50    1.34
  -4   7   5    1.85    1.39
   4  -7  -4   -0.54    0.56
  -4   7   4   -0.82    1.08
  -4   7   4   -0.64    1.07
   4  -7  -4    0.57    1.04
   4  -7  -4   -0.49    0.70
   4  -7  -4   -0.57    1.12
  -4   7   4    0.85    1.11
  -4   7   3    9.21    1.91
  -4   7   3   10.11    2.43
   4  -7  -3    7.45    1.97
   4  -7  -3    8.90    1.53
   4  -7  -3   10.04    1.97
  -4   7   3    9.32    2.05
  -4   7   2   16.26    3.00
  -4   7   2   22.08    2.77
   4  -7  -2   16.91    2.20
   4  -7  -2   20.76    2.43
   4  -7  -2   17.51    2.71
   4  -7  -2   19.21    2.27
  -4   7   2   18.05    2.38
   4  -7  -2   20.90    2.52
   4  -7  -2   16.22    2.68
   4  -7  -2   19.72    2.13
  -4   7   2   13.59    2.28
  -4   7   2   16.21    2.03
  -4   7   1   12.58    1.80
  -4   7   1   15.43    2.45
   4  -7  -1   15.89    2.34
  -4   7   1   14.81    2.76
   4  -7  -1   15.33    2.27
   4  -7  -1   10.01    2.01
   4  -7  -1   13.83    2.14
   4  -7  -1   13.24    2.14
   4  -7  -1    8.86    2.37
   4  -7  -1   14.08    1.93
  -4   7   1   12.37    2.15
  -4   7   1   15.85    2.28
  -4   7   0    4.50    0.75
  -4   7   0    4.36    0.76
   4  -7   0    4.28    1.32
  -4   7   0    3.13    1.43
  -4   7   0    5.19    1.18
  -4   7   0    2.73    1.59
   4  -7   0    3.89    1.53
   4  -7   0    3.09    1.35
  -4   7   0    3.37    1.13
   4  -7   0    4.02    1.67
  -4   7   0    5.81    1.61
  -4   7  -1   69.91    3.44
  -4   7  -1   76.28    5.72
   4  -7   1   69.84    4.09
  -4   7  -1   71.77    5.67
   4  -7   1   70.05    5.26
  -4   7  -1   71.27    3.59
   4  -7   1   64.47    5.28
   4  -7   1   63.41    5.08
   4  -7   1   75.40    4.94
  -4   7  -1   71.66    5.06
  -4   7  -1   65.61    4.80
   4  -7   1   70.17    3.60
  -4   7  -2   20.86    2.20
   4  -7   2   19.36    2.95
  -4   7  -2   18.38    3.04
   4  -7   2   19.84    3.02
   4  -7   2   19.44    2.64
   4  -7   2   18.25    2.93
  -4   7  -2   19.92    2.86
  -4   7  -2   22.47    3.04
  -4   7  -2   21.32    2.38
   4  -7   2   21.64    2.53
  -4   7  -3    0.26    1.02
  -4   7  -3   -2.28    1.43
   4  -7   3    0.11    1.17
  -4   7  -3    1.51    1.44
   4  -7   3    0.46    1.50
   4  -7   3   -0.65    1.52
  -4   7  -3    0.51    1.20
  -4   7  -4   25.73    2.56
  -4   7  -4   23.81    3.58
   4  -7   4   24.80    3.76
   4  -7   4   18.55    3.51
  -4   7  -4   22.94    3.15
  -4   7  -4   24.00    3.30
  -4   7  -4   22.71    2.98
   4  -7   4   24.60    3.36
  -4   7  -5   13.66    2.56
  -4   7  -5   14.79    1.84
  -4   7  -5   14.10    2.97
   4  -7   5   11.89    2.43
  -4   7  -5   15.28    2.77
   4  -7   5   14.43    3.07
   4  -7   5   18.18    3.12
  -4   7  -5   16.60    2.85
  -4   7  -6   -2.78    1.77
   4  -7   6   -1.03    1.80
  -4   7  -6   -1.02    1.48
   4  -7   6   -0.25    1.15
  -4   7  -6   -0.66    1.24
   4  -7   6    2.47    1.99
   4  -7   6    2.08    1.76
   4  -7   6    2.60    1.20
  -4   7  -6   -0.59    1.01
  -4   7  -7    3.30    1.77
   4  -7   7    3.39    2.19
   4  -7   7    0.14    1.27
  -4   7  -7    0.60    1.49
   4  -7   7    2.74    1.90
   4  -7   7    4.10    2.01
  -4   7  -7    6.08    2.13
  -4   7  -8    1.20    1.69
   4  -7   8    0.18    1.68
   4  -7   8    0.10    1.18
  -4   7  -8    0.29    1.46
   4  -7   8    0.44    1.37
   4  -7   8   -1.55    1.49
  -4   7  -9   -0.96    1.79
   4  -7   9    1.46    1.07
   4  -7   9    1.53    1.65
   4  -6  -9    0.65    1.02
   4  -6  -9    3.19    2.01
  -4   6   9    1.00    1.46
  -4   6   9    1.67    1.62
  -4   6   8    4.41    2.22
  -4   6   8    0.90    1.28
   4  -6  -8    1.14    1.41
   4  -6  -8    0.56    1.62
  -4   6   7   10.08    2.66
   4  -6  -7   12.06    2.43
  -4   6   7   11.34    2.52
   4  -6  -6   70.22    5.29
  -4   6   6   70.39    5.99
  -4   6   6   70.29    5.39
   4  -6  -6   56.24    3.72
   4  -6  -5    0.42    0.21
   4  -6  -5    0.40    0.50
  -4   6   5    0.54    1.34
   4  -6  -5    0.53    1.04
   4  -6  -5    0.36    0.22
  -4   6   5    1.04    1.27
   4  -6  -5    0.37    0.76
  -4   6   5    0.78    1.21
   4  -6  -4   21.28    2.97
   4  -6  -4   24.87    1.96
   4  -6  -4   20.33    1.70
   4  -6  -4   22.30    1.82
  -4   6   4   19.40    2.67
  -4   6   4   18.47    2.52
   4  -6  -4   21.33    1.75
   4  -6  -4   24.73    2.63
   4  -6  -4   21.91    1.57
  -4   6   4   22.40    3.25
   4  -6  -4   21.34    1.55
  -4   6   4   25.73    3.29
   4  -6  -3   14.75    1.75
   4  -6  -3   15.02    1.76
  -4   6   3   11.30    2.37
   4  -6  -3   13.86    2.45
   4  -6  -3   14.53    1.62
   4  -6  -3   15.63    1.81
  -4   6   3   14.53    2.20
  -4   6   3   13.43    2.28
   4  -6  -3   12.76    2.25
   4  -6  -3   14.75    1.52
  -4   6   3   15.92    2.52
  -4   6   3   12.59    1.48
   4  -6  -2   23.19    2.46
   4  -6  -2   23.74    2.45
  -4   6   2   17.82    2.82
   4  -6  -2   21.84    2.31
  -4   6   2   20.53    2.39
   4  -6  -2   16.89    2.85
   4  -6  -2   20.59    2.85
   4  -6  -2   21.55    2.32
  -4   6   2   19.82    2.68
   4  -6  -2   18.17    2.46
   4  -6  -2   21.36    2.00
  -4   6   2   20.98    2.14
   4  -6  -1    4.49    1.34
   4  -6  -1    5.80    1.52
   4  -6  -1    4.58    1.14
  -4   6   1    4.13    1.74
   4  -6  -1    2.06    1.06
   4  -6  -1    3.93    1.31
   4  -6  -1    3.96    1.24
   4  -6  -1    3.92    1.19
  -4   6   1    3.45    1.06
   4  -6  -1    4.15    1.42
  -4   6   1    3.56    1.14
   4  -6  -1    4.10    1.32
   4  -6  -1    3.83    1.13
  -4   6   1    1.63    1.00
  -4   6   1    3.82    0.46
  -4   6   1    3.82    0.52
   4  -6   0  232.74    7.48
   4  -6   0  245.23    8.89
   4  -6   0  228.25    9.14
  -4   6   0  246.97    9.76
   4  -6   0  245.82    8.80
   4  -6   0  247.74    8.66
   4  -6   0  242.08    8.54
   4  -6   0  226.96    8.89
  -4   6   0  237.86    6.75
   4  -6   0  251.61    9.11
  -4   6   0  239.45    8.76
   4  -6   0  234.55    6.77
   4  -6   0  238.06    7.68
   4  -6   0  238.69    7.59
  -4   6   0  253.30    8.25
   4  -6   0  237.31    5.79
  -4   6   0  250.69    5.69
  -4   6  -1   48.32    3.83
   4  -6   1   39.06    3.92
  -4   6  -1   38.30    4.02
   4  -6   1   43.38    3.94
   4  -6   1   39.37    4.00
   4  -6   1   46.03    3.98
  -4   6  -1   45.06    3.99
  -4   6  -1   40.23    3.56
   4  -6   1   42.48    2.98
  -4   6  -2  348.34    8.85
  -4   6  -2  376.94   10.15
   4  -6   2  349.19    7.48
   4  -6   2  340.32   11.17
  -4   6  -2  341.52   11.60
   4  -6   2  371.33   11.68
   4  -6   2  320.10   11.13
  -4   6  -2  360.42   11.09
  -4   6  -2  341.99   10.53
  -4   6  -2  358.04    9.58
   4  -6   2  351.84    9.35
  -4   6  -3    5.32    1.55
   4  -6   3    4.01    1.41
  -4   6  -3    6.09    1.60
   4  -6   3    4.82    0.76
  -4   6  -3    6.43    2.06
   4  -6   3    5.48    1.66
  -4   6  -3    6.37    1.90
   4  -6   3    4.51    1.55
   4  -6   3    5.05    1.82
  -4   6  -3    3.16    1.41
  -4   6  -4    5.98    1.60
  -4   6  -4    6.08    1.50
   4  -6   4    4.31    1.68
  -4   6  -4    3.75    1.78
  -4   6  -4    5.20    1.69
   4  -6   4    1.38    1.35
   4  -6   4    4.28    1.57
  -4   6  -4    5.76    1.65
  -4   6  -5    1.56    1.33
  -4   6  -5    1.64    0.95
  -4   6  -5    1.17    1.33
   4  -6   5    0.53    1.48
  -4   6  -5   -0.43    1.29
   4  -6   5    1.15    1.67
  -4   6  -5    2.01    1.22
   4  -6   5    0.67    0.53
  -4   6  -6    9.72    2.16
  -4   6  -6    8.59    1.51
   4  -6   6    9.29    2.68
  -4   6  -6    9.03    2.29
   4  -6   6    5.01    1.96
   4  -6   6   10.77    2.54
   4  -6   6    7.22    1.40
  -4   6  -7   -0.78    1.49
   4  -6   7    3.17    2.07
  -4   6  -7   -0.84    1.18
   4  -6   7    2.59    2.03
   4  -6   7    3.17    1.85
  -4   6  -8    1.50    1.49
   4  -6   8   -0.59    1.76
   4  -6   8   -0.09    0.98
  -4   6  -8    2.47    1.74
   4  -6   8    4.67    2.44
   4  -6   8   -1.52    1.97
  -4   6  -9    2.96    1.73
   4  -6   9    4.50    2.19
   4  -6   9   -0.59    2.27
   4  -6   9    2.93    1.32
  -4   6  -9    3.99    1.78
   4  -6   9    4.34    3.26
   4  -6   9    8.72    2.44
   4  -6   9    0.02    1.48
   4  -6  10    0.01    1.62
   4  -6  10    2.25    2.38
   4  -5 -10   30.79    4.75
  -4   5  10   33.18    5.10
  -4   5  10   34.19    4.54
   4  -5  -9   -0.75    0.88
   4  -5  -9    1.56    1.60
  -4   5   9   -3.35    2.00
  -4   5   9    0.10    1.20
  -4   5   8    2.56    1.57
   4  -5  -8    2.08    1.12
   4  -5  -8    4.66    1.91
  -4   5   7    3.97    1.87
   4  -5  -7    1.64    1.18
   4  -5  -7    1.82    1.46
  -4   5   7    0.65    1.31
  -4   5   6    4.17    2.07
   4  -5  -6    3.30    1.37
   4  -5  -6    1.32    0.88
  -4   5   6    1.98    1.32
  -4   5   6    0.45    1.28
   4  -5  -5   20.45    2.71
  -4   5   5   18.31    3.03
  -4   5   5   22.90    2.87
   4  -5  -5   24.17    2.33
  -4   5   5   20.95    2.92
  -4   5   4   12.55    2.17
   4  -5  -4   10.85    1.09
   4  -5  -4    9.60    1.04
   4  -5  -4    9.59    1.02
  -4   5   4    9.92    2.24
   4  -5  -4    9.69    1.97
   4  -5  -4   13.96    1.18
   4  -5  -4   10.42    1.05
  -4   5   4    7.76    1.71
   4  -5  -4   11.00    1.79
   4  -5  -4   10.23    0.94
  -4   5   4    7.62    1.95
   4  -5  -3   24.15    2.02
   4  -5  -3   19.66    2.65
   4  -5  -3   25.72    2.05
  -4   5   3   21.77    3.14
   4  -5  -3   23.76    1.97
   4  -5  -3   25.02    1.95
   4  -5  -3   25.76    2.00
  -4   5   3   26.16    2.90
   4  -5  -3   19.78    2.43
  -4   5   3   23.22    2.63
   4  -5  -3   23.23    1.72
   4  -5  -3   23.30    2.82
  -4   5   3   18.95    2.58
  -4   5   3   24.01    1.90
   4  -5  -2   42.88    3.57
   4  -5  -2   44.61    3.08
  -4   5   2   37.30    3.85
   4  -5  -2   45.93    3.11
   4  -5  -2   44.84    3.02
   4  -5  -2   42.74    2.89
  -4   5   2   40.95    3.69
   4  -5  -2   41.24    3.45
  -4   5   2   41.47    3.15
  -4   5   2   36.79    3.44
   4  -5  -2   44.87    2.67
   4  -5  -2   42.89    3.51
   4  -5  -2   36.77    3.56
  -4   5   2   41.94    2.80
   4  -5  -2   43.77    3.21
  -4   5   1  116.64    6.12
   4  -5  -1  108.19    5.20
   4  -5  -1  120.82    5.58
  -4   5   1   96.93    5.94
   4  -5  -1  113.58    5.34
   4  -5  -1  115.14    5.28
   4  -5  -1  111.46    5.10
   4  -5  -1  113.28    6.15
   4  -5  -1  101.98    5.45
  -4   5   1  111.80    4.79
   4  -5  -1  120.32    6.39
  -4   5   1  111.04    5.80
   4  -5  -1  110.49    4.53
   4  -5  -1  110.98    5.16
  -4   5   1  104.20    4.78
   4  -5  -1  106.67    4.63
  -4   5   1  111.00    3.34
   4  -5  -1  106.10    3.41
   4  -5   0    2.69    0.87
  -4   5   0    3.57    1.45
  -4   5   0    3.22    0.78
   4  -5   0    2.36    1.20
   4  -5   0    1.68    0.69
  -4   5   0    3.65    1.55
   4  -5   0    1.13    1.12
   4  -5   0    3.28    1.27
  -4   5   0    1.64    0.91
   4  -5   0    1.81    0.98
   4  -5   0    5.09    1.39
   4  -5   0    3.23    1.40
   4  -5   0    3.07    1.11
  -4   5   0    2.47    1.02
   4  -5   0    2.01    0.70
  -4   5  -1  166.99    6.96
   4  -5   1  162.72    5.43
   4  -5   1  165.66    7.45
   4  -5   1  165.36    7.16
  -4   5  -1  145.04    7.12
   4  -5   1  164.33    7.18
   4  -5   1  168.48    7.20
   4  -5   1  153.02    7.15
  -4   5  -1  158.37    7.13
   4  -5   1  169.17    6.42
   4  -5   1  153.24    5.07
   4  -5   1  161.42    4.69
  -4   5  -1  158.60    6.58
   4  -5   1  154.57    5.64
   4  -5   2    5.66    1.42
  -4   5  -2    6.77    1.56
  -4   5  -2   10.63    1.66
   4  -5   2    6.90    1.06
   4  -5   2    8.23    1.97
  -4   5  -2    7.04    1.91
  -4   5  -2    7.00    1.60
   4  -5   2    6.04    1.82
   4  -5   2    8.39    2.36
   4  -5   2    7.00    1.03
  -4   5  -2    8.45    2.01
  -4   5  -2    8.00    1.67
  -4   5  -3  434.28   10.68
  -4   5  -3  445.42   10.70
   4  -5   3  440.96   12.99
  -4   5  -3  405.54   11.97
   4  -5   3  437.54   12.73
   4  -5   3  379.09   11.92
  -4   5  -3  416.27   11.93
  -4   5  -3  404.82   11.68
  -4   5  -3  426.69   11.43
   4  -5   3  427.80   11.21
  -4   5  -4  313.37    8.83
   4  -5   4  289.86   11.25
  -4   5  -4  287.58   10.39
   4  -5   4  323.25   11.52
   4  -5   4  281.49   10.47
  -4   5  -4  311.85   10.55
   4  -5   4  296.20    4.58
  -4   5  -4  281.98   10.19
  -4   5  -4  307.09   10.34
  -4   5  -5    2.30    1.50
  -4   5  -5    3.09    1.12
  -4   5  -5    3.13    1.54
  -4   5  -5    3.00    1.52
   4  -5   5    1.59    1.33
   4  -5   5    3.40    1.71
   4  -5   5    2.00    1.43
   4  -5   5    2.64    0.93
  -4   5  -6   10.56    2.56
  -4   5  -6   11.09    1.82
  -4   5  -6    8.91    2.16
   4  -5   6   12.16    2.80
   4  -5   6    9.47    2.45
   4  -5   6    7.67    2.16
   4  -5   6    8.32    1.23
  -4   5  -7    7.07    2.37
  -4   5  -7   11.57    1.92
   4  -5   7   12.48    3.09
  -4   5  -7   11.73    2.71
   4  -5   7   10.59    2.99
   4  -5   7    6.13    2.41
  -4   5  -8    4.83    1.95
   4  -5   8    1.94    1.93
  -4   5  -8    3.99    1.85
   4  -5   8    3.55    2.26
   4  -5   8    4.82    1.83
  -4   5  -9   10.85    2.99
   4  -5   9    8.44    2.30
   4  -5   9    6.19    2.49
  -4   5  -9   13.05    2.85
   4  -5   9   10.33    2.94
   4  -5   9   12.58    3.14
  -4   5 -10    2.35    2.15
   4  -5  10    2.54    1.78
   4  -5  10    1.55    1.81
   4  -5  10    5.10    2.48
   4  -5  11    5.61    2.19
   4  -5  11   13.40    3.46
   4  -5  11   10.69    3.17
   4  -4 -11    3.99    2.27
  -4   4  11    3.71    2.61
   4  -4 -10   -1.47    1.47
  -4   4  10   -0.56    1.47
   4  -4  -9    4.04    1.23
   4  -4  -9    1.78    1.59
  -4   4   9    6.72    2.31
   4  -4  -8   20.85    2.58
   4  -4  -8   21.76    3.59
  -4   4   8   22.43    3.18
  -4   4   8   23.21    3.72
  -4   4   7   -0.81    1.41
   4  -4  -7   -0.65    0.94
   4  -4  -7   -0.19    1.08
   4  -4  -7    0.04    0.44
  -4   4   7    0.86    1.13
   4  -4  -6   44.32    3.70
  -4   4   6   37.44    4.20
   4  -4  -6   40.40    4.33
   4  -4  -6   39.62    2.66
  -4   4   6   37.48    3.73
  -4   4   6   41.29    4.25
   4  -4  -5   98.98    5.38
  -4   4   5   99.79    6.33
   4  -4  -5   95.38    4.37
  -4   4   5   97.11    5.60
  -4   4   5   99.59    6.05
   4  -4  -4   33.83    1.48
   4  -4  -4   34.82    3.32
   4  -4  -4   32.18    1.44
  -4   4   4   29.99    3.55
   4  -4  -4   32.46    1.42
   4  -4  -4   33.63    1.39
   4  -4  -4   33.97    1.41
   4  -4  -4   34.82    2.86
  -4   4   4   34.36    3.15
   4  -4  -4   34.99    1.46
  -4   4   4   37.85    3.65
   4  -4  -4   36.58    3.49
  -4   4   4   34.03    1.51
   4  -4  -3   55.72    3.70
  -4   4   3   58.95    4.65
   4  -4  -3   49.00    2.53
   4  -4  -3   52.61    3.94
   4  -4  -3   52.85    2.65
   4  -4  -3   46.22    3.78
  -4   4   3   47.04    4.23
   4  -4  -3   52.63    2.61
   4  -4  -3   53.56    2.58
  -4   4   3   52.83    3.85
   4  -4  -3   50.74    3.50
  -4   4   3   49.53    3.53
   4  -4  -3   54.20    4.27
   4  -4  -3   54.02    2.39
  -4   4   3   48.45    3.94
   4  -4  -3   49.89    3.80
   4  -4  -3   49.75    2.47
  -4   4   3   50.63    2.51
   4  -4  -3   47.78    1.46
   4  -4  -3   50.85    1.51
   4  -4  -2    0.08    0.34
  -4   4   2    0.25    0.35
  -4   4   2    1.00    1.22
   4  -4  -2   -0.09    0.83
   4  -4  -2    0.22    0.47
   4  -4  -2    0.72    0.77
  -4   4   2    0.13    1.10
   4  -4  -2    0.18    0.64
   4  -4  -2    0.02    0.76
   4  -4  -2    0.93    0.78
   4  -4  -2    0.19    0.67
  -4   4   2    0.68    0.67
   4  -4  -2   -0.19    0.64
  -4   4   2    0.98    1.14
   4  -4  -2   -0.16    0.95
   4  -4  -2   -0.89    1.23
   4  -4  -2    0.24    0.94
   4  -4  -2   -0.39    0.91
  -4   4   2    0.47    1.04
   4  -4  -1  247.52    6.66
  -4   4   1  266.97    9.02
   4  -4  -1  252.40    7.62
   4  -4  -1  253.64    7.26
  -4   4   1  248.65    8.70
   4  -4  -1  256.39    7.45
   4  -4  -1  259.87    7.20
  -4   4   1  288.43    9.13
   4  -4  -1  239.40    8.01
   4  -4  -1  263.83    9.28
   4  -4  -1  247.88    7.95
   4  -4  -1  258.22    6.54
  -4   4   1  241.44    8.31
   4  -4  -1  249.68    7.12
   4  -4  -1  255.28    7.66
  -4   4   1  253.73    7.04
   4  -4  -1  245.56    5.61
  -4   4   1  263.98    5.78
  -4   4   0   95.93    5.26
   4  -4   0   93.41    4.83
   4  -4   0   94.53    5.10
  -4   4   0   91.52    5.36
   4  -4   0   97.65    5.00
   4  -4   0   97.20    4.85
   4  -4   0   97.12    5.26
  -4   4   0   89.04    5.18
   4  -4   0   96.77    4.34
   4  -4   0   89.69    3.86
  -4   4   0   94.06    4.59
   4  -4   0   83.87    3.81
  -4   4   0   90.66    3.86
   4  -4   0   96.18    3.79
  -4   4  -1   16.06    2.21
   4  -4   1   16.47    1.81
   4  -4   1   13.06    2.16
   4  -4   1   14.89    2.25
  -4   4  -1   11.15    2.00
   4  -4   1   15.26    2.26
   4  -4   1   12.76    2.11
   4  -4   1   14.03    1.88
   4  -4   1   13.58    1.32
  -4   4  -1   13.75    2.16
  -4   4  -1   16.50    2.23
   4  -4   1   15.92    1.41
   4  -4   1   13.58    1.76
  -4   4  -2   94.61    4.65
  -4   4  -2   99.14    5.13
   4  -4   2   92.93    3.30
   4  -4   2   88.05    5.63
   4  -4   2  101.61    5.78
  -4   4  -2   90.22    5.24
   4  -4   2   99.83    5.57
   4  -4   2   84.16    5.27
  -4   4  -2   90.83    5.36
   4  -4   2   87.23    2.52
   4  -4   2   90.84    2.57
  -4   4  -2   90.83    5.12
  -4   4  -2   89.28    5.04
   4  -4   2   93.23    4.86
  -4   4  -3   22.27    2.51
  -4   4  -3   22.97    2.64
   4  -4   3   25.62    3.28
  -4   4  -3   22.60    2.82
   4  -4   3   23.77    3.05
   4  -4   3   19.95    2.75
  -4   4  -3   23.58    2.89
  -4   4  -3   21.72    2.74
  -4   4  -3   21.60    2.76
   4  -4   3   22.55    2.62
  -4   4  -4    1.80    1.49
  -4   4  -4    0.92    1.01
   4  -4   4    0.51    1.40
  -4   4  -4   -0.30    1.13
  -4   4  -4    0.85    1.00
   4  -4   4    1.29    1.61
   4  -4   4   -0.54    1.05
  -4   4  -5  133.87    6.20
   4  -4   5  128.87    7.71
   4  -4   5  116.38    3.62
   4  -4   5  140.91    7.88
   4  -4   5  113.32    6.75
   4  -4   5  124.18    3.42
  -4   4  -5  119.69    6.81
  -4   4  -5  126.96    7.11
  -4   4  -6   -0.89    1.49
  -4   4  -6    1.12    1.00
   4  -4   6   -2.72    2.11
  -4   4  -6    0.42    1.38
   4  -4   6   -1.28    1.72
   4  -4   6    0.53    1.17
   4  -4   6    0.80    0.27
  -4   4  -7    5.98    2.16
   4  -4   7    2.79    1.96
  -4   4  -7    3.20    1.67
   4  -4   7    8.25    2.94
   4  -4   7    3.55    1.55
  -4   4  -8    0.77    1.65
   4  -4   8    2.24    1.69
   4  -4   8    1.84    2.02
  -4   4  -8    0.52    1.10
   4  -4   8    2.15    2.08
   4  -4   8    0.41    1.53
  -4   4  -9    9.74    2.64
   4  -4   9    6.55    2.06
   4  -4   9   10.73    3.02
  -4   4  -9    8.05    2.43
   4  -4   9   10.67    3.08
   4  -4   9    8.85    2.59
  -4   4 -10    1.52    1.52
   4  -4  10   -3.40    2.11
   4  -4  10    1.84    1.95
  -4   4 -10   -0.78    0.99
   4  -4  10    0.38    2.03
   4  -4  10    2.46    2.23
   4  -4  10    6.27    2.47
   4  -4  11    2.83    1.78
   4  -4  11   -3.19    2.25
   4  -4  11   -1.93    1.78
   4  -3 -11   -0.38    1.79
  -4   3  11   -0.46    1.58
   4  -3 -10   28.17    4.24
  -4   3  10   18.96    3.60
   4  -3  -9    2.85    0.77
   4  -3  -9    2.64    1.40
   4  -3  -9    2.92    0.96
  -4   3   9    3.77    1.83
   4  -3  -8   -0.10    0.60
   4  -3  -8    0.42    0.43
   4  -3  -8    0.83    0.70
   4  -3  -8   -0.78    1.41
   4  -3  -8    0.74    0.34
  -4   3   8    1.55    1.37
   4  -3  -7   16.72    2.14
   4  -3  -7   18.39    2.98
   4  -3  -7   17.11    1.58
   4  -3  -7   19.14    1.59
   4  -3  -7   19.22    1.56
   4  -3  -6   95.06    5.03
  -4   3   6   98.81    6.39
   4  -3  -6   98.56    6.41
   4  -3  -6   96.49    4.08
  -4   3   6   99.65    6.21
   4  -3  -6  103.58    3.40
   4  -3  -6  115.85    3.47
  -4   3   5   16.38    2.70
   4  -3  -5   17.39    2.77
   4  -3  -5   18.62    1.95
   4  -3  -5   16.77    2.22
  -4   3   5   15.14    2.42
   4  -3  -5   18.48    1.39
   4  -3  -5   14.69    1.18
   4  -3  -4   88.75    2.77
  -4   3   4   90.05    5.57
   4  -3  -4   85.26    4.89
  -4   3   4   80.44    5.33
   4  -3  -4   86.94    5.28
   4  -3  -4   85.04    4.17
   4  -3  -4   81.71    1.99
   4  -3  -4   83.98    5.36
  -4   3   4   93.08    5.40
   4  -3  -4   93.60    5.37
   4  -3  -4   84.76    2.88
  -4   3   4   83.24    2.15
   4  -3  -4   87.75    2.89
   4  -3  -3    0.27    0.41
  -4   3   3    0.45    0.43
  -4   3   3    0.34    1.25
   4  -3  -3    0.20    0.43
   4  -3  -3    0.56    0.81
   4  -3  -3    0.61    0.48
   4  -3  -3    0.19    0.50
   4  -3  -3    0.45    0.55
  -4   3   3    0.29    1.03
   4  -3  -3   -0.24    0.49
  -4   3   3   -0.02    0.51
   4  -3  -3    0.20    0.53
   4  -3  -3    0.25    0.44
   4  -3  -3   -0.54    0.81
   4  -3  -3    0.16    0.82
   4  -3  -3    1.00    1.09
   4  -3  -3   -0.18    0.84
   4  -3  -3    0.16    0.63
  -4   3   3   -0.58    1.11
   4  -3  -3   -0.05    0.81
  -4   3   2    9.55    1.95
   4  -3  -2    9.81    1.93
   4  -3  -2    7.88    1.59
   4  -3  -2    9.71    1.44
   4  -3  -2    8.95    1.14
  -4   3   2    9.96    1.72
   4  -3  -2    8.67    1.33
   4  -3  -2    8.89    1.76
  -4   3   2    8.37    1.77
  -4   3   2    7.56    1.13
   4  -3  -2    9.34    1.30
   4  -3  -2    8.89    1.27
  -4   3   2    8.64    1.78
   4  -3  -2    7.48    1.60
   4  -3  -2    6.41    1.59
   4  -3  -2    7.28    1.73
   4  -3  -2    8.08    1.51
   4  -3  -2    7.14    1.40
  -4   3   2    7.96    1.76
   4  -3  -2    7.70    1.35
   4  -3  -2    9.21    1.16
  -4   3   2    7.99    1.08
   4  -3  -1    1.35    0.61
  -4   3   1    1.29    1.33
  -4   3   1    1.96    0.74
   4  -3  -1    0.75    0.59
   4  -3  -1    0.97    0.81
   4  -3  -1    0.63    0.95
  -4   3   1    0.86    1.06
  -4   3   1    1.41    0.75
   4  -3  -1    1.69    1.03
  -4   3   1    1.32    0.79
   4  -3  -1    0.95    0.93
   4  -3  -1    1.10    0.66
   4  -3  -1    1.08    0.74
  -4   3   1    2.56    1.29
   4  -3  -1    1.46    0.66
  -4   3   0  182.99    7.16
   4  -3   0  178.79    5.97
   4  -3   0  171.93    4.88
   4  -3   0  181.37    6.85
  -4   3   0  166.57    6.64
   4  -3   0  176.50    6.24
  -4   3   0  172.49    6.58
  -4   3   0  185.29    7.37
   4  -3   0  157.10    6.57
   4  -3   0  175.21    6.39
   4  -3   0  168.77    5.65
   4  -3   0  179.64    5.70
  -4   3   0  173.38    6.91
   4  -3   0  168.23    4.61
  -4   3   0  166.71    5.88
   4  -3   0  172.43    5.65
  -4   3   0  172.11    5.53
  -4   3  -1   48.58    3.73
   4  -3   1   39.20    2.07
   4  -3   1   46.14    2.77
   4  -3   1   47.31    3.64
  -4   3  -1   43.59    3.44
   4  -3   1   45.25    3.50
  -4   3  -1   41.85    3.52
   4  -3   1   39.89    3.55
   4  -3   1   48.03    3.88
   4  -3   1   38.81    2.44
  -4   3  -1   44.40    3.63
   4  -3   1   43.38    3.06
   4  -3   1   41.66    1.75
  -4   3  -1   40.60    3.20
   4  -3   1   46.57    3.23
  -4   3  -2  108.22    5.14
   4  -3   2  106.28    2.76
  -4   3  -2  126.01    5.98
   4  -3   2  105.43    5.77
  -4   3  -2  101.01    5.12
   4  -3   2  110.72    6.24
   4  -3   2  117.58    5.87
  -4   3  -2  116.79    6.20
   4  -3   2  104.07    5.67
  -4   3  -2  117.50    5.99
   4  -3   2  105.55    3.45
   4  -3   2  112.91    5.25
  -4   3  -2  103.41    5.27
   4  -3   2  108.93    5.34
   4  -3   3   13.51    2.18
  -4   3  -3   15.62    2.38
  -4   3  -3   12.17    1.98
   4  -3   3   13.43    2.35
  -4   3  -3    9.74    1.72
  -4   3  -3   10.10    1.93
   4  -3   3   12.74    2.31
   4  -3   3   12.59    2.20
   4  -3   3   11.69    0.96
  -4   3  -3   11.25    2.08
  -4   3  -4   35.24    3.29
   4  -3   4   31.52    1.34
   4  -3   4   41.97    4.20
   4  -3   4   39.48    3.93
   4  -3   4   34.43    3.54
  -4   3  -4   36.41    3.55
  -4   3  -4   37.89    3.79
   4  -3   5  139.62    7.93
   4  -3   5  129.61    7.44
   4  -3   5  127.16    6.95
  -4   3  -5  126.12    6.75
  -4   3  -5  140.30    7.56
   4  -3   6   45.66    4.87
   4  -3   6   51.81    5.05
   4  -3   6   43.91    4.33
  -4   3  -6   49.35    4.53
  -4   3  -6   48.93    4.75
  -4   3  -7   11.07    2.70
   4  -3   7    9.36    2.04
   4  -3   7    5.41    2.22
  -4   3  -7    6.29    1.88
   4  -3   7    9.24    2.53
   4  -3   7    4.75    1.89
  -4   3  -8    1.73    1.62
   4  -3   8   -0.67    1.23
   4  -3   8    0.95    1.62
  -4   3  -8   -0.63    1.45
   4  -3   8   -0.16    1.76
   4  -3   8    1.76    1.63
  -4   3  -9   23.71    4.04
   4  -3   9   18.67    2.92
   4  -3   9   23.77    4.29
  -4   3  -9   18.76    3.35
   4  -3   9   21.93    4.01
   4  -3   9   19.73    3.30
   4  -3  10    0.76    1.12
   4  -3  10   -0.01    2.10
  -4   3 -10    2.28    1.97
   4  -3  10    2.20    2.25
   4  -3  10   -2.01    1.81
   4  -3  10   -2.32    1.75
   4  -3  11   21.29    4.22
   4  -3  11   26.23    4.19
   4  -2 -12    2.21    1.93
  -4   2  12   -2.51    1.95
  -4   2  12    1.46    2.04
  -4   2  12    0.02    1.93
   4  -2 -11    0.82    1.85
  -4   2  11    4.21    2.06
  -4   2  11    5.00    2.03
  -4   2  11    0.55    1.89
   4  -2 -10   -0.56    1.14
   4  -2 -10   -0.49    0.85
   4  -2 -10    0.64    1.64
  -4   2  10    0.35    1.38
  -4   2  10    0.07    1.65
  -4   2  10   -1.03    2.03
   4  -2  -9    6.15    1.43
   4  -2  -9    1.80    0.67
   4  -2  -9    5.56    1.25
   4  -2  -9    3.85    1.95
  -4   2   9    4.73    1.60
  -4   2   9    4.60    1.77
  -4   2   9    4.10    2.05
   4  -2  -8    2.41    1.04
   4  -2  -8    1.94    0.88
   4  -2  -8    1.98    0.99
   4  -2  -8    0.49    1.04
   4  -2  -8    1.72    0.66
  -4   2   8    1.34    1.17
  -4   2   7  234.78    9.72
   4  -2  -7  231.67    7.25
   4  -2  -7  251.85   10.28
   4  -2  -7  225.12    5.95
   4  -2  -7  255.72    6.76
   4  -2  -7  254.89    7.01
  -4   2   6   37.72    3.77
   4  -2  -6   39.59    3.09
   4  -2  -6   39.28    3.88
   4  -2  -6   39.55    2.64
  -4   2   6   36.07    3.64
   4  -2  -6   37.83    2.44
   4  -2  -6   38.55    2.57
  -4   2   5   23.79    3.10
   4  -2  -5   20.01    2.26
  -4   2   5   17.29    2.43
  -4   2   5   20.29    2.93
   4  -2  -5   19.56    2.79
   4  -2  -5   19.28    1.99
  -4   2   5   23.00    2.86
   4  -2  -5   21.51    2.74
   4  -2  -5   19.73    2.71
   4  -2  -5   19.94    1.76
   4  -2  -5   21.60    1.85
  -4   2   4   22.73    2.85
  -4   2   4   26.17    3.08
   4  -2  -4   22.05    2.73
  -4   2   4   20.73    2.67
   4  -2  -4   20.89    2.61
   4  -2  -4   20.75    2.29
   4  -2  -4   18.25    0.91
   4  -2  -4   16.55    0.83
   4  -2  -4   17.53    0.87
   4  -2  -4   17.12    0.84
   4  -2  -4   21.85    2.63
   4  -2  -4   19.05    2.08
   4  -2  -4   18.23    1.03
   4  -2  -4   17.81    2.50
  -4   2   4   17.70    2.41
   4  -2  -4   17.22    2.36
   4  -2  -4   20.78    2.58
  -4   2   4   19.40    1.14
  -4   2   4   20.65    1.67
   4  -2  -4   20.45    2.46
   4  -2  -4   20.52    1.73
  -4   2   3    0.47    0.43
  -4   2   3    2.52    1.45
   4  -2  -3    0.22    0.38
   4  -2  -3    0.97    1.05
   4  -2  -3   -0.04    0.62
   4  -2  -3    1.28    0.87
   4  -2  -3    0.85    0.60
  -4   2   3   -0.01    0.99
   4  -2  -3    0.10    0.60
   4  -2  -3   -0.06    0.80
  -4   2   3   -0.42    0.96
  -4   2   3    0.81    0.49
   4  -2  -3    0.08    0.48
   4  -2  -3    0.17    1.01
   4  -2  -3    0.32    0.48
   4  -2  -3   -0.14    0.44
   4  -2  -3    0.74    0.86
  -4   2   3    0.06    0.44
   4  -2  -3   -0.34    0.93
   4  -2  -3    0.50    0.55
   4  -2  -3   -0.27    0.84
   4  -2  -3    0.36    0.66
   4  -2  -3   -0.50    0.97
  -4   2   3    0.31    0.98
   4  -2  -3   -0.29    0.96
   4  -2  -2   50.85    2.76
   4  -2  -2   56.40    3.66
  -4   2   2   59.26    4.25
   4  -2  -2   59.63    3.91
   4  -2  -2   51.99    3.14
  -4   2   2   55.08    3.65
   4  -2  -2   54.37    2.90
  -4   2   2   53.21    3.80
   4  -2  -2   56.42    2.92
   4  -2  -2   59.43    3.35
   4  -2  -2   53.69    2.81
  -4   2   2   56.08    3.07
   4  -2  -2   50.90    3.53
   4  -2  -2   53.74    3.67
   4  -2  -2   52.34    2.60
   4  -2  -2   57.49    3.80
  -4   2   2   52.35    3.76
   4  -2  -2   58.40    3.43
  -4   2   2   53.82    2.75
   4  -2  -2   53.94    3.04
  -4   2   2   63.05    3.19
  -4   2   1  114.18    5.67
   4  -2  -1  103.12    4.71
  -4   2   1  100.95    4.54
   4  -2  -1  110.42    4.56
   4  -2  -1  104.24    4.91
  -4   2   1  101.65    4.95
   4  -2  -1  104.40    4.09
   4  -2  -1  104.47    4.31
  -4   2   1  103.16    4.57
   4  -2  -1   96.63    4.89
   4  -2  -1  102.91    3.96
   4  -2  -1   98.93    4.44
  -4   2   1   96.59    5.03
   4  -2  -1  104.97    4.04
  -4   2   1   99.86    4.07
   4  -2  -1  104.04    4.43
  -4   2   1  105.83    4.31
  -4   2   0   42.47    3.58
   4  -2   0   35.39    2.72
   4  -2   0   38.04    3.14
  -4   2   0   34.27    2.48
   4  -2   0   39.28    3.01
  -4   2   0   36.08    2.93
   4  -2   0   35.32    2.22
   4  -2   0   34.04    2.39
   4  -2   0   39.13    2.93
  -4   2   0   33.66    2.90
  -4   2   0   38.68    3.42
   4  -2   0   33.79    3.09
   4  -2   0   34.71    2.36
   4  -2   0   36.54    2.58
  -4   2   0   39.19    3.30
  -4   2   0   31.46    2.57
   4  -2   0   34.38    1.92
   4  -2   0   35.63    2.76
  -4   2  -1  114.25    5.80
   4  -2   1   97.49    5.38
  -4   2  -1   86.56    3.50
   4  -2   1   97.07    5.06
  -4   2  -1   91.16    4.47
   4  -2   1   90.62    3.37
   4  -2   1   90.63    3.16
   4  -2   1   96.33    4.90
  -4   2  -1   92.88    5.08
  -4   2  -1  109.58    5.68
   4  -2   1   85.20    4.84
   4  -2   1   91.21    3.18
   4  -2   1  100.36    4.54
  -4   2  -1   93.18    5.13
  -4   2  -1   83.57    4.36
   4  -2   1   94.82    4.73
  -4   2  -1   99.13    4.73
  -4   2  -2   60.12    3.94
   4  -2   2   57.69    4.46
  -4   2  -2   64.29    2.64
   4  -2   2   61.17    4.40
  -4   2  -2   57.83    3.60
   4  -2   2   57.22    2.20
   4  -2   2   57.99    2.19
   4  -2   2   63.30    4.30
  -4   2  -2   62.97    4.47
   4  -2   2   60.81    4.25
   4  -2   2   56.36    1.79
  -4   2  -2   56.16    4.10
   4  -2   2   61.18    3.80
  -4   2  -2   57.59    3.88
   4  -2   2   62.61    4.14
  -4   2  -3  129.72    6.04
  -4   2  -3  115.39    2.78
   4  -2   3  133.96    6.79
  -4   2  -3  114.61    5.08
   4  -2   3  115.24    2.52
   4  -2   3  121.03    6.32
   4  -2   3  113.97    6.05
  -4   2  -3  115.37    5.79
   4  -2   3  117.70    6.10
   4  -2   4   14.23    2.49
  -4   2  -4   13.09    1.84
  -4   2  -4   10.61    2.02
   4  -2   4   16.89    2.65
   4  -2   4   13.77    2.42
  -4   2  -4   14.07    2.40
   4  -2   5   32.38    3.93
   4  -2   5   26.82    3.36
   4  -2   5   24.65    3.03
  -4   2  -5   27.76    3.25
  -4   2  -5   27.20    3.53
   4  -2   6   13.75    2.22
   4  -2   6   13.39    2.95
  -4   2  -6   10.66    2.30
   4  -2   6   10.84    2.45
   4  -2   6   10.25    2.27
  -4   2  -6    8.42    2.38
   4  -2   7    1.76    1.00
   4  -2   7    2.53    1.74
  -4   2  -7    1.98    1.40
   4  -2   7    5.76    2.34
   4  -2   7    0.22    1.18
  -4   2  -7   -0.58    1.51
   4  -2   8    0.00    1.35
   4  -2   8    1.80    1.53
  -4   2  -8    3.01    1.81
   4  -2   8    1.36    1.36
   4  -2   8    2.18    1.61
  -4   2  -8    3.87    2.07
   4  -2   9    2.38    1.19
   4  -2   9    1.48    1.66
  -4   2  -9    1.73    1.25
   4  -2   9    0.28    1.45
   4  -2   9    3.59    1.68
  -4   2  -9    2.21    1.79
   4  -2  10   11.80    2.37
   4  -2  10    9.15    2.88
  -4   2 -10    9.80    2.47
   4  -2  10    8.84    2.76
   4  -2  10   12.38    3.13
   4  -2  10   14.10    3.56
   4  -2  10    7.95    2.36
  -4   2 -10   12.02    3.29
   4  -1 -12   -1.28    1.93
  -4   1  12    1.73    1.59
  -4   1  12    0.02    1.64
  -4   1  12    1.22    1.52
   4  -1 -11   14.94    2.51
   4  -1 -11    8.76    1.77
   4  -1 -11   10.89    2.90
  -4   1  11   11.14    2.99
  -4   1  11   11.41    2.97
  -4   1  11   12.67    3.72
   4  -1 -10    9.02    1.79
   4  -1 -10   10.49    2.03
   4  -1 -10   10.08    2.73
  -4   1  10    8.33    2.54
  -4   1  10    6.58    2.30
  -4   1  10    9.18    2.82
  -4   1  10    9.06    2.84
  -4   1   9   92.93    6.62
  -4   1   9   85.82    6.43
   4  -1  -9   83.51    3.78
   4  -1  -9   89.75    6.76
   4  -1  -9   79.91    3.38
  -4   1   9   78.91    6.41
  -4   1   9  100.68    7.26
  -4   1   9   85.67    6.68
   4  -1  -9   81.74    4.79
   4  -1  -9   96.64    5.38
   4  -1  -8    4.58    1.23
   4  -1  -8    5.39    1.39
  -4   1   8    5.22    1.82
   4  -1  -8    4.36    1.09
   4  -1  -8    6.56    2.10
   4  -1  -8    4.32    1.00
  -4   1   8    7.73    2.17
  -4   1   8    6.82    2.14
  -4   1   8    6.69    2.30
  -4   1   7   49.14    4.36
  -4   1   7   58.26    4.90
   4  -1  -7   54.28    3.37
   4  -1  -7   58.06    4.92
   4  -1  -7   54.58    3.26
  -4   1   7   52.31    4.76
  -4   1   7   56.98    4.83
   4  -1  -7   57.07    3.56
   4  -1  -7   56.79    3.73
  -4   1   6   97.16    5.72
  -4   1   6  112.32    6.16
  -4   1   6   97.22    5.93
   4  -1  -6  103.47    4.69
   4  -1  -6   99.95    6.12
   4  -1  -6  102.89    4.58
  -4   1   6  101.52    6.24
  -4   1   6  103.01    6.15
  -4   1   6   96.18    5.63
   4  -1  -6   99.32    5.83
   4  -1  -6   99.39    4.44
   4  -1  -6  103.09    4.63
  -4   1   5  402.65   11.33
  -4   1   5  367.51   10.89
   4  -1  -5  365.35   10.94
   4  -1  -5  377.71    8.99
   4  -1  -5  396.75   11.56
  -4   1   5  372.53   11.23
  -4   1   5  362.16   10.34
  -4   1   5  369.25   10.76
   4  -1  -5  367.53   10.90
  -4   1   5  352.86    3.65
   4  -1  -5  376.07   10.70
   4  -1  -5  368.98   10.18
  -4   1   5  360.07    3.79
   4  -1  -5  372.37    8.12
  -4   1   4  137.96    6.43
   4  -1  -4  140.67    6.75
   4  -1  -4  129.80    6.40
   4  -1  -4  113.80    3.08
  -4   1   4  117.01    5.78
   4  -1  -4  116.69    2.81
   4  -1  -4  120.95    5.65
  -4   1   4  121.30    5.91
   4  -1  -4  115.84    2.92
   4  -1  -4  120.56    6.05
   4  -1  -4  125.32    5.45
   4  -1  -4  112.98    2.85
  -4   1   4  117.06    3.09
   4  -1  -4  117.01    5.17
   4  -1  -4  114.88    2.97
   4  -1  -4  124.40    6.36
   4  -1  -4  123.17    6.07
  -4   1   4  122.61    5.98
   4  -1  -4  122.41    5.63
  -4   1   4  112.85    5.60
  -4   1   4  122.25    5.79
  -4   1   4  118.31    3.11
   4  -1  -4  121.37    5.82
   4  -1  -4  124.19    5.84
  -4   1   4  118.32    4.42
   4  -1  -4  114.74    5.33
   4  -1  -4  113.47    4.39
  -4   1   3   21.66    2.68
   4  -1  -3   22.20    2.63
  -4   1   3   20.44    2.48
   4  -1  -3   24.15    2.54
  -4   1   3   21.86    2.52
   4  -1  -3   19.67    1.60
   4  -1  -3   25.46    2.60
   4  -1  -3   19.84    1.60
   4  -1  -3   24.73    2.35
  -4   1   3   20.31    1.65
   4  -1  -3   20.09    2.33
   4  -1  -3   20.82    1.54
   4  -1  -3   22.94    2.74
   4  -1  -3   22.30    2.47
   4  -1  -3   23.38    2.41
  -4   1   3   18.86    2.26
  -4   1   3   21.49    1.60
   4  -1  -3   25.76    2.52
   4  -1  -3   21.48    1.61
   4  -1  -3   21.67    2.39
  -4   1   3   24.09    2.08
   4  -1  -3   21.23    2.26
   4  -1  -3   21.14    1.98
   4  -1  -2  108.25    4.32
  -4   1   2  116.62    5.73
   4  -1  -2  115.76    5.48
  -4   1   2  111.28    5.12
   4  -1  -2  105.17    4.09
   4  -1  -2  112.95    4.92
  -4   1   2  111.36    5.05
   4  -1  -2  114.14    4.25
   4  -1  -2  120.51    4.29
  -4   1   2  107.08    4.18
   4  -1  -2  111.48    5.26
   4  -1  -2  109.17    4.54
   4  -1  -2  114.61    3.90
   4  -1  -2  113.53    5.15
  -4   1   2  108.37    5.17
  -4   1   2  107.64    3.87
  -4   1   2  110.89    4.47
   4  -1  -2  113.09    4.68
   4  -1  -2  110.93    5.04
  -4   1   2  127.66    4.88
   4  -1  -1   15.06    1.76
  -4   1   1   16.73    2.50
   4  -1  -1   11.76    1.64
   4  -1  -1   14.38    1.89
  -4   1   1   14.61    1.87
   4  -1  -1   14.48    1.81
  -4   1   1   14.10    1.84
   4  -1  -1   13.14    1.77
   4  -1  -1   14.68    1.81
   4  -1  -1   11.81    1.56
  -4   1   1   12.81    1.70
   4  -1  -1   13.76    1.60
   4  -1  -1   12.63    1.92
   4  -1  -1   14.86    1.62
   4  -1  -1   12.74    1.58
  -4   1   1   14.31    1.64
  -4   1   1   13.51    1.37
  -4   1   1   13.45    1.98
   4  -1  -1   13.03    1.78
  -4   1   0   22.92    2.80
  -4   1   0   20.95    1.99
   4  -1   0   21.45    2.33
  -4   1   0   20.55    2.10
   4  -1   0   21.28    2.41
   4  -1   0   20.27    1.75
   4  -1   0   22.82    2.30
  -4   1   0   20.21    2.27
   4  -1   0   19.26    2.34
   4  -1   0   22.76    2.13
   4  -1   0   20.34    1.70
  -4   1   0   22.60    2.55
  -4   1   0   22.00    2.11
   4  -1   0   20.55    2.28
   4  -1   1   -0.32    0.77
  -4   1  -1    0.58    0.89
   4  -1   1    0.69    0.79
  -4   1  -1    0.56    0.74
   4  -1   1    0.61    1.06
  -4   1  -1    0.04    0.86
  -4   1  -1    0.13    0.64
   4  -1   1   -0.33    1.15
   4  -1   1    0.84    0.51
   4  -1   1   -0.02    1.05
  -4   1  -1    1.09    0.99
   4  -1   1    1.71    1.13
   4  -1   1    0.57    0.39
  -4   1  -1    1.30    1.06
  -4   1  -2   18.90    1.66
  -4   1  -2   18.05    1.84
   4  -1   2   20.26    2.65
   4  -1   2   19.35    2.59
  -4   1  -2   18.02    2.42
   4  -1   2   19.45    2.53
   4  -1   2   20.40    2.22
  -4   1  -2   18.63    2.29
   4  -1   2   20.08    2.47
  -4   1  -2   17.99    2.35
  -4   1  -3   21.90    1.65
  -4   1  -3   21.66    2.06
   4  -1   3   23.81    2.96
   4  -1   3   22.64    2.77
   4  -1   3   17.65    2.38
  -4   1  -3   16.99    2.27
  -4   1  -4   79.66    2.74
   4  -1   4   83.29    5.73
  -4   1  -4   67.47    3.65
   4  -1   4   78.05    5.39
   4  -1   4   67.67    4.67
  -4   1  -4   67.47    4.58
   4  -1   4   74.78    2.58
   4  -1   5   21.14    1.33
  -4   1  -5   20.61    1.26
   4  -1   5   19.58    3.00
   4  -1   5   20.79    2.84
   4  -1   5   16.75    2.69
   4  -1   5   21.26    2.22
  -4   1  -5   20.65    2.84
  -4   1  -5   21.44    3.26
  -4   1  -6    4.95    0.52
   4  -1   6    4.75    1.33
  -4   1  -6    4.91    0.49
   4  -1   6    5.76    0.70
   4  -1   6    4.40    1.87
  -4   1  -6    7.90    1.96
   4  -1   6    6.23    2.20
   4  -1   6    6.51    1.89
  -4   1  -6    4.98    1.92
   4  -1   7    3.18    1.80
   4  -1   7    2.38    1.01
  -4   1  -7    4.44    1.79
   4  -1   7    1.47    1.44
   4  -1   7    2.22    1.63
   4  -1   7    1.19    1.21
  -4   1  -7    3.07    1.74
   4  -1   8   26.09    4.11
   4  -1   8   27.27    4.26
   4  -1   8   28.31    3.60
   4  -1   8   29.84    4.26
  -4   1  -8   26.86    3.61
   4  -1   8   25.89    2.94
  -4   1  -8   30.29    4.38
   4  -1   9   -0.75    1.86
   4  -1   9    0.91    0.88
  -4   1  -9   -0.46    1.20
   4  -1   9   -2.61    1.91
   4  -1   9   -0.13    1.72
   4  -1   9    2.70    1.56
  -4   1  -9    0.43    1.82
   4  -1  10    1.33    1.83
  -4   1 -10    1.28    1.10
   4  -1  10   -0.15    1.78
   4  -1  10   -2.90    2.42
   4  -1  10    0.19    1.57
   4  -1  10    1.37    1.24
   4  -1  10    5.96    2.65
  -4   1 -10   -0.05    1.92
  -4   0  13   -4.79    2.83
   4   0 -12   -0.46    1.42
   4   0 -12   -1.00    1.32
   4   0 -12   -2.73    2.37
  -4   0  12   -0.36    1.34
  -4   0  12    0.34    1.48
  -4   0  12    3.88    2.40
  -4   0  12    2.26    1.63
  -4   0  11   52.33    5.47
   4   0 -11   52.26    5.82
  -4   0  11   48.07    5.47
  -4   0  11   52.06    5.89
  -4   0  11   46.19    5.36
   4   0 -11   46.56    4.34
   4   0 -11   55.21    4.79
   4   0 -10   -0.13    1.07
   4   0 -10    3.19    1.60
  -4   0  10    4.91    2.10
   4   0 -10    2.96    1.98
  -4   0  10    3.04    1.72
  -4   0  10    3.66    1.96
  -4   0  10    7.92    2.62
  -4   0  10    3.27    1.83
   4   0  -9    3.86    1.57
   4   0  -9    2.55    1.28
  -4   0   9    1.28    1.45
   4   0  -9    2.89    0.75
   4   0  -9    5.63    1.68
   4   0  -9    2.36    0.80
  -4   0   9    3.17    1.72
  -4   0   9    3.51    2.16
  -4   0   9    1.94    1.49
  -4   0   9   -0.14    1.76
  -4   0   8   29.99    3.58
  -4   0   8   29.08    3.76
   4   0  -8   30.11    2.21
   4   0  -8   30.46    3.70
   4   0  -8   31.57    2.58
  -4   0   8   31.48    4.01
  -4   0   8   39.42    4.38
  -4   0   8   32.59    3.83
   4   0  -8   30.93    3.02
   4   0  -8   28.13    3.07
  -4   0   7   52.50    4.35
  -4   0   7   51.19    4.59
   4   0  -7   59.38    3.31
   4   0  -7   53.58    4.71
   4   0  -7   54.39    3.44
  -4   0   7   51.70    4.78
  -4   0   7   61.19    5.16
  -4   0   7   57.69    4.70
   4   0  -7   52.95    3.68
   4   0  -7   55.57    4.00
  -4   0   6  166.76    7.28
  -4   0   6  207.55    8.10
  -4   0   6  175.50    7.96
   4   0  -6  175.27    8.01
   4   0  -6  180.55    6.39
  -4   0   6  182.58    8.28
  -4   0   6  173.91    3.09
  -4   0   6  185.11    8.25
  -4   0   6  171.02    7.29
   4   0  -6  182.48    7.40
  -4   0   6  177.00    3.30
   4   0  -6  189.63    6.55
   4   0  -6  187.37    6.74
  -4   0   5  435.84   10.97
  -4   0   5  502.95   12.16
  -4   0   5  464.22   12.17
   4   0  -5  456.24    5.95
  -4   0   5  445.42    6.02
   4   0  -5  467.25   11.39
   4   0  -5  442.92    6.05
   4   0  -5  458.27   12.20
   4   0  -5  444.21    6.03
  -4   0   5  448.35    6.01
   4   0  -5  444.61   10.17
   4   0  -5  477.97   12.67
  -4   0   5  449.75   12.22
  -4   0   5  454.37    6.07
   4   0  -5  470.39   11.02
  -4   0   5  430.25   10.91
  -4   0   5  466.09   12.17
   4   0  -5  473.51   12.28
   4   0  -5  453.69   10.99
   4   0  -5  471.36   11.05
   4   0  -5  444.70    9.64
  -4   0   5  467.34    6.53
  -4   0   4  123.56    5.48
  -4   0   4  131.50    6.24
   4   0  -4  128.81    6.37
   4   0  -4  125.64    3.69
   4   0  -4  131.01    5.71
  -4   0   4  130.14    6.19
   4   0  -4  125.14    3.74
   4   0  -4  123.88    5.96
  -4   0   4  125.59    3.85
   4   0  -4  121.00    3.64
  -4   0   4  126.11    3.79
   4   0  -4  120.84    5.39
   4   0  -4  134.88    5.67
   4   0  -4  125.34    3.58
   4   0  -4  137.83    6.62
   4   0  -4  135.78    6.33
  -4   0   4  127.91    6.12
  -4   0   4  120.77    3.61
   4   0  -4  131.74    5.61
  -4   0   4  133.39    5.77
  -4   0   4  127.72    5.90
   4   0  -4  128.24    5.51
   4   0  -4  123.80    5.33
   4   0  -4  116.26    4.83
  -4   0   3   48.22    3.78
   4   0  -3   46.07    3.73
  -4   0   3   41.34    3.41
   4   0  -3   47.01    2.63
  -4   0   3   43.45    2.61
   4   0  -3   42.49    3.07
  -4   0   3   37.74    3.04
   4   0  -3   42.10    2.53
   4   0  -3   44.09    2.51
  -4   0   3   42.59    2.52
   4   0  -3   39.67    3.16
   4   0  -3   41.82    2.32
   4   0  -3   44.65    3.18
  -4   0   3   47.07    3.49
   4   0  -3   43.59    3.24
  -4   0   3   38.85    2.25
  -4   0   3   41.66    3.20
   4   0  -3   43.60    3.06
   4   0  -3   39.05    2.90
   4   0  -2   39.96    3.36
  -4   0   2   47.05    3.48
   4   0  -2   44.11    2.80
  -4   0   2   46.19    2.95
   4   0  -2   42.54    2.88
   4   0  -2   43.90    2.83
   4   0  -2   46.60    2.84
  -4   0   2   44.52    2.82
   4   0  -2   42.90    3.40
  -4   0   2   43.03    3.00
   4   0  -2   43.59    2.57
   4   0  -2   45.69    3.19
   4   0  -2   44.78    3.18
  -4   0   2   45.25    3.13
  -4   0   2   45.00    2.64
  -4   0   2   40.44    3.12
  -4   0   2   43.63    2.93
   4   0  -2   41.87    2.89
   4   0  -2   46.43    2.77
   4   0  -2   41.41    3.05
   4   0  -1   64.40    3.71
  -4   0   1   71.73    3.99
   4   0  -1   67.01    3.80
  -4   0   1   69.60    3.86
   4   0  -1   67.07    3.36
  -4   0   1   66.63    3.46
   4   0  -1   71.94    3.91
   4   0  -1   66.39    3.42
   4   0  -1   70.47    3.77
  -4   0   1   63.86    3.63
   4   0  -1   64.00    4.20
   4   0  -1   71.26    3.50
   4   0  -1   67.34    3.41
  -4   0   1   66.72    3.33
  -4   0   1   71.62    4.11
  -4   0   1   64.39    3.35
  -4   0   1   70.97    3.22
   4   0  -1   67.35    3.03
   4   0   0  121.84    5.21
   4   0   0  126.72    3.88
  -4   0   0  135.26    5.23
   4   0   0  128.05    5.55
  -4   0   0  130.10    5.68
  -4   0   0  122.09    4.31
   4   0   0  139.50    5.70
   4   0   0  126.89    4.07
   4   0   0  133.40    5.51
  -4   0   0  127.30    5.51
   4   0   0  123.67    5.87
   4   0   0  132.10    5.06
  -4   0   0  129.22    3.91
  -4   0   0  129.47    5.62
  -4   0   0  122.19    4.93
  -4   0   0  126.02    3.61
   4   0   0  124.44    5.73
  -4   0   0  135.70    5.72
  -4   0  -1   13.45    1.73
  -4   0  -1   11.87    1.76
  -4   0  -1   12.34    1.37
   4   0   1   13.47    2.15
  -4   0  -1   13.70    2.13
   4   0   1   13.61    2.06
  -4   0  -1   12.24    1.94
   4   0   1   15.20    2.18
   4   0   1    9.52    1.91
   4   0   1   13.21    1.75
  -4   0  -1   13.04    0.90
  -4   0  -1   11.74    1.88
   4   0   1   12.82    2.01
  -4   0  -1   20.24    2.58
   4   0   2   -0.06    0.81
  -4   0  -2   -0.99    0.96
   4   0   2   -0.78    0.82
  -4   0  -2   -0.11    0.68
  -4   0  -2   -0.47    1.03
  -4   0  -2   -0.15    0.73
   4   0   2    1.53    1.38
  -4   0  -2    0.24    0.52
   4   0   2    1.03    1.22
   4   0   2   -0.33    1.33
  -4   0  -2    1.95    1.29
   4   0   2   -0.62    1.21
  -4   0  -3   22.92    2.05
   4   0   3   26.08    3.16
  -4   0  -3   23.43    1.87
   4   0   3   24.74    3.16
   4   0   3   29.04    3.27
   4   0   3   25.84    2.92
  -4   0  -3   27.16    2.88
  -4   0  -4   83.69    3.73
   4   0   4   93.84    6.06
  -4   0  -4   80.53    3.47
   4   0   4   94.80    6.05
   4   0   4   89.06    5.76
   4   0   4   82.48    5.14
   4   0   4   83.54    3.41
   4   0   4   83.72    3.52
  -4   0  -4   86.24    5.11
  -4   0  -5  163.40    5.02
   4   0   5  163.31    8.40
  -4   0  -5  145.15    4.99
   4   0   5  162.52    8.31
   4   0   5  168.17    8.26
   4   0   5  160.52    7.25
  -4   0  -5  159.71    7.29
   4   0   5  159.72    5.28
   4   0   5  156.98    4.68
   4   0   6   39.08    2.38
   4   0   6   42.82    4.65
   4   0   6   42.34    4.54
   4   0   6   43.08    4.65
   4   0   6   50.43    4.33
  -4   0  -6   33.89    3.66
   4   0   6   36.21    2.79
   4   0   7    0.54    1.85
   4   0   7    1.26    0.87
  -4   0  -7   -0.16    0.94
   4   0   7    0.13    1.54
   4   0   7    0.60    1.48
   4   0   7   -0.35    1.20
   4   0   7    1.45    0.72
   4   0   8   20.44    3.96
  -4   0  -8   17.58    3.01
   4   0   8   19.77    3.70
   4   0   8   13.65    3.13
   4   0   8   13.01    2.63
   4   0   8   16.02    2.24
   4   0   8   18.76    3.41
   4   0   9    0.15    1.42
  -4   0  -9    4.23    1.68
   4   0   9    5.16    2.28
   4   0   9    2.27    1.87
   4   0   9    6.93    2.69
   4   0   9    3.58    1.51
   4   0   9    4.25    1.97
   4   0  10    9.96    3.27
  -4   0 -10    7.33    2.29
   4   0  10   12.58    3.34
   4   0  10   11.25    3.09
   4   0  10   13.06    3.38
   4   0  10    6.55    1.91
   4   0  10   15.94    3.46
   4   1 -13   -3.40    1.83
   4   1 -13    1.18    1.60
  -4  -1  13    0.38    1.38
  -4  -1  13    1.49    1.72
   4   1 -12   -0.52    1.28
   4   1 -12    0.94    1.50
  -4  -1  12    1.50    1.66
   4   1 -12    1.22    1.80
  -4  -1  12   -1.71    1.91
  -4  -1  12   -0.30    1.74
  -4  -1  12   -3.02    1.76
  -4  -1  12    0.88    1.64
   4   1 -11    6.45    2.02
   4   1 -11    7.15    2.15
  -4  -1  11    7.28    2.45
   4   1 -11    4.82    2.17
  -4  -1  11    4.16    2.03
  -4  -1  11    5.84    2.51
  -4  -1  11    7.83    2.85
  -4  -1  11    4.92    2.28
   4   1 -10   -1.17    1.56
   4   1 -10    1.34    1.28
  -4  -1  10    3.77    1.79
   4   1 -10    0.95    1.46
  -4  -1  10    0.47    1.42
  -4  -1  10   -1.25    2.04
  -4  -1  10    0.82    1.92
  -4  -1  10    1.12    1.32
   4   1  -9    0.24    1.28
   4   1  -9    0.51    1.14
  -4  -1   9    1.22    0.35
  -4  -1   9    0.91    1.44
  -4  -1   9    1.06    0.36
   4   1  -9    1.83    0.61
   4   1  -9    1.08    1.17
  -4  -1   9    1.03    1.41
  -4  -1   9    1.31    0.39
  -4  -1   9    0.04    1.57
  -4  -1   9    1.94    1.83
  -4  -1   9    1.03    1.29
   4   1  -8    2.15    1.62
   4   1  -8    0.84    0.96
  -4  -1   8    1.50    0.45
  -4  -1   8    1.60    1.58
  -4  -1   8    0.48    0.29
   4   1  -8    2.46    0.83
  -4  -1   8    2.51    0.56
  -4  -1   8    1.29    0.42
   4   1  -8   -0.71    1.54
  -4  -1   8    1.78    0.51
  -4  -1   8    0.45    1.11
  -4  -1   8    0.60    0.33
  -4  -1   8   -0.33    1.50
  -4  -1   8    0.76    1.67
  -4  -1   8   -0.72    1.52
   4   1  -7   -0.29    0.99
   4   1  -7   -0.59    1.01
  -4  -1   7   -0.14    1.20
  -4  -1   7    0.05    0.35
   4   1  -7    0.17    0.55
  -4  -1   7    1.35    1.27
  -4  -1   7   -0.36    0.33
  -4  -1   7   -0.38    0.41
   4   1  -7   -1.93    1.47
  -4  -1   7   -0.27    0.42
  -4  -1   7    0.19    0.33
  -4  -1   7   -1.25    1.31
  -4  -1   7   -1.90    1.71
  -4  -1   7   -0.78    1.79
  -4  -1   7    1.30    1.26
   4   1  -7   -1.06    1.03
  -4  -1   6   31.79    3.17
  -4  -1   6   37.65    3.49
  -4  -1   6   38.45    3.86
   4   1  -6   35.35    2.16
   4   1  -6   33.36    2.16
  -4  -1   6   32.27    1.99
   4   1  -6   28.58    3.34
   4   1  -6   34.93    2.17
  -4  -1   6   31.90    1.95
  -4  -1   6   31.35    1.87
  -4  -1   6   31.93    3.54
  -4  -1   6   33.07    3.26
  -4  -1   6   37.22    3.81
  -4  -1   6   31.22    1.95
   4   1  -6   30.58    3.00
  -4  -1   6   37.26    3.43
   4   1  -6   35.52    3.18
  -4  -1   6   35.16    2.07
   4   1  -6   37.61    3.23
   4   1  -6   37.88    3.39
  -4  -1   5   30.79    2.89
  -4  -1   5   43.58    3.61
   4   1  -5   35.06    2.24
   4   1  -5   32.46    2.99
   4   1  -5   35.73    2.30
  -4  -1   5   31.84    2.14
   4   1  -5   36.27    3.58
   4   1  -5   36.72    2.29
  -4  -1   5   34.43    3.40
  -4  -1   5   32.69    2.09
   4   1  -5   39.34    3.65
  -4  -1   5   34.58    2.07
   4   1  -5   38.01    3.61
  -4  -1   5   35.92    3.57
   4   1  -5   35.28    2.98
  -4  -1   5   34.63    3.09
  -4  -1   5   34.75    3.49
   4   1  -5   35.76    3.03
  -4  -1   5   36.80    3.56
  -4  -1   5   33.99    2.21
   4   1  -5   33.75    2.79
  -4  -1   5   37.18    3.04
   4   1  -5   35.10    3.03
  -4  -1   5   33.95    2.18
  -4  -1   4  304.98    8.04
  -4  -1   4  344.99    9.76
   4   1  -4  335.12   10.47
  -4  -1   4  317.04    9.82
   4   1  -4  317.39    6.90
  -4  -1   4  298.69    6.90
   4   1  -4  303.51    8.41
   4   1  -4  314.71    6.93
  -4  -1   4  301.42    6.90
   4   1  -4  326.38    9.62
  -4  -1   4  311.58    9.41
   4   1  -4  317.19    6.82
  -4  -1   4  304.26    6.79
   4   1  -4  316.75    9.86
  -4  -1   4  297.49    6.32
   4   1  -4  323.73    9.84
  -4  -1   4  301.27    9.37
   4   1  -4  323.50    8.52
  -4  -1   4  290.09    8.25
  -4  -1   4  306.13    9.35
   4   1  -4  303.67    7.65
  -4  -1   4  332.03    8.77
   4   1  -4  302.12    8.31
  -4  -1   3   77.42    3.73
  -4  -1   3   86.63    5.06
   4   1  -3   80.46    4.95
  -4  -1   3   76.56    4.75
  -4  -1   3   75.39    3.73
   4   1  -3   81.61    3.79
  -4  -1   3   73.74    3.63
  -4  -1   3   83.94    4.61
   4   1  -3   78.00    3.66
  -4  -1   3   78.72    3.73
   4   1  -3   80.18    4.05
   4   1  -3   75.79    3.65
   4   1  -3   81.27    3.48
  -4  -1   3   75.52    3.35
  -4  -1   3   73.84    4.40
   4   1  -3   78.46    4.12
  -4  -1   3   81.07    4.20
   4   1  -3   76.09    3.65
   4   1  -3   75.20    3.54
  -4  -1   3   81.65    4.40
   4   1  -3   69.08    4.01
   4   1  -2    9.53    1.34
  -4  -1   2    7.96    1.53
  -4  -1   2   12.68    2.31
   4   1  -2    7.55    1.56
  -4  -1   2    7.60    1.28
  -4  -1   2    9.26    1.82
   4   1  -2    8.34    1.54
  -4  -1   2    9.47    1.53
   4   1  -2    8.36    1.13
   4   1  -2    8.20    1.31
   4   1  -2   10.75    1.68
  -4  -1   2    7.23    1.33
   4   1  -2    8.77    1.45
  -4  -1   2    9.34    1.41
   4   1  -2    7.80    1.43
  -4  -1   2    6.96    1.60
  -4  -1   2    8.31    1.48
  -4  -1   2    8.43    1.55
   4   1  -2    8.37    1.20
  -4  -1   1   60.97    3.99
   4   1  -1   61.04    3.77
  -4  -1   1   60.03    3.78
   4   1  -1   55.62    2.79
   4   1  -1   58.53    3.71
  -4  -1   1   56.89    3.14
   4   1  -1   56.96    3.63
  -4  -1   1   56.86    3.57
   4   1  -1   55.81    3.99
   4   1  -1   56.69    3.27
  -4  -1   1   57.80    3.21
  -4  -1   1   51.17    3.14
  -4  -1   1   53.57    3.51
  -4  -1   1   59.30    3.24
   4   1  -1   58.20    2.46
  -4  -1   1   63.88    4.06
   4   1  -1   51.55    3.53
   4   1   0   -0.28    0.58
  -4  -1   0    1.33    1.24
   4   1   0   -1.12    1.07
  -4  -1   0   -0.16    0.95
  -4  -1   0   -0.41    0.89
   4   1   0   -0.05    1.03
  -4  -1   0   -0.66    0.80
   4   1   0   -0.33    0.52
  -4  -1   0    0.06    0.49
   4   1   0    0.33    0.37
   4   1   0    0.23    1.04
  -4  -1   0    0.56    0.62
   4   1   0   -0.45    0.98
  -4  -1   0   -0.08    1.19
   4   1   0    1.08    1.15
  -4  -1   0    0.08    0.59
  -4  -1   0   -0.83    1.00
  -4  -1   0    0.25    0.53
   4   1   1    1.52    0.75
  -4  -1  -1    2.69    1.05
   4   1   1    0.76    0.94
  -4  -1  -1    1.22    0.94
  -4  -1  -1    2.05    1.00
   4   1   1    2.16    1.20
  -4  -1  -1    2.71    1.09
   4   1   1    3.38    1.50
   4   1   1    1.79    0.34
   4   1   1    2.78    1.49
  -4  -1  -1    2.16    1.14
   4   1   1    1.91    1.23
  -4  -1  -1    2.41    0.63
  -4  -1  -1    1.97    1.04
  -4  -1  -1    2.99    0.68
   4   1   1    2.10    1.00
   4   1   2   13.05    0.81
  -4  -1  -2   14.24    2.01
  -4  -1  -2   16.48    2.41
  -4  -1  -2   12.58    1.90
   4   1   2   15.26    2.50
  -4  -1  -2   13.93    1.11
   4   1   2   16.33    2.51
  -4  -1  -2   15.99    2.36
   4   1   2   13.44    2.17
   4   1   2    8.67    1.77
   4   1   2   13.74    0.83
  -4  -1  -3    8.20    1.62
  -4  -1  -3    8.86    0.86
   4   1   3   10.22    2.15
   4   1   3   10.02    2.18
   4   1   3    8.22    2.01
   4   1   3    7.27    1.82
   4   1   3    9.45    0.81
  -4  -1  -4  204.68    4.31
   4   1   4  217.82    9.24
   4   1   4  225.57    9.21
   4   1   4  197.26    7.85
   4   1   4  217.34    9.31
   4   1   4  203.55    6.07
  -4  -1  -4  198.09    7.77
  -4  -1  -4  206.13    4.58
   4   1   4  212.29    4.48
   4   1   5   48.54    4.74
  -4  -1  -5   54.05    2.46
   4   1   5   56.51    5.09
   4   1   5   49.34    4.67
   4   1   5   52.32    4.24
  -4  -1  -5   51.79    4.26
  -4  -1  -5   51.69    2.54
   4   1   5   51.72    3.11
   4   1   5   51.05    2.57
   4   1   6    0.66    0.87
   4   1   6    1.68    1.41
  -4  -1  -6    1.02    1.02
   4   1   6    1.22    0.65
   4   1   6   -0.56    1.41
   4   1   6    0.50    1.47
   4   1   6    0.05    1.19
  -4  -1  -6    0.65    0.53
   4   1   6   -0.73    1.44
   4   1   7   -0.46    1.60
  -4  -1  -7    0.38    1.09
   4   1   7   -1.80    1.73
   4   1   7    1.69    0.78
   4   1   7    1.28    0.81
   4   1   7    0.19    1.53
   4   1   7    0.71    1.11
   4   1   7    4.47    1.93
   4   1   8   -1.00    1.66
  -4  -1  -8   -1.27    1.40
   4   1   8   -0.77    1.78
   4   1   8   -1.49    1.80
   4   1   8    1.33    1.39
   4   1   8   -1.83    1.39
   4   1   9    8.49    2.80
   4   1   9   18.15    3.76
   4   1   9   15.72    3.56
   4   1   9   13.43    3.42
   4   1   9   13.27    2.50
  -4  -1  -9   11.89    2.57
   4   1   9   11.61    2.67
   4   1  10    8.85    2.72
  -4  -1 -10    6.59    2.16
   4   1  10    9.92    2.99
   4   1  10    9.94    2.93
   4   1  10    9.72    2.88
   4   2 -14    9.11    3.43
   4   2 -13   26.13    4.15
   4   2 -13   26.40    3.94
  -4  -2  13   27.95    4.38
  -4  -2  13   35.93    5.32
   4   2 -12    4.93    1.98
   4   2 -12    5.14    2.08
  -4  -2  12    3.48    2.01
   4   2 -12    7.68    2.63
  -4  -2  12    3.60    2.15
  -4  -2  12    5.08    2.62
  -4  -2  12    7.69    2.82
  -4  -2  12    4.56    2.18
  -4  -2  11   38.74    4.73
   4   2 -11   38.44    4.86
  -4  -2  11   37.88    5.25
  -4  -2  11   45.20    5.64
  -4  -2  11   51.17    5.59
   4   2 -11   37.44    4.31
   4   2 -11   42.30    4.68
  -4  -2  11   42.42    4.83
   4   2 -10    9.54    2.43
   4   2 -10    4.96    1.84
  -4  -2  10    7.46    2.19
   4   2 -10    7.38    2.24
  -4  -2  10   10.94    2.44
  -4  -2  10    8.75    1.33
  -4  -2  10    8.86    1.17
  -4  -2  10    8.43    2.68
  -4  -2  10   14.26    3.32
  -4  -2  10    8.93    2.38
   4   2  -9   12.33    2.46
   4   2  -9    9.49    2.02
   4   2  -9    9.54    0.85
   4   2  -9   11.47    1.64
  -4  -2   9   11.94    2.72
   4   2  -9   11.14    2.66
  -4  -2   9   13.54    2.69
  -4  -2   9    9.51    1.44
  -4  -2   9   11.33    1.30
  -4  -2   9    8.68    2.32
  -4  -2   9   12.59    2.88
  -4  -2   9   11.72    2.56
   4   2  -8    4.78    1.66
  -4  -2   8    3.32    0.80
   4   2  -8    2.77    1.55
  -4  -2   8    2.66    1.47
   4   2  -8    3.35    1.10
  -4  -2   8    5.32    2.01
  -4  -2   8    3.80    0.89
  -4  -2   8    2.42    0.68
   4   2  -8    7.89    2.30
  -4  -2   8    2.99    0.77
  -4  -2   8    5.12    1.85
   4   2  -8    3.92    0.81
  -4  -2   8    2.75    0.78
  -4  -2   8    3.73    0.98
  -4  -2   8    4.67    1.91
  -4  -2   8    4.83    2.10
  -4  -2   8    1.89    1.17
   4   2  -7   17.74    2.63
   4   2  -7   16.83    2.40
  -4  -2   7   14.64    2.22
   4   2  -7   15.88    1.76
  -4  -2   7   15.50    1.66
  -4  -2   7   15.35    2.77
   4   2  -7   15.45    1.56
  -4  -2   7   16.34    1.72
   4   2  -7   15.34    1.78
   4   2  -7   16.31    2.67
  -4  -2   7   15.76    1.63
  -4  -2   7   16.69    2.54
  -4  -2   7   14.69    1.52
  -4  -2   7   18.11    3.01
  -4  -2   7   19.58    3.22
  -4  -2   7   15.89    2.42
  -4  -2   7   14.59    1.59
  -4  -2   6   74.89    4.65
  -4  -2   6   60.96    4.87
   4   2  -6   66.14    3.57
  -4  -2   6   62.95    3.35
   4   2  -6   69.73    3.63
   4   2  -6   67.87    3.36
  -4  -2   6   67.06    3.51
   4   2  -6   62.26    4.88
   4   2  -6   69.51    3.60
  -4  -2   6   65.20    3.38
  -4  -2   6   64.02    3.12
  -4  -2   6   61.80    5.03
   4   2  -6   78.21    4.46
   4   2  -6   67.16    4.35
  -4  -2   6   60.30    4.08
  -4  -2   6   67.52    5.25
  -4  -2   6   69.52    3.42
   4   2  -6   61.92    4.37
  -4  -2   6   63.37    4.24
  -4  -2   5    1.65    0.81
   4   2  -5    1.86    1.24
  -4  -2   5    1.10    0.70
  -4  -2   5   -0.07    1.21
   4   2  -5    1.09    0.79
  -4  -2   5    3.12    1.43
   4   2  -5    1.34    0.88
  -4  -2   5    0.08    0.54
   4   2  -5    1.20    0.89
   4   2  -5    0.03    0.87
  -4  -2   5    1.51    0.75
   4   2  -5   -0.70    1.65
  -4  -2   5    1.13    1.06
   4   2  -5    1.97    1.05
  -4  -2   5    0.06    1.09
  -4  -2   5    2.15    0.85
   4   2  -5    1.04    0.67
   4   2  -5    1.92    1.22
   4   2  -5    0.86    0.96
  -4  -2   5    2.75    1.42
   4   2  -5    0.74    0.76
  -4  -2   5    2.23    1.29
  -4  -2   5    1.86    1.04
   4   2  -5    2.25    0.88
  -4  -2   4    9.34    1.67
   4   2  -4    8.60    1.69
  -4  -2   4    9.77    1.33
  -4  -2   4   11.42    2.04
  -4  -2   4    9.38    1.82
   4   2  -4    8.40    1.42
  -4  -2   4   10.11    1.55
   4   2  -4    9.10    1.51
   4   2  -4   13.02    1.77
  -4  -2   4   10.00    1.53
  -4  -2   4   10.35    1.57
  -4  -2   4    8.59    1.63
   4   2  -4   10.07    1.49
   4   2  -4   10.01    1.47
  -4  -2   4    9.08    1.51
   4   2  -4   11.73    2.11
   4   2  -4    7.40    1.47
  -4  -2   4   13.14    2.18
   4   2  -4   10.74    1.63
  -4  -2   4    6.27    1.75
  -4  -2   4   11.55    1.74
   4   2  -4    9.84    1.35
  -4  -2   3   19.41    1.87
  -4  -2   3   25.89    2.95
  -4  -2   3   22.63    2.81
   4   2  -3   17.82    2.03
  -4  -2   3   18.24    2.14
   4   2  -3   17.24    1.89
   4   2  -3   20.94    2.20
   4   2  -3   19.77    2.06
  -4  -2   3   20.33    2.17
  -4  -2   3   19.98    2.34
   4   2  -3   20.66    2.17
  -4  -2   3   20.12    2.13
   4   2  -3   18.67    1.87
  -4  -2   3   19.41    1.92
   4   2  -3   20.39    2.09
  -4  -2   3   19.36    2.46
  -4  -2   3   16.21    1.93
   4   2  -3   19.31    1.79
  -4  -2   3   23.53    2.63
   4   2  -3   18.54    1.50
  -4  -2   3   23.34    2.59
   4   2  -3   18.77    2.33
  -4  -2   2   80.93    4.91
   4   2  -2   77.55    4.25
  -4  -2   2   69.76    4.10
   4   2  -2   70.73    3.30
   4   2  -2   75.96    4.27
   4   2  -2   75.29    4.08
  -4  -2   2   72.05    4.17
  -4  -2   2   78.12    4.22
   4   2  -2   71.41    4.04
  -4  -2   2   75.76    4.20
   4   2  -2   70.34    3.66
  -4  -2   2   69.18    3.68
  -4  -2   2   69.44    4.13
  -4  -2   2   68.13    3.73
   4   2  -2   71.18    2.87
   4   2  -2   70.95    2.55
  -4  -2   2   75.34    4.56
   4   2  -2   66.02    4.14
  -4  -2   1  108.11    5.48
   4   2  -1  115.09    5.46
  -4  -2   1  108.51    5.41
   4   2  -1  103.72    3.44
   4   2  -1  108.87    5.27
   4   2  -1  111.74    5.16
  -4  -2   1  103.86    5.23
  -4  -2   1  106.18    4.54
   4   2  -1  113.74    5.23
  -4  -2   1  104.25    5.19
   4   2  -1  103.24    4.66
  -4  -2   1   98.33    4.56
  -4  -2   1  107.49    4.59
  -4  -2   1  106.02    4.66
   4   2  -1  101.58    2.67
   4   2  -1  104.94    2.93
  -4  -2   1  123.61    5.93
   4   2  -1   95.25    4.98
   4   2   0   83.39    4.72
  -4  -2   0   84.03    4.96
   4   2   0   88.49    5.07
  -4  -2   0   89.29    5.10
   4   2   0   89.73    4.74
   4   2   0   88.93    5.09
  -4  -2   0   84.05    3.67
   4   2   0   81.16    4.78
  -4  -2   0   83.78    4.78
   4   2   0   85.37    4.39
  -4  -2   0   78.51    3.60
  -4  -2   0   81.35    4.33
  -4  -2   0   79.46    4.19
  -4  -2   0   94.61    5.25
   4   2   1   37.14    3.34
  -4  -2  -1   36.11    3.21
  -4  -2  -1   32.76    3.30
   4   2   1   33.62    3.35
   4   2   1   36.89    3.47
  -4  -2  -1   37.30    2.14
   4   2   1   35.83    3.40
  -4  -2  -1   34.51    3.21
   4   2   1   30.52    3.27
   4   2   1   38.69    3.12
  -4  -2  -1   35.38    2.14
  -4  -2  -1   30.81    2.83
   4   2   1   39.16    3.63
   4   2   2   23.22    2.84
   4   2   2   28.68    3.33
   4   2   2   26.30    3.12
  -4  -2  -2   24.62    1.46
   4   2   2   29.48    3.25
   4   2   2   26.30    3.07
  -4  -2  -2   27.28    1.65
  -4  -2  -2   21.87    2.56
   4   2   3  129.74    7.11
   4   2   3  132.36    7.15
   4   2   3  139.32    7.16
   4   2   3  113.60    6.12
  -4  -2  -3  127.14    2.85
  -4  -2  -3  118.01    5.93
   4   2   4   52.22    4.84
   4   2   4   49.53    4.71
   4   2   4   52.01    4.78
   4   2   4   49.82    4.07
   4   2   4   49.59    3.37
  -4  -2  -4   47.34    3.97
   4   2   4   56.56    3.93
  -4  -2  -5    3.58    1.50
   4   2   5    3.40    1.76
   4   2   5    1.01    1.46
   4   2   5    2.61    1.86
   4   2   5    2.63    1.39
   4   2   5    2.83    0.57
  -4  -2  -5    2.17    0.72
   4   2   5    2.01    0.97
   4   2   5    3.35    1.47
   4   2   6   24.47    1.78
   4   2   6   30.03    4.13
  -4  -2  -6   21.63    1.13
   4   2   6   21.55    3.40
   4   2   6   21.06    2.91
   4   2   6   21.18    3.42
  -4  -2  -6   23.17    3.10
   4   2   6   27.36    3.31
   4   2   6   24.13    2.51
   4   2   7   -0.02    1.61
  -4  -2  -7   -0.40    1.07
   4   2   7    1.15    0.95
   4   2   7    2.33    1.84
   4   2   7    3.84    1.97
   4   2   7    0.59    1.06
   4   2   7    2.69    1.71
   4   2   8    2.07    2.08
  -4  -2  -8   -0.11    0.97
   4   2   8    1.69    1.83
   4   2   8    0.52    1.41
   4   2   8   -0.23    0.98
   4   2   8   -0.62    0.93
   4   2   8   -1.51    1.39
   4   2   9    2.45    1.68
  -4  -2  -9    3.77    1.83
   4   2   9    2.28    1.87
   4   2   9    1.92    1.92
   4   2   9    3.91    1.57
   4   2   9    3.00    2.15
   4   2   9    8.98    2.56
  -4  -2 -10    1.36    1.53
   4   2  10   11.41    3.15
   4   3 -13    9.93    2.81
   4   3 -13   19.10    3.48
  -4  -3  13   12.36    3.13
  -4  -3  13   17.88    3.76
   4   3 -12   -1.50    1.77
   4   3 -12    1.49    1.61
  -4  -3  12   -0.24    1.36
  -4  -3  12    2.62    2.41
  -4  -3  12    3.43    2.19
  -4  -3  12    0.43    2.06
  -4  -3  12    1.25    1.78
   4   3 -11    4.78    2.17
   4   3 -11    0.83    1.02
  -4  -3  11    0.02    1.51
  -4  -3  11    3.76    1.73
  -4  -3  11    0.84    1.73
  -4  -3  11    2.82    2.10
  -4  -3  11    7.87    2.47
   4   3 -10   94.59    5.19
  -4  -3  10   78.12    6.43
  -4  -3  10   91.28    4.92
  -4  -3  10   80.09    4.01
  -4  -3  10   93.52    7.65
  -4  -3  10   79.00    7.09
  -4  -3  10   95.43    6.87
   4   3 -10   88.20    6.29
  -4  -3  10   81.43    6.32
   4   3 -10   80.44    6.35
   4   3  -9   28.92    2.90
  -4  -3   9   29.94    3.97
  -4  -3   9   30.89    2.91
  -4  -3   9   29.14    2.44
  -4  -3   9   33.84    4.51
  -4  -3   9   32.31    4.45
  -4  -3   9   26.70    3.51
   4   3  -9   25.25    3.27
  -4  -3   9   30.64    3.70
   4   3  -9   28.00    3.69
  -4  -3   8   75.84    4.89
  -4  -3   8   77.66    5.95
   4   3  -8   72.98    4.38
  -4  -3   8   67.34    3.92
   4   3  -8   68.47    2.78
  -4  -3   8   69.47    4.04
  -4  -3   8   72.86    4.03
  -4  -3   8   67.66    3.61
  -4  -3   8   74.48    6.20
  -4  -3   8   74.00    6.32
  -4  -3   8   75.31    5.18
  -4  -3   8   69.14    3.79
   4   3  -8   68.60    5.06
  -4  -3   8   66.42    5.06
   4   3  -8   74.66    5.50
  -4  -3   7   29.56    3.04
  -4  -3   7   29.49    3.67
   4   3  -7   29.36    2.78
  -4  -3   7   28.68    2.62
   4   3  -7   27.24    2.00
  -4  -3   7   26.14    2.45
   4   3  -7   28.39    2.72
  -4  -3   7   25.63    2.41
  -4  -3   7   25.09    2.25
  -4  -3   7   25.23    3.57
   4   3  -7   27.32    2.73
  -4  -3   7   29.68    3.89
  -4  -3   7   31.50    3.15
  -4  -3   7   27.01    2.41
  -4  -3   7   25.13    2.98
   4   3  -7   25.09    3.01
   4   3  -7   27.14    3.30
   4   3  -6   12.38    2.20
  -4  -3   6   14.05    2.18
  -4  -3   6   11.45    2.35
   4   3  -6   14.29    1.95
  -4  -3   6   10.99    1.71
   4   3  -6   11.47    1.46
  -4  -3   6   12.58    1.75
   4   3  -6   14.44    2.06
  -4  -3   6   11.47    2.02
  -4  -3   6   13.14    1.77
   4   3  -6   12.25    1.81
  -4  -3   6   11.41    1.56
   4   3  -6   14.39    2.32
   4   3  -6   15.01    2.00
  -4  -3   6   12.08    2.35
  -4  -3   6   15.03    2.90
  -4  -3   6   13.87    1.80
  -4  -3   5   22.45    2.75
   4   3  -5   23.18    2.54
  -4  -3   5   21.00    2.27
  -4  -3   5   20.93    3.04
   4   3  -5   22.13    2.47
   4   3  -5   21.54    2.51
   4   3  -5   22.46    2.14
  -4  -3   5   19.33    2.20
   4   3  -5   19.59    2.32
  -4  -3   5   20.88    2.24
   4   3  -5   20.20    2.55
  -4  -3   5   17.39    1.90
   4   3  -5   21.10    2.26
  -4  -3   5   20.37    2.83
  -4  -3   5   19.29    2.21
  -4  -3   5   20.88    2.99
  -4  -3   5   20.19    1.96
  -4  -3   5   22.73    2.44
   4   3  -5   22.33    2.78
  -4  -3   5   22.12    2.32
  -4  -3   4  208.90    7.82
  -4  -3   4  175.76    7.96
   4   3  -4  168.01    6.41
  -4  -3   4  170.82    6.61
   4   3  -4  168.37    6.00
   4   3  -4  172.88    5.91
   4   3  -4  175.61    6.47
  -4  -3   4  174.00    6.60
  -4  -3   4  161.64    7.10
   4   3  -4  174.83    6.39
  -4  -3   4  170.28    6.38
   4   3  -4  178.14    7.24
  -4  -3   4  163.13    5.74
  -4  -3   4  160.10    7.29
   4   3  -4  172.18    5.72
  -4  -3   4  162.69    5.67
  -4  -3   4  175.99    7.64
  -4  -3   4  172.69    7.09
   4   3  -4  166.39    6.94
  -4  -3   4  161.43    5.59
  -4  -3   3    1.54    0.97
  -4  -3   3    0.72    0.86
   4   3  -3    2.03    1.15
  -4  -3   3    0.52    1.02
   4   3  -3    1.86    1.21
  -4  -3   3    1.66    1.06
   4   3  -3    0.78    0.63
   4   3  -3    0.29    1.03
  -4  -3   3    1.17    0.82
  -4  -3   3    0.59    0.84
  -4  -3   3    0.84    0.75
   4   3  -3    1.61    0.98
   4   3  -3    1.22    0.87
  -4  -3   3    1.90    1.10
  -4  -3   3    0.75    1.14
  -4  -3   3    7.13    1.62
  -4  -3   3    0.69    0.69
   4   3  -3    0.45    0.70
  -4  -3   2  188.82    4.48
  -4  -3   2  194.91    8.00
   4   3  -2  186.32    7.06
  -4  -3   2  183.26    7.26
   4   3  -2  188.17    5.14
   4   3  -2  197.79    6.83
   4   3  -2  185.55    6.97
  -4  -3   2  182.64    7.18
  -4  -3   2  194.87    6.93
   4   3  -2  182.66    6.82
  -4  -3   2  190.59    7.18
   4   3  -2  190.25    6.37
  -4  -3   2  184.49    6.47
  -4  -3   2  184.27    6.90
  -4  -3   2  184.05    5.81
  -4  -3   2  205.21    7.82
   4   3  -2  171.72    6.91
  -4  -3   1   17.33    2.51
  -4  -3   1   22.53    2.69
   4   3  -1   20.33    2.61
   4   3  -1   19.02    1.37
   4   3  -1   21.05    2.37
   4   3  -1   19.72    2.59
  -4  -3   1   18.31    2.42
  -4  -3   1   17.20    1.99
  -4  -3   1   21.26    2.60
   4   3  -1   19.01    2.40
   4   3  -1   21.70    2.33
  -4  -3   1   20.33    2.34
  -4  -3   1   19.24    2.24
  -4  -3   1   18.84    1.98
  -4  -3   1   25.42    2.93
   4   3  -1   17.50    2.46
   4   3   0   84.00    5.01
   4   3   0   90.31    5.44
  -4  -3   0   89.09    5.44
   4   3   0   92.16    5.43
  -4  -3   0   93.01    5.46
  -4  -3   0   84.14    4.04
   4   3   0   85.84    5.15
  -4  -3   0   97.58    5.55
  -4  -3   0   82.53    4.64
  -4  -3   0   91.33    4.32
  -4  -3   0   90.79    4.32
   4   3   1    4.47    1.27
  -4  -3  -1    3.62    1.27
   4   3   1    5.69    1.78
   4   3   1    3.89    1.56
  -4  -3  -1    4.69    1.00
   4   3   1    5.54    1.71
  -4  -3  -1    7.38    1.40
   4   3   1    4.78    0.72
   4   3   2   27.86    3.12
   4   3   2   30.59    3.48
  -4  -3  -2   27.84    2.01
   4   3   2   29.92    3.53
   4   3   2   28.92    3.22
   4   3   2   29.51    3.47
  -4  -3  -2   30.27    2.29
  -4  -3  -2   26.09    2.90
   4   3   2   31.07    2.15
   4   3   3  186.72    8.75
   4   3   3  184.99    8.67
  -4  -3  -3  183.92    4.57
   4   3   3  199.38    8.81
   4   3   3  166.92    7.48
  -4  -3  -3  163.49    7.24
   4   3   3  182.92    5.92
   4   3   4   74.81    5.90
   4   3   4   84.83    6.16
  -4  -3  -4   75.64    2.65
   4   3   4   82.61    5.95
   4   3   4   68.57    4.90
  -4  -3  -4   70.99    4.94
   4   3   4   76.16    4.56
   4   3   4   82.36    4.57
  -4  -3  -5   17.29    2.65
   4   3   5   15.75    2.95
  -4  -3  -5   15.75    1.02
   4   3   5   18.32    3.14
   4   3   5   15.09    2.59
  -4  -3  -5   15.48    1.99
   4   3   5   18.48    3.15
   4   3   5   18.75    2.33
   4   3   5   18.54    2.47
   4   3   6   25.57    4.02
   4   3   6   19.52    3.50
   4   3   6   23.66    3.63
   4   3   6   14.19    2.65
  -4  -3  -6   27.11    3.66
   4   3   6   20.77    2.87
   4   3   6   24.33    2.74
   4   3   7    5.50    1.45
  -4  -3  -7    2.15    1.57
   4   3   7    5.25    2.35
   4   3   7    2.85    2.12
   4   3   7    5.88    2.38
   4   3   7    3.35    1.46
   4   3   7    2.98    1.41
   4   3   8    7.18    2.61
  -4  -3  -8    3.43    1.69
   4   3   8   12.86    3.31
   4   3   8    2.56    2.01
   4   3   8    6.91    1.63
   4   3   8    5.16    1.60
   4   3   8    5.92    2.40
   4   3   8    5.13    1.95
   4   3   9    0.17    1.86
  -4  -3  -9   -1.00    1.41
   4   3   9    4.09    2.40
   4   3   9    0.89    2.29
   4   3   9    1.70    2.06
   4   3   9    0.07    1.67
   4   3  10   11.44    3.40
   4   4 -13    5.93    2.62
   4   4 -13    2.62    1.79
  -4  -4  13    1.78    1.80
  -4  -4  13    4.81    2.30
   4   4 -12    4.28    2.41
   4   4 -12    0.23    1.31
  -4  -4  12   -0.24    1.20
  -4  -4  12    3.67    1.90
  -4  -4  12    3.60    2.23
  -4  -4  12    2.60    2.07
  -4  -4  12    1.23    1.89
   4   4 -11   -0.01    1.45
   4   4 -11    1.06    1.19
  -4  -4  11   -1.28    1.66
  -4  -4  11   -0.63    1.42
  -4  -4  11    0.43    1.46
  -4  -4  11   -1.97    2.53
  -4  -4  11   -0.28    1.37
  -4  -4  10   -0.25    0.69
   4   4 -10   -0.06    1.49
   4   4 -10    0.98    1.25
   4   4 -10    0.56    1.42
  -4  -4  10    3.07    1.91
  -4  -4  10    2.70    1.53
  -4  -4  10    0.91    1.64
  -4  -4  10   -2.40    2.02
  -4  -4  10    1.74    1.82
   4   4  -9   30.95    3.31
  -4  -4   9   24.86    3.65
  -4  -4   9   26.80    2.61
  -4  -4   9   23.05    3.82
  -4  -4   9   28.89    4.58
  -4  -4   9   30.58    3.58
  -4  -4   9   30.97    3.80
   4   4  -9   30.94    3.84
   4   4  -9   26.87    3.74
   4   4  -8   19.98    3.09
  -4  -4   8   21.37    2.65
   4   4  -8   15.26    2.72
  -4  -4   8   19.26    3.21
   4   4  -8   17.27    2.47
   4   4  -8   19.22    1.60
  -4  -4   8   21.17    2.51
  -4  -4   8   19.85    2.83
   4   4  -8   17.80    2.54
  -4  -4   8   16.39    2.18
  -4  -4   8   18.43    2.37
  -4  -4   8   17.68    2.13
  -4  -4   8   15.46    2.99
  -4  -4   8   23.02    3.79
  -4  -4   8   19.15    2.62
  -4  -4   8   16.51    2.10
  -4  -4   7    0.94    0.81
   4   4  -7   -0.86    1.12
   4   4  -7   -1.09    1.26
  -4  -4   7    0.82    1.09
  -4  -4   7    0.09    1.41
   4   4  -7   -0.92    0.98
  -4  -4   7   -1.03    0.98
   4   4  -7    0.11    1.11
  -4  -4   7   -0.37    1.37
  -4  -4   7    1.12    0.86
   4   4  -7    0.17    0.51
   4   4  -7    0.23    0.98
  -4  -4   7    0.56    0.68
  -4  -4   7    0.49    0.77
  -4  -4   7   -0.69    1.33
   4   4  -7   -0.45    0.74
  -4  -4   7    1.81    1.83
  -4  -4   7   -0.31    0.92
   4   4  -6   19.71    2.76
  -4  -4   6   16.23    2.31
  -4  -4   6   18.53    2.40
  -4  -4   6   16.28    2.82
   4   4  -6   15.93    2.33
   4   4  -6   16.15    1.73
  -4  -4   6   17.03    2.26
   4   4  -6   16.87    2.34
  -4  -4   6   16.84    2.36
   4   4  -6   17.84    2.43
  -4  -4   6   16.09    2.13
  -4  -4   6   15.09    1.96
   4   4  -6   15.73    2.36
   4   4  -6   17.10    2.00
  -4  -4   6   21.19    3.11
  -4  -4   6   12.84    2.52
  -4  -4   6   16.79    2.00
  -4  -4   6   19.64    2.31
  -4  -4   5   -0.40    0.84
   4   4  -5   -0.31    1.07
  -4  -4   5    0.76    1.13
  -4  -4   5    0.27    1.23
   4   4  -5    0.53    1.11
  -4  -4   5    1.55    1.06
   4   4  -5    0.52    1.16
   4   4  -5    0.10    0.82
  -4  -4   5   -0.51    1.08
  -4  -4   5    0.76    1.01
   4   4  -5   -0.67    0.69
   4   4  -5   -0.37    1.00
  -4  -4   5    0.32    0.68
  -4  -4   5   -0.32    0.77
   4   4  -5   -0.86    1.00
  -4  -4   5    0.31    1.15
   4   4  -5   -0.16    0.63
  -4  -4   5   -0.54    1.22
  -4  -4   5   -0.05    0.53
  -4  -4   5    0.31    0.79
   4   4  -4   16.47    2.44
  -4  -4   4   21.62    2.81
  -4  -4   4   17.62    2.37
  -4  -4   4   18.44    2.80
   4   4  -4   19.87    2.60
   4   4  -4   18.18    2.05
   4   4  -4   19.50    2.17
  -4  -4   4   17.89    2.41
   4   4  -4   18.40    2.55
   4   4  -4   17.91    2.45
  -4  -4   4   21.54    2.60
  -4  -4   4   18.66    2.26
  -4  -4   4   17.47    2.84
  -4  -4   4   18.10    1.83
  -4  -4   4   20.25    2.98
  -4  -4   4   17.19    1.91
  -4  -4   4   17.67    2.18
  -4  -4   3   -0.76    0.97
   4   4  -3    0.91    1.14
  -4  -4   3   -1.80    1.59
   4   4  -3    0.15    1.16
  -4  -4   3   -0.14    0.91
   4   4  -3   -1.34    1.18
   4   4  -3    0.40    0.82
  -4  -4   3    0.26    1.14
  -4  -4   3    0.17    0.64
  -4  -4   3   -0.40    1.25
   4   4  -3    0.71    0.84
   4   4  -3    0.50    1.17
  -4  -4   3    1.06    1.07
  -4  -4   3    0.18    1.21
  -4  -4   3   -0.23    0.56
  -4  -4   2   -0.30    0.86
   4   4  -2    0.95    1.10
  -4  -4   2   -0.10    1.18
   4   4  -2    0.37    1.34
  -4  -4   2   -0.28    1.13
   4   4  -2    0.23    0.51
   4   4  -2   -0.42    1.05
  -4  -4   2   -0.49    0.99
  -4  -4   2    0.34    1.07
  -4  -4   2   -0.23    0.53
   4   4  -2   -0.02    0.76
   4   4  -2    0.47    1.23
  -4  -4   2    0.43    0.89
  -4  -4   2   -1.12    1.57
  -4  -4   2   -0.43    0.65
  -4  -4   1  337.71   11.14
   4   4  -1  344.05   10.50
   4   4  -1  316.28    5.13
   4   4  -1  330.55   10.32
  -4  -4   1  322.63    9.04
   4   4  -1  322.02   10.00
  -4  -4   1  309.09    9.18
  -4  -4   1  326.57    9.39
  -4  -4   1  325.68    7.57
   4   4  -1  305.60    9.75
   4   4   0  267.16    9.62
   4   4   0  273.39    9.74
  -4  -4   0  261.17    7.77
   4   4   0  253.55    9.17
  -4  -4   0  268.91    8.74
  -4  -4   0  253.13    8.00
  -4  -4   0  260.93    7.12
   4   4   0  240.09    8.72
   4   4   1   50.25    4.23
   4   4   1   57.91    4.80
   4   4   1   57.26    4.78
  -4  -4  -1   62.29    3.69
   4   4   1   56.72    4.60
  -4  -4  -1   58.28    4.27
   4   4   2  183.65    8.11
   4   4   2  194.07    8.97
   4   4   2  201.80    9.09
   4   4   2  199.56    8.84
  -4  -4  -2  188.40    7.76
   4   4   2  200.39    4.81
   4   4   3  153.61    8.27
   4   4   3  153.71    8.21
   4   4   3  158.05    8.06
   4   4   3  135.97    7.08
  -4  -4  -3  134.17    6.81
   4   4   3  156.62    5.31
  -4  -4  -4    0.66    1.15
   4   4   4   -0.50    1.27
   4   4   4    3.38    1.85
   4   4   4    0.42    1.31
   4   4   4    0.50    0.98
   4   4   4   -0.10    1.01
   4   4   4   -0.11    0.85
  -4  -4  -5    2.72    1.21
   4   4   5    0.52    1.22
   4   4   5    1.95    1.62
   4   4   5   -0.25    1.34
   4   4   5   -0.72    1.06
   4   4   5    0.13    1.05
   4   4   5    0.10    0.95
   4   4   6    1.08    1.14
  -4  -4  -6    0.45    0.86
   4   4   6    4.37    2.25
   4   4   6    1.40    1.61
   4   4   6    0.04    1.49
   4   4   6   -1.32    1.32
   4   4   6    1.60    1.16
   4   4   7   11.12    2.17
  -4  -4  -7   12.40    2.56
   4   4   7   13.52    3.19
   4   4   7   13.80    3.28
   4   4   7   13.08    3.12
   4   4   7    7.99    2.13
   4   4   7   11.79    3.38
   4   4   7   13.24    2.54
   4   4   8    3.20    2.30
  -4  -4  -8    1.98    1.47
   4   4   8    8.17    2.89
   4   4   8    1.96    1.34
   4   4   8    1.62    1.97
   4   4   8    0.61    0.84
   4   4   8    1.18    2.38
   4   4   8    0.76    1.39
  -4  -4  -9    4.17    1.95
  -4  -5  13    1.87    1.68
  -4  -5  13    0.15    1.61
   4   5 -12    6.58    3.30
   4   5 -12   -0.48    1.27
  -4  -5  12    0.15    1.45
  -4  -5  12    1.30    1.70
  -4  -5  12   -0.97    2.10
  -4  -5  12   -2.06    2.49
  -4  -5  12    0.80    1.58
  -4  -5  11    7.57    1.59
   4   5 -11   12.09    3.08
   4   5 -11   11.85    2.77
  -4  -5  11    6.27    2.33
  -4  -5  11    9.58    2.45
  -4  -5  11   10.64    2.29
  -4  -5  11    9.56    2.84
  -4  -5  11   12.75    3.54
  -4  -5  11    8.68    2.57
  -4  -5  10    0.14    0.71
   4   5 -10    0.83    1.56
   4   5 -10    1.62    1.65
   4   5 -10    1.97    1.56
  -4  -5  10   -1.84    1.50
  -4  -5  10    1.68    1.23
  -4  -5  10   -0.94    1.95
  -4  -5  10   -5.04    2.57
  -4  -5  10   -0.98    1.54
  -4  -5  10    0.17    1.31
  -4  -5   9    5.84    1.44
   4   5  -9    7.23    2.42
   4   5  -9    3.79    1.72
  -4  -5   9    4.58    1.46
  -4  -5   9    3.59    1.70
   4   5  -9    4.20    1.58
  -4  -5   9    5.76    1.97
  -4  -5   9    6.85    2.56
  -4  -5   9    5.99    2.39
  -4  -5   9    4.91    1.66
   4   5  -8   27.44    3.79
  -4  -5   8   27.39    2.89
  -4  -5   8   27.59    3.80
   4   5  -8   32.84    3.71
  -4  -5   8   20.71    3.05
   4   5  -8   25.54    3.26
  -4  -5   8   25.94    2.75
  -4  -5   8   24.99    3.87
  -4  -5   8   28.31    4.14
  -4  -5   8   27.11    3.07
   4   5  -8   24.66    3.48
  -4  -5   7    2.09    1.20
   4   5  -7   -0.06    1.49
   4   5  -7    1.72    1.44
  -4  -5   7    3.10    1.38
  -4  -5   7    1.54    1.43
   4   5  -7    2.62    1.45
  -4  -5   7    2.87    1.31
   4   5  -7    2.39    1.40
   4   5  -7    0.40    0.59
   4   5  -7    1.85    1.19
   4   5  -7    1.35    0.88
  -4  -5   7    0.65    1.44
   4   5  -7    0.77    0.82
  -4  -5   7    1.30    2.02
  -4  -5   6   -0.19    0.81
   4   5  -6    0.45    1.33
  -4  -5   6    1.67    1.20
  -4  -5   6   -0.84    1.35
   4   5  -6    0.65    1.17
  -4  -5   6   -0.14    1.08
   4   5  -6    0.37    1.23
   4   5  -6    0.36    0.64
   4   5  -6    2.08    1.65
   4   5  -6    2.40    1.31
  -4  -5   6    2.86    1.76
   4   5  -6    0.79    0.77
  -4  -5   6    0.74    1.47
  -4  -5   6    1.39    0.82
  -4  -5   5    5.93    1.56
   4   5  -5    4.38    1.56
  -4  -5   5    7.10    1.78
  -4  -5   5    4.37    1.92
   4   5  -5    8.24    1.97
  -4  -5   5    6.92    1.53
   4   5  -5    5.74    1.52
   4   5  -5    5.04    1.20
   4   5  -5    9.81    2.02
   4   5  -5    4.61    1.37
  -4  -5   5    7.88    2.26
   4   5  -5    7.39    1.23
  -4  -5   5    6.21    1.98
  -4  -5   5    5.60    0.83
   4   5  -4   18.58    2.73
  -4  -5   4   20.69    3.14
   4   5  -4   18.65    2.74
   4   5  -4   20.17    2.32
   4   5  -4   19.35    2.75
   4   5  -4   17.22    2.57
  -4  -5   4   18.46    2.40
  -4  -5   4   18.87    2.92
  -4  -5   4   18.07    1.75
  -4  -5   4   20.96    2.15
  -4  -5   3   57.38    5.06
   4   5  -3   50.78    4.28
   4   5  -3   55.29    3.20
   4   5  -3   53.65    4.30
   4   5  -3   55.67    4.31
  -4  -5   3   51.61    3.88
  -4  -5   3   53.03    4.50
  -4  -5   3   52.17    2.74
  -4  -5   3   49.79    2.86
   4   5  -3   45.21    4.04
  -4  -5   2   69.47    5.71
   4   5  -2   64.55    4.85
   4   5  -2   67.16    3.00
   4   5  -2   63.51    4.80
  -4  -5   2   68.01    4.75
   4   5  -2   67.00    4.84
  -4  -5   2   69.80    4.57
  -4  -5   2   71.18    5.04
  -4  -5   2   62.40    2.96
  -4  -5   2   67.31    2.69
   4   5  -2   56.29    4.52
   4   5  -1   17.42    2.66
   4   5  -1   15.09    2.65
   4   5  -1   16.27    1.19
   4   5  -1   17.73    2.80
  -4  -5   1   20.00    2.71
   4   5  -1   15.75    2.62
  -4  -5   1   17.19    2.44
  -4  -5   1   23.17    3.35
  -4  -5   1   18.64    1.79
  -4  -5   0   -0.26    1.00
   4   5   0    0.03    1.28
   4   5   0    0.54    1.19
   4   5   0   -0.78    1.29
   4   5   0   -0.96    1.36
  -4  -5   0    0.86    0.81
   4   5   1   78.07    5.44
   4   5   1   80.93    5.87
   4   5   1   76.73    5.72
   4   5   1   77.04    5.60
  -4  -5  -1   70.38    4.92
  -4  -5  -2   -0.72    1.35
   4   5   2    1.97    1.50
   4   5   2   -0.05    1.30
   4   5   2   -0.38    1.32
   4   5   2   -0.08    1.31
   4   5   3   13.25    2.59
  -4  -5  -3    9.31    2.05
   4   5   3   10.29    2.65
   4   5   3   11.65    2.72
   4   5   3   14.35    2.68
   4   5   3   11.68    2.27
   4   5   3   13.34    1.56
  -4  -5  -4    9.37    2.23
   4   5   4    6.20    2.06
   4   5   4    7.63    2.13
   4   5   4    9.96    2.42
   4   5   4    3.39    1.69
   4   5   4    7.75    2.05
   4   5   4    7.34    1.45
  -4  -5  -5    4.32    1.67
   4   5   5    5.79    2.22
   4   5   5    5.51    2.15
   4   5   5    1.93    1.73
   4   5   5    2.12    1.47
   4   5   5    4.89    1.72
   4   5   5    6.41    1.66
   4   5   6    0.12    1.10
  -4  -5  -6    1.37    1.09
   4   5   6    0.80    1.45
   4   5   6    0.44    1.51
   4   5   6    2.46    1.80
   4   5   6    0.82    1.10
   4   5   6    0.47    1.04
   4   5   7    0.68    1.41
  -4  -5  -7    1.20    1.23
   4   5   7    2.09    1.89
   4   5   7    0.76    1.73
   4   5   7    2.23    1.95
   4   5   7    1.58    1.14
   4   5   7   -0.17    1.66
  -4  -5  -8    7.14    2.13
   4   5   8    6.22    2.30
   4   5   8   11.39    3.16
   4   5   8    7.60    2.22
   4   5   8   11.05    3.19
   4   5   8   11.40    2.99
   4   6 -12    4.45    2.15
  -4  -6  12    6.14    2.66
  -4  -6  12    1.82    1.32
  -4  -6  12    4.27    2.13
  -4  -6  11    1.72    1.03
   4   6 -11    4.97    2.31
   4   6 -11    3.60    1.73
   4   6 -11    6.28    2.12
  -4  -6  11    1.87    1.69
  -4  -6  11    6.51    2.16
  -4  -6  11    4.25    1.73
  -4  -6  11    1.31    1.32
  -4  -6  11    5.63    2.64
  -4  -6  11    3.08    1.71
  -4  -6  10    8.71    1.85
   4   6 -10    7.13    2.48
   4   6 -10    5.55    1.93
  -4  -6  10    8.87    2.52
   4   6 -10    8.92    2.50
  -4  -6  10    9.03    2.44
  -4  -6  10    5.65    2.48
  -4  -6  10    3.93    2.44
  -4  -6  10    7.68    2.17
  -4  -6   9    1.91    1.27
   4   6  -9    3.21    2.09
   4   6  -9    0.46    1.38
  -4  -6   9    1.81    1.06
  -4  -6   9    1.60    1.50
   4   6  -9    1.26    1.54
   4   6  -9    2.08    1.39
  -4  -6   9    1.10    1.67
  -4  -6   9   -0.14    1.78
  -4  -6   9    0.34    1.08
  -4  -6   8    0.00    0.96
   4   6  -8    2.86    1.96
   4   6  -8    1.28    1.59
  -4  -6   8    0.22    0.97
  -4  -6   8   -0.87    1.43
   4   6  -8   -0.51    1.34
  -4  -6   8    0.71    1.37
   4   6  -8    1.59    1.55
  -4  -6   8   -0.02    1.49
  -4  -6   8    0.99    1.54
  -4  -6   8    0.63    0.86
  -4  -6   7   15.22    2.39
   4   6  -7   14.68    3.04
   4   6  -7   13.05    2.74
  -4  -6   7   13.00    2.13
  -4  -6   7   12.82    2.75
   4   6  -7   16.41    2.91
  -4  -6   7   17.57    2.69
   4   6  -7   13.95    1.82
   4   6  -7   14.68    2.73
   4   6  -7   15.51    2.83
   4   6  -7   13.41    2.05
  -4  -6   7   12.86    3.72
  -4  -6   7   21.00    3.82
  -4  -6   6    2.69    1.23
   4   6  -6    3.61    1.70
  -4  -6   6    3.77    1.40
  -4  -6   6    2.33    1.61
   4   6  -6    2.67    1.65
  -4  -6   6    3.03    1.40
   4   6  -6    5.11    1.93
   4   6  -6    5.21    1.35
   4   6  -6    4.71    1.78
   4   6  -6    3.55    1.17
  -4  -6   6    3.01    1.75
   4   6  -6    2.75    0.72
  -4  -6   6    4.75    2.07
  -4  -6   6    3.24    0.85
  -4  -6   5    0.72    0.96
   4   6  -5    0.71    1.23
  -4  -6   5    2.76    1.49
  -4  -6   5    0.84    1.43
   4   6  -5    1.51    1.51
  -4  -6   5    2.05    1.03
   4   6  -5   -0.66    1.67
   4   6  -5    2.06    1.41
   4   6  -5    2.49    1.11
  -4  -6   5    1.23    1.51
  -4  -6   5    1.90    0.43
  -4  -6   4    2.62    1.17
   4   6  -4    3.48    1.63
  -4  -6   4    3.69    1.95
   4   6  -4    0.82    1.31
  -4  -6   4    3.59    1.10
   4   6  -4    2.89    1.47
   4   6  -4    2.98    1.38
  -4  -6   4    2.52    1.36
  -4  -6   3    0.81    1.13
   4   6  -3   -0.03    1.12
   4   6  -3   -0.82    1.40
  -4  -6   3    0.50    0.70
   4   6  -3   -0.97    1.46
   4   6  -3   -1.52    1.62
  -4  -6   3   -0.07    0.40
  -4  -6   2   10.15    2.09
   4   6  -2    7.64    1.99
   4   6  -2    6.65    1.95
   4   6  -2    9.58    2.09
   4   6  -2    7.85    2.02
  -4  -6   2   23.96    4.13
  -4  -6   2    7.45    0.97
  -4  -6   2    9.49    1.17
  -4  -6   1    0.75    1.09
   4   6  -1    0.77    1.37
   4   6  -1    0.83    1.48
   4   6  -1    0.60    0.39
  -4  -6   1    0.36    0.26
   4   6  -1    0.52    1.26
   4   6  -1   -0.48    1.35
  -4  -6   1    0.95    0.59
  -4  -6   0    0.97    0.98
   4   6   0   -0.29    1.45
   4   6   0   -0.45    1.39
   4   6   0    1.14    1.67
   4   6   0    0.17    1.31
  -4  -6   0    0.29    0.59
   4   6   1  284.66   10.62
   4   6   1  323.30   11.98
   4   6   1  325.12   11.76
  -4  -6  -1  321.28   10.87
  -4  -6  -1  310.77    7.80
   4   6   1  329.09   12.14
  -4  -6  -2   13.04    2.43
   4   6   2   10.28    2.33
   4   6   2   13.25    2.88
   4   6   2   14.00    2.90
   4   6   2   16.76    3.08
   4   6   3   38.67    4.30
   4   6   3   36.03    4.52
   4   6   3   35.31    4.43
   4   6   3   41.39    4.58
  -4  -6  -3   34.13    3.84
  -4  -6  -4    0.07    1.03
   4   6   4   -1.55    1.69
   4   6   4   -0.38    1.66
   4   6   4    1.18    1.59
   4   6   4   -0.25    1.18
   4   6   4    0.23    0.95
  -4  -6  -5   11.66    2.58
   4   6   5   18.70    3.82
   4   6   5    8.51    2.49
   4   6   5   10.95    2.50
   4   6   5    6.64    2.09
   4   6   5   13.26    2.53
   4   6   6   -0.80    1.45
  -4  -6  -6    1.21    1.19
   4   6   6   -1.50    2.05
   4   6   6   -0.38    1.70
   4   6   6   -1.32    1.78
   4   6   6    0.19    0.84
   4   6   6    0.70    1.46
   4   6   7    0.52    1.24
  -4  -6  -7   -0.07    1.19
   4   6   7   -0.77    2.04
   4   6   7    0.46    1.64
   4   6   7    2.51    1.96
   4   6   7   -4.89    2.44
   4   6   8   -0.20    1.18
  -4  -7  12   -1.36    1.68
  -4  -7  11    1.42    1.10
   4   7 -11   -0.34    1.63
   4   7 -11    0.48    1.28
  -4  -7  11    0.65    1.66
   4   7 -11    5.14    2.19
  -4  -7  11   -0.38    1.44
  -4  -7  11    5.62    2.39
  -4  -7  11    2.27    2.19
  -4  -7  11    4.56    2.67
  -4  -7  10    3.69    1.45
   4   7 -10    4.11    2.14
   4   7 -10    3.42    1.67
  -4  -7  10    2.15    1.71
   4   7 -10    2.91    1.82
  -4  -7  10    3.87    2.06
  -4  -7  10    0.15    1.55
  -4  -7  10    5.46    2.65
  -4  -7   9    0.72    1.23
   4   7  -9    3.25    2.21
   4   7  -9   -0.62    1.08
  -4  -7   9   -0.19    1.22
   4   7  -9    1.80    1.75
  -4  -7   9    0.94    1.74
   4   7  -9    0.46    1.31
  -4  -7   9    1.78    1.70
  -4  -7   9   -2.09    1.88
  -4  -7   9    1.60    1.26
  -4  -7   8   14.81    2.58
   4   7  -8   12.33    3.14
   4   7  -8   13.42    2.96
  -4  -7   8   16.50    2.27
  -4  -7   8   12.73    2.94
  -4  -7   8   13.35    2.86
   4   7  -8   14.43    2.98
   4   7  -8   15.20    2.95
  -4  -7   8   12.97    3.36
  -4  -7   8   19.20    3.85
  -4  -7   8   12.99    2.08
  -4  -7   7   -1.38    1.19
   4   7  -7   -1.40    1.41
   4   7  -7   -0.01    1.50
  -4  -7   7    0.29    0.94
  -4  -7   7    0.09    1.62
   4   7  -7   -1.18    1.75
  -4  -7   7    1.74    1.62
   4   7  -7    0.46    1.49
   4   7  -7    0.12    1.39
  -4  -7   7   -2.04    1.88
  -4  -7   7   -0.71    1.55
  -4  -7   6    1.02    0.99
   4   7  -6    1.22    1.40
  -4  -7   6    0.68    1.22
  -4  -7   6   -0.14    1.60
   4   7  -6    0.91    1.49
  -4  -7   6    3.89    1.76
   4   7  -6   -0.47    1.68
   4   7  -6   -0.60    1.57
  -4  -7   6    0.03    1.63
  -4  -7   6    0.58    0.40
  -4  -7   5    2.68    1.40
   4   7  -5    2.45    1.65
  -4  -7   5    2.26    1.88
  -4  -7   5    2.22    1.05
   4   7  -5    2.28    1.49
   4   7  -5    2.51    1.62
   4   7  -5    1.82    1.51
   4   7  -5    2.96    1.04
  -4  -7   5    1.44    1.31
  -4  -7   4    1.30    1.14
   4   7  -4    0.91    1.30
  -4  -7   4    0.36    1.49
  -4  -7   4    1.07    1.13
   4   7  -4    1.27    1.52
   4   7  -4    0.31    1.40
   4   7  -4    0.58    1.56
  -4  -7   4    0.31    1.28
  -4  -7   3   12.67    2.28
   4   7  -3    8.41    2.19
  -4  -7   3   25.04    4.18
  -4  -7   3   11.35    1.58
   4   7  -3   12.23    2.69
   4   7  -3   11.70    2.56
   4   7  -3   10.95    2.62
  -4  -7   3   16.34    3.16
  -4  -7   2    1.59    1.23
   4   7  -2    1.96    1.49
  -4  -7   2    2.06    0.77
   4   7  -2    1.77    1.73
   4   7  -2    1.48    1.84
   4   7  -2   -0.61    1.48
  -4  -7   2    4.31    0.48
   4   7  -1   46.37    4.79
   4   7  -1   37.63    1.93
   4   7  -1   43.91    4.64
   4   7  -1   41.62    4.38
  -4  -7   1   42.00    4.05
  -4  -7   1   42.53    1.93
  -4  -7   1   40.65    1.98
   4   7  -1   36.65    3.97
  -4  -7   0    6.25    1.85
   4   7   0    3.58    1.41
   4   7   0    3.47    1.84
   4   7   0    3.49    1.89
   4   7   0    2.71    1.68
  -4  -7   0    4.93    0.88
  -4  -7  -1    9.19    2.16
   4   7   1    6.64    1.85
   4   7   1    7.48    2.25
   4   7   1    4.88    2.07
   4   7   1    5.57    2.04
  -4  -7  -1    5.63    1.08
  -4  -7  -2   10.49    2.53
   4   7   2   10.11    2.36
   4   7   2   13.29    3.11
   4   7   2    9.84    2.53
   4   7   2   10.09    2.61
   4   7   3   40.69    4.48
   4   7   3   39.95    4.91
   4   7   3   39.36    4.91
   4   7   3   37.01    4.60
  -4  -7  -3   39.86    4.33
   4   7   3   38.98    4.21
  -4  -7  -4    5.15    2.00
   4   7   4    7.43    2.51
   4   7   4    6.88    2.26
   4   7   4    7.51    2.37
   4   7   4    3.31    1.88
   4   7   4    6.90    2.16
  -4  -7  -5    4.78    1.83
   4   7   5    7.77    2.66
   4   7   5   25.39    4.25
   4   7   5   11.21    2.94
   4   7   5    6.59    2.24
   4   7   5   11.93    3.00
   4   7   5    9.61    2.37
   4   7   6    5.30    2.05
  -4  -7  -6    2.97    1.60
   4   7   6    5.00    2.27
   4   7   6    1.49    1.76
   4   7   6    2.64    1.91
   4   7   6    3.64    2.26
   4   7   7   14.43    2.98
  -4  -8  11    1.31    1.49
  -4  -8  11   -2.09    1.94
   4   8 -11    1.85    2.04
  -4  -8  11    2.17    1.88
  -4  -8  10    4.76    1.97
   4   8 -10    1.08    1.76
   4   8 -10    0.93    1.40
  -4  -8  10   -0.18    1.43
   4   8 -10   -0.09    1.61
  -4  -8  10    4.19    2.24
  -4  -8  10    0.26    1.75
  -4  -8  10   -0.96    2.27
  -4  -8   9   71.49    6.77
   4   8  -9   64.66    6.30
   4   8  -9   71.11    6.50
  -4  -8   9   62.78    5.34
  -4  -8   9   73.65    7.51
  -4  -8   9   71.52    7.58
  -4  -8   9   74.41    6.33
   4   8  -9   74.38    6.81
   4   8  -9   70.31    6.75
  -4  -8   8   49.90    5.82
   4   8  -8   47.00    5.35
   4   8  -8   53.82    5.60
  -4  -8   8   43.70    4.43
  -4  -8   8   53.43    6.27
  -4  -8   8   48.57    6.09
  -4  -8   8   54.72    5.25
   4   8  -8   46.75    5.35
   4   8  -8   54.36    5.88
  -4  -8   7    7.35    1.98
   4   8  -7   10.01    2.76
   4   8  -7    3.45    1.41
  -4  -8   7    9.49    1.91
  -4  -8   7    7.86    2.65
  -4  -8   7    7.71    2.31
   4   8  -7    4.31    2.01
   4   8  -7    7.62    2.52
   4   8  -7    4.66    2.00
  -4  -8   7    7.45    2.64
  -4  -8   7    8.71    3.05
  -4  -8   6   -1.15    1.43
   4   8  -6    0.87    1.53
  -4  -8   6    0.41    1.31
  -4  -8   6    0.21    1.61
  -4  -8   6   -0.18    1.13
   4   8  -6    1.33    1.73
   4   8  -6    0.43    1.42
   4   8  -6   -0.78    1.75
  -4  -8   6   -0.50    1.84
  -4  -8   5    1.44    1.15
   4   8  -5    3.09    1.72
  -4  -8   5    2.75    1.80
  -4  -8   5    0.50    1.20
   4   8  -5   -0.45    1.54
   4   8  -5    1.64    1.94
   4   8  -5    0.96    1.74
  -4  -8   5    2.06    2.16
  -4  -8   4   -0.31    1.05
   4   8  -4    1.46    1.71
  -4  -8   4    2.87    1.93
   4   8  -4    0.31    1.55
  -4  -8   4    0.27    0.92
   4   8  -4    0.13    1.55
   4   8  -4   -0.57    1.78
  -4  -8   4    2.40    2.19
   4   8  -3   62.12    5.83
   4   8  -3   66.14    5.88
   4   8  -3   73.74    6.18
  -4  -8   3   66.34    5.28
  -4  -8   3   59.83    5.93
  -4  -8   3   61.90    3.83
   4   8  -3   59.98    5.32
  -4  -8   2    0.99    0.98
   4   8  -2   -0.71    1.38
  -4  -8   2    1.21    0.69
   4   8  -2    2.72    1.97
   4   8  -2    6.95    2.47
   4   8  -2    3.73    1.96
  -4  -8   1    0.42    1.10
   4   8  -1    1.88    1.61
   4   8  -1   -1.62    1.81
   4   8  -1   -0.79    1.56
   4   8  -1   -1.07    1.85
  -4  -8   0    4.72    1.73
   4   8   0    5.24    1.86
   4   8   0    4.45    1.98
   4   8   0    4.03    1.88
   4   8   0    4.61    2.13
  -4  -8  -1    2.44    1.26
   4   8   1    2.53    1.52
   4   8   1   -0.56    1.72
   4   8   1    0.23    1.54
   4   8   1   -0.20    1.35
  -4  -8  -2   -1.11    1.04
   4   8   2    1.32    1.52
   4   8   2    1.58    2.03
   4   8   2    1.97    1.55
  -4  -8  -3   -0.06    1.20
   4   8   3    1.14    1.41
   4   8   3    2.36    1.91
   4   8   3    1.84    1.64
   4   8   3    3.00    1.98
   4   8   3    2.52    1.91
   4   8   3    0.64    1.20
  -4  -8  -4    0.88    0.98
   4   8   4    1.44    1.80
   4   8   4    4.18    2.11
   4   8   4    0.19    1.55
   4   8   4    0.12    1.47
   4   8   4    1.75    1.53
  -4  -8  -5    3.24    1.81
   4   8   5    3.93    2.25
   4   8   5    7.69    2.91
   4   8   5    3.81    2.06
   4   8   5    1.33    1.35
   4   8   5    7.50    2.17
   4   8   6    2.55    1.90
  -4  -9  11   -0.19    1.06
   4   9 -11    2.29    2.22
  -4  -9  10   14.26    3.02
  -4  -9  10   13.09    3.08
   4   9 -10   11.29    3.20
  -4  -9  10   18.73    3.67
  -4  -9   9    0.67    1.41
  -4  -9   9    1.32    1.87
   4   9  -9   -3.42    1.96
  -4  -9   9    2.27    1.77
   4   9  -9    0.58    1.75
  -4  -9   8   43.00    5.57
   4   9  -8   36.32    5.02
   4   9  -8   44.19    5.44
  -4  -9   8   48.74    4.91
  -4  -9   8   51.59    6.58
  -4  -9   8   46.47    6.14
  -4  -9   8   52.69    5.26
   4   9  -8   47.25    5.59
   4   9  -8   50.76    5.83
  -4  -9   7   15.35    2.87
   4   9  -7   19.87    3.68
   4   9  -7   18.54    3.54
  -4  -9   7   15.83    3.45
  -4  -9   7   14.16    2.60
   4   9  -7   16.33    3.42
   4   9  -7   17.11    3.68
   4   9  -7   18.70    3.74
  -4  -9   7    9.40    2.81
  -4  -9   6    5.14    1.82
   4   9  -6    4.81    2.09
   4   9  -6    7.45    2.52
  -4  -9   6    7.14    2.66
  -4  -9   6    6.10    1.77
   4   9  -6    4.26    2.41
   4   9  -6    7.12    2.44
   4   9  -6    0.95    1.70
  -4  -9   6    3.87    1.88
  -4  -9   5   15.90    2.93
   4   9  -5   12.64    2.85
  -4  -9   5   11.13    3.23
  -4  -9   5   10.57    2.22
   4   9  -5   16.75    3.37
   4   9  -5    9.35    2.50
   4   9  -5   14.04    3.27
  -4  -9   5   15.27    3.48
  -4  -9   4    3.36    1.76
   4   9  -4    1.73    1.63
  -4  -9   4    3.32    1.31
  -4  -9   4    3.70    2.47
   4   9  -4    3.61    2.20
   4   9  -4    3.77    1.95
   4   9  -4   -0.13    1.59
  -4  -9   4   10.89    3.02
  -4  -9   3   10.71    2.49
   4   9  -3   10.16    2.43
   4   9  -3   15.34    3.41
   4   9  -3    9.24    2.77
   4   9  -3   11.45    3.01
  -4  -9   3   13.10    2.63
  -4  -9   2   17.80    3.06
   4   9  -2   16.58    2.99
   4   9  -2   23.44    3.91
  -4  -9   2   23.59    3.52
   4   9  -2   20.84    3.80
   4   9  -2   24.66    3.97
   4   9  -1   36.45    4.81
  -4  -9   1   30.45    3.99
   4   9  -1   28.37    4.25
   4   9  -1   32.90    4.59
  -4  -9   1   29.64    3.96
   4   9  -1   27.75    3.83
  -4  -9   0    9.16    2.56
   4   9   0    8.00    2.25
   4   9   0    6.43    2.65
   4   9   0    9.48    2.70
   4   9   0    7.42    2.48
  -4  -9   0    9.32    2.37
   4   9   1   29.50    3.99
   4   9   1   28.91    4.52
  -4  -9  -1   30.34    4.09
   4   9   1   28.27    4.28
   4   9   1   29.47    4.42
   4   9   1   25.71    3.60
  -4  -9  -1   30.34    4.08
  -4  -9  -2    0.06    1.20
   4   9   2   -1.03    1.36
   4   9   2    0.99    1.88
   4   9   2    0.76    1.86
   4   9   2   -0.21    1.47
   4   9   2   -0.19    1.04
   4   9   2    0.27    1.24
  -4  -9  -3   -0.85    1.35
   4   9   3   -1.24    1.93
   4   9   3   -0.88    1.96
   4   9   3    2.98    2.11
   4   9   3    1.45    1.45
   4   9   3   -1.28    1.42
   4   9   4    1.41    1.81
   4   9   5   -0.14    1.73
  -4 -10   9   -0.72    1.52
  -4 -10   8    3.77    1.78
  -4 -10   8    7.76    2.77
   4  10  -8    7.97    2.82
  -4 -10   8    2.74    1.92
   4  10  -8   10.59    3.14
  -4 -10   7    6.50    2.25
   4  10  -7    6.39    2.53
   4  10  -7    4.03    2.37
  -4 -10   7    3.04    2.04
  -4 -10   7    4.17    1.76
   4  10  -7    8.72    2.55
   4  10  -7    3.21    2.51
   4  10  -7    3.03    2.34
  -4 -10   7    2.34    2.33
  -4 -10   6    9.45    2.34
   4  10  -6    9.91    2.97
   4  10  -6    8.93    2.65
  -4 -10   6    5.10    2.36
   4  10  -6    7.33    2.53
   4  10  -6    2.06    1.44
   4  10  -6    7.25    2.56
  -4 -10   6    2.67    1.91
  -4 -10   5    2.30    1.70
   4  10  -5    1.89    1.42
  -4 -10   5   -0.64    1.70
   4  10  -5    1.32    1.84
   4  10  -5    1.00    1.94
   4  10  -5    2.90    2.40
  -4 -10   5    7.18    2.85
  -4 -10   4    9.99    2.46
   4  10  -4   13.81    2.96
  -4 -10   4   32.15    5.22
   4  10  -4   17.22    3.72
   4  10  -4   16.49    3.69
   4  10  -4   10.77    3.08
  -4 -10   4   15.39    3.05
  -4 -10   4   32.30    5.12
  -4 -10   3    2.16    1.41
   4  10  -3    1.20    1.59
   4  10  -3   -1.80    1.56
   4  10  -3    0.63    1.75
   4  10  -3    0.23    1.77
  -4 -10   2    1.59    1.52
   4  10  -2    2.99    1.75
   4  10  -2    1.81    1.91
   4  10  -2    0.65    1.55
   4  10  -2    2.27    1.85
  -4 -10   2    1.19    1.38
  -4 -10   1    1.89    1.37
   4  10  -1    0.29    1.28
   4  10  -1    4.77    2.23
   4  10  -1   -0.94    1.70
   4  10  -1    4.12    2.25
  -4 -10   1    1.63    1.44
  -4 -10   0    2.62    1.57
   4  10   0    4.45    1.95
   4  10   0    1.56    2.06
   4  10   0    5.08    2.17
   4  10   0    4.45    2.27
  -4 -10   0    6.59    2.26
  -4 -10  -1    7.36    2.34
   4  10   1   11.61    2.84
  -4 -10  -1   11.18    2.76
   4  10   2    2.25    1.36
   4  11  -4    2.97    2.01
  -4 -11   4    0.65    1.22
   4  11  -3    0.29    1.43
  -4 -11   3    0.99    1.47
   4  11  -2    3.24    1.48
  -4 -11   2    5.25    2.18
   4  11  -1   11.64    2.90
   4  11   0    0.18    1.43
   5 -11  -1    4.65    2.49
  -5  11   1    4.70    1.92
   5 -11   0   -2.22    1.37
  -5  11   0    2.32    2.44
  -5  11  -1    1.52    1.41
   5 -11   2    2.26    1.77
  -5  11  -2   -0.04    1.53
  -5  10   4   32.63    4.17
  -5  10   4   32.12    4.56
  -5  10   3   21.88    3.33
  -5  10   3   22.06    3.73
  -5  10   2   29.69    3.50
   5 -10  -2   21.63    3.60
  -5  10   2   29.04    4.12
   5 -10  -1   -0.10    1.47
  -5  10   1   -0.86    1.58
   5 -10   0    1.59    1.54
  -5  10   0   -0.03    0.92
   5 -10   0   -1.08    1.64
   5 -10   1   -3.54    2.07
  -5  10  -1   -4.30    1.75
   5 -10   1    2.40    1.84
  -5  10  -1    2.30    1.74
   5 -10   2   -0.25    1.46
  -5  10  -2   -1.15    1.50
   5 -10   2    0.00    1.19
  -5  10  -2   -1.19    1.71
   5 -10   3    0.56    1.78
  -5  10  -3    0.88    1.70
  -5  10  -3    1.99    1.51
   5 -10   4   -0.15    1.51
  -5  10  -4   -1.59    2.08
  -5  10  -4    1.86    1.89
  -5  10  -5   12.95    2.88
  -5   9   6   16.71    3.51
  -5   9   5    6.48    2.33
   5  -9  -5    6.64    2.29
  -5   9   5    7.54    2.47
  -5   9   4    6.31    1.96
  -5   9   4    7.78    2.67
   5  -9  -4    3.69    1.77
  -5   9   4   10.74    2.71
   5  -9  -3   37.99    4.77
  -5   9   3   46.80    5.53
  -5   9   3   43.16    4.32
   5  -9  -3   35.06    4.53
  -5   9   3   42.13    4.80
  -5   9   2   10.11    2.13
  -5   9   2   10.53    2.92
   5  -9  -2    7.75    2.42
   5  -9  -2    9.22    2.43
  -5   9   2    7.85    2.30
   5  -9  -1   35.18    4.56
  -5   9   1   40.07    5.05
   5  -9  -1   39.61    4.13
   5  -9  -1   33.50    4.34
  -5   9   1   35.30    3.45
  -5   9   1   31.96    4.06
  -5   9   1   35.87    3.71
  -5   9   0    7.10    2.45
   5  -9   0    6.49    2.31
   5  -9   0    5.52    1.85
  -5   9   0    5.86    1.75
   5  -9   0    4.08    1.88
  -5   9   0    5.31    1.92
  -5   9  -1   20.54    3.79
   5  -9   1   14.61    3.04
   5  -9   1   20.61    3.46
  -5   9  -1   16.33    2.89
   5  -9   1   18.90    3.55
  -5   9  -1   15.06    2.90
  -5   9  -2    1.95    1.71
   5  -9   2    3.24    1.87
   5  -9   2    1.93    2.02
  -5   9  -2    2.03    1.51
   5  -9   2    3.80    1.90
  -5   9  -2   -0.09    1.48
   5  -9   3   25.75    3.91
  -5   9  -3   27.69    4.37
   5  -9   3   33.19    4.54
   5  -9   3   32.89    4.73
  -5   9  -3   31.38    4.28
  -5   9  -3   25.17    3.87
   5  -9   4    0.06    1.64
  -5   9  -4    1.08    1.75
   5  -9   4    1.23    1.25
  -5   9  -4    1.96    1.62
   5  -9   4    5.21    2.28
   5  -9   4    0.23    1.53
  -5   9  -4    1.86    1.62
  -5   9  -5   32.49    4.83
   5  -9   5   30.96    4.98
   5  -9   5   25.82    3.82
  -5   9  -5   25.53    4.06
   5  -9   5   26.61    4.47
  -5   9  -5   31.02    4.25
   5  -9   6    3.48    1.70
  -5   9  -6    7.80    2.17
   5  -9   7   27.76    4.06
   5  -8  -8   -1.05    1.54
  -5   8   7    2.64    1.61
   5  -8  -7    0.71    1.08
  -5   8   6    0.53    1.44
   5  -8  -6    1.63    1.58
  -5   8   6    4.97    1.81
  -5   8   5    3.13    1.90
   5  -8  -5    4.62    1.82
  -5   8   5    6.59    2.18
  -5   8   5    5.41    2.25
  -5   8   4   -0.70    1.64
   5  -8  -4   -0.39    1.44
  -5   8   4    1.71    1.40
   5  -8  -4   -1.62    1.48
  -5   8   4   -0.74    1.23
  -5   8   3    1.00    1.40
   5  -8  -3    1.24    1.48
  -5   8   3    0.27    0.89
   5  -8  -3   -0.39    1.13
  -5   8   3    1.17    1.33
  -5   8   2    4.95    1.48
   5  -8  -2    2.46    1.19
  -5   8   2    4.91    2.18
   5  -8  -2    4.81    1.89
   5  -8  -2    1.73    0.90
  -5   8   2    5.00    1.39
   5  -8  -2    4.42    2.00
  -5   8   2    5.19    1.91
  -5   8   1    5.79    1.54
  -5   8   1    0.31    1.09
   5  -8  -1    3.23    1.56
   5  -8  -1    4.91    1.64
  -5   8   1    2.01    0.99
   5  -8  -1    4.71    2.00
  -5   8   1    1.56    1.22
  -5   8   0   -0.85    1.38
   5  -8   0    1.46    1.35
   5  -8   0   -0.03    1.13
  -5   8   0    0.33    0.81
   5  -8   0    0.21    1.17
  -5   8   0    1.56    1.39
   5  -8   1    8.42    2.38
  -5   8  -1    7.85    2.44
   5  -8   1    2.86    1.78
   5  -8   1    6.93    2.16
  -5   8  -1    5.70    1.75
   5  -8   1    6.92    2.13
  -5   8  -1    5.50    1.80
   5  -8   2    0.70    1.30
  -5   8  -2    4.21    1.88
   5  -8   2    0.84    1.51
  -5   8  -2    1.24    1.33
   5  -8   2    2.34    1.50
   5  -8   2    2.62    1.77
  -5   8  -2   -0.14    1.32
   5  -8   3    2.48    1.62
  -5   8  -3   -0.88    1.77
   5  -8   3    2.45    1.46
  -5   8  -3    1.33    1.44
   5  -8   3    3.16    1.82
   5  -8   3    7.57    2.15
  -5   8  -3    1.10    1.41
  -5   8  -3    2.40    1.17
   5  -8   4    4.16    2.33
  -5   8  -4   -0.04    1.21
   5  -8   4    3.76    1.81
  -5   8  -4    0.42    1.23
   5  -8   4    3.40    1.69
   5  -8   4    0.38    1.38
  -5   8  -4    0.92    1.51
  -5   8  -4    2.46    1.50
   5  -8   5    4.46    2.51
  -5   8  -5    2.10    1.67
   5  -8   5    2.09    1.69
  -5   8  -5    1.11    1.23
   5  -8   5    0.55    1.57
   5  -8   5    0.31    1.17
  -5   8  -5    0.58    1.74
  -5   8  -5    1.73    1.54
  -5   8  -6   20.55    3.65
   5  -8   6   18.20    3.90
  -5   8  -6   16.81    3.36
   5  -8   6   19.03    3.33
  -5   8  -6   16.78    3.32
   5  -8   6   18.39    3.66
  -5   8  -6   22.63    3.73
  -5   8  -7   26.41    4.13
  -5   8  -7   26.30    4.29
   5  -8   7   25.24    3.84
  -5   8  -7   29.71    4.16
  -5   8  -8   11.67    3.19
   5  -8   8   11.55    2.79
   5  -7  -9    0.76    1.29
   5  -7  -8    1.45    1.17
  -5   7   8    2.95    1.88
  -5   7   7    2.94    1.42
   5  -7  -7    6.22    2.30
  -5   7   7    7.92    2.37
  -5   7   6    0.65    1.42
   5  -7  -6    0.09    1.04
  -5   7   6    0.72    1.31
  -5   7   6   -2.01    1.68
  -5   7   5   -2.37    1.64
   5  -7  -5   -0.32    1.23
  -5   7   5    1.08    1.40
   5  -7  -5    0.07    0.98
  -5   7   5   -1.74    1.43
  -5   7   4   -0.20    1.29
   5  -7  -4    1.35    1.09
  -5   7   4    1.06    1.26
   5  -7  -4    3.28    1.72
  -5   7   4    2.54    1.60
   5  -7  -3    0.83    0.86
  -5   7   3    0.40    1.31
   5  -7  -3    0.61    1.03
   5  -7  -3   -0.14    1.81
  -5   7   3    0.17    0.52
  -5   7   3    0.03    1.21
  -5   7   3    0.10    0.95
   5  -7  -2    5.35    1.49
  -5   7   2    5.60    2.16
   5  -7  -2    4.25    1.65
   5  -7  -2    4.48    1.27
  -5   7   2    5.24    1.23
   5  -7  -2    5.86    2.03
  -5   7   2    4.64    1.86
   5  -7  -1   30.18    3.29
   5  -7  -1   28.17    4.02
  -5   7   1   25.09    3.59
   5  -7  -1   26.88    3.04
   5  -7  -1   22.85    3.34
  -5   7   1   25.50    3.34
  -5   7   1   29.34    3.12
   5  -7   0    1.20    1.36
  -5   7   0    1.49    1.67
   5  -7   0    0.73    1.05
  -5   7   0   -0.89    0.95
   5  -7   0    0.71    1.21
   5  -7   0   -0.81    1.30
  -5   7   0    0.77    1.20
   5  -7   1    0.84    1.33
  -5   7  -1    3.28    2.35
   5  -7   1   -0.66    1.11
  -5   7  -1   -0.35    1.02
   5  -7   1    0.06    1.20
   5  -7   1   -0.25    1.22
  -5   7  -1   -0.56    1.52
  -5   7  -2    0.01    1.13
   5  -7   2    0.02    1.39
  -5   7  -2    0.03    1.19
   5  -7   2    0.19    1.29
  -5   7  -2    0.88    1.20
   5  -7   2   -1.73    1.48
   5  -7   2    0.63    1.25
  -5   7  -2   -0.01    1.19
  -5   7  -3    1.69    1.23
   5  -7   3    2.14    1.91
  -5   7  -3    2.38    1.71
   5  -7   3    3.33    1.66
  -5   7  -3    1.99    1.61
   5  -7   3    4.92    2.01
   5  -7   3    2.36    1.34
  -5   7  -3    1.87    1.34
  -5   7  -3    3.76    1.42
  -5   7  -4   15.18    2.43
   5  -7   4   19.60    3.71
  -5   7  -4   12.12    2.84
   5  -7   4   17.01    3.07
  -5   7  -4   12.00    2.48
   5  -7   4   16.01    3.17
   5  -7   4   10.81    2.59
  -5   7  -4   14.74    2.67
  -5   7  -4   16.68    2.80
   5  -7   5   20.30    3.80
  -5   7  -5   22.66    3.56
   5  -7   5   20.48    3.28
  -5   7  -5   21.27    3.45
   5  -7   5   22.15    3.73
   5  -7   5   21.83    3.87
  -5   7  -5   26.19    3.81
  -5   7  -5   22.46    3.55
   5  -7   6    4.04    2.13
  -5   7  -6    5.78    2.30
   5  -7   6    3.99    1.93
  -5   7  -6    6.98    2.25
   5  -7   6    6.93    2.61
   5  -7   6    5.94    2.23
  -5   7  -6    4.94    1.96
  -5   7  -6    3.74    1.93
  -5   7  -7    6.31    2.33
   5  -7   7    6.74    2.71
  -5   7  -7    3.48    2.10
   5  -7   7    8.44    2.49
  -5   7  -7    3.32    1.95
   5  -7   7    4.67    2.13
   5  -7   7    6.92    2.45
  -5   7  -7    6.83    2.26
  -5   7  -8    3.30    2.22
  -5   7  -8    7.21    2.74
   5  -7   8    2.73    1.63
   5  -6  -9    2.56    1.44
  -5   6   8    3.39    1.90
   5  -6  -8    3.44    1.77
   5  -6  -8    2.35    1.85
  -5   6   7    1.72    1.84
   5  -6  -7    1.45    1.42
   5  -6  -7   -0.18    1.35
  -5   6   6    0.97    1.62
   5  -6  -6    3.96    1.74
  -5   6   6    6.35    2.12
  -5   6   5    3.09    1.55
   5  -6  -5    8.49    2.09
   5  -6  -5    3.62    1.29
  -5   6   5    3.98    1.56
  -5   6   4    2.39    1.45
   5  -6  -4    2.07    1.28
   5  -6  -4    2.10    1.20
  -5   6   4    2.20    1.39
   5  -6  -3    1.77    0.91
  -5   6   3    1.42    1.39
   5  -6  -3    2.26    1.37
   5  -6  -3    2.81    0.89
  -5   6   3    2.70    0.88
   5  -6  -3    0.29    1.00
  -5   6   3    6.11    1.81
   5  -6  -2    0.54    0.88
  -5   6   2   -1.04    1.37
   5  -6  -2    0.86    1.32
   5  -6  -2    0.26    0.83
  -5   6   2    1.52    0.85
   5  -6  -2    1.17    1.24
  -5   6   2    1.17    1.43
  -5   6   1    4.98    1.91
   5  -6  -1    5.02    1.36
   5  -6  -1    4.17    1.36
  -5   6   1    2.65    1.60
   5  -6  -1    5.87    1.53
   5  -6  -1    1.92    1.35
   5  -6  -1    4.01    1.25
  -5   6   1    5.33    1.33
   5  -6  -1    5.36    1.53
   5  -6  -1    4.21    1.68
   5  -6  -1    6.25    1.57
  -5   6   1    4.33    1.55
  -5   6   0    2.18    1.44
   5  -6   0    1.81    0.88
   5  -6   0    1.41    1.10
  -5   6   0    3.24    1.68
   5  -6   0    1.99    1.39
  -5   6   0    1.48    1.10
   5  -6   0    3.14    1.49
   5  -6   0    2.25    1.57
   5  -6   0    1.27    0.77
  -5   6   0    2.01    1.28
  -5   6  -1    1.60    1.33
   5  -6   1    1.21    1.19
  -5   6  -1    3.00    1.55
   5  -6   1    2.54    1.29
  -5   6  -1    6.33    1.67
   5  -6   1    0.93    1.13
   5  -6   1    0.89    1.26
  -5   6  -1    3.23    1.62
  -5   6  -2    1.58    1.30
   5  -6   2   -0.15    1.18
  -5   6  -2   -2.01    1.70
  -5   6  -2    0.10    1.09
   5  -6   2   -0.88    1.29
   5  -6   2   -1.60    1.59
  -5   6  -2   -1.22    1.20
  -5   6  -3   -0.04    1.16
   5  -6   3    0.46    1.38
  -5   6  -3    0.30    1.11
  -5   6  -3   -0.24    1.16
   5  -6   3   -0.60    1.53
   5  -6   3    1.64    1.59
  -5   6  -3   -1.83    1.85
  -5   6  -3    0.23    0.98
  -5   6  -4    8.54    2.06
   5  -6   4    7.19    2.06
  -5   6  -4    7.75    2.36
  -5   6  -4    6.73    1.90
   5  -6   4    9.64    2.43
   5  -6   4    7.39    2.17
  -5   6  -4   10.27    2.41
  -5   6  -4   10.27    2.37
  -5   6  -5    0.51    0.93
   5  -6   5   -1.46    2.10
  -5   6  -5    1.45    1.42
  -5   6  -5    0.94    1.02
   5  -6   5    0.22    1.53
   5  -6   5    1.84    1.48
  -5   6  -5    1.93    1.23
  -5   6  -5    0.89    1.44
   5  -6   6   -2.07    2.04
  -5   6  -6    1.39    1.79
  -5   6  -6   -1.19    1.18
   5  -6   6   -2.50    2.18
   5  -6   6   -1.71    1.67
  -5   6  -6    1.44    1.30
  -5   6  -6    0.53    1.25
   5  -6   7    1.61    1.86
  -5   6  -7   -1.05    1.55
  -5   6  -7   -0.25    1.21
   5  -6   7   -1.09    1.78
  -5   6  -7    2.92    2.14
  -5   6  -7    0.16    1.51
  -5   6  -8   38.86    5.34
   5  -6   8   29.78    4.67
  -5   6  -8   35.10    4.90
   5  -6   9    3.79    1.93
  -5   6  -9    1.79    2.04
   5  -5  -9   17.44    2.70
   5  -5  -9   13.00    3.17
   5  -5  -8    0.41    0.97
   5  -5  -8    0.35    1.50
  -5   5   7    3.81    1.90
   5  -5  -7    1.38    1.29
   5  -5  -7    2.27    1.56
  -5   5   7    2.96    1.67
  -5   5   6    1.54    1.90
   5  -5  -6    0.65    1.18
   5  -5  -6    0.99    1.73
   5  -5  -6    0.87    1.00
  -5   5   6    1.63    1.44
  -5   5   5    3.15    1.92
   5  -5  -5    2.88    1.33
   5  -5  -5    2.52    1.17
  -5   5   5    3.28    1.67
   5  -5  -4   14.20    1.28
   5  -5  -4   16.72    1.35
  -5   5   4   19.31    3.18
   5  -5  -4   15.82    2.67
   5  -5  -4   17.47    1.34
   5  -5  -4   15.11    2.26
  -5   5   4   15.74    2.75
  -5   5   4   16.39    1.37
   5  -5  -3   29.37    2.40
   5  -5  -3   21.32    3.01
   5  -5  -3   25.91    2.20
   5  -5  -3   24.35    2.15
  -5   5   3   23.07    3.33
   5  -5  -3   20.20    1.96
   5  -5  -3   23.07    2.04
   5  -5  -3   22.36    2.79
   5  -5  -3   23.42    1.89
  -5   5   3   26.23    3.34
  -5   5   3   22.42    2.01
   5  -5  -2    0.22    0.35
  -5   5   2   -0.02    0.32
  -5   5   2    0.52    1.36
   5  -5  -2   -1.28    0.87
   5  -5  -2    0.01    0.82
   5  -5  -2   -0.65    0.85
   5  -5  -2    1.25    1.24
  -5   5   2    0.68    1.37
   5  -5  -2    2.13    1.08
   5  -5  -2   -1.17    0.91
  -5   5   2   -0.25    0.71
   5  -5  -2    0.00    0.82
   5  -5  -2    0.21    1.02
   5  -5  -2    0.53    1.10
  -5   5   2    0.74    1.18
  -5   5   1   46.75    4.35
   5  -5  -1   39.08    3.47
   5  -5  -1   40.45    3.50
   5  -5  -1   39.88    3.39
  -5   5   1   38.21    4.08
   5  -5  -1   37.15    3.29
   5  -5  -1   43.00    3.47
   5  -5  -1   41.31    3.96
   5  -5  -1   40.42    3.67
   5  -5  -1   38.06    2.92
  -5   5   1   42.49    4.08
   5  -5  -1   40.83    3.20
  -5   5   1   41.51    3.35
   5  -5  -1   37.68    2.95
  -5   5   1   43.24    2.66
   5  -5  -1   42.93    2.67
   5  -5   0    1.92    0.89
   5  -5   0    1.62    0.81
  -5   5   0    1.18    1.43
   5  -5   0    0.43    1.00
   5  -5   0    1.19    0.97
   5  -5   0    1.22    1.21
  -5   5   0    1.52    1.33
  -5   5   0    0.03    0.93
   5  -5   0    0.44    0.92
   5  -5   0    2.24    1.32
   5  -5   0    1.25    1.24
   5  -5   0    1.68    1.02
   5  -5   0   -0.27    0.81
  -5   5   0   -0.23    1.29
   5  -5   1    1.61    0.83
  -5   5  -1    1.85    1.50
  -5   5  -1    1.17    0.80
   5  -5   1    1.30    1.32
  -5   5  -1    0.50    1.24
  -5   5  -1    1.01    1.13
   5  -5   1    2.37    1.73
   5  -5   1    0.25    1.18
   5  -5   1    2.36    1.05
  -5   5  -1    1.54    1.32
   5  -5   1    1.12    0.54
   5  -5   1    1.25    0.60
  -5   5  -2   82.59    4.77
  -5   5  -2   90.87    5.66
   5  -5   2   83.07    3.53
   5  -5   2   83.38    5.86
  -5   5  -2   70.64    5.37
   5  -5   2   85.46    5.83
   5  -5   2   81.24    5.91
  -5   5  -2   88.96    6.06
  -5   5  -2   75.06    5.31
   5  -5   2   81.80    5.02
  -5   5  -3   20.48    2.79
   5  -5   3   19.60    3.25
  -5   5  -3   18.55    2.85
  -5   5  -3   18.55    2.77
   5  -5   3   23.32    3.37
   5  -5   3   17.86    3.04
  -5   5  -3   22.20    3.28
  -5   5  -4    3.55    1.37
   5  -5   4    3.00    1.64
  -5   5  -4    4.95    1.52
  -5   5  -4    4.63    1.73
   5  -5   4    3.52    1.88
   5  -5   4    2.20    1.45
  -5   5  -4    6.69    1.95
  -5   5  -4    4.05    1.51
  -5   5  -5    0.12    1.01
   5  -5   5   -0.33    1.69
  -5   5  -5   -1.23    1.50
  -5   5  -5    0.83    1.13
   5  -5   5   -1.50    2.03
   5  -5   5   -1.09    1.42
  -5   5  -5    2.37    1.65
  -5   5  -5   -0.53    1.22
  -5   5  -6   -0.11    1.11
   5  -5   6    3.18    1.94
  -5   5  -6    3.83    1.75
  -5   5  -6    0.38    1.33
   5  -5   6    2.67    1.86
   5  -5   6    2.53    1.67
  -5   5  -6    2.80    1.68
  -5   5  -6    0.67    1.46
   5  -5   7    1.34    2.24
  -5   5  -7   -0.88    1.22
  -5   5  -7   -0.15    1.19
   5  -5   7    0.40    1.79
   5  -5   7   -0.97    1.43
  -5   5  -7   -1.19    1.48
   5  -5   8   -0.79    2.08
  -5   5  -8   -0.38    1.33
  -5   5  -8   -1.02    1.50
   5  -5   8   -4.00    2.46
   5  -5   8    0.03    1.50
  -5   5  -8    2.16    1.98
   5  -5   9   -0.63    1.39
  -5   5  -9   -0.24    1.34
   5  -4 -10    8.95    2.81
   5  -4  -9    4.05    1.33
   5  -4  -9    2.29    1.53
   5  -4  -8   49.31    4.19
   5  -4  -8   56.43    5.77
  -5   4   7    1.72    1.51
   5  -4  -7    1.29    1.13
   5  -4  -7   -1.45    1.49
   5  -4  -7   -0.34    0.71
  -5   4   7    1.21    1.65
   5  -4  -6    6.92    1.89
  -5   4   6    5.07    2.10
   5  -4  -6    8.01    2.55
   5  -4  -6    6.19    1.40
  -5   4   6    5.66    1.88
   5  -4  -5    5.28    1.66
  -5   4   5    6.66    1.95
   5  -4  -5    6.07    1.97
   5  -4  -5    8.43    1.63
  -5   4   5    4.10    1.47
  -5   4   4   17.61    2.88
   5  -4  -4   19.21    1.32
   5  -4  -4   19.04    1.31
   5  -4  -4   20.23    1.35
   5  -4  -4   17.72    1.28
   5  -4  -4   17.85    2.64
  -5   4   4   18.99    3.09
   5  -4  -4   20.03    1.31
   5  -4  -4   19.64    1.31
   5  -4  -4   20.21    3.00
   5  -4  -4   19.89    2.46
   5  -4  -4   20.19    1.38
  -5   4   4   19.89    2.96
  -5   4   4   20.33    1.50
   5  -4  -4   20.27    1.29
   5  -4  -4   20.65    1.33
   5  -4  -3    0.35    0.46
  -5   4   3    0.88    0.48
  -5   4   3    0.90    1.53
   5  -4  -3    0.31    0.50
   5  -4  -3    0.74    0.69
   5  -4  -3   -0.36    0.69
   5  -4  -3    0.84    0.63
  -5   4   3    1.70    1.51
   5  -4  -3    0.47    0.68
   5  -4  -3   -0.39    1.15
   5  -4  -3    0.42    0.65
  -5   4   3    0.11    0.49
   5  -4  -3   -0.30    0.59
   5  -4  -3   -0.45    0.95
   5  -4  -3   -0.55    0.84
  -5   4   3    0.87    1.27
  -5   4   2  173.89    8.37
   5  -4  -2  161.14    6.29
   5  -4  -2  164.39    7.16
   5  -4  -2  164.10    6.26
   5  -4  -2  159.56    5.85
  -5   4   2  157.15    7.80
   5  -4  -2  166.10    6.11
   5  -4  -2  157.23    5.64
   5  -4  -2  156.93    7.13
   5  -4  -2  159.69    5.28
   5  -4  -2  159.07    7.14
  -5   4   2  153.79    7.44
   5  -4  -2  162.45    6.51
  -5   4   2  161.76    5.83
  -5   4   2  196.48    5.35
   5  -4  -2  161.59    5.02
   5  -4  -1   69.69    3.86
  -5   4   1   87.51    5.75
   5  -4  -1   78.96    4.79
   5  -4  -1   76.89    4.69
   5  -4  -1   76.31    4.56
  -5   4   1   69.35    5.06
   5  -4  -1   71.36    4.42
   5  -4  -1   70.58    4.20
   5  -4  -1   66.68    4.85
   5  -4  -1   74.68    4.59
   5  -4  -1   73.24    3.91
  -5   4   1   77.66    5.36
   5  -4  -1   71.73    3.92
  -5   4   1   71.18    4.23
   5  -4  -1   73.57    3.79
  -5   4   1   54.80    3.30
   5  -4   0  130.27    4.77
  -5   4   0  150.45    7.39
   5  -4   0  142.29    5.97
   5  -4   0  142.74    6.90
   5  -4   0  133.46    6.42
  -5   4   0  130.16    6.85
   5  -4   0  135.64    6.23
   5  -4   0  129.70    6.91
   5  -4   0  134.63    5.73
   5  -4   0  139.63    5.73
  -5   4   0  138.43    7.23
   5  -4   0  144.83    4.76
  -5   4   0  139.39    6.17
   5  -4   0  137.12    5.62
  -5   4   0  141.23    5.61
  -5   4  -1   38.77    3.80
   5  -4   1   34.90    2.73
   5  -4   1   37.89    3.71
  -5   4  -1   32.30    3.52
   5  -4   1   33.78    3.38
   5  -4   1   33.11    3.55
   5  -4   1   34.14    2.63
  -5   4  -1   36.81    3.84
   5  -4   1   35.56    1.70
  -5   4  -1   33.88    3.27
   5  -4   1   35.07    3.14
   5  -4   1   36.25    2.24
  -5   4  -1   37.32    3.08
  -5   4  -2   45.81    4.11
   5  -4   2   45.50    4.31
  -5   4  -2   40.89    3.90
   5  -4   2   36.81    3.81
   5  -4   2   38.56    4.04
   5  -4   2   43.99    2.67
  -5   4  -2   42.42    4.20
  -5   4  -2   38.96    3.75
   5  -4   2   42.48    1.94
  -5   4  -3    1.99    1.41
   5  -4   3    1.35    1.43
  -5   4  -3    1.78    1.37
  -5   4  -3    2.57    1.37
   5  -4   3    3.19    1.58
   5  -4   3    3.87    1.77
   5  -4   3    1.73    0.50
  -5   4  -3    1.31    1.09
  -5   4  -4   87.57    5.66
   5  -4   4   88.66    6.54
  -5   4  -4   78.15    5.43
   5  -4   4   79.91    2.47
   5  -4   4   88.58    6.38
   5  -4   4   86.55    6.38
  -5   4  -4   79.09    5.88
  -5   4  -4   83.05    5.87
  -5   4  -5    1.35    1.37
   5  -4   5   -3.66    2.06
  -5   4  -5   -0.08    1.12
  -5   4  -5    2.83    1.29
   5  -4   5   -2.95    2.12
   5  -4   5   -1.48    1.63
  -5   4  -5    0.59    1.51
  -5   4  -5   -1.41    1.53
  -5   4  -6   16.11    2.80
   5  -4   6   13.76    3.20
  -5   4  -6   13.60    2.57
  -5   4  -6   19.11    3.23
   5  -4   6   13.69    2.92
   5  -4   6   12.95    2.85
  -5   4  -6   15.68    3.18
  -5   4  -7    6.36    1.99
   5  -4   7    8.01    2.81
  -5   4  -7    7.91    2.26
  -5   4  -7    5.95    2.18
   5  -4   7    4.24    2.30
   5  -4   7    6.75    2.32
  -5   4  -7    6.17    2.16
   5  -4   8   -1.09    1.28
   5  -4   8    5.55    2.69
  -5   4  -8    2.79    1.55
  -5   4  -8    4.58    1.94
   5  -4   8    4.27    2.25
   5  -4   8    4.51    2.14
  -5   4  -8    4.24    2.28
   5  -4   9    0.04    1.50
   5  -3 -10    3.26    1.84
   5  -3  -9    0.93    0.73
   5  -3  -9   -1.56    1.37
   5  -3  -8   -0.83    0.96
   5  -3  -8    0.19    1.17
   5  -3  -7    6.37    1.01
   5  -3  -7    5.99    1.09
   5  -3  -7    5.11    1.38
   5  -3  -7    2.58    1.43
   5  -3  -7    3.76    1.02
  -5   3   7    4.06    1.66
   5  -3  -6    3.50    0.78
   5  -3  -6    3.39    0.80
   5  -3  -6    3.13    1.23
  -5   3   6    3.29    1.71
   5  -3  -6    4.11    1.77
   5  -3  -6    4.33    1.33
  -5   3   6    4.25    1.77
   5  -3  -5    7.78    1.16
  -5   3   5    6.40    2.03
   5  -3  -5    6.09    1.01
   5  -3  -5    6.30    1.70
  -5   3   5    3.56    1.54
   5  -3  -5    5.54    1.86
   5  -3  -5    6.38    1.52
  -5   3   5    5.56    1.90
   5  -3  -5    7.14    1.11
  -5   3   4   12.98    2.78
   5  -3  -4   10.14    0.99
   5  -3  -4    9.27    1.24
   5  -3  -4   10.50    0.99
  -5   3   4   18.82    2.56
   5  -3  -4   11.79    1.09
   5  -3  -4   11.26    1.03
  -5   3   4   10.54    2.31
   5  -3  -4   10.13    0.98
   5  -3  -4   10.52    0.98
   5  -3  -4   12.34    2.34
   5  -3  -4    9.54    1.72
   5  -3  -4   10.99    1.08
   5  -3  -4   11.19    2.10
  -5   3   4   11.91    2.22
  -5   3   4   11.58    1.22
  -5   3   4   11.17    1.28
   5  -3  -4   10.43    1.36
  -5   3   3  119.26    6.84
   5  -3  -3  105.35    4.32
  -5   3   3   95.82    5.54
   5  -3  -3  103.99    4.07
  -5   3   3   92.33    5.95
   5  -3  -3   98.95    3.95
   5  -3  -3   99.87    4.12
   5  -3  -3   95.18    5.64
   5  -3  -3  104.79    3.99
   5  -3  -3   95.92    5.32
   5  -3  -3   99.47    3.69
   5  -3  -3  103.14    5.86
  -5   3   3   94.54    5.81
   5  -3  -3   98.27    5.33
  -5   3   3  100.17    4.08
  -5   3   3   99.56    3.96
   5  -3  -3   94.48    4.04
   5  -3  -2    5.88    1.18
   5  -3  -2    5.28    1.29
  -5   3   2    5.26    1.11
  -5   3   2    7.15    2.16
   5  -3  -2    6.80    1.23
   5  -3  -2    8.68    1.99
   5  -3  -2    7.10    1.40
  -5   3   2    7.25    1.77
  -5   3   2    7.16    1.96
   5  -3  -2    4.79    1.19
  -5   3   2    7.67    1.38
   5  -3  -2    7.96    1.83
   5  -3  -2    9.15    1.59
   5  -3  -2    7.59    1.35
   5  -3  -2    8.38    1.88
   5  -3  -2    6.66    1.62
   5  -3  -2    7.16    1.44
  -5   3   2    5.95    1.72
   5  -3  -1   34.96    3.24
  -5   3   1   40.86    3.93
   5  -3  -1   32.15    3.11
   5  -3  -1   33.44    3.15
  -5   3   1   34.15    3.01
   5  -3  -1   34.00    2.65
   5  -3  -1   33.81    2.96
  -5   3   1   36.26    3.57
   5  -3  -1   33.21    2.99
   5  -3  -1   34.55    2.92
  -5   3   1   31.02    2.97
   5  -3  -1   29.67    3.18
   5  -3  -1   35.30    2.68
   5  -3  -1   33.92    2.96
  -5   3   1   32.28    3.44
   5  -3  -1   35.13    2.57
  -5   3   1   27.10    2.57
   5  -3  -1   31.51    2.67
  -5   3   0   31.58    3.56
   5  -3   0   31.19    3.22
  -5   3   0   29.45    2.56
   5  -3   0   29.40    2.30
   5  -3   0   31.22    3.08
  -5   3   0   28.75    3.04
   5  -3   0   30.13    3.02
  -5   3   0   30.68    3.17
   5  -3   0   27.68    3.22
   5  -3   0   32.23    2.74
   5  -3   0   30.11    2.54
  -5   3   0   30.41    3.43
  -5   3   0   28.33    2.77
   5  -3   0   28.12    2.73
  -5   3   0   31.00    2.78
  -5   3  -1  187.83    8.12
   5  -3   1  165.99    4.80
   5  -3   1  165.78    7.50
  -5   3  -1  155.82    6.88
   5  -3   1  160.70    5.39
   5  -3   1  170.31    7.28
   5  -3   1  153.22    7.47
   5  -3   1  161.48    5.08
  -5   3  -1  169.63    7.85
  -5   3  -1  157.41    6.76
   5  -3   1  169.12    6.98
  -5   3  -1  169.32    6.76
  -5   3  -2  128.57    6.74
   5  -3   2  108.73    3.27
   5  -3   2  119.87    6.73
  -5   3  -2  106.13    5.67
   5  -3   2  113.26    3.85
   5  -3   2  117.24    6.43
   5  -3   2  107.68    6.46
   5  -3   2  105.86    3.24
  -5   3  -2  112.50    6.59
  -5   3  -2  100.36    5.75
  -5   3  -3   62.88    4.98
   5  -3   3   50.64    4.69
  -5   3  -3   50.79    3.98
   5  -3   3   51.89    1.71
   5  -3   3   54.33    4.74
   5  -3   3   48.49    4.59
  -5   3  -3   55.27    4.77
  -5   3  -3   45.83    4.14
   5  -3   3   49.01    1.35
  -5   3  -4    1.56    1.49
   5  -3   4    2.33    1.93
  -5   3  -4    1.39    1.25
  -5   3  -4    1.53    1.18
   5  -3   4    3.87    1.86
   5  -3   4    2.77    1.68
  -5   3  -4    1.87    1.48
  -5   3  -5    3.10    1.75
   5  -3   5    3.15    1.63
  -5   3  -5    3.29    1.44
  -5   3  -5    3.99    1.73
   5  -3   5    3.00    1.66
   5  -3   5    2.78    1.39
   5  -3   6   10.41    2.61
  -5   3  -6    7.51    1.79
  -5   3  -6    8.40    2.24
   5  -3   6    3.96    2.11
   5  -3   6    5.34    1.98
  -5   3  -6    5.90    2.06
   5  -3   7    0.55    0.80
   5  -3   7   -1.89    2.02
  -5   3  -7    0.72    1.02
  -5   3  -7    1.77    1.28
   5  -3   7   -1.36    2.00
   5  -3   7    1.61    1.55
  -5   3  -7    3.06    1.95
   5  -3   8   -2.23    1.64
   5  -3   8    1.66    1.88
  -5   3  -8    2.37    1.43
  -5   3  -8   -0.71    1.28
   5  -3   8   -0.37    1.34
   5  -3   8    0.83    1.55
  -5   3  -8   -0.31    2.09
   5  -3   9    4.41    2.31
   5  -3  10    0.78    1.62
   5  -2 -11    2.26    1.82
   5  -2 -10    3.10    1.86
   5  -2  -9    0.51    0.74
   5  -2  -9    2.38    1.56
   5  -2  -8   63.87    4.21
   5  -2  -8   74.75    6.22
   5  -2  -8   64.25    3.73
   5  -2  -8   59.83    3.59
   5  -2  -8   73.07    4.17
  -5   2   7   40.80    4.47
   5  -2  -7   37.96    3.34
   5  -2  -7   42.65    4.66
   5  -2  -7   42.85    3.22
  -5   2   7   35.69    4.16
   5  -2  -7   44.48    2.99
   5  -2  -7   45.92    3.19
   5  -2  -6    0.14    0.56
  -5   2   6    2.28    1.62
   5  -2  -6    1.67    0.91
  -5   2   6   -0.19    1.49
   5  -2  -6    0.50    0.82
   5  -2  -6   -0.36    1.37
   5  -2  -6   -0.34    0.83
  -5   2   6   -0.93    1.29
  -5   2   5    9.89    2.28
   5  -2  -5    7.11    1.29
  -5   2   5    8.05    1.90
  -5   2   5    6.73    1.94
   5  -2  -5    7.14    1.91
   5  -2  -5    6.40    1.50
  -5   2   5    8.33    2.05
  -5   2   5    7.04    0.69
   5  -2  -4    2.02    0.56
  -5   2   4    4.78    1.85
   5  -2  -4    2.28    0.90
   5  -2  -4    1.74    0.61
  -5   2   4    1.27    1.04
   5  -2  -4    2.08    0.59
  -5   2   4    2.44    1.54
   5  -2  -4    2.31    0.62
  -5   2   4    1.17    0.48
   5  -2  -4    3.15    1.51
   5  -2  -4    2.18    0.64
   5  -2  -4    2.39    1.22
   5  -2  -4    2.46    1.19
  -5   2   4    2.95    1.29
   5  -2  -3   78.57    3.92
  -5   2   3  106.12    6.40
   5  -2  -3   89.84    4.03
  -5   2   3   83.67    5.14
   5  -2  -3   84.19    3.73
  -5   2   3   87.96    5.49
   5  -2  -3   87.73    3.84
   5  -2  -3   80.43    5.15
   5  -2  -3   90.73    3.79
  -5   2   3   90.25    4.06
   5  -2  -3   76.84    4.76
   5  -2  -3   85.81    3.50
   5  -2  -3   85.44    5.18
  -5   2   3   80.18    5.18
   5  -2  -3   86.44    4.86
  -5   2   3   78.85    3.57
   5  -2  -3   93.24    5.60
   5  -2  -3   89.47    4.44
   5  -2  -3   85.81    4.96
   5  -2  -2  121.99    5.69
  -5   2   2  136.23    7.10
   5  -2  -2  127.55    6.30
   5  -2  -2  132.49    5.54
  -5   2   2  115.45    5.74
   5  -2  -2  122.86    5.11
  -5   2   2  114.67    6.03
   5  -2  -2  132.14    5.25
   5  -2  -2  124.32    5.29
   5  -2  -2  117.42    5.76
   5  -2  -2  129.06    5.09
  -5   2   2  121.38    5.26
   5  -2  -2  112.95    5.88
   5  -2  -2  130.89    4.79
   5  -2  -2  126.45    5.82
  -5   2   2  130.48    6.58
   5  -2  -2  126.41    5.33
  -5   2   2  120.77    4.81
   5  -2  -2  124.63    6.36
   5  -2  -2  124.51    5.34
   5  -2  -1    6.54    1.40
  -5   2   1    6.96    1.63
  -5   2   1   10.05    2.26
   5  -2  -1    7.82    1.40
   5  -2  -1    7.57    1.64
   5  -2  -1    7.99    1.74
  -5   2   1    7.82    1.59
   5  -2  -1    7.92    1.61
   5  -2  -1    6.96    1.55
  -5   2   1    8.23    1.49
  -5   2   1    6.84    1.74
   5  -2  -1    7.59    1.62
   5  -2  -1    6.89    1.45
  -5   2   1    7.33    1.54
   5  -2  -1    7.67    1.84
   5  -2  -1    8.53    1.62
   5  -2  -1    7.84    1.34
  -5   2   1    5.56    1.63
  -5   2   0   84.00    5.59
   5  -2   0   83.97    5.21
  -5   2   0   73.99    4.05
   5  -2   0   68.16    4.54
  -5   2   0   78.17    4.68
   5  -2   0   80.54    4.86
   5  -2   0   76.21    3.64
   5  -2   0   77.18    3.90
   5  -2   0   79.11    4.65
  -5   2   0   76.34    4.86
   5  -2   0   71.53    4.94
   5  -2   0   77.82    4.22
   5  -2   0   76.29    3.73
  -5   2   0   83.08    5.38
  -5   2   0   72.67    4.36
   5  -2   0   74.67    4.59
  -5   2   0   79.43    4.65
   5  -2   1   -0.24    0.87
  -5   2  -1    2.18    1.70
  -5   2  -1   -0.53    1.03
  -5   2  -1    0.06    0.74
   5  -2   1    0.39    1.21
  -5   2  -1    0.37    0.89
  -5   2  -1    1.24    1.02
   5  -2   1    0.94    1.16
   5  -2   1   -0.02    0.55
   5  -2   1    0.15    1.08
   5  -2   1    0.03    0.86
   5  -2   1    0.44    0.42
  -5   2  -1    0.45    1.13
   5  -2   1    0.11    0.50
  -5   2  -2    5.76    1.99
  -5   2  -2    5.52    1.05
   5  -2   2    6.98    1.86
  -5   2  -2    4.14    1.30
  -5   2  -2    6.71    1.74
   5  -2   2    4.73    0.63
   5  -2   2    2.30    1.47
   5  -2   2    4.16    1.60
  -5   2  -2    6.11    1.79
   5  -2   2    4.45    0.77
  -5   2  -3    9.88    1.10
   5  -2   3    7.49    2.14
  -5   2  -3    6.65    1.46
  -5   2  -3    9.31    1.92
   5  -2   3    9.30    0.93
   5  -2   3   10.32    2.34
   5  -2   3    7.53    1.84
  -5   2  -3   10.82    2.43
   5  -2   4   15.31    0.73
  -5   2  -4   18.66    2.32
   5  -2   4   20.76    3.27
  -5   2  -4   17.83    2.82
   5  -2   4   18.08    2.91
   5  -2   4   17.28    2.92
   5  -2   4   16.00    0.77
   5  -2   5   13.49    2.85
  -5   2  -5   14.72    2.11
  -5   2  -5   12.13    2.41
   5  -2   5   12.01    2.63
   5  -2   5   12.47    2.53
   5  -2   6    4.87    1.43
   5  -2   6    6.24    2.17
  -5   2  -6    5.99    1.43
  -5   2  -6    7.29    2.16
   5  -2   6   10.16    3.06
   5  -2   6    2.98    1.58
   5  -2   7    3.63    1.30
   5  -2   7    1.15    1.45
  -5   2  -7    1.58    0.96
  -5   2  -7    0.05    1.20
   5  -2   7    0.98    1.41
   5  -2   7    8.68    2.76
   5  -2   7    3.02    1.80
   5  -2   8   -0.45    1.81
  -5   2  -8   -0.58    1.19
   5  -2   8   -0.49    1.67
   5  -2   8    2.06    1.80
   5  -2   8    4.27    2.02
   5  -2   9   33.64    4.57
   5  -2  10   16.44    3.55
   5  -1 -11    0.03    1.43
  -5   1  11    2.08    1.84
   5  -1 -10   12.78    2.27
   5  -1 -10   14.24    2.33
   5  -1 -10    8.99    2.50
  -5   1  10    9.25    2.58
  -5   1  10   16.90    3.57
   5  -1  -9    2.15    0.99
   5  -1  -9    3.31    1.38
  -5   1   9    3.08    1.65
   5  -1  -9    3.17    1.13
   5  -1  -9    3.82    1.89
   5  -1  -9    1.57    0.70
  -5   1   9    0.47    1.36
  -5   1   9    1.38    1.41
   5  -1  -8    0.08    0.74
   5  -1  -8   -0.07    0.81
  -5   1   8   -0.03    1.14
   5  -1  -8    0.03    0.71
   5  -1  -8    2.93    1.93
   5  -1  -8   -0.30    0.72
  -5   1   8    0.43    1.51
  -5   1   7  110.81    6.95
  -5   1   7   98.53    6.75
   5  -1  -7  104.10    5.36
   5  -1  -7  104.15    6.98
   5  -1  -7  101.72    5.16
  -5   1   7  102.46    6.81
  -5   1   7   92.55    6.36
   5  -1  -7   95.15    4.81
   5  -1  -7  109.16    5.38
  -5   1   6  219.99    9.45
  -5   1   6  192.99    8.89
   5  -1  -6  198.36    9.08
   5  -1  -6  176.97    7.06
  -5   1   6  194.52    8.75
  -5   1   6  190.83    8.50
   5  -1  -6  187.23    6.57
   5  -1  -6  195.97    6.94
  -5   1   5    7.30    1.44
  -5   1   5    6.38    1.95
   5  -1  -5    5.46    1.37
   5  -1  -5    4.99    0.66
   5  -1  -5    5.87    0.63
  -5   1   5    5.27    1.89
   5  -1  -5    6.23    0.72
   5  -1  -5    5.93    0.69
   5  -1  -5    7.99    2.15
  -5   1   5    5.72    0.74
   5  -1  -5    3.52    1.37
  -5   1   5    6.65    0.87
  -5   1   5    6.35    1.73
  -5   1   5    4.29    1.48
   5  -1  -5    6.38    1.65
  -5   1   4  106.94    6.41
   5  -1  -4   90.20    3.69
  -5   1   4   86.93    5.51
   5  -1  -4   88.97    3.38
  -5   1   4   87.12    5.50
   5  -1  -4   89.76    3.43
   5  -1  -4   83.34    5.46
   5  -1  -4   87.02    3.35
  -5   1   4   87.26    3.59
   5  -1  -4   85.83    5.08
   5  -1  -4   88.51    3.32
   5  -1  -4   91.79    5.63
  -5   1   4   87.80    5.42
  -5   1   4   89.52    5.19
  -5   1   4   82.96    3.34
   5  -1  -4   90.76    5.37
   5  -1  -4   90.15    5.35
  -5   1   4   88.66    4.45
   5  -1  -4   89.11    5.08
   5  -1  -4   85.50    4.39
  -5   1   3    5.20    1.28
   5  -1  -3    5.34    1.04
  -5   1   3    7.35    2.10
   5  -1  -3    7.29    1.47
  -5   1   3    5.75    1.59
   5  -1  -3    6.10    1.24
  -5   1   3    5.98    1.15
   5  -1  -3    5.01    1.50
  -5   1   3    5.49    1.65
   5  -1  -3    5.94    1.21
   5  -1  -3    8.50    1.67
   5  -1  -3    4.06    1.51
   5  -1  -3    6.74    1.19
  -5   1   3    4.45    1.08
   5  -1  -3    4.79    1.60
   5  -1  -3    5.63    1.45
  -5   1   3    6.00    1.70
   5  -1  -3    5.26    1.45
   5  -1  -2  130.34    5.48
  -5   1   2  151.76    7.43
   5  -1  -2  135.74    6.62
  -5   1   2  132.29    6.13
   5  -1  -2  137.55    5.50
   5  -1  -2  131.36    5.82
  -5   1   2  122.34    5.87
   5  -1  -2  135.55    5.49
   5  -1  -2  128.05    5.76
   5  -1  -2  133.19    5.37
  -5   1   2  131.36    5.47
   5  -1  -2  123.48    6.26
   5  -1  -2  137.77    5.60
   5  -1  -2  132.02    4.89
  -5   1   2  127.32    6.36
  -5   1   2  124.05    4.93
   5  -1  -2  135.56    6.14
   5  -1  -2  129.69    5.89
  -5   1   2  147.31    6.16
   5  -1  -2  128.66    5.45
   5  -1  -1   69.14    4.26
  -5   1   1   85.62    5.63
  -5   1   1   72.84    4.36
   5  -1  -1   72.87    4.40
   5  -1  -1   81.02    4.47
  -5   1   1   71.01    4.28
   5  -1  -1   72.62    4.32
   5  -1  -1   74.19    4.37
  -5   1   1   77.68    4.57
   5  -1  -1   75.09    4.96
   5  -1  -1   76.12    3.98
   5  -1  -1   70.42    3.88
   5  -1  -1   73.99    4.01
  -5   1   1   74.96    4.91
  -5   1   1   72.85    4.08
   5  -1  -1   73.88    4.58
  -5   1   1   87.87    4.92
  -5   1   0  117.75    6.70
  -5   1   0   95.93    4.76
   5  -1   0  107.34    5.66
  -5   1   0  100.61    4.90
   5  -1   0  107.22    5.63
   5  -1   0  105.49    4.27
   5  -1   0  107.96    5.51
  -5   1   0  100.78    5.58
   5  -1   0   94.63    5.63
   5  -1   0  110.19    4.52
   5  -1   0  107.58    5.03
   5  -1   0  104.18    4.04
  -5   1   0  103.68    5.88
  -5   1   0   97.43    4.94
   5  -1   0  102.43    5.50
  -5   1   0  111.86    5.71
  -5   1  -1   32.42    3.69
  -5   1  -1   30.26    2.56
   5  -1   1   34.44    3.47
  -5   1  -1   31.06    2.69
   5  -1   1   31.23    3.27
   5  -1   1   32.69    3.28
   5  -1   1   28.37    3.29
  -5   1  -1   33.81    3.48
  -5   1  -1   31.88    3.06
  -5   1  -2   13.72    1.68
  -5   1  -2   13.78    1.79
   5  -1   2   18.81    2.83
  -5   1  -2   15.15    2.24
   5  -1   2   15.21    2.45
   5  -1   2   19.41    2.83
   5  -1   2   13.73    2.54
  -5   1  -2   15.68    2.54
  -5   1  -3   40.24    2.49
   5  -1   3   42.19    4.32
  -5   1  -3   37.43    2.89
   5  -1   3   36.66    3.92
   5  -1   3   35.22    3.85
   5  -1   3   37.41    3.89
  -5   1  -3   35.24    3.51
  -5   1  -4   26.21    1.78
  -5   1  -4   22.16    2.21
   5  -1   4   28.48    3.77
   5  -1   4   33.16    4.09
   5  -1   4   23.63    3.22
   5  -1   4   27.71    3.61
   5  -1   4   25.16    1.70
  -5   1  -4   24.62    3.09
   5  -1   5   -0.36    0.66
   5  -1   5    0.35    0.39
   5  -1   5    2.14    1.78
  -5   1  -5    1.16    0.79
  -5   1  -5    0.99    1.19
   5  -1   5    2.09    1.75
   5  -1   5    0.87    1.53
   5  -1   5    0.83    1.30
   5  -1   6    0.58    0.71
   5  -1   6   -0.87    1.71
  -5   1  -6    1.19    0.78
  -5   1  -6    1.49    1.50
   5  -1   6   -0.55    1.34
   5  -1   6    1.69    1.58
   5  -1   6    0.15    1.20
   5  -1   7    4.13    2.23
  -5   1  -7    5.67    1.98
   5  -1   7    5.24    2.07
   5  -1   7    6.09    2.42
   5  -1   7    4.86    1.96
   5  -1   8   -1.71    1.77
  -5   1  -8    2.79    1.77
   5  -1   8    1.38    1.72
   5  -1   8   -0.67    1.50
   5  -1   8    1.18    1.43
   5  -1   9    2.93    1.81
   5  -1  10    1.71    1.90
  -5   0  12    0.16    1.86
   5   0 -11    0.39    1.06
  -5   0  11    2.72    1.82
   5   0 -11    2.45    1.54
  -5   0  11    4.24    2.20
  -5   0  11    3.51    2.31
  -5   0  11    4.95    2.43
   5   0 -10    0.38    1.09
   5   0 -10    2.35    1.49
  -5   0  10    3.07    1.94
   5   0 -10    3.30    1.73
  -5   0  10    1.84    1.51
  -5   0  10    0.57    1.68
  -5   0  10    4.59    1.90
  -5   0  10    2.41    1.78
   5   0  -9   11.37    2.27
   5   0  -9    7.97    1.71
  -5   0   9    9.47    2.51
   5   0  -9   10.90    1.55
   5   0  -9   10.17    2.71
   5   0  -9    9.86    1.68
  -5   0   9    6.99    2.18
  -5   0   9   10.01    2.57
  -5   0   9   12.58    2.92
   5   0  -8    3.02    1.54
   5   0  -8    1.91    1.19
  -5   0   8    0.66    1.43
   5   0  -8    2.59    1.17
   5   0  -8    1.74    1.39
   5   0  -8    2.33    1.08
  -5   0   8    2.34    1.30
  -5   0   8    1.64    1.75
  -5   0   8    3.33    1.83
  -5   0   7   89.51    5.99
  -5   0   7   93.03    6.29
  -5   0   7   83.43    6.22
   5   0  -7   83.09    6.26
   5   0  -7   83.92    4.98
  -5   0   7   87.91    6.42
  -5   0   7   80.01    6.09
  -5   0   7   73.64    1.65
  -5   0   7   86.65    5.95
  -5   0   7   81.46    1.80
   5   0  -7   85.30    4.94
   5   0  -7   82.30    5.01
  -5   0   6   40.81    4.13
   5   0  -6   34.66    1.55
  -5   0   6   33.22    3.91
   5   0  -6   37.56    1.74
   5   0  -6   38.30    4.09
   5   0  -6   37.84    1.74
  -5   0   6   34.16    1.66
   5   0  -6   39.66    3.48
  -5   0   6   40.05    4.18
  -5   0   6   37.88    1.88
  -5   0   6   37.27    3.74
  -5   0   6   31.40    3.69
   5   0  -6   36.92    3.59
  -5   0   6   38.55    2.03
   5   0  -6   35.16    3.23
  -5   0   5  262.43    9.92
  -5   0   5  262.77    9.98
   5   0  -5  247.88    5.51
  -5   0   5  237.14    5.63
   5   0  -5  256.70    5.71
   5   0  -5  256.06    9.60
   5   0  -5  258.18    5.67
  -5   0   5  251.54    5.73
   5   0  -5  251.16    8.87
  -5   0   5  239.74    9.47
  -5   0   5  246.17    5.56
  -5   0   5  245.78    9.02
  -5   0   5  257.19    9.54
   5   0  -5  249.66    8.60
   5   0  -5  238.72    8.38
  -5   0   5  248.08    7.97
   5   0  -5  224.58    7.63
   5   0  -4    0.31    0.51
  -5   0   4    0.11    0.75
  -5   0   4    0.08    1.34
   5   0  -4    0.77    1.10
  -5   0   4    1.46    1.38
  -5   0   4   -0.29    0.63
   5   0  -4   -0.28    0.72
  -5   0   4    0.48    0.59
   5   0  -4    0.29    0.90
   5   0  -4    0.88    0.83
   5   0  -4    2.24    1.44
   5   0  -4    0.66    0.70
  -5   0   4    0.82    0.55
   5   0  -4    0.70    1.14
   5   0  -4   -0.41    1.03
  -5   0   4    0.55    1.23
  -5   0   4    1.00    1.14
  -5   0   4   -0.47    1.24
   5   0  -4    0.54    0.77
  -5   0   3  159.23    7.56
  -5   0   3  149.28    6.96
   5   0  -3  153.68    5.58
  -5   0   3  144.78    5.58
   5   0  -3  149.34    6.21
  -5   0   3  145.71    6.35
   5   0  -3  155.59    5.63
   5   0  -3  151.32    6.63
   5   0  -3  148.13    5.39
  -5   0   3  148.76    5.53
   5   0  -3  147.58    6.83
   5   0  -3  148.70    5.04
   5   0  -3  147.46    6.60
  -5   0   3  143.07    6.39
  -5   0   3  145.60    5.13
  -5   0   3  145.57    6.56
  -5   0   3  156.67    6.38
   5   0  -3  147.72    6.04
   5   0  -3  152.05    5.82
  -5   0   3  164.74    6.68
   5   0  -3  135.95    5.99
   5   0  -2    3.96    1.01
  -5   0   2    2.99    1.17
  -5   0   2    2.50    1.43
   5   0  -2    2.48    1.18
  -5   0   2    3.35    1.36
  -5   0   2    2.48    0.91
   5   0  -2    2.63    1.20
  -5   0   2    1.66    0.89
   5   0  -2    2.63    0.95
  -5   0   2    1.85    0.91
   5   0  -2    3.08    1.22
   5   0  -2    4.34    1.18
  -5   0   2    3.72    1.20
   5   0  -2    2.70    1.21
  -5   0   2    3.38    1.19
  -5   0   2    1.44    1.03
   5   0  -2    3.55    1.13
   5   0  -1   99.62    5.28
  -5   0   1  118.28    6.73
  -5   0   1  101.69    5.39
   5   0  -1  105.07    5.36
  -5   0   1  103.73    5.42
   5   0  -1  101.61    4.62
  -5   0   1   99.35    4.62
   5   0  -1  106.43    5.41
   5   0  -1  104.82    5.32
  -5   0   1   99.17    5.20
   5   0  -1  101.15    5.93
   5   0  -1   98.94    4.72
   5   0  -1  103.39    4.59
  -5   0   1   96.79    5.47
  -5   0   1  105.33    4.93
  -5   0   1  100.54    4.11
   5   0  -1  105.28    5.74
   5   0  -1   99.28    4.03
  -5   0   1  112.52    5.81
   5   0   0   40.99    3.51
  -5   0   0   46.87    3.48
   5   0   0   41.44    3.64
  -5   0   0   43.28    3.76
  -5   0   0   41.37    2.90
   5   0   0   54.29    4.13
   5   0   0   44.88    3.73
  -5   0   0   42.40    3.63
   5   0   0   46.76    4.12
  -5   0   0   45.75    3.88
  -5   0   0   44.81    3.42
  -5   0   0   43.79    2.24
   5   0   0   43.18    2.47
   5   0   1   32.01    2.01
  -5   0  -1   34.44    2.91
   5   0   1   29.24    3.36
  -5   0  -1   33.96    2.49
   5   0   1   32.46    3.45
   5   0   1   36.88    3.65
   5   0   1   29.96    3.46
  -5   0  -1   37.91    3.60
  -5   0  -1   31.26    3.10
  -5   0  -2    4.62    1.16
  -5   0  -2    5.04    1.38
   5   0   2    6.06    2.03
  -5   0  -2    5.69    1.10
   5   0   2    3.59    1.46
   5   0   2    7.09    1.97
   5   0   2    4.14    1.59
  -5   0  -2    5.24    1.78
  -5   0  -3   69.37    3.85
  -5   0  -3   64.75    3.18
   5   0   3   66.33    5.45
   5   0   3   69.37    5.50
   5   0   3   64.21    5.19
   5   0   3   79.13    5.48
  -5   0  -3   64.25    4.79
   5   0   4    5.80    0.93
  -5   0  -4    5.06    1.12
   5   0   4    5.72    2.22
  -5   0  -4    3.56    1.23
  -5   0  -4    6.54    1.11
   5   0   4    9.26    2.53
   5   0   4    8.49    2.27
   5   0   4    4.42    1.58
  -5   0  -5    3.81    0.93
   5   0   5    4.58    0.91
   5   0   5    3.50    1.66
  -5   0  -5    3.37    1.52
  -5   0  -5    3.46    0.83
   5   0   5    5.54    2.18
   5   0   5    7.74    2.25
   5   0   5    3.45    1.49
   5   0   5    4.77    1.02
   5   0   6    7.24    2.51
  -5   0  -6    5.71    1.91
   5   0   6   11.18    2.77
   5   0   6    8.85    2.68
   5   0   6    6.88    1.83
   5   0   7   10.15    2.96
  -5   0  -7   11.35    2.57
   5   0   7   13.43    3.29
   5   0   7    9.39    2.64
   5   0   7    5.24    2.00
   5   0   8   10.39    3.37
  -5   0  -8    4.35    1.80
   5   0   8    8.75    2.87
   5   0   8   11.68    3.08
   5   0   8    8.98    2.38
   5   0   8   10.89    2.86
   5   0   9   11.61    2.75
   5   0   9   19.63    3.77
  -5  -1  13    5.47    2.61
   5   1 -12    1.80    1.47
   5   1 -12    2.11    1.41
  -5  -1  12    0.52    1.48
  -5  -1  12    3.11    1.88
  -5  -1  12    4.58    2.35
   5   1 -11   10.83    2.54
   5   1 -11    6.70    1.98
  -5  -1  11    9.60    2.78
   5   1 -11    3.25    2.02
  -5  -1  11    9.54    2.54
  -5  -1  11    9.14    2.90
  -5  -1  11    6.46    2.30
  -5  -1  11   10.22    3.11
   5   1 -10    6.81    2.14
   5   1 -10    4.81    1.64
  -5  -1  10    6.76    2.47
   5   1 -10    7.08    2.61
   5   1 -10    4.00    1.23
  -5  -1  10    5.99    2.07
  -5  -1  10    8.01    2.75
  -5  -1  10    8.38    2.90
  -5  -1  10    7.95    2.26
   5   1  -9    3.82    1.65
   5   1  -9    3.56    1.67
  -5  -1   9    1.62    1.60
   5   1  -9    4.80    1.08
   5   1  -9    3.66    1.66
   5   1  -9    4.77    1.46
  -5  -1   9    4.53    1.88
  -5  -1   9    2.04    1.84
  -5  -1   9    3.47    1.89
  -5  -1   9    4.55    1.93
   5   1  -8   12.95    2.34
   5   1  -8   11.37    2.22
  -5  -1   8   13.49    2.64
  -5  -1   8   13.11    2.91
   5   1  -8    8.70    2.22
  -5  -1   8   10.48    0.88
  -5  -1   8   11.20    2.29
  -5  -1   8   11.16    0.99
  -5  -1   8   12.82    3.01
  -5  -1   8   10.69    2.47
   5   1  -7    1.05    1.24
   5   1  -7   -1.03    1.18
  -5  -1   7    2.01    1.51
  -5  -1   7    0.13    0.41
  -5  -1   7   -0.70    1.44
   5   1  -7   -0.01    0.42
  -5  -1   7    0.41    0.42
   5   1  -7   -1.90    1.60
   5   1  -7    0.14    0.43
  -5  -1   7    0.01    0.39
  -5  -1   7    0.04    0.39
  -5  -1   7   -0.43    1.21
  -5  -1   7    1.22    1.46
  -5  -1   7   -1.09    1.70
  -5  -1   7    0.90    1.21
  -5  -1   6   49.85    4.10
  -5  -1   6   54.55    4.64
  -5  -1   6   43.88    4.43
   5   1  -6   49.88    2.76
  -5  -1   6   42.67    2.62
   5   1  -6   49.12    2.79
   5   1  -6   44.50    4.31
   5   1  -6   53.05    2.87
  -5  -1   6   45.67    2.61
  -5  -1   6   45.98    2.55
  -5  -1   6   42.27    4.31
  -5  -1   6   48.29    4.10
  -5  -1   6   47.57    4.51
   5   1  -6   41.59    3.50
  -5  -1   6   45.95    2.71
   5   1  -6   44.55    3.69
  -5  -1   5  150.17    6.54
  -5  -1   5  160.49    7.76
  -5  -1   5  156.29    7.86
   5   1  -5  158.23    5.27
  -5  -1   5  154.99    5.35
   5   1  -5  156.26    5.31
   5   1  -5  158.33    7.56
   5   1  -5  159.17    5.28
  -5  -1   5  150.15    5.16
   5   1  -5  153.02    7.00
  -5  -1   5  148.19    4.93
  -5  -1   5  142.84    7.40
  -5  -1   5  151.07    6.90
  -5  -1   5  144.35    7.32
   5   1  -5  155.09    6.49
   5   1  -5  149.62    6.10
  -5  -1   5  162.94    6.87
   5   1  -5  135.96    6.23
  -5  -1   4   26.48    3.37
  -5  -1   4   25.88    3.25
   5   1  -4   25.38    2.32
  -5  -1   4   26.21    2.48
   5   1  -4   24.16    2.63
   5   1  -4   23.98    2.30
   5   1  -4   26.05    3.03
   5   1  -4   23.90    2.28
  -5  -1   4   22.84    2.21
   5   1  -4   21.71    2.90
   5   1  -4   24.12    2.06
   5   1  -4   24.55    3.02
  -5  -1   4   21.82    2.04
  -5  -1   4   24.17    3.04
  -5  -1   4   23.29    2.76
  -5  -1   4   23.59    2.91
   5   1  -4   23.44    2.42
   5   1  -4   27.33    2.52
  -5  -1   4   24.62    2.81
   5   1  -4   20.49    2.56
  -5  -1   3  224.96    9.04
  -5  -1   3  204.53    8.38
   5   1  -3  195.62    6.69
  -5  -1   3  180.21    6.67
   5   1  -3  191.36    6.65
   5   1  -3  190.27    6.66
   5   1  -3  187.48    7.32
   5   1  -3  194.02    6.64
  -5  -1   3  187.48    6.63
   5   1  -3  189.48    8.03
   5   1  -3  187.07    6.00
   5   1  -3  187.51    7.54
  -5  -1   3  184.30    7.32
  -5  -1   3  181.11    6.04
  -5  -1   3  188.45    7.22
  -5  -1   3  190.25    7.30
   5   1  -3  186.31    6.09
  -5  -1   3  202.39    7.79
   5   1  -3  167.52    6.97
   5   1  -2    7.66    1.40
  -5  -1   2    4.58    1.68
   5   1  -2    5.43    1.55
  -5  -1   2    9.60    2.00
  -5  -1   2    8.90    1.52
   5   1  -2    9.45    1.80
  -5  -1   2    8.89    1.68
   5   1  -2    9.50    1.52
   5   1  -2    8.57    1.69
   5   1  -2    9.41    1.72
  -5  -1   2    8.55    1.65
   5   1  -2    7.39    1.67
  -5  -1   2    8.67    1.71
  -5  -1   2    7.13    1.58
   5   1  -2   13.74    1.67
   5   1  -2    7.05    1.26
   5   1  -1   74.85    4.78
  -5  -1   1   71.20    4.72
   5   1  -1   81.17    4.94
  -5  -1   1   78.23    4.90
   5   1  -1   74.30    3.63
   5   1  -1   74.42    4.72
   5   1  -1   78.79    4.77
  -5  -1   1   73.16    4.65
   5   1  -1   77.82    5.27
   5   1  -1   76.62    4.28
  -5  -1   1   74.02    3.89
  -5  -1   1   67.25    4.15
  -5  -1   1   77.12    4.83
  -5  -1   1   71.73    3.79
   5   1  -1   70.20    3.55
   5   1  -1   75.19    3.05
   5   1   0    2.22    1.26
  -5  -1   0    2.78    1.24
  -5  -1   0    3.60    1.27
   5   1   0    2.09    1.35
   5   1   0    3.77    0.66
  -5  -1   0    2.97    0.82
   5   1   0    3.05    1.37
   5   1   0    3.20    1.30
   5   1   0    1.49    1.41
  -5  -1   0    3.87    0.95
  -5  -1   0    3.43    1.26
  -5  -1   0    3.92    0.95
   5   1   1    3.57    1.36
  -5  -1  -1    1.29    0.96
  -5  -1  -1    1.00    1.06
   5   1   1    1.25    1.20
   5   1   1    2.30    0.42
  -5  -1  -1    1.75    0.65
   5   1   1    0.89    1.20
   5   1   1    2.88    1.55
   5   1   1    1.74    1.34
  -5  -1  -1    2.63    1.22
  -5  -1  -1    2.20    0.69
  -5  -1  -2   85.82    4.79
   5   1   2   90.19    6.06
  -5  -1  -2   85.98    2.93
   5   1   2  103.61    6.41
   5   1   2   92.39    6.01
   5   1   2   84.59    5.69
  -5  -1  -2   87.04    5.46
  -5  -1  -2   90.07    5.37
  -5  -1  -2   84.09    2.57
  -5  -1  -3   74.22    4.41
   5   1   3   86.75    6.26
  -5  -1  -3   75.75    2.48
   5   1   3   76.40    5.86
   5   1   3   85.43    6.06
   5   1   3   73.57    5.37
  -5  -1  -3   73.06    5.04
  -5  -1  -4    0.35    0.97
  -5  -1  -4   -1.55    1.19
   5   1   4   -0.24    1.34
  -5  -1  -4   -0.11    0.24
   5   1   4   -0.83    1.56
   5   1   4    0.06    0.17
   5   1   4   -0.68    1.38
   5   1   4    0.45    1.03
  -5  -1  -5   15.47    2.09
   5   1   5   15.26    3.10
  -5  -1  -5   13.03    2.41
   5   1   5   15.64    3.05
   5   1   5   13.92    2.92
   5   1   5   11.99    2.49
   5   1   5   14.03    1.79
   5   1   6   14.65    3.24
  -5  -1  -6   12.98    2.56
   5   1   6   15.38    3.17
   5   1   6   16.69    3.41
   5   1   6   12.52    2.49
   5   1   6   15.84    2.76
   5   1   6   13.82    1.80
   5   1   7    0.62    1.75
  -5  -1  -7   -0.22    1.08
   5   1   7   -1.06    1.46
   5   1   7    1.37    1.80
   5   1   7    1.59    1.41
   5   1   7    0.06    1.45
   5   1   8   -0.26    2.03
  -5  -1  -8   -0.51    1.21
   5   1   8   -0.36    1.77
   5   1   8    1.33    1.87
   5   1   8   -0.36    1.21
   5   1   8   -0.04    1.40
   5   1   9    0.76    1.20
   5   1   9   -1.22    1.66
   5   2 -13   13.35    3.03
   5   2 -13   14.96    3.15
  -5  -2  13   13.25    3.35
   5   2 -12    2.46    1.54
   5   2 -12    1.76    1.54
  -5  -2  12   -0.35    1.50
  -5  -2  12    0.45    1.18
  -5  -2  12   -0.64    1.59
   5   2 -11   -2.22    1.71
   5   2 -11    1.38    1.37
  -5  -2  11    0.69    1.79
   5   2 -11   -0.34    1.24
  -5  -2  11   -2.25    1.76
  -5  -2  11    0.11    1.71
  -5  -2  11    1.70    1.93
  -5  -2  11   -0.68    1.56
   5   2 -10    1.79    1.29
   5   2 -10    1.58    1.44
  -5  -2  10   -0.88    1.30
   5   2 -10    0.03    1.10
  -5  -2  10   -1.54    1.57
  -5  -2  10   -0.46    1.33
  -5  -2  10    1.01    1.68
  -5  -2  10   -2.24    1.61
   5   2  -9    4.29    1.70
   5   2  -9    4.98    1.74
  -5  -2   9    5.11    1.89
   5   2  -9    4.56    1.52
  -5  -2   9    4.34    1.64
  -5  -2   9    7.09    2.48
  -5  -2   9    5.28    2.30
  -5  -2   9    8.50    2.25
   5   2  -8   12.78    2.60
   5   2  -8    8.89    2.11
  -5  -2   8    9.69    2.26
   5   2  -8   12.17    1.64
  -5  -2   8   10.91    2.51
   5   2  -8   11.37    2.59
  -5  -2   8    9.28    2.17
  -5  -2   8   11.18    1.37
  -5  -2   8    9.81    2.52
  -5  -2   8   10.07    2.65
  -5  -2   8   11.69    2.30
   5   2  -7    9.46    2.09
   5   2  -7    7.37    1.91
  -5  -2   7    9.50    2.17
  -5  -2   7    7.51    1.25
  -5  -2   7    9.65    2.43
   5   2  -7    8.89    1.47
  -5  -2   7    7.77    1.34
   5   2  -7    9.46    1.54
  -5  -2   7    7.82    1.23
   5   2  -7    6.62    2.06
   5   2  -7    9.74    1.49
  -5  -2   7    8.55    1.32
   5   2  -7    7.99    1.45
  -5  -2   7    8.18    2.09
  -5  -2   7    5.62    1.73
  -5  -2   7   19.13    3.13
  -5  -2   7   10.68    2.14
   5   2  -6    0.33    1.16
  -5  -2   6   -0.32    1.40
  -5  -2   6    1.04    0.76
  -5  -2   6   -0.35    1.10
   5   2  -6    1.11    0.86
  -5  -2   6    0.06    0.70
   5   2  -6    0.60    0.78
  -5  -2   6    1.10    0.91
   5   2  -6    3.17    2.09
   5   2  -6    0.52    0.79
  -5  -2   6    0.19    0.57
   5   2  -6    1.02    0.87
  -5  -2   6   -0.34    1.04
  -5  -2   6    1.01    1.29
  -5  -2   6    2.14    1.56
  -5  -2   6    0.44    1.06
  -5  -2   5   40.06    3.42
  -5  -2   5   44.91    4.15
  -5  -2   5   39.44    4.10
   5   2  -5   42.37    3.15
  -5  -2   5   41.91    3.17
   5   2  -5   39.18    3.06
   5   2  -5   42.03    3.23
  -5  -2   5   39.32    3.08
   5   2  -5   41.79    3.13
  -5  -2   5   37.90    2.97
  -5  -2   5   39.28    2.79
  -5  -2   5   41.21    4.05
  -5  -2   5   45.53    3.71
   5   2  -5   38.82    3.18
  -5  -2   5   44.56    4.23
   5   2  -5   41.65    3.00
   5   2  -5   37.78    3.59
  -5  -2   5   45.42    3.22
  -5  -2   4   19.12    2.16
  -5  -2   4   18.20    2.82
   5   2  -4   12.67    2.21
   5   2  -4   16.99    2.17
  -5  -2   4   16.69    2.08
  -5  -2   4   18.14    2.84
   5   2  -4   17.30    2.17
   5   2  -4   18.44    2.25
  -5  -2   4   16.76    2.05
  -5  -2   4   19.44    2.22
   5   2  -4   14.65    2.01
  -5  -2   4   16.70    1.96
  -5  -2   4   17.35    2.65
  -5  -2   4   18.27    2.34
   5   2  -4   17.06    2.01
  -5  -2   4   17.29    2.63
   5   2  -4   16.86    1.76
  -5  -2   3   75.74    5.43
  -5  -2   3   69.24    5.07
   5   2  -3   66.93    4.23
  -5  -2   3   71.11    4.48
   5   2  -3   66.28    3.79
   5   2  -3   65.54    4.25
  -5  -2   3   65.07    4.40
   5   2  -3   66.05    4.14
  -5  -2   3   70.01    4.34
   5   2  -3   67.68    3.86
  -5  -2   3   63.59    3.87
  -5  -2   3   60.81    4.32
  -5  -2   3   61.05    4.00
   5   2  -3   72.15    3.56
  -5  -2   3   65.29    4.55
   5   2  -3   70.30    3.12
   5   2  -3   61.25    4.46
   5   2  -2    0.98    0.92
   5   2  -2    0.27    0.51
   5   2  -2   -0.85    1.04
  -5  -2   2    0.10    0.87
  -5  -2   2   -1.87    1.59
   5   2  -2    0.06    1.86
  -5  -2   2    0.41    0.78
   5   2  -2    0.30    0.63
   5   2  -2    0.38    1.10
  -5  -2   2    0.34    0.75
   5   2  -2   -0.04    0.98
  -5  -2   2    0.83    0.88
  -5  -2   2    0.53    0.90
  -5  -2   2    0.38    0.95
  -5  -2   2    0.70    0.94
   5   2  -2   -0.03    0.48
   5   2  -1   14.48    2.29
  -5  -2   1   15.08    2.51
  -5  -2   1   14.62    2.21
   5   2  -1   15.87    1.54
   5   2  -1   14.18    2.37
   5   2  -1   15.12    2.29
  -5  -2   1   15.44    1.89
   5   2  -1   16.44    2.42
   5   2  -1   14.80    2.51
   5   2  -1   15.92    1.14
  -5  -2   1   15.97    2.00
  -5  -2   1   16.45    2.22
   5   2  -1   13.30    1.29
   5   2   0   32.63    3.36
  -5  -2   0   35.71    3.51
   5   2   0   38.61    3.81
   5   2   0   35.98    3.77
  -5  -2   0   39.14    2.66
   5   2   0   34.81    3.54
   5   2   0   35.72    3.78
  -5  -2   0   35.39    2.57
  -5  -2   0   37.90    3.35
  -5  -2   0   36.28    3.34
  -5  -2   0   36.02    2.76
   5   2   1  108.85    6.20
  -5  -2  -1  102.69    5.85
   5   2   1  112.64    6.62
   5   2   1  115.51    6.68
   5   2   1  109.72    6.39
   5   2   1  106.76    6.45
  -5  -2  -1  110.28    3.81
  -5  -2  -1  108.31    5.81
  -5  -2  -1  108.04    5.80
  -5  -2  -2    2.11    1.32
  -5  -2  -2    1.00    1.00
   5   2   2    1.53    1.52
   5   2   2    1.22    1.46
   5   2   2    3.32    1.83
   5   2   2    3.10    1.62
  -5  -2  -2    1.54    0.37
  -5  -2  -2    2.77    1.50
  -5  -2  -3   19.47    2.61
  -5  -2  -3   15.86    2.54
   5   2   3   14.22    2.93
   5   2   3   13.88    2.78
   5   2   3   11.98    2.46
   5   2   3   14.37    2.64
  -5  -2  -4   52.38    4.15
   5   2   4   52.87    5.31
   5   2   4   50.78    5.12
   5   2   4   52.84    5.21
   5   2   4   48.67    4.51
  -5  -2  -4   52.58    4.61
   5   2   4   55.95    4.14
   5   2   5   27.09    4.09
   5   2   5   27.09    4.05
   5   2   5   22.71    3.68
   5   2   5   22.96    3.26
  -5  -2  -5   23.01    3.35
   5   2   5   22.89    2.57
   5   2   5   22.96    2.86
   5   2   6   15.51    2.12
   5   2   6   15.00    3.32
  -5  -2  -6   14.94    2.69
   5   2   6   23.12    3.95
   5   2   6   17.79    3.53
   5   2   6   14.94    2.89
   5   2   6   20.48    3.07
   5   2   7   10.93    3.08
  -5  -2  -7   10.62    2.49
   5   2   7   12.06    3.41
   5   2   7   12.05    3.18
   5   2   7    6.03    2.11
   5   2   7    9.08    2.23
   5   2   8    3.73    2.40
  -5  -2  -8    0.94    1.53
   5   2   8    4.37    2.61
   5   2   8    6.18    2.60
   5   2   8    3.60    1.78
   5   2   8    1.03    1.37
   5   3 -13    2.84    1.93
   5   3 -13   -2.94    1.62
  -5  -3  13   -1.89    1.94
   5   3 -12   -4.46    2.25
   5   3 -12    0.33    1.23
  -5  -3  12    0.17    1.71
  -5  -3  12    0.20    1.50
  -5  -3  12   -2.66    2.26
   5   3 -11   -1.06    1.37
   5   3 -11    0.18    1.47
  -5  -3  11   -1.77    1.91
  -5  -3  11   -1.90    1.73
  -5  -3  11    1.70    1.76
  -5  -3  11   -0.77    1.91
   5   3 -10    1.20    1.32
   5   3 -10   -0.43    1.30
  -5  -3  10   -0.84    1.62
  -5  -3  10   -0.64    1.32
  -5  -3  10    0.83    1.42
  -5  -3  10   -1.05    1.60
  -5  -3  10    1.95    1.30
   5   3  -9    9.70    2.42
   5   3  -9    9.25    2.41
  -5  -3   9   11.32    2.33
  -5  -3   9    8.78    1.35
  -5  -3   9   10.99    2.72
  -5  -3   9    9.59    2.27
  -5  -3   9   14.11    3.25
  -5  -3   9   12.36    3.01
  -5  -3   9    8.90    2.09
  -5  -3   8   31.45    3.59
   5   3  -8   22.41    3.24
  -5  -3   8   24.77    3.73
   5   3  -8   25.15    2.62
   5   3  -8   26.51    2.74
  -5  -3   8   22.14    2.16
  -5  -3   8   27.54    4.08
  -5  -3   8   29.98    4.32
  -5  -3   8   27.85    3.26
   5   3  -8   30.06    3.73
  -5  -3   8   22.29    3.19
   5   3  -7    7.10    1.86
  -5  -3   7    8.43    2.08
  -5  -3   7    7.26    1.32
  -5  -3   7    6.53    2.11
   5   3  -7    8.69    1.75
  -5  -3   7    5.42    1.22
   5   3  -7    8.43    1.58
  -5  -3   7    5.82    1.35
   5   3  -7    7.20    1.54
   5   3  -7    6.52    1.35
  -5  -3   7    6.85    1.86
  -5  -3   7    8.82    1.54
  -5  -3   7   10.02    1.72
  -5  -3   7    5.15    1.96
  -5  -3   7   10.51    2.79
   5   3  -6    9.05    2.03
  -5  -3   6   10.99    2.32
  -5  -3   6    8.57    1.47
  -5  -3   6   12.68    1.94
  -5  -3   6    9.09    2.30
   5   3  -6   11.60    1.93
   5   3  -6   10.87    1.94
  -5  -3   6    8.52    1.56
   5   3  -6    9.41    1.73
   5   3  -6    9.17    1.58
  -5  -3   6    9.70    1.69
  -5  -3   6   10.58    2.04
  -5  -3   6   10.99    1.76
  -5  -3   6    9.67    2.37
  -5  -3   6   11.86    2.75
  -5  -3   6   11.57    1.92
   5   3  -5   -0.46    1.29
  -5  -3   5    1.92    1.67
  -5  -3   5    0.80    0.72
  -5  -3   5    0.45    1.20
   5   3  -5    0.51    0.93
  -5  -3   5   -0.39    0.73
   5   3  -5    0.89    1.14
  -5  -3   5    0.28    0.67
   5   3  -5    0.92    1.11
  -5  -3   5   -0.70    0.78
  -5  -3   5    0.27    0.89
  -5  -3   5    0.06    0.80
  -5  -3   5   -0.75    1.42
   5   3  -5    0.64    0.76
  -5  -3   5   -0.15    1.28
  -5  -3   5   -0.05    0.80
  -5  -3   4   36.47    2.86
  -5  -3   4   39.92    4.02
  -5  -3   4   29.19    3.55
   5   3  -4   33.96    3.28
  -5  -3   4   33.76    3.24
   5   3  -4   35.06    2.99
   5   3  -4   35.19    3.28
  -5  -3   4   30.50    3.04
   5   3  -4   30.39    2.97
  -5  -3   4   35.29    3.18
  -5  -3   4   34.42    2.96
  -5  -3   4   32.58    3.62
  -5  -3   4   32.17    2.92
  -5  -3   4   35.16    3.72
   5   3  -4   31.70    3.43
  -5  -3   3   -0.25    1.54
   5   3  -3    1.53    1.35
  -5  -3   3   -0.19    0.88
  -5  -3   3   -0.58    1.43
   5   3  -3   -0.21    1.16
  -5  -3   3   -0.28    0.86
   5   3  -3    0.94    0.81
   5   3  -3   -0.01    1.08
  -5  -3   3    0.68    0.86
  -5  -3   3    0.58    0.99
   5   3  -3    0.67    0.98
  -5  -3   3    2.77    1.38
  -5  -3   3    0.21    1.24
  -5  -3   3    1.61    1.21
  -5  -3   3   -0.53    1.03
  -5  -3   2   32.98    3.68
   5   3  -2   33.66    3.39
   5   3  -2   28.98    2.14
   5   3  -2   28.49    3.25
  -5  -3   2   32.61    3.11
   5   3  -2   30.20    3.25
  -5  -3   2   29.85    3.00
  -5  -3   2   29.79    3.06
  -5  -3   2   29.79    2.86
  -5  -3   2   33.10    3.29
   5   3  -2   30.01    3.23
   5   3  -1    7.51    1.87
  -5  -3   1    7.34    1.66
  -5  -3   1    6.67    1.83
   5   3  -1    8.84    2.15
   5   3  -1    8.13    0.99
   5   3  -1    8.77    2.11
  -5  -3   1    8.44    1.58
   5   3  -1    7.00    1.84
  -5  -3   1    9.35    1.71
  -5  -3   1    8.69    1.69
   5   3   0   11.21    2.21
  -5  -3   0   16.30    2.68
  -5  -3   0   14.25    2.40
   5   3   0   11.56    2.23
   5   3   0   10.65    2.25
  -5  -3   0   11.80    1.65
   5   3   0   11.74    2.36
   5   3   0   13.78    2.59
  -5  -3   0   10.27    1.67
  -5  -3   0   11.71    2.04
   5   3   1   19.86    2.96
  -5  -3  -1   26.00    3.33
   5   3   1   24.43    3.49
   5   3   1   28.60    3.70
  -5  -3  -1   22.17    2.00
   5   3   1   25.31    3.53
   5   3   1   19.28    2.99
  -5  -3  -1   19.88    1.96
  -5  -3  -1   21.46    2.64
  -5  -3  -1   21.29    2.81
   5   3   1   19.68    1.41
  -5  -3  -2   10.13    2.59
   5   3   2    6.39    1.90
  -5  -3  -2    4.44    1.61
   5   3   2    3.93    1.82
   5   3   2    5.39    2.05
  -5  -3  -2    5.89    0.97
   5   3   2    5.90    2.03
   5   3   2    4.57    1.58
  -5  -3  -2    6.58    1.17
   5   3   2    5.16    0.95
   5   3   3   51.21    5.16
   5   3   3   55.32    5.33
   5   3   3   56.14    5.18
   5   3   3   50.25    4.69
  -5  -3  -3   51.16    2.09
  -5  -3  -3   46.15    4.28
   5   3   3   55.88    3.40
   5   3   4   51.42    5.32
   5   3   4   36.44    4.51
   5   3   4   38.60    4.68
   5   3   4   33.76    3.89
  -5  -3  -4   38.61    4.07
   5   3   4   37.38    3.16
  -5  -3  -5    4.76    1.75
   5   3   5    9.65    2.76
   5   3   5    4.79    2.44
   5   3   5    8.54    2.71
   5   3   5    4.12    1.55
   5   3   5    6.80    1.67
   5   3   5    6.54    1.77
   5   3   6    5.87    1.65
  -5  -3  -6    2.25    1.36
   5   3   6    6.98    2.83
   5   3   6    9.71    2.95
   5   3   6    7.17    2.64
   5   3   6    8.79    2.27
   5   3   6    4.89    1.80
   5   3   7    0.27    1.86
  -5  -3  -7    1.32    1.25
   5   3   7    0.47    1.80
   5   3   7    5.72    2.80
   5   3   7    2.20    1.38
   5   3   8    2.18    1.65
   5   4 -12    3.44    2.21
   5   4 -12    1.73    1.72
  -5  -4  12   -0.13    1.25
  -5  -4  12    2.70    2.14
   5   4 -11    2.03    1.88
   5   4 -11    3.73    1.88
  -5  -4  11    3.96    2.14
  -5  -4  11    5.21    2.18
  -5  -4  11    1.65    1.76
  -5  -4  11    3.53    2.29
  -5  -4  11    0.17    1.34
   5   4 -10    6.36    2.19
   5   4 -10    3.11    1.59
  -5  -4  10    3.98    1.93
  -5  -4  10    5.27    2.08
  -5  -4  10   12.45    3.23
  -5  -4  10    8.36    3.12
  -5  -4  10    3.00    1.52
   5   4  -9    9.57    2.42
  -5  -4   9   10.12    1.62
   5   4  -9   13.91    2.63
  -5  -4   9   12.36    2.33
  -5  -4   9    6.57    2.54
   5   4  -9   10.14    2.00
  -5  -4   9   11.00    2.54
   5   4  -9    9.49    1.95
  -5  -4   9   10.15    2.78
  -5  -4   9   13.73    3.23
  -5  -4   9   13.17    2.40
  -5  -4   8   29.24    3.45
  -5  -4   8   30.92    4.25
   5   4  -8   33.42    3.38
   5   4  -8   32.82    3.41
  -5  -4   8   30.59    2.83
  -5  -4   8   32.23    4.47
  -5  -4   8   31.85    4.67
  -5  -4   8   29.45    3.13
   5   4  -8   28.37    3.79
  -5  -4   8   32.76    3.73
   5   4  -8   26.92    3.88
   5   4  -7   10.39    2.31
  -5  -4   7   11.97    2.48
  -5  -4   7    9.59    2.43
   5   4  -7   13.28    2.37
   5   4  -7   10.50    2.05
  -5  -4   7   11.79    2.27
   5   4  -7   11.87    2.12
  -5  -4   7   10.57    1.98
  -5  -4   7   11.86    2.79
  -5  -4   7   12.00    2.84
  -5  -4   6    1.46    0.94
   5   4  -6    1.03    1.32
  -5  -4   6    3.06    1.67
  -5  -4   6    1.62    1.63
   5   4  -6   -0.07    1.09
  -5  -4   6   -0.10    0.75
   5   4  -6    0.10    1.11
  -5  -4   6    8.97    1.92
  -5  -4   6    0.07    0.98
   5   4  -6    0.85    1.06
  -5  -4   6    2.19    1.04
  -5  -4   6    3.95    1.86
   5   4  -6    0.92    0.86
  -5  -4   6    1.61    1.66
  -5  -4   6    2.07    1.15
   5   4  -5    1.34    1.45
  -5  -4   5    0.97    1.01
  -5  -4   5    0.11    1.39
  -5  -4   5    1.13    1.41
   5   4  -5    3.07    1.58
   5   4  -5    0.55    1.00
   5   4  -5    0.19    1.01
  -5  -4   5    0.30    0.84
  -5  -4   5   -1.22    1.53
  -5  -4   5    1.87    1.51
  -5  -4   5    0.29    0.69
   5   4  -4    5.84    1.72
  -5  -4   4    7.94    1.70
  -5  -4   4    9.45    2.36
  -5  -4   4    6.62    2.04
   5   4  -4    7.48    1.79
   5   4  -4    7.75    1.49
   5   4  -4    9.29    2.11
   5   4  -4    6.85    1.77
  -5  -4   4    6.71    1.40
  -5  -4   4    6.15    1.84
  -5  -4   4    6.79    1.93
  -5  -4   4    6.67    1.43
  -5  -4   3   26.79    2.07
  -5  -4   3   28.96    3.71
   5   4  -3   25.40    3.08
   5   4  -3   26.06    2.26
   5   4  -3   27.87    3.23
   5   4  -3   28.19    3.15
  -5  -4   3   30.68    3.10
  -5  -4   3   27.35    3.35
  -5  -4   3   26.88    2.50
  -5  -4   3   27.45    3.44
   5   4  -3   23.05    3.06
   5   4  -2   20.89    2.97
   5   4  -2   23.30    3.06
  -5  -4   2   19.53    3.17
   5   4  -2   22.98    1.80
   5   4  -2   23.29    3.17
  -5  -4   2   24.57    2.86
   5   4  -2   26.33    3.22
  -5  -4   2   20.39    2.69
  -5  -4   2   22.04    2.86
  -5  -4   2   20.62    2.33
   5   4  -1    4.20    1.43
  -5  -4   1    5.14    1.49
  -5  -4   1    4.15    1.76
   5   4  -1    5.98    1.88
   5   4  -1    4.95    0.65
   5   4  -1    4.07    1.75
  -5  -4   1    2.35    0.95
   5   4  -1    6.45    1.84
  -5  -4   1    4.90    1.53
  -5  -4   1    5.47    1.39
  -5  -4   0   21.87    3.39
   5   4   0   18.11    2.83
  -5  -4   0   18.88    2.72
   5   4   0   18.60    2.96
   5   4   0   17.09    2.97
  -5  -4   0   16.82    2.12
   5   4   0   22.11    3.24
  -5  -4   0   19.86    2.51
  -5  -4   0   16.76    2.18
   5   4   1  106.96    6.63
  -5  -4  -1  124.29    7.44
   5   4   1  120.58    7.45
   5   4   1  119.53    7.43
  -5  -4  -1  119.98    5.07
   5   4   1  126.23    7.42
   5   4   1  116.62    7.06
  -5  -4  -1  116.32    5.29
  -5  -4  -1  109.28    6.37
  -5  -4  -1  121.29    5.96
   5   4   2   42.14    4.38
   5   4   2   41.32    4.62
   5   4   2   43.06    4.75
   5   4   2   47.19    4.86
   5   4   2   40.97    4.36
  -5  -4  -2   39.67    2.92
  -5  -4  -2   44.07    4.20
   5   4   2   38.68    1.91
  -5  -4  -3    2.81    1.25
   5   4   3    3.81    1.95
   5   4   3    1.83    1.72
   5   4   3    3.32    1.78
   5   4   3    3.53    1.57
  -5  -4  -3    2.95    0.87
   5   4   3    3.91    1.01
  -5  -4  -4   -1.07    1.30
   5   4   4    1.36    1.70
   5   4   4    4.24    2.28
   5   4   4    2.54    1.66
   5   4   4    1.91    1.32
   5   4   4    1.99    1.27
  -5  -4  -5    1.42    1.43
   5   4   5    0.02    1.77
   5   4   5   -1.91    1.91
   5   4   5    1.59    1.91
   5   4   5   -0.78    1.30
   5   4   5    0.95    1.05
  -5  -4  -6   12.86    2.70
   5   4   6   14.54    3.45
   5   4   6   17.27    3.76
   5   4   6   16.31    3.46
   5   4   6    4.07    1.83
   5   4   6   12.17    2.24
   5   4   7   14.51    4.06
  -5  -4  -7    6.33    2.07
   5   4   7    8.80    3.06
   5   4   7    4.40    2.41
   5   4   7    5.39    1.96
  -5  -5  12   26.85    4.29
   5   5 -11    6.28    2.32
   5   5 -11    6.65    2.05
  -5  -5  11    4.45    2.27
  -5  -5  11    8.51    2.37
  -5  -5  11   10.39    3.21
  -5  -5  11   10.03    3.04
   5   5 -10   12.92    3.11
  -5  -5  10   13.30    2.11
   5   5 -10   14.26    3.05
  -5  -5  10   13.18    3.09
  -5  -5  10   10.63    2.46
  -5  -5  10   13.00    3.31
  -5  -5  10   14.14    3.58
   5   5  -9    9.34    2.60
  -5  -5   9    6.68    1.50
   5   5  -9    6.52    2.21
  -5  -5   9    7.52    2.09
  -5  -5   9    7.07    2.54
   5   5  -9    7.27    1.97
  -5  -5   9    6.94    1.96
   5   5  -9    8.79    2.14
  -5  -5   9    5.38    2.33
  -5  -5   9   15.50    3.85
  -5  -5   9    8.80    2.05
   5   5  -8   -0.33    1.48
  -5  -5   8    1.42    1.11
   5   5  -8    2.83    1.73
  -5  -5   8    0.64    1.35
  -5  -5   8    1.63    1.60
   5   5  -8    1.95    1.74
   5   5  -8    1.06    1.42
  -5  -5   8    1.39    1.23
   5   5  -8    1.12    1.19
  -5  -5   8   -0.38    1.44
  -5  -5   8    1.02    2.08
  -5  -5   8    1.67    1.09
  -5  -5   7    4.34    1.38
   5   5  -7    3.81    1.63
  -5  -5   7    5.36    1.96
  -5  -5   7    4.21    1.79
   5   5  -7    2.96    1.48
   5   5  -7    5.44    1.92
  -5  -5   7    4.95    1.60
   5   5  -7    4.74    1.64
  -5  -5   7    4.09    1.96
  -5  -5   7    1.74    1.49
  -5  -5   6    9.85    1.88
   5   5  -6   10.19    2.26
  -5  -5   6   11.80    2.38
  -5  -5   6   10.56    2.71
   5   5  -6    8.48    2.12
   5   5  -6   13.73    2.57
  -5  -5   6    8.90    1.77
   5   5  -6    8.12    2.06
  -5  -5   6   10.83    2.63
  -5  -5   6    9.95    2.48
  -5  -5   5   -0.36    1.01
   5   5  -5    1.26    1.14
  -5  -5   5    0.95    1.54
  -5  -5   5    1.55    1.35
   5   5  -5   -0.67    1.57
   5   5  -5    0.76    1.32
  -5  -5   5    1.66    0.92
   5   5  -5    1.26    1.18
  -5  -5   5    2.02    1.33
  -5  -5   5    2.72    1.90
  -5  -5   5    2.59    1.04
  -5  -5   4   30.34    3.82
  -5  -5   4   28.16    3.93
   5   5  -4   24.31    3.25
   5   5  -4   27.34    2.54
   5   5  -4   25.68    3.23
   5   5  -4   27.05    3.22
  -5  -5   4   24.66    2.92
  -5  -5   4   28.66    3.67
  -5  -5   4   25.41    2.38
  -5  -5   4   27.34    3.70
   5   5  -4   26.53    3.36
  -5  -5   4   27.88    2.35
  -5  -5   3    1.32    1.16
   5   5  -3   -0.06    1.22
  -5  -5   3   -1.60    1.79
   5   5  -3    1.36    1.35
   5   5  -3    1.01    0.80
   5   5  -3   -0.01    1.24
   5   5  -3    0.65    1.39
  -5  -5   3    0.30    0.49
  -5  -5   3    0.22    1.43
  -5  -5   3   -0.34    0.64
  -5  -5   2    0.85    1.00
   5   5  -2   -0.24    1.21
  -5  -5   2    4.46    1.94
   5   5  -2   -2.01    1.55
   5   5  -2   -0.16    0.45
   5   5  -2    1.03    1.71
   5   5  -2    1.45    1.42
  -5  -5   2   -0.13    1.18
  -5  -5   2   -0.13    0.76
   5   5  -1   13.26    2.52
  -5  -5   1   18.17    2.69
  -5  -5   1   15.60    3.03
   5   5  -1   18.48    3.13
   5   5  -1   14.18    2.80
  -5  -5   1   20.11    2.61
   5   5  -1   15.38    2.73
  -5  -5   1   15.29    2.37
  -5  -5   1   16.11    2.06
   5   5   0   68.05    5.42
  -5  -5   0   79.66    6.47
   5   5   0   75.63    6.00
   5   5   0   75.52    5.88
  -5  -5   0   70.79    4.65
   5   5   0   83.07    6.04
  -5  -5   0   66.89    5.11
  -5  -5   0   68.07    4.75
  -5  -5   0   74.08    4.37
   5   5   1  117.62    7.16
   5   5   1  124.95    7.86
   5   5   1  122.84    7.76
   5   5   1  112.21    7.28
  -5  -5  -1  108.25    5.77
  -5  -5  -1  110.17    6.73
  -5  -5  -1  109.34    5.50
   5   5   2   73.24    5.90
   5   5   2   85.28    6.87
   5   5   2   81.95    6.65
   5   5   2   82.61    6.43
   5   5   2   68.46    5.64
  -5  -5  -2   82.40    4.84
  -5  -5  -2   75.82    5.73
  -5  -5  -2   75.81    4.86
  -5  -5  -3    1.72    1.27
   5   5   3    0.86    1.60
   5   5   3    3.83    1.86
   5   5   3    3.55    1.86
   5   5   3    4.26    1.85
  -5  -5  -4    9.41    2.32
   5   5   4   11.23    3.13
   5   5   4    9.67    2.75
   5   5   4   15.49    3.30
   5   5   4   10.22    2.57
   5   5   4   11.99    2.37
  -5  -5  -5    7.32    1.99
   5   5   5   10.05    3.04
   5   5   5   12.28    3.30
   5   5   5   10.17    2.71
   5   5   5    4.44    2.22
   5   5   5    8.89    2.06
   5   5   6    7.69    2.07
  -5  -5  -6    5.10    1.96
   5   5   6    8.23    2.90
   5   5   6    8.63    2.77
   5   5   6    3.97    2.09
   5   5   6   -1.84    1.32
   5   5   7    2.74    1.65
   5   6 -11    5.35    2.15
   5   6 -11    5.94    2.22
  -5  -6  11    6.65    2.59
  -5  -6  11    6.36    2.15
   5   6 -10   -2.68    1.83
  -5  -6  10    4.09    1.56
   5   6 -10    0.90    1.23
  -5  -6  10   -0.06    1.36
  -5  -6  10    1.09    1.79
  -5  -6  10    1.38    1.98
  -5  -6  10    5.57    2.76
   5   6  -9    2.55    2.12
  -5  -6   9   -0.02    0.80
   5   6  -9   -0.19    1.57
  -5  -6   9    0.59    1.10
  -5  -6   9   -0.91    1.72
   5   6  -9    3.20    1.90
  -5  -6   9    0.24    1.45
   5   6  -9    1.60    1.42
  -5  -6   9    1.72    1.71
  -5  -6   9   -2.67    2.10
   5   6  -8   -0.80    1.58
  -5  -6   8    1.51    1.30
   5   6  -8   -0.21    1.79
  -5  -6   8   -0.51    1.25
  -5  -6   8   -1.17    1.45
   5   6  -8   -1.51    1.35
   5   6  -8    0.15    1.28
  -5  -6   8   -0.42    1.36
   5   6  -8    1.42    1.52
  -5  -6   8    0.08    1.71
  -5  -6   8    1.64    1.59
  -5  -6   7    0.30    1.04
   5   6  -7    1.20    1.58
  -5  -6   7   -1.25    1.47
  -5  -6   7   -1.14    1.67
   5   6  -7    0.37    1.44
   5   6  -7    5.55    1.99
  -5  -6   7   -1.73    1.19
   5   6  -7    0.70    1.20
  -5  -6   7   -1.74    1.80
  -5  -6   7    0.09    1.86
  -5  -6   6    8.42    1.87
   5   6  -6   10.27    2.32
  -5  -6   6    8.99    2.27
  -5  -6   6   10.50    2.72
   5   6  -6   11.29    2.69
   5   6  -6   10.57    2.43
  -5  -6   6    8.53    1.96
   5   6  -6    9.31    2.29
  -5  -6   6    9.34    2.74
  -5  -6   6   14.45    3.17
  -5  -6   5    2.18    1.16
   5   6  -5    2.13    1.43
  -5  -6   5    2.92    1.71
  -5  -6   5    2.70    1.48
   5   6  -5    3.35    1.96
   5   6  -5    0.25    1.31
  -5  -6   5    2.50    1.07
   5   6  -5    5.04    2.02
  -5  -6   5    2.89    1.98
  -5  -6   5    2.44    1.95
  -5  -6   4    8.96    2.01
   5   6  -4    7.53    2.21
  -5  -6   4    4.70    1.91
   5   6  -4    5.90    2.00
   5   6  -4    9.52    2.37
  -5  -6   4    9.43    1.49
   5   6  -4   14.01    2.76
  -5  -6   4    8.81    2.42
  -5  -6   4    7.49    1.19
  -5  -6   3   31.67    4.33
   5   6  -3   29.29    3.78
   5   6  -3   30.21    3.90
   5   6  -3   28.30    3.70
  -5  -6   3   29.03    3.40
  -5  -6   3   28.13    3.69
  -5  -6   3   28.26    2.21
   5   6  -3   31.57    3.85
  -5  -6   3   33.42    2.08
  -5  -6   2   17.98    2.85
   5   6  -2   17.60    2.90
  -5  -6   2   20.36    3.55
   5   6  -2   14.85    2.75
   5   6  -2   17.83    3.15
   5   6  -2   22.20    3.32
  -5  -6   2   15.44    2.73
  -5  -6   2   17.62    1.79
  -5  -6   1    3.78    1.63
   5   6  -1    1.05    1.34
  -5  -6   1    6.08    2.33
   5   6  -1    1.21    1.61
   5   6  -1    3.82    1.71
   5   6  -1    3.96    1.58
  -5  -6   1    1.43    1.36
  -5  -6   1    3.61    1.01
  -5  -6   0    4.74    1.50
   5   6   0    5.70    2.26
   5   6   0    7.04    2.29
   5   6   0   15.88    3.23
   5   6   0    7.19    2.34
  -5  -6   0    7.43    2.14
  -5  -6   0    7.42    1.47
   5   6   1    6.22    1.95
  -5  -6  -1    3.92    1.59
   5   6   1    7.64    2.73
   5   6   1    7.51    2.47
   5   6   1    6.12    2.02
  -5  -6  -1    7.57    2.39
  -5  -6  -1    6.27    1.39
   5   6   2   17.94    3.08
  -5  -6  -2   16.82    2.99
   5   6   2   20.01    3.67
   5   6   2   16.63    3.39
   5   6   2   17.46    3.33
  -5  -6  -2   22.09    2.93
  -5  -6  -2   17.52    2.30
  -5  -6  -3    4.87    1.88
   5   6   3    4.58    2.24
   5   6   3    5.88    2.24
   5   6   3    5.51    2.24
   5   6   3    2.69    1.80
  -5  -6  -4    3.05    1.69
   5   6   4    2.78    1.53
   5   6   4    0.97    1.84
   5   6   4    4.28    2.14
   5   6   4    0.76    1.16
   5   6   4    4.09    1.69
  -5  -6  -5   15.40    3.23
   5   6   5   10.35    3.14
   5   6   5   16.88    3.72
   5   6   5   12.47    3.30
   5   6   5    7.65    2.58
   5   6   5    9.33    2.21
   5   6   6    1.14    1.13
   5   6   6    9.33    3.04
  -5  -7  11    1.73    1.93
  -5  -7  10    0.09    0.93
   5   7 -10   -0.31    1.36
  -5  -7  10   -0.74    1.51
  -5  -7  10   -2.22    1.56
   5   7 -10    2.38    1.73
   5   7  -9    2.81    2.26
  -5  -7   9    0.69    1.24
   5   7  -9    3.88    2.02
  -5  -7   9   -1.14    2.20
   5   7  -9   -2.12    1.83
  -5  -7   9   -0.82    1.66
   5   7  -9    2.88    1.84
  -5  -7   9    2.37    1.93
  -5  -7   9   -4.11    2.94
   5   7  -8    0.23    1.80
  -5  -7   8    1.33    1.26
   5   7  -8   -0.49    1.65
  -5  -7   8   -0.13    1.11
  -5  -7   8   -0.39    1.25
   5   7  -8   -1.83    1.53
   5   7  -8    0.81    1.43
  -5  -7   8    2.42    1.55
   5   7  -8   -1.66    1.37
  -5  -7   8   -1.30    1.42
  -5  -7   8   -0.66    1.93
  -5  -7   7   -0.29    1.06
   5   7  -7    0.53    1.40
  -5  -7   7    5.73    1.86
  -5  -7   7   -2.61    2.04
   5   7  -7   -1.20    1.65
   5   7  -7    0.97    1.63
  -5  -7   7    1.70    1.17
   5   7  -7   -1.17    1.52
  -5  -7   7   -0.12    1.54
  -5  -7   7   -1.26    2.00
  -5  -7   6    4.20    1.63
   5   7  -6    3.25    1.43
  -5  -7   6    3.28    1.65
  -5  -7   6    2.79    2.00
   5   7  -6    7.34    2.35
   5   7  -6    3.57    1.94
  -5  -7   6    2.92    1.17
   5   7  -6    5.58    1.91
  -5  -7   6    4.96    2.27
  -5  -7   6    7.94    2.94
  -5  -7   5    4.23    1.57
   5   7  -5    1.88    1.19
  -5  -7   5    4.37    1.97
  -5  -7   5    1.56    1.41
   5   7  -5    3.36    1.62
   5   7  -5    5.64    2.11
  -5  -7   5    4.57    1.36
   5   7  -5    6.27    2.02
  -5  -7   5    3.63    2.00
  -5  -7   4   12.29    2.41
   5   7  -4    8.56    2.28
  -5  -7   4   11.98    3.01
   5   7  -4   12.15    2.70
   5   7  -4   14.57    2.99
   5   7  -4   10.70    2.65
  -5  -7   4   10.29    2.70
  -5  -7   3    0.71    1.22
   5   7  -3    0.46    1.44
  -5  -7   3   -0.90    1.63
   5   7  -3    0.35    1.43
   5   7  -3    0.18    1.53
   5   7  -3    1.97    1.71
  -5  -7   2    2.40    1.27
   5   7  -2    3.12    1.68
  -5  -7   2    9.61    2.87
   5   7  -2    0.90    1.67
   5   7  -2    2.96    1.77
   5   7  -2    3.19    1.79
  -5  -7   2    2.04    1.53
  -5  -7   1    8.59    2.35
   5   7  -1    6.41    2.17
   5   7  -1    7.96    2.31
   5   7  -1    6.71    2.41
   5   7  -1    5.03    2.26
  -5  -7   1    7.23    2.16
  -5  -7   0    9.94    2.30
   5   7   0   12.13    2.70
   5   7   0   13.45    3.06
   5   7   0   13.07    3.07
   5   7   0   12.11    2.91
  -5  -7   0   15.77    3.09
  -5  -7  -1   12.23    2.60
   5   7   1   14.53    2.84
   5   7   1   17.13    3.40
   5   7   1   12.53    2.93
   5   7   1   14.42    3.09
  -5  -7  -2    0.07    1.23
   5   7   2    1.62    1.56
   5   7   2   -0.94    1.72
   5   7   2    2.55    2.02
   5   7   2    2.39    2.03
  -5  -7  -3    6.69    2.17
   5   7   3    6.09    2.68
   5   7   3   12.40    3.12
   5   7   3    8.33    2.84
   5   7   3    6.08    2.22
   5   7   3    6.46    2.01
  -5  -7  -4    0.51    1.15
   5   7   4    1.73    1.92
   5   7   4   -0.61    1.67
   5   7   4    1.25    1.48
   5   7   4    0.94    1.44
   5   7   5    0.97    1.29
   5   7   5    3.93    2.18
   5   7   5    2.34    1.48
   5   7   6   13.80    3.08
  -5  -8  10    3.54    1.47
   5   8 -10    3.54    2.18
  -5  -8  10    0.40    1.35
   5   8 -10    1.65    1.81
  -5  -8   9    0.97    1.24
  -5  -8   9   -0.46    1.49
   5   8  -9    1.28    1.57
  -5  -8   9   -0.86    1.66
   5   8  -9    1.39    1.45
   5   8  -8   -0.20    1.61
  -5  -8   8    1.90    1.53
   5   8  -8    2.80    1.67
  -5  -8   8    7.18    2.86
   5   8  -8    2.15    1.87
   5   8  -8    4.47    2.37
  -5  -8   8    3.19    1.49
   5   8  -8    7.84    2.42
  -5  -8   8    4.59    2.54
  -5  -8   8    4.18    2.63
   5   8  -7   -1.89    2.14
  -5  -8   7   -0.38    1.25
   5   8  -7   -1.27    1.50
  -5  -8   7    3.70    1.85
  -5  -8   7   -1.21    2.02
   5   8  -7   -0.72    1.72
  -5  -8   7    1.34    1.14
   5   8  -7   -0.52    1.48
   5   8  -7    0.36    1.44
  -5  -8   7   -0.03    1.43
  -5  -8   7    2.04    2.22
  -5  -8   6    8.11    2.17
   5   8  -6    7.56    2.48
  -5  -8   6   11.41    2.44
  -5  -8   6    3.89    3.32
   5   8  -6    8.55    2.51
   5   8  -6    9.23    2.75
   5   8  -6    6.94    2.38
  -5  -8   6   11.35    3.00
  -5  -8   6   11.98    3.52
  -5  -8   5    2.38    1.56
   5   8  -5    2.58    1.50
  -5  -8   5    2.01    1.61
  -5  -8   5   -0.55    1.69
   5   8  -5    1.51    1.58
   5   8  -5    0.25    1.55
   5   8  -5    3.02    1.71
  -5  -8   5    2.49    1.83
  -5  -8   4    2.42    1.40
   5   8  -4    0.98    1.74
  -5  -8   4    2.60    2.20
   5   8  -4    5.64    2.46
   5   8  -4    1.94    1.61
   5   8  -4    5.73    2.47
  -5  -8   4    5.21    2.21
  -5  -8   3   -0.92    1.05
   5   8  -3   -0.30    1.24
  -5  -8   3    0.02    1.56
   5   8  -3    2.89    2.05
   5   8  -3    0.55    1.50
   5   8  -3    1.13    1.45
  -5  -8   3   -2.21    2.06
  -5  -8   2    1.64    1.45
   5   8  -2    1.04    1.42
  -5  -8   2    6.12    2.58
   5   8  -2   -2.40    1.95
   5   8  -2   -0.45    1.54
   5   8  -2    3.38    1.72
  -5  -8   2    4.92    2.46
   5   8  -1   43.20    5.15
   5   8  -1   45.50    5.33
   5   8  -1   42.79    5.04
  -5  -8   1   49.34    5.03
  -5  -8   1   49.49    5.56
   5   8  -1   43.19    4.92
  -5  -8   0    3.37    1.51
   5   8   0    2.41    2.31
   5   8   0    5.44    2.47
   5   8   0    6.38    2.56
   5   8   0    4.64    2.11
  -5  -8  -1    3.52    1.76
   5   8   1   -0.05    1.34
   5   8   1   -0.80    1.55
   5   8   1    1.56    1.75
   5   8   1   -1.03    1.82
  -5  -8  -2    0.47    1.27
   5   8   2    0.52    1.46
   5   8   2    1.48    1.80
   5   8   2    2.29    2.14
   5   8   2   -3.16    2.32
   5   8   3    3.18    1.95
   5   8   3    3.44    1.42
   5   8   4   -0.67    1.58
   5   8   4    0.57    1.98
  -5  -9   9    8.58    2.41
   5   9  -9    3.60    2.00
   5   9  -9    8.92    2.90
  -5  -9   8    3.67    2.00
   5   9  -8    0.82    2.09
   5   9  -8    3.52    2.29
   5   9  -8    2.29    2.04
  -5  -9   7    6.23    2.09
  -5  -9   7   12.80    3.56
   5   9  -7    8.21    2.88
   5   9  -7    6.93    2.62
   5   9  -7    5.05    2.05
  -5  -9   7   10.80    3.17
  -5  -9   7   10.05    3.25
  -5  -9   6    2.40    1.46
   5   9  -6    1.42    1.54
  -5  -9   6    0.31    1.79
   5   9  -6    1.95    1.99
   5   9  -6    4.48    2.31
   5   9  -6    0.70    1.81
  -5  -9   6    1.70    1.57
  -5  -9   5    9.38    2.26
   5   9  -5    3.63    1.97
  -5  -9   5    3.37    2.32
   5   9  -5    2.75    2.20
   5   9  -5    6.78    2.62
   5   9  -5    4.00    2.08
  -5  -9   5    3.15    1.72
  -5  -9   4    5.99    2.04
   5   9  -4    2.38    1.48
  -5  -9   4   10.29    3.33
   5   9  -4    7.76    2.84
   5   9  -4    3.54    2.02
   5   9  -4    5.35    2.13
  -5  -9   4    6.65    2.39
  -5  -9   3    7.57    2.24
   5   9  -3    5.86    2.22
  -5  -9   3    9.14    3.16
   5   9  -3    1.97    1.71
   5   9  -3    8.36    2.48
   5   9  -3    3.46    2.03
  -5  -9   3    8.69    2.82
  -5  -9   2   -0.13    1.46
   5   9  -2    0.92    1.57
  -5  -9   2    7.07    3.26
   5   9  -2   -0.51    2.31
   5   9  -2   -0.84    2.24
   5   9  -2    0.74    2.11
  -5  -9   2   -0.08    1.61
  -5  -9   1    5.14    1.92
   5   9  -1    3.86    1.94
   5   9  -1    0.10    1.81
   5   9  -1    2.58    1.92
   5   9  -1    2.59    2.08
  -5  -9   1    4.74    2.49
  -5  -9   0    2.54    1.77
   5   9   0    3.77    2.38
   5   9   0    2.83    2.43
   5   9   0    0.96    1.63
   5   9   0    0.65    1.71
   5   9   1    2.39    1.66
   5   9   3   -2.93    1.47
  -5 -10   5   32.10    5.10
  -5 -10   4   -4.14    2.59
  -5 -10   3    0.33    1.83
  -5 -10   2    3.34    2.73
  -5 -10   1   11.35    4.03
   6  -9  -2    9.47    2.75
  -6   9   2   10.28    2.71
   6  -9  -1    3.48    2.21
  -6   9   1    2.27    1.43
   6  -9   0    2.82    1.71
  -6   9   0    0.34    1.33
  -6   9  -1   -1.03    1.39
   6  -9   1   -1.14    1.97
  -6   9  -1   -2.13    1.50
   6  -9   2   -0.30    1.36
   6  -9   2    1.38    1.80
  -6   9  -2   -0.81    1.34
  -6   9  -2   -1.31    1.85
   6  -9   3    2.59    2.03
  -6   9  -3    1.87    1.69
   6  -8  -5    4.91    1.73
   6  -8  -4    9.59    2.65
  -6   8   4   13.32    3.03
  -6   8   3   13.20    3.06
   6  -8  -3   15.53    3.12
   6  -8  -3   14.87    3.13
  -6   8   3   13.18    2.88
  -6   8   2    7.66    2.62
   6  -8  -2   12.65    2.91
   6  -8  -2    8.01    2.40
  -6   8   2    5.33    1.85
  -6   8   1   15.21    3.53
   6  -8  -1   13.35    2.92
   6  -8  -1    9.86    2.58
  -6   8   1   16.78    3.15
   6  -8   0   -1.21    1.61
  -6   8   0    0.14    1.63
   6  -8   0    0.53    1.28
   6  -8   0    1.37    1.18
  -6   8   0    1.67    1.06
   6  -8   0    1.43    1.43
  -6   8   0   -3.28    1.97
   6  -8   1   14.77    3.02
  -6   8  -1   11.10    2.78
   6  -8   1   13.99    3.03
  -6   8  -1   14.51    2.91
   6  -8   1   12.19    2.70
   6  -8   1   14.31    3.14
  -6   8  -1    8.34    2.31
   6  -8   2    6.43    2.46
  -6   8  -2    8.09    2.62
   6  -8   2    5.88    2.22
  -6   8  -2    8.33    2.31
   6  -8   2    6.78    2.12
   6  -8   2    6.69    2.34
  -6   8  -2   10.31    2.67
   6  -8   3    1.57    1.75
  -6   8  -3   -2.06    1.71
   6  -8   3    0.84    1.20
  -6   8  -3   -0.28    1.18
   6  -8   3    0.72    1.88
   6  -8   3   -0.93    1.84
  -6   8  -3   -1.18    1.49
   6  -8   4    9.08    3.03
  -6   8  -4   10.69    2.90
  -6   8  -4    7.51    2.46
   6  -8   4   11.21    2.98
  -6   8  -4   10.54    2.95
   6  -7  -8    1.86    1.60
   6  -7  -7    2.73    1.92
   6  -7  -6    2.74    1.76
   6  -7  -6    4.32    2.38
  -6   7   6    2.08    1.57
  -6   7   5   19.79    3.74
   6  -7  -5   22.69    3.68
   6  -7  -5   17.37    3.76
  -6   7   5   10.44    2.81
  -6   7   4    4.87    2.00
   6  -7  -4    4.66    1.88
   6  -7  -4    5.84    1.97
  -6   7   4    5.11    1.90
  -6   7   3    5.18    2.21
   6  -7  -3    3.69    1.75
   6  -7  -3    4.34    1.79
  -6   7   3    5.67    1.97
  -6   7   2   -0.06    1.47
   6  -7  -2    3.23    1.69
   6  -7  -2    1.42    1.22
  -6   7   2    1.94    1.53
   6  -7  -1   -1.59    1.26
  -6   7   1    2.64    1.91
   6  -7  -1    0.67    1.42
   6  -7  -1   -0.27    1.30
  -6   7   1    2.01    1.14
   6  -7  -1    1.66    1.50
  -6   7   1    0.77    1.36
   6  -7   0    7.22    2.10
  -6   7   0    5.13    2.18
   6  -7   0    7.67    2.55
  -6   7   0    6.18    1.73
   6  -7   0    7.14    1.94
   6  -7   0    6.19    1.98
  -6   7   0    4.18    1.93
  -6   7  -1    0.77    1.24
   6  -7   1    0.02    1.67
  -6   7  -1    1.01    1.42
   6  -7   1    0.66    1.11
  -6   7  -1    1.24    1.06
   6  -7   1   -0.82    1.67
   6  -7   1    1.04    1.34
  -6   7  -1    5.32    2.13
  -6   7  -2    0.30    1.17
   6  -7   2    0.18    1.44
  -6   7  -2    2.33    1.88
   6  -7   2    1.21    1.47
  -6   7  -2    0.08    1.21
   6  -7   2    2.41    1.65
   6  -7   2    2.77    1.70
  -6   7  -2    1.01    1.46
  -6   7  -3   -0.94    1.26
   6  -7   3    1.25    1.71
  -6   7  -3   -3.27    1.75
   6  -7   3    1.45    1.60
  -6   7  -3    0.79    1.25
   6  -7   3    0.59    1.40
   6  -7   3    1.71    1.87
  -6   7  -3   -1.87    1.44
   6  -7   4    6.30    2.71
  -6   7  -4    1.71    1.68
   6  -7   4    4.90    1.94
  -6   7  -4    3.88    2.09
   6  -7   4    9.44    2.90
   6  -7   4    7.34    2.44
  -6   7  -4    2.12    1.59
   6  -7   5    1.84    1.95
  -6   7  -5   -0.04    1.52
   6  -7   5   -1.70    1.74
  -6   7  -5   -1.78    1.15
   6  -7   5    2.12    1.77
  -6   7  -5   -0.50    1.71
  -6   7  -6    5.38    2.19
   6  -6  -8   -0.90    1.54
  -6   6   7    6.14    2.57
   6  -6  -7    3.86    1.80
   6  -6  -7   11.40    3.46
  -6   6   7    9.80    2.84
  -6   6   6    2.97    2.05
   6  -6  -6    0.93    1.39
   6  -6  -6    1.68    1.57
  -6   6   6    0.00    1.30
  -6   6   5   -1.31    1.35
   6  -6  -5    1.83    1.58
   6  -6  -5    3.56    1.56
   6  -6  -5   -0.13    0.98
  -6   6   5    1.18    1.58
  -6   6   4   -1.66    1.50
   6  -6  -4    2.59    1.61
   6  -6  -4    2.24    1.53
   6  -6  -4    4.35    1.76
  -6   6   4   -0.37    1.40
  -6   6   3    4.15    2.02
   6  -6  -3    6.23    2.12
   6  -6  -3    4.36    1.88
  -6   6   3    3.82    1.57
   6  -6  -2    1.12    0.98
  -6   6   2    2.98    2.04
   6  -6  -2   -0.04    1.24
  -6   6   2    0.58    0.77
   6  -6  -2   -0.32    0.87
   6  -6  -2   -0.18    1.29
  -6   6   2   -0.21    1.25
  -6   6   1    0.79    1.47
   6  -6  -1    2.94    1.40
   6  -6  -1    3.99    1.72
  -6   6   1    3.23    1.66
  -6   6   1    2.92    1.20
   6  -6  -1    3.46    1.46
   6  -6  -1    2.84    1.42
  -6   6   1    2.85    1.61
  -6   6   0   -0.01    1.45
   6  -6   0    2.67    1.50
   6  -6   0    2.09    1.29
  -6   6   0    2.29    1.69
  -6   6   0    1.02    0.88
   6  -6   0    1.04    1.12
   6  -6   0    1.76    1.35
  -6   6   0   -0.99    1.46
  -6   6  -1    4.04    1.87
   6  -6   1    2.63    1.58
  -6   6  -1    2.00    1.66
  -6   6  -1    1.91    1.31
   6  -6   1    5.47    1.79
   6  -6   1    1.35    1.36
  -6   6  -1    2.55    1.57
  -6   6  -2   12.73    2.45
   6  -6   2   15.19    2.97
  -6   6  -2   12.76    2.89
  -6   6  -2   13.05    2.62
   6  -6   2   13.74    2.77
   6  -6   2   14.36    3.03
  -6   6  -2   16.39    3.11
  -6   6  -3   18.06    2.92
   6  -6   3    9.79    2.58
  -6   6  -3   12.35    2.79
  -6   6  -3    9.14    2.53
   6  -6   3   16.61    3.10
   6  -6   3   12.14    2.90
  -6   6  -3    8.87    2.46
  -6   6  -4    4.40    1.65
   6  -6   4    5.55    2.42
  -6   6  -4    3.67    1.59
  -6   6  -4    4.48    1.90
   6  -6   4    3.88    1.82
   6  -6   4    7.38    2.42
  -6   6  -4    2.15    1.22
   6  -6   5    1.81    1.87
  -6   6  -5   -0.08    1.49
  -6   6  -5   -0.23    1.44
   6  -6   5    1.07    1.67
  -6   6  -5    4.00    1.81
   6  -6   6   -2.15    2.31
  -6   6  -6   -0.43    1.20
  -6   6  -6   -0.34    1.64
   6  -6   6   -0.95    2.05
  -6   6  -7    2.96    1.99
   6  -5  -8    1.05    1.33
   6  -5  -8    2.16    1.94
  -6   5   7    0.11    1.56
   6  -5  -7    1.08    1.12
   6  -5  -7    1.33    2.08
  -6   5   7    1.93    1.53
   6  -5  -6    1.08    1.38
  -6   5   6    1.60    1.36
   6  -5  -6    1.37    1.69
   6  -5  -6   -0.74    0.99
  -6   5   6   -0.33    1.45
   6  -5  -5    0.21    1.21
  -6   5   5    1.98    1.64
   6  -5  -5   -1.10    1.41
   6  -5  -5    0.83    1.09
  -6   5   5    0.77    1.36
   6  -5  -4    2.95    1.67
  -6   5   4   -1.45    1.51
   6  -5  -4    0.43    1.45
   6  -5  -4    0.97    1.05
  -6   5   4    0.35    1.25
  -6   5   3   -0.66    1.84
   6  -5  -3   -0.17    1.05
  -6   5   3   -0.91    1.46
   6  -5  -3    2.65    1.66
   6  -5  -3   -1.30    1.33
  -6   5   3   -0.12    1.42
  -6   5   2    0.64    1.38
   6  -5  -2   -0.75    1.05
  -6   5   2    0.35    1.25
   6  -5  -2   -0.29    1.19
  -6   5   2   -0.35    0.74
   6  -5  -2    1.13    0.90
   6  -5  -2   -1.27    1.27
  -6   5   2    1.62    1.66
  -6   5   1   10.10    2.52
   6  -5  -1    9.87    2.04
  -6   5   1   13.05    2.83
   6  -5  -1    8.14    1.90
  -6   5   1   10.26    1.94
   6  -5  -1    9.27    1.89
   6  -5  -1   11.00    2.59
  -6   5   1    9.63    2.15
  -6   5   0    0.71    1.32
   6  -5   0    1.39    1.47
  -6   5   0    0.91    1.66
  -6   5   0    0.79    1.09
   6  -5   0    1.04    1.05
   6  -5   0    0.07    1.25
  -6   5   0   -0.31    1.49
  -6   5  -1   -0.89    1.56
   6  -5   1   -0.46    1.32
  -6   5  -1    1.98    1.62
  -6   5  -1   -0.59    1.29
   6  -5   1   -0.75    1.10
   6  -5   1   -0.30    1.09
   6  -5   1    0.30    1.24
  -6   5  -1    0.57    1.19
  -6   5  -2   16.39    2.96
   6  -5   2   17.13    3.02
  -6   5  -2   15.88    2.92
  -6   5  -2   14.08    2.52
   6  -5   2   17.48    3.17
   6  -5   2   15.29    3.02
  -6   5  -2   18.32    3.22
  -6   5  -3   19.71    3.01
   6  -5   3   20.06    3.36
  -6   5  -3   12.87    2.54
  -6   5  -3   16.17    2.83
   6  -5   3   16.22    3.27
   6  -5   3   15.82    3.06
  -6   5  -3   20.19    3.48
  -6   5  -4   -0.23    1.67
   6  -5   4    0.70    1.56
  -6   5  -4   -1.36    1.50
  -6   5  -4    1.00    1.25
   6  -5   4    0.83    1.37
   6  -5   4   -0.41    1.53
  -6   5  -4    2.70    1.89
  -6   5  -5   -0.15    1.26
   6  -5   5   -0.03    1.62
  -6   5  -5    1.83    1.66
  -6   5  -5    0.49    1.30
   6  -5   5   -0.22    1.31
   6  -5   5   -1.57    1.71
  -6   5  -5   -1.40    1.61
   6  -5   6    6.78    2.79
  -6   5  -6    7.76    2.25
  -6   5  -6    7.15    2.24
   6  -5   6    9.01    2.72
   6  -5   6    8.86    2.68
  -6   5  -6    7.95    2.39
  -6   5  -7    4.51    1.74
   6  -4  -9   22.68    4.11
   6  -4  -8    2.96    1.33
   6  -4  -8   -1.29    1.66
  -6   4   8    3.81    2.11
   6  -4  -7   29.40    3.65
  -6   4   7   31.78    4.61
   6  -4  -7   33.08    4.53
  -6   4   7   34.22    4.49
   6  -4  -6    0.97    1.20
  -6   4   6    2.83    1.62
   6  -4  -6   -0.47    1.51
   6  -4  -6    0.89    0.99
  -6   4   6    2.54    1.59
   6  -4  -5    7.13    2.20
  -6   4   5    6.71    2.30
   6  -4  -5    9.02    2.59
   6  -4  -5    6.41    1.71
  -6   4   5    7.56    2.11
  -6   4   4    3.25    1.99
   6  -4  -4    3.02    1.30
  -6   4   4    3.01    1.60
   6  -4  -4   -0.01    1.27
   6  -4  -4    4.51    1.69
  -6   4   4    1.77    1.21
  -6   4   3   10.23    2.56
   6  -4  -3   11.69    1.68
  -6   4   3    9.24    2.45
   6  -4  -3   10.31    1.57
   6  -4  -3    7.66    1.92
  -6   4   3   10.78    1.61
   6  -4  -3   12.31    1.68
   6  -4  -3   12.15    2.43
  -6   4   3   11.19    2.65
  -6   4   2   16.30    3.17
   6  -4  -2   17.96    2.31
   6  -4  -2   19.32    2.37
  -6   4   2   14.71    2.64
   6  -4  -2   17.92    2.18
   6  -4  -2   16.00    2.54
   6  -4  -2   17.40    2.71
  -6   4   2   15.47    2.84
  -6   4   2   16.61    2.20
  -6   4   1   56.72    5.21
   6  -4  -1   53.12    4.14
  -6   4   1   48.35    4.63
   6  -4  -1   56.55    4.14
   6  -4  -1   49.74    3.99
   6  -4  -1   51.24    3.98
   6  -4  -1   52.78    4.76
  -6   4   1   52.70    4.96
  -6   4   1   49.31    3.91
  -6   4   0    1.85    1.64
   6  -4   0    0.71    1.09
  -6   4   0   -0.39    1.18
  -6   4   0   -1.00    1.07
   6  -4   0   -0.71    1.10
   6  -4   0   -0.31    1.24
   6  -4   0    2.27    1.47
  -6   4   0   -0.17    1.24
  -6   4  -1    9.97    2.33
   6  -4   1    6.42    1.87
  -6   4  -1    5.29    1.82
  -6   4  -1    9.82    2.16
   6  -4   1    9.50    2.13
   6  -4   1   10.01    2.34
  -6   4  -1   10.45    2.63
  -6   4  -2   -0.90    1.57
   6  -4   2   -1.18    1.93
  -6   4  -2    0.46    1.11
   6  -4   2   -0.09    1.25
   6  -4   2    0.06    1.10
  -6   4  -2    1.20    1.54
  -6   4  -3   -0.27    1.32
   6  -4   3    2.33    1.73
  -6   4  -3    3.43    1.57
  -6   4  -3    1.09    1.20
   6  -4   3    1.51    1.53
   6  -4   3    1.74    1.04
  -6   4  -3    0.20    1.35
  -6   4  -4    1.15    1.64
   6  -4   4    2.36    1.69
  -6   4  -4   -0.01    1.01
  -6   4  -4    1.79    1.49
   6  -4   4   -0.54    1.58
   6  -4   4   -0.61    1.23
  -6   4  -4   -0.85    1.50
  -6   4  -5    1.78    1.57
   6  -4   5    5.57    2.55
  -6   4  -5   -0.71    1.14
  -6   4  -5   -0.87    1.46
   6  -4   5   -1.66    1.87
   6  -4   5    0.98    1.23
  -6   4  -5    4.75    2.02
  -6   4  -6   22.11    3.35
   6  -4   6   20.51    3.96
  -6   4  -6   17.12    2.81
  -6   4  -6   16.66    3.19
   6  -4   6   18.89    3.68
   6  -4   6   17.76    3.58
  -6   4  -6   18.70    3.43
   6  -4   7    3.12    1.90
   6  -3  -9    6.92    2.59
   6  -3  -8   12.84    2.27
   6  -3  -8    8.54    2.57
  -6   3   8   13.52    3.02
   6  -3  -7    8.64    1.95
   6  -3  -7   10.05    2.70
   6  -3  -7   10.66    1.95
  -6   3   7   11.30    2.61
  -6   3   6   -0.57    1.58
   6  -3  -6   -0.14    1.21
  -6   3   6   -1.30    1.66
   6  -3  -6    1.01    1.52
   6  -3  -6    1.39    1.10
  -6   3   6   -0.19    1.28
  -6   3   5   -1.57    1.97
  -6   3   5    0.25    1.49
   6  -3  -5    2.20    1.55
   6  -3  -5    0.20    0.98
  -6   3   5   -2.26    1.33
  -6   3   4   31.22    4.15
  -6   3   4   36.25    4.02
   6  -3  -4   34.35    2.17
  -6   3   4   31.33    3.97
   6  -3  -4   32.44    2.16
   6  -3  -4   29.92    3.77
   6  -3  -4   34.34    2.15
   6  -3  -4   29.63    3.25
  -6   3   4   36.96    4.21
  -6   3   4   31.91    2.32
  -6   3   3   83.74    6.36
  -6   3   3   73.63    5.32
   6  -3  -3   74.63    3.96
  -6   3   3   74.35    5.72
   6  -3  -3   80.12    4.13
   6  -3  -3   72.29    5.32
   6  -3  -3   79.82    4.08
   6  -3  -3   72.46    5.20
  -6   3   3   69.80    5.52
   6  -3  -3   80.88    5.00
  -6   3   3   69.53    3.92
  -6   3   2   59.52    5.42
   6  -3  -2   53.97    4.01
  -6   3   2   51.43    4.22
   6  -3  -2   47.34    3.62
  -6   3   2   52.01    4.72
   6  -3  -2   52.30    3.78
   6  -3  -2   46.30    4.02
   6  -3  -2   50.10    3.62
   6  -3  -2   46.65    4.33
   6  -3  -2   49.45    3.30
   6  -3  -2   47.12    3.94
  -6   3   2   44.07    4.43
  -6   3   2   47.84    3.51
   6  -3  -2   49.15    3.56
  -6   3   2   47.98    3.60
   6  -3  -1   13.40    1.80
  -6   3   1   12.27    2.02
  -6   3   1   13.31    2.84
   6  -3  -1   16.47    2.45
  -6   3   1   11.60    2.03
   6  -3  -1   10.94    2.16
  -6   3   1   11.90    2.40
   6  -3  -1   12.98    2.17
   6  -3  -1   14.02    2.10
   6  -3  -1   10.85    1.98
   6  -3  -1   11.01    2.23
   6  -3  -1   10.15    1.78
  -6   3   1   13.15    2.22
  -6   3   1   13.48    2.66
  -6   3   0   99.07    6.67
  -6   3   0   75.37    4.44
   6  -3   0   81.37    5.44
  -6   3   0   84.96    5.66
   6  -3   0   79.49    5.31
   6  -3   0   82.47    4.53
   6  -3   0   88.11    5.48
   6  -3   0   76.37    5.75
  -6   3   0   87.50    6.26
  -6   3   0   77.08    4.98
  -6   3  -1   47.02    4.67
   6  -3   1   40.35    4.12
  -6   3  -1   43.13    4.09
   6  -3   1   46.64    4.36
   6  -3   1   46.95    3.00
   6  -3   1   40.28    3.97
   6  -3   1   44.01    4.49
  -6   3  -1   40.85    4.41
  -6   3  -1   42.24    4.02
  -6   3  -2   -0.06    1.55
   6  -3   2    3.10    1.55
  -6   3  -2    3.03    1.48
  -6   3  -2    2.26    1.47
   6  -3   2    4.68    1.94
   6  -3   2    3.00    1.77
   6  -3   2    0.84    1.73
  -6   3  -2    1.41    1.42
  -6   3  -3    7.83    2.31
   6  -3   3   10.06    2.57
  -6   3  -3    6.17    1.67
  -6   3  -3    7.31    1.96
   6  -3   3    4.64    2.06
   6  -3   3    5.37    1.94
   6  -3   3    8.01    2.37
  -6   3  -3    7.14    2.07
  -6   3  -4    5.13    1.86
   6  -3   4    7.57    2.26
  -6   3  -4    4.81    1.44
  -6   3  -4    6.17    2.01
   6  -3   4    5.86    2.25
   6  -3   4    8.10    2.47
   6  -3   4    9.52    2.51
  -6   3  -4    5.90    2.12
  -6   3  -5    1.43    1.73
   6  -3   5    0.33    1.60
  -6   3  -5   -0.64    1.10
  -6   3  -5    4.24    1.94
   6  -3   5   -0.61    1.80
   6  -3   5    0.90    1.53
   6  -3   5   -2.25    1.40
  -6   3  -5    2.16    1.73
  -6   3  -6    1.00    1.54
   6  -3   6    2.41    2.04
  -6   3  -6    2.15    1.69
   6  -3   6   -1.31    2.22
   6  -3   6   -1.40    1.97
   6  -3   6    2.87    1.67
  -6   3  -6   -1.15    1.69
  -6   3  -7    1.44    1.46
   6  -3   7    1.19    1.43
   6  -2 -10    1.65    1.20
   6  -2  -9    1.91    1.63
   6  -2  -8   20.34    2.70
  -6   2   8   21.90    3.74
   6  -2  -8   14.30    3.31
   6  -2  -8   19.97    2.58
  -6   2   8   19.12    3.43
   6  -2  -7    5.62    1.36
   6  -2  -7    5.86    1.40
  -6   2   7    7.01    2.19
   6  -2  -7    5.31    1.44
   6  -2  -7    5.58    2.73
   6  -2  -7    3.50    1.35
  -6   2   7    5.56    1.94
   6  -2  -6    0.93    0.57
  -6   2   6    1.01    1.66
   6  -2  -6    1.06    0.87
  -6   2   6    0.57    1.15
   6  -2  -6    4.75    1.99
   6  -2  -6    0.20    0.92
  -6   2   6    3.98    2.20
  -6   2   5   -0.59    1.70
   6  -2  -5    1.04    0.93
  -6   2   5   -0.89    1.16
  -6   2   5    0.34    1.26
  -6   2   5    0.02    0.35
   6  -2  -5    1.31    1.71
   6  -2  -5    2.14    1.32
  -6   2   5    0.39    1.40
  -6   2   4    3.74    1.32
  -6   2   4    3.61    1.92
   6  -2  -4    5.20    1.33
  -6   2   4    3.99    1.59
   6  -2  -4    2.57    0.80
  -6   2   4    2.29    1.34
   6  -2  -4    4.43    0.97
  -6   2   4    4.49    1.02
   6  -2  -4    3.07    1.56
   6  -2  -4    4.60    1.03
   6  -2  -4    5.37    1.69
  -6   2   4    5.65    1.83
   6  -2  -4    7.95    1.75
   6  -2  -3   10.50    1.82
   6  -2  -3   13.36    2.05
  -6   2   3   14.37    2.09
   6  -2  -3   11.55    1.54
  -6   2   3   15.60    3.07
   6  -2  -3   11.81    1.77
  -6   2   3   13.37    2.49
   6  -2  -3   12.46    1.79
  -6   2   3    9.24    2.18
   6  -2  -3    9.98    1.66
   6  -2  -3   13.94    2.47
  -6   2   3   15.40    2.01
   6  -2  -3   12.21    1.70
   6  -2  -3   11.38    2.21
  -6   2   3   12.84    1.72
  -6   2   3    9.61    2.20
   6  -2  -2   -1.41    1.01
  -6   2   2    0.26    0.83
   6  -2  -2    0.68    0.75
  -6   2   2   -0.13    1.46
   6  -2  -2   -0.31    1.02
  -6   2   2    1.26    1.21
   6  -2  -2   -0.62    0.96
  -6   2   2    0.07    0.78
  -6   2   2    0.28    1.22
   6  -2  -2   -0.47    1.09
   6  -2  -2   -0.52    1.12
   6  -2  -2    0.23    0.94
  -6   2   2    0.25    0.73
   6  -2  -2   -0.25    1.16
   6  -2  -2    0.60    0.79
  -6   2   2   -0.91    1.25
  -6   2   1    5.80    2.14
   6  -2  -1    6.98    1.74
  -6   2   1    6.73    1.70
   6  -2  -1    4.63    1.51
  -6   2   1    4.59    1.37
  -6   2   1    4.80    1.49
   6  -2  -1   16.88    2.08
   6  -2  -1    6.13    1.69
   6  -2  -1    5.69    1.44
   6  -2  -1    4.52    1.48
   6  -2  -1    4.86    1.25
  -6   2   1    5.64    1.33
   6  -2  -1    5.18    1.79
  -6   2   1    4.79    1.74
   6  -2   0  135.57    6.02
  -6   2   0  154.31    8.26
  -6   2   0  136.42    6.04
   6  -2   0  144.22    7.21
  -6   2   0  135.01    6.68
   6  -2   0  139.46    7.03
   6  -2   0  136.54    5.35
   6  -2   0  139.63    6.94
   6  -2   0  129.77    7.36
  -6   2   0  146.63    8.01
  -6   2   0  132.45    6.46
  -6   2  -1    4.27    1.75
  -6   2  -1    3.50    1.18
   6  -2   1    0.90    1.42
  -6   2  -1    2.56    1.43
  -6   2  -1    3.26    1.60
   6  -2   1    2.52    1.52
   6  -2   1    2.83    0.75
   6  -2   1    2.26    1.53
   6  -2   1    1.48    1.17
   6  -2   1    1.91    1.03
  -6   2  -1    2.19    1.43
  -6   2  -2  104.96    7.07
  -6   2  -2   91.50    4.13
   6  -2   2   90.03    6.39
  -6   2  -2   89.20    5.19
   6  -2   2   99.09    6.62
   6  -2   2   94.54    6.37
   6  -2   2   86.04    6.24
  -6   2  -2   87.80    6.40
  -6   2  -2   87.35    5.81
  -6   2  -3    3.46    1.90
   6  -2   3    2.98    1.90
  -6   2  -3    3.62    1.15
  -6   2  -3    3.27    1.61
   6  -2   3    0.72    1.55
   6  -2   3    0.94    1.64
   6  -2   3    2.61    1.43
  -6   2  -3    3.03    1.90
  -6   2  -4    1.77    1.67
   6  -2   4    3.86    2.15
  -6   2  -4    2.66    0.91
  -6   2  -4    4.97    1.81
   6  -2   4    2.21    1.47
   6  -2   4    2.87    1.60
   6  -2   4    5.89    2.28
  -6   2  -4    3.36    1.52
   6  -2   5    0.11    1.67
  -6   2  -5   -0.04    0.73
  -6   2  -5    4.47    2.14
   6  -2   5    0.57    1.60
   6  -2   5    2.82    1.96
   6  -2   5    0.53    1.42
  -6   2  -5    2.39    1.41
   6  -2   6    1.78    2.28
  -6   2  -6    1.38    1.33
   6  -2   6   -1.85    1.88
   6  -2   6    4.07    2.02
   6  -2   7    3.30    2.37
  -6   2  -7    4.62    2.10
   6  -2   7    8.63    2.97
   6  -2   7    2.23    2.04
   6  -2   7    2.00    1.43
   6  -2   8    1.37    1.75
  -6   1  10    0.27    1.43
   6  -1 -10    0.33    1.25
  -6   1   9    2.91    1.89
   6  -1  -9    3.37    2.04
  -6   1   9    0.97    1.80
   6  -1  -8   -0.32    0.86
  -6   1   8   -0.35    1.69
   6  -1  -8   -1.00    0.88
   6  -1  -8    2.11    1.73
   6  -1  -8    1.11    1.06
  -6   1   8    1.30    1.72
  -6   1   8   -0.79    1.42
   6  -1  -7    9.84    1.81
  -6   1   7   10.42    2.52
   6  -1  -7    7.15    1.67
  -6   1   7    7.15    2.00
   6  -1  -7   10.09    2.61
   6  -1  -7    9.38    1.94
  -6   1   7    8.66    2.41
  -6   1   7    6.52    2.07
  -6   1   6    3.54    1.70
   6  -1  -6    1.96    0.95
  -6   1   6    5.32    2.04
   6  -1  -6    4.94    1.81
   6  -1  -6    5.18    1.56
  -6   1   6    4.19    1.74
  -6   1   6    4.76    1.69
  -6   1   5   23.97    3.57
   6  -1  -5   16.63    2.22
   6  -1  -5   17.88    1.48
  -6   1   5   18.51    2.99
   6  -1  -5   17.93    1.55
   6  -1  -5   17.90    1.54
   6  -1  -5   15.50    2.78
   6  -1  -5   16.14    2.64
  -6   1   5   17.36    1.62
  -6   1   5   13.42    2.51
  -6   1   5   20.71    3.02
  -6   1   5   33.10    3.04
   6  -1  -4    1.25    0.79
  -6   1   4    2.81    1.33
  -6   1   4    2.79    1.63
   6  -1  -4    1.01    1.16
  -6   1   4    3.03    1.59
   6  -1  -4    2.59    0.96
  -6   1   4    1.72    0.68
   6  -1  -4    0.99    0.83
  -6   1   4    2.58    1.44
   6  -1  -4    1.61    1.16
   6  -1  -4    1.70    0.75
  -6   1   4    2.76    0.93
   6  -1  -4    1.88    1.35
  -6   1   4    5.13    1.57
  -6   1   4    1.62    1.38
   6  -1  -3   -0.35    0.63
  -6   1   3    1.26    1.88
   6  -1  -3   -1.02    0.97
   6  -1  -3   -0.21    0.86
  -6   1   3    1.72    1.49
   6  -1  -3   -0.36    0.90
  -6   1   3   -0.04    0.64
  -6   1   3   -0.74    1.21
   6  -1  -3    0.89    0.87
   6  -1  -3   -0.42    0.93
   6  -1  -3   -0.83    1.29
   6  -1  -3   -0.41    0.77
  -6   1   3   -0.34    0.74
   6  -1  -3   -1.51    1.36
   6  -1  -3   -0.20    0.88
  -6   1   3    0.48    0.93
  -6   1   3   -0.37    1.25
   6  -1  -3   -0.43    0.96
   6  -1  -2  108.20    5.74
  -6   1   2  128.46    7.58
   6  -1  -2  114.66    6.10
  -6   1   2  108.06    6.09
   6  -1  -2  115.45    5.81
  -6   1   2  109.15    5.93
   6  -1  -2  119.58    5.93
   6  -1  -2  118.91    5.97
   6  -1  -2  112.11    5.57
  -6   1   2  112.22    5.84
   6  -1  -2  104.96    6.39
   6  -1  -2  115.58    5.81
  -6   1   2  110.84    6.71
  -6   1   2  110.62    5.26
   6  -1  -2  112.72    6.10
   6  -1  -2  109.93    5.29
  -6   1   1   68.23    5.59
  -6   1   1   55.02    4.22
   6  -1  -1   60.08    4.54
  -6   1   1   56.56    4.13
   6  -1  -1   60.64    4.52
   6  -1  -1   57.22    4.35
   6  -1  -1   59.24    4.88
  -6   1   1   56.57    4.94
  -6   1   1   57.38    4.14
   6  -1  -1   53.74    3.54
  -6   1   0    3.65    1.94
   6  -1   0    1.27    0.78
  -6   1   0   -0.10    0.97
   6  -1   0   -0.31    1.29
  -6   1   0    0.08    0.96
  -6   1   0    1.85    1.02
   6  -1   0    1.37    1.40
   6  -1   0    0.33    1.15
   6  -1   0    2.69    1.01
   6  -1   0    1.43    1.22
  -6   1   0    1.28    1.10
  -6   1  -1   29.78    3.97
  -6   1  -1   23.17    2.55
   6  -1   1   20.53    3.12
  -6   1  -1   21.71    2.46
   6  -1   1   24.42    3.24
   6  -1   1   27.09    3.47
   6  -1   1   21.26    3.37
   6  -1   1   22.07    2.20
  -6   1  -1   25.84    3.52
  -6   1  -1   24.91    3.06
  -6   1  -2   10.20    2.59
  -6   1  -2   12.52    1.77
   6  -1   2   11.82    2.50
  -6   1  -2   13.91    1.95
  -6   1  -2   11.80    2.35
   6  -1   2   17.83    3.15
   6  -1   2   11.92    2.50
   6  -1   2   11.64    2.42
  -6   1  -2   14.92    2.72
  -6   1  -3   -0.55    0.65
   6  -1   3    0.07    1.47
  -6   1  -3    1.28    1.35
  -6   1  -3    2.35    1.03
   6  -1   3    0.58    1.54
   6  -1   3    1.55    1.62
   6  -1   3    2.19    1.36
  -6   1  -3    0.65    1.12
   6  -1   4   10.66    2.78
  -6   1  -4   10.97    2.44
  -6   1  -4   10.18    1.55
   6  -1   4   11.56    2.98
   6  -1   4   13.84    2.95
   6  -1   4   13.21    2.75
  -6   1  -4   11.73    2.70
   6  -1   5    2.68    2.05
  -6   1  -5    0.68    1.02
   6  -1   5    0.90    1.49
   6  -1   5   -0.26    1.29
   6  -1   5    0.41    1.24
   6  -1   6    0.01    1.64
  -6   1  -6    1.77    1.38
   6  -1   6    1.73    2.00
   6  -1   6    3.81    2.09
   6  -1   6    3.45    1.69
   6  -1   7    2.03    2.17
  -6   1  -7    5.70    1.93
   6  -1   7    8.79    3.02
   6  -1   7    7.96    2.62
   6  -1   8    2.92    2.22
  -6   0  11    4.11    2.18
  -6   0  10   15.19    3.34
   6   0 -10   21.00    3.92
  -6   0  10   13.57    3.21
   6   0  -9   16.27    2.85
   6   0  -9   13.60    2.31
  -6   0   9   17.15    3.45
   6   0  -9   14.03    2.95
   6   0  -9   15.85    2.41
  -6   0   9   15.38    3.48
   6   0  -8    2.43    1.37
  -6   0   8    0.88    1.58
   6   0  -8    0.28    1.08
  -6   0   8    1.12    1.29
   6   0  -8   -0.80    1.40
   6   0  -8    3.09    1.41
  -6   0   8    0.69    1.79
  -6   0   8    1.25    1.87
  -6   0   8    1.96    1.36
   6   0  -7   -0.41    1.02
  -6   0   7    2.71    1.79
   6   0  -7    0.69    1.13
  -6   0   7    1.88    1.44
   6   0  -7    0.33    1.33
   6   0  -7   -0.45    1.16
  -6   0   7   -1.36    1.63
  -6   0   7    0.93    1.38
  -6   0   7    0.79    1.43
  -6   0   6   58.89    5.41
  -6   0   6   58.35    5.37
   6   0  -6   51.69    5.09
   6   0  -6   52.04    4.53
  -6   0   6   54.88    5.16
  -6   0   6   54.46    2.75
  -6   0   6   51.89    4.76
  -6   0   6   58.48    5.12
   6   0  -6   53.36    4.13
  -6   0   5   35.51    4.28
  -6   0   5   33.20    4.00
   6   0  -5   28.69    2.25
   6   0  -5   31.11    2.42
   6   0  -5   26.08    3.57
   6   0  -5   29.69    2.31
   6   0  -5   28.82    3.38
  -6   0   5   26.04    3.50
  -6   0   5   28.08    2.29
  -6   0   5   28.96    3.60
  -6   0   5   29.90    3.51
   6   0  -5   28.15    3.07
  -6   0   4  164.87    8.70
  -6   0   4  140.92    7.65
   6   0  -4  152.82    5.81
  -6   0   4  139.99    5.78
   6   0  -4  149.49    5.78
   6   0  -4  157.81    7.66
   6   0  -4  137.44    5.44
  -6   0   4  144.31    5.80
   6   0  -4  129.88    7.29
   6   0  -4  139.33    5.22
  -6   0   4  138.55    7.15
  -6   0   4  131.32    5.23
  -6   0   4  135.17    7.32
  -6   0   4  136.78    6.84
   6   0  -4  142.73    6.63
   6   0  -4  138.59    6.34
   6   0  -4  139.63    6.57
   6   0  -3    4.08    1.14
  -6   0   3    0.66    1.55
   6   0  -3    3.40    1.37
  -6   0   3    3.02    1.59
   6   0  -3    2.73    1.14
  -6   0   3    3.35    1.04
  -6   0   3    4.06    1.24
   6   0  -3    3.48    1.23
   6   0  -3    1.91    0.99
   6   0  -3    4.13    1.74
   6   0  -3    0.95    1.00
  -6   0   3    2.73    1.14
   6   0  -3    3.60    1.93
   6   0  -3    2.07    1.09
  -6   0   3    2.49    0.97
  -6   0   3    2.22    1.48
   6   0  -3    3.94    1.29
   6   0  -2   25.45    3.23
  -6   0   2   26.11    3.70
  -6   0   2   26.85    3.25
  -6   0   2   21.05    2.75
   6   0  -2   23.49    2.61
   6   0  -2   21.48    2.61
  -6   0   2   22.85    2.69
   6   0  -2   26.90    2.99
   6   0  -2   25.37    2.90
   6   0  -2   21.20    2.69
  -6   0   2   23.57    2.76
   6   0  -2   22.18    3.10
  -6   0   2   23.97    3.19
  -6   0   2   24.11    2.67
   6   0  -2   23.67    2.69
   6   0  -2   23.30    2.34
  -6   0   1    9.83    2.58
   6   0  -1    7.76    1.98
  -6   0   1   10.01    2.18
   6   0  -1    8.97    1.98
  -6   0   1    8.72    1.77
  -6   0   1   10.56    1.73
   6   0  -1   11.61    2.12
   6   0  -1   11.04    2.07
   6   0  -1   11.30    2.36
  -6   0   1   13.99    1.60
  -6   0   1   12.93    2.33
  -6   0   0   33.03    4.14
  -6   0   0   26.70    3.02
   6   0   0   23.70    3.17
  -6   0   0   25.10    2.45
   6   0   0   25.17    3.23
   6   0   0   26.26    3.23
   6   0   0   26.03    3.45
  -6   0   0   27.26    3.39
  -6   0   0   23.68    2.84
   6   0   0   29.05    2.18
  -6   0  -1    0.85    1.07
   6   0   1   -0.16    1.44
  -6   0  -1    0.13    1.03
  -6   0  -1    0.22    0.63
   6   0   1    0.72    1.50
   6   0   1   -0.87    1.31
   6   0   1    0.15    1.40
  -6   0  -1   -1.15    1.62
  -6   0  -2   28.11    2.77
   6   0   2   29.09    3.89
  -6   0  -2   28.09    2.29
   6   0   2   29.84    3.80
   6   0   2   34.57    4.11
   6   0   2   30.81    3.87
  -6   0  -2   36.08    4.10
  -6   0  -2   25.98    3.25
  -6   0  -3    5.98    1.40
   6   0   3    5.49    1.86
  -6   0  -3    9.15    2.24
  -6   0  -3    6.91    1.15
   6   0   3    7.73    2.30
   6   0   3    8.92    2.35
   6   0   3    7.62    2.28
  -6   0  -3    9.85    2.43
   6   0   4    3.18    1.90
  -6   0  -4    4.09    1.75
   6   0   4    2.95    1.90
   6   0   4    6.52    2.49
   6   0   4    5.57    1.96
  -6   0  -4    4.33    1.84
   6   0   5    0.71    1.68
  -6   0  -5    3.59    1.88
   6   0   5    3.66    2.15
   6   0   5    0.08    1.58
   6   0   5    2.16    1.52
   6   0   6    4.96    2.30
  -6   0  -6    3.35    1.69
   6   0   6    1.12    1.56
   6   0   6   -0.12    1.72
   6   0   6    0.24    1.34
   6   0   7   33.31    4.58
   6   0   8   18.46    3.56
  -6  -1  11   -1.92    1.60
  -6  -1  11    2.55    2.14
   6   1 -10    1.47    1.33
   6   1 -10   -0.55    1.27
  -6  -1  10    3.11    2.05
   6   1 -10   -0.97    1.78
  -6  -1  10   -0.20    1.23
  -6  -1  10    1.16    1.74
  -6  -1  10    0.46    1.85
  -6  -1   9   22.08    3.60
   6   1  -9   18.01    2.81
  -6  -1   9   21.12    3.72
   6   1  -9   20.30    3.62
   6   1  -9   23.66    3.08
  -6  -1   9   23.26    3.49
  -6  -1   9   25.56    4.26
  -6  -1   9   21.62    4.00
   6   1  -9   28.19    3.61
  -6  -1   8   32.64    4.21
  -6  -1   8   28.79    3.84
  -6  -1   8   29.85    4.33
   6   1  -8   26.31    3.82
   6   1  -8   25.06    3.18
  -6  -1   8   29.68    4.23
  -6  -1   8   31.57    4.47
  -6  -1   8   27.21    3.68
   6   1  -8   26.25    3.22
   6   1  -8   28.34    3.54
  -6  -1   7   14.28    2.90
   6   1  -7   10.86    2.18
  -6  -1   7   13.18    2.98
   6   1  -7   10.17    2.41
   6   1  -7   11.56    2.35
  -6  -1   7   10.58    2.56
  -6  -1   7   10.21    2.63
  -6  -1   7   10.58    2.41
  -6  -1   6   -0.51    1.57
   6   1  -6   -0.10    1.03
  -6  -1   6    0.12    1.33
  -6  -1   6    1.92    0.91
   6   1  -6    0.63    0.67
   6   1  -6    1.30    0.72
   6   1  -6   -0.50    1.57
   6   1  -6    0.57    0.71
   6   1  -6   -0.34    1.20
  -6  -1   6   -0.16    1.54
  -6  -1   6    2.07    1.41
  -6  -1   6    0.89    1.33
  -6  -1   5   55.99    5.19
  -6  -1   5   52.23    4.99
   6   1  -5   54.08    3.47
   6   1  -5   51.92    3.49
   6   1  -5   54.53    4.84
   6   1  -5   52.07    3.42
   6   1  -5   46.39    4.57
  -6  -1   5   46.65    4.51
  -6  -1   5   52.82    3.39
  -6  -1   5   48.87    4.44
  -6  -1   5   59.45    4.95
   6   1  -5   48.28    3.72
   6   1  -5   47.87    4.19
   6   1  -4    0.35    0.63
  -6  -1   4    0.90    1.52
   6   1  -4    6.18    1.72
  -6  -1   4   -0.10    1.14
   6   1  -4    0.57    0.85
  -6  -1   4    1.37    1.00
   6   1  -4    0.68    0.78
  -6  -1   4   -0.70    0.85
   6   1  -4    0.91    1.08
   6   1  -4   -0.22    1.34
   6   1  -4   -0.18    0.84
  -6  -1   4    0.23    0.72
   6   1  -4    5.92    1.92
  -6  -1   4    1.02    1.27
  -6  -1   4   -0.97    1.15
  -6  -1   4   -0.15    1.42
   6   1  -4    0.82    1.04
   6   1  -3   97.29    5.90
  -6  -1   3  116.81    7.37
  -6  -1   3  106.82    6.58
   6   1  -3  116.99    5.86
  -6  -1   3  109.22    5.82
   6   1  -3  102.89    5.31
   6   1  -3  119.05    5.94
   6   1  -3  116.22    5.77
  -6  -1   3  113.23    5.84
   6   1  -3  115.07    6.93
  -6  -1   3  108.52    6.00
  -6  -1   3  109.19    5.37
  -6  -1   3  106.20    6.14
  -6  -1   3  115.31    5.98
   6   1  -3  108.32    4.86
   6   1  -3  112.28    5.11
   6   1  -2  141.51    7.18
  -6  -1   2  181.55    9.34
  -6  -1   2  139.25    7.38
   6   1  -2  155.26    7.22
   6   1  -2  145.31    5.84
   6   1  -2  149.27    7.09
   6   1  -2  147.85    6.86
   6   1  -2  146.76    7.89
  -6  -1   2  150.06    6.47
  -6  -1   2  142.35    6.41
  -6  -1   2  136.84    7.06
  -6  -1   2  157.66    6.39
   6   1  -2  140.99    4.97
   6   1  -2  146.46    5.66
  -6  -1   1   12.83    2.77
   6   1  -1    8.39    2.13
  -6  -1   1    9.73    2.10
  -6  -1   1    8.56    1.90
   6   1  -1   10.59    2.25
   6   1  -1   11.03    2.44
   6   1  -1    8.27    2.02
   6   1  -1    7.91    2.17
  -6  -1   1    7.22    1.37
  -6  -1   1    7.83    1.99
   6   1  -1    8.45    1.16
   6   1  -1    8.49    1.44
   6   1   0    0.76    1.17
  -6  -1   0    0.83    1.20
  -6  -1   0   -0.60    1.22
   6   1   0   -0.91    1.18
   6   1   0   -0.34    1.38
   6   1   0    1.19    1.27
   6   1   0   -0.56    1.27
  -6  -1   0    0.87    1.12
  -6  -1   0    0.62    0.53
  -6  -1  -1   24.59    3.02
   6   1   1   26.25    3.66
   6   1   1   27.94    3.59
   6   1   1   22.49    3.26
   6   1   1   17.97    3.06
  -6  -1  -1   27.57    3.50
  -6  -1  -1   22.30    3.02
  -6  -1  -1   22.36    1.40
  -6  -1  -2   12.31    2.22
  -6  -1  -2   15.17    2.67
   6   1   2   15.22    3.00
   6   1   2   14.67    2.95
   6   1   2   12.55    2.64
   6   1   2   10.75    2.48
  -6  -1  -2   12.63    2.54
  -6  -1  -3    1.81    0.97
   6   1   3    0.68    1.50
  -6  -1  -3    2.14    1.26
   6   1   3    0.34    1.40
   6   1   3    3.91    1.73
   6   1   3    1.33    1.25
  -6  -1  -3    4.01    1.97
   6   1   4    1.50    1.52
  -6  -1  -4    3.67    1.75
   6   1   4    2.99    1.69
   6   1   4    2.24    1.43
   6   1   4    4.49    1.85
   6   1   5   16.58    3.69
  -6  -1  -5   13.38    2.66
   6   1   5   18.66    3.71
   6   1   5    8.78    2.70
   6   1   5   15.50    2.96
   6   1   6    0.11    1.78
  -6  -1  -6    1.39    1.32
   6   1   6    0.09    1.76
   6   1   6    4.46    2.44
   6   1   6    0.60    1.39
   6   1   7    3.42    1.95
   6   1   8    3.57    2.00
   6   2 -11    5.94    2.29
   6   2 -11    2.73    1.45
  -6  -2  11    2.38    1.73
  -6  -2  11   -0.24    2.23
   6   2 -10    0.68    1.32
   6   2 -10    2.29    1.80
  -6  -2  10    0.60    1.47
   6   2 -10    1.37    1.46
  -6  -2  10   -0.40    1.35
  -6  -2  10    1.91    1.55
  -6  -2  10   -0.21    1.74
   6   2  -9   13.81    2.83
  -6  -2   9   11.30    2.46
   6   2  -9   12.34    2.49
  -6  -2   9   12.88    3.08
   6   2  -9    7.77    2.15
  -6  -2   9   15.09    3.02
  -6  -2   9   12.18    2.86
  -6  -2   9   11.94    3.14
   6   2  -8    2.38    1.59
  -6  -2   8    1.48    2.02
   6   2  -8    2.70    1.56
  -6  -2   8    2.13    1.54
  -6  -2   8    1.53    1.27
  -6  -2   8    3.51    2.13
  -6  -2   8    1.16    1.58
  -6  -2   7   23.99    3.54
  -6  -2   7   23.83    3.79
  -6  -2   7   17.97    2.89
  -6  -2   7   20.22    2.07
  -6  -2   7   17.27    3.31
  -6  -2   7   24.68    3.70
  -6  -2   7   20.31    3.05
   6   2  -7   19.61    3.17
  -6  -2   6    7.67    2.27
   6   2  -6    5.24    1.70
  -6  -2   6    4.36    0.98
  -6  -2   6    6.51    2.13
   6   2  -6    5.21    1.41
   6   2  -6    4.41    1.34
   6   2  -6    3.95    1.06
   6   2  -6    2.51    1.48
  -6  -2   6    2.99    1.99
  -6  -2   6    3.78    1.65
  -6  -2   6    5.33    1.76
  -6  -2   5    0.68    1.57
   6   2  -5    5.22    1.97
  -6  -2   5    1.26    0.80
  -6  -2   5    1.42    1.52
   6   2  -5    1.45    0.84
   6   2  -5    2.57    1.23
   6   2  -5    2.52    0.98
   6   2  -5    1.69    1.33
  -6  -2   5   -0.26    1.50
  -6  -2   5    0.63    1.20
  -6  -2   5    0.74    0.96
  -6  -2   4   29.41    3.90
   6   2  -4   24.25    2.79
  -6  -2   4   24.09    2.91
  -6  -2   4   20.34    3.14
   6   2  -4   26.01    2.86
   6   2  -4   24.40    2.79
   6   2  -4   25.00    3.42
  -6  -2   4   27.84    3.40
  -6  -2   4   21.74    2.50
  -6  -2   4   25.58    3.15
   6   2  -4   24.11    2.42
  -6  -2   4   26.52    3.31
   6   2  -4   22.42    3.08
  -6  -2   3    7.50    2.32
   6   2  -3    6.63    1.82
  -6  -2   3    7.16    1.67
  -6  -2   3    6.21    1.86
   6   2  -3    7.46    1.95
   6   2  -3    7.39    1.71
   6   2  -3    6.25    1.77
   6   2  -3    7.84    1.86
   6   2  -3    4.77    1.70
  -6  -2   3    7.62    1.94
  -6  -2   3   11.08    2.16
  -6  -2   3    8.60    1.86
  -6  -2   2    0.03    2.04
   6   2  -2    0.87    1.26
  -6  -2   2    0.62    1.32
  -6  -2   2    1.61    1.12
   6   2  -2    0.27    1.20
   6   2  -2    0.95    0.92
   6   2  -2    2.44    1.49
   6   2  -2   -0.15    1.17
   6   2  -2    0.86    1.40
  -6  -2   2    0.94    0.96
  -6  -2   2    0.22    1.00
  -6  -2   2   -1.36    1.28
   6   2  -1  100.24    6.39
  -6  -2   1  105.29    6.51
   6   2  -1  104.07    6.51
   6   2  -1  105.97    6.57
   6   2  -1  106.03    6.37
   6   2  -1   93.71    6.73
  -6  -2   1  114.05    5.28
  -6  -2   1  105.39    5.95
  -6  -2   1   96.72    5.99
   6   2   0    8.53    1.99
  -6  -2   0    8.24    2.05
  -6  -2   0    8.89    2.02
   6   2   0   10.48    2.48
   6   2   0    9.49    2.24
   6   2   0   10.96    2.39
   6   2   0   10.43    2.60
  -6  -2   0   10.53    1.52
  -6  -2   0   10.67    2.28
  -6  -2  -1   -0.26    1.12
  -6  -2  -1    0.41    1.11
   6   2   1    1.04    1.56
   6   2   1    1.62    1.70
   6   2   1    0.44    1.70
   6   2   1   -0.73    1.48
  -6  -2  -1    0.40    1.15
  -6  -2  -1    0.69    0.66
  -6  -2  -2    0.85    1.23
  -6  -2  -2    0.43    0.88
   6   2   2   -2.06    1.77
   6   2   2   -2.18    1.89
   6   2   2   -0.25    1.25
   6   2   2    1.22    1.46
  -6  -2  -2    0.88    1.33
  -6  -2  -3    4.70    1.57
  -6  -2  -3    6.66    1.95
   6   2   3    6.19    2.26
   6   2   3    3.89    1.67
   6   2   3    3.70    1.71
   6   2   3    4.87    1.72
  -6  -2  -3    5.35    2.08
  -6  -2  -4    4.50    1.54
   6   2   4    3.75    2.45
  -6  -2  -4    2.24    1.47
   6   2   4    2.86    1.74
   6   2   4    1.24    1.59
   6   2   4    4.16    1.69
   6   2   5    2.28    2.25
  -6  -2  -5    1.28    1.38
   6   2   5    0.90    1.71
   6   2   5    0.77    1.83
   6   2   5   -1.83    1.47
   6   2   6    8.39    3.05
  -6  -2  -6    5.72    2.01
   6   2   6    1.09    1.71
   6   2   6    8.57    2.93
   6   2   6    4.14    2.08
   6   2   7   21.35    3.59
   6   3 -12    5.54    2.17
   6   3 -12    4.91    2.05
   6   3 -11   -0.08    1.72
  -6  -3  11    1.68    1.50
   6   3 -10    3.31    2.01
   6   3 -10    1.38    1.46
  -6  -3  10    4.17    2.41
  -6  -3  10    1.04    1.61
  -6  -3  10    2.40    1.93
  -6  -3  10    1.67    2.00
   6   3  -9    2.45    1.67
  -6  -3   9   -0.27    1.36
  -6  -3   9    0.64    1.31
  -6  -3   9    5.17    2.20
  -6  -3   9   -2.22    1.83
  -6  -3   9   -0.58    1.84
   6   3  -8    3.24    1.91
  -6  -3   8    1.56    1.47
   6   3  -8    0.56    1.17
  -6  -3   8    6.87    2.51
  -6  -3   8    4.08    1.67
  -6  -3   8    3.04    1.96
  -6  -3   8    5.20    2.39
  -6  -3   7    8.07    2.26
   6   3  -7    3.20    1.50
  -6  -3   7    8.06    1.59
  -6  -3   7    7.78    2.39
   6   3  -7    7.72    1.61
   6   3  -7    6.50    1.57
   6   3  -7    7.42    1.62
  -6  -3   7    6.80    1.86
  -6  -3   7    8.62    2.66
  -6  -3   7    5.91    2.12
  -6  -3   7    5.87    1.65
  -6  -3   6   13.12    2.82
   6   3  -6    7.98    2.01
  -6  -3   6   10.34    1.85
  -6  -3   6   13.54    2.90
   6   3  -6   11.18    2.05
   6   3  -6    9.70    1.86
   6   3  -6   10.77    2.03
  -6  -3   6   13.41    2.27
  -6  -3   6   11.41    2.79
  -6  -3   6    9.66    2.58
  -6  -3   6   10.07    2.06
  -6  -3   5   -0.44    1.53
   6   3  -5   -0.19    0.97
  -6  -3   5   -0.20    0.75
  -6  -3   5    0.55    1.47
   6   3  -5    0.82    1.05
   6   3  -5   -0.12    0.96
   6   3  -5    0.86    1.08
  -6  -3   5   -0.67    1.39
  -6  -3   5    0.74    1.36
  -6  -3   5    0.54    0.97
  -6  -3   4    0.86    1.59
   6   3  -4    2.81    1.50
  -6  -3   4    0.69    0.90
  -6  -3   4    1.22    1.19
   6   3  -4    2.35    1.31
   6   3  -4    1.82    1.27
   6   3  -4    1.73    1.14
  -6  -3   4    1.69    1.30
  -6  -3   4    2.69    1.59
  -6  -3   4    0.94    1.08
  -6  -3   3   11.43    2.75
   6   3  -3    4.01    1.64
  -6  -3   3    4.79    1.50
  -6  -3   3    5.26    1.80
   6   3  -3    4.14    1.61
   6   3  -3    6.06    1.69
   6   3  -3    5.18    1.75
  -6  -3   3    6.80    2.00
  -6  -3   3    6.72    1.77
  -6  -3   3    5.22    1.51
   6   3  -2    1.14    1.40
  -6  -3   2    0.65    0.98
  -6  -3   2    1.94    1.49
   6   3  -2    0.87    1.24
   6   3  -2    0.95    1.37
   6   3  -2    3.30    1.39
   6   3  -2   -0.24    1.14
  -6  -3   2    1.97    1.25
  -6  -3   2    3.45    1.58
  -6  -3   2   -0.38    1.06
   6   3  -1   54.14    4.86
  -6  -3   1   57.95    5.14
   6   3  -1   65.66    5.44
   6   3  -1   64.04    5.34
   6   3  -1   59.81    5.13
   6   3  -1   54.47    5.21
  -6  -3   1   51.67    3.83
  -6  -3   1   56.10    4.62
  -6  -3   1   59.37    4.57
  -6  -3   1   57.64    4.25
   6   3   0   24.95    3.48
  -6  -3   0   27.14    3.55
   6   3   0   27.88    3.84
   6   3   0   23.85    3.58
   6   3   0   20.93    3.19
   6   3   0   22.73    3.60
  -6  -3   0   24.68    2.39
  -6  -3   0   22.57    3.46
  -6  -3   0   21.88    3.01
  -6  -3   0   25.22    2.71
   6   3   1    3.98    1.84
  -6  -3  -1    1.79    1.44
  -6  -3  -1    1.71    1.20
   6   3   1   -0.95    1.67
   6   3   1    4.83    2.23
   6   3   1    5.37    2.16
   6   3   1    0.94    1.57
  -6  -3  -1    1.22    1.22
  -6  -3  -2    1.41    1.40
  -6  -3  -2    0.72    1.31
   6   3   2    0.75    1.76
   6   3   2    0.87    1.37
   6   3   2   -0.70    1.39
   6   3   2    0.21    1.21
  -6  -3  -2   -0.55    1.07
  -6  -3  -3   15.49    2.74
  -6  -3  -3   16.55    2.89
   6   3   3   19.11    3.67
   6   3   3   18.08    3.64
   6   3   3   15.05    3.13
   6   3   3   16.68    3.10
  -6  -3  -3   17.18    2.95
  -6  -3  -4   -1.21    1.46
  -6  -3  -4    1.30    1.51
   6   3   4    1.36    2.11
   6   3   4    0.47    1.78
   6   3   4   -2.45    1.54
   6   3   4   -1.26    1.14
   6   3   5   24.17    4.54
   6   3   5   28.46    4.56
   6   3   5   27.83    4.46
   6   3   5   24.22    3.65
  -6  -3  -5   27.27    4.00
   6   3   6    0.20    1.34
   6   3   7    0.41    1.34
   6   4 -11    2.59    2.19
   6   4 -11    4.13    1.91
  -6  -4  11    0.43    1.72
   6   4 -10    1.60    1.63
  -6  -4  10    1.16    1.44
   6   4 -10   -1.15    1.70
  -6  -4  10    1.01    1.44
  -6  -4  10   -2.02    1.95
  -6  -4  10   -0.13    1.86
  -6  -4  10    1.21    1.68
   6   4  -9    0.58    1.42
  -6  -4   9    1.36    1.47
   6   4  -9   -2.78    1.71
  -6  -4   9    3.06    1.78
  -6  -4   9   -0.24    1.35
  -6  -4   9   -0.72    1.75
  -6  -4   9    1.04    1.51
   6   4  -8    1.31    1.28
  -6  -4   8   -1.13    1.41
   6   4  -8    0.06    1.22
  -6  -4   8    0.07    0.65
  -6  -4   8   -1.10    1.61
  -6  -4   8    0.01    1.31
  -6  -4   8    0.21    1.61
  -6  -4   8    1.35    1.51
  -6  -4   7    3.51    1.72
   6   4  -7    6.55    1.93
  -6  -4   7    5.24    1.49
  -6  -4   7    4.25    2.05
   6   4  -7    4.25    1.57
   6   4  -7    6.51    1.89
   6   4  -7    5.47    1.68
  -6  -4   7    5.60    1.69
  -6  -4   7    2.32    1.85
  -6  -4   7    6.84    2.37
  -6  -4   6    0.24    1.50
   6   4  -6    1.22    1.39
  -6  -4   6    2.22    1.10
  -6  -4   6    1.40    1.66
   6   4  -6    0.55    1.12
   6   4  -6    1.29    1.29
   6   4  -6    0.91    1.15
  -6  -4   6    2.98    1.36
  -6  -4   6    2.37    1.82
  -6  -4   6    0.56    1.49
  -6  -4   6    0.66    0.94
  -6  -4   5    4.02    1.79
   6   4  -5    4.57    1.84
  -6  -4   5    3.42    1.24
  -6  -4   5    3.14    1.67
   6   4  -5    5.52    1.62
   6   4  -5    2.12    1.44
   6   4  -5    3.31    1.57
  -6  -4   5    2.92    1.09
  -6  -4   5    1.33    1.71
  -6  -4   5    4.59    2.02
  -6  -4   5    2.37    1.22
  -6  -4   4    8.98    2.61
   6   4  -4    3.58    1.47
  -6  -4   4    4.90    1.53
  -6  -4   4    3.89    1.98
   6   4  -4    5.31    1.73
   6   4  -4    4.69    1.77
   6   4  -4    6.03    1.82
  -6  -4   4    5.80    1.82
  -6  -4   4    6.37    2.10
  -6  -4   4    4.66    1.44
  -6  -4   3   15.08    3.22
   6   4  -3   12.70    2.62
  -6  -4   3    9.25    1.93
  -6  -4   3   10.16    2.43
   6   4  -3   11.31    2.42
   6   4  -3    8.92    2.25
   6   4  -3   10.34    2.31
  -6  -4   3   12.51    2.49
  -6  -4   3   10.70    2.36
  -6  -4   3   10.68    1.94
   6   4  -2    2.06    1.48
  -6  -4   2    3.96    1.67
  -6  -4   2    1.72    1.64
   6   4  -2    2.89    1.62
   6   4  -2    8.09    2.64
   6   4  -2    1.47    1.40
  -6  -4   2    3.10    1.49
  -6  -4   2    2.00    1.05
  -6  -4   2    2.01    1.44
   6   4  -1    1.93    1.30
  -6  -4   1    6.10    2.04
  -6  -4   1    1.75    1.40
   6   4  -1    4.26    2.10
   6   4  -1    0.58    1.32
   6   4  -1    3.90    1.87
   6   4  -1    1.21    1.17
  -6  -4   1    2.33    1.32
  -6  -4   1    4.83    1.58
  -6  -4   1    3.55    1.55
   6   4   0   13.90    2.76
  -6  -4   0   15.50    3.13
  -6  -4   0   12.90    2.44
   6   4   0   20.58    3.46
   6   4   0   17.99    3.28
   6   4   0   17.22    3.08
   6   4   0   13.48    2.78
  -6  -4   0   18.13    2.31
  -6  -4   0   15.81    2.48
   6   4   1   37.77    4.31
  -6  -4  -1   37.18    4.30
   6   4   1   44.42    5.06
   6   4   1   36.96    4.59
   6   4   1   36.45    4.48
   6   4   1   32.22    4.30
  -6  -4  -1   39.12    4.23
  -6  -4  -1   35.84    3.70
  -6  -4  -2    0.71    1.32
  -6  -4  -2   -0.39    1.17
   6   4   2    0.29    1.69
   6   4   2   -0.42    1.47
   6   4   2   -1.50    2.00
   6   4   2   -0.10    1.26
  -6  -4  -2   -0.04    1.06
  -6  -4  -3    0.66    1.46
  -6  -4  -3    1.56    1.30
   6   4   3   -2.32    2.20
   6   4   3    0.46    2.01
   6   4   3    2.35    2.05
   6   4   3   -0.21    1.30
  -6  -4  -3    1.46    1.43
  -6  -4  -4    6.63    2.25
  -6  -4  -4    1.88    1.69
   6   4   4    0.91    1.62
   6   4   4    0.54    1.91
   6   4   4   -0.56    1.69
   6   4   4    0.58    1.11
   6   4   4    2.85    1.32
   6   4   5   -1.15    1.49
   6   4   6    0.24    1.16
  -6  -5  11   11.53    2.97
   6   5 -10    4.55    2.02
  -6  -5  10    9.84    2.46
   6   5 -10    7.39    2.17
  -6  -5  10    8.05    2.56
  -6  -5  10   12.91    3.52
  -6  -5  10   10.67    3.37
   6   5  -9    0.90    1.32
  -6  -5   9    0.21    1.29
   6   5  -9    2.62    1.63
  -6  -5   9    1.72    2.05
  -6  -5   9   -0.47    1.17
  -6  -5   9   -0.99    1.63
  -6  -5   9    0.20    1.82
   6   5  -8   -2.55    1.94
  -6  -5   8    1.82    1.57
   6   5  -8   -0.49    1.17
  -6  -5   8    1.60    1.09
  -6  -5   8    0.69    1.71
   6   5  -8    2.59    1.58
   6   5  -8    1.42    1.43
  -6  -5   8    0.05    1.14
  -6  -5   8   -0.44    1.32
  -6  -5   8    1.34    2.14
   6   5  -7   -0.10    1.26
  -6  -5   7   -0.03    1.46
  -6  -5   7    0.95    0.91
  -6  -5   7   -0.54    1.61
   6   5  -7   -1.10    1.39
   6   5  -7    0.79    1.19
   6   5  -7   -1.54    1.33
  -6  -5   7   -0.24    1.03
  -6  -5   7   -0.49    1.40
  -6  -5   7   -0.67    1.54
  -6  -5   6    1.55    1.57
   6   5  -6    0.40    1.51
  -6  -5   6    2.44    1.23
  -6  -5   6    2.16    1.66
   6   5  -6    4.45    1.77
   6   5  -6    3.08    1.57
   6   5  -6    2.57    1.21
  -6  -5   6    2.71    1.14
  -6  -5   6    3.97    2.18
  -6  -5   6    2.01    1.78
  -6  -5   6    1.00    0.79
  -6  -5   5    3.19    1.68
   6   5  -5    4.00    1.59
  -6  -5   5    2.61    1.39
  -6  -5   5    1.34    1.60
   6   5  -5    3.16    1.53
   6   5  -5    0.79    1.31
   6   5  -5    2.10    1.41
  -6  -5   5    1.78    1.78
  -6  -5   5    1.82    1.73
  -6  -5   5    1.79    1.00
  -6  -5   4    5.42    2.27
   6   5  -4    2.43    1.67
  -6  -5   4    0.52    1.14
  -6  -5   4    1.09    1.48
   6   5  -4    1.70    1.40
   6   5  -4    3.28    1.76
   6   5  -4    1.10    1.42
  -6  -5   4    1.63    2.04
  -6  -5   4   -0.07    1.37
  -6  -5   4    1.15    0.71
   6   5  -3    0.97    1.18
  -6  -5   3    2.22    1.40
  -6  -5   3    0.42    1.26
   6   5  -3   -0.26    1.65
   6   5  -3    1.90    1.77
   6   5  -3    1.57    1.47
  -6  -5   3    0.98    1.54
  -6  -5   3    1.80    1.52
  -6  -5   3    2.55    1.06
   6   5  -2    1.61    1.45
  -6  -5   2    0.30    1.16
  -6  -5   2   -0.06    1.53
   6   5  -2    0.59    1.55
   6   5  -2    0.02    1.67
   6   5  -2   -1.57    1.79
  -6  -5   2    1.10    1.25
  -6  -5   2    0.78    0.75
  -6  -5   2    1.27    1.46
   6   5  -1    0.77    1.35
  -6  -5   1    2.50    1.42
  -6  -5   1    1.46    1.47
   6   5  -1    0.49    1.49
   6   5  -1    1.99    1.84
   6   5  -1    1.10    1.49
  -6  -5   1    2.35    1.34
  -6  -5   1    1.59    1.17
   6   5   0    0.64    1.17
  -6  -5   0    0.82    1.38
  -6  -5   0    4.58    2.66
   6   5   0    1.64    1.43
   6   5   0    2.16    1.93
   6   5   0    2.68    1.43
   6   5   0    0.58    1.26
  -6  -5   0    0.72    1.05
  -6  -5   0    1.46    1.01
   6   5   1    5.83    1.85
  -6  -5  -1    7.07    2.47
  -6  -5  -1   11.05    2.49
   6   5   1   11.04    2.93
   6   5   1    7.67    2.67
   6   5   1   12.19    2.92
   6   5   1    7.85    2.42
  -6  -5  -1    8.67    1.82
  -6  -5  -2    6.39    2.63
  -6  -5  -2    5.75    2.04
   6   5   2    3.91    1.87
   6   5   2    0.64    1.54
   6   5   2   -1.24    1.63
   6   5   2    2.60    1.23
  -6  -5  -2    2.77    1.33
  -6  -5  -3    4.33    2.35
  -6  -5  -3    1.06    1.33
   6   5   3   -0.34    2.06
   6   5   3    2.46    1.83
   6   5   3   -0.36    1.49
   6   5   3    1.08    1.54
  -6  -5  -3    1.39    1.23
  -6  -5  -4    4.51    1.87
   6   5   4    1.28    1.55
   6   5   4    5.42    2.46
   6   5   4    2.10    1.66
   6   5   4    2.25    1.22
  -6  -5  -4    2.63    1.76
   6   5   5    0.00    1.52
   6   5   5    4.32    1.72
   6   5   6    3.75    1.96
  -6  -6  10   17.72    3.24
   6   6  -9   13.73    3.34
  -6  -6   9   14.11    2.83
   6   6  -9   13.63    3.07
  -6  -6   9   14.74    2.86
  -6  -6   9   17.05    3.83
  -6  -6   9   18.15    4.22
   6   6  -8    0.48    1.56
  -6  -6   8    0.52    0.92
   6   6  -8    0.72    1.28
  -6  -6   8    2.81    2.00
  -6  -6   8   -0.61    1.72
   6   6  -8   -0.16    1.26
   6   6  -8   -0.83    1.54
   6   6  -8   -1.02    1.25
  -6  -6   8    0.20    1.51
  -6  -6   8    3.31    2.24
   6   6  -7    0.78    1.36
  -6  -6   7    0.15    1.02
  -6  -6   7    0.89    1.34
  -6  -6   7    3.67    2.40
   6   6  -7   -1.06    1.23
   6   6  -7    0.85    1.70
   6   6  -7    2.07    1.60
  -6  -6   7    1.04    1.32
  -6  -6   7   -0.08    1.89
   6   6  -6    3.79    2.51
  -6  -6   6    0.64    1.45
  -6  -6   6    2.70    1.33
  -6  -6   6    4.87    2.44
   6   6  -6    4.11    1.86
   6   6  -6    5.87    1.95
   6   6  -6    1.55    1.30
  -6  -6   6    2.10    1.79
  -6  -6   6    5.58    2.47
  -6  -6   5    0.12    1.55
   6   6  -5    1.79    1.44
  -6  -6   5   -0.21    1.11
  -6  -6   5    0.16    1.53
   6   6  -5    1.77    1.42
   6   6  -5   -0.05    1.57
   6   6  -5    2.15    1.57
  -6  -6   5   -0.64    1.46
  -6  -6   5    0.44    1.73
  -6  -6   4   12.74    2.98
   6   6  -4   12.08    2.77
  -6  -6   4    9.16    2.13
  -6  -6   4    9.82    2.94
   6   6  -4   13.47    2.88
   6   6  -4   11.49    2.74
   6   6  -4   11.00    2.66
  -6  -6   4    7.80    2.31
  -6  -6   4   11.31    2.61
   6   6  -3    2.72    1.63
  -6  -6   3    3.10    1.36
  -6  -6   3   11.58    3.37
   6   6  -3    4.87    2.01
   6   6  -3    3.05    1.95
   6   6  -3    4.30    1.94
  -6  -6   3    8.58    2.45
  -6  -6   3    4.99    2.13
   6   6  -2   11.79    2.60
  -6  -6   2   10.12    2.35
  -6  -6   2   13.90    4.12
   6   6  -2   12.58    2.86
   6   6  -2   10.02    2.66
   6   6  -2   10.67    2.78
  -6  -6   2   12.85    2.65
   6   6  -1   59.47    5.68
  -6  -6   1   67.60    6.56
   6   6  -1   72.23    6.40
   6   6  -1   67.78    6.24
   6   6  -1   69.60    6.17
  -6  -6   1   73.87    5.96
  -6  -6   1   69.35    5.50
   6   6   0   12.88    2.81
  -6  -6   0   14.72    2.85
  -6  -6   0   16.29    3.42
   6   6   0   22.20    3.78
   6   6   0   19.43    3.66
   6   6   0   10.56    2.79
   6   6   1    3.21    1.77
  -6  -6  -1    6.85    2.56
  -6  -6  -1    2.60    1.53
   6   6   1    3.79    2.11
   6   6   1    1.68    1.64
   6   6   1    3.19    1.76
  -6  -6  -2    5.61    2.56
  -6  -6  -2    1.00    1.32
   6   6   2    1.69    2.31
   6   6   2   -0.34    1.69
   6   6   2    1.83    1.79
   6   6   2    2.45    1.67
   6   6   3    1.37    1.32
   6   6   4    0.26    1.43
   6   6   4    4.49    1.90
   6   6   5    0.30    1.22
  -6  -7   8    1.09    1.34
   6   7  -8    2.34    1.67
   6   7  -8    0.09    1.73
   6   7  -8    1.43    1.52
  -6  -7   8   -2.33    1.73
  -6  -7   8    1.58    2.04
  -6  -7   7    1.34    1.29
   6   7  -7    2.12    1.48
  -6  -7   7    5.60    2.13
  -6  -7   7    2.96    1.91
   6   7  -7    2.77    1.50
   6   7  -7    4.73    2.10
   6   7  -7    3.36    1.87
  -6  -7   7    5.02    2.38
  -6  -7   7    3.16    2.08
  -6  -7   6    0.44    1.31
   6   7  -6   -1.85    1.69
  -6  -7   6    1.14    1.54
  -6  -7   6    1.42    1.67
   6   7  -6    1.88    1.62
   6   7  -6    1.90    1.72
   6   7  -6   -0.17    1.25
  -6  -7   6    0.89    1.61
  -6  -7   6    0.57    1.84
  -6  -7   5   -0.80    1.28
  -6  -7   5   -1.04    1.50
   6   7  -5   -1.36    1.27
  -6  -7   5   -1.06    1.97
   6   7  -5    0.60    1.41
   6   7  -5   -0.55    1.58
   6   7  -5   -0.49    1.45
  -6  -7   5    0.88    1.72
  -6  -7   5    0.05    1.78
   6   7  -4    1.83    1.26
  -6  -7   4    3.62    1.79
  -6  -7   4    3.62    2.00
   6   7  -4    2.90    1.99
   6   7  -4    0.37    1.61
   6   7  -4    2.51    1.82
  -6  -7   4    1.22    1.53
  -6  -7   4    3.44    2.42
   6   7  -3   -1.30    1.41
  -6  -7   3    1.81    1.34
  -6  -7   3    1.21    1.50
   6   7  -3   -0.36    1.56
   6   7  -3    0.76    1.59
   6   7  -3    2.84    1.66
  -6  -7   3    2.26    1.87
   6   7  -2   21.14    3.53
  -6  -7   2   19.23    3.20
  -6  -7   2   23.79    4.22
   6   7  -2   21.12    3.83
   6   7  -2   19.79    3.69
   6   7  -2   19.81    3.63
  -6  -7   2   19.05    3.45
   6   7  -1   15.62    3.22
  -6  -7   1   20.20    3.31
  -6  -7   1   21.91    4.03
   6   7  -1   21.26    3.78
   6   7  -1   23.70    4.04
   6   7  -1   24.32    4.08
  -6  -7   1   24.86    3.74
   6   7   0   16.67    3.36
  -6  -7   0   16.21    3.02
  -6  -7   0   21.79    4.48
   6   7   0   18.24    3.56
   6   7   0   19.32    3.79
   6   7   0   19.02    3.59
   6   7   1    1.15    1.45
  -6  -7  -1    4.18    2.36
  -6  -7  -1   -0.03    1.23
   6   7   1   -3.17    2.30
   6   7   1   -0.30    1.65
   6   7   1    3.61    2.26
   6   7   1    1.27    1.37
   6   7   2    0.44    1.09
   6   7   3    4.48    1.94
   6   7   3    7.60    2.12
  -6  -8   8    3.63    1.74
   6   8  -8    4.20    1.95
   6   8  -8    8.35    2.69
   6   8  -8    5.81    2.32
  -6  -8   7    1.90    1.51
   6   8  -7    3.13    2.06
   6   8  -7    3.05    2.17
   6   8  -7   -0.05    1.58
  -6  -8   7    5.25    2.59
  -6  -8   7    2.74    2.39
  -6  -8   6   10.69    2.63
  -6  -8   6   15.92    3.17
   6   8  -6   20.02    3.95
   6   8  -6   11.36    2.99
   6   8  -6   11.93    2.96
  -6  -8   6   11.75    3.04
  -6  -8   6   16.00    3.99
  -6  -8   5    3.93    1.51
  -6  -8   5    6.23    2.58
  -6  -8   5   -4.26    2.62
   6   8  -5    3.11    2.09
   6   8  -5    2.80    2.06
   6   8  -5   -1.29    1.69
  -6  -8   5    6.26    2.53
  -6  -8   5    0.15    1.80
  -6  -8   4   -1.01    1.29
   6   8  -4    0.95    1.84
  -6  -8   4   -2.97    2.11
   6   8  -4    0.17    1.49
   6   8  -4   -2.14    2.36
   6   8  -4   -0.95    1.82
  -6  -8   4   -1.43    1.77
  -6  -8   3    4.78    1.78
   6   8  -3    6.66    2.35
  -6  -8   3    1.71    1.58
   6   8  -3    5.36    2.45
   6   8  -3    0.08    1.78
   6   8  -3    5.05    2.48
  -6  -8   3    3.66    2.00
  -6  -8   2   -1.11    1.23
   6   8  -2    0.64    1.06
  -6  -8   2    0.03    1.59
   6   8  -2   -1.60    1.87
   6   8  -2   -0.55    1.82
   6   8  -2   -2.45    2.05
  -6  -8   2   -1.56    1.53
  -6  -8   1    5.61    2.21
  -6  -8   1    1.39    1.73
   6   8  -1    5.34    2.26
   6   8  -1    6.82    2.79
   6   8  -1    9.25    3.24
  -6  -8   0    2.61    2.00
  -6  -9   5    9.77    3.09
  -6  -9   5    6.83    2.88
  -6  -9   4   10.16    4.39
  -6  -9   3   16.68    3.58
  -6  -9   2    8.53    2.74
   7  -8  -3    0.88    1.64
   7  -8  -2    1.27    1.59
   7  -7  -5    3.29    1.97
   7  -7  -4   21.72    3.96
   7  -7  -3    9.72    2.69
   7  -7  -3    9.21    2.51
  -7   7   2    0.50    1.28
   7  -7  -2    1.84    1.62
   7  -7  -2    1.72    1.75
  -7   7   1    7.48    2.68
   7  -7  -1    1.36    1.14
  -7   7   0    1.21    1.82
  -7   7   0    4.86    2.05
   7  -7   0    0.21    1.03
  -7   7  -1   -1.45    1.49
  -7   7  -1    1.47    1.49
  -7   7  -1    2.06    1.57
  -7   7  -2    0.99    1.68
   7  -7   2   -0.44    1.46
  -7   7  -2    1.27    1.57
  -7   7  -2    0.19    1.16
   7  -7   2    1.12    1.78
   7  -7   3    2.76    1.97
  -7   7  -3    3.17    1.91
  -7   7  -3    2.70    2.14
   7  -7   3   -1.06    1.77
   7  -6  -6   -0.38    1.08
   7  -6  -6    0.01    1.72
   7  -6  -5   14.66    3.10
   7  -6  -5   17.77    3.52
   7  -6  -4   27.71    4.21
  -7   6   4   28.14    4.44
   7  -6  -4   21.06    3.58
   7  -6  -4   18.77    3.24
   7  -6  -3    4.31    1.85
  -7   6   3    8.31    2.64
   7  -6  -3    5.64    2.11
   7  -6  -3    6.60    2.24
  -7   6   3    4.42    1.91
  -7   6   2    0.80    1.95
   7  -6  -2    1.97    1.32
  -7   6   2    2.75    1.80
   7  -6  -2    2.72    1.65
  -7   6   2    4.54    2.04
  -7   6   1    3.53    1.97
   7  -6  -1    5.33    2.27
  -7   6   1    6.17    2.23
   7  -6  -1    5.13    1.83
  -7   6   1    0.91    1.38
  -7   6   0   11.80    2.93
   7  -6   0    6.16    2.15
  -7   6   0   11.07    2.71
  -7   6   0    8.96    2.07
   7  -6   0   11.34    2.78
  -7   6   0    4.65    2.16
  -7   6  -1    1.32    1.73
   7  -6   1    2.93    1.74
  -7   6  -1    2.53    1.65
  -7   6  -1    1.68    1.42
   7  -6   1    3.45    1.81
   7  -6   1    0.84    1.28
  -7   6  -1    5.51    2.24
  -7   6  -2    6.30    2.17
   7  -6   2    6.32    1.92
  -7   6  -2    8.69    2.62
  -7   6  -2    5.82    2.22
   7  -6   2    6.39    2.21
  -7   6  -3   14.06    3.05
   7  -6   3   16.41    3.47
  -7   6  -3   11.57    2.86
  -7   6  -3   10.93    2.70
   7  -6   3   13.73    3.16
   7  -6   4    2.49    2.17
  -7   6  -4    3.03    1.80
   7  -5  -7    4.00    1.75
   7  -5  -7    1.75    1.58
   7  -5  -6   -1.43    1.48
  -7   5   6   -1.41    2.14
   7  -5  -6    1.08    1.45
   7  -5  -5   -2.27    1.60
  -7   5   5    1.74    1.66
   7  -5  -5   -4.00    2.08
   7  -5  -5    0.45    1.05
  -7   5   5    0.81    1.72
  -7   5   4    0.97    1.93
  -7   5   4    3.33    1.77
   7  -5  -4    1.43    1.85
   7  -5  -4    0.61    1.21
  -7   5   4   -0.07    1.34
  -7   5   3   -0.28    1.68
   7  -5  -3   -1.55    1.19
  -7   5   3    2.96    1.87
   7  -5  -3    0.55    1.44
   7  -5  -3    0.79    1.49
  -7   5   3    2.80    2.12
  -7   5   2    8.17    2.78
  -7   5   2    8.67    2.41
   7  -5  -2    6.39    1.88
   7  -5  -2    5.25    1.97
  -7   5   2    5.91    2.00
  -7   5   1   -0.68    1.70
  -7   5   1    0.75    1.53
  -7   5   1    1.79    1.03
   7  -5  -1   -0.13    1.32
  -7   5   1    0.43    1.49
  -7   5   0    1.85    1.72
   7  -5   0    4.39    1.85
  -7   5   0    1.36    1.75
   7  -5   0    0.77    1.11
  -7   5   0    1.74    1.07
   7  -5   0    1.31    1.13
   7  -5   0    3.05    1.67
  -7   5   0    3.27    1.83
  -7   5  -1    2.87    1.88
   7  -5   1   -1.35    1.39
  -7   5  -1   -0.69    1.22
   7  -5   1   -0.73    1.33
  -7   5  -1    0.82    1.10
   7  -5   1    0.01    1.24
   7  -5   1    0.49    1.11
  -7   5  -1    2.47    1.99
  -7   5  -2    5.96    2.13
   7  -5   2    4.66    1.89
  -7   5  -2    6.07    2.21
   7  -5   2    5.53    2.05
  -7   5  -2    7.23    2.20
   7  -5   2    5.45    1.92
   7  -5   2    3.24    1.61
  -7   5  -2   10.01    2.58
  -7   5  -3    1.46    1.37
   7  -5   3    0.48    1.39
  -7   5  -3    1.23    1.11
  -7   5  -3    1.31    1.47
   7  -5   3   -2.29    1.73
  -7   5  -4   -1.13    1.62
   7  -5   4   -1.60    2.20
  -7   5  -4    1.11    1.19
  -7   5  -4    0.64    1.17
   7  -5   4   -0.46    1.77
   7  -4  -8   16.24    2.97
   7  -4  -7    5.43    4.04
   7  -4  -7   11.94    2.88
   7  -4  -6    1.18    1.53
  -7   4   6   -0.37    1.44
   7  -4  -6    0.17    1.55
   7  -4  -6   -0.02    1.04
  -7   4   6   -0.17    1.57
  -7   4   5    4.98    2.46
   7  -4  -5    2.64    1.55
  -7   4   5    7.29    2.41
   7  -4  -5    3.77    2.05
   7  -4  -5    6.36    1.87
  -7   4   5    5.68    2.19
  -7   4   4   -0.18    1.70
  -7   4   4    3.67    2.02
   7  -4  -4    2.87    1.78
   7  -4  -4   -0.33    1.33
  -7   4   4   -0.66    1.18
  -7   4   3    0.24    1.64
  -7   4   3    0.78    1.31
   7  -4  -3   -1.44    1.61
   7  -4  -3    0.22    1.11
  -7   4   3   -0.94    1.68
  -7   4   2    1.64    1.49
  -7   4   2    0.74    1.58
  -7   4   2    0.51    0.72
   7  -4  -2    1.38    1.28
   7  -4  -2    0.64    1.20
  -7   4   2    0.41    1.14
  -7   4   1   -0.64    1.84
   7  -4  -1    1.11    1.12
  -7   4   1    1.54    1.68
   7  -4  -1   -0.88    1.07
  -7   4   1   -0.11    1.08
   7  -4  -1    1.22    1.15
   7  -4  -1    0.42    1.17
   7  -4  -1    2.70    1.59
  -7   4   1    1.09    1.53
  -7   4   0   29.67    4.29
   7  -4   0   22.23    3.24
  -7   4   0   22.35    3.37
   7  -4   0   23.41    3.29
  -7   4   0   18.46    2.78
   7  -4   0   21.13    3.15
   7  -4   0   23.43    3.74
  -7   4   0   27.38    4.21
  -7   4  -1   11.92    2.87
   7  -4   1    9.77    2.24
  -7   4  -1   11.85    2.62
   7  -4   1   10.81    2.71
  -7   4  -1    5.96    1.76
   7  -4   1   11.80    2.67
   7  -4   1    6.20    2.20
  -7   4  -1   10.31    2.76
  -7   4  -2    2.60    1.74
   7  -4   2    2.46    1.63
  -7   4  -2    1.26    1.13
   7  -4   2    4.04    1.97
  -7   4  -2    0.21    1.23
   7  -4   2    3.40    1.79
   7  -4   2    0.78    1.38
  -7   4  -2    0.07    1.52
  -7   4  -3   -2.13    1.70
   7  -4   3    0.66    1.61
  -7   4  -3    2.06    1.11
  -7   4  -3   -1.32    1.63
   7  -4   3    1.02    1.38
   7  -4   3    2.14    1.52
  -7   4  -3    2.05    1.54
  -7   4  -4    3.89    1.95
   7  -4   4    0.33    1.78
   7  -4   4    1.15    1.74
  -7   4  -4    3.66    2.05
   7  -4   4    3.62    2.13
  -7   4  -5    4.23    2.34
   7  -3  -8    6.44    1.99
   7  -3  -8    8.86    2.91
   7  -3  -7   10.13    2.31
   7  -3  -7   10.69    2.85
  -7   3   7    7.49    2.32
  -7   3   6    3.95    2.24
   7  -3  -6    2.44    1.57
   7  -3  -6    2.19    1.59
   7  -3  -6    0.67    1.09
  -7   3   6    3.73    1.73
  -7   3   5   14.85    3.38
  -7   3   5    9.44    2.50
   7  -3  -5   10.16    2.49
   7  -3  -5    7.27    1.94
  -7   3   5   10.79    2.62
  -7   3   4   -1.18    2.02
  -7   3   4    1.87    1.62
  -7   3   4    0.55    1.45
   7  -3  -4   -1.14    1.63
   7  -3  -4   -0.18    1.23
  -7   3   4   -0.36    1.32
  -7   3   3    8.81    2.81
  -7   3   3    4.35    1.72
  -7   3   3    6.58    2.06
  -7   3   3    4.62    1.23
   7  -3  -3    5.99    1.85
   7  -3  -3    2.12    1.18
  -7   3   3    6.85    2.29
  -7   3   2    0.51    1.70
  -7   3   2   -0.69    1.13
   7  -3  -2    1.00    0.95
  -7   3   2    1.94    1.62
   7  -3  -2   -1.01    1.25
  -7   3   2   -0.50    0.97
   7  -3  -2    0.76    1.05
   7  -3  -2   -0.26    1.02
   7  -3  -2    2.37    1.61
  -7   3   2   -0.28    1.51
  -7   3   1   26.10    3.94
  -7   3   1   26.79    3.10
   7  -3  -1   24.76    3.12
   7  -3  -1   24.47    3.16
  -7   3   1   21.29    3.20
   7  -3  -1   27.18    3.03
   7  -3  -1   24.56    3.15
   7  -3  -1   25.07    3.64
  -7   3   1   29.11    4.11
  -7   3   1   21.66    2.80
  -7   3   0   11.29    2.87
   7  -3   0    6.38    2.02
  -7   3   0    5.15    1.67
  -7   3   0    6.41    1.79
   7  -3   0    8.19    2.18
   7  -3   0    8.52    2.10
   7  -3   0    7.96    2.41
  -7   3   0    6.73    2.32
  -7   3  -1   51.41    5.44
   7  -3   1   42.93    4.64
  -7   3  -1   49.94    4.83
   7  -3   1   43.88    4.74
   7  -3   1   52.52    4.95
   7  -3   1   42.69    4.87
  -7   3  -1   47.15    5.28
  -7   3  -1   43.32    4.37
  -7   3  -2   11.26    2.71
   7  -3   2    2.59    1.73
  -7   3  -2    4.93    1.56
  -7   3  -2    4.17    1.77
   7  -3   2    6.01    2.17
   7  -3   2    3.75    1.80
   7  -3   2    3.50    1.75
  -7   3  -2    3.76    1.87
  -7   3  -3    0.64    1.49
   7  -3   3    5.98    2.42
  -7   3  -3    4.95    2.00
   7  -3   3    4.50    2.26
   7  -3   3    3.02    2.26
   7  -3   3    4.50    2.28
  -7   3  -3   -1.31    1.35
  -7   3  -4   16.72    3.25
   7  -3   4   16.38    3.59
  -7   3  -4   14.04    2.89
   7  -3   4   18.02    3.60
   7  -3   4   22.07    3.80
   7  -3   4   10.46    2.86
  -7   3  -4   15.68    3.40
  -7   3  -5    3.55    1.93
  -7   3  -6    3.83    2.14
  -7   2   8   -1.85    1.81
   7  -2  -8    0.48    0.94
   7  -2  -8    2.40    2.00
  -7   2   8    0.20    1.58
  -7   2   7   13.51    3.22
  -7   2   7   10.23    2.70
   7  -2  -7    7.58    1.91
   7  -2  -7    9.37    2.62
   7  -2  -7    8.64    2.14
  -7   2   7    7.39    2.46
  -7   2   6   -0.93    1.46
  -7   2   6    0.58    1.33
   7  -2  -6    1.22    1.62
   7  -2  -6    1.89    1.37
  -7   2   6   -0.85    1.16
  -7   2   5    8.44    2.68
  -7   2   5    9.95    2.48
   7  -2  -5    8.50    2.32
   7  -2  -5   12.66    2.61
  -7   2   5    8.41    2.51
  -7   2   4    4.81    2.25
  -7   2   4    1.55    1.45
  -7   2   4    1.08    1.51
   7  -2  -4    1.39    1.22
   7  -2  -4    0.60    1.30
  -7   2   4    1.12    1.33
  -7   2   3    3.67    2.27
  -7   2   3    1.50    1.72
  -7   2   3   -1.12    1.44
   7  -2  -3    2.39    1.21
   7  -2  -3    0.82    1.12
   7  -2  -3    0.81    0.95
   7  -2  -3   -0.52    1.20
  -7   2   3   -0.18    1.13
  -7   2   2    4.37    2.06
  -7   2   2    4.44    1.66
   7  -2  -2    2.88    1.13
  -7   2   2    3.86    1.32
  -7   2   2    6.03    1.61
   7  -2  -2    4.41    1.56
   7  -2  -2    5.00    1.58
   7  -2  -2    5.59    1.66
   7  -2  -2    3.64    1.69
  -7   2   2    4.66    2.06
  -7   2   1   18.96    3.54
  -7   2   1   18.51    2.67
   7  -2  -1   15.57    2.56
  -7   2   1   16.06    2.61
   7  -2  -1   20.75    2.51
   7  -2  -1   16.18    2.72
   7  -2  -1   19.58    2.86
   7  -2  -1   18.14    3.05
  -7   2   1   19.10    2.68
  -7   2   1   16.37    3.04
  -7   2   0    3.68    1.91
  -7   2   0    5.38    1.53
   7  -2   0    5.79    2.06
  -7   2   0    5.71    1.78
  -7   2   0    5.96    1.75
   7  -2   0    4.33    1.76
   7  -2   0    7.69    2.08
   7  -2   0    2.56    1.63
  -7   2   0    5.44    1.98
  -7   2  -1   50.97    5.40
   7  -2   1   43.53    4.69
  -7   2  -1   43.80    3.95
   7  -2   1   46.87    4.83
   7  -2   1   47.14    4.70
   7  -2   1   44.15    4.83
  -7   2  -1   50.68    5.35
  -7   2  -1   43.49    4.36
  -7   2  -2    0.99    1.70
   7  -2   2    2.23    1.67
  -7   2  -2    3.42    1.24
  -7   2  -2    2.34    1.51
   7  -2   2    1.56    1.52
   7  -2   2    4.03    1.80
   7  -2   2    1.50    1.27
  -7   2  -2    2.74    1.84
  -7   2  -3   14.67    3.30
   7  -2   3    8.03    2.72
  -7   2  -3   10.77    2.43
   7  -2   3   10.22    2.67
   7  -2   3    8.09    2.49
   7  -2   3   15.55    3.13
  -7   2  -3   13.54    3.07
  -7   2  -4   15.77    3.50
   7  -2   4   14.52    3.42
  -7   2  -4   13.66    2.92
   7  -2   4   13.69    3.27
   7  -2   4   13.95    3.48
   7  -2   4   13.10    3.16
  -7   2  -4   17.83    3.71
  -7   2  -5    3.97    2.08
  -7   2  -6    1.25    1.69
   7  -1  -9    1.20    1.98
  -7   1   8    1.85    1.72
  -7   1   8   -0.26    1.47
   7  -1  -8    0.56    0.73
   7  -1  -8    3.00    2.03
   7  -1  -8    1.53    1.00
  -7   1   8    4.50    2.15
  -7   1   7   15.56    3.45
  -7   1   7   12.11    2.73
   7  -1  -7   11.03    2.99
   7  -1  -7   11.62    2.39
  -7   1   7    9.31    2.43
  -7   1   6    2.24    1.61
  -7   1   6   -0.33    1.42
   7  -1  -6   -1.32    1.76
   7  -1  -6    0.54    1.06
  -7   1   6   -1.04    1.62
  -7   1   5    0.36    1.64
   7  -1  -5    1.89    0.99
  -7   1   5    3.36    1.80
   7  -1  -5    2.17    1.64
   7  -1  -5    0.27    1.25
  -7   1   5    2.90    1.85
  -7   1   4    0.17    1.88
   7  -1  -4    1.62    1.34
  -7   1   4    1.64    1.39
  -7   1   4   -1.02    0.94
   7  -1  -4    0.03    1.28
   7  -1  -4   -0.03    1.03
  -7   1   4    0.56    1.29
  -7   1   3    6.45    2.44
   7  -1  -3    5.78    1.86
  -7   1   3    7.46    2.31
   7  -1  -3    4.32    1.45
  -7   1   3    6.26    1.43
   7  -1  -3    4.59    1.45
  -7   1   3    3.69    1.48
   7  -1  -3    4.11    1.63
   7  -1  -3    4.96    1.42
   7  -1  -3    4.68    1.95
  -7   1   3    3.61    1.47
  -7   1   2   -1.41    2.07
  -7   1   2    1.62    1.52
   7  -1  -2   -0.05    1.03
  -7   1   2    0.41    0.88
  -7   1   2    0.96    1.13
   7  -1  -2    0.00    1.07
   7  -1  -2    0.30    0.95
   7  -1  -2    0.97    1.12
   7  -1  -2   -0.41    1.12
  -7   1   2    0.28    1.41
  -7   1   1    3.48    2.12
  -7   1   1    2.10    1.50
   7  -1  -1    4.22    1.54
  -7   1   1    2.24    1.10
  -7   1   1    2.94    1.29
   7  -1  -1    4.06    1.82
   7  -1  -1    1.63    1.50
   7  -1  -1    3.57    1.83
  -7   1   1    4.91    2.12
  -7   1   0   25.90    4.06
  -7   1   0   24.21    2.94
   7  -1   0   22.61    3.51
  -7   1   0   25.30    2.83
   7  -1   0   26.30    3.56
   7  -1   0   29.53    3.72
   7  -1   0   20.33    3.26
  -7   1   0   20.59    3.03
  -7   1   0   23.26    3.69
  -7   1  -1   14.06    3.44
  -7   1  -1   11.66    2.09
   7  -1   1   11.94    2.67
  -7   1  -1    9.61    2.31
  -7   1  -1   11.92    1.92
   7  -1   1   10.96    2.61
   7  -1   1   12.61    2.74
   7  -1   1    9.28    2.37
  -7   1  -1   10.92    2.56
  -7   1  -2   35.37    4.66
   7  -1   2   38.04    4.66
   7  -1   2   37.40    4.57
   7  -1   2   30.62    4.14
   7  -1   2   40.71    4.76
  -7   1  -2   33.60    4.42
  -7   1  -2   37.11    4.25
  -7   1  -3   17.46    3.54
   7  -1   3   16.21    3.34
  -7   1  -3   14.66    2.96
   7  -1   3   12.76    3.13
   7  -1   3   18.32    3.45
   7  -1   3   17.04    3.21
  -7   1  -3   15.74    3.15
  -7   1  -4    8.68    2.89
   7  -1   4    7.67    2.72
  -7   1  -4    5.64    2.11
   7  -1   4    6.30    2.39
   7  -1   4    4.41    2.33
   7  -1   4    5.85    2.23
  -7   1  -4    5.38    2.20
  -7   0  10    0.00    1.57
   7   0  -9   -4.87    2.26
  -7   0   9   -3.41    1.98
  -7   0   8    0.24    1.58
  -7   0   8    1.59    1.54
   7   0  -8    2.58    1.93
   7   0  -8   -1.22    1.31
  -7   0   8    4.33    2.41
  -7   0   8    0.91    1.58
  -7   0   7    1.27    1.50
   7   0  -7    1.51    1.19
  -7   0   7    2.62    1.62
   7   0  -7    2.37    1.92
   7   0  -7    0.78    1.50
  -7   0   7    1.67    1.32
  -7   0   7    1.96    1.45
  -7   0   6    8.28    2.67
   7   0  -6    4.11    1.62
  -7   0   6    8.87    2.69
   7   0  -6    3.97    1.94
   7   0  -6    3.31    1.87
  -7   0   6    4.50    1.74
  -7   0   6    3.32    1.68
  -7   0   5    3.80    2.10
   7   0  -5    4.67    1.76
  -7   0   5    4.17    2.04
   7   0  -5    2.43    1.57
   7   0  -5    1.32    1.38
  -7   0   5    3.17    1.64
  -7   0   5    2.19    1.48
  -7   0   4   12.08    3.05
   7   0  -4    8.46    1.92
  -7   0   4    5.68    1.99
   7   0  -4    8.58    1.76
  -7   0   4    8.17    1.52
   7   0  -4    9.73    1.88
   7   0  -4    8.49    2.23
   7   0  -4    7.30    1.46
   7   0  -4    8.84    2.31
  -7   0   4    9.63    1.95
  -7   0   4    9.68    2.42
  -7   0   3    4.29    2.18
   7   0  -3    3.10    1.27
  -7   0   3    2.16    1.40
   7   0  -3    6.14    1.86
  -7   0   3    2.87    1.15
   7   0  -3    3.66    1.63
   7   0  -3    1.64    1.16
   7   0  -3   -0.40    1.22
  -7   0   3    5.52    1.57
  -7   0   3    2.86    1.53
  -7   0   2    5.29    2.28
   7   0  -2    1.26    1.18
  -7   0   2    2.21    1.53
   7   0  -2    3.26    1.65
  -7   0   2    1.87    0.91
   7   0  -2    3.06    1.43
   7   0  -2    3.37    1.49
   7   0  -2    3.11    1.46
  -7   0   2    5.23    2.06
  -7   0   1    0.11    1.84
  -7   0   1    0.54    1.09
   7   0  -1   -0.64    1.20
  -7   0   1    0.85    0.95
   7   0  -1   -0.66    1.38
   7   0  -1    0.09    1.22
   7   0  -1    0.02    1.48
  -7   0   1    1.50    1.43
  -7   0   0    2.66    1.89
  -7   0   0    0.28    1.16
   7   0   0    0.27    1.31
  -7   0   0   -0.47    1.37
   7   0   0   -0.65    1.25
   7   0   0   -0.04    1.36
   7   0   0    0.48    1.27
  -7   0   0   -0.44    1.25
  -7   0  -1    2.73    2.21
  -7   0  -1    2.17    1.35
   7   0   1    2.48    1.59
  -7   0  -1    3.30    1.70
   7   0   1    2.42    1.80
   7   0   1    1.28    1.55
   7   0   1    3.08    1.60
  -7   0  -1    2.82    1.53
  -7   0  -2   36.95    5.01
   7   0   2   27.16    4.15
   7   0   2   25.23    4.00
   7   0   2   29.89    4.23
   7   0   2   32.38    4.34
  -7   0  -2   30.16    4.14
  -7   0  -2   27.80    3.69
   7   0   3    7.68    2.36
  -7   0  -3    7.35    2.12
   7   0   3    7.42    2.43
   7   0   3    5.37    2.20
   7   0   3    6.39    2.33
  -7   0  -3    7.74    2.29
   7   0   4   10.59    2.91
  -7   0  -4    8.43    2.40
   7   0   4    8.81    2.71
   7   0   4   10.09    2.94
   7   0   4   12.41    2.89
  -7   0  -4   10.06    2.68
  -7  -1  10    3.71    2.46
   7   1  -9    7.96    2.04
  -7  -1   9    9.49    2.62
   7   1  -9    8.54    2.15
   7   1  -9    4.59    2.12
   7   1  -9    5.15    1.92
  -7  -1   9    7.04    2.65
  -7  -1   9    4.83    2.34
   7   1  -8   -0.38    1.11
  -7  -1   8   -1.32    1.69
   7   1  -8    1.87    1.55
  -7  -1   8    1.19    1.56
   7   1  -8   -4.67    2.13
   7   1  -8   -0.12    1.49
  -7  -1   8   -0.53    1.65
  -7  -1   8   -0.53    1.95
  -7  -1   8   -2.73    1.84
  -7  -1   7   -0.24    1.65
   7   1  -7    1.93    1.34
  -7  -1   7    2.43    2.03
   7   1  -7   -1.64    1.76
   7   1  -7    1.51    1.49
  -7  -1   7   -1.89    1.61
  -7  -1   7   -0.21    1.36
  -7  -1   6    1.62    1.64
   7   1  -6    1.31    1.13
  -7  -1   6    1.53    1.59
   7   1  -6    2.08    1.36
  -7  -1   6   -2.00    2.13
  -7  -1   6    1.08    1.55
  -7  -1   6   -1.66    1.79
  -7  -1   5    0.94    1.53
   7   1  -5    1.09    1.19
  -7  -1   5    0.50    1.11
  -7  -1   5    0.04    0.67
   7   1  -5   -1.47    1.41
  -7  -1   5    0.31    1.38
  -7  -1   5   -0.49    1.22
  -7  -1   5    1.25    1.56
   7   1  -4   42.53    4.35
  -7  -1   4   49.82    5.38
  -7  -1   4   42.86    4.68
   7   1  -4   48.35    3.99
   7   1  -4   53.88    4.16
   7   1  -4   45.91    3.80
   7   1  -4   52.15    5.15
  -7  -1   4   49.21    4.62
  -7  -1   4   49.53    3.84
  -7  -1   4   44.35    4.56
  -7  -1   4   49.54    4.45
   7   1  -3   26.99    3.59
  -7  -1   3   38.92    4.91
  -7  -1   3   33.08    4.00
   7   1  -3   32.10    3.57
   7   1  -3   34.17    3.65
   7   1  -3   29.16    3.35
   7   1  -3   36.26    4.37
  -7  -1   3   28.10    3.13
  -7  -1   3   30.94    3.78
  -7  -1   3   36.14    3.53
  -7  -1   2    5.37    2.53
   7   1  -2    6.44    2.11
  -7  -1   2    4.85    1.65
  -7  -1   2    4.50    1.47
   7   1  -2    5.58    1.83
   7   1  -2    4.27    1.76
   7   1  -2    5.45    1.88
   7   1  -2    5.33    2.11
  -7  -1   2    2.27    1.41
  -7  -1   1   -1.93    2.16
   7   1  -1    2.25    1.35
  -7  -1   1    0.07    1.14
  -7  -1   1   -0.21    1.31
   7   1  -1    0.13    1.29
   7   1  -1    2.11    1.78
   7   1  -1   -0.07    1.22
   7   1  -1    0.33    1.22
  -7  -1   1    2.12    1.71
  -7  -1   0    8.81    2.64
  -7  -1   0    7.17    2.08
   7   1   0    8.67    2.45
  -7  -1   0    5.46    1.78
   7   1   0    6.09    2.21
   7   1   0    5.08    2.05
   7   1   0    4.49    1.87
  -7  -1   0    5.84    2.10
  -7  -1  -1    2.19    2.21
  -7  -1  -1   -0.05    0.91
   7   1   1   -0.13    1.44
  -7  -1  -1   -0.53    1.18
   7   1   1   -0.12    1.39
   7   1   1   -0.27    1.51
   7   1   1   -2.54    1.92
  -7  -1  -1   -0.35    1.47
   7   1   2    4.36    2.23
  -7  -1  -2    3.59    1.35
   7   1   2    7.11    2.48
   7   1   2    3.21    1.85
   7   1   2   -0.47    1.42
  -7  -1  -2    3.83    1.91
   7   1   3   -2.29    1.80
  -7  -1  -3   -0.46    1.00
   7   1   3    1.19    1.87
   7   1   3    0.76    1.82
   7   1   3   -1.22    1.79
  -7  -1  -3   -0.42    1.36
   7   1   4    1.39    1.74
  -7  -1  -4    2.14    1.50
   7   1   4   -0.28    1.65
   7   1   4    0.58    1.67
   7   1   4    3.10    1.96
  -7  -1  -4    3.64    2.13
   7   2 -10    7.42    2.46
   7   2 -10    4.47    1.67
   7   2  -9    7.04    2.40
  -7  -2   9    4.16    1.79
   7   2  -9   -3.11    1.68
   7   2  -9   -1.29    1.59
  -7  -2   9    2.43    2.05
  -7  -2   9    0.81    1.65
  -7  -2   8   46.20    5.33
  -7  -2   8   38.05    5.18
   7   2  -8   34.25    4.37
  -7  -2   8   38.35    5.09
  -7  -2   8   39.44    5.09
  -7  -2   8   36.52    4.50
   7   2  -8   38.38    4.31
   7   2  -8   43.22    4.73
  -7  -2   7   20.25    3.83
   7   2  -7   19.16    3.22
  -7  -2   7   14.52    3.29
   7   2  -7   12.90    2.85
  -7  -2   7   12.77    2.96
  -7  -2   7   15.15    3.35
  -7  -2   7   11.36    2.69
  -7  -2   6   56.29    5.85
  -7  -2   6   52.25    5.66
   7   2  -6   46.12    4.96
  -7  -2   6   44.79    5.01
  -7  -2   6   44.02    4.58
  -7  -2   6   43.39    4.77
   7   2  -6   41.40    4.50
  -7  -2   5    8.10    2.47
   7   2  -5   11.38    2.46
  -7  -2   5   11.58    2.73
  -7  -2   5   11.37    1.95
   7   2  -5   10.80    1.99
   7   2  -5   12.91    2.29
   7   2  -5   10.66    2.06
   7   2  -5   11.85    2.82
  -7  -2   5   14.44    3.31
  -7  -2   5   10.67    2.57
  -7  -2   5   14.14    2.72
  -7  -2   4    0.48    1.49
   7   2  -4    0.08    1.28
  -7  -2   4   -1.61    1.61
  -7  -2   4    0.54    1.00
   7   2  -4    0.11    1.06
   7   2  -4   -0.06    1.03
   7   2  -4   -1.61    1.30
   7   2  -4    0.16    1.09
  -7  -2   4   -0.35    1.16
  -7  -2   4   -0.83    1.20
  -7  -2   4   -0.22    1.10
  -7  -2   3    9.17    2.55
   7   2  -3    4.47    1.90
  -7  -2   3    4.73    1.92
  -7  -2   3    7.22    1.82
   7   2  -3    7.29    1.99
   7   2  -3    7.00    2.00
   7   2  -3    6.05    1.81
   7   2  -3    7.88    2.27
  -7  -2   3    5.60    1.69
  -7  -2   3    8.27    1.92
  -7  -2   3    7.49    2.07
   7   2  -2   32.03    3.91
  -7  -2   2   49.54    5.70
  -7  -2   2   36.45    4.25
   7   2  -2   40.42    4.29
   7   2  -2   32.72    3.95
   7   2  -2   34.82    3.91
   7   2  -2   35.47    4.39
  -7  -2   2   33.41    3.63
  -7  -2   2   32.80    3.83
  -7  -2   2   36.59    3.42
  -7  -2   1    1.36    1.65
   7   2  -1   -2.17    1.70
  -7  -2   1    1.98    1.37
  -7  -2   1   -0.86    1.32
   7   2  -1    1.55    1.64
   7   2  -1    1.66    1.85
   7   2  -1    1.71    1.50
   7   2  -1    0.61    1.20
  -7  -2   1   -1.23    1.45
  -7  -2   0    9.89    2.45
  -7  -2   0   10.44    2.40
   7   2   0   12.17    3.03
   7   2   0   12.19    2.91
   7   2   0   13.30    2.73
   7   2   0    7.51    2.45
  -7  -2   0   13.45    2.81
  -7  -2  -1    0.29    1.13
  -7  -2  -1   -0.40    1.44
   7   2   1   -1.30    1.61
   7   2   1    2.38    1.80
   7   2   1   -0.93    1.55
  -7  -2  -1    1.99    1.56
  -7  -2  -2    0.50    1.07
   7   2   2    0.89    1.97
  -7  -2  -2   -0.86    1.38
   7   2   2    1.67    1.93
   7   2   2   -1.17    1.89
   7   2   2   -2.42    1.90
  -7  -2  -2    0.12    1.23
   7   2   3    2.89    1.99
  -7  -2  -3   -0.80    1.03
   7   2   3    0.85    1.58
   7   2   3    1.13    1.51
   7   2   3   -0.91    1.52
  -7  -2  -3   -1.60    1.59
   7   2   4    7.26    2.38
  -7  -2  -4    6.14    2.22
   7   3 -10   -0.17    1.74
  -7  -3  10   -2.61    2.47
   7   3 -10    0.14    1.48
  -7  -3  10    2.98    1.89
   7   3  -9    7.00    2.32
  -7  -3   9   10.23    3.00
   7   3  -9    6.19    2.18
   7   3  -9    7.66    2.34
  -7  -3   9    5.39    2.19
  -7  -3   9    6.27    2.61
   7   3  -8   -0.01    1.34
  -7  -3   8    5.16    2.40
   7   3  -8    0.43    1.27
  -7  -3   8    3.07    2.10
   7   3  -8    1.82    1.61
  -7  -3   8    2.36    1.66
  -7  -3   8   -0.23    1.40
  -7  -3   7    9.26    2.72
   7   3  -7   13.20    2.92
  -7  -3   7   11.38    2.93
   7   3  -7   16.08    3.10
  -7  -3   7   13.61    3.01
  -7  -3   7    9.79    2.68
  -7  -3   7   12.40    2.62
  -7  -3   6    1.23    1.98
   7   3  -6    0.22    1.16
  -7  -3   6    1.29    0.92
  -7  -3   6    0.24    1.21
   7   3  -6    1.04    1.47
  -7  -3   6    2.31    1.40
  -7  -3   6    2.99    1.98
  -7  -3   6    0.18    1.11
  -7  -3   5   24.33    3.98
   7   3  -5   15.64    2.98
  -7  -3   5   21.85    3.79
   7   3  -5   17.89    2.69
   7   3  -5   17.35    2.72
   7   3  -5   22.12    3.00
   7   3  -5   20.09    3.53
  -7  -3   5   19.95    2.65
  -7  -3   5   19.42    3.31
  -7  -3   5   24.22    3.62
  -7  -3   5   19.60    3.03
  -7  -3   4   41.02    5.12
  -7  -3   4   33.77    4.41
   7   3  -4   37.97    4.14
   7   3  -4   36.44    3.94
   7   3  -4   35.60    3.86
   7   3  -4   33.32    4.35
  -7  -3   4   30.02    3.82
  -7  -3   4   34.91    3.56
  -7  -3   4   37.53    4.02
  -7  -3   4   39.46    4.30
   7   3  -4   32.44    4.05
  -7  -3   3   20.90    3.96
   7   3  -3   14.72    2.84
  -7  -3   3   18.02    3.28
  -7  -3   3   16.05    2.70
   7   3  -3   20.73    3.22
   7   3  -3   16.92    2.94
   7   3  -3   17.44    2.90
   7   3  -3   25.00    3.84
  -7  -3   3   18.13    2.84
  -7  -3   3   20.56    2.97
  -7  -3   3   18.61    2.83
  -7  -3   2    5.27    2.37
   7   3  -2    3.18    1.56
  -7  -3   2    3.59    1.48
  -7  -3   2    0.95    1.27
   7   3  -2    3.33    1.60
   7   3  -2    1.45    1.55
   7   3  -2    3.01    1.61
   7   3  -2    2.20    1.50
  -7  -3   2    1.65    1.08
  -7  -3   2    0.25    1.35
  -7  -3   1    0.55    1.64
   7   3  -1   -0.47    1.00
  -7  -3   1    0.73    1.32
  -7  -3   1    0.10    1.23
   7   3  -1    0.81    1.63
   7   3  -1    2.23    1.47
   7   3  -1    0.91    1.59
   7   3  -1    0.62    1.50
  -7  -3   1    0.83    1.14
   7   3   0    2.10    1.24
  -7  -3   0    0.25    1.27
  -7  -3   0    1.26    1.17
   7   3   0   -2.49    1.85
   7   3   0    0.79    1.63
   7   3   0   -0.59    1.42
   7   3   0    0.22    1.17
  -7  -3   0    1.52    1.44
  -7  -3  -1    0.21    1.26
  -7  -3  -1   -0.22    1.18
   7   3   1    1.98    1.73
   7   3   1   -1.95    1.97
   7   3   1   -2.76    1.91
   7   3   1   -0.21    1.44
  -7  -3  -1   -0.06    1.20
  -7  -3  -2   -1.20    1.40
  -7  -3  -2   -0.10    1.23
   7   3   2   -2.10    1.66
   7   3   2   -1.37    2.12
   7   3   2   -1.25    1.34
  -7  -3  -2    0.44    1.28
  -7  -3  -3    0.05    1.47
   7   3   3    1.24    1.83
   7   3   3    5.54    2.36
   7   3   3    3.35    2.09
   7   3   3   -2.85    1.87
  -7  -3  -3    2.94    1.65
  -7  -3  -4    0.59    1.38
  -7  -4  10   -1.83    1.63
   7   4  -9    2.55    2.10
  -7  -4   9   -1.76    1.77
   7   4  -9    0.74    1.34
  -7  -4   9    0.08    1.89
   7   4  -8    7.26    2.33
  -7  -4   8    9.75    2.92
   7   4  -8    5.22    2.12
  -7  -4   8   10.34    3.02
  -7  -4   8    5.13    2.30
  -7  -4   7    3.82    2.15
   7   4  -7    2.61    1.96
  -7  -4   7    5.24    2.64
  -7  -4   7    4.61    2.13
  -7  -4   7    1.10    1.71
  -7  -4   7    3.16    1.56
  -7  -4   6   20.77    3.78
   7   4  -6   18.74    3.34
  -7  -4   6   15.59    2.41
  -7  -4   6   18.86    3.69
  -7  -4   6   12.56    2.97
  -7  -4   6   17.63    3.46
  -7  -4   6   16.35    2.74
  -7  -4   5   -0.43    1.86
   7   4  -5    0.02    1.08
  -7  -4   5   -0.22    1.06
  -7  -4   5   -0.14    1.46
   7   4  -5    2.45    1.63
   7   4  -5    0.00    1.17
   7   4  -5    1.68    1.62
   7   4  -5    3.33    1.70
  -7  -4   5    0.21    1.46
  -7  -4   5    2.46    1.65
  -7  -4   5   -0.18    1.04
  -7  -4   4   -3.10    2.51
   7   4  -4    0.28    1.04
  -7  -4   4    1.54    1.17
  -7  -4   4    0.79    1.28
   7   4  -4    0.54    1.44
   7   4  -4    4.53    1.80
   7   4  -4    1.34    1.38
   7   4  -4    1.20    1.37
  -7  -4   4   -0.26    1.47
  -7  -4   4   -1.05    1.54
  -7  -4   4    0.35    0.99
  -7  -4   3    9.17    2.92
   7   4  -3    6.07    2.11
  -7  -4   3    7.48    1.83
  -7  -4   3    8.77    2.54
   7   4  -3   10.21    2.66
   7   4  -3    8.79    2.43
   7   4  -3    7.80    2.28
   7   4  -3    8.32    2.56
  -7  -4   3    8.72    2.17
  -7  -4   3    8.81    2.32
  -7  -4   3    8.73    1.91
  -7  -4   2   -1.33    1.85
   7   4  -2    0.84    1.51
  -7  -4   2    0.99    1.54
  -7  -4   2    0.75    1.28
   7   4  -2   -1.86    1.91
   7   4  -2    3.01    1.98
   7   4  -2    0.19    1.37
   7   4  -2   -0.75    1.32
  -7  -4   2    0.05    1.35
  -7  -4   2    0.86    1.00
   7   4  -1    5.96    2.23
  -7  -4   1    4.30    1.74
  -7  -4   1    7.17    2.13
   7   4  -1    5.67    2.30
   7   4  -1    5.49    2.56
   7   4  -1    8.50    2.34
   7   4  -1    2.47    1.68
  -7  -4   1    9.93    2.16
   7   4   0    3.93    1.93
  -7  -4   0   -0.93    1.87
  -7  -4   0    2.19    1.48
   7   4   0    2.04    1.63
   7   4   0   -1.58    2.21
   7   4   0    3.70    1.80
   7   4   0    2.54    1.64
  -7  -4   0    0.83    1.03
  -7  -4  -1    1.02    1.67
  -7  -4  -1    4.70    1.94
   7   4   1    1.75    1.78
   7   4   1    3.63    2.43
   7   4   1    1.24    1.61
   7   4   1   -0.80    1.32
  -7  -4  -1   -0.07    1.15
  -7  -4  -2    0.65    1.65
  -7  -4  -2    2.18    1.77
   7   4   2   -0.36    1.98
   7   4   2    5.00    2.60
   7   4   2    0.38    1.64
   7   4   2    0.75    1.35
  -7  -4  -2    1.07    1.05
  -7  -4  -3    5.58    2.02
  -7  -4  -4    3.63    2.01
  -7  -5   9   -3.85    2.37
  -7  -5   8    1.40    1.52
   7   5  -8    3.78    1.64
  -7  -5   8    5.05    2.38
  -7  -5   8    7.48    2.82
  -7  -5   7    7.35    2.36
   7   5  -7    6.67    2.19
  -7  -5   7    3.61    2.21
  -7  -5   7    6.31    2.31
  -7  -5   6    1.57    1.88
   7   5  -6    3.28    1.74
  -7  -5   6    0.19    0.96
  -7  -5   6    1.72    1.52
   7   5  -6    5.25    1.90
   7   5  -6   -0.59    1.45
   7   5  -6    2.38    1.67
  -7  -5   6    0.71    1.63
  -7  -5   6    3.60    2.00
  -7  -5   5   -0.67    1.61
   7   5  -5   -1.17    1.42
  -7  -5   5    1.70    1.31
  -7  -5   5    4.12    2.45
   7   5  -5    2.06    1.70
   7   5  -5    1.32    1.61
  -7  -5   5    0.24    1.70
  -7  -5   5    1.30    1.83
  -7  -5   4    0.51    1.77
   7   5  -4   -0.59    1.15
  -7  -5   4    1.97    1.44
  -7  -5   4   -0.07    1.43
   7   5  -4   -0.54    1.37
   7   5  -4    0.19    1.34
   7   5  -4    1.34    1.61
  -7  -5   4    0.80    1.38
  -7  -5   4    2.64    1.79
  -7  -5   3   10.36    2.86
   7   5  -3    7.58    2.35
  -7  -5   3    8.42    2.35
  -7  -5   3    5.35    2.25
   7   5  -3    5.37    2.10
   7   5  -3   12.48    2.94
   7   5  -3    8.04    2.34
   7   5  -3   11.43    2.84
  -7  -5   3    4.20    1.85
  -7  -5   3    7.09    2.24
   7   5  -2    6.98    2.36
  -7  -5   2    4.90    1.80
  -7  -5   2    6.24    2.14
   7   5  -2    4.81    2.23
   7   5  -2    5.23    1.98
   7   5  -2    3.90    1.74
   7   5  -2    4.18    1.92
  -7  -5   2    5.58    2.17
   7   5  -1    0.87    1.47
   7   5  -1    0.68    1.59
   7   5  -1    0.19    1.51
   7   5  -1    0.70    1.69
   7   5  -1    0.42    1.36
   7   5   0   -1.44    1.42
  -7  -5   0    4.11    2.60
  -7  -5   0    0.28    1.32
   7   5   0    1.30    1.78
   7   5   0    4.47    2.67
   7   5   0   -3.18    2.36
   7   5   0   -0.15    1.40
  -7  -5  -1    3.55    2.14
  -7  -5  -1    1.36    1.34
   7   5   1    2.33    1.71
   7   5   1    3.29    2.03
   7   5   1   -0.95    2.24
   7   5   1   -0.20    1.27
  -7  -5  -2   -1.46    1.95
  -7  -6   8    2.15    1.87
  -7  -6   7    1.32    2.20
  -7  -6   7    2.74    1.32
  -7  -6   7    1.41    1.51
  -7  -6   7    0.90    2.06
  -7  -6   6    4.64    2.23
  -7  -6   6    3.29    1.57
   7   6  -6    4.73    2.12
   7   6  -6    6.56    2.48
   7   6  -6    0.07    1.70
  -7  -6   6    1.79    1.67
  -7  -6   6    7.59    3.00
  -7  -6   5   -4.21    2.24
   7   6  -5   -0.21    1.25
  -7  -6   5    3.80    1.93
  -7  -6   5    3.09    1.99
   7   6  -5    2.69    1.67
   7   6  -5    1.41    1.58
   7   6  -5    0.23    1.39
  -7  -6   5    4.43    2.09
  -7  -6   5    4.11    2.37
  -7  -6   4   -0.08    1.79
   7   6  -4   -0.98    1.60
  -7  -6   4   -1.93    1.45
  -7  -6   4   -0.47    1.80
   7   6  -4    0.47    1.48
   7   6  -4    1.36    1.89
   7   6  -4   -2.37    1.69
  -7  -6   4    1.43    1.69
  -7  -6   4    2.13    2.59
  -7  -6   3    5.31    2.27
   7   6  -3    6.67    2.12
  -7  -6   3    4.31    1.90
  -7  -6   3    0.57    1.77
   7   6  -3    5.11    2.68
   7   6  -3    5.50    2.25
   7   6  -3    8.72    2.57
  -7  -6   3    6.31    2.24
  -7  -6   2    5.45    1.89
  -7  -6   2    6.46    2.52
   7   6  -2    5.32    2.36
   7   6  -2    9.63    3.09
   7   6  -2    9.27    2.96
   7   6  -2    6.99    2.28
  -7  -6   1    6.10    2.34
  -7  -6   1    0.84    1.28
   7   6  -1   -1.44    2.00
   7   6  -1    2.37    1.88
   7   6  -1    3.06    2.14
  -7  -6   0    2.49    1.98
  -7  -6  -1    4.68    2.35
  -7  -6  -2    0.94    1.98
  -7  -7   7    0.00    1.45
  -7  -7   7    1.00    1.17
  -7  -7   6    0.31    1.67
  -7  -7   6    2.44    1.61
   7   7  -6   -1.27    1.85
   7   7  -6   -1.29    1.64
   7   7  -6   -1.48    1.98
  -7  -7   6    0.64    1.72
  -7  -7   6   -0.50    1.89
  -7  -7   5   -4.19    2.34
  -7  -7   5    2.29    1.84
   7   7  -5    1.75    1.90
   7   7  -5    2.82    1.94
   7   7  -5    1.46    1.84
  -7  -7   5    2.07    2.11
  -7  -7   5    0.00    1.62
  -7  -7   4    0.72    2.09
  -7  -7   4    2.49    1.64
   7   7  -4    1.16    1.76
   7   7  -4    1.46    1.35
   7   7  -4    2.45    2.06
  -7  -7   4   -0.65    1.66
  -7  -7   3    4.84    1.96
   7   7  -3    4.63    2.28
   7   7  -3    7.92    2.66
   7   7  -3   10.58    2.96
  -7  -7   3    4.96    1.56
  -7  -8   4    1.55    2.21
   8  -5  -4   12.86    3.16
  -8   5   3    0.96    1.85
   8  -5  -3    0.86    1.36
  -8   5   2   16.10    3.25
  -8   5   1    2.10    1.65
  -8   5   0    4.88    2.15
   8  -4  -6    1.53    1.74
   8  -4  -5    1.86    1.77
   8  -4  -5    1.44    1.66
  -8   4   4    6.02    2.52
   8  -4  -4    8.75    2.59
  -8   4   3    3.68    2.33
   8  -4  -3    0.03    1.30
  -8   4   2    1.44    1.69
   8  -4  -2    1.25    1.18
  -8   4   1    6.42    2.07
  -8   4   0   24.20    3.72
  -8   4  -1    0.10    1.09
   8  -4   2   -2.38    1.90
   8  -4   2    2.37    1.97
  -8   4  -2    1.10    1.63
   8  -4   2    0.88    1.38
   8  -3  -6    0.64    1.46
   8  -3  -6    3.65    2.05
   8  -3  -6    0.95    1.32
   8  -3  -5    2.89    1.58
   8  -3  -5    2.89    1.95
  -8   3   4   -2.40    1.70
   8  -3  -4   10.86    2.60
  -8   3   3    2.75    1.62
   8  -3  -3    2.00    1.56
  -8   3   2    2.09    1.77
   8  -3  -2   -0.93    1.49
  -8   3   1    2.39    2.16
  -8   3   1    0.80    1.12
   8  -3  -1   -0.12    1.61
  -8   3   0    4.28    2.15
  -8   3   0   -0.30    1.15
   8  -3   1    2.78    1.97
   8  -3   1    5.99    2.36
  -8   3  -1    3.72    1.74
   8  -3   1    7.02    2.33
   8  -3   2   -0.63    1.51
  -8   3  -2   -0.59    1.60
   8  -3   2    4.07    1.93
   8  -3   2    2.71    1.88
   8  -2  -7    3.80    1.50
   8  -2  -7    2.96    2.03
  -8   2   6    0.83    1.40
   8  -2  -6    3.17    1.99
   8  -2  -6    0.11    1.26
  -8   2   5    0.54    1.36
   8  -2  -5    0.17    1.28
   8  -2  -5   -2.05    1.47
  -8   2   4    0.19    1.41
   8  -2  -4    0.24    1.23
  -8   2   4    0.57    1.28
  -8   2   3    1.80    1.82
  -8   2   3   -0.03    1.27
  -8   2   3    2.25    1.66
   8  -2  -3   -1.07    1.32
  -8   2   3   -1.91    1.49
  -8   2   2   15.13    3.57
  -8   2   2   13.47    2.68
   8  -2  -2   13.31    2.93
  -8   2   2   11.00    2.75
  -8   2   1   11.51    3.17
  -8   2   1   11.06    2.26
   8  -2  -1   10.93    2.72
  -8   2   1    9.53    2.48
  -8   2   0    0.25    1.99
   8  -2   0    2.84    1.85
  -8   2   0   -0.40    1.33
   8  -2   0   -1.30    1.73
   8  -2   0    2.17    1.17
   8  -2   1    4.88    1.84
  -8   2  -1    3.71    1.82
   8  -2   1   -0.06    1.60
   8  -2   1    2.99    1.70
   8  -2   2    4.58    2.15
  -8   2  -2    5.22    1.54
   8  -2   2    9.95    2.77
   8  -2   2   11.72    2.93
   8  -1  -7    0.57    1.74
   8  -1  -7   -0.23    1.24
  -8   1   6    1.35    1.44
   8  -1  -6    4.52    2.30
   8  -1  -6    1.34    1.55
  -8   1   5   -0.53    1.69
   8  -1  -5   -2.39    1.65
   8  -1  -5    0.39    1.14
  -8   1   5    0.04    1.44
  -8   1   4    1.95    1.53
   8  -1  -4    2.49    1.40
  -8   1   4    2.56    1.91
  -8   1   3    2.91    1.95
  -8   1   3    1.46    1.27
   8  -1  -3    1.87    1.77
  -8   1   3    1.82    1.54
  -8   1   2    8.05    2.93
  -8   1   2    1.81    1.29
  -8   1   2    2.09    1.10
   8  -1  -2    2.35    1.43
  -8   1   2    3.18    1.41
  -8   1   1    0.39    1.77
   8  -1  -1    2.11    1.67
  -8   1   1    1.19    1.20
   8  -1  -1    0.80    1.24
   8  -1  -1    1.57    1.31
   8  -1  -1    3.98    1.85
  -8   1   1   -0.47    1.40
  -8   1   0    2.81    2.09
   8  -1   0    4.00    1.73
  -8   1   0    3.10    1.80
   8  -1   0    4.84    2.12
   8  -1   0    3.22    1.94
  -8   1   0    8.08    2.79
   8  -1   1    3.54    1.59
  -8   1  -1    6.46    2.34
   8  -1   1    5.53    2.05
   8  -1   1    7.76    2.48
   8  -1   2   11.66    3.20
  -8   1  -2   12.34    2.79
   8  -1   2    9.13    2.60
   8  -1   2    6.68    2.21
   8   0  -7    0.78    1.57
   8   0  -7    1.96    1.61
  -8   0   6    0.71    1.72
   8   0  -6   -0.86    1.56
  -8   0   6   -2.19    1.75
   8   0  -5    0.88    1.30
  -8   0   5    3.43    1.96
   8   0  -5    3.52    1.66
  -8   0   5    4.01    2.09
  -8   0   4    0.30    1.53
   8   0  -4    0.25    1.22
  -8   0   4   -1.64    1.54
   8   0  -4    0.23    1.10
  -8   0   4   -3.20    1.99
  -8   0   3   -1.95    2.32
  -8   0   3   -0.49    1.52
   8   0  -3    0.56    1.23
  -8   0   3   -3.05    1.84
  -8   0   2   -0.10    1.64
  -8   0   2   -1.61    1.63
  -8   0   2    0.38    1.15
   8   0  -2   -1.54    1.37
  -8   0   2   -1.20    1.77
  -8   0   1   -2.92    2.14
   8   0  -1    0.07    1.22
   8   0  -1   -1.22    1.30
   8   0  -1    0.48    1.41
   8   0  -1   -3.07    1.73
  -8   0   1   -1.02    1.55
   8   0   0    0.61    1.57
  -8   0   0    2.25    1.56
   8   0   0    3.71    1.90
   8   0   0   -0.90    1.35
  -8   0   0   -0.16    1.31
   8   0   1    6.28    2.33
  -8   0  -1    7.93    2.38
   8   0   1    4.41    2.20
   8   0   1    9.42    2.73
  -8   0  -1    9.62    2.82
   8   0   2    1.37    1.90
  -8   0  -2    2.54    1.63
   8   0   2    3.05    2.12
   8   0   2    4.27    2.29
   8   1  -8    1.92    1.49
  -8  -1   8   -3.48    2.08
   8   1  -7    3.31    1.92
  -8  -1   7    5.06    2.39
   8   1  -6    0.44    1.30
  -8  -1   6    2.75    1.71
   8   1  -6   -1.42    1.51
  -8  -1   6   -2.64    1.87
   8   1  -5   -1.98    1.78
  -8  -1   5    1.36    2.00
   8   1  -5   -0.33    1.43
  -8  -1   5    3.06    1.94
   8   1  -4   -1.07    1.35
  -8  -1   4    0.48    1.72
   8   1  -4   -0.68    1.33
  -8  -1   4    2.63    1.99
  -8  -1   3    5.27    2.56
   8   1  -3    1.42    1.26
  -8  -1   3    2.30    1.94
  -8  -1   3    1.39    0.95
   8   1  -3   -1.36    1.45
  -8  -1   3   -2.41    1.62
  -8  -1   2    0.28    1.94
  -8  -1   2    2.04    1.92
   8   1  -2   -4.24    2.22
  -8  -1   2   -0.67    1.26
   8   1  -2    2.59    1.80
   8   1  -2   -1.46    1.40
   8   1  -2    1.53    1.30
  -8  -1   2    6.35    2.30
  -8  -1   1    4.16    2.04
   8   1  -1    0.85    1.48
  -8  -1   1    0.63    1.18
   8   1  -1   -1.36    1.57
   8   1  -1    0.40    1.32
   8   1  -1    2.02    1.78
  -8  -1   1   -1.49    1.64
   8   1   0    0.11    1.30
  -8  -1   0    0.32    1.22
   8   1   0    0.81    1.39
   8   1   0   -0.36    1.50
  -8  -1   0    1.12    1.81
   8   1   1    4.62    2.44
  -8  -1  -1    0.72    1.32
   8   1   1    0.09    1.40
   8   1   1    2.05    1.71
  -8  -1  -1    0.14    1.42
   8   2  -8    2.34    1.83
  -8  -2   8   -0.45    1.90
  -8  -2   8   -1.24    1.87
  -8  -2   8    2.75    1.89
   8   2  -7    8.64    2.46
   8   2  -7   -3.60    1.83
  -8  -2   7    3.82    1.93
  -8  -2   7    3.93    2.87
   8   2  -6    5.30    2.04
  -8  -2   6    3.76    1.95
   8   2  -6    0.50    1.11
  -8  -2   6    2.48    1.60
   8   2  -5   -1.24    1.18
  -8  -2   5    1.01    1.73
   8   2  -5    0.36    1.64
  -8  -2   5    0.62    1.33
   8   2  -4   -0.40    1.34
  -8  -2   4    1.00    1.51
   8   2  -4   -2.02    1.57
  -8  -2   4   -0.79    1.52
   8   2  -3   -0.74    1.47
  -8  -2   3   -2.66    2.15
  -8  -2   3   -0.13    1.06
   8   2  -3    1.65    1.29
  -8  -2   3    1.99    1.50
   8   2  -2    3.23    1.74
  -8  -2   2   -0.84    1.27
   8   2  -2    0.49    1.57
  -8  -2   2   -0.67    1.14
   8   2  -2   -0.41    1.35
   8   2  -2   -2.88    1.67
  -8  -2   2   -1.52    1.56
  -8  -2   1   -0.52    1.28
   8   2  -1    3.95    1.80
  -8  -2   1    2.30    1.36
   8   2  -1    0.90    1.38
   8   2  -1    0.67    1.82
  -8  -2   1   -0.35    1.38
   8   2   0    4.63    2.01
  -8  -2   0   -1.10    1.45
   8   2   0    0.76    1.63
   8   2   0    1.29    1.62
  -8  -2   0    3.14    1.81
   8   2   1   -0.32    1.68
   8   2   1   -1.59    2.08
   8   2   1   -2.71    2.54
   8   3  -7    3.29    1.88
  -8  -3   7    2.80    2.13
  -8  -3   7    3.62    2.24
   8   3  -6   27.87    4.02
  -8  -3   6   23.72    3.74
   8   3  -5   24.53    3.80
  -8  -3   5   26.16    4.22
  -8  -3   5   25.80    3.70
   8   3  -4    0.17    1.21
  -8  -3   4    1.15    1.28
  -8  -3   4    2.88    1.57
  -8  -3   4    0.49    1.21
   8   3  -3    0.31    1.14
  -8  -3   3    2.59    1.98
   8   3  -3   -0.62    1.46
   8   3  -3   -2.07    1.58
   8   3  -3   -0.85    1.45
  -8  -3   3   -1.99    1.62
   8   3  -2   -0.51    1.57
  -8  -3   2    5.11    2.00
  -8  -3   2    1.59    1.48
   8   3  -2    2.87    1.88
   8   3  -2    1.15    1.67
   8   3  -2    1.11    1.28
  -8  -3   2    2.31    1.52
  -8  -3   1    0.59    1.25
  -8  -3   1   -0.44    1.22
   8   3  -1    2.15    1.70
   8   3  -1    1.44    1.40
   8   3  -1   -2.57    1.94
  -8  -3   1   -2.75    1.87
  -8  -3   0   -0.21    1.34
   8   3   0   -1.49    1.67
   8   3   0    3.50    1.93
   8   3   0   -0.41    1.47
  -8  -3   0    0.97    1.54
  -8  -3  -1    3.78    1.90
  -8  -4   4   27.35    3.65
  -8  -4   3    2.81    1.79
   8   4  -3    2.37    1.94
   8   4  -3    3.53    2.10
   8   4  -3    0.95    1.39
  -8  -4   3    4.63    4.09
  -8  -4   2   11.08    2.83
  -8  -4   2    6.08    2.22
   8   4  -2    3.84    2.03
   8   4  -2    4.45    1.84
   8   4  -2    8.84    2.64
  -8  -4   1    0.44    1.65
   8   4  -1    2.42    2.02
   8   4  -1   -1.40    1.95
   8   4  -1   -2.80    2.21
  -8  -5   4   10.25    2.47
  -8  -5   3   -2.42    1.87
   8   5  -3    1.22    1.97
   8   5  -3   -0.87    1.51
   8   5  -3    2.86    1.82


TITL kga-5 in P-1
REM P-1 (#2 in standard setting)
CELL 0.71073   6.118122   9.415496  10.191402  99.3826 100.6048  91.2196
ZERR    3.00   0.000292   0.000380   0.000356   0.0032   0.0035   0.0036
LATT  1
SFAC C H N O
UNIT 33.00 30.00 3.00 3.00
TREF
HKLF 4
END
_computing_structure_solution     'SHELXT 2014/4 (Sheldrick, 2014)'
;
_shelx_hkl_checksum              36173
_olex2_date_sample_data_collection 2017-04-14
_olex2_submission_special_instructions 'No special instructions were received'
_oxdiff_exptl_absorpt_empirical_details
;
Empirical correction (ABSPACK) includes:
- Absorption correction using spherical harmonics
- Frame scaling
;
_oxdiff_exptl_absorpt_empirical_full_max 1.247
_oxdiff_exptl_absorpt_empirical_full_min 0.776
loop_
_space_group_symop_operation_xyz
'x, y, z'
'-x, -y, -z'
loop_
_atom_site_label
_atom_site_type_symbol
_atom_site_fract_x
_atom_site_fract_y
_atom_site_fract_z
_atom_site_U_iso_or_equiv
_atom_site_adp_type
_atom_site_occupancy
_atom_site_site_symmetry_order
_atom_site_calc_flag
_atom_site_refinement_flags_posn
_atom_site_refinement_flags_adp
_atom_site_refinement_flags_occupancy
_atom_site_disorder_assembly
_atom_site_disorder_group
O2 O 0.43870(14) 0.75362(8) 0.47854(7) 0.0412(2) Uani 1 1 d . . . . .
O3 O 0.11480(14) 1.07888(9) 0.20234(9) 0.0471(2) Uani 1 1 d . . . . .
O1 O 0.80450(15) 0.69699(10) 0.58054(9) 0.0491(2) Uani 1 1 d . . . . .
H1 H 0.794(3) 0.7592(19) 0.6469(18) 0.074 Uiso 1 1 d . U . . .
N1 N 0.19120(15) 0.80563(10) 0.28018(9) 0.0362(2) Uani 1 1 d . . . . .
F1 F 0.32723(19) 0.30198(10) -0.01153(9) 0.0838(3) Uani 1 1 d . . . . .
C6 C 0.37881(19) 0.57797(11) 0.28089(11) 0.0379(3) Uani 1 1 d . . . . .
C7 C 0.27043(19) 0.69789(12) 0.35836(11) 0.0377(3) Uani 1 1 d . . . . .
H7 H 0.143569 0.655907 0.387839 0.045 Uiso 1 1 calc R U . . .
C1 C 0.59002(19) 0.55770(12) 0.35025(11) 0.0392(3) Uani 1 1 d . . . . .
C8 C 0.36484(19) 0.88611(13) 0.23782(12) 0.0416(3) Uani 1 1 d . . . . .
H8A H 0.458445 0.819756 0.193487 0.050 Uiso 1 1 calc R U . . .
H8B H 0.457510 0.944551 0.316355 0.050 Uiso 1 1 calc R U . . .
C11 C 0.0495(2) 0.90640(13) 0.34444(13) 0.0439(3) Uani 1 1 d . . . . .
H11A H 0.137081 0.965594 0.424430 0.053 Uiso 1 1 calc R U . . .
H11B H -0.066925 0.853562 0.372330 0.053 Uiso 1 1 calc R U . . .
C10 C -0.0531(2) 1.00078(14) 0.24641(14) 0.0490(3) Uani 1 1 d . . . . .
H10B H -0.146300 0.941567 0.168587 0.059 Uiso 1 1 calc R U . . .
H10A H -0.146560 1.068112 0.289701 0.059 Uiso 1 1 calc R U . . .
C9 C 0.2579(2) 0.98140(14) 0.14152(13) 0.0498(3) Uani 1 1 d . . . . .
H9B H 0.372967 1.035864 0.114086 0.060 Uiso 1 1 calc R U . . .
H9A H 0.172326 0.921836 0.061015 0.060 Uiso 1 1 calc R U . . .
C2 C 0.7140(2) 0.44900(13) 0.29486(14) 0.0504(3) Uani 1 1 d . . . . .
H2 H 0.855963 0.433931 0.339942 0.060 Uiso 1 1 calc R U . . .
C5 C 0.2850(2) 0.49367(13) 0.15831(12) 0.0483(3) Uani 1 1 d . . . . .
H5 H 0.143103 0.507723 0.112490 0.058 Uiso 1 1 calc R U . . .
C4 C 0.4134(3) 0.38828(14) 0.10838(13) 0.0552(4) Uani 1 1 d . . . . .
C3 C 0.6236(3) 0.36382(14) 0.17210(15) 0.0583(4) Uani 1 1 d . . . . .
H3 H 0.704024 0.291082 0.133352 0.070 Uiso 1 1 calc R U . . .
B1 B 0.6242(2) 0.67359(14) 0.48095(13) 0.0388(3) Uani 1 1 d . . . . .
loop_
_atom_site_aniso_label
_atom_site_aniso_U_11
_atom_site_aniso_U_22
_atom_site_aniso_U_33
_atom_site_aniso_U_23
_atom_site_aniso_U_13
_atom_site_aniso_U_12
O2 0.0486(5) 0.0413(4) 0.0317(4) 0.0046(3) 0.0036(3) 0.0064(3)
O3 0.0509(5) 0.0398(4) 0.0488(5) 0.0094(4) 0.0029(4) 0.0054(4)
O1 0.0488(5) 0.0472(5) 0.0450(5) 0.0042(4) -0.0040(4) 0.0027(4)
N1 0.0342(5) 0.0387(5) 0.0369(5) 0.0082(4) 0.0080(4) 0.0052(4)
F1 0.1151(8) 0.0650(6) 0.0565(5) -0.0229(4) 0.0092(5) -0.0073(5)
C6 0.0447(6) 0.0325(5) 0.0369(6) 0.0082(4) 0.0068(5) -0.0006(4)
C7 0.0379(6) 0.0395(6) 0.0357(6) 0.0078(4) 0.0057(4) 0.0006(4)
C1 0.0437(6) 0.0325(5) 0.0421(6) 0.0087(5) 0.0072(5) 0.0020(5)
C8 0.0398(6) 0.0458(6) 0.0435(6) 0.0121(5) 0.0143(5) 0.0067(5)
C11 0.0379(6) 0.0474(7) 0.0493(7) 0.0088(5) 0.0150(5) 0.0069(5)
C10 0.0389(6) 0.0454(7) 0.0596(8) 0.0070(6) 0.0025(5) 0.0065(5)
C9 0.0620(8) 0.0496(7) 0.0420(6) 0.0137(5) 0.0150(6) 0.0080(6)
C2 0.0540(7) 0.0395(6) 0.0591(8) 0.0101(6) 0.0121(6) 0.0100(5)
C5 0.0553(7) 0.0437(7) 0.0418(6) 0.0043(5) 0.0017(5) -0.0031(6)
C4 0.0789(10) 0.0391(6) 0.0435(7) -0.0038(5) 0.0117(7) -0.0058(6)
C3 0.0789(10) 0.0368(6) 0.0614(8) -0.0001(6) 0.0254(8) 0.0100(6)
B1 0.0443(7) 0.0341(6) 0.0383(6) 0.0110(5) 0.0050(5) -0.0001(5)
loop_
_atom_type_symbol
_atom_type_description
_atom_type_scat_dispersion_real
_atom_type_scat_dispersion_imag
_atom_type_scat_source
C C 0.0033 0.0016 'International Tables Vol C Tables 4.2.6.8 and 6.1.1.4'
H H 0.0000 0.0000 'International Tables Vol C Tables 4.2.6.8 and 6.1.1.4'
B B 0.0013 0.0007 'International Tables Vol C Tables 4.2.6.8 and 6.1.1.4'
F F 0.0171 0.0103 'International Tables Vol C Tables 4.2.6.8 and 6.1.1.4'
N N 0.0061 0.0033 'International Tables Vol C Tables 4.2.6.8 and 6.1.1.4'
O O 0.0106 0.0060 'International Tables Vol C Tables 4.2.6.8 and 6.1.1.4'
loop_
_geom_angle_atom_site_label_1
_geom_angle_atom_site_label_2
_geom_angle_atom_site_label_3
_geom_angle
_geom_angle_site_symmetry_1
_geom_angle_site_symmetry_3
_geom_angle_publ_flag
B1 O2 C7 110.22(9) . . ?
C9 O3 C10 110.21(9) . . ?
B1 O1 H1 115.8(12) . . ?
C7 N1 C8 114.65(9) . . ?
C7 N1 C11 113.67(9) . . ?
C11 N1 C8 109.32(9) . . ?
C1 C6 C7 111.17(10) . . ?
C5 C6 C7 126.36(11) . . ?
C5 C6 C1 122.45(11) . . ?
O2 C7 C6 104.89(9) . . ?
O2 C7 H7 108.3 . . ?
N1 C7 O2 113.51(9) . . ?
N1 C7 C6 113.33(9) . . ?
N1 C7 H7 108.3 . . ?
C6 C7 H7 108.3 . . ?
C6 C1 C2 119.21(11) . . ?
C6 C1 B1 104.65(10) . . ?
C2 C1 B1 136.14(11) . . ?
N1 C8 H8A 109.8 . . ?
N1 C8 H8B 109.8 . . ?
N1 C8 C9 109.18(10) . . ?
H8A C8 H8B 108.3 . . ?
C9 C8 H8A 109.8 . . ?
C9 C8 H8B 109.8 . . ?
N1 C11 H11A 109.7 . . ?
N1 C11 H11B 109.7 . . ?
N1 C11 C10 109.67(10) . . ?
H11A C11 H11B 108.2 . . ?
C10 C11 H11A 109.7 . . ?
C10 C11 H11B 109.7 . . ?
O3 C10 C11 110.98(10) . . ?
O3 C10 H10A 109.4 . . ?
O3 C10 H10B 109.4 . . ?
C11 C10 H10A 109.4 . . ?
C11 C10 H10B 109.4 . . ?
H10A C10 H10B 108.0 . . ?
O3 C9 C8 111.53(9) . . ?
O3 C9 H9A 109.3 . . ?
O3 C9 H9B 109.3 . . ?
C8 C9 H9A 109.3 . . ?
C8 C9 H9B 109.3 . . ?
H9A C9 H9B 108.0 . . ?
C1 C2 H2 120.4 . . ?
C3 C2 C1 119.26(12) . . ?
C3 C2 H2 120.4 . . ?
C6 C5 H5 122.0 . . ?
C4 C5 C6 116.06(12) . . ?
C4 C5 H5 122.0 . . ?
F1 C4 C5 118.12(13) . . ?
F1 C4 C3 117.84(13) . . ?
C5 C4 C3 124.03(12) . . ?
C2 C3 H3 120.5 . . ?
C4 C3 C2 118.99(12) . . ?
C4 C3 H3 120.5 . . ?
O2 B1 C1 108.97(10) . . ?
O1 B1 O2 123.96(11) . . ?
O1 B1 C1 127.05(11) . . ?
loop_
_geom_bond_atom_site_label_1
_geom_bond_atom_site_label_2
_geom_bond_distance
_geom_bond_site_symmetry_2
_geom_bond_publ_flag
O2 C7 1.4624(13) . ?
O2 B1 1.3741(16) . ?
O3 C10 1.4293(15) . ?
O3 C9 1.4287(15) . ?
O1 H1 0.832(18) . ?
O1 B1 1.3418(16) . ?
N1 C7 1.4287(14) . ?
N1 C8 1.4595(14) . ?
N1 C11 1.4569(14) . ?
F1 C4 1.3610(15) . ?
C6 C7 1.5072(16) . ?
C6 C1 1.3871(16) . ?
C6 C5 1.3833(16) . ?
C7 H7 0.9800 . ?
C1 C2 1.3943(17) . ?
C1 B1 1.5564(17) . ?
C8 H8A 0.9700 . ?
C8 H8B 0.9700 . ?
C8 C9 1.5074(16) . ?
C11 H11A 0.9700 . ?
C11 H11B 0.9700 . ?
C11 C10 1.5046(17) . ?
C10 H10A 0.9700 . ?
C10 H10B 0.9700 . ?
C9 H9A 0.9700 . ?
C9 H9B 0.9700 . ?
C2 H2 0.9300 . ?
C2 C3 1.3835(19) . ?
C5 H5 0.9300 . ?
C5 C4 1.3697(19) . ?
C4 C3 1.372(2) . ?
C3 H3 0.9300 . ?
loop_
_geom_torsion_atom_site_label_1
_geom_torsion_atom_site_label_2
_geom_torsion_atom_site_label_3
_geom_torsion_atom_site_label_4
_geom_torsion
_geom_torsion_site_symmetry_1
_geom_torsion_site_symmetry_2
_geom_torsion_site_symmetry_3
_geom_torsion_site_symmetry_4
_geom_torsion_publ_flag
N1 C8 C9 O3 58.31(13) . . . . ?
N1 C11 C10 O3 -58.75(13) . . . . ?
F1 C4 C3 C2 -179.29(12) . . . . ?
C6 C1 C2 C3 -0.05(18) . . . . ?
C6 C1 B1 O2 -1.18(12) . . . . ?
C6 C1 B1 O1 -179.83(12) . . . . ?
C6 C5 C4 F1 179.54(11) . . . . ?
C6 C5 C4 C3 -0.2(2) . . . . ?
C7 O2 B1 O1 -178.45(11) . . . . ?
C7 O2 B1 C1 2.84(12) . . . . ?
C7 N1 C8 C9 172.52(9) . . . . ?
C7 N1 C11 C10 -171.46(9) . . . . ?
C7 C6 C1 C2 178.78(10) . . . . ?
C7 C6 C1 B1 -0.91(12) . . . . ?
C7 C6 C5 C4 -178.43(11) . . . . ?
C1 C6 C7 O2 2.54(12) . . . . ?
C1 C6 C7 N1 126.89(10) . . . . ?
C1 C6 C5 C4 -0.18(17) . . . . ?
C1 C2 C3 C4 -0.3(2) . . . . ?
C8 N1 C7 O2 55.12(12) . . . . ?
C8 N1 C7 C6 -64.41(12) . . . . ?
C8 N1 C11 C10 59.03(12) . . . . ?
C11 N1 C7 O2 -71.65(12) . . . . ?
C11 N1 C7 C6 168.82(9) . . . . ?
C11 N1 C8 C9 -58.50(12) . . . . ?
C10 O3 C9 C8 -57.63(13) . . . . ?
C9 O3 C10 C11 57.55(13) . . . . ?
C2 C1 B1 O2 179.21(13) . . . . ?
C2 C1 B1 O1 0.6(2) . . . . ?
C5 C6 C7 O2 -179.04(10) . . . . ?
C5 C6 C7 N1 -54.69(15) . . . . ?
C5 C6 C1 C2 0.30(17) . . . . ?
C5 C6 C1 B1 -179.40(11) . . . . ?
C5 C4 C3 C2 0.4(2) . . . . ?
B1 O2 C7 N1 -127.52(10) . . . . ?
B1 O2 C7 C6 -3.28(11) . . . . ?
B1 C1 C2 C3 179.53(13) . . . . ?
