#------------------------------------------------------------------------------
#$Date: 2022-02-04 21:19:41 +0200 (Fri, 04 Feb 2022) $
#$Revision: 272610 $
#$URL: file:///home/coder/svn-repositories/cod/cif/7/24/41/7244182.cif $
#------------------------------------------------------------------------------
#
# This file is available in the Crystallography Open Database (COD),
# http://www.crystallography.net/
#
# All data on this site have been placed in the public domain by the
# contributors.
#
data_7244182
loop_
_publ_author_name
'Vaganova, Tamara A.'
'Benassi, Enrico'
'Gatilov, Yurij V.'
'Chuikov, Igor P.'
'Pishchur, Denis P.'
'Malykhin, Evgenij V.'
_publ_section_title
;
 Polyhalogenated aminobenzonitriles vs. their co-crystals with 18-crown-6:
 amino group position as a tool to control crystal packing and solid-state
 fluorescence
;
_journal_issue                   5
_journal_name_full               CrystEngComm
_journal_page_first              987
_journal_page_last               1001
_journal_paper_doi               10.1039/D1CE01469B
_journal_volume                  24
_journal_year                    2022
_chemical_formula_moiety         '2(C7 H2 Cl F3 N1), C12 H24 O6'
_chemical_formula_sum            'C26 H28 Cl2 F6 N4 O6'
_chemical_formula_weight         677.42
_chemical_melting_point          371
_chemical_name_systematic
;
2-amino-4-chloro-3,5,6-trifluorobenzonitrile 18-crown-6 associate 2:1
;
_space_group_crystal_system      triclinic
_space_group_IT_number           2
_space_group_name_Hall           '-P 1'
_space_group_name_H-M_alt        'P -1'
_atom_sites_solution_hydrogens   mixed
_atom_sites_solution_primary     direct
_atom_sites_solution_secondary   difmap
_audit_creation_method           SHELXL-2018/3
_audit_update_record
;
2021-10-27 deposited with the CCDC.	2021-12-20 downloaded from the CCDC.
;
_cell_angle_alpha                111.749(2)
_cell_angle_beta                 97.219(3)
_cell_angle_gamma                116.798(2)
_cell_formula_units_Z            1
_cell_length_a                   9.4276(6)
_cell_length_b                   9.9092(6)
_cell_length_c                   10.3213(7)
_cell_measurement_reflns_used    9914
_cell_measurement_temperature    296(2)
_cell_measurement_theta_max      27.88
_cell_measurement_theta_min      2.27
_cell_volume                     747.91(9)
_computing_cell_refinement       'Bruker SAINT'
_computing_data_collection       'Bruker APEX2'
_computing_data_reduction        'Bruker SAINT'
_computing_molecular_graphics    'Bruker SHELXTL'
_computing_publication_material  'Bruker SHELXTL'
_computing_structure_refinement  'SHELXL-2018/3 (Sheldrick, 2018)'
_computing_structure_solution    'SHELXS-97 (Sheldrick, 2008)'
_diffrn_ambient_temperature      296(2)
_diffrn_measured_fraction_theta_full 0.999
_diffrn_measured_fraction_theta_max 0.998
_diffrn_measurement_device_type  'Bruker APEX-II CCD'
_diffrn_measurement_method       '\f and \w scans'
_diffrn_radiation_type           MoK\a
_diffrn_radiation_wavelength     0.71073
_diffrn_reflns_av_R_equivalents  0.0226
_diffrn_reflns_av_unetI/netI     0.0135
_diffrn_reflns_Laue_measured_fraction_full 0.999
_diffrn_reflns_Laue_measured_fraction_max 0.998
_diffrn_reflns_limit_h_max       12
_diffrn_reflns_limit_h_min       -12
_diffrn_reflns_limit_k_max       13
_diffrn_reflns_limit_k_min       -13
_diffrn_reflns_limit_l_max       13
_diffrn_reflns_limit_l_min       -13
_diffrn_reflns_number            20110
_diffrn_reflns_point_group_measured_fraction_full 0.999
_diffrn_reflns_point_group_measured_fraction_max 0.998
_diffrn_reflns_theta_full        25.242
_diffrn_reflns_theta_max         27.910
_diffrn_reflns_theta_min         2.271
_diffrn_source                   'sealed tube'
_exptl_absorpt_coefficient_mu    0.301
_exptl_absorpt_correction_T_max  0.8372
_exptl_absorpt_correction_T_min  0.8058
_exptl_absorpt_correction_type   multi-scan
_exptl_absorpt_process_details   SADABS-2008/1
_exptl_crystal_colour            colourless
_exptl_crystal_density_diffrn    1.504
_exptl_crystal_description       prism
_exptl_crystal_F_000             348
_exptl_crystal_size_max          0.570
_exptl_crystal_size_mid          0.390
_exptl_crystal_size_min          0.310
_refine_diff_density_max         0.339
_refine_diff_density_min         -0.342
_refine_diff_density_rms         0.036
_refine_ls_extinction_method     none
_refine_ls_goodness_of_fit_ref   1.031
_refine_ls_hydrogen_treatment    mixed
_refine_ls_matrix_type           full
_refine_ls_number_parameters     207
_refine_ls_number_reflns         3585
_refine_ls_number_restraints     2
_refine_ls_restrained_S_all      1.032
_refine_ls_R_factor_all          0.0420
_refine_ls_R_factor_gt           0.0355
_refine_ls_shift/su_max          0.001
_refine_ls_shift/su_mean         0.000
_refine_ls_structure_factor_coef Fsqd
_refine_ls_weighting_details
'w=1/[\s^2^(Fo^2^)+(0.0434P)^2^+0.2376P] where P=(Fo^2^+2Fc^2^)/3'
_refine_ls_weighting_scheme      calc
_refine_ls_wR_factor_gt          0.0925
_refine_ls_wR_factor_ref         0.0988
_reflns_Friedel_coverage         0.000
_reflns_number_gt                3092
_reflns_number_total             3585
_reflns_threshold_expression     'I > 2\s(I)'
_cod_data_source_file            d1ce01469b2.cif
_cod_data_source_block           2Dcr-M25
_cod_depositor_comments
'Adding full bibliography for 7244175--7244182.cif.'
_cod_original_cell_volume        747.91(8)
_cod_database_code               7244182
_shelx_shelxl_version_number     2018/3
_shelx_space_group_comment
;
The symmetry employed for this shelxl refinement is uniquely defined
by the following loop, which should always be used as a source of
symmetry information in preference to the above space-group names.
They are only intended as comments.
;
_shelx_estimated_absorpt_t_min   0.847
_shelx_estimated_absorpt_t_max   0.912
_shelx_res_file
;
TITL M25_0m in P-1
    M25.res
    created by SHELXL-2018/3 at 15:51:22 on 01-May-2020
CELL 0.71073   9.4276   9.9092  10.3213 111.749  97.219 116.798
ZERR    1.00   0.0006   0.0006   0.0007   0.002   0.003   0.002
LATT  1
SFAC C H N O F CL
UNIT 26 28 4 6 6 2
TEMP 23.000
SIZE 0.31 0.39 0.57
L.S. 10
ACTA
BOND
FMAP 2
PLAN 5
dfix 0.90 N1 h1  N1 h2
WGHT    0.043400    0.237600
FVAR       0.35436
CL1   6    1.328455    1.105145    0.915632    11.00000    0.04121    0.04777 =
         0.05827    0.02276    0.01937    0.00838
F1    5    0.977458    0.917963    0.718539    11.00000    0.05416    0.05051 =
         0.05446    0.03613    0.01537    0.01719
N2    3    0.621403    0.419741    0.918053    11.00000    0.06410    0.06749 =
         0.06932    0.04560    0.02335    0.01332
C1    1    0.874684    0.664940    0.909016    11.00000    0.04104    0.03752 =
         0.03716    0.02014    0.01587    0.01748
N1    3    0.696263    0.651587    0.706243    11.00000    0.03733    0.04221 =
         0.04594    0.02525    0.01064    0.01508
H1    2    0.696344    0.662034    0.627738    11.00000    0.06125
H2    2    0.617704    0.546477    0.683514    11.00000    0.05817
C2    1    0.851119    0.720315    0.805312    11.00000    0.03635    0.03273 =
         0.03363    0.01507    0.01429    0.01761
F2    5    1.330364    0.947728    1.107667    11.00000    0.04337    0.08097 =
         0.06522    0.03295   -0.00311    0.01785
C3    1    0.996942    0.859612    0.814413    11.00000    0.04160    0.03415 =
         0.03360    0.01739    0.01612    0.01808
F3    5    1.054729    0.690715    1.109445    11.00000    0.07077    0.08373 =
         0.06333    0.05172    0.01023    0.02999
C4    1    1.155904    0.937360    0.913614    11.00000    0.03664    0.03451 =
         0.03761    0.01301    0.01621    0.01341
C5    1    1.175740    0.877523    1.012022    11.00000    0.03724    0.04791 =
         0.03886    0.01563    0.00638    0.01751
C6    1    1.036136    0.744755    1.010556    11.00000    0.05107    0.04994 =
         0.03821    0.02479    0.01259    0.02460
C7    1    0.732891    0.527227    0.912777    11.00000    0.05093    0.04961 =
         0.04310    0.02841    0.01598    0.02049
O1    4    0.216611    0.506582    0.583310    11.00000    0.06281    0.05080 =
         0.05218    0.02851    0.02851    0.03569
O2    4    0.350951    0.306621    0.579972    11.00000    0.04449    0.04508 =
         0.05407    0.03224    0.02091    0.02402
O3    4    0.638287    0.284767    0.560101    11.00000    0.05856    0.05399 =
         0.06255    0.03282    0.02476    0.03144
C8    1    0.234868    0.668564    0.626269    11.00000    0.08609    0.05685 =
         0.08458    0.03546    0.05492    0.04685
AFIX  23
H8A   2    0.341812    0.758737    0.707880    11.00000   -1.20000
H8B   2    0.143751    0.668561    0.660699    11.00000   -1.20000
AFIX   0
C9    1    0.254978    0.482936    0.707327    11.00000    0.05378    0.07153 =
         0.04636    0.02920    0.02401    0.03600
AFIX  23
H9A   2    0.179546    0.489670    0.761734    11.00000   -1.20000
H9B   2    0.370828    0.573175    0.774093    11.00000   -1.20000
AFIX   0
C10   1    0.234040    0.311101    0.654001    11.00000    0.04972    0.06948 =
         0.05771    0.04496    0.02691    0.03102
AFIX  23
H10A  2    0.255475    0.291677    0.737822    11.00000   -1.20000
H10B  2    0.118737    0.220849    0.585928    11.00000   -1.20000
AFIX   0
C11   1    0.349215    0.151803    0.537482    11.00000    0.05307    0.04213 =
         0.06021    0.03173    0.01210    0.02181
AFIX  23
H11A  2    0.235832    0.052642    0.472900    11.00000   -1.20000
H11B  2    0.382041    0.142456    0.625162    11.00000   -1.20000
AFIX   0
C12   1    0.471586    0.156080    0.457132    11.00000    0.07196    0.05158 =
         0.05034    0.02667    0.01636    0.04065
AFIX  23
H12A  2    0.459481    0.044609    0.413204    11.00000   -1.20000
H12B  2    0.448300    0.181579    0.377786    11.00000   -1.20000
AFIX   0
C13   1    0.769571    0.295471    0.502418    11.00000    0.07714    0.06593 =
         0.10711    0.05518    0.04950    0.05293
AFIX  23
H13A  2    0.763928    0.187470    0.471273    11.00000   -1.20000
H13B  2    0.877945    0.385767    0.582218    11.00000   -1.20000

AFIX   0
HKLF 4




REM  M25_0m in P-1
REM wR2 = 0.0988, GooF = S = 1.031, Restrained GooF = 1.032 for all data
REM R1 = 0.0355 for 3092 Fo > 4sig(Fo) and 0.0420 for all 3585 data
REM 207 parameters refined using 2 restraints

END

WGHT      0.0445      0.2330

REM Highest difference peak  0.339,  deepest hole -0.342,  1-sigma level  0.036
Q1    1   1.3561  1.0655  0.9611  11.00000  0.05    0.34
Q2    1   0.9272  0.7758  0.8065  11.00000  0.05    0.23
Q3    1   0.5642  0.2553  0.4966  11.00000  0.05    0.22
Q4    1   1.0995  0.8445  1.0314  11.00000  0.05    0.20
Q5    1   1.1108  0.7845  0.9800  11.00000  0.05    0.20
;
_shelx_res_checksum              62333
_shelx_hkl_file
;
  -1   0   0    7.36    0.19
  -1   0   0    7.34    0.17
  -1   0   0    7.28    0.22
  -1   0   0    7.37    0.20
  -1   0   0    6.11    0.23
  -1   0   0    7.39    0.23
   1   0   0    7.30    0.23
   1   0   0    6.90    0.23
   1   0   0    7.14    0.20
   1   0   0    7.07    0.17
   1   0   0    6.74    0.19
   1   0   0    7.15    0.20
   1   0   0    7.21    0.22
  -2   0   0  447.84   12.07
  -2   0   0  454.60   10.60
  -2   0   0  443.23   10.97
  -2   0   0  461.84   12.61
  -2   0   0  437.99   12.61
   2   0   0  441.33   10.88
   2   0   0  449.50   10.59
   2   0   0  433.91    9.41
   2   0   0  430.79   10.96
   2   0   0  460.54   12.61
   2   0   0  431.99   12.60
  -3   0   0  455.39   12.37
  -3   0   0  457.09   10.87
  -3   0   0  450.61   11.23
  -3   0   0  438.48   12.92
  -3   0   0  466.77   12.92
   3   0   0  448.99    9.67
   3   0   0  471.17   12.93
   3   0   0  458.05   12.92
   3   0   0  445.67   11.23
   3   0   0  452.94   11.16
   3   0   0  461.03   10.86
  -4   0   0    1.71    0.09
  -4   0   0    1.75    0.09
  -4   0   0    1.73    0.07
  -4   0   0    1.76    0.10
   4   0   0    1.64    0.08
   4   0   0    1.80    0.07
   4   0   0    1.66    0.09
   4   0   0    1.68    0.09
   4   0   0    1.56    0.09
   4   0   0    1.57    0.08
  -5   0   0    0.49    0.06
  -5   0   0    0.22    0.05
  -5   0   0    0.33    0.04
  -5   0   0    0.27    0.05
   5   0   0    0.20    0.04
   5   0   0    0.14    0.04
   5   0   0    0.24    0.04
   5   0   0    0.27    0.04
   5   0   0    0.25    0.03
   5   0   0    0.23    0.05
  -6   0   0   78.30    2.29
  -6   0   0   81.40    2.29
  -6   0   0   79.58    2.21
   6   0   0   79.53    1.98
   6   0   0   79.57    1.99
   6   0   0   79.65    1.73
   6   0   0   78.34    1.94
   6   0   0   79.99    2.29
   6   0   0   79.08    2.29
  -7   0   0    3.54    0.19
  -7   0   0    3.86    0.21
  -7   0   0    3.84    0.19
   7   0   0    3.99    0.14
   7   0   0    4.40    0.18
   7   0   0    3.90    0.19
   7   0   0    4.41    0.19
  -8   0   0    0.13    0.06
  -8   0   0    0.04    0.08
   8   0   0    0.20    0.04
   8   0   0    0.04    0.07
   8   0   0    0.12    0.06
   8   0   0    0.06    0.06
  -9   0   0    4.86    0.23
  -9   0   0    4.94    0.26
   9   0   0    5.15    0.22
   9   0   0    5.57    0.25
 -10   0   0    2.78    0.22
 -10   0   0    2.94    0.19
  10   0   0    3.12    0.21
  10   0   0    3.22    0.20
  10  -1   0    1.36    0.13
  10  -1   0    1.57    0.15
 -10   1   0    1.39    0.15
 -10   1   0    1.42    0.16
   9  -1   0    6.29    0.24
   9  -1   0    6.01    0.26
  -9   1   0    5.88    0.27
  -9   1   0    5.98    0.27
   8  -1   0   17.88    0.46
   8  -1   0   17.39    0.57
   8  -1   0   18.25    0.52
  -8   1   0   17.76    0.58
  -8   1   0   16.34    0.57
  -8   1   0   18.16    0.56
   7  -1   0    5.54    0.24
   7  -1   0    6.38    0.21
   7  -1   0    6.03    0.21
   7  -1   0    6.38    0.23
  -7   1   0    5.52    0.25
  -7   1   0    5.35    0.25
  -7   1   0    5.41    0.25
   6  -1   0   23.18    0.60
   6  -1   0   23.01    0.62
   6  -1   0   21.96    0.58
   6  -1   0   21.97    0.70
   6  -1   0   23.34    0.54
   6  -1   0   23.06    0.70
  -6   1   0   24.06    0.71
  -6   1   0   22.71    0.70
  -6   1   0   23.12    0.58
  -6   1   0   23.33    0.68
   5  -1   0   51.16    1.29
   5  -1   0   50.95    1.26
   5  -1   0   51.51    1.31
   5  -1   0   52.46    1.51
   5  -1   0   51.58    1.13
   5  -1   0   52.64    1.51
  -5   1   0   52.76    1.51
  -5   1   0   49.15    1.50
  -5   1   0   52.78    1.29
  -5   1   0   52.80    1.27
  -5   1   0   52.64    1.44
   4  -1   0    0.08    0.04
   4  -1   0    0.08    0.03
   4  -1   0    0.08    0.03
   4  -1   0    0.00    0.03
   4  -1   0    0.10    0.03
   4  -1   0    0.08    0.02
  -4   1   0    0.06    0.03
  -4   1   0    0.02    0.04
  -4   1   0    0.07    0.02
  -4   1   0    0.06    0.04
   3  -1   0   49.77    1.23
   3  -1   0   50.29    1.19
   3  -1   0   49.09    1.06
   3  -1   0   46.97    1.43
   3  -1   0   47.59    1.43
  -3   1   0   52.60    1.43
  -3   1   0   50.85    1.19
  -3   1   0   48.41    1.23
  -3   1   0   50.42    1.43
  -3   1   0   50.46    1.36
   2  -1   0   23.80    0.58
   2  -1   0   23.30    0.52
   2  -1   0   24.66    0.71
   2  -1   0   24.71    0.71
  -2   1   0   24.92    0.71
  -2   1   0   23.82    0.59
  -2   1   0   24.05    0.52
  -2   1   0   23.54    0.59
  -2   1   0   24.72    0.71
   1  -1   0   51.29    1.17
   1  -1   0   48.99    1.37
   1  -1   0   44.30    1.36
   1  -1   0   48.51    1.02
  -1   1   0   45.51    1.36
  -1   1   0   47.29    1.02
  -1   1   0   47.19    1.18
  -1   1   0   45.22    1.37
   0  -1   0    0.13    0.02
   0  -1   0    0.09    0.02
   0  -1   0    0.08    0.02
   0  -1   0    0.09    0.02
   0   1   0    0.13    0.02
   0   1   0    0.21    0.02
   0   1   0    0.09    0.02
   0   1   0    0.14    0.02
  -1  -1   0   36.25    1.05
  -1  -1   0   37.56    0.91
  -1  -1   0   37.08    0.93
  -1  -1   0   37.88    1.02
   1   1   0   37.24    0.91
   1   1   0   37.44    0.93
   1   1   0   36.23    1.05
   1   1   0   37.29    0.98
   1   1   0   37.62    0.91
   1   1   0   37.36    0.79
   1   1   0   37.34    1.02
   1   1   0   36.32    1.05
  -2  -1   0  331.76    9.24
  -2  -1   0  332.78    8.93
  -2  -1   0  328.50    8.08
   2   1   0  315.78    9.23
   2   1   0  339.64    9.24
   2   1   0  319.19    7.98
   2   1   0  329.71    8.86
   2   1   0  323.67    7.80
   2   1   0  322.90    8.09
   2   1   0  320.90    6.93
   2   1   0  323.24    7.91
  -3  -1   0   86.69    2.35
  -3  -1   0   85.81    2.13
  -3  -1   0   85.25    2.44
   3   1   0   85.91    2.13
   3   1   0   85.13    2.44
   3   1   0   85.11    2.08
   3   1   0   85.73    2.35
   3   1   0   87.72    2.07
   3   1   0   85.39    1.83
   3   1   0   84.76    2.11
   3   1   0   87.08    2.44
  -4  -1   0   33.80    0.96
  -4  -1   0   33.54    0.95
   4   1   0   33.10    0.96
   4   1   0   33.09    0.84
   4   1   0   32.19    0.96
   4   1   0   32.74    0.74
   4   1   0   33.03    0.84
   4   1   0   33.43    0.81
   4   1   0   32.99    0.83
  -5  -1   0    6.40    0.25
  -5  -1   0    6.18    0.22
   5   1   0    6.28    0.19
   5   1   0    6.27    0.21
   5   1   0    6.21    0.22
   5   1   0    6.49    0.22
   5   1   0    6.42    0.20
   5   1   0    6.11    0.22
  -6  -1   0  148.08    4.13
  -6  -1   0  143.83    4.13
  -6  -1   0  145.84    3.99
   6   1   0  146.63    4.13
   6   1   0  146.35    3.58
   6   1   0  141.81    4.13
   6   1   0  143.02    3.11
   6   1   0  147.16    3.61
  -7  -1   0    0.46    0.07
  -7  -1   0    0.49    0.07
  -7  -1   0    0.45    0.09
   7   1   0    0.50    0.08
   7   1   0    0.43    0.06
   7   1   0    0.50    0.07
   7   1   0    0.49    0.07
  -8  -1   0    0.69    0.12
  -8  -1   0    0.68    0.08
   8   1   0    0.62    0.10
   8   1   0    0.74    0.10
  -9  -1   0    1.13    0.13
  -9  -1   0    1.26    0.15
   9   1   0    1.12    0.12
   9   1   0    1.29    0.13
  11  -2   0    0.02    0.08
  11  -2   0    0.13    0.10
 -11   2   0   -0.06    0.08
  10  -2   0    3.95    0.20
  10  -2   0    4.20    0.23
 -10   2   0    3.95    0.21
 -10   2   0    3.86    0.23
   9  -2   0    0.90    0.11
   9  -2   0    1.03    0.11
   9  -2   0    0.72    0.09
  -9   2   0    0.96    0.11
  -9   2   0    0.91    0.11
   8  -2   0   11.60    0.35
   8  -2   0   12.21    0.38
   8  -2   0   11.95    0.33
   8  -2   0   11.85    0.42
  -8   2   0   11.38    0.39
  -8   2   0   11.49    0.42
  -8   2   0   11.89    0.42
   7  -2   0   14.74    0.41
   7  -2   0   14.41    0.38
   7  -2   0   15.23    0.50
   7  -2   0   14.82    0.44
  -7   2   0   14.74    0.46
  -7   2   0   15.48    0.50
  -7   2   0   15.64    0.50
   6  -2   0   31.97    0.96
   6  -2   0   31.31    0.72
   6  -2   0   32.43    0.80
   6  -2   0   31.00    0.83
   6  -2   0   32.16    0.96
  -6   2   0   31.95    0.90
  -6   2   0   31.29    0.80
  -6   2   0   31.34    0.80
  -6   2   0   33.15    0.96
  -6   2   0   32.37    0.96
   5  -2   0   17.63    0.48
   5  -2   0   17.36    0.45
   5  -2   0   17.75    0.55
   5  -2   0   17.79    0.56
   5  -2   0   17.85    0.42
  -5   2   0   18.12    0.45
  -5   2   0   17.78    0.56
  -5   2   0   17.91    0.51
  -5   2   0   17.82    0.46
  -5   2   0   18.71    0.56
  -5   2   0   18.00    0.44
   4  -2   0  104.34    3.28
   4  -2   0  117.62    2.45
   4  -2   0  114.26    3.29
  -4   2   0  118.81    2.80
  -4   2   0  118.27    2.74
  -4   2   0  119.19    2.86
  -4   2   0  114.11    3.29
  -4   2   0  116.18    3.29
   3  -2   0   54.51    1.20
   3  -2   0   56.04    1.62
   3  -2   0   56.13    1.62
  -3   2   0   54.62    1.34
  -3   2   0   57.61    1.62
  -3   2   0   58.55    1.62
  -3   2   0   56.82    1.37
   2  -2   0  395.44   12.21
   2  -2   0  445.11   12.22
   2  -2   0  436.44   10.43
   2  -2   0  435.62   11.10
   2  -2   0  430.50    9.05
  -2   2   0  438.50    9.05
  -2   2   0  409.91   12.22
  -2   2   0  441.85   10.43
  -2   2   0  432.98   12.22
   1  -2   0    5.57    0.18
   1  -2   0    5.95    0.16
   1  -2   0    5.95    0.19
   1  -2   0    6.05    0.16
  -1   2   0    5.95    0.16
  -1   2   0    5.43    0.18
  -1   2   0    5.80    0.18
  -1   2   0    5.72    0.16
  -1   2   0    5.79    0.18
   0  -2   0   34.80    1.01
   0  -2   0   35.02    0.98
   0  -2   0   35.55    0.87
   0  -2   0   35.11    0.86
   0  -2   0   35.80    0.94
   0  -2   0   31.39    1.01
   0   2   0   35.75    0.87
   0   2   0   35.55    0.98
   0   2   0   35.22    0.75
   0   2   0   35.35    0.89
   0   2   0   35.91    1.01
   0   2   0   36.71    0.94
   0   2   0   36.81    1.01
   0   2   0   35.74    0.94
  -1  -2   0   23.76    0.69
  -1  -2   0   24.33    0.59
  -1  -2   0   24.15    0.68
  -1  -2   0   24.40    0.65
  -1  -2   0   23.24    0.69
   1   2   0   23.33    0.69
   1   2   0   24.78    0.60
   1   2   0   23.94    0.66
   1   2   0   23.88    0.69
   1   2   0   24.83    0.52
   1   2   0   24.14    0.62
   1   2   0   24.24    0.60
   1   2   0   24.08    0.65
   1   2   0   23.62    0.59
   1   2   0   23.75    0.68
  -2  -2   0    7.66    0.22
  -2  -2   0    7.20    0.25
  -2  -2   0    7.45    0.22
   2   2   0    7.26    0.18
   2   2   0    7.51    0.22
   2   2   0    7.35    0.22
   2   2   0    7.64    0.20
   2   2   0    7.67    0.22
   2   2   0    7.05    0.22
   2   2   0    7.41    0.20
   2   2   0    7.38    0.24
   2   2   0    7.48    0.25
  -3  -2   0   23.74    0.67
  -3  -2   0   23.06    0.68
  -3  -2   0   24.03    0.67
   3   2   0   22.69    0.65
   3   2   0   22.83    0.61
   3   2   0   22.79    0.59
   3   2   0   23.49    0.68
   3   2   0   23.52    0.67
   3   2   0   23.01    0.60
   3   2   0   22.86    0.58
   3   2   0   23.15    0.67
   3   2   0   22.80    0.52
  -4  -2   0    4.92    0.17
  -4  -2   0    5.31    0.21
  -4  -2   0    4.93    0.17
   4   2   0    5.00    0.17
   4   2   0    4.93    0.19
   4   2   0    4.87    0.15
   4   2   0    4.78    0.17
   4   2   0    4.92    0.17
   4   2   0    4.95    0.17
   4   2   0    4.86    0.18
   4   2   0    4.89    0.15
  -5  -2   0    2.03    0.12
  -5  -2   0    1.90    0.11
   5   2   0    2.26    0.12
   5   2   0    1.96    0.11
   5   2   0    1.90    0.11
   5   2   0    2.33    0.09
   5   2   0    2.38    0.14
   5   2   0    2.65    0.13
  -6  -2   0    6.74    0.29
  -6  -2   0    6.19    0.22
  -6  -2   0    6.41    0.23
   6   2   0    6.37    0.23
   6   2   0    6.61    0.23
   6   2   0    6.38    0.22
   6   2   0    6.49    0.22
   6   2   0    6.69    0.22
  -7  -2   0    1.19    0.14
  -7  -2   0    1.28    0.10
   7   2   0    1.24    0.11
   7   2   0    1.09    0.11
   7   2   0    1.26    0.11
  -8  -2   0    1.37    0.15
  -8  -2   0    1.32    0.11
   8   2   0    1.37    0.12
   8   2   0    1.51    0.15
  -9  -2   0    0.05    0.10
   9   2   0   -0.04    0.07
   9   2   0    0.02    0.08
  11  -3   0    0.50    0.11
  11  -3   0    0.35    0.09
 -11   3   0    0.41    0.11
  10  -3   0    0.53    0.09
  10  -3   0    0.65    0.11
  10  -3   0    0.53    0.10
 -10   3   0    0.52    0.10
 -10   3   0    0.71    0.09
   9  -3   0    0.01    0.06
   9  -3   0   -0.09    0.07
   9  -3   0   -0.04    0.07
  -9   3   0    0.04    0.06
  -9   3   0    0.00    0.07
  -9   3   0   -0.12    0.07
   8  -3   0    0.61    0.09
   8  -3   0    0.50    0.09
   8  -3   0    0.58    0.07
  -8   3   0    0.60    0.09
  -8   3   0    0.40    0.07
  -8   3   0    0.47    0.09
   7  -3   0    3.16    0.16
   7  -3   0    2.93    0.17
   7  -3   0    3.07    0.13
  -7   3   0    3.21    0.09
  -7   3   0    3.09    0.10
  -7   3   0    3.11    0.13
  -7   3   0    2.89    0.13
  -7   3   0    3.04    0.17
  -7   3   0    3.10    0.17
   6  -3   0    4.21    0.14
   6  -3   0    3.99    0.18
   6  -3   0    3.99    0.18
   6  -3   0    4.15    0.16
  -6   3   0    4.22    0.18
  -6   3   0    4.09    0.12
  -6   3   0    3.92    0.15
  -6   3   0    4.11    0.19
  -6   3   0    4.28    0.13
  -6   3   0    4.35    0.14
   5  -3   0   15.79    0.44
   5  -3   0   15.96    0.51
   5  -3   0   16.14    0.38
   5  -3   0   16.44    0.51
  -5   3   0   16.04    0.41
  -5   3   0   15.40    0.40
  -5   3   0   15.84    0.51
  -5   3   0   16.80    0.51
   4  -3   0   17.40    0.56
   4  -3   0   18.37    0.57
   4  -3   0   18.55    0.42
  -4   3   0   18.07    0.45
  -4   3   0   18.64    0.57
  -4   3   0   19.15    0.57
  -4   3   0   18.72    0.47
   3  -3   0   11.97    0.32
   3  -3   0   10.40    0.36
   3  -3   0   11.85    0.26
   3  -3   0   11.87    0.37
  -3   3   0   10.89    0.37
  -3   3   0   11.97    0.31
  -3   3   0   12.28    0.37
   2  -3   0   87.82    2.16
   2  -3   0   88.85    1.87
   2  -3   0   87.02    2.31
   2  -3   0   87.38    2.53
   2  -3   0   90.23    2.53
  -2   3   0   93.35    2.53
  -2   3   0   89.41    2.16
  -2   3   0   88.45    2.40
  -2   3   0   85.76    2.53
   1  -3   0   53.19    1.43
   1  -3   0   52.39    1.28
   1  -3   0   51.01    1.49
   1  -3   0   53.09    1.39
   1  -3   0   50.81    1.49
  -1   3   0   47.11    1.49
  -1   3   0   53.55    1.49
  -1   3   0   54.23    1.28
  -1   3   0   52.95    1.43
  -1   3   0   52.12    1.35
   0  -3   0   28.64    0.79
   0  -3   0   28.60    0.81
   0  -3   0   27.56    0.69
   0  -3   0   28.13    0.77
   0  -3   0   28.43    0.76
   0  -3   0   28.02    0.81
   0   3   0   27.95    0.60
   0   3   0   26.89    0.81
   0   3   0   27.99    0.79
   0   3   0   27.68    0.71
   0   3   0   28.33    0.81
   0   3   0   27.82    0.77
   0   3   0   28.07    0.72
  -1  -3   0    0.79    0.04
  -1  -3   0    0.84    0.05
  -1  -3   0    0.86    0.05
  -1  -3   0    0.64    0.07
  -1  -3   0    0.76    0.08
   1   3   0    0.76    0.04
   1   3   0    0.85    0.08
   1   3   0    0.60    0.05
   1   3   0    0.68    0.06
   1   3   0    0.81    0.05
   1   3   0    0.76    0.04
   1   3   0    0.67    0.07
   1   3   0    0.78    0.05
   1   3   0    0.79    0.07
   1   3   0    0.66    0.07
  -2  -3   0   10.97    0.36
   2   3   0   10.99    0.31
   2   3   0   10.67    0.29
   2   3   0   10.55    0.31
   2   3   0   10.80    0.34
   2   3   0   10.96    0.30
   2   3   0   10.92    0.35
   2   3   0   10.75    0.26
   2   3   0   10.62    0.34
   2   3   0   11.03    0.32
  -3  -3   0    0.99    0.11
   3   3   0    1.05    0.07
   3   3   0    1.09    0.07
   3   3   0    1.10    0.10
   3   3   0    0.94    0.10
   3   3   0    0.92    0.07
   3   3   0    1.21    0.11
   3   3   0    1.11    0.09
   3   3   0    1.02    0.09
  -4  -3   0   83.91    2.34
   4   3   0   84.51    2.07
   4   3   0   83.99    2.11
   4   3   0   83.26    2.05
   4   3   0   83.62    1.81
  -5  -3   0   11.52    0.42
   5   3   0   11.72    0.35
   5   3   0   11.58    0.31
   5   3   0   11.44    0.31
   5   3   0   11.43    0.34
  -6  -3   0    1.20    0.14
   6   3   0    1.52    0.12
   6   3   0    1.95    0.08
   6   3   0    1.37    0.12
   6   3   0    1.54    0.12
  -7  -3   0    3.05    0.24
   7   3   0    2.88    0.17
   7   3   0    2.48    0.16
   7   3   0    3.26    0.17
  -8  -3   0    0.93    0.15
   8   3   0    0.76    0.11
  11  -4   0    0.33    0.10
  11  -4   0    0.43    0.09
 -11   4   0    0.25    0.10
  10  -4   0    0.06    0.08
  10  -4   0   -0.10    0.06
  10  -4   0   -0.04    0.08
 -10   4   0   -0.08    0.08
 -10   4   0   -0.07    0.05
   9  -4   0    4.29    0.18
   9  -4   0    4.27    0.21
   9  -4   0    4.08    0.23
  -9   4   0    4.02    0.22
  -9   4   0    3.83    0.17
  -9   4   0    3.90    0.23
   8  -4   0    5.12    0.24
   8  -4   0    5.27    0.18
   8  -4   0    5.34    0.22
  -8   4   0    5.17    0.19
  -8   4   0    5.21    0.15
  -8   4   0    5.29    0.25
  -8   4   0    5.10    0.16
  -8   4   0    5.15    0.24
   7  -4   0    2.57    0.17
   7  -4   0    2.61    0.12
   7  -4   0    2.67    0.14
  -7   4   0    2.68    0.11
  -7   4   0    2.67    0.10
  -7   4   0    2.79    0.11
  -7   4   0    2.62    0.17
  -7   4   0    3.00    0.16
  -7   4   0    2.77    0.11
   6  -4   0   67.88    1.98
   6  -4   0   68.03    1.98
   6  -4   0   67.49    1.70
   6  -4   0   66.14    1.46
  -6   4   0   70.11    1.98
  -6   4   0   68.21    1.98
  -6   4   0   65.89    1.62
  -6   4   0   68.34    1.66
   5  -4   0    0.60    0.07
   5  -4   0    0.59    0.05
   5  -4   0    0.63    0.06
   5  -4   0    0.55    0.07
  -5   4   0    0.69    0.05
  -5   4   0    0.60    0.07
  -5   4   0    0.55    0.05
  -5   4   0    0.58    0.07
   4  -4   0   25.35    0.56
   4  -4   0   26.87    0.78
   4  -4   0   26.11    0.69
   4  -4   0   25.01    0.77
  -4   4   0   26.05    0.77
  -4   4   0   26.37    0.66
  -4   4   0   23.89    0.77
   3  -4   0   36.14    0.75
   3  -4   0   35.48    1.03
   3  -4   0   32.93    1.03
   3  -4   0   35.86    0.92
  -3   4   0   35.44    0.97
  -3   4   0   35.94    0.88
  -3   4   0   36.03    1.03
  -3   4   0   32.51    1.03
   2  -4   0   47.82    1.22
   2  -4   0   46.28    1.36
   2  -4   0   47.25    1.36
  -2   4   0   47.58    1.36
  -2   4   0   47.99    1.22
  -2   4   0   47.01    1.17
  -2   4   0   47.13    1.29
  -2   4   0   43.99    1.36
   1  -4   0    6.30    0.22
   1  -4   0    6.34    0.22
   1  -4   0    6.50    0.22
   1  -4   0    6.63    0.22
   1  -4   0    6.72    0.22
  -1   4   0    6.65    0.22
  -1   4   0    6.76    0.21
  -1   4   0    6.44    0.22
  -1   4   0    6.08    0.18
  -1   4   0    6.31    0.20
   0  -4   0   21.16    0.59
   0  -4   0   20.28    0.61
   0  -4   0   21.44    0.61
   0  -4   0   20.50    0.59
   0  -4   0   21.33    0.61
   0   4   0   20.67    0.59
   0   4   0   20.12    0.56
   0   4   0   20.26    0.54
   0   4   0   20.56    0.61
   0   4   0   20.66    0.45
   0   4   0   20.34    0.61
   0   4   0   21.17    0.61
   0   4   0   20.45    0.56
  -1  -4   0    1.56    0.12
  -1  -4   0    1.78    0.08
  -1  -4   0    1.36    0.06
  -1  -4   0    1.80    0.08
  -1  -4   0    1.64    0.12
   1   4   0    1.88    0.08
   1   4   0    1.73    0.07
   1   4   0    1.83    0.10
   1   4   0    1.67    0.12
   1   4   0    1.90    0.11
   1   4   0    1.83    0.10
   1   4   0    1.82    0.08
   1   4   0    1.42    0.11
   1   4   0    1.59    0.11
  -2  -4   0    0.05    0.06
   2   4   0    0.06    0.03
   2   4   0    0.08    0.05
   2   4   0    0.13    0.05
   2   4   0    0.11    0.03
   2   4   0    0.10    0.05
   2   4   0    0.10    0.04
   2   4   0   -0.10    0.05
   2   4   0    0.20    0.06
  -3  -4   0   19.61    0.62
   3   4   0   19.84    0.51
   3   4   0   19.90    0.46
   3   4   0   19.82    0.55
   3   4   0   19.47    0.52
  -4  -4   0   -0.01    0.08
   4   4   0    0.08    0.05
   4   4   0    0.09    0.06
   4   4   0   -0.03    0.05
   4   4   0    0.06    0.05
  -5  -4   0    8.11    0.34
   5   4   0    7.84    0.28
   5   4   0    7.72    0.25
   5   4   0    7.79    0.24
   5   4   0    7.85    0.24
  -6  -4   0    9.03    0.39
   6   4   0    9.53    0.32
   6   4   0    8.85    0.28
   6   4   0    9.06    0.30
  -7  -4   0    0.24    0.12
   7   4   0    0.03    0.08
  12  -5   0    0.27    0.11
  12  -5   0    0.20    0.08
 -12   5   0    0.43    0.12
  11  -5   0    0.30    0.08
  11  -5   0    0.32    0.10
  11  -5   0    0.49    0.12
 -11   5   0    0.26    0.11
  10  -5   0    0.96    0.13
  10  -5   0    1.19    0.14
  10  -5   0    1.02    0.10
 -10   5   0    1.07    0.14
 -10   5   0    1.37    0.10
   9  -5   0    8.88    0.37
   9  -5   0    9.66    0.33
   9  -5   0    9.05    0.27
  -9   5   0    9.05    0.29
  -9   5   0    9.13    0.37
  -9   5   0    8.96    0.25
  -9   5   0    9.31    0.26
   8  -5   0    2.61    0.16
   8  -5   0    2.81    0.13
   8  -5   0    2.94    0.19
  -8   5   0    2.70    0.19
  -8   5   0    2.60    0.11
  -8   5   0    2.52    0.12
  -8   5   0    2.78    0.11
  -8   5   0    2.75    0.18
  -8   5   0    2.61    0.11
   7  -5   0    0.02    0.04
   7  -5   0    0.03    0.04
   7  -5   0   -0.09    0.06
   7  -5   0    0.01    0.05
  -7   5   0    0.01    0.06
  -7   5   0    0.00    0.04
  -7   5   0    0.01    0.03
  -7   5   0   -0.06    0.06
   6  -5   0   11.01    0.34
   6  -5   0   11.15    0.39
   6  -5   0   11.47    0.40
   6  -5   0   10.85    0.28
  -6   5   0   10.59    0.28
  -6   5   0   11.27    0.32
  -6   5   0   11.43    0.39
  -6   5   0   11.42    0.40
   5  -5   0   13.69    0.32
   5  -5   0   13.60    0.39
   5  -5   0   13.43    0.45
   5  -5   0   13.62    0.45
  -5   5   0   13.64    0.38
  -5   5   0   14.32    0.46
  -5   5   0   13.50    0.46
   4  -5   0   46.67    0.99
   4  -5   0   47.09    1.36
   4  -5   0   44.20    1.36
   4  -5   0   47.73    1.22
  -4   5   0   45.90    1.28
  -4   5   0   48.75    1.36
  -4   5   0   47.64    1.17
  -4   5   0   42.84    1.36
   3  -5   0  123.17    3.48
   3  -5   0  123.18    3.48
   3  -5   0  120.86    3.14
  -3   5   0  121.93    2.98
  -3   5   0  122.24    3.48
  -3   5   0  120.48    3.47
  -3   5   0  120.22    3.31
   2  -5   0  276.30    7.43
   2  -5   0  259.74    7.42
   2  -5   0  264.01    6.82
  -2   5   0  260.55    7.03
  -2   5   0  257.89    6.31
  -2   5   0  232.69    7.36
  -2   5   0  263.68    6.72
  -2   5   0  266.74    7.42
   1  -5   0   80.86    2.37
   1  -5   0   84.71    2.29
   1  -5   0   82.43    2.20
   1  -5   0   81.97    2.21
   1  -5   0   84.36    2.37
   1  -5   0   82.61    2.02
  -1   5   0   83.12    2.05
  -1   5   0   80.40    2.37
  -1   5   0   85.89    2.37
  -1   5   0   80.37    2.15
  -1   5   0   84.06    2.29
  -1   5   0   84.23    2.09
   0  -5   0  369.57    9.63
   0  -5   0  368.82   10.00
   0  -5   0  370.13    9.67
   0  -5   0  377.76   10.44
   0   5   0  371.68    9.63
   0   5   0  362.31    9.52
   0   5   0  352.21   10.43
   0   5   0  377.04   10.43
   0   5   0  368.66    9.14
   0   5   0  363.61    8.93
   0   5   0  377.51    8.74
   0   5   0  360.28    7.74
   0   5   0  364.63    9.95
  -1  -5   0    4.07    0.19
  -1  -5   0    4.18    0.20
  -1  -5   0    4.19    0.15
  -1  -5   0    4.17    0.15
   1   5   0    4.11    0.17
   1   5   0    4.21    0.15
   1   5   0    4.08    0.12
   1   5   0    4.34    0.20
   1   5   0    4.39    0.18
   1   5   0    4.33    0.15
  -2  -5   0    0.68    0.10
   2   5   0    0.56    0.07
   2   5   0    0.62    0.05
   2   5   0    0.57    0.08
  -3  -5   0    3.76    0.23
   3   5   0    3.82    0.14
   3   5   0    4.33    0.20
   3   5   0    4.16    0.17
   3   5   0    4.21    0.14
  -4  -5   0    3.52    0.23
   4   5   0    3.32    0.14
   4   5   0    3.05    0.13
   4   5   0    3.43    0.18
   4   5   0    3.11    0.15
  -5  -5   0    2.20    0.22
   5   5   0    2.15    0.13
   5   5   0    2.01    0.17
   5   5   0    2.26    0.13
  -6  -5   0    7.92    0.38
   6   5   0    7.48    0.30
   6   5   0    7.32    0.26
  12  -6   0    0.02    0.07
  12  -6   0    0.02    0.10
 -12   6   0    0.15    0.11
  11  -6   0    3.79    0.27
  11  -6   0    3.90    0.20
  11  -6   0    4.26    0.25
 -11   6   0    3.84    0.27
  10  -6   0    0.22    0.09
  10  -6   0    0.42    0.11
  10  -6   0    0.35    0.08
 -10   6   0    0.28    0.06
 -10   6   0    0.38    0.11
   9  -6   0    0.13    0.08
   9  -6   0    0.21    0.06
   9  -6   0    0.08    0.09
  -9   6   0    0.08    0.09
  -9   6   0    0.14    0.05
  -9   6   0    0.27    0.05
   8  -6   0    7.82    0.23
   8  -6   0    7.66    0.33
   8  -6   0    7.72    0.28
  -8   6   0    8.00    0.33
  -8   6   0    7.75    0.25
  -8   6   0    7.55    0.21
   7  -6   0   11.43    0.30
   7  -6   0   11.78    0.43
   7  -6   0   11.64    0.36
   7  -6   0   11.44    0.36
  -7   6   0   12.00    0.34
  -7   6   0   11.40    0.43
  -7   6   0   11.27    0.30
   6  -6   0    2.43    0.12
   6  -6   0    2.53    0.16
   6  -6   0    2.60    0.10
   6  -6   0    2.81    0.17
  -6   6   0    2.75    0.17
  -6   6   0    2.45    0.10
  -6   6   0    2.55    0.13
  -6   6   0    2.45    0.16
   5  -6   0   14.46    0.33
   5  -6   0   14.46    0.40
   5  -6   0   14.23    0.48
   5  -6   0   13.58    0.47
  -5   6   0   13.84    0.47
  -5   6   0   13.81    0.42
  -5   6   0   14.63    0.41
  -5   6   0   14.50    0.48
   4  -6   0    3.89    0.18
   4  -6   0    4.04    0.13
   4  -6   0    3.70    0.17
  -4   6   0    3.78    0.18
  -4   6   0    3.99    0.19
  -4   6   0    4.00    0.16
  -4   6   0    3.80    0.16
   3  -6   0   13.55    0.36
   3  -6   0   13.78    0.44
   3  -6   0   13.06    0.42
   3  -6   0   13.49    0.44
  -3   6   0   12.92    0.39
  -3   6   0   13.93    0.44
  -3   6   0   13.40    0.42
  -3   6   0   13.98    0.44
   2  -6   0    0.20    0.06
   2  -6   0    0.19    0.06
   2  -6   0    0.18    0.05
   2  -6   0    0.16    0.06
  -2   6   0    0.17    0.03
  -2   6   0    0.22    0.05
  -2   6   0    0.26    0.06
  -2   6   0    0.19    0.06
  -2   6   0    0.19    0.06
  -2   6   0    0.23    0.06
   1  -6   0   20.87    0.65
   1  -6   0   21.92    0.63
   1  -6   0   22.25    0.65
   1  -6   0   21.23    0.63
  -1   6   0   20.24    0.65
  -1   6   0   20.71    0.65
  -1   6   0   21.82    0.59
  -1   6   0   22.01    0.65
  -1   6   0   21.10    0.57
  -1   6   0   21.44    0.60
  -1   6   0   21.53    0.56
   0  -6   0    1.27    0.14
   0  -6   0    1.11    0.09
   0  -6   0    1.21    0.12
   0  -6   0    1.01    0.11
   0   6   0    1.10    0.08
   0   6   0    1.11    0.09
   0   6   0    1.08    0.10
   0   6   0    1.61    0.12
   0   6   0    1.15    0.09
  -1  -6   0    7.82    0.25
  -1  -6   0    8.06    0.33
  -1  -6   0    7.60    0.30
  -1  -6   0    7.76    0.25
   1   6   0    7.98    0.29
   1   6   0    8.19    0.27
   1   6   0    7.88    0.20
   1   6   0    7.72    0.25
   1   6   0    7.79    0.25
   1   6   0    8.01    0.26
  -2  -6   0   14.74    0.52
   2   6   0   14.52    0.44
   2   6   0   14.78    0.46
   2   6   0   14.73    0.43
   2   6   0   14.37    0.35
  -3  -6   0    5.45    0.29
   3   6   0    5.65    0.22
   3   6   0    6.01    0.25
   3   6   0    5.58    0.18
  -4  -6   0    7.69    0.36
   4   6   0    7.34    0.26
   4   6   0    7.71    0.23
   4   6   0    7.45    0.30
  -5  -6   0    4.29    0.30
   5   6   0    3.81    0.18
   5   6   0    3.86    0.23
  12  -7   0    1.40    0.18
  12  -7   0    1.18    0.12
  12  -7   0    1.19    0.15
 -12   7   0    1.25    0.17
  11  -7   0    2.97    0.22
  11  -7   0    2.90    0.25
  11  -7   0    3.10    0.17
 -11   7   0    3.19    0.25
  10  -7   0    7.69    0.31
  10  -7   0    7.56    0.25
  10  -7   0    7.45    0.36
 -10   7   0    7.05    0.25
 -10   7   0    7.85    0.36
 -10   7   0    6.97    0.23
   9  -7   0    1.45    0.12
   9  -7   0    1.68    0.17
   9  -7   0    1.33    0.13
  -9   7   0    1.70    0.13
  -9   7   0    1.69    0.19
   8  -7   0    7.43    0.28
   8  -7   0    8.08    0.34
   8  -7   0    7.61    0.22
   8  -7   0    7.21    0.26
  -8   7   0    7.40    0.33
  -8   7   0    7.46    0.26
   7  -7   0   17.02    0.49
   7  -7   0   17.27    0.49
   7  -7   0   16.78    0.41
   7  -7   0   17.10    0.59
  -7   7   0   15.87    0.49
  -7   7   0   17.78    0.59
  -7   7   0   17.47    0.49
   6  -7   0    0.64    0.09
   6  -7   0    0.81    0.08
   6  -7   0    0.68    0.10
   6  -7   0    0.71    0.05
  -6   7   0    0.67    0.10
  -6   7   0    0.72    0.08
  -6   7   0    0.79    0.09
   5  -7   0    7.53    0.23
   5  -7   0    7.93    0.30
   5  -7   0    7.35    0.30
  -5   7   0    7.28    0.25
  -5   7   0    7.54    0.26
  -5   7   0    7.57    0.30
   4  -7   0   24.67    0.65
   4  -7   0   26.15    0.78
   4  -7   0   23.36    0.77
  -4   7   0   25.52    0.68
  -4   7   0   24.98    0.68
  -4   7   0   24.52    0.72
  -4   7   0   24.43    0.77
   3  -7   0    3.96    0.20
   3  -7   0    4.06    0.18
   3  -7   0    4.19    0.19
   3  -7   0    4.32    0.20
  -3   7   0    4.15    0.18
  -3   7   0    3.87    0.19
  -3   7   0    4.21    0.18
  -3   7   0    3.71    0.19
   2  -7   0    8.73    0.32
   2  -7   0    8.69    0.31
   2  -7   0    9.21    0.33
   2  -7   0    9.05    0.32
   2  -7   0    8.95    0.24
  -2   7   0    9.01    0.32
  -2   7   0    9.46    0.31
  -2   7   0    8.80    0.31
  -2   7   0    8.74    0.32
  -2   7   0    9.00    0.32
   1  -7   0    4.82    0.24
   1  -7   0    4.96    0.20
   1  -7   0    5.17    0.21
   1  -7   0    5.11    0.23
  -1   7   0    4.86    0.17
  -1   7   0    5.02    0.20
  -1   7   0    5.51    0.22
  -1   7   0    4.88    0.21
  -1   7   0    5.24    0.23
   0  -7   0    0.55    0.07
   0  -7   0    0.49    0.06
   0  -7   0    0.72    0.11
   0   7   0    0.64    0.10
   0   7   0    0.63    0.06
   0   7   0    0.75    0.09
   0   7   0    0.54    0.07
   0   7   0    0.52    0.06
  -1  -7   0   -0.22    0.09
   1   7   0    0.03    0.08
   1   7   0    0.25    0.08
   1   7   0    0.03    0.06
  -2  -7   0   -0.07    0.10
   2   7   0    0.09    0.08
   2   7   0    0.04    0.06
   2   7   0   -0.05    0.07
  -3  -7   0    0.02    0.11
   3   7   0    0.02    0.06
   3   7   0    0.05    0.09
   3   7   0    0.14    0.07
   4   7   0    0.36    0.09
   4   7   0    0.37    0.11
  12  -8   0    0.10    0.07
  12  -8   0   -0.02    0.11
  12  -8   0   -0.10    0.09
 -12   8   0    0.08    0.12
  11  -8   0   -0.01    0.08
  11  -8   0   -0.11    0.09
  11  -8   0   -0.01    0.06
 -11   8   0    0.08    0.11
  10  -8   0    0.14    0.10
  10  -8   0    0.03    0.06
  10  -8   0   -0.06    0.08
 -10   8   0   -0.01    0.07
 -10   8   0    0.15    0.06
 -10   8   0    0.13    0.11
   9  -8   0    0.11    0.05
   9  -8   0   -0.01    0.08
   9  -8   0    0.06    0.09
  -9   8   0    0.06    0.06
  -9   8   0   -0.02    0.07
  -9   8   0    0.16    0.10
   8  -8   0    3.04    0.22
   8  -8   0    2.97    0.15
   8  -8   0    3.00    0.18
   8  -8   0    3.24    0.13
  -8   8   0    2.89    0.18
  -8   8   0    3.46    0.24
  -8   8   0    3.02    0.12
   7  -8   0    0.66    0.11
   7  -8   0    0.66    0.09
   7  -8   0    0.80    0.08
  -7   8   0    0.65    0.09
  -7   8   0    0.67    0.07
  -7   8   0    0.74    0.12
   6  -8   0    0.72    0.07
   6  -8   0    0.55    0.09
   6  -8   0    0.62    0.11
   6  -8   0    0.64    0.08
  -6   8   0    0.51    0.10
  -6   8   0    0.59    0.09
  -6   8   0    0.47    0.09
  -6   8   0    0.54    0.07
   5  -8   0    0.89    0.05
   5  -8   0    0.72    0.10
   5  -8   0    0.69    0.09
  -5   8   0    0.84    0.10
  -5   8   0    0.76    0.09
  -5   8   0    0.86    0.08
  -5   8   0    0.82    0.11
   4  -8   0    8.10    0.30
   4  -8   0    7.49    0.30
   4  -8   0    7.65    0.30
   4  -8   0    7.50    0.30
  -4   8   0    7.61    0.28
  -4   8   0    7.61    0.31
  -4   8   0    7.40    0.28
  -4   8   0    7.67    0.29
   3  -8   0    0.31    0.07
   3  -8   0    0.65    0.10
   3  -8   0    0.21    0.07
   3  -8   0    0.39    0.08
  -3   8   0    0.32    0.09
  -3   8   0    0.33    0.06
  -3   8   0    0.25    0.08
  -3   8   0    0.39    0.08
   2  -8   0    3.33    0.17
   2  -8   0    3.27    0.16
   2  -8   0    3.43    0.20
   2  -8   0    3.19    0.19
  -2   8   0    3.18    0.17
  -2   8   0    2.96    0.18
  -2   8   0    3.20    0.19
   1  -8   0    5.87    0.28
   1  -8   0    6.08    0.23
   1  -8   0    6.60    0.28
   1  -8   0    6.24    0.24
  -1   8   0    5.86    0.19
  -1   8   0    6.12    0.27
  -1   8   0    5.92    0.24
  -1   8   0    6.17    0.26
   0  -8   0   -0.07    0.04
   0  -8   0    0.05    0.09
   0   8   0   -0.07    0.05
   0   8   0   -0.05    0.07
   0   8   0   -0.06    0.08
   1   8   0    4.12    0.22
   1   8   0    3.90    0.18
   1   8   0    4.12    0.24
   2   8   0    3.15    0.23
   2   8   0    2.83    0.19
   3   8   0    0.20    0.09
   3   8   0    0.10    0.10
  11  -9   0    0.01    0.09
  11  -9   0   -0.01    0.11
  11  -9   0    0.18    0.06
 -11   9   0    0.11    0.12
 -11   9   0    0.04    0.07
  10  -9   0    0.03    0.11
  10  -9   0    0.03    0.05
  10  -9   0   -0.14    0.08
 -10   9   0    0.10    0.11
 -10   9   0    0.09    0.07
 -10   9   0   -0.16    0.07
   9  -9   0    0.33    0.09
   9  -9   0    0.61    0.13
  -9   9   0    0.30    0.09
  -9   9   0    0.46    0.09
  -9   9   0    0.41    0.12
   8  -9   0    1.16    0.15
   8  -9   0    1.23    0.11
  -8   9   0    1.48    0.13
  -8   9   0    1.16    0.12
  -8   9   0    1.33    0.16
   7  -9   0    0.50    0.08
   7  -9   0    0.47    0.11
  -7   9   0    0.60    0.10
  -7   9   0    0.56    0.12
  -7   9   0    0.42    0.09
   6  -9   0    2.28    0.09
   6  -9   0    2.22    0.17
   6  -9   0    2.02    0.13
   6  -9   0    2.25    0.19
  -6   9   0    2.11    0.14
  -6   9   0    2.11    0.17
  -6   9   0    2.39    0.17
  -6   9   0    2.04    0.19
   5  -9   0    0.81    0.11
   5  -9   0    0.98    0.09
   5  -9   0    0.89    0.12
   5  -9   0    0.85    0.11
   5  -9   0    0.93    0.12
  -5   9   0    0.86    0.11
  -5   9   0    0.88    0.12
  -5   9   0    0.89    0.11
  -5   9   0    1.15    0.12
   4  -9   0    0.37    0.08
   4  -9   0    0.38    0.09
   4  -9   0    0.38    0.09
   4  -9   0    0.43    0.05
   4  -9   0    0.40    0.10
  -4   9   0    0.36    0.09
  -4   9   0    0.34    0.09
  -4   9   0    0.41    0.10
   3  -9   0    1.59    0.15
   3  -9   0    1.42    0.14
   3  -9   0    1.43    0.14
  -3   9   0    1.30    0.14
  -3   9   0    1.14    0.13
  -3   9   0    1.25    0.12
   2  -9   0    0.98    0.10
   2  -9   0    1.03    0.13
   2  -9   0    1.20    0.13
  -2   9   0    1.01    0.13
  -2   9   0    0.95    0.12
   1  -9   0    0.00    0.09
   1  -9   0    0.12    0.09
   1  -9   0    0.08    0.06
  -1   9   0   -0.03    0.09
  -1   9   0   -0.18    0.08
   0  -9   0    0.05    0.10
   0  -9   0   -0.04    0.04
   0   9   0    0.04    0.09
   0   9   0    0.06    0.09
   1   9   0    0.12    0.09
   1   9   0    0.27    0.11
  11 -10   0    0.12    0.12
  11 -10   0    0.02    0.09
 -11  10   0   -0.04    0.09
 -11  10   0    0.04    0.12
  10 -10   0   -0.19    0.08
  10 -10   0   -0.11    0.11
 -10  10   0    0.01    0.08
 -10  10   0   -0.07    0.12
 -10  10   0   -0.21    0.08
   9 -10   0    0.59    0.10
   9 -10   0    0.68    0.14
  -9  10   0    0.56    0.10
  -9  10   0    0.36    0.10
  -9  10   0    0.44    0.13
   8 -10   0    1.85    0.21
   8 -10   0    1.70    0.15
  -8  10   0    1.58    0.15
  -8  10   0    1.70    0.17
  -8  10   0    1.55    0.17
   7 -10   0    4.83    0.26
   7 -10   0    4.24    0.19
  -7  10   0    4.67    0.27
  -7  10   0    4.41    0.24
  -7  10   0    4.17    0.24
   6 -10   0    0.07    0.09
   6 -10   0    0.14    0.09
   6 -10   0    0.02    0.05
   6 -10   0    0.00    0.09
  -6  10   0    0.00    0.08
  -6  10   0    0.11    0.10
  -6  10   0    0.14    0.09
   5 -10   0    0.39    0.06
   5 -10   0    0.47    0.10
   5 -10   0    0.53    0.11
   5 -10   0    0.50    0.11
  -5  10   0    0.46    0.11
  -5  10   0    0.53    0.11
  -5  10   0    0.43    0.10
   4 -10   0    0.12    0.09
   4 -10   0    0.01    0.08
   4 -10   0    0.02    0.09
  -4  10   0   -0.15    0.09
  -4  10   0   -0.07    0.09
   3 -10   0    1.14    0.15
   3 -10   0    1.07    0.14
   3 -10   0    0.93    0.11
  -3  10   0    0.91    0.14
  -3  10   0    0.96    0.13
   2 -10   0    4.40    0.22
   2 -10   0    4.37    0.27
   2 -10   0    4.58    0.27
  -2  10   0    4.50    0.27
  -2  10   0    4.62    0.26
   1 -10   0    0.42    0.07
   1 -10   0    0.32    0.13
  -1  10   0    0.34    0.12
  -1  10   0    0.25    0.11
   0  10   0    0.15    0.11
   0  10   0    0.14    0.10
  10 -11   0    0.08    0.12
  10 -11   0   -0.04    0.08
 -10  11   0    0.01    0.08
 -10  11   0    0.03    0.09
 -10  11   0   -0.16    0.11
   9 -11   0    0.50    0.09
   9 -11   0    0.37    0.13
  -9  11   0    0.48    0.12
  -9  11   0    0.42    0.11
  -9  11   0    0.36    0.14
   8 -11   0    0.12    0.07
   8 -11   0    0.06    0.10
  -8  11   0    0.09    0.11
  -8  11   0   -0.03    0.08
  -8  11   0   -0.05    0.09
   7 -11   0    0.67    0.09
   7 -11   0    0.64    0.13
   7 -11   0    0.65    0.13
   7 -11   0    0.40    0.12
  -7  11   0    0.78    0.14
  -7  11   0    0.57    0.12
  -7  11   0    0.66    0.12
   6 -11   0    0.12    0.10
   6 -11   0   -0.05    0.09
   6 -11   0    0.12    0.09
  -6  11   0    0.10    0.10
  -6  11   0    0.08    0.10
   5 -11   0    2.10    0.20
   5 -11   0    2.23    0.21
   5 -11   0    1.87    0.18
  -5  11   0    1.66    0.17
  -5  11   0    1.72    0.17
   4 -11   0   -0.03    0.08
   4 -11   0   -0.15    0.10
   4 -11   0    0.05    0.10
  -4  11   0   -0.11    0.10
  -4  11   0   -0.17    0.10
   3 -11   0   -0.06    0.10
   3 -11   0    0.01    0.08
   3 -11   0   -0.17    0.10
  -3  11   0   -0.09    0.10
  -3  11   0    0.12    0.11
   2 -11   0    0.00    0.11
   2 -11   0    0.15    0.07
  -2  11   0    0.01    0.12
  -2  11   0    0.08    0.11
  -8  12   0    0.23    0.11
   7 -12   0    0.04    0.10
   7 -12   0    0.18    0.11
   7 -12   0    0.05    0.11
  -7  12   0    0.30    0.12
  -7  12   0    0.24    0.12
   6 -12   0    1.45    0.18
   6 -12   0    1.00    0.16
   6 -12   0    1.38    0.16
  -6  12   0    1.13    0.16
  -6  12   0    1.17    0.16
  -4  12  -1    0.76    0.15
  -4  12  -1    0.82    0.14
   4 -12   1    0.70    0.14
   4 -12   1    0.81    0.15
   4 -12   1    0.73    0.12
  -5  12  -1    3.40    0.26
  -5  12  -1    3.49    0.27
   5 -12   1    3.53    0.24
   5 -12   1    3.37    0.26
   5 -12   1    3.78    0.27
  -6  12  -1    0.38    0.12
  -6  12  -1    0.33    0.12
   6 -12   1    0.25    0.11
   6 -12   1    0.36    0.12
   6 -12   1    0.22    0.11
  -7  12  -1    0.04    0.10
  -7  12  -1   -0.05    0.09
   7 -12   1    0.15    0.11
   7 -12   1   -0.10    0.10
   7 -12   1    0.01    0.10
  -8  12  -1    0.22    0.10
  -8  12  -1    0.24    0.11
   8 -12   1    0.19    0.11
   8 -12   1    0.10    0.10
   8 -12   1    0.01    0.11
  -9  12  -1    0.19    0.11
  -9  12  -1    0.17    0.14
  -9  12  -1    0.03    0.10
  -1  11  -1    0.19    0.12
  -1  11  -1   -0.04    0.10
  -2  11  -1    3.79    0.27
  -2  11  -1    3.76    0.25
   2 -11   1    4.07    0.27
   2 -11   1    3.66    0.19
   2 -11   1    3.80    0.27
  -3  11  -1   -0.02    0.11
  -3  11  -1   -0.03    0.10
   3 -11   1    0.00    0.10
   3 -11   1    0.05    0.07
   3 -11   1   -0.10    0.10
  -4  11  -1    0.72    0.14
  -4  11  -1    0.89    0.14
   4 -11   1    1.08    0.15
   4 -11   1    1.10    0.15
   4 -11   1    1.10    0.13
  -5  11  -1   -0.01    0.09
  -5  11  -1    0.06    0.10
   5 -11   1    0.11    0.09
   5 -11   1   -0.01    0.10
   5 -11   1    0.01    0.09
  -6  11  -1    0.47    0.12
  -6  11  -1    0.46    0.11
  -6  11  -1    0.25    0.10
   6 -11   1    0.34    0.11
   6 -11   1    0.43    0.11
   6 -11   1    0.34    0.11
  -7  11  -1    0.05    0.10
  -7  11  -1    0.18    0.09
  -7  11  -1    0.07    0.09
   7 -11   1    0.06    0.09
   7 -11   1   -0.08    0.10
   7 -11   1    0.11    0.06
   7 -11   1   -0.06    0.09
  -8  11  -1    0.75    0.12
  -8  11  -1    0.85    0.12
  -8  11  -1    0.84    0.15
   8 -11   1    0.90    0.10
   8 -11   1    0.79    0.14
  -9  11  -1    0.00    0.11
  -9  11  -1    0.06    0.09
  -9  11  -1    0.05    0.09
   9 -11   1    0.04    0.07
   9 -11   1   -0.02    0.11
 -10  11  -1    0.05    0.12
 -10  11  -1    0.09    0.09
 -10  11  -1    0.03    0.09
  10 -11   1    0.15    0.12
  10 -11   1    0.08    0.09
   1  10  -1    3.18    0.25
   1  10  -1    2.75    0.23
   0  10  -1    0.41    0.11
   0  10  -1    0.69    0.13
  -1  10  -1    0.52    0.11
  -1  10  -1    0.62    0.12
   1 -10   1    0.73    0.08
   1 -10   1    0.63    0.13
  -2  10  -1    0.32    0.11
  -2  10  -1    0.21    0.09
   2 -10   1    0.20    0.10
   2 -10   1    0.16    0.07
   2 -10   1    0.12    0.10
  -3  10  -1    0.01    0.09
  -3  10  -1    0.05    0.09
   3 -10   1    0.12    0.09
   3 -10   1    0.11    0.07
   3 -10   1    0.07    0.09
  -4  10  -1    0.98    0.12
  -4  10  -1    1.03    0.13
  -4  10  -1    0.77    0.13
   4 -10   1    1.01    0.13
   4 -10   1    0.99    0.13
   4 -10   1    1.02    0.12
  -5  10  -1    2.79    0.21
  -5  10  -1    2.76    0.20
  -5  10  -1    2.76    0.20
   5 -10   1    2.45    0.20
   5 -10   1    2.90    0.20
   5 -10   1    2.71    0.12
   5 -10   1    2.74    0.21
  -6  10  -1    2.35    0.18
  -6  10  -1    2.63    0.19
  -6  10  -1    2.66    0.21
   6 -10   1    2.24    0.13
   6 -10   1    2.34    0.20
   6 -10   1    2.44    0.20
   6 -10   1    1.85    0.19
  -7  10  -1    0.68    0.11
  -7  10  -1    0.52    0.12
   7 -10   1    0.62    0.12
   7 -10   1    0.56    0.08
  -8  10  -1    2.75    0.19
  -8  10  -1    2.37    0.23
   8 -10   1    2.51    0.16
   8 -10   1    2.48    0.22
  -9  10  -1    0.07    0.11
  -9  10  -1    0.08    0.08
   9 -10   1   -0.07    0.10
   9 -10   1    0.07    0.08
 -10  10  -1    4.15    0.24
 -10  10  -1    4.79    0.23
 -10  10  -1    4.59    0.32
  10 -10   1    4.21    0.25
  10 -10   1    4.85    0.31
 -11  10  -1    0.89    0.16
 -11  10  -1    0.73    0.11
  11 -10   1    0.88    0.16
  11 -10   1    0.97    0.14
   2   9  -1    0.42    0.12
   2   9  -1    0.50    0.11
   1   9  -1    3.28    0.23
   1   9  -1    2.76    0.20
   0   9  -1   11.79    0.40
   0   9  -1   11.86    0.42
  -1   9  -1    2.01    0.19
  -1   9  -1    2.06    0.12
  -1   9  -1    2.01    0.18
   1  -9   1    2.34    0.20
   1  -9   1    2.01    0.19
   1  -9   1    2.18    0.13
  -2   9  -1    3.68    0.14
  -2   9  -1    3.70    0.19
  -2   9  -1    3.84    0.22
  -2   9  -1    3.38    0.21
   2  -9   1    3.84    0.18
   2  -9   1    3.61    0.22
   2  -9   1    3.92    0.23
  -3   9  -1    5.14    0.25
  -3   9  -1    5.31    0.26
  -3   9  -1    5.61    0.24
  -3   9  -1    5.20    0.17
   3  -9   1    5.52    0.25
   3  -9   1    5.71    0.26
   3  -9   1    5.66    0.24
   3  -9   1    5.64    0.24
  -4   9  -1    0.05    0.07
  -4   9  -1    0.02    0.07
  -4   9  -1    0.03    0.05
  -4   9  -1   -0.01    0.07
   4  -9   1    0.11    0.08
   4  -9   1    0.00    0.07
   4  -9   1    0.01    0.04
   4  -9   1    0.09    0.07
   4  -9   1   -0.03    0.06
  -5   9  -1    2.37    0.15
  -5   9  -1    2.32    0.17
  -5   9  -1    2.37    0.17
  -5   9  -1    2.18    0.11
   5  -9   1    2.33    0.12
   5  -9   1    1.67    0.17
   5  -9   1    2.33    0.17
   5  -9   1    2.26    0.10
   5  -9   1    2.43    0.18
   5  -9   1    2.22    0.16
  -6   9  -1    2.56    0.19
  -6   9  -1    2.22    0.14
  -6   9  -1    2.25    0.10
  -6   9  -1    2.59    0.18
   6  -9   1    2.37    0.11
   6  -9   1    2.79    0.19
   6  -9   1    2.40    0.14
   6  -9   1    2.40    0.18
  -7   9  -1    7.10    0.28
  -7   9  -1    6.53    0.25
  -7   9  -1    6.63    0.32
   7  -9   1    6.96    0.23
   7  -9   1    7.05    0.25
   7  -9   1    6.77    0.32
  -8   9  -1    0.04    0.09
  -8   9  -1   -0.04    0.07
   8  -9   1   -0.03    0.09
   8  -9   1   -0.10    0.06
  -9   9  -1    6.15    0.33
  -9   9  -1    5.91    0.26
   9  -9   1    5.79    0.26
   9  -9   1    6.39    0.33
 -10   9  -1    0.25    0.12
 -10   9  -1    0.03    0.08
  10  -9   1    0.08    0.09
  10  -9   1    0.39    0.13
 -11   9  -1    0.34    0.09
 -11   9  -1    0.43    0.13
  11  -9   1    0.30    0.10
  11  -9   1    0.24    0.12
   3   8  -1    0.33    0.11
   3   8  -1    0.37    0.09
   3   8  -1    0.25    0.09
   2   8  -1    1.35    0.13
   2   8  -1    1.25    0.14
   2   8  -1    1.52    0.14
   1   8  -1    1.89    0.18
   1   8  -1    2.31    0.17
   1   8  -1    2.12    0.14
   0   8  -1    0.16    0.08
   0   8  -1    0.05    0.08
   0   8  -1    0.19    0.04
   0   8  -1    0.15    0.06
   0  -8   1    0.21    0.05
   0  -8   1    0.18    0.09
   0  -8   1    0.19    0.04
  -1   8  -1    6.90    0.27
  -1   8  -1    6.81    0.25
  -1   8  -1    6.73    0.28
  -1   8  -1    6.74    0.22
   1  -8   1    6.27    0.24
   1  -8   1    6.79    0.29
   1  -8   1    7.00    0.25
   1  -8   1    7.09    0.29
  -2   8  -1    1.80    0.15
  -2   8  -1    1.81    0.15
  -2   8  -1    2.04    0.14
  -2   8  -1    2.01    0.10
   2  -8   1    2.18    0.13
   2  -8   1    1.95    0.13
   2  -8   1    1.99    0.16
   2  -8   1    2.22    0.16
  -3   8  -1    0.85    0.10
  -3   8  -1    0.89    0.10
  -3   8  -1    0.95    0.09
  -3   8  -1    0.96    0.06
   3  -8   1    0.82    0.09
   3  -8   1    0.90    0.10
   3  -8   1    0.86    0.09
   3  -8   1    0.75    0.06
   3  -8   1    0.78    0.10
  -4   8  -1   -0.05    0.06
  -4   8  -1    0.06    0.04
  -4   8  -1    0.05    0.06
  -4   8  -1    0.02    0.06
   4  -8   1    0.01    0.06
   4  -8   1    0.06    0.03
   4  -8   1   -0.04    0.06
   4  -8   1    0.08    0.07
   4  -8   1    0.01    0.06
   4  -8   1   -0.03    0.04
  -5   8  -1    1.99    0.15
  -5   8  -1    1.95    0.09
  -5   8  -1    1.90    0.13
  -5   8  -1    2.01    0.16
   5  -8   1    1.92    0.15
   5  -8   1    2.05    0.15
   5  -8   1    2.13    0.10
   5  -8   1    2.21    0.11
  -6   8  -1   12.06    0.45
  -6   8  -1   12.21    0.38
  -6   8  -1   11.53    0.31
  -6   8  -1   11.78    0.38
   6  -8   1   11.96    0.36
   6  -8   1   12.08    0.36
   6  -8   1   12.63    0.44
   6  -8   1   12.24    0.44
  -7   8  -1    0.39    0.10
  -7   8  -1    0.36    0.06
  -7   8  -1    0.38    0.08
   7  -8   1    0.41    0.06
   7  -8   1    0.41    0.07
   7  -8   1    0.25    0.09
  -8   8  -1    2.59    0.21
  -8   8  -1    1.83    0.16
  -8   8  -1    2.32    0.11
   8  -8   1    2.39    0.21
   8  -8   1    1.78    0.16
  -9   8  -1    0.02    0.10
  -9   8  -1   -0.14    0.06
   9  -8   1   -0.20    0.07
   9  -8   1    0.03    0.05
   9  -8   1    0.01    0.09
 -10   8  -1    1.25    0.16
 -10   8  -1    1.11    0.10
  10  -8   1    1.14    0.15
  10  -8   1    1.12    0.13
  10  -8   1    1.14    0.10
 -11   8  -1    0.17    0.12
  11  -8   1    0.21    0.07
  11  -8   1    0.25    0.10
  11  -8   1    0.26    0.11
  12  -8   1    1.27    0.13
  12  -8   1    1.31    0.18
  12  -8   1    1.26    0.16
   5   7  -1    4.20    0.25
   5   7  -1    4.19    0.25
   4   7  -1    1.29    0.13
   4   7  -1    1.44    0.14
   4   7  -1    1.25    0.14
   3   7  -1    0.06    0.05
   3   7  -1    0.11    0.07
   3   7  -1    0.14    0.07
   3   7  -1    0.25    0.09
   2   7  -1    6.82    0.20
   2   7  -1    7.52    0.27
   2   7  -1    7.26    0.27
   2   7  -1    7.79    0.29
   1   7  -1    9.83    0.34
   1   7  -1    9.72    0.31
   1   7  -1    9.56    0.23
   1   7  -1    9.79    0.32
   0   7  -1    0.59    0.07
   0   7  -1    0.55    0.07
   0   7  -1    0.52    0.04
   0   7  -1    0.51    0.06
   0   7  -1    0.53    0.10
   0   7  -1    0.62    0.08
   0  -7   1    0.60    0.09
   0  -7   1    0.65    0.10
   0  -7   1    0.57    0.06
   0  -7   1    0.53    0.05
  -1   7  -1    1.07    0.09
  -1   7  -1    0.98    0.09
  -1   7  -1    0.98    0.08
  -1   7  -1    1.04    0.09
  -1   7  -1    1.13    0.10
  -1   7  -1    1.02    0.11
   1  -7   1    1.06    0.11
   1  -7   1    1.12    0.11
   1  -7   1    1.11    0.09
   1  -7   1    1.09    0.09
  -2   7  -1    3.96    0.14
  -2   7  -1    4.08    0.15
  -2   7  -1    3.88    0.18
  -2   7  -1    4.12    0.17
  -2   7  -1    4.28    0.18
  -2   7  -1    4.00    0.18
   2  -7   1    4.06    0.19
   2  -7   1    4.03    0.17
   2  -7   1    4.09    0.18
   2  -7   1    4.06    0.19
  -3   7  -1   15.33    0.45
  -3   7  -1   15.38    0.49
  -3   7  -1   15.14    0.48
  -3   7  -1   15.29    0.41
  -3   7  -1   15.24    0.50
  -3   7  -1   15.86    0.42
   3  -7   1   15.54    0.42
   3  -7   1   15.15    0.40
   3  -7   1   15.68    0.50
   3  -7   1   15.49    0.48
   3  -7   1   15.07    0.49
   3  -7   1   15.30    0.47
  -4   7  -1    3.88    0.20
  -4   7  -1    3.94    0.18
  -4   7  -1    4.14    0.14
  -4   7  -1    3.97    0.17
   4  -7   1    4.12    0.14
   4  -7   1    4.21    0.20
   4  -7   1    4.34    0.19
   4  -7   1    4.35    0.15
  -5   7  -1   19.62    0.66
  -5   7  -1   20.19    0.50
  -5   7  -1   20.87    0.57
  -5   7  -1   20.01    0.60
   5  -7   1   21.17    0.65
   5  -7   1   20.34    0.55
   5  -7   1   19.94    0.65
   5  -7   1   21.00    0.57
  -6   7  -1    1.23    0.14
  -6   7  -1    1.24    0.12
   6  -7   1    1.18    0.11
   6  -7   1    1.07    0.11
   6  -7   1    1.21    0.14
   6  -7   1    1.49    0.10
  -7   7  -1    0.05    0.09
  -7   7  -1    0.20    0.06
   7  -7   1   -0.04    0.08
   7  -7   1    0.24    0.05
   7  -7   1    0.04    0.05
   7  -7   1    0.20    0.06
  -8   7  -1   -0.02    0.06
  -8   7  -1    0.00    0.08
   8  -7   1    0.02    0.08
   8  -7   1    0.12    0.05
   8  -7   1   -0.13    0.06
  -9   7  -1    1.45    0.10
  -9   7  -1    1.44    0.12
  -9   7  -1    1.26    0.15
   9  -7   1    1.23    0.14
   9  -7   1    1.37    0.10
   9  -7   1    1.32    0.13
 -10   7  -1    6.34    0.33
 -10   7  -1    6.12    0.22
  10  -7   1    6.34    0.28
  10  -7   1    6.04    0.22
  10  -7   1    5.79    0.32
 -11   7  -1    1.37    0.17
  11  -7   1    1.49    0.18
  11  -7   1    1.36    0.15
  11  -7   1    1.35    0.12
 -12   7  -1   -0.02    0.12
  12  -7   1   -0.02    0.11
  12  -7   1   -0.04    0.07
  12  -7   1    0.13    0.10
   6   6  -1    9.58    0.31
   6   6  -1    9.87    0.36
   5   6  -1    6.01    0.26
   5   6  -1    5.94    0.21
   4   6  -1    5.81    0.23
   4   6  -1    6.28    0.26
   4   6  -1    5.88    0.20
   4   6  -1    6.16    0.26
   3   6  -1    2.23    0.14
   3   6  -1    2.19    0.16
   3   6  -1    2.14    0.11
   3   6  -1    2.29    0.15
   2   6  -1    1.64    0.12
   2   6  -1    1.45    0.08
   2   6  -1    1.66    0.14
   2   6  -1    1.53    0.12
   1   6  -1   17.00    0.38
   1   6  -1   17.31    0.50
   1   6  -1   16.90    0.48
   1   6  -1   16.62    0.49
   0   6  -1   26.61    0.69
   0   6  -1   26.10    0.71
   0   6  -1   26.04    0.72
   0   6  -1   26.31    0.78
   0   6  -1   26.50    0.73
   0   6  -1   26.72    0.77
   0   6  -1   26.47    0.57
   0  -6   1   26.35    0.76
   0  -6   1   26.73    0.78
   0  -6   1   27.65    0.77
   0  -6   1   26.10    0.77
  -1   6  -1    0.47    0.06
  -1   6  -1    0.29    0.05
   1  -6   1    0.39    0.05
   1  -6   1    0.65    0.08
   1  -6   1    0.32    0.06
   1  -6   1    0.51    0.07
  -2   6  -1   40.22    1.15
  -2   6  -1   38.95    1.14
  -2   6  -1   39.25    1.11
  -2   6  -1   39.52    0.96
  -2   6  -1   39.00    1.00
  -2   6  -1   39.25    1.03
   2  -6   1   36.35    1.14
   2  -6   1   39.19    0.96
   2  -6   1   38.80    1.08
   2  -6   1   38.64    1.03
   2  -6   1   38.87    1.14
   2  -6   1   39.25    1.07
  -3   6  -1    3.38    0.15
  -3   6  -1    3.18    0.12
  -3   6  -1    3.26    0.12
  -3   6  -1    3.23    0.16
  -3   6  -1    3.40    0.15
  -3   6  -1    3.30    0.15
   3  -6   1    3.39    0.15
   3  -6   1    3.24    0.15
   3  -6   1    3.31    0.12
   3  -6   1    3.09    0.12
  -4   6  -1   25.49    0.56
  -4   6  -1   27.00    0.79
  -4   6  -1   25.71    0.79
  -4   6  -1   24.92    0.73
  -4   6  -1   25.78    0.68
   4  -6   1   26.15    0.69
   4  -6   1   25.37    0.66
   4  -6   1   26.34    0.79
   4  -6   1   24.50    0.79
  -5   6  -1    3.55    0.18
  -5   6  -1    3.60    0.15
  -5   6  -1    3.27    0.18
   5  -6   1    3.64    0.14
   5  -6   1    3.50    0.17
   5  -6   1    3.73    0.14
   5  -6   1    3.36    0.18
  -6   6  -1    3.66    0.15
  -6   6  -1    3.39    0.19
  -6   6  -1    3.55    0.20
   6  -6   1    3.49    0.12
   6  -6   1    3.70    0.16
   6  -6   1    3.40    0.19
   6  -6   1    3.73    0.19
   6  -6   1    3.87    0.15
  -7   6  -1    0.03    0.08
  -7   6  -1    0.17    0.05
   7  -6   1    0.22    0.06
   7  -6   1    0.01    0.07
   7  -6   1    0.26    0.05
   7  -6   1    0.25    0.06
  -8   6  -1    0.31    0.09
  -8   6  -1    0.23    0.05
  -8   6  -1    0.25    0.05
   8  -6   1    0.20    0.07
   8  -6   1    0.17    0.06
   8  -6   1    0.22    0.09
  -9   6  -1    0.09    0.09
  -9   6  -1    0.15    0.05
  -9   6  -1    0.15    0.05
  -9   6  -1    0.05    0.04
   9  -6   1    0.00    0.09
   9  -6   1    0.06    0.06
   9  -6   1    0.03    0.07
 -10   6  -1    0.32    0.11
 -10   6  -1    0.47    0.07
 -10   6  -1    0.29    0.06
  10  -6   1    0.30    0.10
  10  -6   1    0.50    0.08
  10  -6   1    0.38    0.11
 -11   6  -1    0.29    0.12
  11  -6   1    0.18    0.11
  11  -6   1    0.35    0.11
  11  -6   1    0.29    0.08
 -12   6  -1    0.14    0.12
  12  -6   1    0.26    0.11
  12  -6   1    0.21    0.09
   7   5  -1    0.26    0.08
   6   5  -1    4.61    0.23
   6   5  -1    4.79    0.20
  -6  -5   1    5.14    0.30
   5   5  -1    2.29    0.12
   5   5  -1    2.41    0.17
   5   5  -1    2.21    0.13
   5   5  -1    2.29    0.13
  -5  -5   1    2.35    0.21
   4   5  -1    2.04    0.12
   4   5  -1    2.19    0.10
   4   5  -1    1.90    0.11
   4   5  -1    2.15    0.15
  -4  -5   1    2.10    0.19
   3   5  -1   13.67    0.36
   3   5  -1   14.17    0.40
   3   5  -1   13.95    0.34
   3   5  -1   14.36    0.42
  -3  -5   1   13.94    0.48
   2   5  -1    3.07    0.14
   2   5  -1    3.09    0.11
   2   5  -1    2.42    0.15
   2   5  -1    3.07    0.16
  -2  -5   1    3.14    0.18
   1   5  -1    7.06    0.23
   1   5  -1    7.16    0.26
   1   5  -1    7.09    0.23
   1   5  -1    6.90    0.23
   1   5  -1    7.18    0.27
   1   5  -1    7.55    0.26
   1   5  -1    6.98    0.24
   1   5  -1    7.35    0.18
  -1  -5   1    7.17    0.27
  -1  -5   1    6.25    0.26
   0   5  -1    6.18    0.21
   0   5  -1    6.59    0.21
   0   5  -1    6.54    0.21
   0   5  -1    6.70    0.24
   0   5  -1    6.05    0.15
   0   5  -1    5.75    0.20
   0   5  -1    6.29    0.24
   0   5  -1    6.05    0.21
   0  -5   1    6.43    0.21
   0  -5   1    6.36    0.24
  -1   5  -1   33.56    0.83
  -1   5  -1   33.23    0.85
  -1   5  -1   33.28    0.88
  -1   5  -1   33.77    0.95
  -1   5  -1   33.07    0.97
  -1   5  -1   33.00    0.97
   1  -5   1   33.48    0.97
   1  -5   1   33.50    0.91
   1  -5   1   32.23    0.97
  -2   5  -1    0.28    0.04
  -2   5  -1    0.18    0.05
  -2   5  -1    0.23    0.05
  -2   5  -1    0.21    0.03
  -2   5  -1    0.14    0.05
  -2   5  -1    0.15    0.05
   2  -5   1    0.19    0.06
   2  -5   1    0.18    0.03
   2  -5   1    0.28    0.05
   2  -5   1    0.19    0.05
   2  -5   1    0.17    0.05
   2  -5   1    0.18    0.03
  -3   5  -1    5.24    0.13
  -3   5  -1    4.98    0.20
  -3   5  -1    5.42    0.20
  -3   5  -1    5.32    0.17
  -3   5  -1    5.34    0.18
   3  -5   1    5.36    0.16
   3  -5   1    5.22    0.20
   3  -5   1    4.81    0.20
   3  -5   1    4.99    0.16
  -4   5  -1    0.15    0.05
  -4   5  -1    0.10    0.03
  -4   5  -1    0.15    0.04
  -4   5  -1    0.11    0.05
   4  -5   1    0.09    0.03
   4  -5   1    0.04    0.05
   4  -5   1    0.12    0.04
   4  -5   1    0.09    0.05
  -5   5  -1   99.55    2.82
  -5   5  -1   96.24    2.08
  -5   5  -1   99.91    2.81
  -5   5  -1   97.86    2.40
   5  -5   1   96.70    2.08
   5  -5   1   97.21    2.81
   5  -5   1   95.39    2.41
   5  -5   1   96.32    2.55
   5  -5   1   99.86    2.82
  -6   5  -1   13.80    0.47
  -6   5  -1   14.33    0.39
  -6   5  -1   14.44    0.48
  -6   5  -1   14.34    0.34
   6  -5   1   13.79    0.41
   6  -5   1   14.27    0.48
   6  -5   1   14.33    0.42
   6  -5   1   14.07    0.34
   6  -5   1   14.41    0.48
  -7   5  -1   10.74    0.30
  -7   5  -1   10.26    0.38
  -7   5  -1   10.42    0.30
  -7   5  -1   10.33    0.39
   7  -5   1   10.69    0.28
   7  -5   1   10.87    0.36
   7  -5   1    9.93    0.33
   7  -5   1   10.70    0.39
  -8   5  -1   24.10    0.64
  -8   5  -1   24.48    0.79
  -8   5  -1   24.07    0.63
  -8   5  -1   24.63    0.79
   8  -5   1   24.55    0.69
   8  -5   1   25.24    0.79
   8  -5   1   24.37    0.58
  -9   5  -1    0.08    0.05
  -9   5  -1   -0.02    0.03
  -9   5  -1   -0.06    0.03
  -9   5  -1   -0.09    0.08
   9  -5   1    0.07    0.06
   9  -5   1   -0.02    0.08
   9  -5   1    0.13    0.08
 -10   5  -1   10.81    0.43
 -10   5  -1   10.43    0.36
  10  -5   1   10.69    0.43
  10  -5   1   10.51    0.33
  10  -5   1   10.97    0.39
 -11   5  -1    1.06    0.15
  11  -5   1    0.99    0.14
  11  -5   1    1.07    0.12
  11  -5   1    1.14    0.14
   7   4  -1    9.72    0.31
  -7  -4   1   10.06    0.42
   6   4  -1    3.66    0.17
   6   4  -1    3.53    0.16
   6   4  -1    3.75    0.18
  -6  -4   1    3.69    0.24
   5   4  -1    0.05    0.04
   5   4  -1    0.12    0.06
   5   4  -1    0.03    0.05
   5   4  -1    0.13    0.05
  -5  -4   1    0.25    0.09
   4   4  -1   13.38    0.37
   4   4  -1   13.44    0.37
   4   4  -1   13.22    0.34
   4   4  -1   13.56    0.40
  -4  -4   1   13.80    0.47
   3   4  -1   14.45    0.42
   3   4  -1   14.48    0.39
   3   4  -1   15.16    0.40
   3   4  -1   14.99    0.35
  -3  -4   1   14.75    0.48
   2   4  -1   44.56    1.13
   2   4  -1   45.55    1.00
   2   4  -1   46.19    1.16
   2   4  -1   46.88    1.15
   2   4  -1   46.54    1.26
   2   4  -1   46.12    1.31
   2   4  -1   45.89    1.19
   2   4  -1   47.69    1.27
  -2  -4   1   46.01    1.31
   1   4  -1   24.48    0.54
   1   4  -1   25.24    0.63
   1   4  -1   25.39    0.69
   1   4  -1   25.08    0.70
   1   4  -1   24.09    0.72
   1   4  -1   24.33    0.65
   1   4  -1   24.21    0.64
   1   4  -1   24.31    0.67
  -1  -4   1   24.54    0.72
   0   4  -1   45.64    1.27
   0   4  -1   43.73    1.19
   0   4  -1   44.70    1.11
   0   4  -1   43.94    1.20
   0   4  -1   43.88    1.27
   0   4  -1   45.80    1.09
   0   4  -1   44.39    1.17
   0   4  -1   44.13    1.24
   0  -4   1   43.40    1.19
   0  -4   1   44.80    1.20
   0  -4   1   43.58    1.27
  -1   4  -1   69.83    1.98
  -1   4  -1   69.69    1.71
  -1   4  -1   70.22    1.66
  -1   4  -1   68.75    1.90
  -1   4  -1   68.45    1.80
  -1   4  -1   63.98    1.97
   1  -4   1   71.49    1.85
   1  -4   1   69.81    1.69
   1  -4   1   70.91    1.98
   1  -4   1   71.38    1.80
   1  -4   1   69.14    1.83
   1  -4   1   67.34    1.98
  -2   4  -1   57.63    1.37
  -2   4  -1   56.03    1.65
  -2   4  -1   56.90    1.50
  -2   4  -1   59.85    1.65
  -2   4  -1   58.36    1.21
  -2   4  -1   55.89    1.42
   2  -4   1   56.58    1.41
   2  -4   1   56.43    1.65
   2  -4   1   58.83    1.65
   2  -4   1   57.82    1.50
  -3   4  -1   46.21    1.11
  -3   4  -1   43.07    1.30
  -3   4  -1   43.53    1.30
  -3   4  -1   46.82    1.17
  -3   4  -1   46.05    0.95
   3  -4   1   42.39    1.30
   3  -4   1   45.18    1.11
   3  -4   1   46.25    1.17
   3  -4   1   42.15    1.30
  -4   4  -1    0.14    0.05
  -4   4  -1    0.17    0.05
  -4   4  -1    0.12    0.03
   4  -4   1    0.16    0.04
   4  -4   1    0.18    0.05
   4  -4   1    0.13    0.04
   4  -4   1    0.15    0.05
   4  -4   1    0.18    0.03
  -5   4  -1    0.80    0.08
  -5   4  -1    0.98    0.10
  -5   4  -1    0.83    0.06
  -5   4  -1    0.88    0.07
   5  -4   1    0.77    0.07
   5  -4   1    0.93    0.08
   5  -4   1    0.72    0.08
   5  -4   1    0.79    0.09
   5  -4   1    0.79    0.07
  -6   4  -1    8.12    0.23
  -6   4  -1    7.97    0.23
  -6   4  -1    8.09    0.22
  -6   4  -1    8.23    0.30
  -6   4  -1    7.92    0.30
   6  -4   1    7.55    0.30
   6  -4   1    8.00    0.26
   6  -4   1    8.03    0.26
   6  -4   1    7.89    0.30
   6  -4   1    7.99    0.22
  -7   4  -1   10.15    0.37
  -7   4  -1    9.78    0.36
  -7   4  -1    9.86    0.28
  -7   4  -1    9.55    0.27
   7  -4   1    9.59    0.32
   7  -4   1   10.43    0.37
   7  -4   1    9.96    0.27
  -8   4  -1    0.60    0.09
  -8   4  -1    0.52    0.05
  -8   4  -1    0.67    0.08
  -8   4  -1    0.67    0.06
  -8   4  -1    0.62    0.10
   8  -4   1    0.66    0.09
   8  -4   1    0.71    0.08
   8  -4   1    0.63    0.10
  -9   4  -1    6.84    0.30
  -9   4  -1    6.90    0.30
  -9   4  -1    6.93    0.26
  -9   4  -1    6.63    0.20
   9  -4   1    6.78    0.28
   9  -4   1    6.29    0.30
   9  -4   1    6.69    0.24
 -10   4  -1    0.08    0.08
 -10   4  -1    0.08    0.07
  10  -4   1    0.00    0.08
  10  -4   1   -0.01    0.06
  10  -4   1    0.06    0.08
 -11   4  -1    2.11    0.21
  11  -4   1    2.15    0.17
  11  -4   1    2.57    0.21
   8   3  -1    5.00    0.23
   8   3  -1    5.31    0.23
  -8  -3   1    5.45    0.30
   7   3  -1    0.37    0.07
   7   3  -1    0.28    0.07
   7   3  -1    0.32    0.07
  -7  -3   1    0.20    0.10
   6   3  -1    4.62    0.18
   6   3  -1    4.21    0.14
   6   3  -1    4.20    0.17
   6   3  -1    4.32    0.18
  -6  -3   1    4.52    0.24
   5   3  -1    0.24    0.05
   5   3  -1    0.19    0.04
   5   3  -1    0.06    0.05
   5   3  -1    0.07    0.05
  -5  -3   1    0.10    0.08
   4   3  -1    1.96    0.10
   4   3  -1    1.91    0.09
   4   3  -1    1.85    0.11
   4   3  -1    1.93    0.10
  -4  -3   1    1.82    0.15
   3   3  -1    3.13    0.11
   3   3  -1    3.31    0.11
   3   3  -1    3.18    0.11
   3   3  -1    3.20    0.15
   3   3  -1    3.04    0.15
   3   3  -1    3.49    0.13
   3   3  -1    3.16    0.15
   3   3  -1    3.41    0.14
  -3  -3   1    3.12    0.16
   2   3  -1  144.11    3.83
   2   3  -1  145.08    3.63
   2   3  -1  149.95    3.86
   2   3  -1  148.45    3.50
   2   3  -1  148.26    3.98
   2   3  -1  144.13    3.56
   2   3  -1  143.17    3.55
   2   3  -1  144.68    3.09
  -2  -3   1  148.85    3.99
   1   3  -1  390.33    9.62
   1   3  -1  403.58   10.31
   1   3  -1  392.55   10.76
   1   3  -1  403.92    9.44
   1   3  -1  400.36   10.40
   1   3  -1  372.59    9.60
  -1  -3   1  404.04   10.82
   0   3  -1    3.22    0.12
   0   3  -1    3.23    0.12
   0   3  -1    3.30    0.11
   0   3  -1    3.21    0.11
   0   3  -1    3.33    0.11
   0   3  -1    3.07    0.12
   0   3  -1    3.10    0.11
   0  -3   1    3.20    0.12
   0  -3   1    3.41    0.11
   0  -3   1    3.03    0.12
  -1   3  -1    1.82    0.08
  -1   3  -1    1.97    0.08
  -1   3  -1    1.79    0.07
  -1   3  -1    1.78    0.07
   1  -3   1    1.88    0.06
   1  -3   1    1.79    0.07
   1  -3   1    1.84    0.08
   1  -3   1    1.93    0.08
   1  -3   1    1.89    0.08
  -2   3  -1  329.95    8.72
  -2   3  -1  362.68    9.61
  -2   3  -1  338.29    7.09
  -2   3  -1  342.64    7.95
  -2   3  -1  331.08    9.57
   2  -3   1  343.62    9.58
   2  -3   1  334.71    8.71
   2  -3   1  333.17    8.21
   2  -3   1  307.12    9.55
  -3   3  -1   50.13    1.50
  -3   3  -1   52.41    1.11
  -3   3  -1   54.74    1.51
   3  -3   1   48.32    1.50
   3  -3   1   53.34    1.37
   3  -3   1   52.38    1.11
   3  -3   1   51.55    1.29
   3  -3   1   54.07    1.51
  -4   3  -1   61.56    1.87
  -4   3  -1   65.97    1.39
  -4   3  -1   67.88    1.87
   4  -3   1   64.97    1.87
   4  -3   1   63.57    1.87
   4  -3   1   64.57    1.70
   4  -3   1   64.58    1.61
   4  -3   1   65.06    1.39
  -5   3  -1   72.30    1.79
  -5   3  -1   78.03    2.13
  -5   3  -1   74.05    1.58
  -5   3  -1   74.16    2.13
  -5   3  -1   73.64    1.83
   5  -3   1   73.25    2.13
   5  -3   1   72.53    1.76
   5  -3   1   73.01    1.58
   5  -3   1   73.18    1.94
   5  -3   1   71.20    1.83
   5  -3   1   74.67    2.13
  -6   3  -1    1.62    0.08
  -6   3  -1    1.66    0.12
  -6   3  -1    1.72    0.09
  -6   3  -1    1.66    0.07
  -6   3  -1    1.86    0.12
   6  -3   1    1.69    0.09
   6  -3   1    1.67    0.08
   6  -3   1    1.69    0.12
   6  -3   1    1.63    0.12
   6  -3   1    1.63    0.11
  -7   3  -1    0.32    0.04
  -7   3  -1    0.36    0.07
  -7   3  -1    0.19    0.07
  -7   3  -1    0.17    0.06
   7  -3   1    0.26    0.05
   7  -3   1    0.21    0.06
   7  -3   1    0.30    0.07
   7  -3   1    0.25    0.06
  -8   3  -1   -0.11    0.06
  -8   3  -1   -0.01    0.03
  -8   3  -1    0.11    0.07
  -8   3  -1    0.13    0.07
   8  -3   1    0.08    0.07
   8  -3   1    0.06    0.07
   8  -3   1    0.01    0.05
   8  -3   1    0.16    0.05
  -9   3  -1    0.66    0.10
  -9   3  -1    0.63    0.10
  -9   3  -1    0.56    0.09
   9  -3   1    0.51    0.10
   9  -3   1    0.43    0.08
   9  -3   1    0.39    0.09
 -10   3  -1    1.12    0.13
 -10   3  -1    1.29    0.13
  10  -3   1    1.25    0.12
  10  -3   1    1.25    0.14
 -11   3  -1    0.10    0.09
  11  -3   1    0.12    0.10
  11  -3   1    0.00    0.07
   9   2  -1    0.17    0.08
   9   2  -1    0.15    0.08
  -9  -2   1    0.28    0.11
   8   2  -1    7.39    0.26
   8   2  -1    7.05    0.27
  -8  -2   1    7.00    0.32
  -8  -2   1    6.97    0.24
   7   2  -1    5.57    0.19
   7   2  -1    5.51    0.20
   7   2  -1    5.71    0.22
  -7  -2   1    5.23    0.26
  -7  -2   1    5.19    0.19
  -7  -2   1    5.23    0.19
   6   2  -1    1.35    0.09
   6   2  -1    1.29    0.12
   6   2  -1    1.39    0.11
   6   2  -1    1.51    0.10
   6   2  -1    1.34    0.09
  -6  -2   1    1.27    0.09
  -6  -2   1    1.11    0.12
  -6  -2   1    1.39    0.09
   5   2  -1   25.63    0.60
   5   2  -1   25.98    0.67
   5   2  -1   24.97    0.68
   5   2  -1   26.71    0.78
   5   2  -1   25.36    0.75
   5   2  -1   25.47    0.75
   5   2  -1   25.74    0.64
  -5  -2   1   25.86    0.75
  -5  -2   1   26.42    0.75
  -5  -2   1   25.86    0.77
   4   2  -1   31.17    0.91
   4   2  -1   31.65    0.81
   4   2  -1   31.43    0.71
   4   2  -1   31.90    0.91
   4   2  -1   31.05    0.81
   4   2  -1   31.41    0.78
   4   2  -1   32.05    0.91
   4   2  -1   31.02    0.80
  -4  -2   1   31.55    0.91
  -4  -2   1   31.97    0.91
  -4  -2   1   31.76    0.91
   3   2  -1   24.80    0.63
   3   2  -1   24.71    0.63
   3   2  -1   24.73    0.72
   3   2  -1   24.98    0.55
   3   2  -1   24.50    0.64
   3   2  -1   24.34    0.62
  -3  -2   1   25.00    0.72
  -3  -2   1   24.90    0.64
   2   2  -1   34.39    0.85
   2   2  -1   34.43    0.97
   2   2  -1   34.21    0.87
   2   2  -1   34.49    0.93
   2   2  -1   34.02    0.85
  -2  -2   1   34.59    0.85
  -2  -2   1   34.55    0.97
   1   2  -1   45.01    1.18
   1   2  -1   44.83    1.23
   1   2  -1   44.02    1.08
  -1  -2   1   44.73    1.08
  -1  -2   1   44.85    1.23
   0   2  -1  212.12    5.96
   0   2  -1  213.59    5.03
   0   2  -1  205.79    5.46
   0   2  -1  213.96    5.53
   0   2  -1  216.54    5.97
   0  -2   1  212.11    5.03
   0  -2   1  207.66    5.96
   0  -2   1  205.39    5.56
   0  -2   1  205.17    5.50
   0  -2   1  210.36    5.47
  -1   2  -1   78.36    1.93
  -1   2  -1   79.81    2.26
  -1   2  -1   84.25    2.26
  -1   2  -1   78.98    1.87
  -1   2  -1   76.37    2.03
   1  -2   1   75.10    1.93
   1  -2   1   75.32    1.87
   1  -2   1   77.87    2.06
   1  -2   1   76.71    2.24
   1  -2   1   83.12    2.25
  -2   2  -1    0.24    0.03
  -2   2  -1    0.18    0.03
  -2   2  -1    0.28    0.03
  -2   2  -1    0.33    0.04
  -2   2  -1    0.24    0.03
   2  -2   1    0.26    0.03
   2  -2   1    0.20    0.03
   2  -2   1    0.22    0.02
   2  -2   1    0.21    0.03
   2  -2   1    0.22    0.03
  -3   2  -1  109.03    2.96
  -3   2  -1  104.27    2.20
  -3   2  -1  102.40    2.57
  -3   2  -1  104.77    2.96
   3  -2   1  104.46    2.47
   3  -2   1  106.09    2.96
   3  -2   1  105.03    2.70
   3  -2   1  101.86    2.55
   3  -2   1   98.37    2.96
   3  -2   1  103.24    2.20
  -4   2  -1   53.09    1.49
  -4   2  -1   50.70    1.49
  -4   2  -1   50.82    1.28
  -4   2  -1   52.10    1.11
   4  -2   1   47.65    1.49
   4  -2   1   51.92    1.29
   4  -2   1   51.82    1.24
   4  -2   1   53.21    1.49
   4  -2   1   51.13    1.11
  -5   2  -1   22.93    0.72
  -5   2  -1   24.43    0.72
  -5   2  -1   23.83    0.61
  -5   2  -1   24.75    0.54
   5  -2   1   23.73    0.63
   5  -2   1   22.30    0.72
   5  -2   1   23.73    0.54
   5  -2   1   23.98    0.72
   5  -2   1   24.04    0.59
  -6   2  -1    4.35    0.19
  -6   2  -1    4.22    0.18
  -6   2  -1    4.37    0.14
  -6   2  -1    4.37    0.19
   6  -2   1    4.34    0.19
   6  -2   1    4.23    0.15
   6  -2   1    4.40    0.18
   6  -2   1    4.08    0.15
   6  -2   1    4.13    0.18
  -7   2  -1    0.31    0.04
  -7   2  -1    0.35    0.08
  -7   2  -1    0.13    0.07
  -7   2  -1    0.39    0.07
   7  -2   1    0.32    0.07
   7  -2   1    0.37    0.07
   7  -2   1    0.47    0.06
   7  -2   1    0.44    0.06
  -8   2  -1    7.60    0.22
  -8   2  -1    7.68    0.31
  -8   2  -1    7.57    0.31
  -8   2  -1    7.84    0.30
   8  -2   1    7.80    0.25
   8  -2   1    7.95    0.29
   8  -2   1    7.54    0.31
  -9   2  -1    0.63    0.10
  -9   2  -1    0.59    0.10
   9  -2   1    0.68    0.10
   9  -2   1    0.52    0.09
   9  -2   1    0.61    0.10
 -10   2  -1   -0.11    0.08
 -10   2  -1    0.12    0.08
  10  -2   1    0.06    0.07
  10  -2   1    0.04    0.08
 -11   2  -1    0.88    0.13
 -11   2  -1    0.71    0.12
  11  -2   1    0.74    0.11
  10   1  -1    0.18    0.09
  10   1  -1    0.17    0.09
 -10  -1   1    0.23    0.11
 -10  -1   1    0.24    0.07
   9   1  -1    5.09    0.24
   9   1  -1    5.16    0.22
  -9  -1   1    4.80    0.21
  -9  -1   1    5.02    0.27
   8   1  -1    0.18    0.07
   8   1  -1    0.12    0.07
  -8  -1   1    0.15    0.08
  -8  -1   1    0.17    0.06
   7   1  -1   10.49    0.35
   7   1  -1   10.77    0.31
   7   1  -1   10.90    0.34
   7   1  -1   10.93    0.30
  -7  -1   1   10.21    0.35
  -7  -1   1   10.92    0.36
  -7  -1   1   10.60    0.38
   6   1  -1   97.74    2.73
   6   1  -1   93.36    2.73
   6   1  -1   94.60    2.38
   6   1  -1   96.03    2.37
   6   1  -1   95.32    2.06
  -6  -1   1   95.83    2.73
  -6  -1   1   96.90    2.64
  -6  -1   1   94.45    2.73
   5   1  -1   39.08    1.00
   5   1  -1   39.13    1.16
   5   1  -1   41.00    1.16
   5   1  -1   39.87    1.13
   5   1  -1   39.31    1.02
   5   1  -1   39.92    0.89
   5   1  -1   40.95    1.01
  -5  -1   1   41.30    1.16
  -5  -1   1   39.27    1.00
  -5  -1   1   39.93    1.16
  -5  -1   1   39.38    1.13
   4   1  -1    0.50    0.05
   4   1  -1    0.57    0.03
   4   1  -1    0.44    0.05
   4   1  -1    0.44    0.04
   4   1  -1    0.48    0.05
   4   1  -1    0.44    0.04
   4   1  -1    0.51    0.06
   4   1  -1    0.47    0.05
  -4  -1   1    0.52    0.06
  -4  -1   1    0.50    0.05
  -4  -1   1    0.54    0.06
  -4  -1   1    0.34    0.04
   3   1  -1    0.11    0.02
   3   1  -1    0.13    0.02
   3   1  -1    0.13    0.04
   3   1  -1    0.15    0.03
   3   1  -1    0.11    0.02
  -3  -1   1    0.13    0.03
  -3  -1   1    0.15    0.04
   2   1  -1   63.13    1.80
   2   1  -1   63.54    1.74
   2   1  -1   61.92    1.53
   2   1  -1   64.05    1.80
  -2  -1   1   64.45    1.81
  -2  -1   1   64.85    1.74
  -2  -1   1   63.10    1.53
   1   1  -1   76.32    2.19
   1   1  -1   77.26    2.19
   1   1  -1   76.96    2.09
  -1  -1   1   77.42    2.19
  -1  -1   1   77.30    1.84
   0   1  -1  257.53    6.73
   0   1  -1  245.65    6.65
   0   1  -1  242.37    7.27
   0  -1   1  276.27    6.74
   0  -1   1  263.48    7.28
   0  -1   1  264.46    6.25
   0  -1   1  253.67    6.65
   0  -1   1  267.91    6.11
   0  -1   1  235.67    7.27
  -1   1  -1   69.10    1.76
  -1   1  -1   71.86    1.85
  -1   1  -1   72.05    1.74
  -1   1  -1   75.66    2.04
  -1   1  -1   69.94    2.03
   1  -1   1   61.76    2.01
   1  -1   1   70.80    1.74
   1  -1   1   73.78    2.03
   1  -1   1   72.10    1.83
  -2   1  -1  243.51    6.84
  -2   1  -1  234.81    5.92
  -2   1  -1  241.60    5.07
  -2   1  -1  240.60    6.83
  -2   1  -1  239.58    5.88
   2  -1   1  235.58    5.89
   2  -1   1  241.43    6.84
   2  -1   1  236.06    5.09
   2  -1   1  236.43    6.26
   2  -1   1  240.57    5.93
   2  -1   1  241.65    6.84
  -3   1  -1   33.64    0.86
  -3   1  -1   35.89    0.89
  -3   1  -1   36.18    1.03
  -3   1  -1   35.63    0.77
  -3   1  -1   35.34    1.03
  -3   1  -1   35.01    0.88
   3  -1   1   35.74    0.89
   3  -1   1   34.27    1.02
   3  -1   1   33.84    0.88
   3  -1   1   36.47    1.03
   3  -1   1   35.48    0.77
   3  -1   1   35.69    0.86
  -4   1  -1    3.80    0.12
  -4   1  -1    3.55    0.15
  -4   1  -1    3.89    0.15
  -4   1  -1    3.77    0.12
  -4   1  -1    3.96    0.15
   4  -1   1    3.56    0.12
   4  -1   1    3.60    0.14
   4  -1   1    3.61    0.12
   4  -1   1    3.70    0.15
   4  -1   1    3.69    0.15
   4  -1   1    3.60    0.13
  -5   1  -1   43.35    1.34
  -5   1  -1   48.13    1.29
  -5   1  -1   47.05    1.15
  -5   1  -1   46.25    1.01
  -5   1  -1   44.03    1.34
   5  -1   1   46.12    1.17
   5  -1   1   46.98    1.13
   5  -1   1   46.80    1.15
   5  -1   1   42.96    1.34
   5  -1   1   45.86    1.01
   5  -1   1   46.92    1.34
  -6   1  -1    1.56    0.11
  -6   1  -1    1.47    0.08
  -6   1  -1    1.29    0.12
  -6   1  -1    1.46    0.11
   6  -1   1    1.68    0.10
   6  -1   1    1.66    0.11
   6  -1   1    1.68    0.11
   6  -1   1    1.38    0.08
   6  -1   1    1.61    0.11
   6  -1   1    1.73    0.10
  -7   1  -1    1.16    0.08
  -7   1  -1    0.99    0.10
  -7   1  -1    1.06    0.12
  -7   1  -1    1.11    0.10
   7  -1   1    1.08    0.10
   7  -1   1    1.31    0.13
   7  -1   1    1.19    0.09
   7  -1   1    0.83    0.08
  -8   1  -1    3.81    0.21
  -8   1  -1    3.76    0.20
  -8   1  -1    3.68    0.20
   8  -1   1    3.83    0.20
   8  -1   1    3.73    0.20
   8  -1   1    4.09    0.18
  -9   1  -1   -0.01    0.08
  -9   1  -1   -0.07    0.07
   9  -1   1    0.13    0.07
   9  -1   1    0.02    0.08
 -10   1  -1    1.26    0.15
 -10   1  -1    1.67    0.17
  10  -1   1    1.43    0.15
  10  -1   1    1.34    0.13
  10   0  -1    0.50    0.11
  10   0  -1    0.25    0.09
 -10   0   1    0.39    0.10
 -10   0   1    0.22    0.08
   9   0  -1   -0.04    0.07
   9   0  -1   -0.03    0.06
  -9   0   1    0.11    0.07
  -9   0   1    0.01    0.08
   8   0  -1    0.04    0.06
   8   0  -1    0.01    0.06
   8   0  -1    0.06    0.06
  -8   0   1    0.07    0.06
  -8   0   1    0.04    0.06
  -8   0   1    0.10    0.07
   7   0  -1   25.95    0.62
   7   0  -1   25.85    0.79
   7   0  -1   26.27    0.71
  -7   0   1   26.71    0.78
  -7   0   1   25.15    0.79
  -7   0   1   25.25    0.79
   6   0  -1   17.10    0.48
   6   0  -1   17.52    0.49
   6   0  -1   17.44    0.43
   6   0  -1   17.65    0.55
   6   0  -1   17.11    0.54
   6   0  -1   17.17    0.45
  -6   0   1   17.21    0.48
  -6   0   1   17.91    0.55
  -6   0   1   19.43    0.54
  -6   0   1   17.55    0.55
   5   0  -1   17.21    0.53
   5   0  -1   17.38    0.41
   5   0  -1   17.82    0.44
   5   0  -1   17.57    0.46
   5   0  -1   16.45    0.47
   5   0  -1   16.37    0.52
  -5   0   1   17.14    0.53
  -5   0   1   17.34    0.53
  -5   0   1   17.89    0.52
  -5   0   1   17.75    0.46
   4   0  -1    1.12    0.07
   4   0  -1    1.07    0.07
   4   0  -1    1.06    0.07
   4   0  -1    0.98    0.04
   4   0  -1    1.09    0.06
   4   0  -1    0.96    0.07
  -4   0   1    1.08    0.07
  -4   0   1    1.11    0.07
  -4   0   1    1.04    0.07
  -4   0   1    1.05    0.07
   3   0  -1  356.88    9.89
   3   0  -1  337.49    9.42
   3   0  -1  352.07    9.88
   3   0  -1  348.09    8.29
   3   0  -1  336.87    8.38
  -3   0   1  338.40    9.43
  -3   0   1  359.04    9.88
  -3   0   1  348.86    8.30
  -3   0   1  346.81    9.87
   2   0  -1   85.96    2.08
   2   0  -1   88.32    2.51
   2   0  -1   85.80    2.12
   2   0  -1   84.65    2.37
   2   0  -1   89.09    2.50
  -2   0   1   91.34    2.51
  -2   0   1   86.75    2.08
  -2   0   1   87.14    2.37
  -2   0   1   87.23    2.51
   1   0  -1  149.14    4.15
   1   0  -1  144.08    4.14
   1   0  -1  147.95    3.59
   1   0  -1  149.26    3.54
  -1   0   1  143.29    4.14
  -1   0   1  146.35    3.54
  -1   0   1  138.41    4.13
  -1   0   1  144.63    3.59
   0   0  -1   15.82    0.47
  -1   0  -1  321.48    8.93
  -1   0  -1  305.33    7.69
  -1   0  -1  321.26    7.79
  -1   0  -1  311.37    7.61
  -1   0  -1  330.76    8.93
  -1   0  -1  315.81    6.65
   1   0   1  305.07    7.78
   1   0   1  313.72    8.16
   1   0   1  310.84    8.17
   1   0   1  317.70    6.66
   1   0   1  310.78    7.69
   1   0   1  311.83    7.61
   1   0   1  309.52    8.92
  -2   0  -1    7.90    0.20
  -2   0  -1    8.04    0.19
  -2   0  -1    7.95    0.22
  -2   0  -1    7.75    0.22
  -2   0  -1    7.26    0.25
   2   0   1    8.19    0.25
   2   0   1    7.84    0.19
   2   0   1    7.64    0.22
   2   0   1    7.91    0.22
   2   0   1    7.92    0.25
   2   0   1    8.02    0.20
  -3   0  -1   18.27    0.47
  -3   0  -1   18.13    0.47
  -3   0  -1   18.58    0.53
  -3   0  -1   18.08    0.54
  -3   0  -1   18.07    0.45
  -3   0  -1   18.10    0.41
  -3   0  -1   18.10    0.54
   3   0   1   17.35    0.54
   3   0   1   18.19    0.46
   3   0   1   17.69    0.47
   3   0   1   17.75    0.45
   3   0   1   18.09    0.54
   3   0   1   18.22    0.47
   3   0   1   17.83    0.41
  -4   0  -1   97.24    2.40
  -4   0  -1   95.98    2.76
  -4   0  -1   95.91    2.06
  -4   0  -1   96.29    2.76
  -4   0  -1   98.57    2.65
   4   0   1   98.12    2.76
   4   0   1   97.20    2.39
   4   0   1   97.03    2.07
   4   0   1   98.11    2.33
   4   0   1   94.36    2.76
   4   0   1   95.55    2.40
  -5   0  -1   18.71    0.57
  -5   0  -1   18.07    0.58
  -5   0  -1   18.41    0.50
  -5   0  -1   19.06    0.58
   5   0   1   18.83    0.51
   5   0   1   19.09    0.50
   5   0   1   19.60    0.58
   5   0   1   19.17    0.58
   5   0   1   18.54    0.50
   5   0   1   18.38    0.45
  -6   0  -1   26.12    0.80
  -6   0  -1   27.26    0.81
  -6   0  -1   26.33    0.70
  -6   0  -1   26.64    0.81
   6   0   1   26.16    0.70
   6   0   1   26.96    0.63
   6   0   1   26.99    0.72
   6   0   1   25.97    0.81
   6   0   1   27.39    0.82
  -7   0  -1    1.44    0.15
  -7   0  -1    1.79    0.13
  -7   0  -1    1.42    0.13
   7   0   1    1.42    0.13
   7   0   1    1.91    0.14
   7   0   1    1.79    0.12
   7   0   1    1.78    0.11
  -8   0  -1   20.37    0.66
  -8   0  -1   20.96    0.67
   8   0   1   20.52    0.56
   8   0   1   21.03    0.61
   8   0   1   20.59    0.53
  -9   0  -1    0.22    0.10
  -9   0  -1    0.12    0.07
   9   0   1    0.15    0.09
   9   0   1    0.23    0.08
 -10   0  -1    0.22    0.11
 -10   0  -1    0.11    0.08
  10   0   1    0.12    0.08
  11  -1  -1    0.39    0.10
  11  -1  -1    0.25    0.09
 -11   1   1    0.17    0.09
  10  -1  -1    0.08    0.07
  10  -1  -1    0.04    0.08
 -10   1   1    0.06    0.08
 -10   1   1    0.14    0.08
   9  -1  -1   10.26    0.38
   9  -1  -1   10.24    0.35
   9  -1  -1   10.28    0.31
  -9   1   1    9.89    0.36
  -9   1   1    9.83    0.37
   8  -1  -1   23.86    0.58
   8  -1  -1   24.29    0.66
   8  -1  -1   22.22    0.73
  -8   1   1   23.33    0.74
  -8   1   1   23.44    0.70
  -8   1   1   23.31    0.74
   7  -1  -1   84.34    2.43
   7  -1  -1   82.96    2.11
   7  -1  -1   82.46    2.05
   7  -1  -1   83.97    1.83
  -7   1   1   83.31    2.32
  -7   1   1   87.07    2.43
  -7   1   1   85.35    2.43
  -7   1   1   84.03    2.05
   6  -1  -1   25.01    0.77
   6  -1  -1   24.94    0.77
   6  -1  -1   25.86    0.65
   6  -1  -1   25.48    0.68
   6  -1  -1   24.92    0.59
  -6   1   1   24.99    0.77
  -6   1   1   26.20    0.77
  -6   1   1   26.28    0.73
  -6   1   1   25.53    0.66
   5  -1  -1    4.22    0.18
   5  -1  -1    4.62    0.14
   5  -1  -1    4.42    0.18
   5  -1  -1    4.72    0.15
  -5   1   1    4.40    0.16
  -5   1   1    4.33    0.18
  -5   1   1    4.45    0.18
  -5   1   1    4.63    0.16
   4  -1  -1   96.28    2.84
   4  -1  -1   94.03    2.84
   4  -1  -1  100.99    2.42
   4  -1  -1  100.20    2.12
  -4   1   1  103.81    2.84
  -4   1   1   99.13    2.41
  -4   1   1  101.35    2.38
  -4   1   1  101.54    2.70
  -4   1   1   99.64    2.84
   3  -1  -1   10.67    0.28
   3  -1  -1   11.34    0.34
   3  -1  -1   10.09    0.34
  -3   1   1   11.67    0.34
  -3   1   1   10.65    0.28
  -3   1   1   10.81    0.31
  -3   1   1   11.23    0.28
  -3   1   1   11.17    0.34
   2  -1  -1  286.81    7.83
   2  -1  -1  266.98    6.66
   2  -1  -1  260.63    7.80
  -2   1   1  296.97    7.83
  -2   1   1  264.88    6.66
  -2   1   1  262.93    6.77
  -2   1   1  280.29    7.82
   1  -1  -1   50.74    1.37
   1  -1  -1   52.12    1.31
   1  -1  -1   52.22    1.28
   1  -1  -1   52.17    1.50
   1  -1  -1   52.10    1.50
  -1   1   1   50.90    1.50
  -1   1   1   50.09    1.28
  -1   1   1   50.47    1.31
  -1   1   1   52.24    1.50
   0  -1  -1  131.20    3.21
   0  -1  -1  143.59    3.76
   0  -1  -1  131.78    3.58
   0  -1  -1  135.44    3.75
   0  -1  -1  127.23    3.46
   0  -1  -1  130.87    3.22
   0  -1  -1  129.37    3.25
   0   1   1  130.05    3.25
   0   1   1  123.51    3.73
   0   1   1  131.65    3.74
   0   1   1  125.68    3.45
   0   1   1  132.56    3.21
   0   1   1  130.28    3.20
   0   1   1  132.26    3.40
  -1  -1  -1   50.49    1.25
  -1  -1  -1   48.81    1.31
  -1  -1  -1   50.27    1.37
  -1  -1  -1   50.08    1.22
  -1  -1  -1   50.45    1.42
  -1  -1  -1   47.70    1.42
  -1  -1  -1   49.23    1.22
  -1  -1  -1   51.33    1.06
   1   1   1   49.96    1.31
   1   1   1   48.15    1.42
   1   1   1   50.98    1.42
   1   1   1   50.87    1.23
   1   1   1   49.28    1.22
   1   1   1   48.76    1.25
   1   1   1   50.84    1.06
  -2  -1  -1  250.84    6.17
  -2  -1  -1  256.71    6.08
  -2  -1  -1  249.23    7.11
  -2  -1  -1  244.96    5.30
  -2  -1  -1  251.63    6.75
  -2  -1  -1  260.53    7.12
  -2  -1  -1  253.53    6.11
   2   1   1  247.83    6.54
   2   1   1  246.98    7.10
   2   1   1  246.04    7.10
   2   1   1  250.27    5.34
   2   1   1  247.54    6.08
   2   1   1  245.60    6.20
   2   1   1  247.37    6.14
  -3  -1  -1  181.62    4.96
  -3  -1  -1  180.18    4.46
  -3  -1  -1  183.93    5.19
  -3  -1  -1  181.47    5.17
  -3  -1  -1  182.43    4.43
  -3  -1  -1  182.74    3.86
  -3  -1  -1  184.97    4.51
   3   1   1  183.41    3.89
   3   1   1  182.05    4.44
   3   1   1  185.73    5.18
   3   1   1  187.66    4.36
   3   1   1  180.10    5.17
   3   1   1  181.24    4.76
   3   1   1  182.12    4.52
   3   1   1  180.65    4.47
  -4  -1  -1    3.12    0.14
  -4  -1  -1    3.17    0.12
  -4  -1  -1    3.34    0.14
  -4  -1  -1    3.27    0.16
   4   1   1    3.30    0.13
   4   1   1    3.15    0.12
   4   1   1    3.22    0.13
   4   1   1    3.15    0.14
   4   1   1    3.51    0.10
   4   1   1    3.23    0.13
   4   1   1    3.32    0.14
   4   1   1    3.13    0.13
  -5  -1  -1    4.68    0.19
  -5  -1  -1    4.87    0.17
  -5  -1  -1    4.78    0.22
  -5  -1  -1    4.42    0.19
   5   1   1    4.82    0.19
   5   1   1    4.59    0.13
   5   1   1    4.56    0.18
   5   1   1    4.91    0.17
   5   1   1    4.68    0.19
   5   1   1    4.99    0.19
   5   1   1    4.58    0.20
  -6  -1  -1   11.66    0.39
  -6  -1  -1   11.34    0.39
  -6  -1  -1   11.92    0.42
   6   1   1   11.09    0.38
   6   1   1   12.40    0.37
   6   1   1   12.03    0.32
   6   1   1   11.80    0.35
  -7  -1  -1    5.37    0.23
  -7  -1  -1    5.86    0.27
   7   1   1    5.60    0.21
   7   1   1    5.78    0.21
   7   1   1    5.70    0.23
  -8  -1  -1    1.97    0.20
  -8  -1  -1    2.17    0.15
   8   1   1    2.20    0.16
   8   1   1    2.17    0.17
  -9  -1  -1    2.00    0.15
  -9  -1  -1    2.31    0.22
   9   1   1    2.56    0.18
   9   1   1    2.42    0.19
  11  -2  -1    0.32    0.10
  11  -2  -1    0.26    0.09
 -11   2   1    0.45    0.10
  10  -2  -1    0.36    0.10
  10  -2  -1    0.47    0.09
 -10   2   1    0.45    0.10
 -10   2   1    0.31    0.08
   9  -2  -1    0.15    0.08
   9  -2  -1    0.25    0.08
   9  -2  -1    0.33    0.07
  -9   2   1    0.10    0.08
  -9   2   1    0.32    0.07
  -9   2   1    0.30    0.08
   8  -2  -1   13.57    0.47
   8  -2  -1   14.05    0.37
   8  -2  -1   14.57    0.43
  -8   2   1   13.82    0.40
  -8   2   1   12.98    0.43
  -8   2   1   13.52    0.48
  -8   2   1   13.78    0.47
   7  -2  -1    0.92    0.08
   7  -2  -1    1.02    0.11
   7  -2  -1    1.11    0.11
  -7   2   1    0.92    0.09
  -7   2   1    1.04    0.12
  -7   2   1    0.97    0.08
  -7   2   1    1.04    0.11
   6  -2  -1   53.39    1.66
   6  -2  -1   58.35    1.25
   6  -2  -1   57.93    1.66
  -6   2   1   57.30    1.39
  -6   2   1   58.02    1.56
  -6   2   1   57.81    1.39
  -6   2   1   57.66    1.67
  -6   2   1   55.94    1.66
   5  -2  -1   89.89    2.59
   5  -2  -1   90.76    2.19
   5  -2  -1   89.16    2.59
   5  -2  -1   91.21    1.93
  -5   2   1   92.54    2.17
  -5   2   1   86.90    2.59
  -5   2   1   86.86    2.59
  -5   2   1   93.50    2.19
  -5   2   1   92.10    2.45
   4  -2  -1    0.03    0.03
   4  -2  -1    0.08    0.03
   4  -2  -1    0.03    0.02
   4  -2  -1    0.08    0.03
  -4   2   1    0.02    0.02
  -4   2   1    0.08    0.04
  -4   2   1    0.06    0.02
  -4   2   1    0.11    0.03
  -4   2   1    0.03    0.04
  -4   2   1    0.08    0.02
   3  -2  -1   49.76    1.58
   3  -2  -1   56.28    1.58
   3  -2  -1   55.69    1.34
  -3   2   1   54.63    1.58
  -3   2   1   54.97    1.34
  -3   2   1   56.35    1.58
  -3   2   1   56.48    1.36
   1  -2  -1  996.14   26.91
   1  -2  -1  995.85   24.14
  -1   2   1 1000.00   24.61
   0  -2  -1  103.53    2.50
   0  -2  -1  103.51    2.45
   0  -2  -1   99.80    2.64
   0  -2  -1   99.61    2.13
   0  -2  -1   99.14    2.45
   0  -2  -1   93.85    2.85
   0  -2  -1  104.52    2.88
   0  -2  -1  102.90    2.73
   0  -2  -1  100.62    2.62
   0   2   1  100.83    2.73
   0   2   1   97.74    2.85
   0   2   1  101.76    2.50
   0   2   1  104.08    2.45
   0   2   1   98.34    2.64
   0   2   1   98.03    2.85
  -1  -2  -1  241.89    6.50
  -1  -2  -1  237.07    6.75
  -1  -2  -1  236.26    5.04
  -1  -2  -1  238.04    5.80
  -1  -2  -1  232.13    6.25
  -1  -2  -1  243.67    5.92
  -1  -2  -1  238.91    5.83
  -1  -2  -1  242.61    6.77
   1   2   1  235.19    6.20
   1   2   1  237.72    5.82
   1   2   1  236.46    6.43
   1   2   1  242.04    6.23
   1   2   1  237.50    5.05
   1   2   1  231.49    5.92
   1   2   1  240.07    6.76
   1   2   1  235.17    5.81
   1   2   1  236.54    6.76
  -2  -2  -1   22.44    0.73
  -2  -2  -1   25.48    0.73
  -2  -2  -1   25.33    0.63
  -2  -2  -1   25.32    0.55
  -2  -2  -1   25.68    0.65
  -2  -2  -1   25.73    0.63
  -2  -2  -1   25.24    0.73
   2   2   1   24.56    0.65
   2   2   1   25.18    0.63
   2   2   1   24.73    0.70
   2   2   1   24.38    0.73
   2   2   1   24.93    0.69
   2   2   1   25.55    0.64
   2   2   1   25.13    0.55
  -3  -2  -1   26.38    0.69
  -3  -2  -1   26.17    0.67
  -3  -2  -1   25.76    0.77
  -3  -2  -1   26.46    0.78
  -3  -2  -1   26.17    0.68
   3   2   1   26.47    0.74
   3   2   1   26.11    0.77
   3   2   1   26.06    0.59
   3   2   1   27.11    0.77
   3   2   1   26.74    0.70
   3   2   1   26.04    0.68
   3   2   1   26.29    0.67
   3   2   1   27.27    0.68
  -4  -2  -1  157.81    4.29
  -4  -2  -1  156.38    4.44
   4   2   1  157.77    3.89
   4   2   1  156.94    4.44
   4   2   1  152.91    3.80
   4   2   1  157.49    4.44
   4   2   1  156.04    3.84
   4   2   1  156.00    3.33
   4   2   1  158.43    4.11
  -5  -2  -1   28.31    0.85
  -5  -2  -1   27.20    0.82
   5   2   1   27.43    0.82
   5   2   1   28.11    0.65
   5   2   1   26.57    0.82
   5   2   1   28.14    0.75
   5   2   1   28.28    0.74
   5   2   1   28.26    0.70
  -6  -2  -1    1.61    0.11
  -6  -2  -1    1.58    0.10
  -6  -2  -1    1.33    0.14
   6   2   1    1.59    0.10
   6   2   1    1.37    0.12
   6   2   1    1.71    0.13
   6   2   1    1.39    0.12
  -7  -2  -1    2.21    0.13
  -7  -2  -1    2.44    0.21
   7   2   1    2.55    0.15
   7   2   1    2.17    0.16
   7   2   1    2.15    0.15
  -8  -2  -1   -0.04    0.05
  -8  -2  -1    0.03    0.10
   8   2   1    0.07    0.07
   8   2   1    0.08    0.08
  11  -3  -1    1.58    0.15
  11  -3  -1    2.00    0.17
 -11   3   1    1.78    0.19
  10  -3  -1    3.11    0.20
  10  -3  -1    2.80    0.20
  10  -3  -1    3.11    0.17
 -10   3   1    2.58    0.21
 -10   3   1    3.11    0.16
   9  -3  -1    1.15    0.12
   9  -3  -1    0.96    0.13
   9  -3  -1    1.28    0.11
  -9   3   1    0.94    0.13
  -9   3   1    1.09    0.11
  -9   3   1    1.14    0.10
  -9   3   1    1.03    0.12
   8  -3  -1    6.56    0.28
   8  -3  -1    6.85    0.26
   8  -3  -1    6.99    0.22
  -8   3   1    7.01    0.28
  -8   3   1    6.75    0.28
  -8   3   1    6.85    0.22
  -8   3   1    6.27    0.23
   7  -3  -1    9.57    0.27
   7  -3  -1    9.94    0.36
  -7   3   1    9.58    0.30
  -7   3   1   10.01    0.28
  -7   3   1    9.91    0.36
  -7   3   1   10.18    0.36
  -7   3   1    9.88    0.26
   6  -3  -1    3.40    0.12
   6  -3  -1    3.54    0.17
   6  -3  -1    3.25    0.16
  -6   3   1    3.47    0.17
  -6   3   1    3.60    0.12
  -6   3   1    3.39    0.10
  -6   3   1    3.53    0.13
  -6   3   1    3.56    0.17
  -6   3   1    3.54    0.12
   5  -3  -1   22.98    0.59
   5  -3  -1   23.21    0.52
   5  -3  -1   23.82    0.71
   5  -3  -1   23.56    0.71
  -5   3   1   22.23    0.71
  -5   3   1   23.34    0.59
  -5   3   1   22.56    0.58
  -5   3   1   24.05    0.71
   4  -3  -1   33.22    0.72
   4  -3  -1   33.61    0.83
   4  -3  -1   31.26    0.98
   4  -3  -1   33.41    0.99
  -4   3   1   34.32    0.99
  -4   3   1   33.37    0.84
  -4   3   1   33.56    0.83
  -4   3   1   33.91    0.99
   3  -3  -1   61.66    1.74
   3  -3  -1   62.27    1.48
   3  -3  -1   54.97    1.73
  -3   3   1   62.16    1.51
  -3   3   1   61.94    1.48
  -3   3   1   61.45    1.63
  -3   3   1   59.32    1.74
  -3   3   1   57.92    1.74
   2  -3  -1    0.79    0.07
   2  -3  -1    0.51    0.05
   2  -3  -1    0.63    0.06
   2  -3  -1    0.48    0.05
  -2   3   1    0.62    0.06
  -2   3   1    0.70    0.07
  -2   3   1    0.48    0.05
  -2   3   1    0.67    0.05
  -2   3   1    0.52    0.05
   1  -3  -1    0.11    0.03
   1  -3  -1    0.12    0.03
   1  -3  -1    0.14    0.03
   1  -3  -1    0.15    0.03
   1  -3  -1    0.13    0.03
  -1   3   1    0.16    0.03
  -1   3   1    0.18    0.03
  -1   3   1    0.15    0.03
  -1   3   1    0.12    0.03
  -1   3   1    0.09    0.03
   0  -3  -1    6.60    0.22
   0  -3  -1    6.81    0.16
   0  -3  -1    6.75    0.23
   0  -3  -1    6.49    0.22
   0  -3  -1    7.04    0.18
   0  -3  -1    6.91    0.22
   0  -3  -1    6.69    0.22
   0  -3  -1    6.81    0.20
   0   3   1    7.02    0.21
   0   3   1    7.20    0.22
   0   3   1    6.78    0.23
   0   3   1    6.59    0.20
   0   3   1    6.20    0.22
   0   3   1    6.59    0.22
  -1  -3  -1   35.24    0.98
  -1  -3  -1   37.49    1.04
  -1  -3  -1   36.14    0.90
  -1  -3  -1   35.96    1.04
  -1  -3  -1   35.83    0.91
  -1  -3  -1   36.39    1.03
   1   3   1   36.59    0.78
   1   3   1   36.07    1.02
   1   3   1   36.38    1.04
   1   3   1   36.39    0.99
   1   3   1   35.59    0.90
   1   3   1   34.55    1.04
   1   3   1   37.29    0.98
   1   3   1   35.26    0.93
   1   3   1   35.70    0.91
  -2  -3  -1    0.86    0.07
  -2  -3  -1    0.87    0.06
  -2  -3  -1    0.83    0.07
  -2  -3  -1    0.75    0.08
   2   3   1    0.77    0.06
   2   3   1    0.90    0.08
   2   3   1    0.84    0.07
   2   3   1    0.95    0.08
   2   3   1    0.87    0.08
   2   3   1    0.92    0.08
   2   3   1    0.87    0.06
   2   3   1    0.95    0.06
  -3  -3  -1    8.82    0.29
  -3  -3  -1    9.04    0.26
  -3  -3  -1    9.42    0.33
  -3  -3  -1    8.80    0.29
   3   3   1    9.11    0.24
   3   3   1    9.29    0.26
   3   3   1    9.21    0.27
   3   3   1    8.94    0.31
   3   3   1    8.72    0.29
   3   3   1    9.29    0.29
   3   3   1    9.10    0.29
   3   3   1    8.60    0.30
  -4  -3  -1   85.43    2.42
  -4  -3  -1   85.96    2.38
  -4  -3  -1   83.51    2.42
   4   3   1   83.93    2.42
   4   3   1   87.34    2.15
   4   3   1   85.43    2.08
   4   3   1   84.90    1.83
   4   3   1   85.76    2.11
   4   3   1   81.67    2.42
  -5  -3  -1    3.86    0.15
  -5  -3  -1    3.87    0.15
  -5  -3  -1    4.00    0.23
   5   3   1    4.05    0.16
   5   3   1    3.92    0.15
   5   3   1    3.72    0.17
   5   3   1    4.02    0.19
   5   3   1    4.11    0.14
   5   3   1    3.79    0.15
  -6  -3  -1    1.57    0.09
  -6  -3  -1    1.33    0.15
   6   3   1    1.44    0.14
   6   3   1    1.35    0.11
   6   3   1    1.40    0.13
  -7  -3  -1    4.16    0.28
   7   3   1    3.78    0.19
   7   3   1    4.13    0.21
   7   3   1    4.44    0.21
  12  -4  -1    0.21    0.11
  12  -4  -1    0.26    0.09
 -12   4   1    0.46    0.12
  11  -4  -1   -0.09    0.06
  11  -4  -1    0.05    0.08
 -11   4   1    0.03    0.09
  10  -4  -1   -0.23    0.08
  10  -4  -1   -0.13    0.07
  10  -4  -1   -0.10    0.06
 -10   4   1   -0.21    0.08
   9  -4  -1   -0.08    0.07
   9  -4  -1    0.12    0.07
   9  -4  -1    0.00    0.05
  -9   4   1   -0.05    0.04
  -9   4   1    0.06    0.07
  -9   4   1   -0.04    0.05
  -9   4   1   -0.04    0.08
  -9   4   1    0.07    0.03
   8  -4  -1    7.81    0.24
   8  -4  -1    8.05    0.28
   8  -4  -1    7.48    0.32
  -8   4   1    7.55    0.23
  -8   4   1    7.54    0.31
  -8   4   1    8.31    0.32
  -8   4   1    7.73    0.24
  -8   4   1    8.02    0.23
   7  -4  -1    9.64    0.26
   7  -4  -1    8.83    0.35
  -7   4   1    9.92    0.36
  -7   4   1    9.32    0.27
  -7   4   1   10.38    0.36
  -7   4   1    9.76    0.26
  -7   4   1    9.79    0.27
   6  -4  -1   12.28    0.44
   6  -4  -1   12.83    0.44
   6  -4  -1   13.30    0.32
  -6   4   1   13.16    0.44
  -6   4   1   13.43    0.35
  -6   4   1   13.09    0.45
  -6   4   1   13.57    0.35
  -6   4   1   13.57    0.36
   5  -4  -1   82.07    2.49
   5  -4  -1   86.96    2.12
   5  -4  -1   86.76    2.50
   5  -4  -1   85.10    1.84
  -5   4   1   88.07    2.50
  -5   4   1   88.72    2.50
  -5   4   1   86.92    2.12
  -5   4   1   87.02    2.15
   4  -4  -1    0.64    0.07
   4  -4  -1    0.60    0.07
   4  -4  -1    0.86    0.05
   4  -4  -1    0.78    0.07
  -4   4   1    0.80    0.07
  -4   4   1    0.67    0.06
  -4   4   1    0.91    0.05
  -4   4   1    0.58    0.08
  -4   4   1    0.72    0.08
   3  -4  -1   52.22    1.38
   3  -4  -1   52.54    1.32
   3  -4  -1   51.20    1.12
   3  -4  -1   55.07    1.55
   3  -4  -1   53.44    1.55
  -3   4   1   52.95    1.35
  -3   4   1   52.27    1.32
  -3   4   1   55.73    1.55
  -3   4   1   52.17    1.45
  -3   4   1   54.36    1.55
   2  -4  -1    0.01    0.03
   2  -4  -1    0.10    0.04
   2  -4  -1    0.01    0.03
   2  -4  -1    0.02    0.04
   2  -4  -1    0.04    0.04
  -2   4   1   -0.02    0.03
  -2   4   1    0.02    0.03
  -2   4   1    0.00    0.03
  -2   4   1    0.09    0.04
  -2   4   1    0.00    0.03
   1  -4  -1    6.17    0.17
   1  -4  -1    6.03    0.22
   1  -4  -1    6.10    0.21
   1  -4  -1    6.22    0.21
   1  -4  -1    6.09    0.19
   1  -4  -1    6.22    0.22
  -1   4   1    6.46    0.21
  -1   4   1    6.04    0.22
  -1   4   1    6.23    0.22
  -1   4   1    6.05    0.20
  -1   4   1    6.05    0.20
  -1   4   1    5.95    0.17
   0  -4  -1   23.29    0.60
   0  -4  -1   22.78    0.58
   0  -4  -1   23.42    0.68
   0  -4  -1   22.92    0.68
   0  -4  -1   23.32    0.68
   0  -4  -1   22.89    0.65
   0   4   1   22.42    0.60
   0   4   1   22.81    0.65
   0   4   1   22.67    0.62
   0   4   1   22.96    0.68
   0   4   1   23.40    0.68
   0   4   1   23.28    0.68
  -1  -4  -1    7.82    0.22
  -1  -4  -1    7.68    0.27
  -1  -4  -1    7.80    0.24
  -1  -4  -1    7.60    0.29
  -1  -4  -1    8.00    0.26
   1   4   1    8.03    0.24
   1   4   1    7.65    0.25
   1   4   1    8.05    0.27
   1   4   1    7.49    0.28
   1   4   1    7.47    0.26
   1   4   1    8.19    0.26
  -2  -4  -1   34.53    1.01
  -2  -4  -1   33.99    1.00
  -2  -4  -1   34.15    0.87
  -2  -4  -1   35.18    1.00
   2   4   1   34.31    0.91
   2   4   1   35.35    0.76
   2   4   1   34.38    1.00
   2   4   1   34.96    0.97
   2   4   1   34.14    0.87
   2   4   1   33.87    0.88
   3   4   1    0.02    0.05
  -4  -4  -1    2.00    0.19
  -4  -4  -1    1.68    0.09
   4   4   1    1.32    0.11
   4   4   1    1.94    0.15
   4   4   1    1.88    0.11
   4   4   1    1.80    0.12
  -5  -4  -1    3.41    0.24
   5   4   1    3.63    0.15
   5   4   1    3.69    0.16
   5   4   1    3.67    0.20
   5   4   1    3.76    0.17
  -6  -4  -1    0.85    0.15
   6   4   1    0.93    0.11
   6   4   1    1.02    0.10
  -7  -4  -1    0.69    0.15
   7   4   1    0.47    0.09
  12  -5  -1    0.68    0.13
  12  -5  -1    0.73    0.11
 -12   5   1    0.56    0.13
  11  -5  -1   -0.03    0.07
  11  -5  -1    0.00    0.09
  11  -5  -1   -0.05    0.09
 -11   5   1   -0.09    0.09
  10  -5  -1   -0.02    0.09
  10  -5  -1    0.06    0.06
  10  -5  -1    0.03    0.08
 -10   5   1    0.07    0.05
 -10   5   1    0.06    0.09
 -10   5   1    0.02    0.04
   9  -5  -1    2.10    0.13
   9  -5  -1    2.25    0.17
   9  -5  -1    2.06    0.19
  -9   5   1    1.99    0.12
  -9   5   1    1.87    0.18
  -9   5   1    1.96    0.11
   8  -5  -1    0.56    0.07
   8  -5  -1    0.63    0.10
  -8   5   1    0.56    0.05
  -8   5   1    0.43    0.09
  -8   5   1    0.60    0.06
  -8   5   1    0.61    0.06
   7  -5  -1   19.29    0.46
   7  -5  -1   20.12    0.64
  -7   5   1   18.83    0.51
  -7   5   1   19.27    0.52
  -7   5   1   19.59    0.64
  -7   5   1   18.61    0.63
  -7   5   1   19.10    0.49
   6  -5  -1    8.29    0.26
   6  -5  -1    8.34    0.31
   6  -5  -1    7.65    0.31
   6  -5  -1    8.03    0.21
  -6   5   1    8.11    0.25
  -6   5   1    8.60    0.31
  -6   5   1    8.05    0.31
  -6   5   1    8.02    0.25
   5  -5  -1   16.35    0.44
   5  -5  -1   16.42    0.44
   5  -5  -1   15.24    0.52
   5  -5  -1   15.31    0.51
   5  -5  -1   16.43    0.36
  -5   5   1   16.44    0.44
  -5   5   1   14.28    0.51
  -5   5   1   15.21    0.51
  -5   5   1   15.87    0.44
  -5   5   1   16.47    0.44
   4  -5  -1    0.66    0.04
   4  -5  -1    0.80    0.05
   4  -5  -1    0.56    0.08
   4  -5  -1    0.51    0.07
   4  -5  -1    0.57    0.08
  -4   5   1    0.56    0.08
  -4   5   1    0.55    0.07
  -4   5   1    0.62    0.07
  -4   5   1    0.75    0.06
  -4   5   1    0.74    0.08
   3  -5  -1   11.85    0.35
   3  -5  -1   12.54    0.40
   3  -5  -1   12.29    0.40
  -3   5   1   12.23    0.40
  -3   5   1   11.73    0.35
  -3   5   1   12.32    0.36
  -3   5   1   12.10    0.37
  -3   5   1   13.21    0.40
   2  -5  -1  105.53    2.77
   2  -5  -1   97.89    2.89
   2  -5  -1   98.31    2.89
   2  -5  -1  103.69    2.68
   2  -5  -1  101.52    2.48
  -2   5   1  100.67    2.49
  -2   5   1   95.26    2.89
  -2   5   1  102.91    2.76
  -2   5   1  101.31    2.89
  -2   5   1  102.35    2.54
   1  -5  -1   -0.04    0.06
   1  -5  -1    0.03    0.03
   1  -5  -1    0.09    0.05
   1  -5  -1    0.10    0.05
   1  -5  -1    0.03    0.06
   1  -5  -1    0.05    0.05
   1  -5  -1    0.07    0.05
  -1   5   1    0.08    0.05
  -1   5   1    0.04    0.05
  -1   5   1    0.20    0.06
  -1   5   1    0.06    0.04
  -1   5   1    0.08    0.05
  -1   5   1    0.18    0.03
   0  -5  -1    0.11    0.04
   0  -5  -1    0.02    0.03
   0  -5  -1    0.00    0.06
   0  -5  -1    0.01    0.07
   0  -5  -1    0.17    0.05
   0  -5  -1    0.06    0.04
   0  -5  -1    0.09    0.06
   0   5   1    0.15    0.06
   0   5   1   -0.10    0.06
   0   5   1    0.07    0.04
   0   5   1    0.17    0.05
   0   5   1    0.00    0.06
   0   5   1   -0.08    0.05
  -1  -5  -1   20.88    0.62
  -1  -5  -1   20.93    0.64
  -1  -5  -1   20.83    0.62
  -1  -5  -1   19.95    0.52
   1   5   1   20.94    0.56
   1   5   1   20.54    0.62
   1   5   1   20.11    0.58
   1   5   1   20.52    0.61
  -2  -5  -1   10.53    0.38
  -2  -5  -1    9.08    0.31
  -2  -5  -1    9.40    0.31
   2   5   1    9.43    0.31
   2   5   1   10.06    0.33
   2   5   1    9.98    0.31
  -3  -5  -1    7.06    0.32
   3   5   1    6.90    0.25
   3   5   1    7.19    0.22
   3   5   1    6.96    0.20
   3   5   1    6.97    0.28
  -4  -5  -1    1.40    0.16
   4   5   1    1.67    0.11
   4   5   1    1.53    0.13
   4   5   1    1.71    0.11
   4   5   1    1.59    0.14
  -5  -5  -1    1.67    0.19
   5   5   1    1.90    0.18
   5   5   1    1.99    0.14
  -6  -5  -1    2.03    0.21
   6   5   1    2.01    0.19
  12  -6  -1   -0.12    0.10
  12  -6  -1    0.09    0.08
  12  -6  -1    0.02    0.09
 -12   6   1   -0.02    0.10
  11  -6  -1    2.99    0.18
  11  -6  -1    2.91    0.25
  11  -6  -1    3.10    0.22
 -11   6   1    3.29    0.25
  10  -6  -1    0.04    0.06
  10  -6  -1   -0.04    0.08
  10  -6  -1    0.01    0.09
 -10   6   1   -0.07    0.05
 -10   6   1    0.02    0.09
 -10   6   1   -0.04    0.05
   9  -6  -1   11.27    0.43
   9  -6  -1   10.77    0.30
   9  -6  -1   10.79    0.36
  -9   6   1   10.67    0.32
  -9   6   1   10.27    0.30
  -9   6   1   11.06    0.43
  -9   6   1   10.14    0.30
   8  -6  -1    7.57    0.33
   8  -6  -1    7.00    0.26
   8  -6  -1    7.42    0.22
  -8   6   1    7.56    0.25
  -8   6   1    7.70    0.33
  -8   6   1    7.31    0.23
  -8   6   1    7.26    0.22
   7  -6  -1   43.26    1.18
   7  -6  -1   43.09    0.97
   7  -6  -1   45.56    1.34
  -7   6   1   44.22    1.12
  -7   6   1   44.21    1.34
  -7   6   1   43.53    1.13
   6  -6  -1   24.09    0.75
   6  -6  -1   23.77    0.53
   6  -6  -1   23.22    0.64
   6  -6  -1   22.90    0.75
  -6   6   1   23.57    0.63
  -6   6   1   22.69    0.65
  -6   6   1   24.14    0.63
  -6   6   1   23.38    0.75
   5  -6  -1    0.04    0.07
   5  -6  -1    0.11    0.03
   5  -6  -1    0.13    0.03
   5  -6  -1    0.07    0.06
  -5   6   1    0.03    0.07
  -5   6   1    0.11    0.05
  -5   6   1    0.06    0.05
  -5   6   1    0.07    0.06
  -5   6   1    0.14    0.04
   4  -6  -1    0.68    0.08
   4  -6  -1    1.08    0.11
   4  -6  -1    0.94    0.11
  -4   6   1    0.87    0.09
  -4   6   1    1.07    0.08
  -4   6   1    1.12    0.11
  -4   6   1    0.84    0.08
  -4   6   1    0.96    0.09
   3  -6  -1    0.31    0.06
   3  -6  -1    0.16    0.06
   3  -6  -1    0.30    0.06
  -3   6   1    0.27    0.06
  -3   6   1    0.25    0.05
  -3   6   1    0.21    0.06
  -3   6   1    0.37    0.07
  -3   6   1    0.26    0.06
   2  -6  -1   40.41    1.13
   2  -6  -1   39.46    1.10
   2  -6  -1   38.28    1.17
   2  -6  -1   40.05    0.98
   2  -6  -1   39.72    1.10
   2  -6  -1   38.75    1.16
  -2   6   1   39.62    1.04
  -2   6   1   40.05    1.02
  -2   6   1   38.57    1.17
  -2   6   1   39.29    1.16
  -2   6   1   39.26    1.12
   1  -6  -1    0.46    0.09
   1  -6  -1    0.51    0.04
   1  -6  -1    0.59    0.07
   1  -6  -1    0.52    0.07
   1  -6  -1    0.54    0.09
   1  -6  -1    0.51    0.08
  -1   6   1    0.53    0.08
  -1   6   1    0.58    0.09
  -1   6   1    0.49    0.07
  -1   6   1    0.51    0.07
  -1   6   1    0.60    0.05
   0  -6  -1   49.50    1.42
   0  -6  -1   49.06    1.42
   0  -6  -1   47.47    1.20
   0  -6  -1   50.33    1.41
   0  -6  -1   50.34    1.35
   0   6   1   48.35    1.41
   0   6   1   48.57    1.42
   0   6   1   48.22    1.28
   0   6   1   48.28    1.25
   0   6   1   47.17    1.28
  -1  -6  -1   32.45    0.97
  -1  -6  -1   31.70    0.92
  -1  -6  -1   32.34    0.93
  -1  -6  -1   30.65    0.93
   1   6   1   30.96    0.93
   1   6   1   30.73    0.93
   1   6   1   32.65    0.88
   1   6   1   32.50    0.85
   1   6   1   31.43    0.86
  -2  -6  -1    3.00    0.24
  -2  -6  -1    3.24    0.13
   2   6   1    3.76    0.19
   2   6   1    3.22    0.13
   2   6   1    3.59    0.21
  -3  -6  -1   10.35    0.43
   3   6   1   10.12    0.34
   3   6   1   10.32    0.37
  -4  -6  -1    1.61    0.19
   4   6   1    1.72    0.16
   4   6   1    1.58    0.15
  -5  -6  -1    0.34    0.14
   5   6   1    0.43    0.11
  12  -7  -1   -0.10    0.11
  12  -7  -1   -0.10    0.07
  12  -7  -1    0.11    0.10
 -12   7   1   -0.12    0.11
  11  -7  -1    0.24    0.07
  11  -7  -1    0.37    0.11
  11  -7  -1    0.37    0.12
 -11   7   1    0.29    0.12
  10  -7  -1    0.05    0.08
  10  -7  -1    0.01    0.06
  10  -7  -1   -0.03    0.09
 -10   7   1   -0.04    0.05
 -10   7   1   -0.08    0.06
 -10   7   1    0.03    0.10
   9  -7  -1   -0.04    0.05
   9  -7  -1   -0.02    0.07
   9  -7  -1   -0.02    0.09
  -9   7   1   -0.05    0.06
  -9   7   1    0.03    0.09
  -9   7   1    0.00    0.04
  -9   7   1    0.01    0.05
   8  -7  -1    2.66    0.14
   8  -7  -1    2.62    0.21
   8  -7  -1    2.70    0.12
  -8   7   1    2.64    0.12
  -8   7   1    2.77    0.14
  -8   7   1    2.80    0.16
  -8   7   1    2.84    0.21
   7  -7  -1    6.25    0.20
   7  -7  -1    6.00    0.18
   7  -7  -1    5.27    0.28
  -7   7   1    6.01    0.23
  -7   7   1    6.27    0.24
  -7   7   1    5.36    0.29
   6  -7  -1    0.54    0.05
   6  -7  -1    0.36    0.09
   6  -7  -1    0.27    0.09
   6  -7  -1    0.51    0.04
  -6   7   1    0.43    0.08
  -6   7   1    0.24    0.10
  -6   7   1    0.41    0.08
  -6   7   1    0.42    0.05
   5  -7  -1   34.38    1.03
   5  -7  -1   33.13    1.03
  -5   7   1   32.92    0.95
  -5   7   1   34.43    0.89
  -5   7   1   34.23    0.90
  -5   7   1   32.64    1.03
   4  -7  -1    5.64    0.25
   4  -7  -1    6.15    0.25
   4  -7  -1    6.22    0.26
  -4   7   1    5.89    0.26
  -4   7   1    6.15    0.23
  -4   7   1    6.59    0.24
  -4   7   1    6.02    0.24
   3  -7  -1    3.55    0.19
   3  -7  -1    3.84    0.19
   3  -7  -1    3.52    0.20
   3  -7  -1    3.87    0.19
  -3   7   1    4.16    0.20
  -3   7   1    4.05    0.19
  -3   7   1    4.09    0.20
  -3   7   1    3.69    0.18
   2  -7  -1   54.07    1.48
   2  -7  -1   52.34    1.33
   2  -7  -1   54.82    1.57
   2  -7  -1   53.99    1.57
   2  -7  -1   54.10    1.48
  -2   7   1   52.03    1.40
  -2   7   1   53.70    1.58
  -2   7   1   53.57    1.38
   1  -7  -1    5.06    0.21
   1  -7  -1    5.15    0.21
   1  -7  -1    4.71    0.23
   1  -7  -1    4.93    0.24
   1  -7  -1    4.63    0.15
   1  -7  -1    5.47    0.25
  -1   7   1    4.94    0.22
  -1   7   1    5.24    0.22
  -1   7   1    5.52    0.24
   0  -7  -1    3.82    0.22
   0  -7  -1    3.57    0.23
   0  -7  -1    3.22    0.17
   0   7   1    3.51    0.14
   0   7   1    3.95    0.22
   0   7   1    3.86    0.20
   0   7   1    3.28    0.17
  -1  -7  -1    9.85    0.38
  -1  -7  -1    9.74    0.32
  -1  -7  -1    9.26    0.40
   1   7   1   10.13    0.31
   1   7   1    9.62    0.36
   1   7   1    9.55    0.34
  -2  -7  -1    3.32    0.26
   2   7   1    3.48    0.22
   2   7   1    3.24    0.19
   2   7   1    3.60    0.17
  -3  -7  -1    0.27    0.12
   3   7   1    0.20    0.10
   3   7   1    0.28    0.09
  -4  -7  -1   10.74    0.48
   4   7   1   10.62    0.41
  12  -8  -1    0.13    0.10
  12  -8  -1    0.23    0.08
  12  -8  -1    0.31    0.13
 -12   8   1    0.20    0.12
  11  -8  -1    0.04    0.06
  11  -8  -1    0.02    0.11
  11  -8  -1   -0.13    0.08
 -11   8   1   -0.14    0.10
 -11   8   1   -0.01    0.06
  10  -8  -1    0.95    0.09
  10  -8  -1    0.80    0.14
  10  -8  -1    0.80    0.12
 -10   8   1    0.83    0.14
 -10   8   1    0.84    0.10
 -10   8   1    0.88    0.08
   9  -8  -1    0.33    0.06
   9  -8  -1    0.24    0.09
   9  -8  -1    0.48    0.12
  -9   8   1    0.39    0.09
  -9   8   1    0.37    0.07
  -9   8   1    0.43    0.12
   8  -8  -1    3.58    0.15
   8  -8  -1    3.81    0.25
   8  -8  -1    3.55    0.14
  -8   8   1    3.49    0.18
  -8   8   1    3.75    0.25
  -8   8   1    3.42    0.19
   7  -8  -1    9.47    0.29
   7  -8  -1    9.45    0.24
   7  -8  -1   10.30    0.40
  -7   8   1    9.59    0.33
  -7   8   1    9.38    0.39
  -7   8   1    9.76    0.34
   6  -8  -1    0.19    0.08
   6  -8  -1    0.20    0.09
  -6   8   1    0.29    0.08
  -6   8   1    0.16    0.09
  -6   8   1    0.34    0.06
  -6   8   1    0.36    0.09
   5  -8  -1    0.14    0.07
   5  -8  -1    0.08    0.07
   5  -8  -1    0.12    0.08
  -5   8   1    0.14    0.07
  -5   8   1    0.14    0.05
  -5   8   1    0.11    0.07
  -5   8   1    0.11    0.08
   4  -8  -1    1.23    0.14
   4  -8  -1    1.28    0.13
   4  -8  -1    1.01    0.12
   4  -8  -1    0.99    0.12
  -4   8   1    0.95    0.11
  -4   8   1    1.25    0.12
  -4   8   1    1.00    0.11
  -4   8   1    0.99    0.12
   3  -8  -1    5.38    0.25
   3  -8  -1    5.24    0.24
   3  -8  -1    4.95    0.24
   3  -8  -1    4.95    0.17
   3  -8  -1    5.03    0.23
  -3   8   1    4.93    0.23
  -3   8   1    5.53    0.25
  -3   8   1    5.11    0.25
   2  -8  -1    1.28    0.12
   2  -8  -1    1.32    0.14
   2  -8  -1    1.42    0.07
   2  -8  -1    1.37    0.14
   2  -8  -1    1.41    0.13
  -2   8   1    1.26    0.13
  -2   8   1    1.62    0.14
  -2   8   1    1.33    0.13
   1  -8  -1    6.60    0.26
   1  -8  -1    7.04    0.30
   1  -8  -1    6.58    0.31
  -1   8   1    6.60    0.28
  -1   8   1    6.53    0.29
   0  -8  -1    1.64    0.12
   0  -8  -1    1.45    0.18
   0  -8  -1    1.55    0.16
   0   8   1    1.42    0.14
   0   8   1    1.58    0.16
  -1  -8  -1    2.48    0.22
   1   8   1    2.48    0.22
   1   8   1    2.70    0.20
  -2  -8  -1    2.74    0.26
   2   8   1    2.67    0.23
   2   8   1    2.28    0.20
  11  -9  -1    0.07    0.11
  11  -9  -1    0.01    0.09
  11  -9  -1    0.10    0.06
 -11   9   1    0.06    0.12
 -11   9   1   -0.04    0.07
  10  -9  -1    0.55    0.11
  10  -9  -1    0.42    0.13
  10  -9  -1    0.54    0.07
 -10   9   1    0.62    0.11
 -10   9   1    0.57    0.09
 -10   9   1    0.63    0.14
   9  -9  -1   -0.07    0.07
   9  -9  -1    0.00    0.04
   9  -9  -1   -0.06    0.10
  -9   9   1    0.05    0.08
  -9   9   1   -0.04    0.10
  -9   9   1    0.00    0.07
   8  -9  -1    0.49    0.12
   8  -9  -1    0.63    0.10
  -8   9   1    0.59    0.10
  -8   9   1    0.57    0.10
  -8   9   1    0.57    0.13
   7  -9  -1    8.27    0.36
  -7   9   1    7.78    0.31
  -7   9   1    7.70    0.30
  -7   9   1    8.04    0.36
   6  -9  -1    0.19    0.09
   6  -9  -1    0.15    0.08
  -6   9   1    0.17    0.09
  -6   9   1    0.13    0.08
  -6   9   1    0.13    0.08
   5  -9  -1    0.34    0.10
   5  -9  -1    0.39    0.10
   5  -9  -1    0.37    0.09
   5  -9  -1    0.40    0.09
  -5   9   1    0.28    0.09
  -5   9   1    0.38    0.10
  -5   9   1    0.20    0.09
   4  -9  -1    0.87    0.12
   4  -9  -1    1.17    0.12
   4  -9  -1    1.36    0.14
  -4   9   1    1.12    0.13
  -4   9   1    1.09    0.13
  -4   9   1    1.06    0.13
   3  -9  -1    0.07    0.09
   3  -9  -1    0.01    0.07
   3  -9  -1    0.02    0.08
  -3   9   1    0.07    0.09
  -3   9   1    0.10    0.09
   2  -9  -1    0.41    0.09
   2  -9  -1    0.42    0.12
   2  -9  -1    0.41    0.10
  -2   9   1    0.34    0.10
  -2   9   1    0.36    0.11
   1  -9  -1    1.25    0.13
   1  -9  -1    1.34    0.16
  -1   9   1    1.15    0.15
  -1   9   1    1.20    0.14
   0  -9  -1    0.65    0.14
   0  -9  -1    0.40    0.07
   0   9   1    0.56    0.11
   0   9   1    0.52    0.13
   1   9   1   -0.10    0.10
   1   9   1    0.13    0.10
  11 -10  -1    0.04    0.12
  11 -10  -1   -0.11    0.08
 -11  10   1    0.11    0.13
 -11  10   1   -0.12    0.09
  10 -10  -1   -0.01    0.11
  10 -10  -1   -0.13    0.08
 -10  10   1   -0.18    0.08
 -10  10   1   -0.03    0.08
 -10  10   1   -0.04    0.11
   9 -10  -1    0.10    0.08
   9 -10  -1    0.15    0.12
  -9  10   1    0.06    0.08
  -9  10   1    0.21    0.09
  -9  10   1    0.04    0.11
   8 -10  -1    0.51    0.13
   8 -10  -1    0.40    0.09
  -8  10   1    0.49    0.13
  -8  10   1    0.40    0.10
  -8  10   1    0.46    0.10
   7 -10  -1    0.15    0.07
   7 -10  -1    0.09    0.09
   7 -10  -1    0.12    0.10
  -7  10   1   -0.04    0.09
  -7  10   1    0.04    0.10
  -7  10   1    0.07    0.09
   6 -10  -1    0.68    0.08
   6 -10  -1    0.73    0.12
   6 -10  -1    0.72    0.12
   6 -10  -1    0.80    0.13
  -6  10   1    0.69    0.12
  -6  10   1    0.74    0.13
  -6  10   1    0.62    0.12
   5 -10  -1    1.42    0.16
   5 -10  -1    1.27    0.14
   5 -10  -1    1.13    0.14
  -5  10   1    1.14    0.14
  -5  10   1    1.12    0.14
  -5  10   1    1.08    0.15
   4 -10  -1    1.48    0.17
   4 -10  -1    1.51    0.16
   4 -10  -1    1.30    0.15
  -4  10   1    1.10    0.15
  -4  10   1    1.44    0.16
   3 -10  -1    1.22    0.15
   3 -10  -1    1.02    0.15
   3 -10  -1    1.08    0.12
  -3  10   1    1.34    0.16
  -3  10   1    1.28    0.15
   2 -10  -1    1.01    0.16
   2 -10  -1    0.84    0.10
   2 -10  -1    1.05    0.14
  -2  10   1    0.75    0.15
  -2  10   1    0.94    0.14
   1 -10  -1    4.12    0.28
   1 -10  -1    3.61    0.19
  -1  10   1    3.94    0.27
  -1  10   1    3.78    0.26
   9 -11  -1    4.29    0.23
   9 -11  -1    4.26    0.31
  -9  11   1    4.75    0.27
  -9  11   1    4.90    0.32
  -9  11   1    4.51    0.25
   8 -11  -1    0.01    0.10
   8 -11  -1    0.02    0.10
   8 -11  -1    0.00    0.07
  -8  11   1   -0.02    0.10
  -8  11   1    0.08    0.09
  -8  11   1   -0.06    0.10
   7 -11  -1   -0.12    0.09
   7 -11  -1    0.05    0.10
   7 -11  -1    0.10    0.10
  -7  11   1   -0.05    0.09
  -7  11   1   -0.04    0.09
   6 -11  -1    0.60    0.13
   6 -11  -1    0.38    0.11
   6 -11  -1    0.43    0.11
  -6  11   1    0.28    0.11
  -6  11   1    0.32    0.12
   5 -11  -1    0.10    0.10
   5 -11  -1   -0.01    0.10
   5 -11  -1    0.28    0.11
  -5  11   1    0.19    0.12
  -5  11   1    0.15    0.11
   4 -11  -1    0.27    0.10
   4 -11  -1    0.21    0.11
   4 -11  -1    0.22    0.12
  -4  11   1    0.27    0.12
  -4  11   1    0.35    0.13
   3 -11  -1    0.22    0.09
   3 -11  -1    0.23    0.11
   3 -11  -1    0.23    0.12
  -3  11   1    0.24    0.13
  -3  11   1    0.14    0.11
  -3  12  -2    3.44    0.27
  -3  12  -2    3.45    0.25
   3 -12   2    3.34    0.20
   3 -12   2    3.75    0.28
   3 -12   2    3.57    0.27
  -4  12  -2    0.06    0.12
  -4  12  -2    0.05    0.10
   4 -12   2   -0.07    0.10
   4 -12   2    0.03    0.11
   4 -12   2    0.00    0.08
  -5  12  -2    0.27    0.12
  -5  12  -2    0.27    0.12
   5 -12   2    0.23    0.10
   5 -12   2    0.18    0.11
   5 -12   2    0.53    0.12
  -6  12  -2    0.90    0.14
  -6  12  -2    0.68    0.14
   6 -12   2    0.78    0.13
   6 -12   2    0.91    0.14
   6 -12   2    0.97    0.15
  -7  12  -2    0.07    0.10
  -7  12  -2    0.06    0.10
   7 -12   2    0.03    0.11
   7 -12   2    0.03    0.09
   7 -12   2    0.20    0.10
  -8  12  -2    0.17    0.10
  -8  12  -2    0.17    0.14
  -8  12  -2    0.34    0.11
   8 -12   2    0.28    0.12
   8 -12   2    0.24    0.12
   8 -12   2    0.36    0.10
  -9  12  -2    0.62    0.15
  -9  12  -2    0.76    0.13
   9 -12   2    0.70    0.16
   9 -12   2    0.73    0.12
   9 -12   2    0.72    0.11
  -1  11  -2    0.31    0.12
  -1  11  -2    0.32    0.11
  -2  11  -2    1.26    0.15
  -2  11  -2    1.26    0.16
   2 -11   2    1.40    0.17
   2 -11   2    1.35    0.13
   2 -11   2    1.11    0.15
  -3  11  -2    0.42    0.12
  -3  11  -2    0.54    0.13
   3 -11   2    0.48    0.12
   3 -11   2    0.32    0.12
   3 -11   2    0.52    0.09
  -4  11  -2   16.77    0.54
  -4  11  -2   16.14    0.54
   4 -11   2   16.31    0.57
   4 -11   2   16.09    0.56
   4 -11   2   16.11    0.56
  -5  11  -2    0.10    0.10
   5 -11   2    0.05    0.09
   5 -11   2    0.09    0.09
   5 -11   2   -0.07    0.09
  -6  11  -2   -0.07    0.08
  -6  11  -2   -0.02    0.09
   6 -11   2    0.05    0.05
   6 -11   2    0.05    0.09
   6 -11   2   -0.02    0.08
   6 -11   2   -0.12    0.09
  -7  11  -2    0.33    0.11
  -7  11  -2    0.42    0.11
   7 -11   2    0.28    0.07
   7 -11   2    0.29    0.09
   7 -11   2    0.02    0.10
   7 -11   2    0.25    0.10
  -8  11  -2    0.57    0.13
  -8  11  -2    0.47    0.11
   8 -11   2    0.61    0.13
   8 -11   2    0.54    0.09
  -9  11  -2    0.40    0.10
  -9  11  -2    0.55    0.14
   9 -11   2    0.39    0.13
   9 -11   2    0.46    0.10
 -10  11  -2    1.05    0.18
 -10  11  -2    1.06    0.13
  10 -11   2    1.09    0.14
  10 -11   2    1.07    0.17
   1  10  -2    0.72    0.12
   1  10  -2    0.85    0.14
   0  10  -2    0.10    0.09
   0  10  -2    0.23    0.11
  -1  10  -2    0.90    0.12
  -1  10  -2    0.92    0.14
   1 -10   2    0.93    0.10
   1 -10   2    0.82    0.13
   1 -10   2    1.15    0.15
  -2  10  -2    0.99    0.13
  -2  10  -2    0.86    0.12
   2 -10   2    0.74    0.13
   2 -10   2    0.83    0.09
   2 -10   2    1.03    0.14
  -3  10  -2    3.47    0.23
  -3  10  -2    3.81    0.15
  -3  10  -2    4.38    0.24
   3 -10   2    3.67    0.24
   3 -10   2    3.79    0.24
   3 -10   2    3.46    0.20
  -4  10  -2    6.69    0.29
  -4  10  -2    6.84    0.30
  -4  10  -2    6.41    0.22
   4 -10   2    6.36    0.19
   4 -10   2    6.44    0.29
   4 -10   2    6.82    0.31
   4 -10   2    7.07    0.29
  -5  10  -2    1.56    0.17
  -5  10  -2    1.35    0.14
   5 -10   2    1.18    0.14
   5 -10   2    1.48    0.16
   5 -10   2    1.24    0.14
   5 -10   2    1.63    0.10
  -6  10  -2    0.08    0.08
  -6  10  -2    0.02    0.09
   6 -10   2    0.05    0.08
   6 -10   2   -0.10    0.09
   6 -10   2    0.09    0.05
   6 -10   2    0.01    0.08
   6 -10   2    0.04    0.08
  -7  10  -2    0.25    0.09
  -7  10  -2    0.00    0.10
   7 -10   2    0.20    0.10
   7 -10   2    0.24    0.07
  -8  10  -2   -0.04    0.10
  -8  10  -2   -0.08    0.07
   8 -10   2    0.06    0.07
   8 -10   2    0.00    0.09
  -9  10  -2    8.49    0.40
  -9  10  -2    8.31    0.33
   9 -10   2    8.74    0.33
   9 -10   2    9.11    0.41
 -10  10  -2    8.81    0.43
 -10  10  -2    8.59    0.33
  10 -10   2    8.54    0.42
  10 -10   2    8.34    0.35
 -11  10  -2    0.33    0.14
 -11  10  -2    0.16    0.09
  11 -10   2    0.24    0.13
  11 -10   2    0.30    0.11
   3   9  -2    1.17    0.15
   3   9  -2    1.15    0.14
   2   9  -2    2.72    0.20
   2   9  -2    2.60    0.19
   2   9  -2    2.62    0.22
   1   9  -2    0.01    0.06
   1   9  -2    0.00    0.07
   1   9  -2    0.12    0.09
   0   9  -2    0.41    0.07
   0   9  -2    0.22    0.09
   0   9  -2    0.39    0.11
  -1   9  -2    7.92    0.31
  -1   9  -2    7.89    0.27
  -1   9  -2    8.20    0.33
   1  -9   2    8.16    0.33
   1  -9   2    8.11    0.34
   1  -9   2    7.95    0.28
  -2   9  -2    0.67    0.07
  -2   9  -2    0.54    0.08
  -2   9  -2    0.41    0.10
   2  -9   2    0.63    0.08
   2  -9   2    0.61    0.08
   2  -9   2    0.68    0.11
   2  -9   2    0.64    0.10
  -3   9  -2    0.13    0.05
  -3   9  -2    0.11    0.04
  -3   9  -2   -0.14    0.07
  -3   9  -2    0.16    0.07
   3  -9   2    0.03    0.07
   3  -9   2    0.09    0.07
   3  -9   2    0.11    0.06
   3  -9   2    0.07    0.08
  -4   9  -2    1.26    0.12
  -4   9  -2    1.48    0.09
  -4   9  -2    1.34    0.09
  -4   9  -2    1.39    0.14
   4  -9   2    1.43    0.14
   4  -9   2    1.26    0.12
   4  -9   2    1.43    0.09
   4  -9   2    1.18    0.08
   4  -9   2    1.18    0.13
   4  -9   2    1.49    0.14
  -5   9  -2    0.14    0.08
  -5   9  -2    0.20    0.04
  -5   9  -2    0.26    0.08
  -5   9  -2    0.26    0.07
   5  -9   2    0.24    0.05
   5  -9   2    0.18    0.08
   5  -9   2    0.11    0.08
   5  -9   2    0.28    0.08
   5  -9   2    0.27    0.08
   5  -9   2    0.28    0.05
  -6   9  -2    0.40    0.07
  -6   9  -2    0.42    0.09
  -6   9  -2    0.34    0.09
   6  -9   2    0.37    0.06
   6  -9   2    0.39    0.09
   6  -9   2    0.45    0.07
   6  -9   2    0.42    0.09
  -7   9  -2   12.94    0.40
  -7   9  -2   11.59    0.40
  -7   9  -2   12.48    0.47
   7  -9   2   12.53    0.38
   7  -9   2   12.02    0.38
   7  -9   2   11.89    0.46
  -8   9  -2    1.96    0.21
  -8   9  -2    1.56    0.14
   8  -9   2    2.02    0.21
   8  -9   2    1.84    0.16
  -9   9  -2    1.15    0.16
  -9   9  -2    0.97    0.12
   9  -9   2    1.03    0.15
   9  -9   2    0.77    0.12
 -10   9  -2    1.27    0.12
 -10   9  -2    1.48    0.18
  10  -9   2    1.47    0.17
  10  -9   2    1.35    0.15
 -11   9  -2   -0.04    0.11
  11  -9   2    0.05    0.11
  11  -9   2   -0.02    0.09
   4   8  -2    1.23    0.14
   4   8  -2    1.36    0.15
   3   8  -2    3.46    0.22
   3   8  -2    3.59    0.20
   3   8  -2    3.65    0.20
   2   8  -2    0.97    0.12
   2   8  -2    1.03    0.08
   2   8  -2    0.94    0.11
   2   8  -2    0.79    0.10
   1   8  -2    0.27    0.08
   1   8  -2    0.15    0.09
   1   8  -2    0.17    0.04
   1   8  -2    0.16    0.07
   0   8  -2   10.14    0.32
   0   8  -2   10.30    0.33
   0   8  -2   10.52    0.35
   0   8  -2   10.23    0.37
   0   8  -2   10.63    0.33
   0   8  -2   10.45    0.24
   0  -8   2   10.59    0.33
   0  -8   2   10.96    0.39
   0  -8   2   10.30    0.32
  -1   8  -2    1.16    0.11
  -1   8  -2    1.42    0.10
  -1   8  -2    1.25    0.10
  -1   8  -2    1.42    0.10
   1  -8   2    1.41    0.15
   1  -8   2    1.45    0.15
   1  -8   2    1.33    0.10
   1  -8   2    0.96    0.08
  -2   8  -2   15.06    0.43
  -2   8  -2   15.86    0.44
  -2   8  -2   15.42    0.47
  -2   8  -2   15.24    0.50
   2  -8   2   15.54    0.49
   2  -8   2   15.57    0.50
   2  -8   2   15.41    0.50
   2  -8   2   15.70    0.49
  -3   8  -2   17.39    0.46
  -3   8  -2   16.98    0.49
  -3   8  -2   17.60    0.56
  -3   8  -2   17.35    0.51
   3  -8   2   17.39    0.49
   3  -8   2   18.21    0.55
   3  -8   2   17.69    0.56
   3  -8   2   17.62    0.45
   3  -8   2   17.63    0.54
   3  -8   2   17.20    0.56
  -4   8  -2   15.03    0.43
  -4   8  -2   14.73    0.50
  -4   8  -2   14.40    0.33
  -4   8  -2   14.80    0.45
  -4   8  -2   14.63    0.47
  -4   8  -2   14.90    0.39
   4  -8   2   14.44    0.40
   4  -8   2   15.00    0.47
   4  -8   2   15.40    0.50
   4  -8   2   14.96    0.48
   4  -8   2   15.42    0.43
   4  -8   2   15.23    0.50
  -5   8  -2    7.16    0.26
  -5   8  -2    7.43    0.26
  -5   8  -2    7.01    0.29
  -5   8  -2    6.90    0.18
  -5   8  -2    6.98    0.19
   5  -8   2    7.07    0.29
   5  -8   2    7.03    0.29
   5  -8   2    7.27    0.24
   5  -8   2    7.19    0.23
  -6   8  -2   10.62    0.26
  -6   8  -2   10.90    0.35
  -6   8  -2   10.73    0.40
   6  -8   2    9.92    0.40
   6  -8   2   10.97    0.40
   6  -8   2   10.36    0.33
   6  -8   2   11.16    0.34
  -7   8  -2    0.32    0.08
  -7   8  -2    0.45    0.10
   7  -8   2    0.20    0.09
   7  -8   2    0.32    0.06
   7  -8   2    0.34    0.07
  -8   8  -2   12.42    0.47
  -8   8  -2   11.57    0.38
   8  -8   2   11.74    0.39
   8  -8   2   11.88    0.46
  -9   8  -2    0.61    0.13
  -9   8  -2    0.33    0.08
   9  -8   2    0.86    0.13
   9  -8   2    0.46    0.11
 -10   8  -2    0.11    0.11
 -10   8  -2    0.11    0.06
  10  -8   2    0.02    0.09
  10  -8   2    0.10    0.10
 -11   8  -2    0.22    0.12
  11  -8   2    0.15    0.10
  11  -8   2    0.19    0.12
   5   7  -2    4.03    0.24
   5   7  -2    3.94    0.23
   4   7  -2   -0.09    0.08
   4   7  -2   -0.02    0.05
   4   7  -2   -0.08    0.07
   4   7  -2   -0.08    0.06
   3   7  -2   12.00    0.40
   3   7  -2   11.93    0.31
   3   7  -2   11.71    0.37
   3   7  -2   12.15    0.40
   2   7  -2    8.01    0.28
   2   7  -2    7.84    0.22
   2   7  -2    8.25    0.30
   2   7  -2    8.61    0.30
   1   7  -2    2.37    0.15
   1   7  -2    2.29    0.09
   1   7  -2    2.24    0.16
   1   7  -2    2.34    0.14
   0   7  -2   42.60    1.15
   0   7  -2   41.58    0.92
   0   7  -2   42.72    1.11
   0   7  -2   43.25    1.23
   0   7  -2   41.96    1.23
   0  -7   2   42.81    1.23
   0  -7   2   43.02    1.20
   0  -7   2   43.98    1.19
   0  -7   2   42.93    1.23
  -1   7  -2   20.02    0.62
  -1   7  -2   20.30    0.62
  -1   7  -2   20.76    0.57
  -1   7  -2   20.16    0.57
  -1   7  -2   20.35    0.54
   1  -7   2   20.60    0.62
   1  -7   2   20.24    0.62
   1  -7   2   20.76    0.62
   1  -7   2   20.80    0.61
  -2   7  -2    0.89    0.08
  -2   7  -2    0.90    0.09
  -2   7  -2    0.99    0.09
  -2   7  -2    0.98    0.10
  -2   7  -2    1.11    0.08
  -2   7  -2    0.89    0.10
   2  -7   2    1.01    0.05
   2  -7   2    0.94    0.10
   2  -7   2    0.91    0.09
   2  -7   2    0.71    0.07
   2  -7   2    0.88    0.09
   2  -7   2    1.00    0.09
  -3   7  -2   55.30    1.43
  -3   7  -2   54.73    1.19
  -3   7  -2   56.28    1.37
  -3   7  -2   55.99    1.65
  -3   7  -2   57.34    1.65
  -3   7  -2   58.29    1.49
  -3   7  -2   55.58    1.58
   3  -7   2   58.63    1.55
   3  -7   2   55.26    1.39
   3  -7   2   58.02    1.65
   3  -7   2   54.99    1.65
   3  -7   2   56.50    1.48
   3  -7   2   55.96    1.52
  -4   7  -2   16.92    0.48
  -4   7  -2   16.95    0.48
  -4   7  -2   17.37    0.55
  -4   7  -2   17.08    0.38
  -4   7  -2   17.30    0.55
  -4   7  -2   16.51    0.43
   4  -7   2   17.49    0.46
   4  -7   2   17.22    0.55
   4  -7   2   16.88    0.48
   4  -7   2   16.83    0.55
  -5   7  -2    0.50    0.04
  -5   7  -2    0.33    0.08
  -5   7  -2    0.27    0.06
   5  -7   2    0.46    0.05
   5  -7   2    0.33    0.06
   5  -7   2    0.29    0.07
   5  -7   2    0.38    0.08
  -6   7  -2   11.41    0.34
  -6   7  -2   11.17    0.28
  -6   7  -2   11.26    0.41
   6  -7   2   11.32    0.34
   6  -7   2   10.98    0.40
   6  -7   2   10.67    0.40
   6  -7   2   11.01    0.35
  -7   7  -2    5.20    0.20
  -7   7  -2    5.00    0.26
  -7   7  -2    5.47    0.17
   7  -7   2    5.38    0.26
   7  -7   2    5.12    0.21
  -8   7  -2   -0.06    0.05
  -8   7  -2    0.03    0.05
  -8   7  -2   -0.12    0.08
   8  -7   2   -0.03    0.08
   8  -7   2   -0.19    0.07
  -9   7  -2    3.00    0.15
  -9   7  -2    3.32    0.23
  -9   7  -2    3.16    0.15
   9  -7   2    3.02    0.16
   9  -7   2    3.24    0.20
   9  -7   2    3.47    0.23
 -10   7  -2    2.32    0.13
 -10   7  -2    2.46    0.23
  10  -7   2    2.54    0.16
  10  -7   2    2.79    0.21
  10  -7   2    2.41    0.23
 -11   7  -2    1.23    0.17
  11  -7   2    1.42    0.16
  11  -7   2    1.50    0.13
  11  -7   2    1.47    0.17
   6   6  -2    0.10    0.08
   6   6  -2    0.38    0.09
   6   6  -2    0.24    0.10
   5   6  -2    1.97    0.13
   5   6  -2    1.90    0.16
   5   6  -2    1.74    0.16
   5   6  -2    1.96    0.12
   4   6  -2    8.56    0.31
   4   6  -2    8.33    0.28
   4   6  -2    8.28    0.25
   4   6  -2    8.74    0.32
   3   6  -2    6.85    0.20
   3   6  -2    6.80    0.24
   3   6  -2    7.00    0.26
   3   6  -2    6.58    0.26
   2   6  -2    0.18    0.04
   2   6  -2    0.18    0.06
   2   6  -2    0.06    0.05
   2   6  -2    0.11    0.05
   1   6  -2   53.52    1.14
   1   6  -2   52.65    1.42
   1   6  -2   53.46    1.35
   0   6  -2    3.19    0.12
   0   6  -2    3.10    0.13
   0   6  -2    3.07    0.14
   0   6  -2    3.18    0.17
   0   6  -2    3.35    0.17
   0   6  -2    3.50    0.15
   0   6  -2    2.97    0.12
   0   6  -2    2.81    0.15
   0  -6   2    3.39    0.17
   0  -6   2    3.04    0.12
   0  -6   2    3.25    0.16
   0  -6   2    3.02    0.12
  -1   6  -2   11.23    0.33
  -1   6  -2   11.22    0.31
  -1   6  -2   10.95    0.35
  -1   6  -2   10.56    0.33
  -1   6  -2   11.50    0.37
  -1   6  -2   11.47    0.35
   1  -6   2   10.96    0.35
   1  -6   2   11.38    0.36
   1  -6   2   11.14    0.35
   1  -6   2   11.13    0.36
  -2   6  -2   54.78    1.40
  -2   6  -2   55.82    1.62
  -2   6  -2   55.55    1.47
  -2   6  -2   54.62    1.56
  -2   6  -2   57.18    1.62
  -2   6  -2   55.02    1.35
   2  -6   2   55.39    1.50
   2  -6   2   57.86    1.37
   2  -6   2   56.76    1.52
   2  -6   2   55.14    1.62
   2  -6   2   57.11    1.47
   2  -6   2   55.35    1.62
  -3   6  -2   19.18    0.42
  -3   6  -2   18.95    0.48
  -3   6  -2   19.56    0.60
  -3   6  -2   18.49    0.52
  -3   6  -2   18.74    0.53
  -3   6  -2   20.38    0.60
   3  -6   2   18.65    0.59
   3  -6   2   19.01    0.50
   3  -6   2   19.32    0.53
   3  -6   2   18.60    0.55
   3  -6   2   19.51    0.59
  -4   6  -2   25.73    0.70
  -4   6  -2   26.10    0.79
  -4   6  -2   25.27    0.56
  -4   6  -2   26.12    0.79
  -4   6  -2   25.28    0.67
   4  -6   2   25.67    0.66
   4  -6   2   25.70    0.70
   4  -6   2   25.16    0.79
   4  -6   2   25.42    0.78
  -5   6  -2    2.44    0.10
  -5   6  -2    2.68    0.15
  -5   6  -2    2.72    0.16
  -5   6  -2    2.59    0.13
   5  -6   2    2.67    0.12
   5  -6   2    2.70    0.15
   5  -6   2    2.59    0.13
   5  -6   2    2.69    0.16
  -6   6  -2    0.59    0.09
  -6   6  -2    0.65    0.09
  -6   6  -2    0.63    0.06
  -6   6  -2    0.50    0.06
   6  -6   2    0.56    0.08
   6  -6   2    0.69    0.09
   6  -6   2    0.71    0.07
   6  -6   2    0.58    0.07
  -7   6  -2    4.85    0.18
  -7   6  -2    5.00    0.18
  -7   6  -2    4.80    0.24
   7  -6   2    4.93    0.24
   7  -6   2    4.94    0.21
   7  -6   2    4.92    0.17
  -8   6  -2    1.12    0.13
  -8   6  -2    1.19    0.09
  -8   6  -2    1.05    0.09
   8  -6   2    1.02    0.09
   8  -6   2    1.04    0.12
   8  -6   2    0.86    0.10
  -9   6  -2    0.45    0.06
  -9   6  -2    0.49    0.06
  -9   6  -2    0.32    0.10
   9  -6   2    0.57    0.10
   9  -6   2    0.34    0.10
   9  -6   2    0.36    0.07
 -10   6  -2    2.05    0.21
 -10   6  -2    1.85    0.15
  10  -6   2    1.79    0.15
  10  -6   2    2.09    0.21
  10  -6   2    2.05    0.19
 -11   6  -2    0.11    0.11
  11  -6   2    0.03    0.07
  11  -6   2    0.03    0.10
  11  -6   2    0.16    0.10
   7   5  -2   11.49    0.35
   6   5  -2    0.79    0.10
   6   5  -2    0.80    0.09
   5   5  -2   10.64    0.30
   5   5  -2    9.99    0.31
   5   5  -2   10.56    0.30
   5   5  -2   10.69    0.34
   4   5  -2   25.37    0.65
   4   5  -2   25.14    0.70
   4   5  -2   25.53    0.59
   4   5  -2   25.64    0.67
   3   5  -2    0.30    0.05
   3   5  -2    0.37    0.07
   3   5  -2    0.23    0.04
   3   5  -2    0.26    0.03
   3   5  -2    0.26    0.06
   2   5  -2   14.11    0.43
   2   5  -2   14.02    0.40
   2   5  -2   14.36    0.41
   1   5  -2   13.48    0.41
   1   5  -2   12.83    0.39
   1   5  -2   12.95    0.42
   1   5  -2   12.94    0.37
   1   5  -2   13.39    0.40
   1   5  -2   12.96    0.37
   0   5  -2   16.78    0.49
   0   5  -2   15.91    0.46
   0   5  -2   16.46    0.51
   0   5  -2   16.28    0.48
   0   5  -2   16.33    0.44
   0   5  -2   16.28    0.49
   0   5  -2   16.96    0.49
   0  -5   2   16.39    0.48
   0  -5   2   16.40    0.49
   0  -5   2   16.68    0.49
  -1   5  -2   16.04    0.48
  -1   5  -2   15.42    0.41
  -1   5  -2   15.10    0.48
  -1   5  -2   15.42    0.48
  -1   5  -2   15.74    0.44
   1  -5   2   15.68    0.46
   1  -5   2   15.50    0.48
   1  -5   2   16.01    0.48
   1  -5   2   15.92    0.44
   1  -5   2   15.91    0.47
   1  -5   2   16.70    0.39
  -2   5  -2  135.64    3.44
  -2   5  -2  123.59    3.78
  -2   5  -2  136.17    3.16
  -2   5  -2  133.18    3.78
   2  -5   2  123.02    3.78
   2  -5   2  138.16    3.44
   2  -5   2  136.22    3.47
   2  -5   2  136.66    3.24
   2  -5   2  137.81    3.51
   2  -5   2  128.79    3.78
  -3   5  -2  228.61    6.33
  -3   5  -2  223.43    4.70
  -3   5  -2  215.94    5.77
  -3   5  -2  227.26    6.34
  -3   5  -2  213.09    5.27
   3  -5   2  233.44    6.36
   3  -5   2  225.27    6.36
   3  -5   2  218.55    5.78
   3  -5   2  217.65    5.43
  -4   5  -2    5.11    0.14
  -4   5  -2    5.32    0.21
  -4   5  -2    5.07    0.21
  -4   5  -2    5.30    0.18
   4  -5   2    5.20    0.18
   4  -5   2    5.26    0.21
   4  -5   2    5.21    0.17
   4  -5   2    5.02    0.21
  -5   5  -2   31.87    0.94
  -5   5  -2   30.41    0.94
  -5   5  -2   31.51    0.69
   5  -5   2   31.22    0.81
   5  -5   2   32.10    0.94
   5  -5   2   29.22    0.94
   5  -5   2   31.02    0.85
  -6   5  -2   13.08    0.37
  -6   5  -2   13.46    0.33
  -6   5  -2   13.25    0.46
  -6   5  -2   13.14    0.37
  -6   5  -2   13.58    0.46
   6  -5   2   13.69    0.39
   6  -5   2   13.73    0.46
   6  -5   2   13.52    0.41
   6  -5   2   13.50    0.33
   6  -5   2   13.18    0.46
  -7   5  -2    1.08    0.08
  -7   5  -2    0.96    0.10
  -7   5  -2    0.93    0.09
  -7   5  -2    1.08    0.12
   7  -5   2    0.89    0.09
   7  -5   2    1.03    0.11
   7  -5   2    0.93    0.08
  -8   5  -2    1.51    0.09
  -8   5  -2    1.44    0.09
  -8   5  -2    1.34    0.14
   8  -5   2    1.27    0.11
   8  -5   2    1.50    0.14
   8  -5   2    1.49    0.14
  -9   5  -2   17.23    0.46
  -9   5  -2   17.70    0.56
  -9   5  -2   18.28    0.63
   9  -5   2   18.64    0.55
   9  -5   2   18.59    0.63
   9  -5   2   17.77    0.47
 -10   5  -2    1.04    0.11
 -10   5  -2    0.76    0.13
  10  -5   2    0.77    0.12
  10  -5   2    1.05    0.11
  10  -5   2    1.00    0.14
 -11   5  -2    0.08    0.10
  11  -5   2    0.19    0.08
  11  -5   2    0.04    0.09
   8   4  -2    5.07    0.23
   7   4  -2   10.09    0.33
   7   4  -2   10.49    0.31
   6   4  -2    6.10    0.21
   6   4  -2    5.79    0.22
   6   4  -2    6.09    0.21
   6   4  -2    5.68    0.19
   5   4  -2   14.39    0.39
   5   4  -2   14.60    0.42
   5   4  -2   14.67    0.40
   5   4  -2   14.44    0.37
   4   4  -2    9.50    0.27
   4   4  -2    9.17    0.27
   4   4  -2    9.44    0.25
   4   4  -2    9.02    0.29
   3   4  -2   33.56    0.83
   3   4  -2   32.23    0.84
   3   4  -2   33.22    0.87
   3   4  -2   33.55    0.98
   3   4  -2   33.41    0.74
   2   4  -2    6.27    0.21
   2   4  -2    6.57    0.24
   2   4  -2    6.55    0.18
   2   4  -2    6.57    0.23
   2   4  -2    6.76    0.24
   2   4  -2    6.46    0.22
   1   4  -2  161.19    4.46
   1   4  -2  166.90    4.29
   1   4  -2  164.43    3.92
   1   4  -2  166.36    4.32
   1   4  -2  164.01    4.25
  -1  -4   2  161.72    3.92
   0   4  -2    6.54    0.21
   0   4  -2    6.33    0.21
   0   4  -2    6.30    0.19
   0   4  -2    6.16    0.20
   0   4  -2    6.10    0.20
   0   4  -2    6.19    0.22
   0   4  -2    6.48    0.20
   0  -4   2    6.20    0.21
   0  -4   2    6.20    0.20
   0  -4   2    6.08    0.21
   0  -4   2    6.47    0.20
   0  -4   2    6.09    0.19
  -1   4  -2  148.41    4.23
  -1   4  -2  153.54    3.90
  -1   4  -2  146.22    4.26
  -1   4  -2  152.18    3.65
  -1   4  -2  151.61    3.55
   1  -4   2  144.01    4.23
   1  -4   2  140.29    4.23
   1  -4   2  151.41    3.66
   1  -4   2  150.94    3.89
   1  -4   2  153.97    3.93
   1  -4   2  151.36    3.55
   1  -4   2  147.77    3.86
  -2   4  -2   12.17    0.36
  -2   4  -2   11.15    0.33
  -2   4  -2   11.79    0.36
  -2   4  -2   11.36    0.30
  -2   4  -2   11.13    0.29
   2  -4   2   11.20    0.33
   2  -4   2   11.26    0.30
   2  -4   2   11.38    0.36
   2  -4   2   11.36    0.32
   2  -4   2   11.96    0.36
  -3   4  -2    2.87    0.09
  -3   4  -2    2.89    0.13
  -3   4  -2    2.87    0.11
  -3   4  -2    2.83    0.12
  -3   4  -2    3.10    0.14
   3  -4   2    2.70    0.11
   3  -4   2    2.83    0.11
   3  -4   2    3.13    0.14
   3  -4   2    2.88    0.13
  -4   4  -2   31.90    0.92
  -4   4  -2   29.64    0.91
  -4   4  -2   30.49    0.67
   4  -4   2   30.99    0.91
   4  -4   2   30.05    0.82
   4  -4   2   29.92    0.78
   4  -4   2   30.17    0.91
  -5   4  -2   13.23    0.43
  -5   4  -2   13.03    0.43
  -5   4  -2   12.77    0.31
  -5   4  -2   12.66    0.35
   5  -4   2   12.66    0.43
   5  -4   2   12.68    0.43
   5  -4   2   12.84    0.38
   5  -4   2   13.01    0.32
   5  -4   2   12.74    0.37
  -6   4  -2    1.79    0.13
  -6   4  -2    1.91    0.13
  -6   4  -2    1.88    0.09
  -6   4  -2    1.47    0.09
   6  -4   2    1.67    0.07
   6  -4   2    1.88    0.10
   6  -4   2    1.79    0.12
   6  -4   2    1.63    0.13
   6  -4   2    1.58    0.11
   6  -4   2    1.62    0.12
  -7   4  -2   17.04    0.56
  -7   4  -2   16.66    0.55
  -7   4  -2   16.14    0.45
  -7   4  -2   16.43    0.43
   7  -4   2   16.70    0.41
   7  -4   2   16.19    0.42
   7  -4   2   15.88    0.55
   7  -4   2   16.84    0.48
  -8   4  -2   11.73    0.34
  -8   4  -2   11.99    0.40
  -8   4  -2   12.72    0.44
  -8   4  -2   12.04    0.44
   8  -4   2   11.86    0.33
   8  -4   2   12.16    0.39
   8  -4   2   12.14    0.44
   8  -4   2   12.21    0.34
  -9   4  -2    0.93    0.10
  -9   4  -2    0.72    0.11
  -9   4  -2    0.75    0.12
   9  -4   2    0.84    0.10
   9  -4   2    0.92    0.12
   9  -4   2    0.82    0.12
 -10   4  -2    0.43    0.11
 -10   4  -2    0.46    0.09
  10  -4   2    0.49    0.09
  10  -4   2    0.38    0.10
  10  -4   2    0.40    0.10
 -11   4  -2    0.48    0.12
  11  -4   2    0.38    0.09
  11  -4   2    0.36    0.11
   9   3  -2    1.33    0.13
   8   3  -2    4.20    0.20
   8   3  -2    4.26    0.21
   7   3  -2    4.87    0.20
   7   3  -2    5.00    0.19
   7   3  -2    5.05    0.20
   6   3  -2   16.65    0.47
   6   3  -2   16.34    0.43
   6   3  -2   17.03    0.43
   6   3  -2   16.62    0.47
  -6  -3   2   17.85    0.56
   5   3  -2    4.62    0.17
   5   3  -2    4.64    0.16
   5   3  -2    4.62    0.15
   5   3  -2    4.48    0.17
  -5  -3   2    3.57    0.22
   4   3  -2   22.09    0.57
   4   3  -2   22.14    0.59
   4   3  -2   22.53    0.52
   4   3  -2   22.29    0.67
   4   3  -2   22.32    0.58
  -4  -3   2   22.54    0.60
  -4  -3   2   21.93    0.67
   3   3  -2    5.35    0.18
   3   3  -2    5.33    0.21
   3   3  -2    5.42    0.20
   3   3  -2    5.17    0.16
   3   3  -2    5.88    0.21
   3   3  -2    5.15    0.17
  -3  -3   2    5.28    0.19
   2   3  -2  133.39    3.52
   2   3  -2  134.54    3.22
   2   3  -2  135.28    3.66
   2   3  -2  135.17    3.54
  -2  -3   2  133.55    3.22
   1   3  -2  181.03    4.84
   1   3  -2  183.89    4.43
   1   3  -2  188.13    4.87
   1   3  -2  188.67    5.26
   1   3  -2  187.30    4.83
   1   3  -2  185.20    5.03
  -1  -3   2  184.44    5.26
  -1  -3   2  186.41    4.45
   0   3  -2  325.76    8.84
   0   3  -2  341.88    8.90
   0   3  -2  341.52    8.12
   0   3  -2  348.34    9.67
   0   3  -2  346.49    8.98
   0   3  -2  341.23    9.66
   0   3  -2  348.95    8.29
   0  -3   2  340.02    8.13
   0  -3   2  338.37    8.99
   0  -3   2  330.03    9.66
   0  -3   2  345.61    9.66
   0  -3   2  335.89    8.85
  -1   3  -2  218.74    6.58
  -1   3  -2  232.22    5.52
  -1   3  -2  231.01    5.67
  -1   3  -2  243.67    6.63
  -1   3  -2  229.06    6.04
   1  -3   2  226.12    6.07
   1  -3   2  221.05    6.61
   1  -3   2  231.17    6.04
   1  -3   2  242.49    6.63
   1  -3   2  237.49    5.52
   1  -3   2  237.20    5.68
  -2   3  -2   42.09    1.19
  -2   3  -2   41.41    1.19
  -2   3  -2   40.88    1.02
  -2   3  -2   40.42    1.08
   2  -3   2   40.43    1.08
   2  -3   2   42.05    1.19
   2  -3   2   40.33    0.97
   2  -3   2   39.66    1.01
   2  -3   2   40.83    1.19
  -3   3  -2  256.99    6.85
  -3   3  -2  274.98    7.52
  -3   3  -2  257.88    6.38
  -3   3  -2  254.83    5.54
  -3   3  -2  272.45    7.53
   3  -3   2  252.23    6.46
   3  -3   2  253.89    6.82
   3  -3   2  266.64    7.52
   3  -3   2  268.60    7.50
  -4   3  -2    7.06    0.25
  -4   3  -2    7.39    0.22
  -4   3  -2    6.97    0.25
  -4   3  -2    6.96    0.19
  -4   3  -2    7.23    0.21
   4  -3   2    7.39    0.26
   4  -3   2    6.75    0.25
   4  -3   2    7.18    0.23
   4  -3   2    6.96    0.19
   4  -3   2    7.18    0.22
   4  -3   2    7.08    0.19
  -5   3  -2   28.61    0.82
  -5   3  -2   26.58    0.69
  -5   3  -2   26.55    0.81
  -5   3  -2   26.77    0.61
   5  -3   2   27.45    0.82
   5  -3   2   26.52    0.74
   5  -3   2   26.86    0.82
   5  -3   2   26.18    0.61
   5  -3   2   25.95    0.70
   5  -3   2   26.09    0.66
  -6   3  -2   52.60    1.31
  -6   3  -2   52.54    1.53
  -6   3  -2   50.54    1.52
   6  -3   2   50.78    1.26
   6  -3   2   50.93    1.14
   6  -3   2   51.54    1.52
   6  -3   2   52.99    1.53
   6  -3   2   51.58    1.32
  -7   3  -2   -0.04    0.05
  -7   3  -2    0.10    0.04
  -7   3  -2   -0.10    0.05
  -7   3  -2    0.05    0.06
   7  -3   2    0.00    0.05
   7  -3   2    0.06    0.04
   7  -3   2    0.05    0.06
   7  -3   2   -0.02    0.05
  -8   3  -2    8.69    0.32
  -8   3  -2    9.26    0.35
  -8   3  -2    8.26    0.25
  -8   3  -2    8.67    0.34
   8  -3   2    8.52    0.34
   8  -3   2    8.19    0.27
   8  -3   2    8.21    0.26
   8  -3   2    8.32    0.31
  -9   3  -2    4.71    0.23
  -9   3  -2    4.48    0.25
   9  -3   2    4.82    0.24
   9  -3   2    4.56    0.21
   9  -3   2    4.77    0.25
 -10   3  -2    0.19    0.09
 -10   3  -2    0.08    0.08
  10  -3   2    0.07    0.07
  10  -3   2    0.14    0.09
 -11   3  -2    1.14    0.14
 -11   3  -2    1.10    0.14
  11  -3   2    1.05    0.15
  11  -3   2    1.09    0.13
   9   2  -2    5.78    0.26
   9   2  -2    5.69    0.24
   8   2  -2    2.33    0.15
   8   2  -2    2.05    0.15
  -8  -2   2    2.16    0.11
   7   2  -2    0.69    0.08
   7   2  -2    0.65    0.08
   7   2  -2    0.67    0.06
   7   2  -2    0.64    0.07
  -7  -2   2    0.59    0.10
  -7  -2   2    0.57    0.06
   6   2  -2    3.90    0.15
   6   2  -2    3.88    0.14
   6   2  -2    3.87    0.17
   6   2  -2    3.55    0.16
   6   2  -2    4.04    0.15
  -6  -2   2    4.12    0.15
  -6  -2   2    3.83    0.15
   5   2  -2   20.46    0.55
   5   2  -2   20.42    0.60
   5   2  -2   20.23    0.51
   5   2  -2   20.68    0.49
   5   2  -2   20.33    0.53
   5   2  -2   20.58    0.62
   5   2  -2   20.25    0.60
  -5  -2   2   20.26    0.60
  -5  -2   2   20.53    0.56
  -5  -2   2   20.36    0.62
  -5  -2   2   20.23    0.60
   4   2  -2    5.92    0.22
   4   2  -2    5.97    0.18
   4   2  -2    5.82    0.20
   4   2  -2    5.71    0.18
   4   2  -2    5.80    0.18
  -4  -2   2    5.84    0.18
  -4  -2   2    5.88    0.18
  -4  -2   2    5.82    0.22
  -4  -2   2    5.84    0.20
   3   2  -2  161.16    4.57
   3   2  -2  160.69    4.58
   3   2  -2  159.11    4.38
   3   2  -2  163.79    3.85
  -3  -2   2  162.04    4.57
  -3  -2   2  161.25    3.85
  -3  -2   2  161.31    4.57
   2   2  -2    3.48    0.11
   2   2  -2    3.47    0.11
   2   2  -2    3.39    0.12
   2   2  -2    3.50    0.14
  -2  -2   2    3.38    0.11
  -2  -2   2    3.40    0.11
  -2  -2   2    3.58    0.13
   1   2  -2    3.19    0.10
   1   2  -2    3.17    0.10
   1   2  -2    3.19    0.10
   1   2  -2    3.36    0.11
   1   2  -2    3.11    0.11
  -1  -2   2    3.19    0.10
  -1  -2   2    2.99    0.10
   0   2  -2  227.99    6.57
   0   2  -2  236.48    6.07
   0   2  -2  230.44    5.64
   0   2  -2  235.09    6.03
   0   2  -2  223.45    6.57
   0   2  -2  224.41    5.98
   0  -2   2  235.00    6.58
   0  -2   2  230.42    5.65
   0  -2   2  230.92    6.08
   0  -2   2  234.30    6.02
   0  -2   2  235.17    5.52
   0  -2   2  224.93    6.56
  -1   2  -2  230.82    6.48
  -1   2  -2  239.68    6.49
  -1   2  -2  223.81    5.54
  -1   2  -2  222.45    5.92
   1  -2   2  229.04    6.47
   1  -2   2  225.19    5.91
   1  -2   2  218.02    5.88
   1  -2   2  229.21    6.48
   1  -2   2  219.97    5.55
  -2   2  -2    5.82    0.15
  -2   2  -2    6.04    0.18
  -2   2  -2    6.00    0.20
  -2   2  -2    5.72    0.17
  -2   2  -2    5.87    0.20
  -2   2  -2    5.84    0.17
   2  -2   2    5.57    0.20
   2  -2   2    6.06    0.20
   2  -2   2    5.82    0.18
   2  -2   2    5.91    0.17
  -3   2  -2   26.09    0.77
  -3   2  -2   26.73    0.77
  -3   2  -2   24.99    0.66
  -3   2  -2   25.38    0.57
  -3   2  -2   25.65    0.66
   3  -2   2   26.18    0.77
   3  -2   2   25.79    0.70
   3  -2   2   25.56    0.57
   3  -2   2   26.22    0.77
   3  -2   2   25.75    0.66
   3  -2   2   25.06    0.66
  -4   2  -2   37.84    0.81
  -4   2  -2   37.04    1.08
  -4   2  -2   34.80    1.08
  -4   2  -2   36.82    0.93
  -4   2  -2   37.15    0.93
   4  -2   2   36.97    0.93
   4  -2   2   34.99    1.08
   4  -2   2   36.60    0.94
   4  -2   2   36.99    0.99
   4  -2   2   36.89    0.81
   4  -2   2   36.10    1.08
   4  -2   2   37.35    0.89
  -5   2  -2    1.91    0.12
  -5   2  -2    1.91    0.09
  -5   2  -2    2.02    0.09
  -5   2  -2    1.86    0.11
  -5   2  -2    1.92    0.07
  -5   2  -2    1.81    0.12
   5  -2   2    1.90    0.09
   5  -2   2    1.86    0.09
   5  -2   2    1.98    0.09
   5  -2   2    1.93    0.11
   5  -2   2    1.88    0.12
   5  -2   2    1.95    0.12
   5  -2   2    1.81    0.11
  -6   2  -2   19.42    0.62
  -6   2  -2   19.73    0.52
  -6   2  -2   20.04    0.60
  -6   2  -2   19.77    0.62
   6  -2   2   19.04    0.52
   6  -2   2   19.89    0.52
   6  -2   2   20.15    0.63
   6  -2   2   19.61    0.48
   6  -2   2   19.52    0.55
  -7   2  -2   13.05    0.44
  -7   2  -2   13.14    0.44
  -7   2  -2   12.72    0.43
  -7   2  -2   12.25    0.36
   7  -2   2   12.63    0.35
   7  -2   2   13.17    0.40
   7  -2   2   12.66    0.37
   7  -2   2   13.04    0.44
  -8   2  -2    2.52    0.18
  -8   2  -2    2.31    0.11
  -8   2  -2    2.65    0.18
  -8   2  -2    2.55    0.17
   8  -2   2    2.55    0.18
   8  -2   2    2.54    0.17
   8  -2   2    2.29    0.15
  -9   2  -2    3.43    0.21
  -9   2  -2    3.24    0.21
   9  -2   2    3.16    0.21
   9  -2   2    2.97    0.18
 -10   2  -2    4.52    0.25
 -10   2  -2    4.12    0.25
  10  -2   2    4.36    0.25
  10  -2   2    4.23    0.22
  10   1  -2    3.56    0.21
  10   1  -2    3.93    0.21
 -10  -1   2    3.25    0.18
   9   1  -2    0.50    0.09
   9   1  -2    0.71    0.11
  -9  -1   2    0.49    0.08
   8   1  -2   16.86    0.49
   8   1  -2   16.36    0.44
  -8  -1   2   16.23    0.52
   7   1  -2    0.50    0.08
   7   1  -2    0.40    0.07
   7   1  -2    0.46    0.08
  -7  -1   2    0.45    0.07
  -7  -1   2    0.62    0.09
  -7  -1   2    0.43    0.09
  -7  -1   2    0.41    0.07
   6   1  -2    7.40    0.25
   6   1  -2    7.38    0.20
   6   1  -2    7.36    0.27
   6   1  -2    6.91    0.22
   6   1  -2    6.82    0.24
   6   1  -2    7.36    0.25
  -6  -1   2    7.38    0.25
  -6  -1   2    7.34    0.26
  -6  -1   2    6.76    0.27
  -6  -1   2    7.32    0.25
   5   1  -2    0.01    0.04
   5   1  -2   -0.01    0.03
   5   1  -2    0.02    0.02
   5   1  -2   -0.02    0.04
   5   1  -2   -0.01    0.02
   5   1  -2    0.08    0.03
   5   1  -2    0.02    0.03
  -5  -1   2    0.02    0.04
  -5  -1   2    0.05    0.04
  -5  -1   2    0.01    0.03
  -5  -1   2    0.08    0.03
   4   1  -2   67.84    1.94
   4   1  -2   67.29    1.65
   4   1  -2   67.67    1.68
   4   1  -2   67.05    1.87
   4   1  -2   67.83    1.94
  -4  -1   2   68.82    1.94
  -4  -1   2   68.38    1.94
  -4  -1   2   68.28    1.65
   3   1  -2   55.97    1.52
   3   1  -2   54.86    1.58
   3   1  -2   56.38    1.34
   3   1  -2   52.53    1.58
  -3  -1   2   55.75    1.58
  -3  -1   2   56.35    1.35
  -3  -1   2   55.19    1.58
   2   1  -2   46.27    1.13
   2   1  -2   45.49    1.33
   2   1  -2   47.08    1.33
   2   1  -2   47.75    1.28
  -2  -1   2   45.28    1.33
  -2  -1   2   45.84    1.33
  -2  -1   2   47.88    1.13
   1   1  -2  272.19    7.16
   1   1  -2  261.23    7.79
   1   1  -2  279.50    7.80
  -1  -1   2  269.44    7.79
  -1  -1   2  281.28    7.14
  -1  -1   2  282.17    7.81
   0   1  -2    4.42    0.13
   0   1  -2    4.51    0.15
   0   1  -2    4.66    0.15
   0   1  -2    4.31    0.13
   0  -1   2    4.12    0.13
   0  -1   2    4.28    0.13
   0  -1   2    4.28    0.14
   0  -1   2    4.27    0.13
   0  -1   2    4.55    0.15
   0  -1   2    4.55    0.15
  -1   1  -2    1.49    0.06
  -1   1  -2    1.40    0.07
  -1   1  -2    1.36    0.06
  -1   1  -2    1.42    0.06
  -1   1  -2    1.44    0.07
   1  -1   2    1.33    0.06
   1  -1   2    1.39    0.07
   1  -1   2    1.43    0.06
  -2   1  -2  237.06    6.92
  -2   1  -2  255.29    6.97
  -2   1  -2  241.73    5.91
  -2   1  -2  244.66    5.97
  -2   1  -2  241.64    5.18
  -2   1  -2  244.67    6.05
   2  -1   2  243.84    6.01
   2  -1   2  251.29    6.97
   2  -1   2  236.68    6.05
   2  -1   2  247.85    6.37
   2  -1   2  233.22    6.92
  -3   1  -2   69.09    1.71
  -3   1  -2   68.36    1.98
  -3   1  -2   68.19    1.48
  -3   1  -2   69.08    1.68
  -3   1  -2   68.53    1.72
  -3   1  -2   70.20    1.98
   3  -1   2   63.85    1.98
   3  -1   2   69.46    1.98
   3  -1   2   70.08    1.71
   3  -1   2   70.83    1.81
   3  -1   2   71.18    1.48
   3  -1   2   69.22    1.72
  -4   1  -2   67.98    1.42
  -4   1  -2   61.87    1.90
  -4   1  -2   69.01    1.65
  -4   1  -2   67.35    1.60
  -4   1  -2   68.37    1.65
  -4   1  -2   59.61    1.90
   4  -1   2   67.87    1.65
   4  -1   2   66.08    1.65
   4  -1   2   59.52    1.90
   4  -1   2   67.16    1.91
   4  -1   2   66.19    1.60
   4  -1   2   68.29    1.75
   4  -1   2   68.50    1.43
  -5   1  -2    3.28    0.16
  -5   1  -2    3.14    0.15
  -5   1  -2    2.86    0.12
  -5   1  -2    3.26    0.09
  -5   1  -2    2.92    0.12
  -5   1  -2    2.96    0.14
  -5   1  -2    3.10    0.15
   5  -1   2    3.28    0.15
   5  -1   2    2.90    0.12
   5  -1   2    3.10    0.14
   5  -1   2    2.97    0.12
   5  -1   2    3.27    0.13
   5  -1   2    3.05    0.15
  -6   1  -2    0.35    0.07
  -6   1  -2    0.28    0.05
  -6   1  -2    0.10    0.07
   6  -1   2    0.49    0.07
   6  -1   2    0.29    0.05
   6  -1   2    0.39    0.06
   6  -1   2    0.64    0.07
   6  -1   2    0.34    0.06
  -7   1  -2   -0.09    0.06
  -7   1  -2    0.05    0.06
  -7   1  -2   -0.09    0.06
  -7   1  -2    0.06    0.04
   7  -1   2   -0.10    0.05
   7  -1   2   -0.06    0.05
   7  -1   2   -0.03    0.05
   7  -1   2   -0.08    0.05
  -8   1  -2    1.01    0.11
  -8   1  -2    0.74    0.12
   8  -1   2    0.87    0.10
   8  -1   2    0.77    0.11
   8  -1   2    0.91    0.10
   8  -1   2    0.79    0.08
  -9   1  -2    0.26    0.08
  -9   1  -2    0.21    0.10
   9  -1   2    0.38    0.10
   9  -1   2    0.33    0.09
 -10   1  -2    0.35    0.10
 -10   1  -2    0.25    0.11
  10  -1   2    0.46    0.10
  10  -1   2    0.49    0.11
  10   0  -2    2.60    0.18
  10   0  -2    2.65    0.20
 -10   0   2    2.65    0.17
   9   0  -2    5.75    0.22
   9   0  -2    5.85    0.25
  -9   0   2    5.92    0.25
   8   0  -2    1.62    0.13
   8   0  -2    1.68    0.14
   8   0  -2    1.26    0.11
  -8   0   2    1.42    0.14
  -8   0   2    1.56    0.12
  -8   0   2    1.42    0.13
  -8   0   2    1.41    0.13
   7   0  -2   88.48    1.93
   7   0  -2   89.37    2.22
   7   0  -2   85.75    2.55
  -7   0   2   88.51    2.55
  -7   0   2   92.82    2.55
  -7   0   2   87.87    2.17
  -7   0   2   87.61    2.45
   6   0  -2   45.30    1.29
   6   0  -2   42.72    1.10
   6   0  -2   43.56    0.98
   6   0  -2   44.50    1.29
  -6   0   2   43.49    1.24
  -6   0   2   43.89    1.29
  -6   0   2   44.01    1.11
  -6   0   2   45.20    1.29
   5   0  -2   17.54    0.54
   5   0  -2   17.13    0.54
   5   0  -2   17.47    0.52
   5   0  -2   17.70    0.44
   5   0  -2   18.02    0.47
  -5   0   2   18.22    0.54
  -5   0   2   17.74    0.52
  -5   0   2   18.36    0.54
  -5   0   2   17.64    0.47
   4   0  -2   92.48    2.67
   4   0  -2   94.93    2.55
   4   0  -2   86.96    2.67
   4   0  -2   96.67    2.27
  -4   0   2   96.08    2.25
  -4   0   2   94.16    2.67
  -4   0   2   94.20    2.67
   3   0  -2    8.86    0.25
   3   0  -2    8.63    0.27
   3   0  -2    8.30    0.21
   3   0  -2    8.39    0.22
   3   0  -2    8.79    0.27
  -3   0   2    7.93    0.27
  -3   0   2    8.42    0.23
  -3   0   2    8.20    0.27
   2   0  -2    0.18    0.02
   2   0  -2    0.09    0.03
   2   0  -2    0.15    0.03
   2   0  -2    0.12    0.02
  -2   0   2    0.11    0.03
  -2   0   2    0.11    0.03
  -2   0   2    0.19    0.03
  -2   0   2    0.12    0.02
   1   0  -2   39.84    0.98
   1   0  -2   36.82    1.13
   1   0  -2   38.88    1.02
   1   0  -2   40.22    0.96
   1   0  -2   39.20    1.13
  -1   0   2   40.78    1.02
  -1   0   2   36.99    1.13
  -1   0   2   39.34    0.98
  -1   0   2   40.71    1.13
  -1   0   2   39.11    0.96
   0   0  -2  380.99    9.34
   0   0  -2  382.19    9.45
   0   0  -2  379.19    9.27
   0   0  -2  410.12   10.86
   0   0  -2  400.07   10.86
   0   0  -2  377.06    9.87
   0   0   2  375.89    9.46
   0   0   2  378.31    9.27
   0   0   2  365.07   10.84
   0   0   2  379.46    9.87
   0   0   2  371.67    9.33
   0   0   2  377.60   10.84
  -1   0  -2  633.16   15.55
  -1   0  -2  669.15   17.84
  -1   0  -2  646.42   17.85
  -1   0  -2  628.09   13.27
  -1   0  -2  624.41   16.27
  -1   0  -2  628.80   15.23
  -1   0  -2  638.54   15.34
  -1   0  -2  595.34   16.31
   1   0   2  618.30   15.35
   1   0   2  618.14   15.23
   1   0   2  634.78   17.83
   1   0   2  615.30   15.56
   1   0   2  623.27   16.26
  -2   0  -2  121.24    3.69
  -2   0  -2  133.98    2.75
  -2   0  -2  130.45    3.18
  -2   0  -2  131.18    3.69
  -2   0  -2  132.57    3.15
  -2   0  -2  131.82    3.22
   2   0   2  131.56    3.69
   2   0   2  129.53    3.22
   2   0   2  134.90    3.38
   2   0   2  131.79    3.18
   2   0   2  118.35    3.69
   2   0   2  130.48    3.16
   2   0   2  131.56    3.38
  -3   0  -2    2.42    0.11
  -3   0  -2    2.60    0.09
  -3   0  -2    2.66    0.11
  -3   0  -2    2.69    0.12
  -3   0  -2    2.62    0.12
  -3   0  -2    2.49    0.09
   3   0   2    2.40    0.09
   3   0   2    2.52    0.11
   3   0   2    2.77    0.11
   3   0   2    2.59    0.12
   3   0   2    2.84    0.12
   3   0   2    2.64    0.10
   3   0   2    2.74    0.11
  -4   0  -2   31.64    0.70
  -4   0  -2   31.94    0.91
  -4   0  -2   31.47    0.81
  -4   0  -2   31.43    0.93
  -4   0  -2   31.27    0.81
  -4   0  -2   30.93    0.77
  -4   0  -2   30.60    0.93
   4   0   2   31.79    0.93
   4   0   2   30.83    0.85
   4   0   2   31.57    0.81
   4   0   2   31.78    0.71
   4   0   2   30.82    0.81
   4   0   2   31.05    0.93
  -5   0  -2    9.93    0.34
  -5   0  -2    9.85    0.35
  -5   0  -2    9.89    0.34
  -5   0  -2    9.74    0.29
  -5   0  -2   10.00    0.26
  -5   0  -2    9.78    0.30
   5   0   2   10.05    0.31
   5   0   2   10.23    0.27
   5   0   2    9.96    0.30
   5   0   2    9.95    0.30
   5   0   2   10.35    0.34
   5   0   2   10.06    0.32
   5   0   2    9.57    0.34
  -6   0  -2   -0.01    0.04
  -6   0  -2   -0.13    0.05
  -6   0  -2    0.05    0.05
  -6   0  -2   -0.18    0.06
   6   0   2   -0.01    0.05
   6   0   2    0.01    0.05
   6   0   2   -0.08    0.05
   6   0   2   -0.14    0.05
   6   0   2    0.06    0.06
  -7   0  -2    0.43    0.10
  -7   0  -2    0.30    0.07
  -7   0  -2    0.51    0.06
  -7   0  -2    0.37    0.08
   7   0   2    0.27    0.07
   7   0   2    0.35    0.07
   7   0   2    0.37    0.07
   7   0   2    0.36    0.07
  -8   0  -2    0.75    0.10
  -8   0  -2    0.93    0.13
   8   0   2    0.78    0.11
   8   0   2    0.86    0.10
   8   0   2    0.81    0.09
  -9   0  -2    0.56    0.13
  -9   0  -2    0.65    0.10
   9   0   2    0.60    0.11
   9   0   2    0.64    0.10
  11  -1  -2    0.70    0.12
  11  -1  -2    0.85    0.11
 -11   1   2    0.60    0.10
  10  -1  -2    0.44    0.09
  10  -1  -2    0.36    0.10
 -10   1   2    0.30    0.09
   9  -1  -2    2.63    0.18
   9  -1  -2    2.59    0.15
   9  -1  -2    2.45    0.17
  -9   1   2    2.39    0.17
  -9   1   2    2.15    0.17
   8  -1  -2   65.95    1.47
   8  -1  -2   65.52    1.94
   8  -1  -2   66.63    1.70
  -8   1   2   67.46    1.94
  -8   1   2   66.71    1.65
  -8   1   2   66.00    1.94
   7  -1  -2    2.00    0.14
   7  -1  -2    2.09    0.12
  -7   1   2    2.00    0.15
  -7   1   2    2.05    0.14
  -7   1   2    1.58    0.12
   6  -1  -2    5.05    0.14
   6  -1  -2    5.13    0.20
   6  -1  -2    4.59    0.20
   6  -1  -2    4.88    0.16
  -6   1   2    4.93    0.18
  -6   1   2    4.93    0.20
  -6   1   2    4.90    0.20
   5  -1  -2  196.33    4.86
   5  -1  -2  206.76    5.70
   5  -1  -2  196.37    5.43
   5  -1  -2  203.54    5.68
  -5   1   2  197.96    5.68
  -5   1   2  204.39    4.77
  -5   1   2  196.33    5.70
   4  -1  -2   22.21    0.55
   4  -1  -2   20.96    0.66
   4  -1  -2   21.76    0.61
   4  -1  -2   22.60    0.66
  -4   1   2   21.98    0.55
  -4   1   2   21.65    0.56
  -4   1   2   21.39    0.66
  -4   1   2   23.75    0.66
   3  -1  -2   55.27    1.35
   3  -1  -2   58.20    1.59
   3  -1  -2   50.32    1.59
   3  -1  -2   55.50    1.37
  -3   1   2   55.98    1.37
  -3   1   2   57.11    1.59
  -3   1   2   54.34    1.59
  -3   1   2   55.42    1.35
   2  -1  -2  361.02   10.02
   2  -1  -2  370.57   10.05
   2  -1  -2  345.38    8.56
   2  -1  -2  346.09    8.71
   2  -1  -2  352.52    9.11
  -2   1   2  346.00    8.57
  -2   1   2  328.71   10.00
  -2   1   2  378.43   10.05
  -2   1   2  338.78    8.72
   0  -1  -2   40.28    1.14
   0  -1  -2   39.97    0.98
   0  -1  -2   40.53    1.14
   0  -1  -2   39.70    0.98
   0  -1  -2   39.61    1.03
   0  -1  -2   39.90    1.00
   0   1   2   39.98    1.03
   0   1   2   34.73    1.14
   0   1   2   39.83    1.00
   0   1   2   39.50    1.04
   0   1   2   40.35    0.98
   0   1   2   39.60    0.98
   0   1   2   39.63    1.14
  -1  -1  -2  113.69    2.66
  -1  -1  -2  106.15    3.11
  -1  -1  -2  113.16    2.72
  -1  -1  -2  110.98    3.11
  -1  -1  -2  110.90    2.68
  -1  -1  -2  111.27    2.86
  -1  -1  -2  111.42    2.31
   1   1   2   97.77    3.11
   1   1   2  110.19    2.72
   1   1   2  107.08    3.11
   1   1   2  106.82    2.87
   1   1   2  113.96    2.84
   1   1   2  108.97    2.68
   1   1   2  110.69    2.66
  -2  -1  -2    5.55    0.20
  -2  -1  -2    5.75    0.18
  -2  -1  -2    5.76    0.20
  -2  -1  -2    5.64    0.15
  -2  -1  -2    5.62    0.17
  -2  -1  -2    5.72    0.17
  -2  -1  -2    5.77    0.21
   2   1   2    5.80    0.20
   2   1   2    5.81    0.19
   2   1   2    5.36    0.20
   2   1   2    5.65    0.18
   2   1   2    5.59    0.17
  -3  -1  -2    1.54    0.12
  -3  -1  -2    1.27    0.09
  -3  -1  -2    1.41    0.08
  -3  -1  -2    1.37    0.08
  -3  -1  -2    1.30    0.07
  -3  -1  -2    1.15    0.09
  -3  -1  -2    1.66    0.10
   3   1   2    1.40    0.07
   3   1   2    1.28    0.09
   3   1   2    1.29    0.09
   3   1   2    1.38    0.10
   3   1   2    1.22    0.09
   3   1   2    1.40    0.10
   3   1   2    1.44    0.08
  -4  -1  -2    0.25    0.05
  -4  -1  -2    0.31    0.05
  -4  -1  -2    0.26    0.07
  -4  -1  -2    0.30    0.05
  -4  -1  -2    0.30    0.04
  -4  -1  -2    0.29    0.05
  -4  -1  -2    0.33    0.05
   4   1   2    0.39    0.04
   4   1   2    0.33    0.05
   4   1   2    0.25    0.06
   4   1   2    0.38    0.05
   4   1   2    0.21    0.06
   4   1   2    0.30    0.06
   4   1   2    0.27    0.06
   4   1   2    0.42    0.06
  -5  -1  -2    5.68    0.26
  -5  -1  -2    5.70    0.20
  -5  -1  -2    5.95    0.23
  -5  -1  -2    5.97    0.23
   5   1   2    5.43    0.19
   5   1   2    5.91    0.21
   5   1   2    5.45    0.21
   5   1   2    5.90    0.22
   5   1   2    5.48    0.17
   5   1   2    5.84    0.22
   5   1   2    5.67    0.22
  -6  -1  -2   11.69    0.36
  -6  -1  -2   11.92    0.41
  -6  -1  -2   12.89    0.44
  -6  -1  -2   11.96    0.41
   6   1   2   12.40    0.37
   6   1   2   12.38    0.38
   6   1   2   12.62    0.34
   6   1   2   11.78    0.41
  -7  -1  -2    0.21    0.09
  -7  -1  -2    0.15    0.07
   7   1   2    0.09    0.07
   7   1   2    0.18    0.07
   7   1   2    0.15    0.07
  -8  -1  -2    2.44    0.16
  -8  -1  -2    2.48    0.22
   8   1   2    2.79    0.19
   8   1   2    2.59    0.17
  11  -2  -2    0.79    0.12
  11  -2  -2    0.63    0.10
 -11   2   2    0.58    0.11
  10  -2  -2    0.22    0.09
  10  -2  -2    0.31    0.08
 -10   2   2    0.14    0.08
   9  -2  -2    2.18    0.15
   9  -2  -2    2.24    0.17
   9  -2  -2    1.60    0.17
  -9   2   2    1.63    0.17
  -9   2   2    1.57    0.15
  -9   2   2    1.85    0.18
   8  -2  -2   30.56    0.71
   8  -2  -2   28.51    0.92
  -8   2   2   29.76    0.78
  -8   2   2   30.39    0.93
  -8   2   2   30.68    0.93
   7  -2  -2    0.69    0.08
   7  -2  -2    0.51    0.06
  -7   2   2    0.65    0.08
  -7   2   2    0.59    0.08
  -7   2   2    0.75    0.07
   6  -2  -2   16.27    0.50
   6  -2  -2   15.45    0.38
   6  -2  -2   15.01    0.40
   6  -2  -2   15.39    0.50
  -6   2   2   16.13    0.50
  -6   2   2   14.97    0.50
  -6   2   2   15.60    0.40
  -6   2   2   15.17    0.42
   5  -2  -2   37.85    1.09
   5  -2  -2   38.13    0.92
   5  -2  -2   34.33    1.09
  -5   2   2   37.73    0.91
  -5   2   2   36.04    1.09
  -5   2   2   38.31    0.92
  -5   2   2   35.79    1.09
   4  -2  -2    8.78    0.29
   4  -2  -2    8.80    0.29
   4  -2  -2    8.42    0.24
  -4   2   2    8.44    0.23
  -4   2   2    8.44    0.24
  -4   2   2    8.50    0.29
  -4   2   2    8.54    0.29
   3  -2  -2  110.35    2.67
   3  -2  -2  112.52    3.13
   3  -2  -2  110.15    2.72
   3  -2  -2  103.89    2.97
   3  -2  -2  110.06    3.13
  -3   2   2  110.30    2.67
  -3   2   2  109.99    2.73
  -3   2   2  116.40    3.14
  -3   2   2  105.79    3.13
   2  -2  -2  799.64   24.98
   2  -2  -2  878.78   21.36
   2  -2  -2  917.00   24.99
   2  -2  -2  905.16   21.76
  -2   2   2  844.47   24.97
  -2   2   2  878.52   21.76
  -2   2   2  941.08   25.00
  -2   2   2  885.37   21.37
   1  -2  -2    1.45    0.07
   1  -2  -2    1.50    0.08
   1  -2  -2    1.62    0.08
   1  -2  -2    1.63    0.08
   1  -2  -2    1.36    0.05
   1  -2  -2    1.60    0.08
   1  -2  -2    1.51    0.08
  -1   2   2    1.49    0.08
  -1   2   2    1.30    0.05
  -1   2   2    1.56    0.08
  -1   2   2    1.60    0.08
  -1   2   2    1.47    0.09
   0  -2  -2    6.25    0.20
   0  -2  -2    6.16    0.20
   0  -2  -2    6.58    0.22
   0  -2  -2    6.67    0.19
   0  -2  -2    6.70    0.20
   0  -2  -2    6.11    0.22
   0  -2  -2    6.26    0.18
   0  -2  -2    6.51    0.15
   0  -2  -2    5.70    0.21
   0   2   2    6.32    0.22
   0   2   2    6.39    0.21
   0   2   2    6.98    0.19
   0   2   2    6.54    0.18
   0   2   2    6.31    0.20
   0   2   2    6.31    0.20
  -1  -2  -2  133.96    3.19
  -1  -2  -2  134.96    3.18
  -1  -2  -2  128.25    3.71
  -1  -2  -2  133.96    3.25
  -1  -2  -2  133.78    3.56
  -1  -2  -2  131.87    2.75
  -1  -2  -2  131.59    3.41
  -1  -2  -2  128.03    3.71
   1   2   2  125.08    3.71
   1   2   2  130.58    3.38
   1   2   2  131.23    3.25
   1   2   2  129.04    3.43
   1   2   2  123.45    3.71
   1   2   2  132.19    3.19
   1   2   2  130.79    3.18
  -2  -2  -2   14.92    0.40
  -2  -2  -2   14.89    0.34
  -2  -2  -2   14.03    0.45
  -2  -2  -2   14.98    0.44
  -2  -2  -2   14.35    0.45
  -2  -2  -2   15.30    0.41
  -2  -2  -2   14.91    0.39
  -2  -2  -2   15.13    0.46
   2   2   2   14.83    0.44
   2   2   2   14.63    0.39
   2   2   2   15.18    0.46
   2   2   2   14.38    0.41
   2   2   2   14.52    0.40
   2   2   2   14.77    0.45
   2   2   2   14.51    0.43
  -3  -2  -2   16.75    0.47
  -3  -2  -2   16.88    0.44
  -3  -2  -2   16.94    0.52
  -3  -2  -2   16.68    0.53
  -3  -2  -2   16.33    0.40
  -3  -2  -2   17.01    0.52
  -3  -2  -2   16.71    0.45
   3   2   2   17.02    0.40
   3   2   2   17.12    0.52
   3   2   2   16.73    0.46
   3   2   2   17.05    0.47
   3   2   2   16.90    0.50
   3   2   2   16.83    0.52
   3   2   2   16.48    0.44
   3   2   2   16.79    0.50
  -4  -2  -2   22.07    0.69
  -4  -2  -2   21.87    0.61
  -4  -2  -2   22.47    0.68
  -4  -2  -2   21.80    0.57
  -4  -2  -2   21.90    0.59
  -4  -2  -2   21.98    0.67
   4   2   2   23.47    0.66
   4   2   2   22.56    0.60
   4   2   2   22.01    0.57
   4   2   2   22.30    0.67
   4   2   2   21.89    0.67
   4   2   2   21.92    0.61
   4   2   2   22.29    0.53
  -5  -2  -2   10.43    0.36
  -5  -2  -2   10.78    0.40
  -5  -2  -2   10.43    0.36
   5   2   2   10.88    0.34
   5   2   2   11.28    0.34
   5   2   2   10.55    0.36
   5   2   2   10.83    0.30
   5   2   2   10.91    0.30
  -6  -2  -2    9.68    0.35
  -6  -2  -2   10.59    0.41
   6   2   2   10.55    0.34
   6   2   2   10.10    0.30
   6   2   2   10.38    0.34
  -7  -2  -2    0.15    0.06
  -7  -2  -2    0.15    0.11
   7   2   2    0.08    0.07
   7   2   2    0.05    0.07
   7   2   2    0.00    0.07
  -8  -2  -2    0.38    0.13
  -8  -2  -2    0.35    0.07
   8   2   2    0.23    0.09
   8   2   2    0.40    0.09
 -12   3   2    0.01    0.09
  11  -3  -2    2.63    0.18
  11  -3  -2    2.85    0.21
 -11   3   2    2.37    0.21
  10  -3  -2    1.80    0.18
  10  -3  -2    1.45    0.16
  10  -3  -2    1.67    0.13
 -10   3   2    1.63    0.15
 -10   3   2    1.36    0.15
   9  -3  -2   20.66    0.60
   9  -3  -2   19.57    0.67
   9  -3  -2   20.39    0.51
  -9   3   2   20.41    0.67
  -9   3   2   20.46    0.68
  -9   3   2   20.09    0.56
   8  -3  -2    4.77    0.17
   8  -3  -2    4.57    0.22
  -8   3   2    4.30    0.21
  -8   3   2    4.52    0.22
  -8   3   2    4.39    0.14
  -8   3   2    4.56    0.18
   7  -3  -2    3.22    0.13
   7  -3  -2    3.60    0.19
   7  -3  -2    3.46    0.12
  -7   3   2    3.69    0.18
  -7   3   2    3.21    0.18
  -7   3   2    3.53    0.13
  -7   3   2    3.42    0.14
   6  -3  -2   10.64    0.30
   6  -3  -2   11.44    0.38
   6  -3  -2   10.77    0.28
   6  -3  -2   10.81    0.37
  -6   3   2   10.70    0.38
  -6   3   2   10.85    0.28
  -6   3   2   10.80    0.30
  -6   3   2   10.73    0.30
  -6   3   2   10.90    0.38
   5  -3  -2    0.53    0.07
   5  -3  -2    0.52    0.05
   5  -3  -2    0.48    0.07
  -5   3   2    0.51    0.05
  -5   3   2    0.51    0.05
  -5   3   2    0.53    0.07
  -5   3   2    0.49    0.07
   4  -3  -2    0.86    0.09
   4  -3  -2    0.71    0.07
  -4   3   2    0.75    0.09
  -4   3   2    1.06    0.07
  -4   3   2    0.72    0.08
  -4   3   2    0.78    0.07
   3  -3  -2  299.94    7.47
   3  -3  -2  310.10    8.86
   3  -3  -2  292.16    8.35
   3  -3  -2  316.36    8.82
  -3   3   2  326.55    8.84
  -3   3   2  305.05    7.66
  -3   3   2  300.93    7.55
  -3   3   2  319.89    8.83
   2  -3  -2   12.97    0.35
   2  -3  -2   11.99    0.40
   2  -3  -2   12.34    0.40
   2  -3  -2   13.16    0.35
   2  -3  -2   12.47    0.37
  -2   3   2   12.87    0.40
  -2   3   2   12.53    0.40
  -2   3   2   12.65    0.35
   1  -3  -2    0.08    0.04
   1  -3  -2    0.21    0.04
   1  -3  -2    0.04    0.03
   1  -3  -2    0.05    0.03
   1  -3  -2    0.08    0.04
   1  -3  -2    0.07    0.03
  -1   3   2    0.06    0.03
  -1   3   2    0.03    0.04
  -1   3   2    0.06    0.03
  -1   3   2    0.02    0.03
   0  -3  -2   51.03    1.25
   0  -3  -2   49.52    1.35
   0  -3  -2   49.34    1.46
   0  -3  -2   51.76    1.41
   0  -3  -2   50.96    1.35
   0  -3  -2   51.54    1.28
   0  -3  -2   45.88    1.45
   0  -3  -2   51.81    1.25
   0  -3  -2   50.38    1.07
   0   3   2   50.87    1.26
   0   3   2   48.92    1.45
   0   3   2   49.28    1.45
   0   3   2   49.71    1.35
   0   3   2   51.60    1.29
   0   3   2   51.54    1.31
  -1  -3  -2   43.20    1.11
  -1  -3  -2   43.36    1.08
  -1  -3  -2   42.19    1.16
  -1  -3  -2   43.50    1.07
  -1  -3  -2   42.70    0.93
  -1  -3  -2   42.86    1.25
  -1  -3  -2   43.84    1.22
  -1  -3  -2   43.29    1.25
   1   3   2   41.82    1.11
   1   3   2   43.46    1.07
   1   3   2   42.43    1.08
   1   3   2   43.56    1.25
   1   3   2   44.11    1.17
   1   3   2   40.68    1.25
  -2  -3  -2    0.41    0.06
  -2  -3  -2    0.44    0.04
  -2  -3  -2    0.46    0.05
  -2  -3  -2    0.39    0.05
  -2  -3  -2    0.35    0.07
  -2  -3  -2    0.39    0.06
  -2  -3  -2    0.42    0.05
   2   3   2    0.50    0.06
   2   3   2    0.33    0.06
   2   3   2    0.45    0.05
   2   3   2    0.40    0.06
   2   3   2    0.38    0.05
   2   3   2    0.43    0.05
  -3  -3  -2   13.64    0.44
  -3  -3  -2   13.86    0.38
  -3  -3  -2   13.56    0.38
  -3  -3  -2   14.20    0.48
  -3  -3  -2   13.72    0.44
   3   3   2   14.49    0.42
   3   3   2   13.57    0.44
   3   3   2   14.05    0.39
   3   3   2   13.98    0.39
   3   3   2   13.38    0.44
  -4  -3  -2   25.66    0.69
  -4  -3  -2   27.31    0.82
  -4  -3  -2   25.81    0.78
   4   3   2   25.64    0.78
   4   3   2   25.26    0.68
   4   3   2   24.95    0.69
   4   3   2   26.34    0.79
   4   3   2   26.45    0.72
   4   3   2   26.99    0.61
  -5  -3  -2    1.36    0.11
  -5  -3  -2    1.32    0.15
   5   3   2    1.50    0.12
   5   3   2    1.58    0.14
   5   3   2    1.48    0.10
   5   3   2    1.49    0.12
  -6  -3  -2    3.32    0.15
  -6  -3  -2    3.14    0.25
   6   3   2    3.48    0.19
   6   3   2    3.19    0.18
  -7  -3  -2    2.72    0.25
   7   3   2    2.62    0.18
  12  -4  -2    0.15    0.08
  12  -4  -2    0.03    0.09
 -12   4   2    0.12    0.10
  11  -4  -2    1.26    0.12
  11  -4  -2    1.31    0.14
  11  -4  -2    1.16    0.15
 -11   4   2    1.08    0.11
 -11   4   2    1.27    0.15
  10  -4  -2    9.77    0.31
  10  -4  -2   10.38    0.37
  10  -4  -2    9.76    0.41
 -10   4   2    9.96    0.41
 -10   4   2   10.15    0.32
   9  -4  -2    0.05    0.06
   9  -4  -2    0.17    0.09
  -9   4   2    0.16    0.09
  -9   4   2    0.08    0.06
  -9   4   2    0.18    0.08
  -9   4   2    0.14    0.04
   8  -4  -2   15.82    0.56
   8  -4  -2   16.43    0.41
  -8   4   2   16.64    0.56
  -8   4   2   16.61    0.45
  -8   4   2   16.32    0.56
  -8   4   2   16.77    0.44
   7  -4  -2    3.40    0.13
   7  -4  -2    3.66    0.14
   7  -4  -2    3.32    0.19
  -7   4   2    3.45    0.20
  -7   4   2    3.18    0.18
  -7   4   2    3.55    0.14
  -7   4   2    3.42    0.14
  -7   4   2    3.54    0.12
   6  -4  -2   15.35    0.36
   6  -4  -2   14.97    0.42
   6  -4  -2   15.66    0.51
   6  -4  -2   14.22    0.50
  -6   4   2   15.57    0.42
  -6   4   2   15.46    0.41
  -6   4   2   14.75    0.50
  -6   4   2   15.89    0.51
   5  -4  -2    1.49    0.12
   5  -4  -2    1.81    0.12
   5  -4  -2    1.73    0.10
  -5   4   2    1.57    0.09
  -5   4   2    1.75    0.10
  -5   4   2    1.82    0.13
  -5   4   2    1.89    0.13
   4  -4  -2  199.54    4.69
   4  -4  -2  189.69    5.49
   4  -4  -2  197.16    5.49
  -4   4   2  199.48    4.77
  -4   4   2  175.13    5.48
  -4   4   2  195.21    5.49
  -4   4   2  194.26    4.69
   3  -4  -2   50.93    1.58
   3  -4  -2   56.35    1.49
   3  -4  -2   54.75    1.59
   3  -4  -2   54.72    1.36
  -3   4   2   56.58    1.59
  -3   4   2   53.96    1.38
  -3   4   2   52.85    1.36
  -3   4   2   55.00    1.59
   2  -4  -2    0.09    0.04
   2  -4  -2    0.00    0.04
   2  -4  -2    0.15    0.05
   2  -4  -2    0.12    0.04
   2  -4  -2    0.11    0.04
  -2   4   2    0.17    0.04
  -2   4   2    0.12    0.05
  -2   4   2    0.14    0.05
  -2   4   2    0.10    0.05
   1  -4  -2   66.42    1.78
   1  -4  -2   69.36    1.92
   1  -4  -2   66.67    1.84
   1  -4  -2   62.77    1.92
   1  -4  -2   66.21    1.78
   1  -4  -2   66.16    1.64
   1  -4  -2   67.32    1.40
   1  -4  -2   67.93    1.65
  -1   4   2   64.54    1.69
  -1   4   2   66.67    1.92
  -1   4   2   65.66    1.65
  -1   4   2   68.45    1.92
   0  -4  -2    1.81    0.08
   0  -4  -2    1.61    0.11
   0  -4  -2    1.34    0.13
   0  -4  -2    1.75    0.06
   0  -4  -2    1.77    0.10
   0  -4  -2    1.76    0.11
   0  -4  -2    1.64    0.12
   0   4   2    1.82    0.11
   0   4   2    1.49    0.11
   0   4   2    1.74    0.08
   0   4   2    1.84    0.11
   0   4   2    1.31    0.12
   0   4   2    1.66    0.10
  -1  -4  -2    0.36    0.05
  -1  -4  -2    0.37    0.05
  -1  -4  -2    0.33    0.08
  -1  -4  -2    0.48    0.06
  -1  -4  -2    0.31    0.04
  -1  -4  -2    0.31    0.07
   1   4   2    0.33    0.06
   1   4   2    0.34    0.06
   1   4   2    0.23    0.07
   1   4   2    0.46    0.05
   1   4   2    0.38    0.07
  -2  -4  -2   20.30    0.63
  -2  -4  -2   19.97    0.52
  -2  -4  -2   19.66    0.60
  -2  -4  -2   19.51    0.54
  -2  -4  -2   19.34    0.61
   2   4   2   19.26    0.60
   2   4   2   20.34    0.61
   2   4   2   19.98    0.57
   2   4   2   20.13    0.54
   2   4   2   19.83    0.53
  -3  -4  -2   46.70    1.34
  -3  -4  -2   44.49    1.17
  -3  -4  -2   47.26    1.35
   3   4   2   46.67    1.17
   3   4   2   47.85    1.17
   3   4   2   48.10    1.22
   3   4   2   43.96    1.34
   3   4   2   44.38    1.34
  -4  -4  -2    3.07    0.23
  -4  -4  -2    2.88    0.14
   4   4   2    2.70    0.15
   4   4   2    2.94    0.15
   4   4   2    2.90    0.18
  -5  -4  -2    0.19    0.11
  -5  -4  -2    0.44    0.05
   5   4   2    0.33    0.09
   5   4   2    0.52    0.07
   5   4   2    0.30    0.07
  -6  -4  -2   -0.08    0.11
   6   4   2    0.10    0.09
  12  -5  -2    0.11    0.10
  12  -5  -2   -0.01    0.07
 -12   5   2   -0.10    0.10
  11  -5  -2    0.27    0.10
  11  -5  -2    0.27    0.08
  11  -5  -2    0.21    0.12
 -11   5   2    0.04    0.10
 -11   5   2    0.25    0.07
  10  -5  -2    0.44    0.10
  10  -5  -2    0.48    0.08
  10  -5  -2    0.64    0.12
 -10   5   2    0.42    0.11
 -10   5   2    0.57    0.08
 -10   5   2    0.66    0.06
   9  -5  -2   10.29    0.41
   9  -5  -2   10.05    0.30
  -9   5   2    9.90    0.30
  -9   5   2   10.70    0.41
  -9   5   2   10.40    0.31
   8  -5  -2    7.68    0.22
   8  -5  -2    7.50    0.32
  -8   5   2    7.80    0.33
  -8   5   2    7.37    0.22
  -8   5   2    7.14    0.23
  -8   5   2    7.22    0.24
   7  -5  -2   20.98    0.56
   7  -5  -2   20.47    0.68
   7  -5  -2   21.00    0.49
  -7   5   2   20.78    0.56
  -7   5   2   20.90    0.68
  -7   5   2   20.98    0.56
   6  -5  -2    8.84    0.34
   6  -5  -2    9.34    0.28
   6  -5  -2    8.85    0.23
   6  -5  -2    9.41    0.34
  -6   5   2    8.98    0.33
  -6   5   2    9.26    0.28
  -6   5   2    8.97    0.27
  -6   5   2    8.70    0.34
   5  -5  -2    6.19    0.27
   5  -5  -2    6.78    0.20
   5  -5  -2    6.83    0.22
   5  -5  -2    6.79    0.17
   5  -5  -2    6.70    0.27
  -5   5   2    6.53    0.22
  -5   5   2    6.62    0.22
  -5   5   2    6.14    0.26
  -5   5   2    6.39    0.27
   4  -5  -2   16.78    0.47
   4  -5  -2   15.92    0.54
   4  -5  -2   17.48    0.54
   4  -5  -2   16.63    0.37
  -4   5   2   15.98    0.46
  -4   5   2   16.34    0.54
  -4   5   2   17.02    0.54
  -4   5   2   16.86    0.47
   3  -5  -2    0.60    0.07
   3  -5  -2    0.52    0.06
   3  -5  -2    0.54    0.07
   3  -5  -2    0.53    0.07
   3  -5  -2    0.61    0.08
  -3   5   2    0.52    0.07
  -3   5   2    0.58    0.08
  -3   5   2    0.60    0.07
  -3   5   2    0.55    0.07
   2  -5  -2    2.13    0.13
   2  -5  -2    2.03    0.13
   2  -5  -2    1.98    0.12
   2  -5  -2    1.97    0.13
   2  -5  -2    2.02    0.12
  -2   5   2    2.00    0.13
  -2   5   2    1.90    0.13
  -2   5   2    2.12    0.13
  -2   5   2    2.08    0.12
   1  -5  -2    0.09    0.03
   1  -5  -2    0.10    0.06
   1  -5  -2    0.10    0.06
   1  -5  -2    0.04    0.05
   1  -5  -2    0.13    0.06
   1  -5  -2    0.16    0.06
   1  -5  -2    0.20    0.05
  -1   5   2    0.02    0.05
  -1   5   2    0.11    0.06
  -1   5   2    0.08    0.06
  -1   5   2    0.06    0.05
   0  -5  -2    6.64    0.20
   0  -5  -2    6.79    0.25
   0  -5  -2    6.54    0.28
   0  -5  -2    7.34    0.26
   0  -5  -2    6.90    0.27
   0   5   2    6.93    0.25
   0   5   2    6.99    0.25
   0   5   2    6.98    0.26
   0   5   2    6.58    0.21
   0   5   2    6.74    0.24
   0   5   2    6.90    0.26
  -1  -5  -2   12.36    0.34
  -1  -5  -2   12.94    0.42
  -1  -5  -2   12.88    0.45
  -1  -5  -2   12.50    0.41
  -1  -5  -2   12.43    0.41
   1   5   2   12.53    0.38
   1   5   2   12.55    0.41
   1   5   2   12.57    0.41
   1   5   2   12.70    0.37
   1   5   2   12.85    0.41
  -2  -5  -2   35.88    0.95
  -2  -5  -2   38.92    1.13
  -2  -5  -2   37.68    1.11
   2   5   2   37.92    1.02
   2   5   2   38.89    0.98
   2   5   2   36.48    1.10
  -3  -5  -2    1.47    0.17
  -3  -5  -2    1.86    0.12
   3   5   2    2.35    0.18
   3   5   2    2.08    0.15
  -4  -5  -2    0.22    0.11
   4   5   2    0.40    0.08
   4   5   2    0.29    0.09
  -5  -5  -2    3.63    0.29
   5   5   2    3.92    0.23
  12  -6  -2    0.23    0.08
  12  -6  -2    0.08    0.12
  12  -6  -2    0.20    0.11
 -12   6   2    0.04    0.11
  11  -6  -2    0.04    0.09
  11  -6  -2    0.02    0.07
  11  -6  -2   -0.09    0.10
 -11   6   2    0.07    0.11
  10  -6  -2    0.38    0.08
  10  -6  -2    0.31    0.11
  10  -6  -2    0.32    0.09
 -10   6   2    0.47    0.07
 -10   6   2    0.28    0.11
 -10   6   2    0.51    0.07
   9  -6  -2    8.37    0.25
   9  -6  -2    8.20    0.36
  -9   6   2    8.30    0.36
  -9   6   2    8.07    0.27
  -9   6   2    7.46    0.25
  -9   6   2    7.58    0.24
   8  -6  -2    5.26    0.18
   8  -6  -2    5.32    0.20
   8  -6  -2    5.05    0.27
  -8   6   2    5.02    0.21
  -8   6   2    5.15    0.18
  -8   6   2    5.29    0.28
  -8   6   2    5.36    0.19
   7  -6  -2    8.61    0.27
   7  -6  -2    8.46    0.23
   7  -6  -2    7.95    0.35
  -7   6   2    8.92    0.29
  -7   6   2    8.38    0.35
  -7   6   2    8.42    0.27
   6  -6  -2   15.81    0.43
   6  -6  -2   15.78    0.36
   6  -6  -2   14.52    0.52
   6  -6  -2   14.67    0.53
  -6   6   2   16.23    0.45
  -6   6   2   15.36    0.44
  -6   6   2   14.30    0.53
   5  -6  -2    9.49    0.35
   5  -6  -2    9.38    0.22
   5  -6  -2    9.29    0.36
  -5   6   2    9.08    0.30
  -5   6   2    9.27    0.36
  -5   6   2    9.42    0.31
   4  -6  -2    2.39    0.16
   4  -6  -2    2.55    0.15
  -4   6   2    2.35    0.15
  -4   6   2    2.25    0.14
  -4   6   2    2.29    0.16
   3  -6  -2    4.72    0.21
   3  -6  -2    4.53    0.20
   3  -6  -2    5.03    0.20
   3  -6  -2    4.70    0.21
  -3   6   2    4.60    0.20
  -3   6   2    4.24    0.21
  -3   6   2    4.46    0.19
   2  -6  -2   18.48    0.57
   2  -6  -2   17.79    0.54
   2  -6  -2   17.90    0.58
   2  -6  -2   17.66    0.55
   2  -6  -2   17.62    0.47
   2  -6  -2   17.75    0.56
  -2   6   2   17.64    0.52
  -2   6   2   17.65    0.58
  -2   6   2   18.14    0.51
   1  -6  -2   18.63    0.50
   1  -6  -2   19.35    0.60
   1  -6  -2   18.68    0.61
   1  -6  -2   18.83    0.60
   1  -6  -2   19.23    0.58
   1  -6  -2   19.48    0.59
  -1   6   2   19.03    0.61
  -1   6   2   19.36    0.56
  -1   6   2   19.40    0.55
   0  -6  -2    0.21    0.09
   0  -6  -2    0.52    0.10
   0  -6  -2    0.17    0.07
   0  -6  -2    0.32    0.04
   0  -6  -2    0.11    0.06
   0   6   2    0.18    0.04
   0   6   2    0.26    0.08
   0   6   2    0.02    0.07
   0   6   2    0.34    0.09
   0   6   2    0.27    0.04
  -1  -6  -2    8.12    0.35
  -1  -6  -2    7.70    0.29
  -1  -6  -2    8.53    0.34
  -1  -6  -2    7.73    0.23
   1   6   2    8.70    0.30
   1   6   2    8.85    0.32
   1   6   2    7.58    0.29
   1   6   2    7.53    0.26
  -2  -6  -2    1.32    0.16
  -2  -6  -2    1.34    0.11
   2   6   2    1.37    0.12
   2   6   2    1.34    0.14
  -3  -6  -2    0.16    0.11
   3   6   2    0.21    0.10
   3   6   2    0.17    0.08
  -4  -6  -2    0.62    0.15
   4   6   2    0.88    0.13
  12  -7  -2    0.04    0.10
  12  -7  -2    0.07    0.07
  12  -7  -2   -0.10    0.11
 -12   7   2    0.03    0.12
  11  -7  -2    0.03    0.06
  11  -7  -2    0.01    0.11
  11  -7  -2    0.02    0.09
 -11   7   2    0.02    0.11
 -11   7   2    0.12    0.07
  10  -7  -2    0.39    0.12
  10  -7  -2    0.34    0.07
 -10   7   2    0.47    0.12
 -10   7   2    0.47    0.08
   9  -7  -2   -0.05    0.09
   9  -7  -2    0.02    0.05
  -9   7   2    0.00    0.05
  -9   7   2   -0.02    0.09
  -9   7   2   -0.03    0.06
  -9   7   2    0.01    0.05
   8  -7  -2    6.56    0.20
   8  -7  -2    6.51    0.30
   8  -7  -2    6.34    0.22
  -8   7   2    6.47    0.25
  -8   7   2    6.47    0.23
  -8   7   2    6.31    0.31
   7  -7  -2   -0.08    0.09
   7  -7  -2    0.05    0.04
   7  -7  -2    0.06    0.04
  -7   7   2   -0.13    0.09
  -7   7   2    0.01    0.06
  -7   7   2    0.03    0.07
   6  -7  -2    1.80    0.18
   6  -7  -2    2.39    0.09
  -6   7   2    2.30    0.15
  -6   7   2    1.65    0.19
  -6   7   2    2.42    0.16
   5  -7  -2    0.23    0.08
   5  -7  -2    0.22    0.08
  -5   7   2    0.17    0.07
  -5   7   2    0.29    0.08
  -5   7   2    0.27    0.09
   4  -7  -2    5.72    0.25
   4  -7  -2    5.93    0.25
   4  -7  -2    5.76    0.26
  -4   7   2    5.64    0.23
  -4   7   2    5.70    0.26
  -4   7   2    5.52    0.24
   3  -7  -2    9.80    0.34
   3  -7  -2    9.34    0.35
   3  -7  -2    9.39    0.28
   3  -7  -2    9.20    0.35
   3  -7  -2    9.79    0.36
   3  -7  -2    9.54    0.34
  -3   7   2    9.37    0.33
  -3   7   2    9.55    0.33
  -3   7   2    9.48    0.36
   2  -7  -2    8.38    0.32
   2  -7  -2    8.67    0.34
   2  -7  -2    8.28    0.25
   2  -7  -2    8.72    0.32
   2  -7  -2    8.72    0.33
   2  -7  -2    8.64    0.32
  -2   7   2    8.91    0.33
  -2   7   2    8.93    0.32
  -2   7   2    7.99    0.30
   1  -7  -2    0.43    0.05
   1  -7  -2    0.35    0.10
   1  -7  -2    0.28    0.09
   1  -7  -2    0.41    0.08
   1  -7  -2    0.44    0.10
   1  -7  -2    0.33    0.07
  -1   7   2    0.34    0.08
  -1   7   2    0.36    0.09
  -1   7   2    0.54    0.10
   0  -7  -2    0.54    0.09
   0  -7  -2    0.76    0.12
   0  -7  -2    0.67    0.13
   0   7   2    0.70    0.12
   0   7   2    0.66    0.06
   0   7   2    0.70    0.10
  -1  -7  -2    0.03    0.11
  -1  -7  -2   -0.06    0.11
  -1  -7  -2    0.19    0.07
   1   7   2    0.27    0.09
   1   7   2    0.19    0.10
  -2  -7  -2   -0.03    0.10
   2   7   2    0.06    0.08
   2   7   2    0.03    0.10
  -3  -7  -2    0.83    0.16
   3   7   2    0.85    0.12
   3   7   2    1.14    0.15
  12  -8  -2    0.14    0.07
  12  -8  -2    0.03    0.11
 -12   8   2    0.22    0.14
  11  -8  -2    1.07    0.14
  11  -8  -2    1.09    0.16
  11  -8  -2    1.21    0.11
 -11   8   2    0.84    0.15
 -11   8   2    1.19    0.12
  10  -8  -2    0.39    0.07
  10  -8  -2    0.47    0.12
 -10   8   2    0.44    0.09
 -10   8   2    0.30    0.07
 -10   8   2    0.46    0.13
   9  -8  -2    3.32    0.25
   9  -8  -2    3.37    0.14
  -9   8   2    3.55    0.18
  -9   8   2    3.32    0.20
  -9   8   2    3.68    0.26
   8  -8  -2    0.21    0.05
   8  -8  -2    0.10    0.10
  -8   8   2    0.10    0.08
  -8   8   2    0.18    0.07
  -8   8   2    0.05    0.10
   7  -8  -2    1.14    0.07
   7  -8  -2    1.00    0.14
  -7   8   2    0.95    0.11
  -7   8   2    1.12    0.12
  -7   8   2    1.01    0.14
   6  -8  -2    3.33    0.22
  -6   8   2    3.61    0.19
  -6   8   2    3.58    0.20
  -6   8   2    3.26    0.22
   5  -8  -2    3.50    0.22
   5  -8  -2    3.66    0.21
   5  -8  -2    3.36    0.20
  -5   8   2    3.53    0.22
  -5   8   2    3.74    0.20
  -5   8   2    3.71    0.20
   4  -8  -2    1.45    0.15
   4  -8  -2    1.40    0.16
   4  -8  -2    1.32    0.13
   4  -8  -2    1.39    0.14
  -4   8   2    1.66    0.16
  -4   8   2    1.34    0.13
  -4   8   2    1.26    0.13
   3  -8  -2    6.42    0.29
   3  -8  -2    6.29    0.29
   3  -8  -2    6.58    0.30
   3  -8  -2    6.40    0.22
   3  -8  -2    6.62    0.28
  -3   8   2    6.84    0.29
  -3   8   2    6.28    0.29
  -3   8   2    6.62    0.28
   2  -8  -2    5.56    0.28
   2  -8  -2    5.74    0.26
   2  -8  -2    6.09    0.28
   2  -8  -2    5.79    0.27
  -2   8   2    5.88    0.26
  -2   8   2    5.56    0.27
  -2   8   2    5.88    0.26
   1  -8  -2    0.84    0.13
   1  -8  -2    0.49    0.10
   1  -8  -2    0.67    0.13
  -1   8   2    0.76    0.13
  -1   8   2    0.74    0.12
   0  -8  -2    1.80    0.18
   0  -8  -2    1.56    0.19
   0  -8  -2    1.64    0.14
   0   8   2    1.97    0.19
   0   8   2    1.47    0.16
  -1  -8  -2    2.42    0.25
  -1  -8  -2    2.10    0.13
   1   8   2    2.27    0.20
   1   8   2    2.46    0.22
  -2  -8  -2    0.49    0.14
   2   8   2    0.13    0.10
   2   8   2    0.08    0.11
  11  -9  -2   -0.06    0.08
  11  -9  -2   -0.14    0.10
  11  -9  -2   -0.04    0.06
 -11   9   2   -0.03    0.11
 -11   9   2   -0.02    0.08
  10  -9  -2    1.12    0.14
  10  -9  -2    1.20    0.18
  10  -9  -2    1.49    0.12
 -10   9   2    1.14    0.17
 -10   9   2    1.13    0.11
 -10   9   2    1.08    0.13
   9  -9  -2    2.12    0.24
  -9   9   2    1.89    0.16
  -9   9   2    1.78    0.19
  -9   9   2    1.89    0.18
   8  -9  -2    0.15    0.11
  -8   9   2    0.02    0.11
  -8   9   2    0.18    0.08
  -8   9   2    0.30    0.10
   7  -9  -2    2.04    0.21
  -7   9   2    2.01    0.18
  -7   9   2    2.24    0.19
  -7   9   2    1.99    0.21
   6  -9  -2    0.34    0.10
   6  -9  -2    0.27    0.09
  -6   9   2    0.29    0.10
  -6   9   2    0.16    0.10
  -6   9   2    0.35    0.09
   5  -9  -2    0.24    0.09
   5  -9  -2    0.39    0.10
   5  -9  -2    0.25    0.10
  -5   9   2    0.50    0.10
  -5   9   2    0.38    0.10
  -5   9   2    0.26    0.10
   4  -9  -2    9.04    0.36
   4  -9  -2    9.15    0.37
   4  -9  -2    8.89    0.37
  -4   9   2    9.09    0.36
  -4   9   2    8.91    0.37
  -4   9   2    9.03    0.35
   3  -9  -2    0.06    0.09
   3  -9  -2    0.02    0.10
   3  -9  -2    0.04    0.08
  -3   9   2    0.14    0.10
  -3   9   2    0.10    0.09
   2  -9  -2    0.11    0.11
   2  -9  -2    0.13    0.09
   2  -9  -2    0.24    0.09
  -2   9   2    0.22    0.10
  -2   9   2    0.20    0.11
   1  -9  -2    0.63    0.09
   1  -9  -2    0.64    0.14
  -1   9   2    0.51    0.12
  -1   9   2    0.56    0.13
   0  -9  -2    0.14    0.12
   0  -9  -2    0.00    0.06
   0   9   2    0.09    0.11
   0   9   2   -0.04    0.09
  10 -10  -2    0.12    0.12
  10 -10  -2   -0.01    0.08
 -10  10   2    0.00    0.09
 -10  10   2    0.01    0.08
 -10  10   2    0.03    0.12
   9 -10  -2    1.15    0.16
  -9  10   2    1.09    0.13
  -9  10   2    1.12    0.14
  -9  10   2    1.19    0.17
   8 -10  -2   -0.07    0.10
  -8  10   2   -0.02    0.09
  -8  10   2   -0.08    0.10
  -8  10   2    0.01    0.08
   7 -10  -2    0.32    0.10
   7 -10  -2    0.24    0.11
  -7  10   2    0.32    0.11
  -7  10   2    0.33    0.10
  -7  10   2    0.34    0.12
   6 -10  -2    0.34    0.10
   6 -10  -2    0.25    0.11
   6 -10  -2    0.28    0.11
  -6  10   2    0.29    0.11
  -6  10   2    0.34    0.11
  -6  10   2    0.27    0.10
   5 -10  -2    0.02    0.09
   5 -10  -2    0.14    0.09
   5 -10  -2    0.16    0.11
  -5  10   2   -0.08    0.10
  -5  10   2    0.04    0.10
   4 -10  -2    1.10    0.14
   4 -10  -2    0.99    0.14
   4 -10  -2    1.00    0.15
  -4  10   2    0.89    0.15
  -4  10   2    0.91    0.14
   3 -10  -2    0.59    0.12
   3 -10  -2    0.74    0.11
   3 -10  -2    0.66    0.14
  -3  10   2    0.60    0.13
  -3  10   2    0.68    0.14
   2 -10  -2    0.31    0.12
   2 -10  -2    0.21    0.09
  -2  10   2    0.14    0.12
  -2  10   2    0.35    0.12
   8 -11  -2    2.31    0.24
   8 -11  -2    2.46    0.27
  -8  11   2    2.50    0.23
  -8  11   2    2.74    0.23
   7 -11  -2    0.67    0.14
   7 -11  -2    0.96    0.15
   7 -11  -2    0.76    0.14
  -7  11   2    0.83    0.14
  -7  11   2    0.72    0.14
   6 -11  -2    0.15    0.10
   6 -11  -2    0.25    0.12
   6 -11  -2    0.19    0.11
  -6  11   2    0.07    0.11
  -6  11   2    0.10    0.11
   5 -11  -2   -0.04    0.11
   5 -11  -2   -0.01    0.10
   5 -11  -2    0.07    0.10
  -5  11   2   -0.05    0.11
  -5  11   2    0.00    0.11
  -2  12  -3   -0.22    0.10
  -2  12  -3    0.04    0.12
   2 -12   3    0.01    0.10
  -3  12  -3   -0.08    0.11
  -3  12  -3   -0.04    0.11
   3 -12   3    0.09    0.07
   3 -12   3    0.00    0.11
   3 -12   3   -0.13    0.10
  -4  12  -3    1.02    0.15
  -4  12  -3    0.92    0.15
   4 -12   3    1.00    0.15
   4 -12   3    0.91    0.14
   4 -12   3    0.90    0.12
  -5  12  -3    2.66    0.24
   5 -12   3    2.60    0.23
   5 -12   3    2.88    0.23
   5 -12   3    2.15    0.21
  -6  12  -3    0.14    0.11
   6 -12   3    0.10    0.09
   6 -12   3    0.21    0.11
   6 -12   3    0.10    0.10
  -7  12  -3   -0.28    0.09
   7 -12   3    0.04    0.10
   7 -12   3   -0.05    0.10
   7 -12   3    0.07    0.09
  -8  12  -3    0.04    0.10
  -8  12  -3    0.09    0.11
   8 -12   3    0.06    0.11
   8 -12   3    0.01    0.08
  -9  12  -3   -0.08    0.09
  -9  12  -3    0.01    0.11
   9 -12   3    0.03    0.11
   9 -12   3   -0.01    0.08
   9 -12   3   -0.02    0.07
   0  11  -3    0.75    0.15
   0  11  -3    0.60    0.12
  -1  11  -3    0.82    0.13
  -1  11  -3    1.09    0.15
  -2  11  -3    1.22    0.16
  -2  11  -3    1.31    0.15
   2 -11   3    1.38    0.13
   2 -11   3    1.56    0.17
   2 -11   3    1.21    0.16
  -3  11  -3    5.65    0.29
   3 -11   3    5.54    0.29
   3 -11   3    5.51    0.25
   3 -11   3    5.37    0.30
  -4  11  -3    9.19    0.38
   4 -11   3    9.48    0.38
   4 -11   3    9.88    0.40
   4 -11   3   10.09    0.39
  -5  11  -3    3.69    0.19
  -5  11  -3    4.02    0.24
  -5  11  -3    4.03    0.25
   5 -11   3    4.08    0.26
   5 -11   3    4.13    0.23
   5 -11   3    3.84    0.23
  -6  11  -3    0.68    0.12
  -6  11  -3    0.77    0.12
   6 -11   3    0.68    0.08
   6 -11   3    0.57    0.11
   6 -11   3    0.79    0.12
   6 -11   3    0.51    0.12
  -7  11  -3    0.78    0.14
  -7  11  -3    0.76    0.12
   7 -11   3    0.71    0.13
   7 -11   3    0.77    0.11
   7 -11   3    0.74    0.09
  -8  11  -3    0.15    0.09
  -8  11  -3    0.19    0.12
   8 -11   3    0.21    0.08
   8 -11   3    0.20    0.09
   8 -11   3    0.15    0.11
  -9  11  -3    0.63    0.14
  -9  11  -3    0.60    0.11
   9 -11   3    0.64    0.11
   9 -11   3    0.72    0.14
 -10  11  -3    3.70    0.30
 -10  11  -3    3.17    0.22
  10 -11   3    3.10    0.29
  10 -11   3    3.44    0.23
   2  10  -3    2.57    0.21
   2  10  -3    3.21    0.24
   1  10  -3    0.17    0.10
   1  10  -3   -0.02    0.09
   0  10  -3    0.24    0.07
   0  10  -3    0.27    0.11
   0  10  -3    0.19    0.09
  -1  10  -3    2.40    0.20
  -1  10  -3    2.48    0.21
  -1  10  -3    2.64    0.15
   1 -10   3    2.53    0.14
   1 -10   3    2.73    0.22
  -2  10  -3    0.95    0.09
  -2  10  -3    0.80    0.12
   2 -10   3    0.86    0.09
   2 -10   3    0.87    0.13
   2 -10   3    0.97    0.13
  -3  10  -3    0.11    0.10
  -3  10  -3    0.22    0.09
   3 -10   3    0.20    0.09
  -4  10  -3    0.06    0.08
  -4  10  -3   -0.04    0.09
  -4  10  -3   -0.08    0.05
   4 -10   3    0.01    0.08
   4 -10   3    0.02    0.08
   4 -10   3    0.06    0.07
   4 -10   3    0.02    0.04
  -5  10  -3   -0.03    0.07
  -5  10  -3    0.00    0.08
  -5  10  -3   -0.10    0.05
   5 -10   3   -0.05    0.04
   5 -10   3    0.02    0.07
   5 -10   3   -0.03    0.07
   5 -10   3    0.01    0.04
   5 -10   3    0.05    0.07
   5 -10   3   -0.11    0.08
  -6  10  -3    0.07    0.08
  -6  10  -3   -0.06    0.08
   6 -10   3    0.05    0.05
   6 -10   3    0.04    0.08
   6 -10   3    0.01    0.05
   6 -10   3    0.01    0.07
  -7  10  -3    3.17    0.23
  -7  10  -3    3.44    0.21
   7 -10   3    3.22    0.17
   7 -10   3    3.34    0.23
  -8  10  -3    0.08    0.08
  -8  10  -3    0.03    0.10
   8 -10   3    0.09    0.10
   8 -10   3    0.10    0.07
  -9  10  -3    1.86    0.18
  -9  10  -3    1.10    0.17
   9 -10   3    1.35    0.14
   9 -10   3    1.28    0.17
 -10  10  -3    1.16    0.18
 -10  10  -3    1.24    0.13
  10 -10   3    1.15    0.14
  10 -10   3    1.00    0.17
 -11  10  -3    0.25    0.13
  11 -10   3    0.40    0.13
  11 -10   3    0.20    0.11
   3   9  -3    2.52    0.21
   3   9  -3    2.30    0.19
   3   9  -3    2.40    0.19
   2   9  -3    4.54    0.23
   2   9  -3    4.69    0.25
   2   9  -3    4.41    0.24
   1   9  -3    0.83    0.11
   1   9  -3    0.81    0.10
   1   9  -3    0.90    0.12
   0   9  -3   24.68    0.55
   0   9  -3   25.09    0.73
   0   9  -3   23.97    0.70
   0   9  -3   25.13    0.71
  -1   9  -3    0.50    0.08
  -1   9  -3    0.53    0.10
  -1   9  -3    0.38    0.08
   1  -9   3    0.46    0.11
   1  -9   3    0.47    0.07
   1  -9   3    0.41    0.06
   1  -9   3    0.32    0.10
  -2   9  -3   41.54    1.21
  -2   9  -3   39.86    1.08
  -2   9  -3   40.55    1.10
   2  -9   3   40.55    1.20
   2  -9   3   39.17    1.20
   2  -9   3   41.08    1.15
   2  -9   3   41.37    1.17
  -3   9  -3   -0.08    0.05
  -3   9  -3    0.15    0.07
  -3   9  -3    0.04    0.08
  -3   9  -3    0.03    0.05
   3  -9   3    0.01    0.08
   3  -9   3    0.06    0.05
   3  -9   3    0.08    0.07
   3  -9   3    0.05    0.08
   3  -9   3    0.16    0.06
   3  -9   3   -0.09    0.03
  -4   9  -3    8.46    0.30
  -4   9  -3    7.83    0.20
  -4   9  -3    8.05    0.24
  -4   9  -3    8.09    0.32
  -4   9  -3    8.11    0.27
   4  -9   3    8.26    0.24
   4  -9   3    8.03    0.33
   4  -9   3    8.02    0.27
   4  -9   3    7.95    0.32
   4  -9   3    8.41    0.31
   4  -9   3    8.66    0.32
  -5   9  -3    1.21    0.11
  -5   9  -3    1.46    0.15
  -5   9  -3    1.22    0.07
  -5   9  -3    1.48    0.14
   5  -9   3    1.30    0.14
   5  -9   3    1.40    0.15
   5  -9   3    1.32    0.14
   5  -9   3    1.39    0.10
   5  -9   3    1.32    0.11
  -6   9  -3    1.67    0.15
  -6   9  -3    1.65    0.17
  -6   9  -3    1.66    0.09
   6  -9   3    1.68    0.17
   6  -9   3    1.85    0.17
   6  -9   3    1.60    0.12
   6  -9   3    1.61    0.12
  -7   9  -3    1.66    0.16
  -7   9  -3    1.71    0.10
  -7   9  -3    1.80    0.16
   7  -9   3    1.77    0.14
   7  -9   3    1.54    0.16
  -8   9  -3    0.21    0.12
  -8   9  -3   -0.08    0.09
   8  -9   3    0.18    0.09
   8  -9   3    0.11    0.11
  -9   9  -3    0.87    0.15
  -9   9  -3    0.91    0.11
   9  -9   3    1.01    0.15
   9  -9   3    1.01    0.13
 -10   9  -3    3.40    0.27
 -10   9  -3    2.38    0.18
  10  -9   3    3.43    0.23
  10  -9   3    3.08    0.26
 -11   9  -3    0.05    0.12
  11  -9   3    0.02    0.11
  11  -9   3    0.06    0.10
   4   8  -3    0.32    0.09
   4   8  -3    0.24    0.10
   4   8  -3    0.26    0.09
   3   8  -3    2.23    0.19
   3   8  -3    2.44    0.18
   3   8  -3    2.29    0.12
   3   8  -3    1.99    0.17
   2   8  -3    1.46    0.14
   2   8  -3    1.57    0.14
   2   8  -3    1.61    0.09
   2   8  -3    1.63    0.14
   1   8  -3    0.82    0.09
   1   8  -3    0.87    0.07
   1   8  -3    0.81    0.10
   1   8  -3    0.74    0.11
   0   8  -3    0.12    0.04
   0   8  -3    0.11    0.06
   0   8  -3    0.25    0.08
   0  -8   3    0.13    0.04
   0  -8   3    0.17    0.04
   0  -8   3    0.07    0.08
  -1   8  -3    0.38    0.08
  -1   8  -3    0.40    0.07
  -1   8  -3    0.78    0.09
  -1   8  -3    0.36    0.06
  -1   8  -3    0.48    0.07
   1  -8   3    0.44    0.09
   1  -8   3    0.36    0.09
   1  -8   3    0.42    0.06
   1  -8   3    0.53    0.06
  -2   8  -3    0.15    0.05
  -2   8  -3    0.17    0.07
  -2   8  -3    0.10    0.06
  -2   8  -3    0.13    0.05
   2  -8   3    0.14    0.06
   2  -8   3    0.12    0.07
   2  -8   3    0.23    0.08
   2  -8   3    0.15    0.05
   2  -8   3    0.12    0.05
  -3   8  -3    0.04    0.06
  -3   8  -3    0.07    0.03
  -3   8  -3    0.09    0.04
  -3   8  -3    0.15    0.05
  -3   8  -3    0.11    0.06
   3  -8   3    0.06    0.06
   3  -8   3    0.05    0.06
   3  -8   3    0.01    0.06
   3  -8   3    0.09    0.07
   3  -8   3    0.08    0.04
   3  -8   3    0.04    0.04
  -4   8  -3    4.44    0.20
  -4   8  -3    4.20    0.12
  -4   8  -3    4.33    0.14
  -4   8  -3    4.42    0.17
  -4   8  -3    4.41    0.21
   4  -8   3    4.28    0.19
   4  -8   3    4.42    0.21
   4  -8   3    4.15    0.16
   4  -8   3    3.90    0.21
   4  -8   3    4.21    0.17
   4  -8   3    4.53    0.21
  -5   8  -3    2.73    0.18
  -5   8  -3    2.86    0.16
  -5   8  -3    2.54    0.10
  -5   8  -3    2.52    0.14
   5  -8   3    2.65    0.18
   5  -8   3    2.68    0.16
   5  -8   3    2.66    0.13
   5  -8   3    2.50    0.13
   5  -8   3    2.06    0.15
  -6   8  -3    9.65    0.25
  -6   8  -3   10.15    0.32
  -6   8  -3    9.33    0.38
   6  -8   3   10.17    0.32
   6  -8   3    9.83    0.31
   6  -8   3    9.48    0.38
   6  -8   3    9.19    0.37
  -7   8  -3    0.70    0.09
  -7   8  -3    0.79    0.12
   7  -8   3    0.79    0.12
   7  -8   3    0.72    0.09
  -8   8  -3   37.31    0.98
  -8   8  -3   38.29    1.18
   8  -8   3   35.13    1.17
   8  -8   3   37.70    1.00
  -9   8  -3    6.73    0.34
  -9   8  -3    6.17    0.24
   9  -8   3    6.51    0.28
   9  -8   3    6.74    0.34
 -10   8  -3    2.78    0.16
 -10   8  -3    2.76    0.24
  10  -8   3    3.05    0.25
  10  -8   3    2.87    0.21
 -11   8  -3    0.24    0.13
  11  -8   3    0.04    0.10
  11  -8   3    0.25    0.12
   5   7  -3    0.78    0.11
   5   7  -3    0.97    0.13
   5   7  -3    0.84    0.09
   4   7  -3    0.92    0.08
   4   7  -3    0.67    0.11
   4   7  -3    0.70    0.10
   4   7  -3    0.78    0.11
   3   7  -3   -0.03    0.06
   3   7  -3    0.06    0.07
   3   7  -3   -0.07    0.06
   3   7  -3   -0.01    0.04
   2   7  -3    7.28    0.20
   2   7  -3    7.11    0.28
   2   7  -3    7.12    0.27
   2   7  -3    7.45    0.26
   1   7  -3    0.54    0.07
   1   7  -3    0.64    0.08
   0   7  -3    0.11    0.05
   0   7  -3   -0.05    0.04
   0   7  -3   -0.06    0.05
   0   7  -3    0.00    0.05
   0  -7   3   -0.05    0.06
   0  -7   3   -0.09    0.03
  -1   7  -3    0.64    0.07
  -1   7  -3    0.60    0.06
  -1   7  -3    0.65    0.06
  -1   7  -3    0.71    0.07
   1  -7   3    0.60    0.06
   1  -7   3    0.70    0.08
   1  -7   3    0.62    0.06
   1  -7   3    0.58    0.08
  -2   7  -3    7.19    0.24
  -2   7  -3    6.75    0.26
  -2   7  -3    6.86    0.26
  -2   7  -3    6.95    0.21
  -2   7  -3    7.36    0.26
   2  -7   3    6.58    0.26
   2  -7   3    7.03    0.27
   2  -7   3    7.29    0.26
   2  -7   3    7.37    0.20
   2  -7   3    7.14    0.23
   2  -7   3    7.08    0.26
  -3   7  -3   21.85    0.56
  -3   7  -3   21.09    0.70
  -3   7  -3   22.47    0.63
  -3   7  -3   22.12    0.50
  -3   7  -3   23.65    0.70
   3  -7   3   22.47    0.63
   3  -7   3   21.93    0.70
   3  -7   3   22.77    0.58
   3  -7   3   23.67    0.70
   3  -7   3   22.96    0.66
   3  -7   3   22.67    0.64
  -4   7  -3    2.45    0.15
  -4   7  -3    2.37    0.09
  -4   7  -3    2.37    0.15
  -4   7  -3    2.25    0.12
   4  -7   3    2.36    0.14
   4  -7   3    2.51    0.12
   4  -7   3    2.41    0.15
   4  -7   3    2.20    0.13
   4  -7   3    2.33    0.11
  -5   7  -3    5.22    0.20
  -5   7  -3    5.20    0.23
  -5   7  -3    5.10    0.15
   5  -7   3    5.14    0.24
   5  -7   3    5.06    0.19
   5  -7   3    5.04    0.23
   5  -7   3    5.27    0.20
  -6   7  -3    3.93    0.14
  -6   7  -3    4.19    0.22
  -6   7  -3    4.14    0.17
   6  -7   3    3.71    0.22
   6  -7   3    4.13    0.17
   6  -7   3    3.74    0.17
   6  -7   3    3.78    0.20
  -7   7  -3    0.48    0.11
  -7   7  -3    0.51    0.07
   7  -7   3    0.43    0.10
   7  -7   3    0.19    0.08
  -8   7  -3    0.12    0.10
  -8   7  -3    0.08    0.06
  -8   7  -3    0.08    0.06
   8  -7   3   -0.19    0.07
   8  -7   3    0.14    0.09
  -9   7  -3    0.05    0.05
  -9   7  -3   -0.04    0.09
   9  -7   3    0.17    0.09
   9  -7   3    0.15    0.08
 -10   7  -3    0.70    0.14
  10  -7   3    0.51    0.13
  10  -7   3    0.66    0.12
 -11   7  -3    2.69    0.25
  11  -7   3    2.71    0.23
  11  -7   3    2.86    0.25
   6   6  -3    0.47    0.09
   6   6  -3    0.56    0.12
   6   6  -3    0.53    0.09
   5   6  -3   -0.14    0.08
   5   6  -3   -0.02    0.05
   5   6  -3   -0.14    0.05
   4   6  -3    2.40    0.12
   4   6  -3    2.26    0.13
   4   6  -3    2.29    0.09
   4   6  -3    2.22    0.17
   4   6  -3    2.41    0.16
   3   6  -3    3.19    0.17
   3   6  -3    2.73    0.14
   3   6  -3    2.59    0.16
   3   6  -3    2.90    0.12
   2   6  -3    3.87    0.18
   2   6  -3    3.72    0.16
   1   6  -3    9.63    0.31
   1   6  -3    9.77    0.30
   0   6  -3   22.70    0.64
   0   6  -3   21.14    0.66
   0   6  -3   21.68    0.64
   0   6  -3   21.99    0.57
   0   6  -3   20.84    0.61
   0   6  -3   21.59    0.62
   0  -6   3   22.09    0.64
   0  -6   3   21.67    0.64
  -1   6  -3    4.38    0.15
  -1   6  -3    4.53    0.17
  -1   6  -3    4.39    0.17
  -1   6  -3    4.33    0.19
  -1   6  -3    4.67    0.17
   1  -6   3    4.54    0.17
   1  -6   3    4.23    0.18
   1  -6   3    4.44    0.17
   1  -6   3    4.60    0.16
   1  -6   3    4.34    0.18
  -2   6  -3  110.67    2.87
  -2   6  -3  108.63    3.14
  -2   6  -3  107.84    2.62
  -2   6  -3  113.69    3.14
   2  -6   3  111.98    3.14
   2  -6   3  103.21    3.14
   2  -6   3  110.43    2.89
   2  -6   3  111.91    2.92
   2  -6   3  110.59    2.69
   2  -6   3  110.23    2.86
  -3   6  -3    0.12    0.03
  -3   6  -3    0.15    0.05
  -3   6  -3    0.10    0.05
  -3   6  -3    0.08    0.04
   3  -6   3    0.16    0.05
   3  -6   3    0.19    0.04
   3  -6   3    0.13    0.04
   3  -6   3    0.07    0.04
   3  -6   3    0.11    0.05
  -4   6  -3   85.18    1.84
  -4   6  -3   86.38    2.26
  -4   6  -3   85.47    2.49
  -4   6  -3   88.82    2.49
   4  -6   3   84.67    2.49
   4  -6   3   86.73    2.49
   4  -6   3   86.60    2.26
   4  -6   3   85.15    2.13
  -5   6  -3   31.57    0.95
  -5   6  -3   31.07    0.95
  -5   6  -3   30.07    0.69
   5  -6   3   30.68    0.81
   5  -6   3   31.94    0.95
   5  -6   3   30.83    0.85
   5  -6   3   30.39    0.95
  -6   6  -3    9.35    0.29
  -6   6  -3    9.81    0.36
  -6   6  -3    9.49    0.25
   6  -6   3    9.49    0.31
   6  -6   3    9.44    0.36
   6  -6   3    9.77    0.32
   6  -6   3    9.65    0.36
  -7   6  -3    0.22    0.08
  -7   6  -3    0.27    0.06
  -7   6  -3    0.35    0.06
   7  -6   3   -0.06    0.07
   7  -6   3    0.27    0.08
  -8   6  -3    0.68    0.08
  -8   6  -3    0.75    0.11
  -8   6  -3    0.77    0.07
   8  -6   3    0.73    0.10
   8  -6   3    0.65    0.11
  -9   6  -3    0.69    0.07
  -9   6  -3    0.72    0.12
   9  -6   3    0.58    0.10
   9  -6   3    0.75    0.12
 -10   6  -3    2.80    0.24
 -10   6  -3    2.71    0.18
  10  -6   3    2.92    0.21
  10  -6   3    3.02    0.24
 -11   6  -3   -0.02    0.10
  11  -6   3    0.10    0.09
  11  -6   3    0.06    0.10
   7   5  -3    7.82    0.34
   7   5  -3    7.21    0.26
   6   5  -3    0.24    0.11
   6   5  -3    0.44    0.08
   6   5  -3    0.28    0.07
   5   5  -3   11.17    0.40
   5   5  -3   11.43    0.35
   5   5  -3   11.26    0.33
   5   5  -3   11.60    0.32
   5   5  -3   11.36    0.32
   4   5  -3    3.44    0.16
   4   5  -3    3.25    0.14
   4   5  -3    3.19    0.18
   4   5  -3    3.17    0.12
   4   5  -3    3.35    0.14
   3   5  -3    0.07    0.04
   3   5  -3    0.10    0.05
   3   5  -3    0.19    0.03
   2   5  -3   27.94    0.79
   2   5  -3   27.92    0.73
  -2  -5   3   28.54    0.74
   1   5  -3   24.48    0.73
   1   5  -3   24.84    0.68
   1   5  -3   25.30    0.70
   1   5  -3   24.68    0.71
   1   5  -3   24.88    0.64
   1   5  -3   23.70    0.71
  -1  -5   3   24.31    0.71
  -1  -5   3   24.27    0.64
  -1  -5   3   24.65    0.71
   0   5  -3    1.27    0.08
   0   5  -3    1.43    0.09
   0   5  -3    1.00    0.10
   0   5  -3    1.25    0.08
   0   5  -3    1.24    0.07
   0   5  -3    1.39    0.09
   0  -5   3    1.17    0.07
   0  -5   3    1.29    0.07
   0  -5   3    1.28    0.08
   0  -5   3    1.31    0.10
   0  -5   3    1.36    0.08
  -1   5  -3   23.56    0.65
  -1   5  -3   23.58    0.59
  -1   5  -3   23.13    0.59
  -1   5  -3   23.34    0.70
  -1   5  -3   24.22    0.70
   1  -5   3   24.20    0.67
   1  -5   3   23.26    0.65
   1  -5   3   24.37    0.65
   1  -5   3   23.10    0.70
   1  -5   3   23.66    0.70
   1  -5   3   23.45    0.59
   1  -5   3   24.42    0.59
  -2   5  -3    0.51    0.05
  -2   5  -3    0.28    0.05
  -2   5  -3    0.26    0.05
  -2   5  -3    0.30    0.04
   2  -5   3    0.24    0.05
   2  -5   3    0.18    0.05
   2  -5   3    0.35    0.04
   2  -5   3    0.19    0.04
   2  -5   3    0.30    0.03
   2  -5   3    0.29    0.04
  -3   5  -3    3.78    0.11
  -3   5  -3    3.90    0.17
  -3   5  -3    3.97    0.13
  -3   5  -3    3.53    0.17
  -3   5  -3    4.04    0.15
   3  -5   3    3.44    0.17
   3  -5   3    3.65    0.17
   3  -5   3    3.72    0.14
   3  -5   3    3.88    0.14
   3  -5   3    4.06    0.15
  -4   5  -3    9.62    0.24
  -4   5  -3    9.71    0.28
  -4   5  -3    9.34    0.30
  -4   5  -3    9.28    0.33
  -4   5  -3    9.72    0.34
   4  -5   3    9.55    0.28
   4  -5   3    9.71    0.30
   4  -5   3    9.27    0.33
   4  -5   3    9.24    0.33
  -5   5  -3    2.84    0.16
  -5   5  -3    3.02    0.11
  -5   5  -3    2.96    0.13
  -5   5  -3    2.84    0.16
   5  -5   3    2.98    0.16
   5  -5   3    2.93    0.14
   5  -5   3    2.62    0.16
   5  -5   3    2.99    0.14
  -6   5  -3    1.42    0.12
  -6   5  -3    1.35    0.13
  -6   5  -3    1.27    0.08
  -6   5  -3    1.30    0.09
   6  -5   3    0.98    0.09
   6  -5   3    1.25    0.13
  -7   5  -3    4.98    0.24
  -7   5  -3    4.99    0.23
  -7   5  -3    5.02    0.18
   7  -5   3    5.09    0.24
   7  -5   3    4.69    0.21
  -8   5  -3    0.14    0.05
  -8   5  -3    0.25    0.04
  -8   5  -3    0.17    0.08
   8  -5   3    0.20    0.07
   8  -5   3    0.21    0.08
  -9   5  -3    0.00    0.04
  -9   5  -3    0.03    0.09
   9  -5   3   -0.05    0.09
   9  -5   3    0.09    0.08
 -10   5  -3    4.43    0.27
 -10   5  -3    4.19    0.22
  10  -5   3    4.04    0.24
  10  -5   3    4.31    0.27
 -11   5  -3    0.06    0.10
  11  -5   3   -0.01    0.09
   8   4  -3    2.53    0.17
   7   4  -3    7.15    0.26
   7   4  -3    7.58    0.25
   6   4  -3   13.37    0.40
   6   4  -3   13.94    0.40
   6   4  -3   13.27    0.37
   6   4  -3   14.27    0.37
   5   4  -3    0.33    0.06
   5   4  -3    0.30    0.05
   5   4  -3    0.38    0.06
   5   4  -3    0.27    0.05
   4   4  -3   18.73    0.51
   4   4  -3   19.54    0.58
   4   4  -3   19.60    0.53
  -4  -4   3   20.04    0.55
   3   4  -3   63.57    1.69
   3   4  -3   64.22    1.70
   3   4  -3   61.02    1.54
   3   4  -3   62.84    1.75
   3   4  -3   61.09    1.67
  -3  -4   3   62.10    1.54
   2   4  -3    0.43    0.06
   2   4  -3    0.49    0.06
   2   4  -3    0.66    0.07
   2   4  -3    0.50    0.06
   2   4  -3    0.58    0.06
  -2  -4   3    0.53    0.06
   1   4  -3   17.68    0.50
   1   4  -3   17.07    0.49
   1   4  -3   17.38    0.51
   1   4  -3   17.34    0.49
   1   4  -3   17.09    0.45
   1   4  -3   17.57    0.44
   1   4  -3   16.67    0.52
   1   4  -3   17.39    0.51
  -1  -4   3   17.39    0.51
  -1  -4   3   17.12    0.51
  -1  -4   3   17.15    0.46
   0   4  -3  229.57    5.41
   0   4  -3  228.97    6.45
   0   4  -3  226.31    5.91
   0   4  -3  232.25    5.93
   0   4  -3  231.90    5.94
   0   4  -3  213.67    6.42
   0   4  -3  226.88    5.54
   0  -4   3  221.62    6.44
   0  -4   3  225.70    5.43
   0  -4   3  219.55    6.45
   0  -4   3  234.89    5.87
   0  -4   3  229.57    5.94
  -1   4  -3    0.12    0.03
  -1   4  -3    0.00    0.03
  -1   4  -3    0.14    0.03
  -1   4  -3    0.02    0.02
   1  -4   3    0.00    0.03
   1  -4   3    0.05    0.03
   1  -4   3    0.04    0.03
   1  -4   3    0.03    0.03
   1  -4   3    0.02    0.03
   1  -4   3    0.09    0.03
   1  -4   3    0.07    0.02
  -2   4  -3  190.44    4.66
  -2   4  -3  173.47    5.37
  -2   4  -3  187.04    4.93
  -2   4  -3  208.01    5.42
   2  -4   3  194.80    4.92
   2  -4   3  188.39    4.96
   2  -4   3  204.28    5.43
   2  -4   3  166.51    5.37
   2  -4   3  189.83    4.67
   2  -4   3  192.11    4.51
  -3   4  -3   63.26    1.59
  -3   4  -3   66.03    1.86
  -3   4  -3   65.44    1.86
  -3   4  -3   62.45    1.69
  -3   4  -3   64.08    1.38
   3  -4   3   64.17    1.69
   3  -4   3   64.22    1.86
   3  -4   3   63.60    1.59
   3  -4   3   64.75    1.86
  -4   4  -3   28.48    0.72
  -4   4  -3   27.08    0.72
  -4   4  -3   28.04    0.62
  -4   4  -3   26.78    0.83
  -4   4  -3   28.71    0.84
  -4   4  -3   27.23    0.76
   4  -4   3   26.99    0.72
   4  -4   3   25.46    0.83
   4  -4   3   27.84    0.76
   4  -4   3   28.14    0.83
  -5   4  -3   34.74    0.91
  -5   4  -3   35.47    1.06
  -5   4  -3   35.25    0.91
  -5   4  -3   37.11    1.06
  -5   4  -3   35.21    0.78
   5  -4   3   35.51    1.06
   5  -4   3   34.58    1.06
   5  -4   3   35.14    0.96
   5  -4   3   34.36    0.91
   5  -4   3   34.60    0.85
  -6   4  -3    5.87    0.24
  -6   4  -3    5.52    0.19
  -6   4  -3    5.33    0.24
   6  -4   3    5.50    0.16
   6  -4   3    5.45    0.24
   6  -4   3    5.41    0.21
  -7   4  -3    1.50    0.15
  -7   4  -3    1.67    0.14
  -7   4  -3    1.67    0.10
   7  -4   3    1.54    0.15
   7  -4   3    1.88    0.14
   7  -4   3    1.71    0.09
   7  -4   3    1.60    0.11
  -8   4  -3    4.12    0.17
  -8   4  -3    4.44    0.24
  -8   4  -3    4.06    0.24
   8  -4   3    4.02    0.16
   8  -4   3    4.10    0.18
   8  -4   3    4.24    0.23
   8  -4   3    4.27    0.22
  -9   4  -3    0.09    0.08
  -9   4  -3    0.27    0.09
   9  -4   3    0.09    0.07
   9  -4   3    0.06    0.08
   9  -4   3    0.12    0.09
 -10   4  -3    0.10    0.08
 -10   4  -3    0.07    0.09
  10  -4   3    0.06    0.09
 -11   4  -3    1.12    0.14
 -11   4  -3    0.90    0.14
  11  -4   3    1.15    0.15
   9   3  -3    4.32    0.22
   8   3  -3    0.43    0.08
   8   3  -3    0.36    0.08
   7   3  -3    0.88    0.08
   7   3  -3    1.24    0.12
   7   3  -3    0.97    0.10
   6   3  -3    2.41    0.13
   6   3  -3    2.05    0.11
   6   3  -3    2.26    0.13
   6   3  -3    2.14    0.10
  -6  -3   3    2.07    0.16
   5   3  -3    0.60    0.06
   5   3  -3    0.60    0.06
  -5  -3   3    0.72    0.09
   4   3  -3   10.96    0.33
   4   3  -3   10.18    0.35
  -4  -3   3   10.30    0.32
   3   3  -3   32.14    0.92
   3   3  -3   33.97    0.96
   3   3  -3   33.49    0.85
   3   3  -3   34.21    0.93
  -3  -3   3   33.73    0.85
   2   3  -3    2.53    0.13
   2   3  -3    2.84    0.12
   2   3  -3    2.96    0.10
   2   3  -3    2.70    0.10
   2   3  -3    2.93    0.13
  -2  -3   3    2.87    0.10
  -2  -3   3    2.62    0.12
  -2  -3   3    2.60    0.10
   1   3  -3   19.77    0.60
   1   3  -3   20.93    0.60
   1   3  -3   20.87    0.57
   1   3  -3   21.17    0.53
   1   3  -3   21.04    0.58
  -1  -3   3   20.48    0.60
  -1  -3   3   20.64    0.53
  -1  -3   3   19.68    0.60
  -1  -3   3   21.41    0.57
   0   3  -3   20.74    0.56
   0   3  -3   20.40    0.51
   0   3  -3   21.04    0.60
   0   3  -3   19.61    0.55
   0   3  -3   20.79    0.60
   0   3  -3   19.87    0.55
   0  -3   3   20.01    0.56
   0  -3   3   19.97    0.51
   0  -3   3   20.02    0.60
   0  -3   3   20.56    0.60
   0  -3   3   19.74    0.55
  -1   3  -3    1.83    0.09
  -1   3  -3    1.73    0.09
  -1   3  -3    1.70    0.07
  -1   3  -3    1.68    0.07
  -1   3  -3    1.80    0.09
   1  -3   3    1.79    0.07
   1  -3   3    1.72    0.09
   1  -3   3    1.84    0.09
   1  -3   3    2.01    0.09
  -2   3  -3    0.96    0.08
  -2   3  -3    1.01    0.07
  -2   3  -3    0.84    0.07
  -2   3  -3    0.88    0.06
  -2   3  -3    0.98    0.06
   2  -3   3    0.96    0.06
   2  -3   3    0.91    0.08
   2  -3   3    0.99    0.07
   2  -3   3    0.91    0.07
   2  -3   3    0.89    0.04
  -3   3  -3  125.16    3.13
  -3   3  -3  128.80    3.10
  -3   3  -3  120.72    3.60
  -3   3  -3  126.50    2.67
  -3   3  -3  125.64    3.28
  -3   3  -3  133.99    3.60
   3  -3   3  122.87    3.60
   3  -3   3  127.84    3.60
   3  -3   3  125.78    3.10
   3  -3   3  125.22    3.28
  -4   3  -3   16.61    0.51
  -4   3  -3   15.46    0.43
  -4   3  -3   16.26    0.44
  -4   3  -3   15.44    0.51
  -4   3  -3   16.00    0.38
   4  -3   3   15.13    0.50
   4  -3   3   15.77    0.44
   4  -3   3   16.50    0.51
   4  -3   3   15.94    0.46
  -5   3  -3    7.74    0.22
  -5   3  -3    7.79    0.29
  -5   3  -3    7.88    0.24
  -5   3  -3    7.89    0.25
  -5   3  -3    8.17    0.29
   5  -3   3    7.78    0.29
   5  -3   3    8.01    0.26
   5  -3   3    7.67    0.29
   5  -3   3    7.97    0.22
   5  -3   3    8.33    0.27
  -6   3  -3   39.81    0.98
  -6   3  -3   40.61    1.20
  -6   3  -3   40.13    1.02
  -6   3  -3   38.92    1.19
   6  -3   3   38.09    1.19
   6  -3   3   40.01    1.04
   6  -3   3   39.49    0.98
  -7   3  -3    0.38    0.08
  -7   3  -3    0.34    0.03
  -7   3  -3    0.39    0.06
  -7   3  -3    0.35    0.08
   7  -3   3    0.35    0.07
   7  -3   3    0.33    0.08
   7  -3   3    0.43    0.06
   7  -3   3    0.43    0.09
  -8   3  -3   21.63    0.72
  -8   3  -3   20.67    0.59
  -8   3  -3   21.92    0.72
  -8   3  -3   21.62    0.68
   8  -3   3   21.06    0.58
   8  -3   3   21.87    0.55
   8  -3   3   22.99    0.64
   8  -3   3   22.06    0.72
  -9   3  -3    0.08    0.08
  -9   3  -3    0.11    0.08
   9  -3   3    0.05    0.08
   9  -3   3    0.03    0.07
   9  -3   3   -0.06    0.08
 -10   3  -3    0.41    0.11
 -10   3  -3    0.47    0.11
  10  -3   3    0.64    0.12
   9   2  -3   11.31    0.34
   9   2  -3   10.99    0.37
  -9  -2   3    9.68    0.34
   8   2  -3    2.06    0.15
   8   2  -3    1.94    0.15
  -8  -2   3    1.73    0.11
   7   2  -3    0.77    0.08
   7   2  -3    0.64    0.07
   7   2  -3    0.55    0.06
   7   2  -3    0.71    0.08
   7   2  -3    0.69    0.08
  -7  -2   3    0.74    0.08
  -7  -2   3    0.69    0.10
  -7  -2   3    0.57    0.06
   6   2  -3   19.86    0.55
   6   2  -3   19.91    0.49
   6   2  -3   20.15    0.60
   6   2  -3   19.84    0.52
   6   2  -3   19.87    0.51
   6   2  -3   20.51    0.60
  -6  -2   3   19.96    0.60
  -6  -2   3   20.31    0.60
  -6  -2   3   19.78    0.56
   5   2  -3    4.40    0.19
   5   2  -3    4.47    0.14
   5   2  -3    4.51    0.16
   5   2  -3    4.23    0.16
  -5  -2   3    3.92    0.15
  -5  -2   3    4.65    0.19
  -5  -2   3    4.33    0.16
   4   2  -3    4.13    0.15
   4   2  -3    4.17    0.17
   4   2  -3    4.27    0.15
   4   2  -3    4.40    0.16
  -4  -2   3    4.20    0.15
  -4  -2   3    4.30    0.16
   3   2  -3  192.87    5.39
   3   2  -3  181.85    5.40
   3   2  -3  189.47    4.52
   3   2  -3  190.71    5.13
   3   2  -3  189.68    4.91
  -3  -2   3  192.77    4.52
  -3  -2   3  189.19    5.37
   2   2  -3   12.44    0.37
   2   2  -3   13.35    0.39
   2   2  -3   12.79    0.39
  -2  -2   3   12.83    0.35
  -2  -2   3   13.22    0.39
  -2  -2   3   13.10    0.39
   1   2  -3   39.51    1.01
   1   2  -3   34.54    1.08
   1   2  -3   37.55    1.08
   1   2  -3   38.66    1.00
  -1  -2   3   40.01    1.00
  -1  -2   3   35.56    1.08
  -1  -2   3   38.82    0.92
  -1  -2   3   36.80    1.08
   0   2  -3    1.34    0.07
   0   2  -3    1.37    0.06
   0   2  -3    1.30    0.06
   0   2  -3    1.37    0.07
   0   2  -3    1.39    0.07
   0  -2   3    1.36    0.07
   0  -2   3    1.33    0.07
   0  -2   3    1.31    0.06
   0  -2   3    1.45    0.07
   0  -2   3    1.29    0.06
  -1   2  -3  162.92    4.47
  -1   2  -3  147.90    3.79
  -1   2  -3  150.13    4.05
  -1   2  -3  151.74    3.84
  -1   2  -3  159.11    4.45
   1  -2   3  150.12    3.84
   1  -2   3  164.25    4.46
   1  -2   3  154.21    4.04
   1  -2   3  160.17    4.46
  -2   2  -3  251.42    6.79
  -2   2  -3  264.65    7.50
  -2   2  -3  255.71    6.38
  -2   2  -3  253.51    6.47
  -2   2  -3  275.95    7.48
   2  -2   3  257.77    6.39
   2  -2   3  277.10    7.49
   2  -2   3  263.97    7.48
   2  -2   3  254.50    6.82
   2  -2   3  256.93    6.46
  -3   2  -3    4.38    0.17
  -3   2  -3    4.28    0.17
  -3   2  -3    4.19    0.15
  -3   2  -3    4.13    0.14
  -3   2  -3    4.30    0.13
   3  -2   3    4.27    0.16
   3  -2   3    4.02    0.15
   3  -2   3    4.06    0.17
   3  -2   3    4.33    0.15
   3  -2   3    4.00    0.17
  -4   2  -3   13.45    0.38
  -4   2  -3   13.04    0.35
  -4   2  -3   13.36    0.43
  -4   2  -3   13.22    0.32
  -4   2  -3   13.11    0.37
   4  -2   3   13.21    0.38
   4  -2   3   13.09    0.37
   4  -2   3   13.76    0.40
   4  -2   3   13.50    0.43
   4  -2   3   13.67    0.43
  -5   2  -3   14.30    0.38
  -5   2  -3   14.46    0.36
  -5   2  -3   14.55    0.42
  -5   2  -3   15.09    0.41
  -5   2  -3   15.05    0.49
   5  -2   3   15.00    0.43
   5  -2   3   14.88    0.37
   5  -2   3   14.93    0.40
   5  -2   3   14.67    0.49
   5  -2   3   14.73    0.45
   5  -2   3   14.77    0.41
   5  -2   3   14.36    0.48
  -6   2  -3    1.74    0.10
  -6   2  -3    1.74    0.07
  -6   2  -3    1.76    0.14
  -6   2  -3    1.77    0.13
   6  -2   3    1.84    0.14
   6  -2   3    1.84    0.13
   6  -2   3    1.80    0.11
   6  -2   3    1.59    0.11
   6  -2   3    1.70    0.10
  -7   2  -3    0.15    0.08
  -7   2  -3    0.17    0.05
  -7   2  -3    0.08    0.07
  -7   2  -3    0.12    0.07
   7  -2   3    0.13    0.05
   7  -2   3    0.08    0.07
   7  -2   3    0.14    0.07
   7  -2   3    0.13    0.06
   7  -2   3    0.17    0.05
  -8   2  -3    3.73    0.23
  -8   2  -3    4.11    0.22
   8  -2   3    3.84    0.21
   8  -2   3    3.61    0.18
   8  -2   3    3.96    0.22
  -9   2  -3    6.13    0.29
  -9   2  -3    5.89    0.29
   9  -2   3    6.15    0.27
   9  -2   3    5.78    0.24
 -10   2  -3    0.28    0.10
 -10   2  -3    0.23    0.11
  10  -2   3    0.13    0.10
  10   1  -3    0.13    0.08
  10   1  -3    0.29    0.09
 -10  -1   3    0.15    0.07
   9   1  -3    5.72    0.23
   9   1  -3    6.11    0.25
  -9  -1   3    5.49    0.23
   8   1  -3    0.22    0.07
   8   1  -3    0.37    0.08
  -8  -1   3    0.25    0.08
  -8  -1   3    0.20    0.06
   7   1  -3    8.98    0.28
   7   1  -3    8.90    0.32
   7   1  -3    9.17    0.31
  -7  -1   3    9.41    0.31
  -7  -1   3    9.21    0.32
  -7  -1   3    9.31    0.32
   6   1  -3   31.20    0.89
   6   1  -3   31.41    0.92
   6   1  -3   31.09    0.77
   6   1  -3   29.38    0.91
  -6  -1   3   31.55    0.92
  -6  -1   3   31.17    0.81
  -6  -1   3   30.68    0.92
   5   1  -3    2.36    0.11
   5   1  -3    2.49    0.12
   5   1  -3    2.17    0.08
   5   1  -3    2.39    0.11
   5   1  -3    2.41    0.09
  -5  -1   3    2.38    0.12
  -5  -1   3    2.32    0.11
  -5  -1   3    2.38    0.11
   4   1  -3   18.60    0.56
   4   1  -3   18.91    0.55
   4   1  -3   19.14    0.56
   4   1  -3   18.52    0.48
  -4  -1   3   18.46    0.50
  -4  -1   3   18.85    0.56
  -4  -1   3   19.26    0.57
   3   1  -3  582.16   13.74
   3   1  -3  576.93   16.07
   3   1  -3  532.52   16.07
   3   1  -3  578.40   13.97
   3   1  -3  572.22   14.74
  -3  -1   3  554.73   16.08
  -3  -1   3  557.31   16.08
  -3  -1   3  576.35   13.54
   2   1  -3  134.23    3.49
   2   1  -3  136.39    3.33
   2   1  -3  141.71    3.86
   2   1  -3  131.52    3.81
   2   1  -3  134.95    3.28
  -2  -1   3  137.73    3.86
  -2  -1   3  125.42    3.81
   1   1  -3    2.84    0.11
   1   1  -3    2.76    0.11
   1   1  -3    2.66    0.10
   1   1  -3    2.66    0.09
   1   1  -3    2.67    0.09
   1   1  -3    2.70    0.09
  -1  -1   3    2.65    0.11
  -1  -1   3    2.74    0.09
  -1  -1   3    2.82    0.10
  -1  -1   3    2.55    0.11
   0   1  -3  775.35   18.89
   0   1  -3  740.54   19.76
   0   1  -3  755.19   18.52
   0   1  -3  814.82   21.70
   0   1  -3  704.28   21.66
   0   1  -3  760.77   18.64
   0  -1   3  758.79   21.67
   0  -1   3  763.59   19.76
   0  -1   3  747.34   18.65
   0  -1   3  774.25   18.90
   0  -1   3  810.40   21.69
  -1   1  -3  263.14    6.49
  -1   1  -3  260.28    6.42
  -1   1  -3  269.18    7.57
  -1   1  -3  259.57    6.86
  -1   1  -3  253.13    6.90
  -1   1  -3  259.94    6.59
  -1   1  -3  270.54    7.58
   1  -1   3  256.77    6.48
   1  -1   3  279.70    7.59
   1  -1   3  262.64    6.86
   1  -1   3  277.55    7.59
   1  -1   3  261.99    6.60
  -2   1  -3    0.14    0.04
  -2   1  -3    0.09    0.03
  -2   1  -3    0.07    0.03
  -2   1  -3    0.04    0.04
  -2   1  -3    0.12    0.04
  -2   1  -3    0.02    0.03
  -2   1  -3    0.08    0.03
   2  -1   3    0.11    0.04
   2  -1   3    0.09    0.03
   2  -1   3    0.05    0.03
   2  -1   3    0.18    0.04
   2  -1   3    0.07    0.03
  -3   1  -3  315.39    7.72
  -3   1  -3  318.63    6.72
  -3   1  -3  323.63    7.88
  -3   1  -3  311.92    9.07
  -3   1  -3  322.08    7.79
  -3   1  -3  339.57    9.08
   3  -1   3  318.22    8.30
   3  -1   3  282.86    9.01
   3  -1   3  321.89    8.28
   3  -1   3  327.88    9.06
   3  -1   3  311.81    7.77
   3  -1   3  319.25    7.86
  -4   1  -3   87.05    2.11
  -4   1  -3   84.63    1.82
  -4   1  -3   89.02    2.45
  -4   1  -3   84.54    2.07
  -4   1  -3   84.93    2.13
  -4   1  -3   84.31    2.44
   4  -1   3   82.93    2.13
   4  -1   3   85.15    2.11
   4  -1   3   86.88    2.24
   4  -1   3   85.66    2.22
   4  -1   3   79.45    2.44
   4  -1   3   83.30    2.44
  -5   1  -3    7.51    0.24
  -5   1  -3    7.50    0.21
  -5   1  -3    8.02    0.29
  -5   1  -3    7.70    0.29
  -5   1  -3    7.45    0.26
   5  -1   3    7.35    0.25
   5  -1   3    7.55    0.29
   5  -1   3    7.99    0.29
   5  -1   3    7.86    0.23
   5  -1   3    7.39    0.26
   5  -1   3    7.50    0.24
   5  -1   3    7.42    0.24
  -6   1  -3   10.84    0.29
  -6   1  -3   11.11    0.39
  -6   1  -3   10.88    0.33
  -6   1  -3   11.58    0.39
  -6   1  -3   10.77    0.39
   6  -1   3   11.30    0.39
   6  -1   3   10.95    0.31
   6  -1   3   11.14    0.33
   6  -1   3   11.10    0.35
   6  -1   3   10.78    0.35
  -7   1  -3    1.77    0.15
  -7   1  -3    1.79    0.15
  -7   1  -3    1.77    0.17
  -7   1  -3    1.85    0.11
   7  -1   3    1.59    0.13
   7  -1   3    1.87    0.15
   7  -1   3    1.73    0.13
   7  -1   3    1.89    0.15
  -8   1  -3    1.03    0.13
  -8   1  -3    0.92    0.11
   8  -1   3    0.92    0.09
   8  -1   3    1.02    0.11
   8  -1   3    0.92    0.12
  -9   1  -3    1.54    0.17
  -9   1  -3    1.29    0.16
   9  -1   3    1.48    0.15
  10   0  -3    4.29    0.23
  10   0  -3    3.86    0.20
 -10   0   3    3.77    0.20
   9   0  -3   -0.15    0.06
   9   0  -3   -0.02    0.07
  -9   0   3   -0.04    0.06
  -9   0   3   -0.04    0.07
   8   0  -3    0.93    0.10
   8   0  -3    1.11    0.12
   8   0  -3    0.97    0.10
  -8   0   3    0.84    0.09
  -8   0   3    1.02    0.11
  -8   0   3    1.12    0.12
   7   0  -3   17.47    0.45
   7   0  -3   18.10    0.57
   7   0  -3   17.82    0.54
  -7   0   3   18.63    0.57
  -7   0   3   17.31    0.51
  -7   0   3   18.18    0.57
   6   0  -3   10.47    0.28
   6   0  -3   10.82    0.35
   6   0  -3   10.78    0.34
   6   0  -3   10.24    0.35
  -6   0   3   10.66    0.32
  -6   0   3   10.68    0.35
  -6   0   3   10.75    0.36
   5   0  -3   39.60    0.97
   5   0  -3   38.82    1.15
   5   0  -3   39.20    1.16
   5   0  -3   38.93    1.10
  -5   0   3   39.91    0.99
  -5   0   3   40.56    1.16
  -5   0   3   39.02    1.16
   4   0  -3   16.24    0.52
   4   0  -3   16.68    0.49
   4   0  -3   17.63    0.52
   4   0  -3   16.82    0.44
   4   0  -3   17.34    0.43
  -4   0   3   17.92    0.53
  -4   0   3   17.27    0.45
  -4   0   3   17.08    0.52
   3   0  -3   45.58    1.29
   3   0  -3   44.28    1.29
   3   0  -3   44.32    1.10
   3   0  -3   44.74    1.11
   3   0  -3   43.87    1.18
  -3   0   3   46.21    1.29
  -3   0   3   44.23    1.10
  -3   0   3   44.65    1.29
  -3   0   3   44.23    1.11
   2   0  -3   14.79    0.39
   2   0  -3   15.20    0.46
   2   0  -3   14.92    0.46
   2   0  -3   14.98    0.39
   2   0  -3   14.60    0.41
  -2   0   3   14.64    0.39
  -2   0   3   15.11    0.46
  -2   0   3   14.98    0.39
  -2   0   3   15.70    0.46
   1   0  -3    5.01    0.15
   1   0  -3    5.11    0.15
   1   0  -3    4.94    0.18
   1   0  -3    5.08    0.18
   1   0  -3    5.10    0.16
  -1   0   3    4.75    0.18
  -1   0   3    5.27    0.18
  -1   0   3    5.61    0.16
  -1   0   3    4.92    0.16
  -1   0   3    5.01    0.16
   0   0  -3   -0.03    0.04
   0   0  -3    0.06    0.03
   0   0  -3    0.03    0.03
   0   0  -3    0.03    0.04
   0   0  -3    0.04    0.03
   0   0  -3    0.03    0.03
   0   0   3    0.00    0.03
   0   0   3    0.00    0.03
   0   0   3   -0.05    0.04
   0   0   3    0.05    0.03
   0   0   3    0.03    0.03
   0   0   3    0.02    0.04
  -1   0  -3   58.87    1.50
  -1   0  -3   57.98    1.40
  -1   0  -3   57.87    1.44
  -1   0  -3   56.92    1.65
  -1   0  -3   58.59    1.42
  -1   0  -3   57.09    1.49
  -1   0  -3   56.21    1.64
   1   0   3   58.27    1.50
   1   0   3   57.78    1.44
   1   0   3   56.67    1.40
   1   0   3   54.80    1.64
   1   0   3   58.85    1.42
   1   0   3   51.83    1.64
  -2   0  -3   15.04    0.39
  -2   0  -3   14.72    0.34
  -2   0  -3   14.60    0.41
  -2   0  -3   14.70    0.40
  -2   0  -3   14.26    0.46
  -2   0  -3   15.56    0.47
   2   0   3   14.34    0.39
   2   0   3   14.65    0.46
   2   0   3   15.19    0.42
   2   0   3   15.05    0.46
   2   0   3   14.25    0.40
   2   0   3   14.87    0.41
  -3   0  -3   23.39    0.60
  -3   0  -3   23.65    0.63
  -3   0  -3   24.52    0.72
  -3   0  -3   24.21    0.63
  -3   0  -3   24.09    0.72
  -3   0  -3   23.73    0.54
   3   0   3   23.06    0.72
   3   0   3   23.04    0.60
   3   0   3   23.72    0.63
   3   0   3   23.63    0.63
   3   0   3   24.16    0.72
   3   0   3   24.57    0.66
   3   0   3   23.69    0.65
  -4   0  -3   17.71    0.55
  -4   0  -3   17.19    0.42
  -4   0  -3   17.59    0.55
  -4   0  -3   17.34    0.45
  -4   0  -3   17.23    0.48
  -4   0  -3   17.97    0.56
  -4   0  -3   17.33    0.48
   4   0   3   18.42    0.56
   4   0   3   17.30    0.50
   4   0   3   17.41    0.49
   4   0   3   17.91    0.55
   4   0   3   17.46    0.51
   4   0   3   16.96    0.49
  -5   0  -3    5.64    0.25
  -5   0  -3    5.76    0.24
  -5   0  -3    5.95    0.21
  -5   0  -3    5.84    0.23
  -5   0  -3    5.64    0.17
   5   0   3    6.15    0.23
   5   0   3    5.75    0.21
   5   0   3    5.86    0.22
   5   0   3    5.64    0.21
  -6   0  -3    0.73    0.09
  -6   0  -3    0.89    0.09
  -6   0  -3    0.84    0.08
  -6   0  -3    0.83    0.12
  -6   0  -3    0.83    0.05
   6   0   3    0.79    0.08
   6   0   3    0.81    0.09
   6   0   3    0.71    0.08
   6   0   3    0.84    0.09
  -7   0  -3    8.84    0.34
  -7   0  -3    8.90    0.37
   7   0   3    8.95    0.30
   7   0   3    8.87    0.32
  -8   0  -3    1.78    0.16
  -8   0  -3    1.68    0.17
   8   0   3    1.92    0.15
   8   0   3    1.90    0.17
  -9   0  -3    0.93    0.15
  -9   0  -3    0.94    0.11
   9   0   3    0.85    0.13
  11  -1  -3    1.19    0.14
  11  -1  -3    0.78    0.11
 -11   1   3    1.03    0.12
  10  -1  -3    0.66    0.11
  10  -1  -3    0.79    0.10
 -10   1   3    0.71    0.10
 -10   1   3    0.72    0.11
   9  -1  -3    3.07    0.19
   9  -1  -3    3.00    0.19
   9  -1  -3    3.07    0.17
  -9   1   3    3.25    0.19
  -9   1   3    3.11    0.18
   8  -1  -3   24.67    0.75
   8  -1  -3   23.30    0.58
  -8   1   3   24.07    0.75
  -8   1   3   24.01    0.75
  -8   1   3   22.76    0.65
   7  -1  -3   30.25    0.70
   7  -1  -3   28.69    0.92
   7  -1  -3   30.02    0.75
  -7   1   3   32.43    0.92
  -7   1   3   29.95    0.79
  -7   1   3   30.76    0.92
   6  -1  -3   66.87    2.13
   6  -1  -3   75.17    1.80
   6  -1  -3   71.98    2.01
   6  -1  -3   76.24    2.13
  -6   1   3   71.77    2.13
  -6   1   3   78.30    2.13
  -6   1   3   74.69    1.80
   5  -1  -3   62.98    1.86
   5  -1  -3   64.59    1.58
   5  -1  -3   63.10    1.75
   5  -1  -3   66.19    1.87
  -5   1   3   61.41    1.86
  -5   1   3   65.41    1.58
  -5   1   3   66.08    1.87
  -5   1   3   65.45    1.57
   4  -1  -3  167.25    3.97
   4  -1  -3  157.19    4.65
   4  -1  -3  166.67    4.05
   4  -1  -3  173.88    4.67
  -4   1   3  162.33    4.65
  -4   1   3  167.38    4.05
  -4   1   3  148.86    4.64
  -4   1   3  165.29    3.99
   3  -1  -3   53.67    1.40
   3  -1  -3   53.65    1.31
   3  -1  -3   54.06    1.33
   3  -1  -3   54.79    1.54
   3  -1  -3   48.56    1.54
  -3   1   3   53.89    1.31
  -3   1   3   53.91    1.54
  -3   1   3   53.86    1.33
  -3   1   3   52.44    1.54
   2  -1  -3    0.11    0.03
   2  -1  -3    0.18    0.03
   2  -1  -3    0.21    0.04
  -2   1   3    0.13    0.04
  -2   1   3    0.22    0.03
  -2   1   3    0.32    0.05
   1  -1  -3    8.52    0.28
   1  -1  -3    8.29    0.24
   1  -1  -3    8.42    0.24
   1  -1  -3    8.94    0.25
   1  -1  -3    9.00    0.29
   1  -1  -3    8.34    0.24
  -1   1   3    8.57    0.24
  -1   1   3    8.70    0.29
  -1   1   3    8.51    0.25
  -1   1   3    9.05    0.28
  -1   1   3    8.52    0.24
   0  -1  -3  170.98    4.14
   0  -1  -3  175.98    4.84
   0  -1  -3  172.50    4.86
   0  -1  -3  175.31    4.22
   0  -1  -3  171.18    4.17
   0  -1  -3  168.86    4.45
   0   1   3  169.87    4.43
   0   1   3  166.07    4.22
   0   1   3  174.39    4.84
   0   1   3  172.05    4.86
   0   1   3  167.45    4.14
   0   1   3  163.58    4.47
  -1  -1  -3   27.09    0.68
  -1  -1  -3   26.84    0.68
  -1  -1  -3   25.83    0.79
  -1  -1  -3   28.16    0.80
  -1  -1  -3   27.43    0.59
  -1  -1  -3   27.27    0.70
  -1  -1  -3   26.59    0.72
   1   1   3   26.65    0.72
   1   1   3   26.44    0.68
   1   1   3   26.33    0.68
   1   1   3   24.56    0.79
   1   1   3   26.68    0.72
   1   1   3   27.21    0.79
   1   1   3   26.28    0.70
  -2  -1  -3   14.58    0.45
  -2  -1  -3   14.55    0.41
  -2  -1  -3   14.53    0.46
  -2  -1  -3   14.62    0.39
  -2  -1  -3   14.33    0.46
  -2  -1  -3   14.18    0.42
  -2  -1  -3   14.92    0.39
  -2  -1  -3   14.34    0.34
   2   1   3   14.80    0.42
   2   1   3   14.69    0.41
   2   1   3   13.92    0.40
   2   1   3   15.11    0.46
   2   1   3   13.71    0.45
   2   1   3   13.96    0.39
  -3  -1  -3  144.37    4.28
  -3  -1  -3  152.53    4.28
  -3  -1  -3  150.44    4.11
  -3  -1  -3  150.41    3.19
  -3  -1  -3  149.09    3.74
  -3  -1  -3  152.84    3.69
  -3  -1  -3  152.22    3.65
   3   1   3  148.92    3.65
   3   1   3  151.40    3.93
   3   1   3  149.40    3.69
   3   1   3  153.10    4.28
   3   1   3  149.03    4.28
   3   1   3  148.91    3.75
   3   1   3  152.73    3.91
  -4  -1  -3    5.07    0.20
  -4  -1  -3    4.80    0.24
  -4  -1  -3    5.38    0.18
  -4  -1  -3    5.75    0.22
  -4  -1  -3    5.50    0.18
  -4  -1  -3    5.64    0.22
  -4  -1  -3    5.51    0.20
   4   1   3    5.42    0.20
   4   1   3    5.51    0.22
   4   1   3    5.35    0.21
   4   1   3    5.65    0.22
   4   1   3    5.69    0.22
   4   1   3    5.33    0.18
   4   1   3    5.71    0.21
  -5  -1  -3    1.89    0.13
  -5  -1  -3    1.90    0.13
  -5  -1  -3    1.88    0.09
  -5  -1  -3    1.81    0.17
   5   1   3    1.54    0.13
   5   1   3    1.85    0.13
   5   1   3    1.93    0.13
  -6  -1  -3    6.06    0.30
  -6  -1  -3    6.18    0.26
   6   1   3    6.54    0.25
   6   1   3    6.50    0.25
   6   1   3    6.47    0.26
  -7  -1  -3    0.05    0.09
  -7  -1  -3    0.12    0.07
   7   1   3    0.05    0.07
   7   1   3    0.01    0.07
  -8  -1  -3   -0.07    0.10
  -8  -1  -3   -0.04    0.06
   8   1   3   -0.01    0.08
  11  -2  -3    1.28    0.14
  11  -2  -3    1.32    0.13
 -11   2   3    1.12    0.13
 -11   2   3    1.22    0.13
  10  -2  -3    0.43    0.10
  10  -2  -3    0.22    0.08
  10  -2  -3    0.30    0.09
 -10   2   3    0.29    0.09
 -10   2   3    0.40    0.10
   9  -2  -3   17.30    0.57
   9  -2  -3   16.68    0.44
  -9   2   3   16.60    0.49
  -9   2   3   16.51    0.57
  -9   2   3   16.38    0.57
   8  -2  -3    2.16    0.16
   8  -2  -3    2.34    0.09
   8  -2  -3    1.97    0.13
  -8   2   3    1.57    0.14
  -8   2   3    2.12    0.16
  -8   2   3    2.31    0.15
   7  -2  -3    3.56    0.18
   7  -2  -3    3.40    0.12
  -7   2   3    3.57    0.15
  -7   2   3    3.57    0.18
  -7   2   3    3.58    0.18
  -7   2   3    3.42    0.12
   6  -2  -3    0.53    0.05
   6  -2  -3    0.41    0.07
   6  -2  -3    0.38    0.07
  -6   2   3    0.61    0.05
  -6   2   3    0.41    0.08
  -6   2   3    0.41    0.06
  -6   2   3    0.32    0.06
   5  -2  -3    7.64    0.27
   5  -2  -3    7.72    0.27
   5  -2  -3    7.11    0.22
  -5   2   3    7.61    0.27
  -5   2   3    7.07    0.20
  -5   2   3    7.20    0.22
  -5   2   3    7.13    0.27
   4  -2  -3   10.13    0.28
   4  -2  -3   10.02    0.28
   4  -2  -3   10.03    0.34
   4  -2  -3   10.39    0.34
  -4   2   3   10.60    0.34
  -4   2   3   10.05    0.34
  -4   2   3   10.07    0.28
  -4   2   3    9.94    0.28
   3  -2  -3    6.57    0.21
   3  -2  -3    6.96    0.24
   3  -2  -3    6.67    0.20
   3  -2  -3    7.14    0.25
   3  -2  -3    6.88    0.20
  -3   2   3    7.16    0.25
  -3   2   3    6.62    0.20
  -3   2   3    6.80    0.21
  -3   2   3    6.62    0.24
   2  -2  -3   61.75    1.50
   2  -2  -3   60.24    1.72
   2  -2  -3   58.69    1.72
   2  -2  -3   61.95    1.47
   2  -2  -3   60.41    1.55
  -2   2   3   60.38    1.47
  -2   2   3   60.61    1.55
  -2   2   3   55.53    1.72
  -2   2   3   54.91    1.72
  -2   2   3   60.97    1.50
   1  -2  -3    0.02    0.03
   1  -2  -3    0.00    0.03
   1  -2  -3   -0.01    0.02
   1  -2  -3    0.00    0.04
   1  -2  -3    0.06    0.03
   1  -2  -3   -0.01    0.03
   1  -2  -3    0.10    0.03
  -1   2   3    0.00    0.02
  -1   2   3    0.01    0.03
  -1   2   3    0.05    0.03
  -1   2   3   -0.03    0.04
  -1   2   3    0.02    0.04
   0  -2  -3   42.54    1.29
   0  -2  -3   44.42    1.11
   0  -2  -3   44.66    1.18
   0  -2  -3   44.38    1.11
   0  -2  -3   45.01    1.29
   0  -2  -3   45.14    1.24
   0  -2  -3   44.48    1.13
   0   2   3   45.15    1.29
   0   2   3   43.60    1.18
   0   2   3   41.03    1.29
   0   2   3   44.11    1.11
   0   2   3   44.42    1.13
   0   2   3   45.23    1.16
  -1  -2  -3   21.34    0.61
  -1  -2  -3   21.94    0.59
  -1  -2  -3   21.86    0.66
  -1  -2  -3   21.60    0.66
  -1  -2  -3   21.43    0.49
  -1  -2  -3   21.80    0.57
  -1  -2  -3   22.08    0.57
  -1  -2  -3   21.40    0.65
   1   2   3   22.08    0.66
   1   2   3   22.79    0.60
   1   2   3   21.62    0.59
   1   2   3   21.34    0.57
   1   2   3   21.89    0.57
   1   2   3   21.71    0.61
   1   2   3   21.37    0.66
  -2  -2  -3    0.91    0.08
  -2  -2  -3    0.77    0.07
  -2  -2  -3    0.94    0.09
  -2  -2  -3    0.72    0.09
  -2  -2  -3    0.42    0.08
  -2  -2  -3    0.88    0.08
  -2  -2  -3    0.72    0.07
   2   2   3    0.70    0.08
   2   2   3    0.86    0.08
   2   2   3    0.75    0.07
   2   2   3    0.72    0.07
   2   2   3    1.03    0.08
   2   2   3    0.63    0.07
   2   2   3    0.47    0.08
  -3  -2  -3   17.25    0.46
  -3  -2  -3   17.40    0.47
  -3  -2  -3   17.00    0.41
  -3  -2  -3   17.18    0.56
  -3  -2  -3   17.34    0.54
  -3  -2  -3   17.33    0.54
   3   2   3   17.46    0.48
   3   2   3   17.06    0.52
   3   2   3   17.31    0.54
   3   2   3   16.97    0.54
   3   2   3   17.68    0.51
   3   2   3   16.88    0.47
   3   2   3   17.56    0.50
  -4  -2  -3    1.37    0.11
  -4  -2  -3    1.42    0.11
  -4  -2  -3    1.13    0.14
  -4  -2  -3    1.18    0.09
  -4  -2  -3    1.31    0.10
   4   2   3    1.07    0.09
   4   2   3    1.30    0.12
   4   2   3    1.46    0.12
   4   2   3    1.03    0.11
  -5  -2  -3    0.19    0.06
  -5  -2  -3    0.33    0.10
   5   2   3    0.34    0.06
   5   2   3    0.37    0.07
   5   2   3    0.16    0.06
   5   2   3    0.36    0.08
  -6  -2  -3    8.38    0.37
  -6  -2  -3    7.59    0.30
   6   2   3    7.83    0.30
   6   2   3    8.11    0.29
  -7  -2  -3    1.41    0.18
  -7  -2  -3    1.50    0.13
   7   2   3    1.35    0.13
   7   2   3    1.22    0.13
  12  -3  -3    0.28    0.09
  12  -3  -3    0.11    0.10
 -12   3   3    0.03    0.09
  11  -3  -3    0.26    0.10
  11  -3  -3    0.20    0.08
 -11   3   3    0.09    0.09
 -11   3   3    0.13    0.09
  10  -3  -3   20.31    0.60
  10  -3  -3   19.51    0.52
  10  -3  -3   19.83    0.67
 -10   3   3   19.27    0.67
 -10   3   3   19.77    0.56
   9  -3  -3   15.91    0.42
   9  -3  -3   15.63    0.54
  -9   3   3   15.36    0.54
  -9   3   3   14.73    0.45
  -9   3   3   16.02    0.55
   8  -3  -3    2.79    0.18
   8  -3  -3    2.79    0.14
   8  -3  -3    2.79    0.12
  -8   3   3    2.68    0.15
  -8   3   3    2.71    0.12
  -8   3   3    2.80    0.18
  -8   3   3    3.07    0.17
   7  -3  -3    7.27    0.29
   7  -3  -3    7.14    0.21
   7  -3  -3    7.20    0.22
  -7   3   3    7.32    0.29
  -7   3   3    7.14    0.22
  -7   3   3    7.08    0.23
  -7   3   3    6.64    0.28
   6  -3  -3   39.24    0.99
   6  -3  -3   40.97    1.18
   6  -3  -3   39.55    1.18
  -6   3   3   39.91    0.99
  -6   3   3   39.01    1.18
  -6   3   3   39.25    0.99
  -6   3   3   36.25    1.17
   5  -3  -3   18.40    0.49
   5  -3  -3   18.09    0.58
   5  -3  -3   17.21    0.58
  -5   3   3   18.48    0.59
  -5   3   3   19.15    0.58
  -5   3   3   18.46    0.49
  -5   3   3   18.64    0.48
   4  -3  -3   93.36    2.57
   4  -3  -3   94.36    2.73
   4  -3  -3   95.12    2.73
   4  -3  -3   95.42    2.33
   4  -3  -3   97.06    2.47
  -4   3   3   99.58    2.74
  -4   3   3   95.97    2.33
  -4   3   3   87.65    2.73
  -4   3   3   96.64    2.37
   3  -3  -3  300.28    7.85
   3  -3  -3  306.16    8.63
   3  -3  -3  314.14    8.71
   3  -3  -3  294.43    8.24
   3  -3  -3  309.42    7.40
   3  -3  -3  305.67    7.52
  -3   3   3  297.23    7.57
  -3   3   3  300.33    8.61
  -3   3   3  296.93    7.38
  -3   3   3  318.31    8.73
   2  -3  -3    7.20    0.25
   2  -3  -3    6.51    0.23
   2  -3  -3    6.93    0.25
   2  -3  -3    6.42    0.22
   2  -3  -3    6.97    0.22
   2  -3  -3    6.83    0.22
  -2   3   3    6.89    0.25
  -2   3   3    6.63    0.22
  -2   3   3    6.84    0.25
  -2   3   3    6.60    0.22
   1  -3  -3    5.85    0.18
   1  -3  -3    5.61    0.19
   1  -3  -3    5.70    0.22
   1  -3  -3    5.76    0.22
   1  -3  -3    5.80    0.20
   1  -3  -3    6.36    0.22
   1  -3  -3    6.10    0.20
  -1   3   3    5.92    0.22
  -1   3   3    6.05    0.20
  -1   3   3    5.65    0.17
  -1   3   3    5.75    0.22
  -1   3   3    5.82    0.20
   0  -3  -3   16.46    0.43
   0  -3  -3   16.23    0.44
   0  -3  -3   16.89    0.51
   0  -3  -3   15.73    0.45
   0  -3  -3   16.02    0.37
   0  -3  -3   16.31    0.51
   0  -3  -3   16.56    0.50
   0  -3  -3   15.58    0.48
   0   3   3   15.73    0.46
   0   3   3   15.87    0.47
   0   3   3   15.70    0.44
   0   3   3   16.64    0.44
   0   3   3   16.57    0.51
   0   3   3   16.28    0.51
  -1  -3  -3   16.23    0.45
  -1  -3  -3   15.69    0.36
  -1  -3  -3   15.97    0.44
  -1  -3  -3   15.50    0.47
  -1  -3  -3   14.91    0.50
  -1  -3  -3   15.48    0.50
  -1  -3  -3   15.77    0.43
  -1  -3  -3   15.95    0.50
   1   3   3   16.07    0.44
   1   3   3   15.57    0.46
   1   3   3   15.93    0.44
   1   3   3   15.54    0.50
   1   3   3   15.82    0.47
   1   3   3   16.01    0.50
  -2  -3  -3   -0.03    0.03
  -2  -3  -3   -0.02    0.05
  -2  -3  -3   -0.07    0.04
  -2  -3  -3   -0.07    0.06
  -2  -3  -3   -0.01    0.04
  -2  -3  -3    0.04    0.07
  -2  -3  -3   -0.08    0.05
   2   3   3   -0.12    0.05
   2   3   3   -0.10    0.05
   2   3   3    0.08    0.06
   2   3   3   -0.05    0.04
   2   3   3   -0.02    0.05
   2   3   3    0.06    0.05
   2   3   3   -0.11    0.05
  -3  -3  -3   16.18    0.51
  -3  -3  -3   16.25    0.55
  -3  -3  -3   15.77    0.44
  -3  -3  -3   16.15    0.51
  -3  -3  -3   15.40    0.39
  -3  -3  -3   15.42    0.44
   3   3   3   16.10    0.48
   3   3   3   16.02    0.45
   3   3   3   16.42    0.48
   3   3   3   15.39    0.45
   3   3   3   16.04    0.51
  -4  -3  -3    2.04    0.14
  -4  -3  -3    2.12    0.11
  -4  -3  -3    2.19    0.13
  -4  -3  -3    2.29    0.20
   4   3   3    1.72    0.14
   4   3   3    2.01    0.16
   4   3   3    2.17    0.13
   4   3   3    2.04    0.14
  -5  -3  -3   -0.04    0.10
  -5  -3  -3   -0.02    0.06
   5   3   3   -0.01    0.06
   5   3   3    0.18    0.08
   5   3   3    0.03    0.05
  -6  -3  -3    1.85    0.13
  -6  -3  -3    1.69    0.19
   6   3   3    1.87    0.16
   6   3   3    2.19    0.18
  12  -4  -3    0.47    0.10
  12  -4  -3    0.45    0.12
 -12   4   3    0.47    0.12
  11  -4  -3    0.20    0.10
  11  -4  -3    0.17    0.08
  11  -4  -3    0.21    0.11
 -11   4   3    0.21    0.11
 -11   4   3    0.16    0.08
  10  -4  -3    0.23    0.10
  10  -4  -3    0.27    0.08
 -10   4   3    0.10    0.07
 -10   4   3    0.30    0.05
 -10   4   3    0.23    0.10
   9  -4  -3    5.53    0.20
   9  -4  -3    5.78    0.27
  -9   4   3    4.94    0.19
  -9   4   3    5.50    0.27
  -9   4   3    5.06    0.21
   8  -4  -3    3.08    0.14
   8  -4  -3    2.94    0.19
   8  -4  -3    3.16    0.13
  -8   4   3    3.13    0.20
  -8   4   3    3.06    0.15
  -8   4   3    3.11    0.14
  -8   4   3    3.18    0.19
   7  -4  -3    0.18    0.05
   7  -4  -3    0.27    0.08
   7  -4  -3    0.18    0.05
  -7   4   3    0.30    0.09
  -7   4   3    0.33    0.08
  -7   4   3    0.19    0.06
  -7   4   3    0.31    0.04
   6  -4  -3   15.82    0.55
   6  -4  -3   16.73    0.46
   6  -4  -3   16.56    0.55
  -6   4   3   17.14    0.45
  -6   4   3   17.64    0.55
  -6   4   3   16.04    0.55
  -6   4   3   16.64    0.46
   5  -4  -3    2.92    0.17
   5  -4  -3    3.23    0.17
   5  -4  -3    3.18    0.14
  -5   4   3    3.07    0.13
  -5   4   3    3.39    0.17
  -5   4   3    3.03    0.14
  -5   4   3    3.03    0.17
   4  -4  -3  201.83    5.68
   4  -4  -3  202.04    4.86
   4  -4  -3  192.99    5.39
   4  -4  -3  199.08    5.15
   4  -4  -3  201.33    5.68
  -4   4   3  206.73    5.68
  -4   4   3  200.89    5.68
  -4   4   3  193.20    4.86
  -4   4   3  198.19    4.94
   3  -4  -3  103.16    2.94
   3  -4  -3  100.06    2.79
   3  -4  -3  100.96    2.94
   3  -4  -3  103.62    2.52
  -3   4   3  100.65    2.52
  -3   4   3   99.38    2.94
  -3   4   3  107.39    2.94
  -3   4   3  102.49    2.56
   2  -4  -3   26.77    0.77
   2  -4  -3   28.31    0.81
   2  -4  -3   27.06    0.70
   2  -4  -3   25.35    0.74
   2  -4  -3   27.80    0.82
  -2   4   3   25.05    0.81
  -2   4   3   26.29    0.70
  -2   4   3   26.23    0.72
  -2   4   3   27.33    0.81
   1  -4  -3   17.37    0.49
   1  -4  -3   16.83    0.38
   1  -4  -3   17.17    0.54
   1  -4  -3   17.03    0.51
   1  -4  -3   17.43    0.50
   1  -4  -3   16.82    0.48
   1  -4  -3   16.85    0.55
   1  -4  -3   17.64    0.53
   1  -4  -3   17.54    0.46
  -1   4   3   17.04    0.48
  -1   4   3   16.92    0.46
  -1   4   3   17.05    0.49
  -1   4   3   17.43    0.55
  -1   4   3   17.87    0.55
   0  -4  -3   27.25    0.73
   0  -4  -3   27.29    0.83
   0  -4  -3   28.37    0.83
   0  -4  -3   27.95    0.79
   0  -4  -3   28.09    0.82
   0  -4  -3   27.63    0.71
   0  -4  -3   26.66    0.60
   0   4   3   27.55    0.78
   0   4   3   27.07    0.75
   0   4   3   27.26    0.73
   0   4   3   28.00    0.83
   0   4   3   26.88    0.74
   0   4   3   28.00    0.84
  -1  -4  -3   29.52    0.89
  -1  -4  -3   29.51    0.79
  -1  -4  -3   28.51    0.65
  -1  -4  -3   29.77    0.89
  -1  -4  -3   29.77    0.84
  -1  -4  -3   28.93    0.76
  -1  -4  -3   29.55    0.88
   1   4   3   29.37    0.84
   1   4   3   29.49    0.81
   1   4   3   29.08    0.78
   1   4   3   29.63    0.90
   1   4   3   30.15    0.89
   1   4   3   28.97    0.80
  -2  -4  -3   35.15    1.09
  -2  -4  -3   35.60    0.94
  -2  -4  -3   37.04    1.10
  -2  -4  -3   37.56    1.10
  -2  -4  -3   38.01    1.04
  -2  -4  -3   36.44    0.82
   2   4   3   37.15    1.10
   2   4   3   37.33    0.96
   2   4   3   37.21    1.00
   2   4   3   36.91    1.00
  -3  -4  -3   32.65    1.00
  -3  -4  -3   31.19    0.84
  -3  -4  -3   31.78    0.97
  -3  -4  -3   32.36    0.97
   3   4   3   32.97    0.90
   3   4   3   32.54    0.98
   3   4   3   32.13    0.85
   3   4   3   32.55    0.85
  -4  -4  -3    5.07    0.22
  -4  -4  -3    5.14    0.30
   4   4   3    5.37    0.25
   4   4   3    5.27    0.21
   4   4   3    5.52    0.22
  -5  -4  -3    0.08    0.05
  -5  -4  -3    0.05    0.11
   5   4   3   -0.01    0.08
   5   4   3    0.10    0.08
   6   4   3    0.07    0.09
  12  -5  -3    0.71    0.11
  12  -5  -3    0.76    0.13
 -12   5   3    0.62    0.14
  11  -5  -3    2.00    0.23
  11  -5  -3    1.85    0.16
  11  -5  -3    2.30    0.19
 -11   5   3    2.04    0.15
 -11   5   3    1.94    0.22
  10  -5  -3    2.98    0.16
  10  -5  -3    2.74    0.22
 -10   5   3    2.56    0.15
 -10   5   3    2.71    0.22
 -10   5   3    2.86    0.14
   9  -5  -3    1.76    0.14
   9  -5  -3    2.06    0.19
  -9   5   3    2.28    0.14
  -9   5   3    2.09    0.20
  -9   5   3    2.16    0.14
   8  -5  -3    6.72    0.21
   8  -5  -3    6.76    0.23
   8  -5  -3    7.16    0.32
  -8   5   3    6.79    0.21
  -8   5   3    6.63    0.23
  -8   5   3    7.05    0.32
  -8   5   3    6.53    0.24
   7  -5  -3    4.05    0.18
   7  -5  -3    4.68    0.24
   7  -5  -3    4.16    0.15
  -7   5   3    4.10    0.19
  -7   5   3    4.48    0.17
  -7   5   3    4.48    0.24
   6  -5  -3    6.59    0.29
   6  -5  -3    6.85    0.25
   6  -5  -3    7.57    0.31
  -6   5   3    6.57    0.29
  -6   5   3    6.84    0.24
  -6   5   3    6.68    0.23
   5  -5  -3   15.75    0.52
   5  -5  -3   15.34    0.42
   5  -5  -3   14.42    0.51
  -5   5   3   15.72    0.44
  -5   5   3   15.54    0.44
  -5   5   3   15.13    0.52
   4  -5  -3   13.35    0.41
   4  -5  -3   14.16    0.46
   4  -5  -3   13.00    0.46
  -4   5   3   13.36    0.40
  -4   5   3   13.60    0.46
  -4   5   3   13.18    0.40
   3  -5  -3    0.81    0.08
   3  -5  -3    0.93    0.09
   3  -5  -3    0.69    0.08
   3  -5  -3    0.73    0.09
  -3   5   3    0.73    0.08
  -3   5   3    0.87    0.10
  -3   5   3    0.74    0.08
   2  -5  -3    0.71    0.09
   2  -5  -3    0.81    0.04
   2  -5  -3    0.82    0.08
   2  -5  -3    0.74    0.08
   2  -5  -3    0.77    0.09
   2  -5  -3    0.80    0.07
  -2   5   3    0.79    0.09
  -2   5   3    0.83    0.09
  -2   5   3    0.81    0.09
   1  -5  -3   18.73    0.58
   1  -5  -3   18.97    0.56
   1  -5  -3   17.81    0.57
   1  -5  -3   17.71    0.40
   1  -5  -3   17.99    0.58
   1  -5  -3   18.29    0.54
   1  -5  -3   17.66    0.49
  -1   5   3   18.84    0.59
  -1   5   3   18.18    0.52
  -1   5   3   17.85    0.53
   0  -5  -3    0.06    0.07
   0  -5  -3    0.17    0.04
   0  -5  -3    0.03    0.08
   0  -5  -3    0.10    0.06
   0  -5  -3    0.05    0.06
   0  -5  -3    0.12    0.03
   0   5   3   -0.02    0.06
   0   5   3    0.07    0.07
   0   5   3    0.18    0.04
   0   5   3    0.13    0.07
  -1  -5  -3   12.65    0.36
  -1  -5  -3   13.25    0.44
  -1  -5  -3   12.25    0.43
  -1  -5  -3   13.63    0.44
  -1  -5  -3   13.65    0.48
   1   5   3   12.71    0.44
   1   5   3   13.25    0.40
   1   5   3   12.67    0.42
   1   5   3   12.38    0.38
  -2  -5  -3   16.71    0.58
  -2  -5  -3   15.23    0.52
   2   5   3   16.40    0.48
   2   5   3   16.35    0.51
  -3  -5  -3    0.12    0.11
  -3  -5  -3   -0.07    0.06
   3   5   3    0.04    0.07
   3   5   3    0.02    0.09
  -4  -5  -3    2.37    0.14
  -4  -5  -3    2.37    0.25
   4   5   3    2.73    0.21
   4   5   3    2.39    0.16
  12  -6  -3    0.00    0.10
  12  -6  -3    0.10    0.08
  12  -6  -3   -0.04    0.11
 -12   6   3   -0.07    0.11
  11  -6  -3    0.64    0.14
  11  -6  -3    0.76    0.10
 -11   6   3    0.55    0.14
  10  -6  -3    0.52    0.12
  10  -6  -3    0.53    0.08
 -10   6   3    0.63    0.08
 -10   6   3    0.54    0.12
 -10   6   3    0.48    0.08
   9  -6  -3    0.04    0.09
   9  -6  -3    0.10    0.06
  -9   6   3    0.00    0.04
  -9   6   3    0.11    0.06
  -9   6   3    0.09    0.07
  -9   6   3    0.03    0.09
   8  -6  -3   10.70    0.29
   8  -6  -3   10.61    0.42
  -8   6   3   10.71    0.34
  -8   6   3   10.48    0.32
  -8   6   3   10.31    0.42
   7  -6  -3   29.29    0.93
   7  -6  -3   29.13    0.66
  -7   6   3   28.68    0.78
  -7   6   3   28.45    0.93
  -7   6   3   29.39    0.78
   6  -6  -3   97.30    2.05
   6  -6  -3   94.84    2.49
   6  -6  -3   94.43    2.49
   6  -6  -3   96.57    2.81
  -6   6   3   99.52    2.40
  -6   6   3   93.46    2.80
  -6   6   3   97.40    2.43
   5  -6  -3   14.87    0.52
   5  -6  -3   15.30    0.52
   5  -6  -3   14.84    0.34
  -5   6   3   15.02    0.45
  -5   6   3   15.46    0.53
  -5   6   3   15.00    0.45
   4  -6  -3   18.82    0.57
   4  -6  -3   19.45    0.57
   4  -6  -3   20.13    0.63
   4  -6  -3   19.09    0.63
  -4   6   3   17.74    0.63
  -4   6   3   19.03    0.55
  -4   6   3   19.39    0.55
   3  -6  -3    0.97    0.11
   3  -6  -3    0.79    0.09
   3  -6  -3    1.16    0.12
   3  -6  -3    0.98    0.11
  -3   6   3    0.79    0.10
  -3   6   3    0.90    0.11
  -3   6   3    0.94    0.10
   2  -6  -3    1.22    0.12
   2  -6  -3    1.17    0.13
   2  -6  -3    1.07    0.11
   2  -6  -3    0.83    0.11
   2  -6  -3    1.04    0.10
   2  -6  -3    1.10    0.09
  -2   6   3    0.87    0.11
  -2   6   3    0.86    0.11
  -2   6   3    0.95    0.11
   1  -6  -3    0.09    0.07
   1  -6  -3    0.14    0.08
   1  -6  -3    0.06    0.07
   1  -6  -3    0.16    0.06
   1  -6  -3    0.10    0.08
   1  -6  -3    0.16    0.05
  -1   6   3    0.11    0.07
  -1   6   3    0.08    0.07
  -1   6   3    0.10    0.08
   0  -6  -3   10.86    0.39
   0  -6  -3   10.35    0.31
   0  -6  -3   10.52    0.38
   0  -6  -3   11.47    0.42
   0  -6  -3   11.05    0.40
   0   6   3   11.25    0.38
   0   6   3   11.38    0.37
   0   6   3   10.98    0.39
  -1  -6  -3    3.90    0.22
  -1  -6  -3    4.74    0.28
  -1  -6  -3    4.47    0.26
   1   6   3    5.08    0.26
   1   6   3    4.54    0.23
  -2  -6  -3    5.73    0.24
  -2  -6  -3    5.83    0.32
   2   6   3    6.02    0.29
   2   6   3    6.00    0.26
  -3  -6  -3    3.52    0.28
  -3  -6  -3    3.73    0.17
   3   6   3    4.09    0.25
   3   6   3    3.82    0.21
  12  -7  -3    1.17    0.15
  12  -7  -3    1.21    0.18
  12  -7  -3    1.14    0.12
 -12   7   3    1.19    0.18
  11  -7  -3    1.52    0.19
  11  -7  -3    1.88    0.14
 -11   7   3    1.85    0.15
 -11   7   3    1.47    0.18
  10  -7  -3    0.30    0.11
  10  -7  -3    0.33    0.07
 -10   7   3    0.30    0.12
 -10   7   3    0.32    0.07
 -10   7   3    0.26    0.08
   9  -7  -3    3.27    0.15
   9  -7  -3    3.41    0.25
  -9   7   3    3.55    0.16
  -9   7   3    3.32    0.19
  -9   7   3    3.80    0.26
   8  -7  -3    1.32    0.15
   8  -7  -3    1.37    0.10
  -8   7   3    1.40    0.13
  -8   7   3    1.27    0.15
  -8   7   3    1.43    0.13
   7  -7  -3   -0.06    0.08
   7  -7  -3    0.06    0.03
   7  -7  -3    0.01    0.03
   7  -7  -3    0.07    0.04
  -7   7   3   -0.04    0.07
  -7   7   3    0.05    0.07
  -7   7   3    0.00    0.09
   6  -7  -3    0.16    0.10
   6  -7  -3    0.28    0.04
  -6   7   3    0.28    0.08
  -6   7   3    0.14    0.07
  -6   7   3    0.10    0.10
   5  -7  -3    2.70    0.19
   5  -7  -3    2.36    0.17
   5  -7  -3    2.31    0.19
  -5   7   3    2.53    0.17
  -5   7   3    2.61    0.20
  -5   7   3    2.56    0.17
   4  -7  -3    4.05    0.21
   4  -7  -3    3.38    0.19
   4  -7  -3    3.55    0.21
   4  -7  -3    3.46    0.19
  -4   7   3    3.65    0.20
  -4   7   3    3.60    0.20
  -4   7   3    3.42    0.22
   3  -7  -3    1.82    0.18
   3  -7  -3    2.07    0.17
   3  -7  -3    1.92    0.11
   3  -7  -3    1.88    0.16
   3  -7  -3    2.13    0.17
   3  -7  -3    1.87    0.16
  -3   7   3    1.99    0.17
  -3   7   3    2.01    0.17
  -3   7   3    1.77    0.17
   2  -7  -3    3.24    0.21
   2  -7  -3    3.36    0.19
   2  -7  -3    3.39    0.21
   2  -7  -3    3.00    0.18
   2  -7  -3    2.84    0.13
   2  -7  -3    3.05    0.19
  -2   7   3    3.34    0.20
  -2   7   3    3.15    0.19
  -2   7   3    2.97    0.20
   1  -7  -3    1.90    0.19
   1  -7  -3    1.35    0.15
   1  -7  -3    1.62    0.16
  -1   7   3    1.56    0.14
  -1   7   3    1.24    0.14
  -1   7   3    1.36    0.14
   0  -7  -3   20.80    0.66
   0  -7  -3   19.21    0.65
   0  -7  -3   20.25    0.68
   0   7   3   20.04    0.60
   0   7   3   20.60    0.63
  -1  -7  -3    1.66    0.18
  -1  -7  -3    1.98    0.15
  -1  -7  -3    1.66    0.19
   1   7   3    1.61    0.15
   1   7   3    1.78    0.18
  -2  -7  -3    0.06    0.06
  -2  -7  -3    0.00    0.11
   2   7   3   -0.02    0.08
   2   7   3   -0.09    0.10
  11  -8  -3    0.01    0.11
  11  -8  -3    0.11    0.06
 -11   8   3    0.08    0.08
 -11   8   3    0.07    0.12
  10  -8  -3    3.52    0.27
  10  -8  -3    3.11    0.15
 -10   8   3    3.27    0.20
 -10   8   3    3.54    0.27
   9  -8  -3    0.18    0.11
   9  -8  -3    0.14    0.05
  -9   8   3    0.10    0.09
  -9   8   3    0.05    0.10
  -9   8   3   -0.10    0.06
   8  -8  -3    2.81    0.11
   8  -8  -3    2.42    0.22
  -8   8   3    2.98    0.20
  -8   8   3    2.75    0.17
  -8   8   3    2.49    0.23
   7  -8  -3    4.49    0.13
   7  -8  -3    4.52    0.27
  -7   8   3    4.75    0.22
  -7   8   3    4.31    0.23
  -7   8   3    4.57    0.28
   6  -8  -3   -0.02    0.08
   6  -8  -3    0.07    0.08
  -6   8   3    0.02    0.09
  -6   8   3    0.24    0.08
  -6   8   3    0.12    0.08
   5  -8  -3    1.29    0.14
   5  -8  -3    1.49    0.14
   5  -8  -3    1.30    0.14
  -5   8   3    1.34    0.13
  -5   8   3    1.29    0.13
  -5   8   3    1.28    0.15
   4  -8  -3    4.66    0.26
   4  -8  -3    4.97    0.26
   4  -8  -3    4.79    0.24
  -4   8   3    4.60    0.27
  -4   8   3    4.59    0.24
  -4   8   3    5.00    0.25
   3  -8  -3    3.28    0.21
   3  -8  -3    3.12    0.20
   3  -8  -3    3.05    0.22
   3  -8  -3    3.06    0.21
  -3   8   3    2.97    0.21
  -3   8   3    2.78    0.21
  -3   8   3    3.37    0.21
   2  -8  -3    0.03    0.08
   2  -8  -3   -0.01    0.09
   2  -8  -3    0.04    0.08
   2  -8  -3   -0.07    0.09
  -2   8   3   -0.09    0.08
  -2   8   3    0.05    0.09
   1  -8  -3   -0.02    0.10
   1  -8  -3   -0.05    0.08
   1  -8  -3    0.13    0.11
  -1   8   3    0.07    0.09
  -1   8   3    0.06    0.10
   0  -8  -3    0.31    0.12
   0  -8  -3    0.28    0.13
   0  -8  -3    0.15    0.08
   0   8   3    0.17    0.10
   0   8   3    0.15    0.12
  -1  -8  -3    1.29    0.13
  -1  -8  -3    1.47    0.19
   1   8   3    1.28    0.15
   1   8   3    1.37    0.17
  11  -9  -3   -0.11    0.10
 -11   9   3   -0.06    0.08
 -11   9   3    0.02    0.12
  10  -9  -3    0.06    0.11
 -10   9   3    0.14    0.09
 -10   9   3    0.14    0.12
 -10   9   3   -0.08    0.07
   9  -9  -3    0.58    0.14
  -9   9   3    0.51    0.11
  -9   9   3    0.51    0.14
  -9   9   3    0.42    0.10
   8  -9  -3    1.30    0.17
  -8   9   3    1.40    0.14
  -8   9   3    1.33    0.15
  -8   9   3    1.37    0.18
   7  -9  -3    0.20    0.11
   7  -9  -3    0.21    0.10
  -7   9   3    0.24    0.09
  -7   9   3    0.24    0.10
  -7   9   3    0.25    0.12
   6  -9  -3    0.08    0.09
   6  -9  -3    0.07    0.09
  -6   9   3    0.08    0.10
  -6   9   3   -0.03    0.09
  -6   9   3    0.17    0.09
   5  -9  -3    0.23    0.09
   5  -9  -3    0.25    0.10
   5  -9  -3    0.11    0.10
  -5   9   3    0.06    0.09
  -5   9   3    0.12    0.10
  -5   9   3    0.10    0.09
   4  -9  -3    3.66    0.23
   4  -9  -3    3.66    0.24
   4  -9  -3    4.04    0.26
  -4   9   3    3.65    0.25
  -4   9   3    3.80    0.25
   3  -9  -3    0.92    0.13
   3  -9  -3    0.90    0.15
   3  -9  -3    0.87    0.12
  -3   9   3    0.80    0.13
  -3   9   3    0.98    0.14
   2  -9  -3    2.37    0.24
   2  -9  -3    2.05    0.19
  -2   9   3    2.02    0.18
  -2   9   3    2.46    0.23
   1  -9  -3   -0.07    0.10
   1  -9  -3    0.11    0.08
   1  -9  -3   -0.17    0.11
  -1   9   3   -0.12    0.10
  -1   9   3    0.02    0.12
   9 -10  -3   -0.23    0.11
  -9  10   3   -0.05    0.09
  -9  10   3   -0.01    0.10
  -9  10   3   -0.12    0.12
   8 -10  -3    1.52    0.18
   8 -10  -3    1.41    0.16
  -8  10   3    1.34    0.15
  -8  10   3    1.36    0.15
  -8  10   3    1.42    0.18
   7 -10  -3    0.04    0.09
   7 -10  -3    0.06    0.10
  -7  10   3    0.08    0.09
  -7  10   3    0.02    0.10
  -7  10   3    0.14    0.12
   6 -10  -3   -0.06    0.10
   6 -10  -3    0.00    0.10
   6 -10  -3   -0.03    0.09
  -6  10   3    0.05    0.10
  -6  10   3   -0.03    0.10
   5 -10  -3    0.02    0.10
   5 -10  -3    0.05    0.09
   5 -10  -3    0.08    0.11
  -5  10   3   -0.05    0.10
  -5  10   3   -0.09    0.10
   4 -10  -3   -0.03    0.09
   4 -10  -3    0.06    0.11
   4 -10  -3    0.03    0.09
  -4  10   3   -0.02    0.10
  -4  10   3    0.08    0.11
   3 -10  -3    0.21    0.10
   3 -10  -3    0.18    0.10
   3 -10  -3    0.24    0.13
  -3  10   3    0.34    0.13
  -3  10   3    0.15    0.12
   6 -13   4   -0.02    0.10
  -2  12  -4    1.69    0.17
  -2  12  -4    1.74    0.20
   2 -12   4    2.05    0.14
   2 -12   4    1.72    0.19
  -3  12  -4    0.04    0.11
   3 -12   4   -0.02    0.07
   3 -12   4   -0.01    0.10
   3 -12   4   -0.08    0.10
  -4  12  -4    1.60    0.17
   4 -12   4    2.11    0.22
   4 -12   4    1.56    0.15
   4 -12   4    1.99    0.20
  -5  12  -4    0.73    0.13
   5 -12   4    0.52    0.12
   5 -12   4    0.70    0.12
   5 -12   4    0.61    0.12
  -6  12  -4    0.85    0.14
   6 -12   4    1.20    0.14
   6 -12   4    0.90    0.14
   6 -12   4    0.92    0.14
  -7  12  -4    0.09    0.11
   7 -12   4   -0.06    0.09
   7 -12   4    0.13    0.10
   7 -12   4    0.13    0.09
  -8  12  -4   -0.06    0.09
  -8  12  -4    0.03    0.11
   8 -12   4    0.09    0.11
   8 -12   4    0.06    0.08
   8 -12   4    0.08    0.07
  -9  12  -4    0.23    0.13
  -9  12  -4    0.34    0.11
   9 -12   4    0.50    0.10
   9 -12   4    0.25    0.13
   9 -12   4    0.21    0.09
   0  11  -4    0.08    0.10
   0  11  -4    0.14    0.11
  -1  11  -4    0.09    0.10
  -1  11  -4    0.15    0.10
   1 -11   4    0.13    0.10
   1 -11   4    0.04    0.05
  -2  11  -4    2.63    0.21
  -2  11  -4    2.42    0.16
   2 -11   4    2.54    0.22
   2 -11   4    2.70    0.16
  -3  11  -4    3.06    0.17
  -3  11  -4    2.77    0.22
   3 -11   4    2.74    0.22
   3 -11   4    2.78    0.19
   3 -11   4    2.91    0.23
  -4  11  -4    1.35    0.15
  -4  11  -4    1.38    0.13
   4 -11   4    1.39    0.15
   4 -11   4    1.79    0.18
   4 -11   4    1.09    0.13
  -5  11  -4    0.38    0.10
  -5  11  -4    0.35    0.10
  -5  11  -4    0.27    0.07
   5 -11   4    0.50    0.10
   5 -11   4    0.26    0.09
   5 -11   4    0.45    0.06
   5 -11   4    0.27    0.11
  -6  11  -4    0.04    0.09
  -6  11  -4    0.25    0.10
   6 -11   4    0.07    0.09
   6 -11   4    0.07    0.09
   6 -11   4    0.10    0.08
   6 -11   4   -0.04    0.05
  -7  11  -4    1.74    0.20
  -7  11  -4    1.58    0.15
   7 -11   4    2.02    0.17
   7 -11   4    1.80    0.14
   7 -11   4    1.51    0.17
  -8  11  -4    0.61    0.13
  -8  11  -4    0.49    0.11
   8 -11   4    0.48    0.13
   8 -11   4    0.54    0.10
   8 -11   4    0.61    0.10
  -9  11  -4   -0.16    0.10
  -9  11  -4   -0.01    0.09
   9 -11   4   -0.07    0.11
   9 -11   4    0.04    0.08
 -10  11  -4   -0.15    0.11
 -10  11  -4   -0.05    0.09
  10 -11   4    0.05    0.09
  10 -11   4   -0.13    0.12
   2  10  -4    1.89    0.18
   2  10  -4    1.80    0.16
   2  10  -4    1.69    0.18
   1  10  -4   -0.04    0.08
   1  10  -4   -0.02    0.07
   1  10  -4   -0.03    0.10
   0  10  -4    4.91    0.25
   0  10  -4    5.10    0.23
  -1  10  -4    2.37    0.19
  -1  10  -4    2.60    0.16
   1 -10   4    2.54    0.14
   1 -10   4    2.17    0.21
  -2  10  -4    7.48    0.30
  -2  10  -4    7.35    0.27
   2 -10   4    7.05    0.32
   2 -10   4    6.72    0.31
   2 -10   4    6.82    0.28
  -3  10  -4   23.67    0.68
  -3  10  -4   22.84    0.67
  -3  10  -4   23.44    0.74
   3 -10   4   23.87    0.71
   3 -10   4   23.76    0.73
   3 -10   4   22.33    0.66
   3 -10   4   23.32    0.74
  -4  10  -4    4.23    0.20
  -4  10  -4    4.76    0.24
  -4  10  -4    4.95    0.23
   4 -10   4    4.96    0.23
   4 -10   4    4.92    0.24
   4 -10   4    4.18    0.19
   4 -10   4    4.71    0.16
   4 -10   4    4.65    0.26
  -5  10  -4    0.54    0.10
  -5  10  -4    0.39    0.08
  -5  10  -4    0.43    0.10
   5 -10   4    0.48    0.06
   5 -10   4    0.41    0.09
   5 -10   4    0.58    0.10
   5 -10   4    0.22    0.10
   5 -10   4    0.52    0.10
  -6  10  -4    3.34    0.20
  -6  10  -4    3.29    0.17
  -6  10  -4    3.17    0.22
   6 -10   4    3.09    0.18
   6 -10   4    3.24    0.16
   6 -10   4    3.35    0.22
  -7  10  -4    0.28    0.08
  -7  10  -4    0.14    0.10
   7 -10   4    0.08    0.07
   7 -10   4    0.17    0.10
   7 -10   4    0.10    0.07
  -8  10  -4    0.55    0.10
  -8  10  -4    0.55    0.13
   8 -10   4    0.74    0.13
   8 -10   4    0.77    0.10
  -9  10  -4    0.38    0.10
  -9  10  -4    0.35    0.14
   9 -10   4    0.48    0.10
   9 -10   4    0.32    0.13
 -10  10  -4    0.07    0.13
 -10  10  -4    0.18    0.08
  10 -10   4    0.18    0.13
  10 -10   4    0.24    0.10
   3   9  -4    0.42    0.10
   3   9  -4    0.48    0.11
   3   9  -4    0.48    0.11
   2   9  -4    2.18    0.18
   2   9  -4    2.26    0.20
   2   9  -4    2.32    0.18
   1   9  -4    2.67    0.11
   1   9  -4    3.00    0.18
   1   9  -4    2.62    0.18
   0   9  -4    4.55    0.22
   0   9  -4    4.56    0.20
   0  -9   4    4.00    0.24
   0  -9   4    3.83    0.16
  -1   9  -4    0.21    0.08
  -1   9  -4    0.17    0.06
  -1   9  -4    0.13    0.07
   1  -9   4    0.01    0.09
   1  -9   4    0.08    0.04
   1  -9   4    0.14    0.06
  -2   9  -4   33.77    0.93
  -2   9  -4   32.05    0.85
  -2   9  -4   33.06    1.01
  -2   9  -4   33.91    0.91
   2  -9   4   33.35    0.96
   2  -9   4   32.55    1.00
   2  -9   4   33.43    0.92
   2  -9   4   33.40    1.01
   2  -9   4   34.10    0.98
  -3   9  -4   21.81    0.50
  -3   9  -4   21.73    0.58
  -3   9  -4   22.38    0.64
  -3   9  -4   22.16    0.64
  -3   9  -4   22.22    0.71
   3  -9   4   23.01    0.69
   3  -9   4   22.80    0.71
   3  -9   4   22.42    0.57
   3  -9   4   22.00    0.71
   3  -9   4   22.15    0.64
   3  -9   4   23.00    0.67
  -4   9  -4    0.33    0.08
  -4   9  -4    0.51    0.05
  -4   9  -4    0.49    0.09
  -4   9  -4    0.26    0.07
   4  -9   4    0.41    0.06
   4  -9   4    0.52    0.09
   4  -9   4    0.46    0.07
   4  -9   4    0.47    0.08
   4  -9   4    0.16    0.09
   4  -9   4    0.38    0.09
  -5   9  -4    4.15    0.20
  -5   9  -4    3.54    0.21
  -5   9  -4    3.67    0.12
  -5   9  -4    3.53    0.18
   5  -9   4    3.90    0.21
   5  -9   4    3.66    0.18
   5  -9   4    3.57    0.21
   5  -9   4    3.69    0.16
  -6   9  -4   -0.01    0.08
  -6   9  -4    0.05    0.06
  -6   9  -4   -0.05    0.07
  -6   9  -4    0.00    0.04
   6  -9   4    0.01    0.05
   6  -9   4   -0.01    0.06
   6  -9   4   -0.01    0.08
  -7   9  -4    0.03    0.07
  -7   9  -4    0.04    0.10
   7  -9   4   -0.02    0.09
   7  -9   4    0.12    0.07
  -8   9  -4   33.28    0.92
  -8   9  -4   35.11    1.11
   8  -9   4   34.16    1.10
   8  -9   4   34.44    0.93
  -9   9  -4    6.40    0.27
  -9   9  -4    6.53    0.35
   9  -9   4    6.66    0.36
   9  -9   4    6.42    0.29
 -10   9  -4    5.22    0.33
 -10   9  -4    4.13    0.21
  10  -9   4    4.86    0.31
  10  -9   4    5.00    0.26
 -11   9  -4    0.31    0.13
  11  -9   4    0.32    0.11
  11  -9   4    0.38    0.13
   5   8  -4    2.48    0.21
   5   8  -4    2.76    0.22
   4   8  -4   13.44    0.45
   4   8  -4   13.26    0.36
   4   8  -4   12.96    0.42
   4   8  -4   13.45    0.47
   3   8  -4    0.19    0.06
   3   8  -4    0.09    0.08
   3   8  -4    0.28    0.09
   3   8  -4    0.12    0.08
   2   8  -4    1.60    0.14
   2   8  -4    1.72    0.15
   1   8  -4   10.12    0.34
   1   8  -4    9.50    0.33
   0   8  -4    2.08    0.15
   0   8  -4    2.04    0.15
   0   8  -4    2.11    0.11
   0   8  -4    1.98    0.11
   0  -8   4    2.12    0.11
   0  -8   4    2.12    0.11
   0  -8   4    1.55    0.17
  -1   8  -4    0.79    0.09
  -1   8  -4    0.58    0.08
   1  -8   4    0.58    0.07
   1  -8   4    0.99    0.11
   1  -8   4    0.74    0.11
  -2   8  -4   44.01    1.17
  -2   8  -4   42.23    1.07
  -2   8  -4   42.79    1.28
   2  -8   4   43.49    1.07
   2  -8   4   42.18    1.27
   2  -8   4   43.26    1.21
   2  -8   4   42.13    1.27
   2  -8   4   43.80    1.19
   2  -8   4   43.97    1.17
  -3   8  -4   41.66    1.13
  -3   8  -4   41.15    1.24
   3  -8   4   41.42    1.24
   3  -8   4   41.36    1.14
   3  -8   4   41.02    1.04
   3  -8   4   41.03    1.12
   3  -8   4   41.28    1.24
   3  -8   4   42.25    1.17
  -4   8  -4    0.52    0.09
  -4   8  -4    0.21    0.07
  -4   8  -4    0.30    0.05
   4  -8   4    0.36    0.08
   4  -8   4    0.46    0.08
   4  -8   4    0.45    0.07
   4  -8   4    0.25    0.06
   4  -8   4    0.29    0.07
  -5   8  -4   16.14    0.49
  -5   8  -4   16.27    0.55
  -5   8  -4   16.17    0.39
   5  -8   4   16.53    0.46
   5  -8   4   16.47    0.55
   5  -8   4   15.78    0.55
   5  -8   4   16.00    0.48
   5  -8   4   16.14    0.49
  -6   8  -4    1.03    0.13
  -6   8  -4    1.01    0.09
   6  -8   4    1.21    0.13
   6  -8   4    0.98    0.09
  -7   8  -4    6.61    0.25
  -7   8  -4    6.11    0.31
   7  -8   4    6.74    0.31
   7  -8   4    5.95    0.25
  -8   8  -4    4.29    0.22
  -8   8  -4    4.71    0.29
   8  -8   4    4.75    0.29
   8  -8   4    5.01    0.25
  -9   8  -4    0.21    0.12
  -9   8  -4    0.30    0.07
   9  -8   4    0.26    0.09
   9  -8   4    0.36    0.12
 -10   8  -4    3.68    0.28
  10  -8   4    2.98    0.23
  10  -8   4    3.15    0.27
 -11   8  -4    0.13    0.12
  11  -8   4    0.03    0.10
  11  -8   4    0.23    0.12
   6   7  -4    6.32    0.31
   6   7  -4    5.72    0.23
   5   7  -4    2.56    0.18
   5   7  -4    2.73    0.15
   5   7  -4    2.77    0.21
   5   7  -4    2.45    0.16
   4   7  -4   14.89    0.47
   4   7  -4   14.84    0.45
   4   7  -4   15.04    0.39
   4   7  -4   15.22    0.50
   3   7  -4    1.77    0.15
   3   7  -4    1.47    0.13
   3   7  -4    1.50    0.14
   2   7  -4   19.56    0.55
   2   7  -4   19.24    0.58
   1   7  -4   32.76    0.92
   0   7  -4   28.54    0.85
   0   7  -4   28.60    0.75
   0   7  -4   28.62    0.85
   0   7  -4   29.00    0.81
   0  -7   4   29.86    0.84
   0  -7   4   29.42    0.85
  -1   7  -4    1.99    0.11
  -1   7  -4    2.17    0.13
  -1   7  -4    2.20    0.12
  -1   7  -4    1.92    0.11
   1  -7   4    1.96    0.12
   1  -7   4    2.10    0.12
   1  -7   4    1.79    0.14
   1  -7   4    2.03    0.12
  -2   7  -4   28.06    0.77
  -2   7  -4   27.03    0.84
  -2   7  -4   28.10    0.84
   2  -7   4   28.49    0.84
   2  -7   4   28.17    0.77
   2  -7   4   28.01    0.80
   2  -7   4   27.66    0.78
   2  -7   4   26.69    0.84
   2  -7   4   28.05    0.70
  -3   7  -4    0.01    0.05
  -3   7  -4    0.03    0.05
  -3   7  -4    0.06    0.05
   3  -7   4   -0.01    0.05
   3  -7   4    0.08    0.05
   3  -7   4    0.06    0.05
   3  -7   4    0.06    0.04
   3  -7   4    0.05    0.05
   3  -7   4    0.05    0.04
  -4   7  -4    8.98    0.23
  -4   7  -4    9.01    0.34
  -4   7  -4    8.88    0.30
   4  -7   4    9.27    0.30
   4  -7   4    9.15    0.34
   4  -7   4    8.66    0.33
   4  -7   4    8.99    0.27
   4  -7   4    8.90    0.28
  -5   7  -4    0.49    0.09
  -5   7  -4    0.43    0.08
  -5   7  -4    0.58    0.06
   5  -7   4    0.45    0.08
   5  -7   4    0.58    0.09
   5  -7   4    0.58    0.07
   5  -7   4    0.50    0.07
  -6   7  -4   17.45    0.59
   6  -7   4   16.68    0.49
   6  -7   4   17.56    0.59
  -7   7  -4   14.08    0.51
   7  -7   4   13.46    0.50
   7  -7   4   13.39    0.43
  -8   7  -4    0.22    0.06
  -8   7  -4    0.36    0.10
   8  -7   4    0.21    0.09
   8  -7   4    0.22    0.10
  -9   7  -4    0.54    0.12
  -9   7  -4    0.59    0.07
   9  -7   4    0.56    0.12
   9  -7   4    0.64    0.11
 -10   7  -4    0.09    0.11
  10  -7   4    0.05    0.11
  10  -7   4    0.00    0.09
 -11   7  -4    0.08    0.12
  11  -7   4   -0.12    0.09
  11  -7   4    0.07    0.11
   7   6  -4    0.73    0.13
   7   6  -4    0.70    0.10
   6   6  -4    2.74    0.21
   6   6  -4    2.55    0.17
   6   6  -4    2.54    0.16
   5   6  -4   10.88    0.40
   5   6  -4   10.30    0.34
   5   6  -4   11.31    0.31
   5   6  -4   10.65    0.36
   4   6  -4    0.02    0.06
   4   6  -4    0.11    0.03
   4   6  -4    0.17    0.06
   4   6  -4    0.08    0.07
   3   6  -4    0.89    0.10
   3   6  -4    0.71    0.05
   2   6  -4    1.88    0.13
  -2  -6   4    1.59    0.13
   1   6  -4    1.99    0.09
   1   6  -4    2.01    0.09
   1   6  -4    1.92    0.12
   1   6  -4    2.09    0.12
  -1  -6   4    1.70    0.12
  -1  -6   4    2.04    0.09
  -1  -6   4    2.11    0.09
   0   6  -4    0.26    0.04
   0   6  -4    0.31    0.04
   0   6  -4    0.31    0.05
   0   6  -4    0.18    0.05
   0   6  -4    0.31    0.03
   0  -6   4    0.23    0.06
   0  -6   4    0.35    0.05
   0  -6   4    0.20    0.05
   0  -6   4    0.24    0.04
   0  -6   4    0.24    0.05
  -1   6  -4    9.84    0.26
  -1   6  -4   10.01    0.31
  -1   6  -4    9.85    0.31
  -1   6  -4    9.74    0.28
  -1   6  -4    9.66    0.33
   1  -6   4    9.53    0.28
   1  -6   4    9.82    0.32
   1  -6   4   10.01    0.27
   1  -6   4    9.82    0.33
   1  -6   4   10.21    0.31
   1  -6   4    9.58    0.33
  -2   6  -4   20.94    0.64
  -2   6  -4   20.72    0.53
  -2   6  -4   21.40    0.64
  -2   6  -4   19.97    0.58
   2  -6   4   20.39    0.58
   2  -6   4   20.44    0.60
   2  -6   4   19.97    0.64
   2  -6   4   21.05    0.54
   2  -6   4   20.67    0.58
   2  -6   4   21.27    0.64
   2  -6   4   20.36    0.52
  -3   6  -4   20.44    0.65
  -3   6  -4   21.13    0.55
  -3   6  -4   21.71    0.65
  -3   6  -4   21.01    0.60
   3  -6   4   21.00    0.59
   3  -6   4   21.77    0.66
   3  -6   4   20.73    0.58
   3  -6   4   21.19    0.55
   3  -6   4   20.58    0.52
   3  -6   4   20.03    0.65
  -4   6  -4    6.24    0.17
  -4   6  -4    5.84    0.24
  -4   6  -4    5.66    0.25
  -4   6  -4    6.22    0.20
  -4   6  -4    6.21    0.22
   4  -6   4    6.48    0.22
   4  -6   4    5.77    0.24
   4  -6   4    5.99    0.21
   4  -6   4    5.90    0.25
   4  -6   4    6.11    0.20
  -5   6  -4    1.54    0.11
  -5   6  -4    1.92    0.15
  -5   6  -4    1.65    0.11
  -5   6  -4    1.46    0.09
  -5   6  -4    1.64    0.12
  -5   6  -4    1.65    0.13
   5  -6   4    1.63    0.14
   5  -6   4    1.67    0.13
   5  -6   4    1.66    0.11
   5  -6   4    1.80    0.12
  -6   6  -4   14.69    0.52
  -6   6  -4   14.66    0.43
   6  -6   4   14.88    0.52
   6  -6   4   14.90    0.44
  -7   6  -4   10.24    0.38
  -7   6  -4    8.91    0.30
   7  -6   4    9.60    0.38
   7  -6   4    8.31    0.32
  -8   6  -4    1.88    0.18
   8  -6   4    1.59    0.15
   8  -6   4    1.82    0.18
  -9   6  -4    0.48    0.12
  -9   6  -4    0.55    0.06
   9  -6   4    0.59    0.11
   9  -6   4    0.59    0.12
 -10   6  -4    0.37    0.12
  10  -6   4    0.37    0.12
  10  -6   4    0.33    0.11
 -11   6  -4    0.23    0.12
  11  -6   4    0.21    0.11
   7   5  -4   -0.05    0.09
   7   5  -4   -0.05    0.07
   6   5  -4    0.38    0.06
   6   5  -4    0.13    0.07
   6   5  -4    0.21    0.10
   6   5  -4    0.47    0.06
   6   5  -4    0.40    0.07
   5   5  -4    2.47    0.14
   5   5  -4    2.41    0.13
   5   5  -4    2.30    0.18
   5   5  -4    2.45    0.13
   5   5  -4    2.54    0.12
  -5  -5   4    2.48    0.17
   4   5  -4   10.69    0.37
   4   5  -4   10.71    0.30
  -4  -5   4   10.94    0.35
   3   5  -4    0.76    0.09
  -3  -5   4    0.78    0.09
   2   5  -4   13.94    0.36
   2   5  -4   13.77    0.39
   2   5  -4   13.39    0.42
   2   5  -4   13.86    0.43
   2   5  -4   14.45    0.47
   2   5  -4   14.25    0.43
  -2  -5   4   13.36    0.40
   1   5  -4    7.62    0.25
   1   5  -4    7.60    0.24
   1   5  -4    7.76    0.25
   1   5  -4    7.64    0.26
   1   5  -4    7.50    0.26
   1   5  -4    8.11    0.21
   1   5  -4    7.94    0.27
  -1  -5   4    7.88    0.24
  -1  -5   4    7.69    0.25
   0   5  -4   16.31    0.48
   0   5  -4   16.97    0.51
   0   5  -4   17.14    0.51
   0   5  -4   16.12    0.43
   0   5  -4   16.86    0.48
   0   5  -4   17.01    0.49
   0  -5   4   16.51    0.51
   0  -5   4   16.51    0.49
   0  -5   4   16.85    0.44
   0  -5   4   17.10    0.48
   0  -5   4   16.55    0.51
  -1   5  -4    0.17    0.03
  -1   5  -4    0.18    0.04
  -1   5  -4    0.11    0.04
  -1   5  -4    0.13    0.04
  -1   5  -4    0.08    0.03
   1  -5   4    0.14    0.04
   1  -5   4    0.08    0.04
   1  -5   4    0.12    0.03
   1  -5   4    0.08    0.04
   1  -5   4    0.10    0.03
  -2   5  -4   69.53    1.72
  -2   5  -4   68.89    2.01
  -2   5  -4   71.61    2.01
  -2   5  -4   69.69    1.83
   2  -5   4   65.31    2.00
   2  -5   4   69.87    1.72
   2  -5   4   70.52    1.83
   2  -5   4   69.42    1.82
   2  -5   4   69.51    2.01
   2  -5   4   70.14    1.66
  -3   5  -4    4.48    0.17
  -3   5  -4    4.49    0.19
  -3   5  -4    4.45    0.16
  -3   5  -4    4.51    0.19
   3  -5   4    4.41    0.19
   3  -5   4    4.48    0.14
   3  -5   4    4.67    0.19
   3  -5   4    4.35    0.16
   3  -5   4    4.38    0.13
   3  -5   4    4.72    0.17
  -4   5  -4    1.06    0.10
  -4   5  -4    1.04    0.11
  -4   5  -4    1.12    0.08
  -4   5  -4    1.33    0.09
  -4   5  -4    1.14    0.10
   4  -5   4    1.38    0.10
   4  -5   4    1.29    0.10
   4  -5   4    0.99    0.11
   4  -5   4    1.17    0.11
  -5   5  -4    0.05    0.04
  -5   5  -4    0.04    0.04
  -5   5  -4   -0.04    0.05
  -5   5  -4    0.00    0.05
  -5   5  -4   -0.03    0.04
   5  -5   4    0.00    0.05
   5  -5   4    0.00    0.05
   5  -5   4    0.00    0.05
   5  -5   4    0.09    0.05
  -6   5  -4    1.21    0.12
  -6   5  -4    1.28    0.10
  -6   5  -4    0.88    0.11
   6  -5   4    1.06    0.11
   6  -5   4    0.76    0.10
   6  -5   4    0.73    0.06
  -7   5  -4    0.58    0.07
  -7   5  -4    0.60    0.10
   7  -5   4    0.58    0.09
   7  -5   4    0.64    0.05
   7  -5   4    0.59    0.10
  -8   5  -4   -0.14    0.05
  -8   5  -4   -0.07    0.03
  -8   5  -4   -0.06    0.08
   8  -5   4    0.05    0.04
   8  -5   4   -0.06    0.07
   8  -5   4    0.03    0.07
  -9   5  -4   -0.08    0.09
   9  -5   4   -0.03    0.09
   9  -5   4    0.15    0.09
 -10   5  -4    0.00    0.09
 -10   5  -4    0.02    0.08
  10  -5   4    0.03    0.09
  10  -5   4    0.05    0.09
   8   4  -4    1.95    0.15
   8   4  -4    2.48    0.22
   7   4  -4    0.75    0.13
   7   4  -4    0.89    0.10
   7   4  -4    1.00    0.09
   6   4  -4    0.47    0.10
   6   4  -4    0.37    0.07
   6   4  -4    0.32    0.06
   6   4  -4    0.42    0.06
   6   4  -4    0.37    0.06
  -6  -4   4    0.47    0.10
   5   4  -4    0.19    0.05
   5   4  -4    0.09    0.07
  -5  -4   4    0.25    0.07
   4   4  -4    3.99    0.19
  -4  -4   4    3.84    0.18
   3   4  -4    0.09    0.05
   3   4  -4    0.06    0.06
   3   4  -4    0.10    0.05
   3   4  -4    0.13    0.06
  -3  -4   4    0.01    0.05
   2   4  -4    2.33    0.12
   2   4  -4    2.35    0.12
   2   4  -4    2.33    0.09
   2   4  -4    2.17    0.12
   2   4  -4    2.32    0.09
   2   4  -4    2.20    0.13
   2   4  -4    2.20    0.11
  -2  -4   4    2.16    0.11
  -2  -4   4    2.21    0.09
  -2  -4   4    2.24    0.09
   1   4  -4    0.33    0.05
   1   4  -4    0.29    0.04
   1   4  -4    0.44    0.05
   1   4  -4    0.36    0.05
   1   4  -4    0.19    0.04
   1   4  -4    0.33    0.03
  -1  -4   4    0.28    0.04
  -1  -4   4    0.27    0.04
  -1  -4   4    0.29    0.05
   0   4  -4   41.40    1.30
   0   4  -4   46.37    1.20
   0   4  -4   45.26    1.12
   0   4  -4   45.94    1.31
   0   4  -4   45.05    1.20
   0  -4   4   47.33    1.21
   0  -4   4   43.92    1.30
   0  -4   4   46.38    1.10
   0  -4   4   43.86    1.30
   0  -4   4   45.34    1.21
  -1   4  -4    0.23    0.04
  -1   4  -4    0.24    0.03
  -1   4  -4    0.25    0.04
  -1   4  -4    0.26    0.05
   1  -4   4    0.20    0.04
   1  -4   4    0.19    0.04
   1  -4   4    0.26    0.04
   1  -4   4    0.24    0.04
   1  -4   4    0.30    0.04
   1  -4   4    0.24    0.03
  -2   4  -4   67.47    1.72
  -2   4  -4   67.02    1.80
  -2   4  -4   68.02    1.69
  -2   4  -4   68.53    1.97
   2  -4   4   67.54    1.69
   2  -4   4   69.20    1.98
   2  -4   4   70.57    1.98
   2  -4   4   68.16    1.80
  -3   4  -4   67.93    1.65
  -3   4  -4   63.99    1.92
  -3   4  -4   65.95    1.92
  -3   4  -4   67.77    1.75
  -3   4  -4   67.99    1.67
   3  -4   4   66.31    1.72
   3  -4   4   62.77    1.92
   3  -4   4   68.40    1.65
   3  -4   4   69.87    1.75
   3  -4   4   61.42    1.92
  -4   4  -4    2.90    0.15
  -4   4  -4    2.47    0.13
  -4   4  -4    2.50    0.12
  -4   4  -4    2.77    0.15
  -4   4  -4    2.59    0.10
   4  -4   4    2.39    0.13
   4  -4   4    2.70    0.15
   4  -4   4    2.84    0.14
   4  -4   4    2.55    0.13
  -5   4  -4    2.84    0.16
  -5   4  -4    2.63    0.12
  -5   4  -4    2.95    0.16
  -5   4  -4    2.76    0.13
   5  -4   4    3.14    0.16
   5  -4   4    2.88    0.16
   5  -4   4    3.00    0.15
  -6   4  -4    0.62    0.09
  -6   4  -4    0.74    0.07
  -6   4  -4    0.56    0.09
   6  -4   4    0.71    0.06
   6  -4   4    0.71    0.10
   6  -4   4    0.45    0.08
  -7   4  -4    0.79    0.07
  -7   4  -4    0.72    0.08
  -7   4  -4    0.86    0.11
  -7   4  -4    0.74    0.11
   7  -4   4    0.66    0.10
   7  -4   4    1.08    0.11
   7  -4   4    1.03    0.08
  -8   4  -4   25.63    0.81
  -8   4  -4   23.77    0.68
   8  -4   4   23.97    0.64
   8  -4   4   24.07    0.70
   8  -4   4   24.79    0.81
  -9   4  -4    0.07    0.08
  -9   4  -4    0.01    0.09
   9  -4   4    0.04    0.08
   9  -4   4    0.06    0.09
 -10   4  -4    0.53    0.12
 -10   4  -4    0.47    0.12
  10  -4   4    0.65    0.12
   9   3  -4    9.65    0.34
   9   3  -4    9.52    0.32
   8   3  -4    1.30    0.12
   8   3  -4    1.38    0.13
   7   3  -4   29.84    0.69
   7   3  -4   27.17    0.74
   7   3  -4   27.67    0.72
   7   3  -4   29.63    0.77
  -7  -3   4   29.14    0.79
   6   3  -4   33.47    0.97
   6   3  -4   32.52    0.86
   6   3  -4   33.92    0.98
  -6  -3   4   33.05    0.97
  -6  -3   4   34.98    0.98
  -6  -3   4   34.34    0.90
   5   3  -4    1.08    0.07
   5   3  -4    1.07    0.07
   5   3  -4    0.90    0.10
  -5  -3   4    1.03    0.10
  -5  -3   4    1.19    0.07
  -5  -3   4    1.12    0.07
   4   3  -4  106.04    2.84
   4   3  -4  106.89    2.97
   4   3  -4  107.24    3.07
   4   3  -4  108.96    3.06
  -4  -3   4  109.83    3.07
  -4  -3   4  106.98    2.62
  -4  -3   4  110.19    3.07
   3   3  -4   30.64    0.87
   3   3  -4   32.22    0.91
   3   3  -4   30.51    0.91
   3   3  -4   32.12    0.88
   3   3  -4   32.16    0.91
  -3  -3   4   31.50    0.92
  -3  -3   4   31.52    0.80
   2   3  -4    0.46    0.05
   2   3  -4    0.46    0.05
   2   3  -4    0.36    0.05
   2   3  -4    0.54    0.05
  -2  -3   4    0.50    0.06
  -2  -3   4    0.53    0.06
  -2  -3   4    0.48    0.05
   1   3  -4   28.81    0.73
   1   3  -4   30.46    0.85
   1   3  -4   28.08    0.79
   1   3  -4   29.26    0.79
   1   3  -4   27.36    0.84
  -1  -3   4   29.85    0.79
  -1  -3   4   28.73    0.72
  -1  -3   4   29.14    0.85
  -1  -3   4   27.83    0.84
   0   3  -4  216.59    5.34
   0   3  -4  209.59    5.69
   0   3  -4  213.95    6.23
   0   3  -4  214.91    5.41
   0   3  -4  230.39    6.26
   0  -3   4  216.49    5.68
   0  -3   4  238.58    6.28
   0  -3   4  216.17    5.78
   0  -3   4  212.66    6.23
  -1   3  -4  170.60    4.15
  -1   3  -4  166.23    4.34
  -1   3  -4  161.38    4.75
  -1   3  -4  169.08    4.76
  -1   3  -4  170.89    4.09
  -1   3  -4  168.20    4.36
   1  -3   4  176.40    4.78
   1  -3   4  169.39    4.34
   1  -3   4  151.41    4.75
   1  -3   4  171.24    4.11
  -2   3  -4   32.06    0.83
  -2   3  -4   32.06    0.82
  -2   3  -4   33.62    0.95
  -2   3  -4   32.17    0.95
  -2   3  -4   31.82    0.87
   2  -3   4   32.47    0.87
   2  -3   4   31.52    0.82
   2  -3   4   32.40    0.95
   2  -3   4   29.24    0.95
  -3   3  -4   96.89    2.62
  -3   3  -4   93.47    1.94
  -3   3  -4   83.34    2.61
  -3   3  -4   93.41    2.25
  -3   3  -4   91.19    2.39
  -3   3  -4   92.25    2.28
   3  -3   4   79.63    2.61
   3  -3   4   91.43    2.25
   3  -3   4   91.94    2.38
   3  -3   4   95.46    2.62
  -4   3  -4    2.58    0.15
  -4   3  -4    2.92    0.15
  -4   3  -4    2.75    0.12
  -4   3  -4    2.77    0.13
  -4   3  -4    2.73    0.11
   4  -3   4    2.59    0.09
   4  -3   4    2.69    0.12
   4  -3   4    2.62    0.15
   4  -3   4    2.76    0.13
   4  -3   4    2.54    0.13
   4  -3   4    2.75    0.15
  -5   3  -4    6.46    0.26
  -5   3  -4    6.19    0.26
  -5   3  -4    6.55    0.21
  -5   3  -4    6.17    0.19
   5  -3   4    6.46    0.23
   5  -3   4    5.92    0.26
   5  -3   4    5.79    0.21
  -6   3  -4    0.81    0.10
  -6   3  -4    0.62    0.09
  -6   3  -4    0.69    0.07
  -6   3  -4    0.72    0.06
   6  -3   4    0.62    0.09
   6  -3   4    0.68    0.07
   6  -3   4    0.64    0.09
   6  -3   4    0.57    0.06
  -7   3  -4    4.52    0.18
  -7   3  -4    4.42    0.24
  -7   3  -4    4.08    0.14
  -7   3  -4    4.50    0.24
   7  -3   4    3.93    0.17
   7  -3   4    4.49    0.24
   7  -3   4    4.53    0.22
   7  -3   4    4.66    0.18
  -8   3  -4    0.96    0.13
  -8   3  -4    1.17    0.14
   8  -3   4    0.92    0.12
   8  -3   4    0.74    0.12
  -9   3  -4    0.10    0.09
  -9   3  -4    0.08    0.09
   9  -3   4    0.21    0.09
 -10   3  -4    0.29    0.11
 -10   3  -4    0.30    0.11
  10  -3   4    0.42    0.12
  10   2  -4    0.44    0.10
  10   2  -4    0.52    0.10
   9   2  -4   11.42    0.38
   9   2  -4   10.97    0.35
  -9  -2   4   10.64    0.36
   8   2  -4    4.67    0.21
   8   2  -4    4.56    0.20
  -8  -2   4    4.46    0.23
  -8  -2   4    4.54    0.19
   7   2  -4    0.34    0.06
   7   2  -4    0.44    0.04
   7   2  -4    0.23    0.07
  -7  -2   4    0.26    0.08
  -7  -2   4    0.31    0.06
   6   2  -4   16.56    0.52
   6   2  -4   16.82    0.51
   6   2  -4   16.28    0.43
   6   2  -4   16.59    0.44
   6   2  -4   16.89    0.51
  -6  -2   4   17.01    0.51
  -6  -2   4   16.28    0.48
   5   2  -4   29.47    0.87
   5   2  -4   29.19    0.88
   5   2  -4   30.21    0.76
   5   2  -4   30.77    0.88
  -5  -2   4   30.48    0.78
  -5  -2   4   29.48    0.88
  -5  -2   4   29.85    0.88
   4   2  -4    0.05    0.03
   4   2  -4    0.08    0.04
   4   2  -4    0.04    0.04
   4   2  -4    0.17    0.04
  -4  -2   4    0.07    0.04
  -4  -2   4    0.13    0.04
  -4  -2   4    0.08    0.03
   3   2  -4   88.78    2.50
   3   2  -4   87.05    2.50
   3   2  -4   88.67    2.18
   3   2  -4   85.04    2.30
  -3  -2   4   87.70    2.12
  -3  -2   4   90.87    2.50
  -3  -2   4   85.86    2.50
   2   2  -4   55.99    1.68
   2   2  -4   58.11    1.55
   2   2  -4   61.03    1.68
   2   2  -4   57.74    1.56
   2   2  -4   59.36    1.47
  -2  -2   4   59.60    1.55
  -2  -2   4   60.23    1.68
  -2  -2   4   58.47    1.42
  -2  -2   4   56.18    1.68
   1   2  -4  269.48    7.36
   1   2  -4  289.26    7.02
   1   2  -4  286.85    8.02
   1   2  -4  279.84    6.86
   1   2  -4  282.70    7.39
   1   2  -4  292.19    8.08
  -1  -2   4  263.67    8.01
  -1  -2   4  287.45    8.07
  -1  -2   4  285.22    7.30
   0   2  -4  159.81    5.08
   0   2  -4  181.66    4.67
   0   2  -4  186.88    4.44
   0   2  -4  186.66    4.37
   0   2  -4  179.40    5.08
   0  -2   4  183.20    4.63
   0  -2   4  179.83    5.08
   0  -2   4  183.70    4.44
   0  -2   4  184.66    4.70
   0  -2   4  184.37    4.37
   0  -2   4  160.42    5.08
  -1   2  -4   31.26    0.85
  -1   2  -4   31.82    0.80
  -1   2  -4   29.00    0.93
  -1   2  -4   31.70    0.81
  -1   2  -4   32.48    0.93
   1  -2   4   32.60    0.85
   1  -2   4   32.00    0.93
   1  -2   4   31.38    0.81
   1  -2   4   30.51    0.93
   1  -2   4   31.87    0.80
  -2   2  -4   68.33    1.93
  -2   2  -4   66.90    1.68
  -2   2  -4   67.25    1.66
  -2   2  -4   69.67    1.93
  -2   2  -4   66.50    1.64
  -2   2  -4   65.32    1.76
   2  -2   4   66.54    1.66
   2  -2   4   59.92    1.93
   2  -2   4   66.37    1.68
   2  -2   4   70.29    1.94
   2  -2   4   67.79    1.76
  -3   2  -4   27.12    0.77
  -3   2  -4   27.62    0.73
  -3   2  -4   26.62    0.84
  -3   2  -4   28.44    0.71
  -3   2  -4   28.00    0.63
  -3   2  -4   29.95    0.84
  -3   2  -4   27.42    0.72
   3  -2   4   27.08    0.72
   3  -2   4   28.50    0.77
   3  -2   4   27.82    0.73
   3  -2   4   28.39    0.84
   3  -2   4   25.81    0.84
  -4   2  -4   15.43    0.50
  -4   2  -4   15.15    0.43
  -4   2  -4   15.25    0.43
  -4   2  -4   15.50    0.41
  -4   2  -4   15.77    0.50
  -4   2  -4   15.31    0.37
   4  -2   4   15.76    0.50
   4  -2   4   15.12    0.42
   4  -2   4   15.28    0.50
   4  -2   4   15.06    0.44
   4  -2   4   14.80    0.43
   4  -2   4   15.24    0.46
  -5   2  -4   18.11    0.58
  -5   2  -4   17.99    0.47
  -5   2  -4   17.63    0.58
  -5   2  -4   17.97    0.50
   5  -2   4   18.42    0.51
   5  -2   4   17.82    0.58
   5  -2   4   18.08    0.50
   5  -2   4   17.31    0.50
  -6   2  -4   39.39    1.16
  -6   2  -4   38.05    1.15
  -6   2  -4   37.75    0.95
  -6   2  -4   36.64    0.99
   6  -2   4   37.79    1.03
   6  -2   4   38.51    1.01
   6  -2   4   38.38    1.00
   6  -2   4   37.88    0.96
   6  -2   4   37.40    1.15
  -7   2  -4    0.19    0.09
  -7   2  -4    0.14    0.03
  -7   2  -4    0.17    0.09
  -7   2  -4   -0.01    0.08
   7  -2   4    0.05    0.06
   7  -2   4    0.12    0.08
   7  -2   4    0.17    0.06
   7  -2   4    0.15    0.08
  -8   2  -4    1.77    0.18
  -8   2  -4    1.67    0.19
   8  -2   4    1.79    0.18
   8  -2   4    1.79    0.14
   8  -2   4    1.65    0.15
  -9   2  -4    0.93    0.13
  -9   2  -4    0.86    0.14
   9  -2   4    1.03    0.13
  10   1  -4    0.25    0.09
  10   1  -4    0.25    0.09
 -10  -1   4    0.12    0.07
   9   1  -4    0.60    0.10
   9   1  -4    0.51    0.09
  -9  -1   4    0.31    0.10
  -9  -1   4    0.34    0.08
   8   1  -4    7.25    0.28
   8   1  -4    7.26    0.25
  -8  -1   4    7.24    0.28
  -8  -1   4    7.54    0.28
   7   1  -4    5.88    0.18
   7   1  -4    5.65    0.23
   7   1  -4    5.83    0.23
  -7  -1   4    6.09    0.24
  -7  -1   4    5.91    0.24
  -7  -1   4    5.92    0.23
   6   1  -4    3.73    0.12
   6   1  -4    3.23    0.15
   6   1  -4    2.92    0.16
   6   1  -4    3.21    0.16
  -6  -1   4    3.35    0.17
  -6  -1   4    3.43    0.15
  -6  -1   4    3.19    0.16
   5   1  -4   25.11    0.74
   5   1  -4   24.38    0.72
   5   1  -4   24.44    0.74
   5   1  -4   24.43    0.63
   5   1  -4   24.34    0.63
  -5  -1   4   25.31    0.65
  -5  -1   4   24.80    0.75
  -5  -1   4   25.63    0.75
   4   1  -4   15.27    0.47
   4   1  -4   14.45    0.44
   4   1  -4   14.68    0.39
   4   1  -4   14.86    0.40
   4   1  -4   15.00    0.45
   4   1  -4   15.00    0.46
  -4  -1   4   15.41    0.47
  -4  -1   4   14.78    0.46
  -4  -1   4   14.93    0.41
   3   1  -4    3.28    0.13
   3   1  -4    2.94    0.11
   3   1  -4    3.02    0.12
   3   1  -4    3.01    0.13
   3   1  -4    2.99    0.14
  -3  -1   4    3.14    0.14
  -3  -1   4    3.39    0.13
   2   1  -4   23.39    0.58
   2   1  -4   22.04    0.62
   2   1  -4   22.72    0.68
   2   1  -4   22.91    0.59
   2   1  -4   23.59    0.68
  -2  -1   4   23.52    0.63
  -2  -1   4   20.76    0.68
  -2  -1   4   22.36    0.68
  -2  -1   4   23.42    0.59
   1   1  -4   14.81    0.42
   1   1  -4   14.74    0.40
   1   1  -4   13.82    0.46
   1   1  -4   15.51    0.46
   1   1  -4   14.94    0.40
   1   1  -4   15.22    0.39
   1   1  -4   14.25    0.40
  -1  -1   4   14.24    0.46
  -1  -1   4   15.28    0.40
  -1  -1   4   15.56    0.46
  -1  -1   4   15.19    0.42
   0   1  -4    5.19    0.19
   0   1  -4    5.22    0.17
   0   1  -4    5.43    0.17
   0   1  -4    5.23    0.20
   0   1  -4    5.26    0.16
   0   1  -4    5.26    0.17
   0  -1   4    5.38    0.20
   0  -1   4    5.63    0.17
   0  -1   4    4.93    0.19
   0  -1   4    5.23    0.17
   0  -1   4    5.00    0.17
  -1   1  -4   82.54    2.02
  -1   1  -4   81.86    2.07
  -1   1  -4   80.31    2.04
  -1   1  -4   80.36    2.16
  -1   1  -4   81.09    2.37
  -1   1  -4   85.40    2.37
   1  -1   4   81.89    2.07
   1  -1   4   83.16    2.37
   1  -1   4   83.68    2.04
   1  -1   4   84.48    2.16
   1  -1   4   83.45    2.37
  -2   1  -4    2.18    0.10
  -2   1  -4    2.17    0.12
  -2   1  -4    2.15    0.10
  -2   1  -4    2.09    0.11
  -2   1  -4    2.15    0.12
  -2   1  -4    2.28    0.09
   2  -1   4    2.16    0.12
   2  -1   4    2.24    0.11
   2  -1   4    2.22    0.11
  -3   1  -4    0.63    0.05
  -3   1  -4    0.53    0.07
  -3   1  -4    0.51    0.05
  -3   1  -4    0.58    0.06
  -3   1  -4    0.49    0.06
  -3   1  -4    0.53    0.07
   3  -1   4    0.49    0.06
   3  -1   4    0.55    0.06
   3  -1   4    0.51    0.06
   3  -1   4    0.53    0.07
   3  -1   4    0.59    0.07
  -4   1  -4    2.12    0.10
  -4   1  -4    2.32    0.15
  -4   1  -4    2.24    0.14
  -4   1  -4    1.99    0.11
  -4   1  -4    2.09    0.12
  -4   1  -4    1.88    0.12
   4  -1   4    2.21    0.14
   4  -1   4    2.20    0.13
   4  -1   4    2.20    0.14
   4  -1   4    2.31    0.15
   4  -1   4    2.38    0.14
   4  -1   4    2.27    0.10
  -5   1  -4    5.21    0.23
  -5   1  -4    4.83    0.19
  -5   1  -4    4.82    0.22
  -5   1  -4    5.29    0.16
   5  -1   4    4.95    0.18
   5  -1   4    4.84    0.21
   5  -1   4    5.19    0.20
   5  -1   4    5.13    0.23
  -6   1  -4    8.06    0.24
  -6   1  -4    8.55    0.33
  -6   1  -4    8.58    0.34
  -6   1  -4    8.65    0.33
   6  -1   4    8.15    0.28
   6  -1   4    8.48    0.33
   6  -1   4    8.36    0.29
   6  -1   4    8.58    0.30
  -7   1  -4    0.18    0.08
  -7   1  -4    0.24    0.10
   7  -1   4    0.20    0.08
   7  -1   4    0.30    0.09
   7  -1   4    0.31    0.09
  -8   1  -4    1.24    0.13
  -8   1  -4    1.14    0.15
   8  -1   4    1.41    0.14
   8  -1   4    1.45    0.14
  -9   1  -4    2.13    0.22
  -9   1  -4    1.60    0.18
   9  -1   4    2.03    0.20
  11   0  -4    7.05    0.31
  11   0  -4    6.70    0.28
 -11   0   4    5.96    0.29
  10   0  -4   -0.03    0.08
  10   0  -4    0.03    0.08
 -10   0   4   -0.07    0.08
 -10   0   4    0.05    0.07
   9   0  -4    5.13    0.21
  -9   0   4    5.09    0.23
  -9   0   4    4.93    0.23
   8   0  -4    1.02    0.06
   8   0  -4    1.08    0.10
   8   0  -4    1.09    0.12
  -8   0   4    1.19    0.12
  -8   0   4    1.12    0.11
  -8   0   4    1.30    0.13
   7   0  -4    0.73    0.06
   7   0  -4    0.50    0.08
   7   0  -4    0.55    0.07
  -7   0   4    0.55    0.08
  -7   0   4    0.46    0.09
  -7   0   4    0.63    0.08
   6   0  -4    8.84    0.29
   6   0  -4    8.77    0.25
   6   0  -4    8.98    0.32
   6   0  -4    9.33    0.32
  -6   0   4    9.07    0.32
  -6   0   4    9.21    0.32
  -6   0   4    8.93    0.29
   5   0  -4   45.86    1.09
   5   0  -4   44.02    1.29
   5   0  -4   43.21    1.22
   5   0  -4   44.92    1.29
   5   0  -4   42.93    1.09
  -5   0   4   43.67    1.10
  -5   0   4   42.20    1.29
  -5   0   4   44.56    1.29
   4   0  -4   62.14    1.56
   4   0  -4   62.25    1.82
   4   0  -4   61.04    1.66
   4   0  -4   63.78    1.82
   4   0  -4   63.08    1.55
  -4   0   4   62.82    1.82
  -4   0   4   64.34    1.82
   3   0  -4    4.03    0.14
   3   0  -4    4.17    0.16
   3   0  -4    4.06    0.15
   3   0  -4    4.00    0.13
   3   0  -4    3.93    0.16
  -3   0   4    3.91    0.13
  -3   0   4    3.85    0.14
  -3   0   4    4.11    0.16
  -3   0   4    3.80    0.16
   2   0  -4   46.35    1.15
   2   0  -4   40.46    1.32
   2   0  -4   46.22    1.20
   2   0  -4   46.19    1.13
   2   0  -4   46.42    1.33
  -2   0   4   46.05    1.15
  -2   0   4   46.24    1.20
  -2   0   4   44.54    1.32
  -2   0   4   45.26    1.13
  -2   0   4   46.62    1.33
   1   0  -4   25.42    0.65
   1   0  -4   25.66    0.66
   1   0  -4   24.52    0.66
   1   0  -4   26.44    0.77
   1   0  -4   25.33    0.69
   1   0  -4   25.50    0.77
  -1   0   4   25.18    0.67
  -1   0   4   26.30    0.77
  -1   0   4   25.54    0.66
  -1   0   4   25.24    0.69
  -1   0   4   26.49    0.77
   0   0  -4   64.18    1.58
   0   0  -4   65.07    1.60
   0   0  -4   63.21    1.56
   0   0  -4   61.67    1.83
   0   0  -4   61.21    1.83
   0   0  -4   62.29    1.66
   0   0   4   62.49    1.60
   0   0   4   64.76    1.66
   0   0   4   65.18    1.83
   0   0   4   62.36    1.56
   0   0   4   64.59    1.83
  -1   0  -4    3.13    0.15
  -1   0  -4    3.14    0.12
  -1   0  -4    3.23    0.13
  -1   0  -4    3.39    0.15
  -1   0  -4    3.15    0.13
  -1   0  -4    3.15    0.13
  -1   0  -4    3.28    0.12
   1   0   4    3.14    0.14
   1   0   4    3.28    0.13
   1   0   4    3.23    0.15
   1   0   4    3.20    0.13
   1   0   4    3.27    0.13
   1   0   4    3.17    0.12
  -2   0  -4   20.84    0.54
  -2   0  -4   20.50    0.57
  -2   0  -4   20.91    0.56
  -2   0  -4   20.86    0.47
  -2   0  -4   20.23    0.64
  -2   0  -4   21.15    0.55
  -2   0  -4   21.20    0.64
   2   0   4   20.17    0.55
   2   0   4   19.76    0.64
   2   0   4   20.31    0.54
   2   0   4   21.06    0.64
   2   0   4   20.45    0.56
   2   0   4   20.69    0.58
  -3   0  -4   12.47    0.36
  -3   0  -4   12.14    0.41
  -3   0  -4   12.47    0.31
  -3   0  -4   12.00    0.41
  -3   0  -4   12.00    0.34
  -3   0  -4   12.16    0.36
   3   0   4   11.97    0.41
   3   0   4   12.81    0.38
   3   0   4   12.61    0.36
   3   0   4   12.91    0.41
   3   0   4   11.80    0.34
   3   0   4   11.94    0.37
  -4   0  -4    1.27    0.08
  -4   0  -4    1.01    0.11
  -4   0  -4    1.26    0.12
  -4   0  -4    1.02    0.10
  -4   0  -4    1.27    0.12
   4   0   4    1.22    0.12
   4   0   4    1.07    0.10
   4   0   4    1.15    0.10
   4   0   4    1.42    0.09
  -5   0  -4    0.51    0.08
  -5   0  -4    0.36    0.10
  -5   0  -4    0.44    0.08
  -5   0  -4    0.68    0.06
   5   0   4    0.55    0.07
   5   0   4    0.45    0.08
   5   0   4    0.45    0.08
   5   0   4    0.49    0.08
  -6   0  -4    3.18    0.22
  -6   0  -4    2.58    0.18
   6   0   4    2.97    0.18
   6   0   4    2.83    0.17
   6   0   4    3.05    0.18
  -7   0  -4    2.71    0.22
  -7   0  -4    2.41    0.18
   7   0   4    2.57    0.19
   7   0   4    2.40    0.17
  -8   0  -4    0.19    0.11
  -8   0  -4    0.04    0.08
   8   0   4    0.14    0.08
   8   0   4    0.06    0.09
  11  -1  -4    0.01    0.08
  11  -1  -4    0.14    0.09
 -11   1   4    0.00    0.09
 -11   1   4   -0.08    0.08
  10  -1  -4    1.41    0.14
  10  -1  -4    1.46    0.13
 -10   1   4    1.45    0.15
 -10   1   4    1.37    0.13
   9  -1  -4    0.06    0.07
   9  -1  -4    0.10    0.07
  -9   1   4    0.19    0.08
  -9   1   4    0.13    0.08
   8  -1  -4    7.78    0.30
   8  -1  -4    7.45    0.22
  -8   1   4    8.11    0.30
  -8   1   4    7.66    0.31
  -8   1   4    7.57    0.28
   7  -1  -4    1.84    0.13
   7  -1  -4    1.70    0.09
   7  -1  -4    1.68    0.09
  -7   1   4    1.63    0.12
  -7   1   4    1.30    0.12
  -7   1   4    1.65    0.13
   6  -1  -4    3.39    0.13
   6  -1  -4    3.12    0.17
   6  -1  -4    3.36    0.17
   6  -1  -4    3.25    0.12
  -6   1   4    3.27    0.17
  -6   1   4    3.15    0.17
  -6   1   4    3.28    0.15
   5  -1  -4   93.96    2.74
   5  -1  -4   94.01    2.58
   5  -1  -4   97.04    2.74
   5  -1  -4   96.16    2.33
   5  -1  -4   95.83    2.36
  -5   1   4   97.45    2.33
  -5   1   4   91.96    2.74
  -5   1   4   95.56    2.36
  -5   1   4   95.35    2.74
   4  -1  -4   93.89    2.76
   4  -1  -4   96.87    2.38
   4  -1  -4   96.43    2.35
   4  -1  -4   98.72    2.76
   4  -1  -4   95.75    2.51
  -4   1   4   99.82    2.76
  -4   1   4   95.50    2.35
  -4   1   4   95.80    2.38
  -4   1   4   91.35    2.76
   3  -1  -4   22.75    0.60
   3  -1  -4   23.69    0.70
   3  -1  -4   23.07    0.60
   3  -1  -4   22.73    0.63
   3  -1  -4   23.07    0.70
  -3   1   4   22.35    0.60
  -3   1   4   24.10    0.71
  -3   1   4   22.15    0.60
  -3   1   4   23.76    0.70
   2  -1  -4   76.58    1.99
   2  -1  -4   78.00    2.20
   2  -1  -4   75.13    1.91
   2  -1  -4   77.13    1.88
   2  -1  -4   71.06    2.20
  -2   1   4   79.72    1.99
  -2   1   4   76.49    2.21
  -2   1   4   76.23    1.88
  -2   1   4   79.97    2.20
  -2   1   4   74.87    1.91
   1  -1  -4    5.52    0.17
   1  -1  -4    5.41    0.18
   1  -1  -4    5.32    0.21
   1  -1  -4    5.23    0.16
   1  -1  -4    5.72    0.21
   1  -1  -4    5.53    0.18
   1  -1  -4    5.36    0.17
  -1   1   4    5.10    0.17
  -1   1   4    5.48    0.18
  -1   1   4    5.50    0.21
  -1   1   4    5.30    0.21
  -1   1   4    5.66    0.18
   0  -1  -4    8.23    0.25
   0  -1  -4    8.92    0.30
   0  -1  -4    8.74    0.26
   0  -1  -4    8.63    0.30
   0  -1  -4    8.49    0.25
   0  -1  -4    8.40    0.25
   0   1   4    8.31    0.24
   0   1   4    8.22    0.25
   0   1   4    8.70    0.25
   0   1   4    8.49    0.26
   0   1   4    9.12    0.30
   0   1   4    8.23    0.30
  -1  -1  -4  180.42    4.28
  -1  -1  -4  178.81    4.25
  -1  -1  -4  168.82    4.97
  -1  -1  -4  177.72    4.34
  -1  -1  -4  175.44    4.55
  -1  -1  -4  177.74    3.69
  -1  -1  -4  177.55    4.97
   1   1   4  174.09    4.25
   1   1   4  177.63    4.52
   1   1   4  170.84    4.97
   1   1   4  174.30    4.28
   1   1   4  165.41    4.97
   1   1   4  175.52    4.34
   1   1   4  171.62    4.57
  -2  -1  -4    1.63    0.12
  -2  -1  -4    1.78    0.09
  -2  -1  -4    1.85    0.10
  -2  -1  -4    1.73    0.10
  -2  -1  -4    1.76    0.12
  -2  -1  -4    1.84    0.11
  -2  -1  -4    1.82    0.10
   2   1   4    1.73    0.10
   2   1   4    1.93    0.10
   2   1   4    1.88    0.12
   2   1   4    1.84    0.11
   2   1   4    1.64    0.12
   2   1   4    1.76    0.12
   2   1   4    1.74    0.10
  -3  -1  -4   20.23    0.56
  -3  -1  -4   20.24    0.55
  -3  -1  -4   20.47    0.64
  -3  -1  -4   20.54    0.49
  -3  -1  -4   20.71    0.65
  -3  -1  -4   20.82    0.65
   3   1   4   20.41    0.55
   3   1   4   20.55    0.59
   3   1   4   20.34    0.58
   3   1   4   21.58    0.65
   3   1   4   21.16    0.57
  -4  -1  -4    9.99    0.39
  -4  -1  -4   10.69    0.37
  -4  -1  -4   10.63    0.37
  -4  -1  -4   10.30    0.30
   4   1   4   10.43    0.34
   4   1   4   10.57    0.33
   4   1   4   10.14    0.31
   4   1   4   10.88    0.37
  -5  -1  -4    0.01    0.04
  -5  -1  -4   -0.12    0.07
  -5  -1  -4    0.02    0.06
  -5  -1  -4   -0.01    0.06
   5   1   4    0.01    0.06
   5   1   4    0.05    0.06
   5   1   4   -0.02    0.06
  -6  -1  -4    1.39    0.15
  -6  -1  -4    1.21    0.15
   6   1   4    1.56    0.15
   6   1   4    1.61    0.15
  -7  -1  -4    0.95    0.15
  -7  -1  -4    0.88    0.11
   7   1   4    1.14    0.13
   7   1   4    0.98    0.12
  11  -2  -4    0.94    0.12
  11  -2  -4    0.92    0.13
 -11   2   4    0.85    0.12
 -11   2   4    0.93    0.12
  10  -2  -4    0.48    0.09
  10  -2  -4    0.56    0.10
 -10   2   4    0.49    0.10
 -10   2   4    0.45    0.10
   9  -2  -4   22.11    0.55
   9  -2  -4   21.30    0.71
  -9   2   4   21.56    0.61
  -9   2   4   21.85    0.71
  -9   2   4   21.93    0.71
   8  -2  -4    0.20    0.05
   8  -2  -4    0.27    0.08
  -8   2   4    0.14    0.07
  -8   2   4    0.24    0.08
  -8   2   4    0.33    0.07
   7  -2  -4    5.06    0.23
   7  -2  -4    5.06    0.17
  -7   2   4    4.84    0.23
  -7   2   4    5.44    0.18
  -7   2   4    5.06    0.20
  -7   2   4    5.17    0.23
   6  -2  -4   26.57    0.82
   6  -2  -4   26.75    0.69
   6  -2  -4   25.56    0.82
  -6   2   4   26.50    0.69
  -6   2   4   25.79    0.81
  -6   2   4   27.58    0.82
  -6   2   4   26.49    0.67
   5  -2  -4   13.77    0.38
   5  -2  -4   13.69    0.46
   5  -2  -4   13.80    0.41
   5  -2  -4   13.93    0.38
   5  -2  -4   13.87    0.46
  -5   2   4   14.76    0.46
  -5   2   4   14.05    0.39
  -5   2   4   13.94    0.46
  -5   2   4   14.06    0.38
   4  -2  -4   26.82    0.80
   4  -2  -4   26.20    0.80
   4  -2  -4   26.12    0.68
   4  -2  -4   26.00    0.71
   4  -2  -4   25.93    0.68
  -4   2   4   26.75    0.80
  -4   2   4   25.98    0.68
  -4   2   4   25.98    0.80
  -4   2   4   25.51    0.68
   3  -2  -4   24.67    0.74
   3  -2  -4   23.92    0.63
   3  -2  -4   23.88    0.63
   3  -2  -4   22.10    0.73
   3  -2  -4   24.31    0.65
  -3   2   4   26.00    0.74
  -3   2   4   23.28    0.63
  -3   2   4   24.06    0.74
  -3   2   4   23.61    0.63
   2  -2  -4    0.11    0.03
   2  -2  -4    0.07    0.05
   2  -2  -4    0.07    0.03
   2  -2  -4    0.12    0.04
   2  -2  -4    0.15    0.04
  -2   2   4    0.17    0.05
  -2   2   4    0.09    0.04
  -2   2   4    0.09    0.03
  -2   2   4    0.03    0.04
  -2   2   4    0.10    0.05
   1  -2  -4    1.64    0.07
   1  -2  -4    1.64    0.10
   1  -2  -4    1.68    0.09
   1  -2  -4    1.67    0.09
   1  -2  -4    1.55    0.11
   1  -2  -4    1.72    0.12
   1  -2  -4    1.61    0.08
  -1   2   4    1.49    0.11
  -1   2   4    1.51    0.10
  -1   2   4    1.48    0.09
  -1   2   4    1.61    0.11
  -1   2   4    1.58    0.07
   0  -2  -4   11.24    0.32
   0  -2  -4   11.12    0.32
   0  -2  -4   10.93    0.33
   0  -2  -4   11.08    0.34
   0  -2  -4   10.80    0.37
   0  -2  -4   11.48    0.37
   0   2   4   11.13    0.32
   0   2   4   11.14    0.34
   0   2   4   10.40    0.32
   0   2   4   11.28    0.32
   0   2   4   10.38    0.37
   0   2   4   10.92    0.37
  -1  -2  -4    3.70    0.15
  -1  -2  -4    3.70    0.16
  -1  -2  -4    3.87    0.12
  -1  -2  -4    3.56    0.17
  -1  -2  -4    3.86    0.15
  -1  -2  -4    3.55    0.18
  -1  -2  -4    3.92    0.18
  -1  -2  -4    3.82    0.16
   1   2   4    3.50    0.15
   1   2   4    3.67    0.16
   1   2   4    3.90    0.18
   1   2   4    3.80    0.15
   1   2   4    3.82    0.15
   1   2   4    3.96    0.17
   1   2   4    3.93    0.14
  -2  -2  -4    0.13    0.07
  -2  -2  -4    0.13    0.05
  -2  -2  -4    0.13    0.06
  -2  -2  -4    0.16    0.05
  -2  -2  -4    0.21    0.04
  -2  -2  -4    0.13    0.06
  -2  -2  -4    0.12    0.06
   2   2   4    0.17    0.06
   2   2   4    0.05    0.06
   2   2   4    0.14    0.05
   2   2   4    0.00    0.05
   2   2   4    0.27    0.06
   2   2   4    0.15    0.05
  -3  -2  -4    5.59    0.26
  -3  -2  -4    5.83    0.24
  -3  -2  -4    5.54    0.20
  -3  -2  -4    5.54    0.20
  -3  -2  -4    5.68    0.23
   3   2   4    5.87    0.24
   3   2   4    5.41    0.20
   3   2   4    5.24    0.23
   3   2   4    5.90    0.22
   3   2   4    5.73    0.22
   3   2   4    5.87    0.22
  -4  -2  -4    1.75    0.18
  -4  -2  -4    1.63    0.11
  -4  -2  -4    1.68    0.13
  -4  -2  -4    1.93    0.14
   4   2   4    1.68    0.12
   4   2   4    1.55    0.13
   4   2   4    1.89    0.14
   4   2   4    1.68    0.14
  -5  -2  -4    5.26    0.24
  -5  -2  -4    5.55    0.29
   5   2   4    5.33    0.20
   5   2   4    5.55    0.25
   5   2   4    5.72    0.23
  -6  -2  -4    0.57    0.09
  -6  -2  -4    0.55    0.13
   6   2   4    0.66    0.11
   6   2   4    0.49    0.10
  -7  -2  -4    0.78    0.16
  -7  -2  -4    0.73    0.10
   7   2   4    0.75    0.12
   7   2   4    0.79    0.12
  12  -3  -4    0.27    0.09
  12  -3  -4    0.32    0.11
 -12   3   4    0.24    0.10
 -12   3   4    0.21    0.09
  11  -3  -4    0.45    0.10
 -11   3   4    0.35    0.09
 -11   3   4    0.36    0.11
  10  -3  -4    5.55    0.29
  10  -3  -4    5.88    0.24
 -10   3   4    5.61    0.24
 -10   3   4    5.70    0.29
   9  -3  -4   14.59    0.52
   9  -3  -4   14.72    0.40
  -9   3   4   14.60    0.40
  -9   3   4   15.17    0.52
  -9   3   4   14.31    0.43
  -9   3   4   14.31    0.52
   8  -3  -4    1.28    0.10
   8  -3  -4    1.21    0.12
  -8   3   4    1.37    0.14
  -8   3   4    1.18    0.12
  -8   3   4    1.38    0.10
  -8   3   4    1.25    0.12
   7  -3  -4    1.48    0.10
   7  -3  -4    1.30    0.14
  -7   3   4    1.42    0.13
  -7   3   4    1.39    0.11
  -7   3   4    1.38    0.15
  -7   3   4    1.52    0.07
   6  -3  -4    1.12    0.13
   6  -3  -4    0.87    0.08
  -6   3   4    0.94    0.08
  -6   3   4    1.00    0.08
  -6   3   4    1.09    0.12
  -6   3   4    0.94    0.10
   5  -3  -4    0.28    0.04
   5  -3  -4    0.26    0.05
   5  -3  -4    0.35    0.07
   5  -3  -4    0.20    0.06
   5  -3  -4    0.47    0.05
  -5   3   4    0.39    0.05
  -5   3   4    0.28    0.06
  -5   3   4    0.26    0.05
  -5   3   4    0.22    0.06
   4  -3  -4   11.36    0.33
   4  -3  -4   11.40    0.32
   4  -3  -4   11.70    0.39
   4  -3  -4   10.66    0.33
   4  -3  -4   11.02    0.33
   4  -3  -4   11.13    0.39
  -4   3   4   12.09    0.39
  -4   3   4   10.87    0.33
  -4   3   4   10.89    0.34
  -4   3   4   11.65    0.40
   3  -3  -4  114.59    3.10
   3  -3  -4  107.22    2.69
   3  -3  -4  105.07    3.10
   3  -3  -4  103.29    2.93
   3  -3  -4  116.10    2.65
   3  -3  -4  104.41    2.79
  -3   3   4  110.22    3.10
  -3   3   4  108.89    3.10
  -3   3   4  104.75    2.69
  -3   3   4  103.05    2.65
   2  -3  -4   34.09    0.86
   2  -3  -4   34.03    1.00
   2  -3  -4   34.41    1.01
   2  -3  -4   32.47    0.91
   2  -3  -4   34.26    0.86
   2  -3  -4   33.67    0.88
   2  -3  -4   32.76    0.88
   2  -3  -4   33.75    0.95
  -2   3   4   32.91    0.88
  -2   3   4   32.53    0.88
  -2   3   4   32.97    0.86
  -2   3   4   34.85    1.00
  -2   3   4   31.56    1.00
   1  -3  -4   35.61    0.98
   1  -3  -4   36.22    1.09
   1  -3  -4   36.16    0.96
   1  -3  -4   35.99    1.04
   1  -3  -4   37.24    1.09
   1  -3  -4   36.99    0.94
   1  -3  -4   37.02    0.93
  -1   3   4   36.66    0.96
  -1   3   4   35.94    0.96
  -1   3   4   35.99    0.94
  -1   3   4   35.38    1.08
  -1   3   4   37.15    1.09
   0  -3  -4    0.55    0.07
   0  -3  -4    0.21    0.07
   0  -3  -4    0.29    0.04
   0  -3  -4    0.18    0.06
   0  -3  -4    0.39    0.07
   0  -3  -4    0.22    0.06
   0  -3  -4    0.20    0.05
   0   3   4    0.29    0.04
   0   3   4    0.40    0.06
   0   3   4    0.16    0.06
   0   3   4    0.27    0.07
   0   3   4    0.25    0.06
  -1  -3  -4   35.42    1.02
  -1  -3  -4   33.49    0.75
  -1  -3  -4   33.86    0.88
  -1  -3  -4   33.31    0.88
  -1  -3  -4   34.70    1.00
  -1  -3  -4   34.06    0.95
  -1  -3  -4   33.02    1.02
   1   3   4   33.25    0.88
   1   3   4   33.34    0.94
   1   3   4   34.05    0.91
   1   3   4   34.37    1.02
   1   3   4   33.24    0.91
  -2  -3  -4    0.17    0.05
  -2  -3  -4    0.06    0.04
  -2  -3  -4   -0.12    0.08
  -2  -3  -4    0.08    0.07
  -2  -3  -4    0.13    0.06
  -2  -3  -4    0.14    0.06
   2   3   4    0.08    0.06
   2   3   4    0.17    0.06
   2   3   4   -0.08    0.06
   2   3   4   -0.09    0.07
   2   3   4    0.07    0.06
   2   3   4    0.19    0.05
  -3  -3  -4    5.38    0.29
  -3  -3  -4    6.11    0.25
  -3  -3  -4    6.11    0.25
   3   3   4    6.51    0.26
   3   3   4    5.70    0.23
   3   3   4    6.31    0.23
   3   3   4    5.46    0.25
  -4  -3  -4    5.84    0.30
  -4  -3  -4    5.39    0.24
   4   3   4    5.29    0.21
   4   3   4    5.43    0.25
   4   3   4    5.67    0.23
  -5  -3  -4    1.07    0.11
  -5  -3  -4    1.08    0.16
   5   3   4    1.13    0.12
   5   3   4    1.00    0.13
  -6  -3  -4    0.51    0.14
  -6  -3  -4    0.58    0.09
   6   3   4    0.48    0.11
   6   3   4    0.48    0.11
  12  -4  -4    0.36    0.11
  12  -4  -4    0.22    0.09
 -12   4   4    0.28    0.11
  11  -4  -4    4.09    0.27
  11  -4  -4    4.25    0.21
 -11   4   4    4.15    0.27
 -11   4   4    4.10    0.21
  10  -4  -4    0.14    0.07
  10  -4  -4    0.27    0.10
 -10   4   4    0.08    0.05
 -10   4   4   -0.04    0.07
 -10   4   4    0.14    0.10
   9  -4  -4    0.03    0.08
   9  -4  -4    0.08    0.05
   9  -4  -4   -0.02    0.06
  -9   4   4   -0.19    0.06
  -9   4   4   -0.04    0.05
  -9   4   4   -0.05    0.08
   8  -4  -4    2.26    0.19
   8  -4  -4    2.28    0.13
  -8   4   4    2.54    0.14
  -8   4   4    2.38    0.19
  -8   4   4    2.33    0.14
  -8   4   4    2.27    0.10
   7  -4  -4    7.91    0.27
   7  -4  -4    8.00    0.33
  -7   4   4    8.41    0.25
  -7   4   4    8.36    0.34
  -7   4   4    8.32    0.27
   6  -4  -4    1.64    0.12
   6  -4  -4    1.82    0.10
   6  -4  -4    1.84    0.16
  -6   4   4    1.80    0.15
  -6   4   4    1.57    0.12
  -6   4   4    1.78    0.14
  -6   4   4    1.69    0.11
   5  -4  -4   -0.12    0.05
   5  -4  -4    0.02    0.03
   5  -4  -4   -0.03    0.06
   5  -4  -4    0.08    0.07
   5  -4  -4   -0.05    0.03
  -5   4   4    0.01    0.06
  -5   4   4   -0.01    0.06
  -5   4   4   -0.07    0.05
  -5   4   4    0.00    0.06
   4  -4  -4    5.16    0.19
   4  -4  -4    4.61    0.18
   4  -4  -4    4.76    0.15
   4  -4  -4    5.19    0.23
   4  -4  -4    5.18    0.23
  -4   4   4    4.94    0.24
  -4   4   4    5.03    0.20
  -4   4   4    4.87    0.20
  -4   4   4    5.25    0.23
   3  -4  -4    0.05    0.05
   3  -4  -4   -0.02    0.06
   3  -4  -4    0.03    0.04
   3  -4  -4   -0.02    0.06
   3  -4  -4    0.07    0.05
  -3   4   4    0.02    0.05
  -3   4   4    0.02    0.05
  -3   4   4    0.03    0.06
  -3   4   4    0.13    0.05
   2  -4  -4    1.72    0.14
   2  -4  -4    1.74    0.10
   2  -4  -4    1.79    0.13
   2  -4  -4    1.77    0.11
   2  -4  -4    1.71    0.12
  -2   4   4    1.72    0.12
  -2   4   4    1.73    0.13
  -2   4   4    1.71    0.14
   1  -4  -4    0.36    0.06
   1  -4  -4    0.11    0.06
   1  -4  -4    0.09    0.07
   1  -4  -4   -0.03    0.06
   1  -4  -4    0.15    0.07
   1  -4  -4    0.14    0.05
   1  -4  -4    0.11    0.03
  -1   4   4    0.08    0.03
  -1   4   4   -0.12    0.05
  -1   4   4    0.06    0.06
  -1   4   4    0.11    0.06
   0  -4  -4    2.76    0.17
   0  -4  -4    2.62    0.13
   0  -4  -4    2.75    0.17
   0  -4  -4    2.85    0.18
   0  -4  -4    2.93    0.10
   0  -4  -4    2.66    0.16
   0   4   4    2.70    0.11
   0   4   4    2.54    0.16
   0   4   4    2.71    0.17
   0   4   4    2.50    0.16
  -1  -4  -4    0.54    0.08
  -1  -4  -4    0.43    0.05
  -1  -4  -4    0.38    0.09
  -1  -4  -4    0.27    0.10
  -1  -4  -4    0.44    0.08
  -1  -4  -4    0.36    0.06
   1   4   4    0.47    0.08
   1   4   4    0.44    0.08
   1   4   4    0.43    0.09
   1   4   4    0.47    0.06
   1   4   4    0.17    0.08
  -2  -4  -4    0.26    0.08
  -2  -4  -4    0.26    0.07
  -2  -4  -4    0.24    0.06
  -2  -4  -4    0.17    0.09
  -2  -4  -4    0.10    0.11
  -2  -4  -4    0.20    0.05
   2   4   4    0.07    0.08
   2   4   4    0.12    0.08
   2   4   4    0.10    0.09
   2   4   4    0.25    0.06
  -3  -4  -4    2.55    0.23
  -3  -4  -4    2.15    0.16
   3   4   4    2.39    0.16
   3   4   4    2.39    0.19
  -4  -4  -4    1.79    0.14
  -4  -4  -4    1.85    0.19
   4   4   4    1.77    0.15
   4   4   4    1.94    0.15
   4   4   4    1.53    0.15
  -5  -4  -4    1.78    0.14
  -5  -4  -4    1.73    0.21
   5   4   4    2.04    0.20
  12  -5  -4    1.01    0.15
  12  -5  -4    0.97    0.11
 -12   5   4    0.94    0.15
  11  -5  -4   10.63    0.45
  11  -5  -4   10.03    0.33
 -11   5   4   10.27    0.44
 -11   5   4   10.20    0.34
  10  -5  -4    0.04    0.06
  10  -5  -4    0.10    0.09
 -10   5   4    0.02    0.06
 -10   5   4   -0.02    0.07
 -10   5   4    0.12    0.09
   9  -5  -4    2.74    0.15
   9  -5  -4    2.53    0.20
  -9   5   4    2.70    0.16
  -9   5   4    2.57    0.21
  -9   5   4    2.52    0.16
  -9   5   4    2.74    0.11
   8  -5  -4    0.43    0.07
   8  -5  -4    0.53    0.11
  -8   5   4    0.50    0.11
  -8   5   4    0.46    0.08
   7  -5  -4    1.09    0.13
   7  -5  -4    1.15    0.10
  -7   5   4    0.94    0.09
  -7   5   4    0.96    0.11
  -7   5   4    1.06    0.13
   6  -5  -4    5.54    0.27
   6  -5  -4    4.88    0.18
  -6   5   4    6.08    0.28
  -6   5   4    4.82    0.22
  -6   5   4    4.76    0.21
   5  -5  -4   82.17    2.34
   5  -5  -4   79.52    2.07
   5  -5  -4   80.87    2.34
   5  -5  -4   78.89    2.18
  -5   5   4   75.93    2.34
  -5   5   4   80.58    2.03
  -5   5   4   81.22    2.00
   4  -5  -4    5.13    0.21
   4  -5  -4    5.38    0.25
   4  -5  -4    5.48    0.25
  -4   5   4    5.39    0.22
  -4   5   4    5.24    0.22
  -4   5   4    5.37    0.26
   3  -5  -4    3.63    0.19
   3  -5  -4    3.13    0.16
   3  -5  -4    3.46    0.19
   3  -5  -4    3.54    0.17
  -3   5   4    3.56    0.18
  -3   5   4    3.44    0.18
  -3   5   4    3.71    0.20
   2  -5  -4   23.81    0.74
   2  -5  -4   23.10    0.62
   2  -5  -4   22.80    0.67
   2  -5  -4   23.69    0.71
   2  -5  -4   22.91    0.73
   2  -5  -4   22.50    0.51
  -2   5   4   22.59    0.74
  -2   5   4   23.62    0.66
  -2   5   4   23.76    0.65
   1  -5  -4    1.63    0.16
   1  -5  -4    1.35    0.10
   1  -5  -4    1.48    0.14
   1  -5  -4    1.49    0.15
   1  -5  -4    1.44    0.13
   1  -5  -4    1.30    0.07
  -1   5   4    1.40    0.15
  -1   5   4    1.51    0.14
  -1   5   4    1.28    0.12
   0  -5  -4    1.73    0.18
   0  -5  -4    1.58    0.08
   0  -5  -4    1.50    0.16
   0  -5  -4    1.86    0.15
   0  -5  -4    1.71    0.14
   0  -5  -4    1.64    0.11
   0   5   4    1.68    0.09
   0   5   4    1.75    0.15
   0   5   4    1.61    0.15
   0   5   4    1.49    0.14
  -1  -5  -4   12.58    0.44
  -1  -5  -4   12.90    0.48
  -1  -5  -4   12.33    0.37
  -1  -5  -4   13.13    0.44
   1   5   4   12.79    0.45
   1   5   4   12.22    0.40
   1   5   4   12.53    0.43
  -2  -5  -4    0.90    0.15
  -2  -5  -4    1.02    0.11
   2   5   4    1.25    0.12
   2   5   4    0.98    0.14
  -3  -5  -4    0.48    0.09
  -3  -5  -4    0.25    0.12
   3   5   4    0.50    0.09
   3   5   4    0.43    0.11
  -4  -5  -4    1.70    0.21
  -4  -5  -4    1.81    0.14
   4   5   4    1.59    0.17
  12  -6  -4    0.23    0.13
  12  -6  -4    0.34    0.09
  11  -6  -4    0.29    0.12
  11  -6  -4    0.09    0.07
 -11   6   4    0.29    0.12
 -11   6   4    0.25    0.07
  10  -6  -4    1.90    0.14
  10  -6  -4    1.53    0.17
 -10   6   4    1.66    0.18
 -10   6   4    1.78    0.15
 -10   6   4    1.73    0.14
   9  -6  -4    1.93    0.20
   9  -6  -4    1.76    0.13
  -9   6   4    2.01    0.16
  -9   6   4    1.96    0.12
  -9   6   4    2.06    0.21
   8  -6  -4    3.55    0.16
   8  -6  -4    3.52    0.24
   8  -6  -4    3.66    0.15
  -8   6   4    3.31    0.16
  -8   6   4    3.76    0.25
  -8   6   4    3.92    0.20
   7  -6  -4    0.00    0.04
   7  -6  -4   -0.03    0.09
   7  -6  -4    0.00    0.04
  -7   6   4    0.04    0.06
  -7   6   4    0.09    0.09
  -7   6   4    0.09    0.07
   6  -6  -4   -0.11    0.10
  -6   6   4    0.14    0.08
  -6   6   4   -0.15    0.10
  -6   6   4    0.12    0.08
   5  -6  -4   41.45    1.24
   5  -6  -4   38.18    1.12
   5  -6  -4   40.13    1.23
  -5   6   4   39.41    1.05
  -5   6   4   39.70    1.06
  -5   6   4   40.20    1.23
   4  -6  -4    0.99    0.12
   4  -6  -4    0.94    0.11
   4  -6  -4    1.48    0.13
   4  -6  -4    1.13    0.12
  -4   6   4    1.20    0.13
  -4   6   4    1.09    0.11
  -4   6   4    1.12    0.11
   3  -6  -4    0.01    0.04
   3  -6  -4    0.08    0.02
   3  -6  -4    0.07    0.07
   3  -6  -4   -0.01    0.06
   3  -6  -4    0.13    0.08
   3  -6  -4    0.06    0.07
  -3   6   4   -0.02    0.07
  -3   6   4    0.01    0.07
  -3   6   4   -0.08    0.07
   2  -6  -4    2.39    0.18
   2  -6  -4    2.34    0.13
   2  -6  -4    2.32    0.17
   2  -6  -4    2.54    0.17
   2  -6  -4    2.24    0.16
   2  -6  -4    2.32    0.18
  -2   6   4    2.32    0.18
  -2   6   4    2.41    0.18
  -2   6   4    2.45    0.18
   1  -6  -4    1.31    0.15
   1  -6  -4    1.58    0.15
   1  -6  -4    1.42    0.15
   1  -6  -4    1.32    0.10
  -1   6   4    1.41    0.14
  -1   6   4    1.35    0.15
  -1   6   4    1.35    0.13
   0  -6  -4    6.89    0.31
   0  -6  -4    6.29    0.33
   0  -6  -4    6.18    0.28
   0   6   4    6.11    0.30
   0   6   4    6.47    0.28
  -1  -6  -4   34.31    1.07
  -1  -6  -4   35.63    1.10
  -1  -6  -4   35.80    1.04
   1   6   4   35.53    1.00
   1   6   4   34.60    0.96
  -2  -6  -4    0.14    0.08
  -2  -6  -4    0.22    0.12
   2   6   4    0.23    0.09
   2   6   4    0.10    0.11
  -3  -6  -4    0.57    0.09
  -3  -6  -4    0.46    0.15
   3   6   4    0.64    0.13
   3   6   4    0.97    0.12
  11  -7  -4    2.44    0.25
  11  -7  -4    2.59    0.16
 -11   7   4    2.31    0.18
 -11   7   4    2.40    0.25
  10  -7  -4    0.17    0.06
  10  -7  -4    0.23    0.11
 -10   7   4    0.05    0.10
 -10   7   4    0.22    0.08
 -10   7   4    0.11    0.07
   9  -7  -4    0.34    0.06
   9  -7  -4    0.29    0.06
   9  -7  -4    0.29    0.11
  -9   7   4    0.36    0.12
  -9   7   4    0.33    0.09
  -9   7   4    0.33    0.07
   8  -7  -4    0.41    0.05
   8  -7  -4    0.46    0.12
   8  -7  -4    0.53    0.06
  -8   7   4    0.38    0.08
  -8   7   4    0.45    0.12
  -8   7   4    0.42    0.09
   7  -7  -4    0.29    0.05
   7  -7  -4    0.18    0.10
  -7   7   4    0.13    0.11
  -7   7   4    0.15    0.08
  -7   7   4    0.14    0.07
   6  -7  -4    1.11    0.07
   6  -7  -4    0.93    0.13
  -6   7   4    0.89    0.14
  -6   7   4    0.93    0.12
  -6   7   4    0.93    0.11
   5  -7  -4    0.54    0.11
   5  -7  -4    0.53    0.10
  -5   7   4    0.51    0.10
  -5   7   4    0.50    0.10
  -5   7   4    0.40    0.11
   4  -7  -4    6.58    0.27
   4  -7  -4    6.42    0.30
   4  -7  -4    6.67    0.31
   4  -7  -4    6.40    0.27
  -4   7   4    6.65    0.28
  -4   7   4    6.55    0.28
  -4   7   4    6.35    0.31
   3  -7  -4    8.50    0.29
   3  -7  -4    9.28    0.36
   3  -7  -4    8.89    0.34
   3  -7  -4    9.44    0.36
   3  -7  -4    9.59    0.37
  -3   7   4    8.85    0.37
  -3   7   4    9.42    0.35
  -3   7   4    9.13    0.35
   2  -7  -4    0.19    0.08
   2  -7  -4    0.25    0.10
   2  -7  -4    0.31    0.09
   2  -7  -4    0.39    0.11
  -2   7   4    0.11    0.09
  -2   7   4    0.27    0.09
  -2   7   4    0.18    0.09
   1  -7  -4    0.55    0.11
   1  -7  -4    0.65    0.13
   1  -7  -4    0.78    0.14
  -1   7   4    0.74    0.12
  -1   7   4    0.72    0.13
   0  -7  -4    1.18    0.16
   0  -7  -4    1.36    0.17
   0  -7  -4    1.11    0.13
   0   7   4    1.47    0.17
   0   7   4    1.24    0.14
  -1  -7  -4   -0.10    0.11
  -1  -7  -4   -0.09    0.07
  -1  -7  -4   -0.02    0.11
   1   7   4    0.10    0.09
   1   7   4    0.07    0.11
  11  -8  -4    0.01    0.06
  11  -8  -4    0.07    0.12
 -11   8   4   -0.05    0.08
 -11   8   4    0.04    0.12
  10  -8  -4    0.31    0.13
  10  -8  -4    0.39    0.07
 -10   8   4    0.30    0.13
 -10   8   4    0.45    0.10
   9  -8  -4    3.35    0.14
   9  -8  -4    3.61    0.27
  -9   8   4    2.81    0.21
  -9   8   4    3.10    0.26
  -9   8   4    2.99    0.18
   8  -8  -4    0.57    0.14
  -8   8   4    0.70    0.12
  -8   8   4    0.79    0.11
  -8   8   4    0.50    0.14
   7  -8  -4    7.96    0.38
  -7   8   4    8.59    0.32
  -7   8   4    8.48    0.34
  -7   8   4    7.98    0.39
   6  -8  -4    0.11    0.09
   6  -8  -4    0.28    0.11
  -6   8   4    0.27    0.09
  -6   8   4    0.15    0.09
  -6   8   4    0.23    0.11
   5  -8  -4    0.38    0.10
   5  -8  -4    0.42    0.11
  -5   8   4    0.35    0.10
  -5   8   4    0.44    0.12
  -5   8   4    0.32    0.10
   4  -8  -4    0.16    0.09
   4  -8  -4    0.29    0.10
   4  -8  -4    0.20    0.10
   4  -8  -4    0.36    0.10
  -4   8   4    0.10    0.10
  -4   8   4    0.18    0.10
  -4   8   4    0.05    0.10
   3  -8  -4    2.73    0.19
   3  -8  -4    2.58    0.20
   3  -8  -4    2.42    0.22
   3  -8  -4    2.95    0.22
  -3   8   4    2.20    0.20
  -3   8   4    2.52    0.21
   2  -8  -4    2.36    0.22
   2  -8  -4    2.12    0.20
   2  -8  -4    2.06    0.22
  -2   8   4    2.46    0.22
  -2   8   4    2.21    0.22
   1  -8  -4    3.76    0.27
   1  -8  -4    3.22    0.27
   1  -8  -4    3.11    0.22
  -1   8   4    3.23    0.26
  -1   8   4    3.53    0.25
   0  -8  -4    1.18    0.18
   0  -8  -4    0.96    0.12
   0  -8  -4    0.81    0.16
   0   8   4    0.95    0.16
   0   8   4    0.86    0.14
  10  -9  -4   -0.04    0.11
 -10   9   4    0.00    0.09
 -10   9   4   -0.09    0.12
   9  -9  -4    0.42    0.13
  -9   9   4    0.45    0.10
  -9   9   4    0.33    0.11
  -9   9   4    0.32    0.14
   8  -9  -4   -0.01    0.12
  -8   9   4   -0.13    0.11
  -8   9   4    0.02    0.09
  -8   9   4   -0.04    0.09
   7  -9  -4    0.12    0.11
   7  -9  -4    0.12    0.09
  -7   9   4    0.05    0.10
  -7   9   4    0.21    0.12
  -7   9   4    0.07    0.09
   6  -9  -4    0.01    0.10
   6  -9  -4    0.02    0.08
  -6   9   4   -0.01    0.11
  -6   9   4    0.02    0.10
  -6   9   4    0.12    0.10
   5  -9  -4    0.50    0.11
   5  -9  -4    0.51    0.12
   5  -9  -4    0.59    0.13
  -5   9   4    0.35    0.11
  -5   9   4    0.41    0.12
   4  -9  -4    0.35    0.10
   4  -9  -4    0.39    0.13
   4  -9  -4    0.25    0.10
  -4   9   4    0.25    0.12
  -4   9   4    0.45    0.12
   3  -9  -4    0.05    0.09
   3  -9  -4    0.02    0.11
   3  -9  -4    0.09    0.10
   3  -9  -4    0.05    0.09
  -3   9   4   -0.03    0.10
  -3   9   4   -0.02    0.10
   2  -9  -4    1.08    0.14
   2  -9  -4    1.36    0.18
   2  -9  -4    1.52    0.18
  -2   9   4    1.30    0.18
  -2   9   4    1.22    0.16
   8 -10  -4    0.03    0.10
  -8  10   4    0.01    0.13
  -8  10   4   -0.08    0.09
  -8  10   4   -0.07    0.11
   7 -10  -4   -0.01    0.12
   7 -10  -4    0.11    0.10
  -7  10   4   -0.10    0.09
  -7  10   4   -0.13    0.10
   6 -10  -4    0.19    0.12
   6 -10  -4    0.11    0.10
   6 -10  -4    0.14    0.12
  -6  10   4    0.41    0.13
  -6  10   4    0.20    0.12
  -5  13  -5    2.89    0.26
   5 -13   5    3.44    0.27
   5 -13   5    3.21    0.24
   5 -13   5    2.68    0.23
  -6  13  -5    1.18    0.16
   6 -13   5    1.11    0.16
   6 -13   5    1.08    0.15
   6 -13   5    0.99    0.15
  -1  12  -5    0.62    0.13
  -2  12  -5   -0.04    0.10
   2 -12   5   -0.11    0.09
   2 -12   5   -0.04    0.06
  -3  12  -5    0.14    0.11
   3 -12   5    0.16    0.08
   3 -12   5    0.11    0.10
  -4  12  -5    0.34    0.12
   4 -12   5    0.32    0.10
   4 -12   5    0.38    0.11
   4 -12   5    0.42    0.12
  -5  12  -5    0.59    0.12
  -5  12  -5    0.54    0.10
   5 -12   5    0.61    0.12
   5 -12   5    0.49    0.11
   5 -12   5    0.61    0.13
  -6  12  -5    0.65    0.10
  -6  12  -5    0.54    0.12
   6 -12   5    0.40    0.12
   6 -12   5    0.53    0.11
   6 -12   5    0.42    0.12
  -7  12  -5    7.49    0.33
  -7  12  -5    6.78    0.36
   7 -12   5    6.96    0.35
   7 -12   5    6.92    0.34
   7 -12   5    6.39    0.29
  -8  12  -5    0.06    0.11
  -8  12  -5    0.06    0.09
   8 -12   5   -0.04    0.07
   8 -12   5    0.05    0.11
   8 -12   5   -0.06    0.07
  -9  12  -5    0.31    0.13
  -9  12  -5    0.41    0.11
   9 -12   5    0.39    0.10
   1  11  -5    0.44    0.13
   1  11  -5    0.19    0.10
   0  11  -5    1.84    0.17
   0  11  -5    2.33    0.18
  -1  11  -5   -0.06    0.08
  -1  11  -5   -0.07    0.07
   1 -11   5   -0.04    0.05
   1 -11   5   -0.03    0.09
  -2  11  -5    0.93    0.13
  -2  11  -5    0.88    0.10
   2 -11   5    1.03    0.10
   2 -11   5    1.13    0.15
  -3  11  -5    0.93    0.13
  -3  11  -5    1.16    0.11
   3 -11   5    0.80    0.11
   3 -11   5    0.83    0.13
  -4  11  -5    0.91    0.13
  -4  11  -5    1.09    0.11
   4 -11   5    1.15    0.12
   4 -11   5    0.82    0.13
   4 -11   5    0.85    0.12
  -5  11  -5    0.83    0.12
  -5  11  -5    0.98    0.13
  -5  11  -5    0.92    0.11
   5 -11   5    1.21    0.12
   5 -11   5    1.29    0.10
   5 -11   5    0.97    0.13
   5 -11   5    0.90    0.12
  -6  11  -5    4.58    0.28
  -6  11  -5    4.80    0.26
  -6  11  -5    4.81    0.23
   6 -11   5    4.69    0.27
   6 -11   5    5.26    0.28
   6 -11   5    4.64    0.20
   6 -11   5    4.63    0.23
  -7  11  -5    0.08    0.08
  -7  11  -5    0.02    0.10
   7 -11   5    0.07    0.09
   7 -11   5    0.10    0.07
   7 -11   5   -0.03    0.07
  -8  11  -5   -0.04    0.10
  -8  11  -5    0.03    0.08
   8 -11   5    0.11    0.10
   8 -11   5   -0.06    0.07
   8 -11   5   -0.10    0.06
  -9  11  -5    0.08    0.09
  -9  11  -5    0.22    0.13
   9 -11   5    0.26    0.12
   9 -11   5    0.28    0.09
 -10  11  -5   -0.08    0.08
 -10  11  -5   -0.11    0.12
  10 -11   5   -0.13    0.11
   2  10  -5    0.08    0.09
   2  10  -5    0.03    0.10
   2  10  -5    0.03    0.09
   1  10  -5    0.48    0.10
   1  10  -5    0.49    0.10
   0  10  -5    1.40    0.14
   0  10  -5    1.35    0.13
  -1  10  -5    2.08    0.18
  -1  10  -5    2.15    0.16
   1 -10   5    2.04    0.13
   1 -10   5    2.18    0.19
  -2  10  -5    8.70    0.34
  -2  10  -5    9.32    0.32
   2 -10   5    8.93    0.36
   2 -10   5    8.60    0.33
  -3  10  -5    2.60    0.17
  -3  10  -5    2.33    0.18
  -3  10  -5    2.23    0.20
   3 -10   5    2.54    0.18
   3 -10   5    2.61    0.20
   3 -10   5    2.33    0.18
  -4  10  -5    2.30    0.18
  -4  10  -5    2.13    0.16
   4 -10   5    2.18    0.18
   4 -10   5    2.58    0.17
   4 -10   5    2.38    0.19
   4 -10   5    2.32    0.12
  -5  10  -5    2.94    0.18
  -5  10  -5    3.06    0.21
   5 -10   5    3.14    0.18
   5 -10   5    3.30    0.21
   5 -10   5    3.31    0.21
   5 -10   5    3.03    0.20
   5 -10   5    2.98    0.15
  -6  10  -5    0.92    0.13
  -6  10  -5    1.15    0.12
  -6  10  -5    0.69    0.10
   6 -10   5    0.97    0.10
   6 -10   5    0.77    0.12
   6 -10   5    0.87    0.10
  -7  10  -5    0.06    0.07
  -7  10  -5   -0.16    0.08
   7 -10   5   -0.01    0.06
   7 -10   5   -0.03    0.08
   7 -10   5    0.00    0.06
  -8  10  -5   -0.06    0.10
  -8  10  -5    0.00    0.08
   8 -10   5    0.05    0.08
   8 -10   5    0.05    0.06
   8 -10   5   -0.05    0.10
  -9  10  -5   -0.06    0.08
  -9  10  -5   -0.13    0.11
   9 -10   5    0.06    0.08
   9 -10   5   -0.04    0.12
 -10  10  -5    0.38    0.14
 -10  10  -5    0.38    0.09
  10 -10   5    0.47    0.11
  10 -10   5    0.33    0.13
   4   9  -5    0.42    0.11
   4   9  -5    0.42    0.12
   4   9  -5    0.42    0.10
   3   9  -5    2.70    0.21
   3   9  -5    2.67    0.19
   3   9  -5    2.48    0.21
   2   9  -5    0.69    0.11
   2   9  -5    0.83    0.11
   1   9  -5    0.63    0.10
   1   9  -5    0.69    0.10
   0   9  -5    4.74    0.22
   0  -9   5    4.53    0.18
   0  -9   5    4.55    0.25
   0  -9   5    4.70    0.18
  -1   9  -5   30.29    0.92
  -1   9  -5   31.74    0.87
   1  -9   5   30.16    0.92
   1  -9   5   30.23    0.92
   1  -9   5   31.27    0.91
  -2   9  -5    5.11    0.24
  -2   9  -5    5.39    0.24
   2  -9   5    5.83    0.26
   2  -9   5    4.78    0.23
   2  -9   5    4.96    0.23
  -3   9  -5   -0.01    0.07
  -3   9  -5   -0.10    0.06
   3  -9   5    0.12    0.08
   3  -9   5    0.17    0.07
   3  -9   5   -0.04    0.07
   3  -9   5    0.05    0.04
   3  -9   5    0.00    0.06
  -4   9  -5    0.14    0.04
  -4   9  -5    0.04    0.07
  -4   9  -5    0.16    0.07
   4  -9   5   -0.02    0.08
   4  -9   5    0.12    0.05
   4  -9   5    0.13    0.06
   4  -9   5    0.18    0.08
   4  -9   5    0.06    0.06
  -5   9  -5    0.75    0.11
  -5   9  -5    0.79    0.07
  -5   9  -5    0.71    0.09
   5  -9   5    0.82    0.11
   5  -9   5    0.81    0.11
   5  -9   5    0.84    0.09
   5  -9   5    0.79    0.08
  -6   9  -5    2.60    0.20
  -6   9  -5    2.77    0.17
   6  -9   5    2.66    0.14
   6  -9   5    2.64    0.20
   6  -9   5    2.88    0.16
  -7   9  -5   -0.09    0.09
   7  -9   5   -0.09    0.09
   7  -9   5    0.06    0.07
   7  -9   5    0.05    0.05
  -8   9  -5    0.03    0.12
  -8   9  -5   -0.10    0.08
   8  -9   5    0.13    0.09
   8  -9   5   -0.06    0.11
  -9   9  -5    0.49    0.09
  -9   9  -5    0.57    0.14
   9  -9   5    0.54    0.11
   9  -9   5    0.57    0.14
 -10   9  -5    0.28    0.13
  10  -9   5    0.11    0.10
  10  -9   5    0.03    0.11
   5   8  -5    1.35    0.15
   5   8  -5    1.62    0.17
   5   8  -5    1.77    0.14
   4   8  -5    0.34    0.09
   4   8  -5    0.36    0.07
   4   8  -5    0.37    0.11
   4   8  -5    0.54    0.11
   3   8  -5    0.65    0.10
   3   8  -5    0.53    0.11
   2   8  -5    5.05    0.24
   1   8  -5   10.64    0.37
   0   8  -5    2.36    0.13
   0   8  -5    2.56    0.17
   0   8  -5    2.48    0.13
   0  -8   5    2.01    0.19
   0  -8   5    2.56    0.13
  -1   8  -5  117.84    3.38
  -1   8  -5  118.60    3.10
   1  -8   5  117.56    3.38
   1  -8   5  116.64    3.38
   1  -8   5  119.41    3.16
  -2   8  -5    0.99    0.11
  -2   8  -5    1.28    0.13
   2  -8   5    1.26    0.13
   2  -8   5    1.10    0.12
   2  -8   5    1.00    0.10
   2  -8   5    1.29    0.13
   2  -8   5    1.24    0.09
  -3   8  -5   43.31    1.39
  -3   8  -5   47.03    1.27
   3  -8   5   48.94    1.29
   3  -8   5   48.21    1.18
   3  -8   5   47.97    1.31
   3  -8   5   47.37    1.27
   3  -8   5   45.36    1.39
   3  -8   5   45.44    1.39
  -4   8  -5   22.58    0.54
  -4   8  -5   22.97    0.68
  -4   8  -5   23.92    0.75
   4  -8   5   22.84    0.66
   4  -8   5   24.03    0.75
   4  -8   5   23.66    0.63
   4  -8   5   23.15    0.75
  -5   8  -5    3.40    0.21
  -5   8  -5    3.15    0.18
  -5   8  -5    3.10    0.13
   5  -8   5    3.34    0.20
   5  -8   5    3.20    0.21
   5  -8   5    3.30    0.15
   5  -8   5    3.25    0.16
  -6   8  -5    0.40    0.08
  -6   8  -5    0.41    0.10
   6  -8   5    0.41    0.08
   6  -8   5    0.36    0.06
   6  -8   5    0.37    0.10
  -7   8  -5    0.14    0.12
   7  -8   5   -0.05    0.10
   7  -8   5    0.20    0.08
  -8   8  -5    2.42    0.24
   8  -8   5    2.61    0.19
   8  -8   5    2.12    0.23
  -9   8  -5   -0.03    0.11
  -9   8  -5   -0.01    0.06
   9  -8   5    0.01    0.08
   9  -8   5   -0.10    0.10
 -10   8  -5    4.52    0.31
  10  -8   5    4.60    0.31
  10  -8   5    4.38    0.26
   6   7  -5    3.20    0.25
   6   7  -5    3.33    0.18
   5   7  -5    0.18    0.07
   5   7  -5    0.26    0.10
   5   7  -5    0.16    0.08
   5   7  -5    0.10    0.07
   4   7  -5   14.11    0.45
   4   7  -5   14.09    0.48
   4   7  -5   13.97    0.43
   3   7  -5    0.08    0.07
   2   7  -5    0.85    0.10
  -2  -7   5    0.78    0.10
   1   7  -5    0.54    0.05
   1   7  -5    0.66    0.07
   1   7  -5    0.52    0.09
  -1  -7   5    0.60    0.06
  -1  -7   5    0.61    0.09
  -1  -7   5    0.59    0.06
   0   7  -5   48.78    1.41
   0   7  -5   47.55    1.20
   0   7  -5   49.38    1.41
   0   7  -5   48.28    1.32
   0  -7   5   49.11    1.35
   0  -7   5   50.44    1.33
   0  -7   5   47.88    1.41
   0  -7   5   48.07    1.21
   0  -7   5   47.43    1.41
  -1   7  -5    8.20    0.30
  -1   7  -5    8.23    0.30
  -1   7  -5    8.15    0.24
  -1   7  -5    8.68    0.30
   1  -7   5    8.87    0.31
   1  -7   5    8.37    0.30
   1  -7   5    8.51    0.26
   1  -7   5    8.58    0.30
   1  -7   5    8.73    0.29
  -2   7  -5    2.31    0.14
  -2   7  -5    2.25    0.14
  -2   7  -5    2.39    0.10
   2  -7   5    2.19    0.14
   2  -7   5    2.25    0.14
   2  -7   5    2.30    0.11
   2  -7   5    2.28    0.13
   2  -7   5    2.07    0.15
   2  -7   5    2.49    0.11
  -3   7  -5   32.24    0.84
  -3   7  -5   32.35    0.91
  -3   7  -5   33.30    1.00
   3  -7   5   32.72    0.89
   3  -7   5   32.63    1.00
   3  -7   5   32.10    0.80
   3  -7   5   34.03    1.00
   3  -7   5   32.85    0.93
   3  -7   5   32.75    0.91
   3  -7   5   32.89    0.84
  -4   7  -5   36.29    1.10
  -4   7  -5   36.46    0.93
  -4   7  -5   35.98    0.81
  -4   7  -5   36.18    1.00
   4  -7   5   36.92    0.94
   4  -7   5   35.87    0.87
   4  -7   5   35.40    1.10
   4  -7   5   36.53    0.97
   4  -7   5   35.91    1.10
  -5   7  -5   12.17    0.44
  -5   7  -5   11.83    0.39
   5  -7   5   12.05    0.44
   5  -7   5   11.69    0.35
   5  -7   5   12.33    0.37
   5  -7   5   12.58    0.44
  -6   7  -5   44.42    1.32
   6  -7   5   42.98    1.13
   6  -7   5   41.73    1.32
  -7   7  -5   59.70    1.77
   7  -7   5   56.86    1.51
   7  -7   5   58.48    1.76
  -8   7  -5   -0.09    0.09
   8  -7   5    0.03    0.09
   8  -7   5   -0.01    0.07
  -9   7  -5   -0.03    0.10
  -9   7  -5    0.13    0.06
   9  -7   5    0.16    0.10
   9  -7   5    0.18    0.09
 -10   7  -5    0.26    0.12
  10  -7   5    0.34    0.11
  10  -7   5    0.34    0.13
   7   6  -5    3.12    0.19
   7   6  -5    3.08    0.24
   6   6  -5    7.38    0.27
   6   6  -5    7.44    0.33
   6   6  -5    7.41    0.26
   5   6  -5    5.84    0.23
   5   6  -5    5.96    0.28
   5   6  -5    5.86    0.24
  -5  -6   5    6.10    0.27
   4   6  -5   13.83    0.46
   4   6  -5   13.54    0.37
  -4  -6   5   13.46    0.43
   3   6  -5   29.71    0.84
   3   6  -5   28.62    0.73
  -3  -6   5   28.32    0.78
   2   6  -5    1.38    0.13
   2   6  -5    1.49    0.08
   2   6  -5    1.45    0.08
   2   6  -5    1.49    0.08
  -2  -6   5    1.49    0.08
  -2  -6   5    1.46    0.13
  -2  -6   5    1.54    0.08
   1   6  -5   28.62    0.80
   1   6  -5   28.38    0.71
   1   6  -5   27.97    0.83
   1   6  -5   28.22    0.80
   1   6  -5   28.91    0.84
  -1  -6   5   28.62    0.74
  -1  -6   5   27.67    0.83
   0   6  -5   47.66    1.46
   0   6  -5   52.40    1.46
   0   6  -5   50.15    1.24
   0   6  -5   50.72    1.35
   0   6  -5   49.40    1.35
   0  -6   5   48.71    1.46
   0  -6   5   52.09    1.46
   0  -6   5   49.03    1.24
   0  -6   5   49.82    1.37
   0  -6   5   51.93    1.35
  -1   6  -5    1.06    0.07
  -1   6  -5    0.89    0.10
  -1   6  -5    1.08    0.11
  -1   6  -5    0.97    0.09
  -1   6  -5    0.99    0.08
   1  -6   5    0.98    0.10
   1  -6   5    0.97    0.09
   1  -6   5    0.78    0.08
   1  -6   5    0.78    0.07
   1  -6   5    0.82    0.10
   1  -6   5    0.91    0.07
  -2   6  -5   36.45    0.94
  -2   6  -5   36.91    1.02
  -2   6  -5   38.92    1.11
  -2   6  -5   37.49    1.11
   2  -6   5   36.78    1.03
   2  -6   5   36.45    0.95
   2  -6   5   36.91    0.92
   2  -6   5   36.42    1.11
   2  -6   5   37.35    1.02
   2  -6   5   39.09    1.11
  -3   6  -5   44.66    1.29
  -3   6  -5   42.30    1.17
  -3   6  -5   44.85    1.29
  -3   6  -5   42.83    1.10
   3  -6   5   42.74    1.29
   3  -6   5   42.49    1.15
   3  -6   5   44.79    1.29
   3  -6   5   42.19    1.05
   3  -6   5   42.98    1.10
   3  -6   5   42.37    1.17
  -4   6  -5    4.89    0.19
  -4   6  -5    4.21    0.21
  -4   6  -5    4.70    0.18
  -4   6  -5    4.74    0.20
  -4   6  -5    4.86    0.15
   4  -6   5    4.93    0.22
   4  -6   5    4.82    0.22
   4  -6   5    4.63    0.20
   4  -6   5    4.59    0.13
   4  -6   5    4.66    0.15
   4  -6   5    4.55    0.18
  -5   6  -5    0.99    0.10
  -5   6  -5    1.07    0.12
   5  -6   5    1.09    0.13
   5  -6   5    0.98    0.11
   5  -6   5    1.26    0.12
   5  -6   5    1.17    0.07
  -6   6  -5   65.35    1.91
   6  -6   5   65.06    1.91
   6  -6   5   61.59    1.63
  -7   6  -5    0.15    0.09
   7  -6   5    0.38    0.10
   7  -6   5    0.16    0.08
  -8   6  -5    0.18    0.09
   8  -6   5    0.05    0.07
   8  -6   5    0.04    0.09
  -9   6  -5    4.02    0.27
   9  -6   5    3.54    0.25
   9  -6   5    3.62    0.22
 -10   6  -5    0.06    0.10
  10  -6   5   -0.03    0.10
  10  -6   5   -0.03    0.09
   8   5  -5    1.82    0.19
   8   5  -5    2.18    0.17
   7   5  -5    0.56    0.09
   7   5  -5    0.57    0.12
   6   5  -5    7.87    0.28
   6   5  -5    8.38    0.27
   6   5  -5    8.30    0.27
   6   5  -5    8.32    0.34
  -6  -5   5    8.14    0.33
   5   5  -5    0.47    0.09
  -5  -5   5    0.41    0.09
   4   5  -5   13.96    0.45
  -4  -5   5   13.71    0.42
   3   5  -5   34.73    1.01
   3   5  -5   34.84    1.01
   3   5  -5   36.44    0.99
  -3  -5   5   35.63    0.92
  -3  -5   5   34.71    1.01
   2   5  -5    3.35    0.13
   2   5  -5    3.34    0.16
   2   5  -5    3.49    0.16
   2   5  -5    3.32    0.16
   2   5  -5    3.19    0.13
   2   5  -5    3.26    0.12
  -2  -5   5    3.23    0.13
  -2  -5   5    3.36    0.15
   1   5  -5    0.67    0.06
   1   5  -5    0.55    0.06
   1   5  -5    0.60    0.07
   1   5  -5    0.67    0.07
   1   5  -5    0.60    0.07
   1   5  -5    0.56    0.07
  -1  -5   5    0.72    0.07
  -1  -5   5    0.54    0.07
  -1  -5   5    0.53    0.06
   0   5  -5   36.68    1.02
   0   5  -5   37.57    1.10
   0   5  -5   37.13    0.94
   0   5  -5   37.91    1.10
   0   5  -5   37.18    1.01
   0  -5   5   36.51    1.10
   0  -5   5   37.46    0.93
   0  -5   5   38.49    1.02
   0  -5   5   36.99    1.10
   0  -5   5   37.81    1.03
  -1   5  -5   99.76    2.81
  -1   5  -5   98.33    2.41
  -1   5  -5   96.39    2.57
  -1   5  -5   98.16    2.56
  -1   5  -5   96.83    2.81
   1  -5   5   98.69    2.35
   1  -5   5   99.18    2.57
   1  -5   5   93.33    2.81
   1  -5   5   97.94    2.81
   1  -5   5   99.86    2.60
   1  -5   5   98.46    2.41
  -2   5  -5    0.04    0.05
  -2   5  -5   -0.03    0.03
  -2   5  -5    0.07    0.05
  -2   5  -5    0.00    0.04
   2  -5   5   -0.02    0.04
   2  -5   5    0.00    0.03
   2  -5   5    0.12    0.04
   2  -5   5    0.01    0.04
   2  -5   5   -0.04    0.04
  -3   5  -5   39.59    1.09
  -3   5  -5   39.80    1.04
  -3   5  -5   38.30    1.19
  -3   5  -5   40.34    1.02
  -3   5  -5   40.17    1.20
   3  -5   5   40.54    1.02
   3  -5   5   40.84    1.20
   3  -5   5   40.74    1.09
   3  -5   5   39.17    1.19
  -4   5  -5    2.37    0.15
  -4   5  -5    2.45    0.12
  -4   5  -5    2.30    0.14
  -4   5  -5    2.33    0.10
  -4   5  -5    2.43    0.13
   4  -5   5    2.35    0.13
   4  -5   5    2.44    0.15
   4  -5   5    2.39    0.13
   4  -5   5    2.30    0.15
  -5   5  -5   43.03    1.36
  -5   5  -5   45.64    1.24
  -5   5  -5   45.30    1.18
  -5   5  -5   46.51    1.37
   5  -5   5   45.17    1.37
   5  -5   5   46.64    1.18
  -6   5  -5    4.37    0.24
   6  -5   5    4.29    0.14
   6  -5   5    4.11    0.23
  -7   5  -5    0.79    0.11
  -7   5  -5    1.07    0.09
   7  -5   5    0.80    0.10
   7  -5   5    0.98    0.08
   7  -5   5    0.95    0.12
  -8   5  -5    1.13    0.15
   8  -5   5    1.15    0.15
   8  -5   5    1.13    0.13
  -9   5  -5    0.21    0.11
   9  -5   5    0.31    0.10
   9  -5   5    0.27    0.10
 -10   5  -5   -0.04    0.09
 -10   5  -5   -0.05    0.09
  10  -5   5   -0.10    0.09
   8   4  -5    2.98    0.18
   8   4  -5    3.03    0.23
   8   4  -5    2.75    0.17
   7   4  -5    1.02    0.09
   7   4  -5    0.56    0.12
   7   4  -5    0.83    0.10
  -7  -4   5    0.75    0.12
   6   4  -5    4.57    0.17
   6   4  -5    4.71    0.24
  -6  -4   5    4.69    0.22
   5   4  -5    6.74    0.27
  -5  -4   5    6.52    0.26
   4   4  -5    3.47    0.18
   4   4  -5    3.44    0.13
   4   4  -5    3.63    0.13
  -4  -4   5    3.41    0.13
  -4  -4   5    3.60    0.13
  -4  -4   5    3.75    0.17
   3   4  -5   19.32    0.59
   3   4  -5   20.39    0.60
   3   4  -5   19.85    0.61
   3   4  -5   20.49    0.60
   3   4  -5   20.55    0.59
  -3  -4   5   19.84    0.60
  -3  -4   5   19.65    0.54
   2   4  -5   18.07    0.55
   2   4  -5   19.21    0.57
   2   4  -5   18.69    0.54
   2   4  -5   18.71    0.57
  -2  -4   5   18.55    0.50
  -2  -4   5   19.34    0.57
  -2  -4   5   19.07    0.57
   1   4  -5    1.75    0.11
   1   4  -5    1.76    0.10
   1   4  -5    1.81    0.10
   1   4  -5    1.74    0.08
   1   4  -5    1.69    0.10
  -1  -4   5    1.87    0.10
  -1  -4   5    1.53    0.10
  -1  -4   5    1.63    0.10
   0   4  -5   62.01    1.90
   0   4  -5   66.91    1.73
   0   4  -5   65.11    1.90
   0   4  -5   67.86    1.63
   0   4  -5   65.32    1.74
   0  -4   5   67.57    1.75
   0  -4   5   66.86    1.59
   0  -4   5   65.20    1.90
   0  -4   5   63.74    1.90
   0  -4   5   67.46    1.74
  -1   4  -5   62.75    1.95
  -1   4  -5   68.70    1.70
  -1   4  -5   65.72    1.78
  -1   4  -5   66.83    1.76
  -1   4  -5   66.89    1.67
  -1   4  -5   70.14    1.95
   1  -4   5   72.24    1.95
   1  -4   5   67.11    1.78
   1  -4   5   66.72    1.67
   1  -4   5   65.07    1.95
   1  -4   5   67.97    1.79
  -2   4  -5   58.57    1.71
  -2   4  -5   58.57    1.47
  -2   4  -5   60.89    1.71
  -2   4  -5   59.88    1.49
  -2   4  -5   58.05    1.56
   2  -4   5   57.62    1.47
   2  -4   5   58.88    1.56
   2  -4   5   58.17    1.71
   2  -4   5   57.27    1.71
  -3   4  -5    8.41    0.29
  -3   4  -5    9.08    0.33
  -3   4  -5    8.88    0.28
  -3   4  -5    9.53    0.33
  -3   4  -5    8.60    0.28
   3  -4   5    8.89    0.29
   3  -4   5    9.35    0.33
   3  -4   5    9.01    0.32
   3  -4   5    8.96    0.28
  -4   4  -5   17.14    0.51
  -4   4  -5   16.62    0.48
  -4   4  -5   16.72    0.48
  -4   4  -5   16.82    0.41
  -4   4  -5   17.60    0.56
  -4   4  -5   17.59    0.56
   4  -4   5   17.84    0.56
   4  -4   5   17.16    0.56
   4  -4   5   16.77    0.48
  -5   4  -5    1.97    0.12
  -5   4  -5    1.90    0.15
  -5   4  -5    1.75    0.15
   5  -4   5    1.67    0.15
   5  -4   5    1.46    0.14
  -6   4  -5    3.82    0.15
  -6   4  -5    4.13    0.22
  -6   4  -5    3.71    0.21
   6  -4   5    3.73    0.13
   6  -4   5    3.54    0.19
   6  -4   5    3.97    0.22
  -7   4  -5    0.02    0.08
  -7   4  -5    0.09    0.04
   7  -4   5    0.24    0.09
   7  -4   5    0.22    0.05
   7  -4   5    0.15    0.04
   7  -4   5    0.06    0.07
  -8   4  -5    0.62    0.12
   8  -4   5    0.56    0.12
   8  -4   5    0.46    0.11
  -9   4  -5    1.14    0.15
  -9   4  -5    1.19    0.15
   9  -4   5    1.28    0.14
   9  -4   5    1.30    0.15
 -10   4  -5    1.05    0.15
 -10   4  -5    1.16    0.16
  10  -4   5    1.33    0.16
   9   3  -5    1.09    0.15
   9   3  -5    0.84    0.12
   9   3  -5    0.92    0.12
  -9  -3   5    1.07    0.14
   8   3  -5    0.51    0.12
   8   3  -5    0.66    0.09
   8   3  -5    0.71    0.09
  -8  -3   5    0.49    0.11
   7   3  -5    1.23    0.14
   7   3  -5    1.48    0.09
  -7  -3   5    1.30    0.14
  -7  -3   5    1.66    0.10
   6   3  -5    0.18    0.05
   6   3  -5    0.22    0.05
   6   3  -5    0.14    0.05
   6   3  -5    0.06    0.08
  -6  -3   5    0.16    0.05
  -6  -3   5    0.19    0.04
  -6  -3   5    0.10    0.08
   5   3  -5    0.58    0.09
   5   3  -5    0.68    0.07
   5   3  -5    0.57    0.09
   5   3  -5    0.68    0.07
  -5  -3   5    0.64    0.06
  -5  -3   5    0.72    0.09
   4   3  -5    5.53    0.21
   4   3  -5    5.57    0.20
   4   3  -5    5.14    0.22
   4   3  -5    5.13    0.22
   4   3  -5    5.62    0.20
  -4  -3   5    5.59    0.20
  -4  -3   5    5.58    0.20
  -4  -3   5    4.99    0.20
   3   3  -5    5.59    0.20
   3   3  -5    5.56    0.21
   3   3  -5    5.55    0.20
   3   3  -5    5.49    0.20
  -3  -3   5    5.52    0.20
  -3  -3   5    5.64    0.20
  -3  -3   5    5.50    0.20
   2   3  -5    0.14    0.03
   2   3  -5    0.13    0.04
   2   3  -5    0.10    0.04
   2   3  -5    0.22    0.05
   2   3  -5    0.16    0.04
  -2  -3   5    0.11    0.04
  -2  -3   5    0.14    0.04
  -2  -3   5    0.13    0.04
  -2  -3   5    0.15    0.04
   1   3  -5   30.38    0.78
   1   3  -5   31.93    0.91
   1   3  -5   30.98    0.83
   1   3  -5   30.12    0.84
   1   3  -5   28.44    0.90
   1   3  -5   31.11    0.79
  -1  -3   5   30.26    0.90
  -1  -3   5   29.86    0.91
  -1  -3   5   31.66    0.84
   0   3  -5    7.99    0.28
   0   3  -5    8.04    0.26
   0   3  -5    8.08    0.24
   0   3  -5    8.05    0.28
   0   3  -5    8.60    0.25
   0  -3   5    7.72    0.28
   0  -3   5    7.59    0.24
   0  -3   5    8.08    0.28
   0  -3   5    8.36    0.26
  -1   3  -5  308.07    8.12
  -1   3  -5  316.77    7.74
  -1   3  -5  320.28    8.90
  -1   3  -5  312.72    7.63
  -1   3  -5  316.97    8.93
   1  -3   5  312.44    7.69
   1  -3   5  309.44    8.96
   1  -3   5  319.25    8.11
   1  -3   5  301.71    8.86
  -2   3  -5    0.49    0.06
  -2   3  -5    0.60    0.06
  -2   3  -5    0.58    0.07
  -2   3  -5    0.52    0.06
  -2   3  -5    0.66    0.08
   2  -3   5    0.58    0.06
   2  -3   5    0.70    0.08
   2  -3   5    0.70    0.07
   2  -3   5    0.66    0.07
   2  -3   5    0.49    0.06
  -3   3  -5   38.41    0.85
  -3   3  -5   37.94    1.04
  -3   3  -5   37.63    0.98
  -3   3  -5   38.14    0.96
  -3   3  -5   38.11    0.99
  -3   3  -5   37.42    1.14
  -3   3  -5   37.48    1.14
   3  -3   5   39.64    1.14
   3  -3   5   38.18    1.04
   3  -3   5   38.37    0.98
   3  -3   5   36.71    1.14
   3  -3   5   37.29    0.99
  -4   3  -5    7.24    0.27
  -4   3  -5    6.51    0.23
  -4   3  -5    6.72    0.27
  -4   3  -5    6.51    0.21
   4  -3   5    6.62    0.27
   4  -3   5    6.43    0.23
   4  -3   5    6.62    0.24
   4  -3   5    6.23    0.27
  -5   3  -5    0.06    0.06
  -5   3  -5    0.08    0.06
  -5   3  -5   -0.03    0.04
  -5   3  -5   -0.02    0.05
   5  -3   5   -0.10    0.06
   5  -3   5    0.02    0.05
   5  -3   5    0.11    0.07
   5  -3   5    0.01    0.03
  -6   3  -5    0.82    0.11
  -6   3  -5    0.94    0.11
  -6   3  -5    0.99    0.08
   6  -3   5    0.88    0.10
   6  -3   5    0.84    0.09
   6  -3   5    0.85    0.11
   6  -3   5    1.08    0.07
  -7   3  -5    0.04    0.09
  -7   3  -5    0.09    0.09
   7  -3   5    0.19    0.08
   7  -3   5    0.21    0.10
   7  -3   5    0.26    0.08
  -8   3  -5    4.96    0.27
  -8   3  -5    5.05    0.28
   8  -3   5    4.91    0.26
   8  -3   5    5.14    0.28
  -9   3  -5    0.11    0.09
  -9   3  -5    0.22    0.11
   9  -3   5    0.11    0.09
  10   2  -5    1.73    0.15
  10   2  -5    1.74    0.18
  10   2  -5    1.79    0.18
 -10  -2   5    1.60    0.17
   9   2  -5    0.67    0.10
   9   2  -5    0.66    0.11
   9   2  -5    0.63    0.13
  -9  -2   5    0.65    0.08
  -9  -2   5    0.56    0.12
   8   2  -5    0.25    0.09
   8   2  -5    0.20    0.07
  -8  -2   5    0.23    0.06
  -8  -2   5    0.20    0.09
   7   2  -5    4.55    0.16
   7   2  -5    4.61    0.24
   7   2  -5    4.59    0.20
  -7  -2   5    4.68    0.21
  -7  -2   5    4.48    0.19
  -7  -2   5    4.72    0.20
   6   2  -5    2.10    0.16
   6   2  -5    2.07    0.10
   6   2  -5    2.19    0.13
   6   2  -5    2.20    0.13
   6   2  -5    2.14    0.14
   6   2  -5    1.97    0.09
  -6  -2   5    2.11    0.13
  -6  -2   5    2.15    0.12
  -6  -2   5    1.89    0.14
   5   2  -5    0.01    0.04
   5   2  -5    0.08    0.05
   5   2  -5    0.03    0.03
   5   2  -5    0.01    0.06
   5   2  -5    0.07    0.04
   5   2  -5    0.00    0.05
  -5  -2   5    0.04    0.06
  -5  -2   5    0.05    0.04
  -5  -2   5    0.00    0.05
   4   2  -5   49.30    1.38
   4   2  -5   53.23    1.49
   4   2  -5   50.53    1.29
   4   2  -5   50.48    1.49
   4   2  -5   51.45    1.28
  -4  -2   5   53.20    1.48
  -4  -2   5   50.46    1.27
  -4  -2   5   50.25    1.49
   3   2  -5    6.19    0.22
   3   2  -5    6.04    0.19
   3   2  -5    6.21    0.22
   3   2  -5    5.94    0.19
   3   2  -5    5.74    0.22
  -3  -2   5    6.28    0.22
  -3  -2   5    6.23    0.22
  -3  -2   5    6.12    0.20
   2   2  -5    1.10    0.09
   2   2  -5    1.07    0.08
   2   2  -5    1.05    0.09
   2   2  -5    0.90    0.09
   2   2  -5    1.01    0.07
   2   2  -5    1.17    0.07
  -2  -2   5    1.08    0.08
  -2  -2   5    0.98    0.08
  -2  -2   5    1.10    0.09
   1   2  -5    2.07    0.10
   1   2  -5    1.85    0.11
   1   2  -5    1.88    0.10
   1   2  -5    2.10    0.10
   1   2  -5    2.10    0.10
   1   2  -5    2.02    0.11
   1   2  -5    1.93    0.08
  -1  -2   5    1.90    0.11
  -1  -2   5    1.98    0.12
  -1  -2   5    2.01    0.10
   0   2  -5   75.08    1.99
   0   2  -5   76.05    1.90
   0   2  -5   78.08    1.87
   0   2  -5   69.45    2.18
   0   2  -5   76.83    2.18
   0   2  -5   78.50    1.88
   0  -2   5   76.10    1.99
   0  -2   5   76.00    1.98
   0  -2   5   72.08    2.18
   0  -2   5   78.36    2.19
   0  -2   5   75.65    1.90
  -1   2  -5    2.98    0.15
  -1   2  -5    3.15    0.13
  -1   2  -5    3.00    0.13
  -1   2  -5    3.10    0.12
  -1   2  -5    3.12    0.15
  -1   2  -5    3.03    0.14
   1  -2   5    3.06    0.13
   1  -2   5    3.08    0.16
   1  -2   5    2.93    0.13
   1  -2   5    3.15    0.15
   1  -2   5    3.12    0.14
  -2   2  -5   35.44    0.92
  -2   2  -5   35.10    0.99
  -2   2  -5   36.06    0.94
  -2   2  -5   37.18    1.08
  -2   2  -5   37.72    1.09
  -2   2  -5   36.45    0.93
   2  -2   5   36.57    1.09
   2  -2   5   36.48    0.98
   2  -2   5   37.28    1.08
   2  -2   5   35.44    0.94
   2  -2   5   34.93    0.93
  -3   2  -5  112.02    2.45
  -3   2  -5  113.30    2.87
  -3   2  -5  114.10    3.29
  -3   2  -5  120.83    3.30
  -3   2  -5  114.09    3.00
  -3   2  -5  113.28    2.80
  -3   2  -5  113.82    2.83
   3  -2   5  117.43    3.29
   3  -2   5  114.36    3.00
   3  -2   5  115.18    2.84
   3  -2   5  108.97    3.29
   3  -2   5  116.42    2.87
  -4   2  -5    0.59    0.09
  -4   2  -5    0.76    0.07
  -4   2  -5    0.67    0.07
  -4   2  -5    0.79    0.09
   4  -2   5    0.64    0.09
   4  -2   5    0.61    0.08
   4  -2   5    0.70    0.08
  -5   2  -5    2.94    0.18
  -5   2  -5    2.79    0.12
  -5   2  -5    3.10    0.18
   5  -2   5    2.76    0.16
   5  -2   5    2.69    0.16
   5  -2   5    2.86    0.18
  -6   2  -5   25.06    0.77
  -6   2  -5   23.05    0.61
  -6   2  -5   23.73    0.76
   6  -2   5   23.81    0.67
   6  -2   5   22.77    0.76
   6  -2   5   23.27    0.66
   6  -2   5   22.40    0.65
  -7   2  -5    5.19    0.28
  -7   2  -5    5.35    0.27
   7  -2   5    5.39    0.25
   7  -2   5    5.22    0.27
   7  -2   5    5.54    0.23
  -8   2  -5    0.04    0.08
  -8   2  -5    0.04    0.09
   8  -2   5    0.06    0.07
   8  -2   5   -0.12    0.08
  -9   2  -5    0.25    0.10
  -9   2  -5    0.36    0.12
   9  -2   5    0.30    0.11
  10   1  -5    4.26    0.22
  10   1  -5    4.41    0.23
 -10  -1   5    3.93    0.21
 -10  -1   5    4.10    0.24
   9   1  -5   13.65    0.38
  -9  -1   5   12.61    0.43
  -9  -1   5   12.28    0.44
   8   1  -5    4.64    0.22
   8   1  -5    4.60    0.21
  -8  -1   5    4.55    0.21
  -8  -1   5    4.21    0.21
   7   1  -5   25.98    0.77
   7   1  -5   26.00    0.77
   7   1  -5   26.44    0.67
   7   1  -5   26.51    0.81
  -7  -1   5   26.00    0.81
  -7  -1   5   26.49    0.80
  -7  -1   5   26.09    0.71
   6   1  -5   71.91    2.03
   6   1  -5   73.59    1.81
   6   1  -5   72.76    1.97
   6   1  -5   72.24    2.13
   6   1  -5   72.84    1.82
  -6  -1   5   74.88    2.13
  -6  -1   5   75.14    1.82
  -6  -1   5   75.66    2.13
   5   1  -5    8.36    0.29
   5   1  -5    8.26    0.29
   5   1  -5    8.13    0.23
   5   1  -5    8.18    0.29
   5   1  -5    8.34    0.25
   5   1  -5    8.19    0.27
  -5  -1   5    8.18    0.29
  -5  -1   5    8.03    0.29
  -5  -1   5    8.18    0.27
   4   1  -5   58.99    1.67
   4   1  -5   58.00    1.44
   4   1  -5   54.60    1.67
   4   1  -5   58.51    1.43
   4   1  -5   57.89    1.54
  -4  -1   5   56.14    1.67
  -4  -1   5   58.87    1.42
  -4  -1   5   56.78    1.67
   3   1  -5  137.19    3.98
   3   1  -5  138.16    3.64
   3   1  -5  142.47    3.40
   3   1  -5  143.69    3.98
   3   1  -5  141.17    3.46
  -3  -1   5  140.96    3.98
  -3  -1   5  133.94    3.98
   2   1  -5   48.65    1.45
   2   1  -5   50.79    1.26
   2   1  -5   46.39    1.44
   2   1  -5   50.77    1.24
   2   1  -5   50.07    1.32
  -2  -1   5   50.63    1.45
  -2  -1   5   47.08    1.45
  -2  -1   5   51.68    1.32
  -2  -1   5   50.47    1.26
   1   1  -5    9.90    0.28
   1   1  -5    9.52    0.28
   1   1  -5    9.68    0.30
   1   1  -5    9.86    0.33
   1   1  -5    9.74    0.28
   1   1  -5    9.32    0.33
  -1  -1   5    9.71    0.33
  -1  -1   5    9.60    0.33
  -1  -1   5    9.62    0.28
  -1  -1   5    9.83    0.29
   0   1  -5   75.93    2.16
   0   1  -5   73.44    1.96
   0   1  -5   76.00    1.86
   0   1  -5   78.85    2.16
   0   1  -5   73.64    1.84
   0   1  -5   74.54    1.88
   0  -1   5   74.75    1.96
   0  -1   5   74.11    1.88
   0  -1   5   69.25    2.16
   0  -1   5   76.80    2.16
  -1   1  -5   23.78    0.80
  -1   1  -5   26.06    0.72
  -1   1  -5   26.93    0.70
  -1   1  -5   26.02    0.68
  -1   1  -5   26.49    0.69
  -1   1  -5   28.07    0.80
   1  -1   5   26.08    0.70
   1  -1   5   26.31    0.72
   1  -1   5   26.28    0.80
   1  -1   5   25.76    0.69
   1  -1   5   26.31    0.80
  -2   1  -5    2.99    0.16
  -2   1  -5    3.01    0.13
  -2   1  -5    3.02    0.13
  -2   1  -5    3.22    0.14
  -2   1  -5    2.99    0.11
  -2   1  -5    3.04    0.16
   2  -1   5    3.23    0.14
   2  -1   5    2.98    0.16
   2  -1   5    2.96    0.16
   2  -1   5    3.04    0.14
   2  -1   5    2.97    0.14
  -3   1  -5   30.41    0.80
  -3   1  -5   30.36    0.69
  -3   1  -5   30.38    0.81
  -3   1  -5   31.05    0.94
  -3   1  -5   30.84    0.93
  -3   1  -5   30.36    0.78
   3  -1   5   31.42    0.85
   3  -1   5   29.01    0.93
   3  -1   5   29.99    0.93
   3  -1   5   31.20    0.82
   3  -1   5   30.71    0.81
  -4   1  -5   27.20    0.84
  -4   1  -5   26.01    0.69
  -4   1  -5   26.50    0.84
   4  -1   5   27.17    0.74
   4  -1   5   26.86    0.73
   4  -1   5   27.31    0.84
  -5   1  -5    2.69    0.18
  -5   1  -5    2.59    0.18
  -5   1  -5    2.60    0.12
   5  -1   5    2.69    0.19
   5  -1   5    3.02    0.17
   5  -1   5    3.12    0.17
  -6   1  -5   18.44    0.62
  -6   1  -5   18.52    0.62
   6  -1   5   19.06    0.55
   6  -1   5   18.02    0.56
   6  -1   5   18.29    0.62
  -7   1  -5    0.93    0.12
  -7   1  -5    0.98    0.14
   7  -1   5    0.86    0.12
   7  -1   5    1.06    0.12
  -8   1  -5    0.69    0.13
  -8   1  -5    0.44    0.11
   8  -1   5    0.65    0.12
   8  -1   5    0.53    0.10
  11   0  -5    6.44    0.30
  11   0  -5    5.95    0.27
 -11   0   5    6.18    0.30
 -11   0   5    5.49    0.28
  10   0  -5   -0.01    0.07
 -10   0   5   -0.03    0.08
 -10   0   5    0.00    0.07
   9   0  -5    0.03    0.06
  -9   0   5    0.04    0.07
  -9   0   5   -0.04    0.07
   8   0  -5    5.57    0.18
   8   0  -5    5.71    0.25
   8   0  -5    5.83    0.22
  -8   0   5    6.05    0.24
  -8   0   5    5.59    0.24
  -8   0   5    5.89    0.25
   7   0  -5    8.84    0.30
   7   0  -5    8.96    0.33
   7   0  -5    9.10    0.27
  -7   0   5    8.98    0.34
  -7   0   5    9.42    0.33
  -7   0   5    8.96    0.31
   6   0  -5   -0.02    0.05
   6   0  -5    0.00    0.05
   6   0  -5    0.03    0.02
   6   0  -5    0.03    0.04
   6   0  -5    0.05    0.04
  -6   0   5    0.05    0.06
  -6   0   5   -0.02    0.05
  -6   0   5   -0.07    0.05
   5   0  -5  140.84    3.37
   5   0  -5  141.52    3.95
   5   0  -5  136.98    3.42
   5   0  -5  139.32    3.95
   5   0  -5  134.64    3.61
  -5   0   5  135.63    3.95
  -5   0   5  138.55    3.95
   4   0  -5    7.60    0.28
   4   0  -5    7.51    0.26
   4   0  -5    7.51    0.24
   4   0  -5    7.52    0.23
   4   0  -5    8.19    0.28
  -4   0   5    8.03    0.28
  -4   0   5    7.78    0.28
  -4   0   5    7.33    0.23
   3   0  -5   88.10    2.13
   3   0  -5   84.63    2.27
   3   0  -5   87.83    2.49
   3   0  -5   86.48    2.16
   3   0  -5   87.30    2.49
  -3   0   5   85.98    2.13
  -3   0   5   80.90    2.49
  -3   0   5   86.56    2.16
  -3   0   5   91.16    2.49
   2   0  -5   38.16    0.97
   2   0  -5   37.29    1.01
   2   0  -5   39.58    1.12
   2   0  -5   38.55    0.95
   2   0  -5   38.31    1.12
  -2   0   5   36.71    0.95
  -2   0   5   37.92    0.97
  -2   0   5   37.23    1.11
  -2   0   5   33.95    1.11
  -2   0   5   38.30    1.01
   1   0  -5    2.56    0.11
   1   0  -5    2.54    0.12
   1   0  -5    2.54    0.11
   1   0  -5    2.44    0.14
   1   0  -5    2.41    0.13
   1   0  -5    2.63    0.11
  -1   0   5    2.61    0.12
  -1   0   5    2.41    0.14
  -1   0   5    2.43    0.13
  -1   0   5    2.48    0.12
  -1   0   5    2.59    0.11
   0   0  -5  129.32    3.53
   0   0  -5  120.93    3.01
   0   0  -5  123.92    3.03
   0   0  -5  122.78    3.53
   0   0  -5  121.32    3.20
   0   0  -5  121.89    3.07
   0   0   5  123.58    3.53
   0   0   5  122.56    3.20
   0   0   5  124.81    3.52
   0   0   5  122.86    3.07
   0   0   5  120.12    3.01
  -1   0  -5    9.98    0.30
  -1   0  -5    9.89    0.30
  -1   0  -5   10.03    0.34
  -1   0  -5    9.59    0.34
  -1   0  -5    9.99    0.29
  -1   0  -5    9.77    0.29
  -1   0  -5    9.68    0.29
   1   0   5    9.56    0.35
   1   0   5    9.57    0.30
   1   0   5    9.57    0.28
   1   0   5    9.83    0.30
   1   0   5   10.00    0.34
   1   0   5    9.74    0.29
  -2   0  -5    2.74    0.12
  -2   0  -5    2.72    0.13
  -2   0  -5    2.40    0.15
  -2   0  -5    2.38    0.16
  -2   0  -5    2.92    0.14
  -2   0  -5    2.67    0.11
  -2   0  -5    2.82    0.12
   2   0   5    2.64    0.14
   2   0   5    2.61    0.16
   2   0   5    2.70    0.15
   2   0   5    2.78    0.13
   2   0   5    3.00    0.15
   2   0   5    2.71    0.13
  -3   0  -5   40.90    1.04
  -3   0  -5   41.23    1.23
  -3   0  -5   41.86    1.23
   3   0   5   39.94    1.04
   3   0   5   41.11    1.08
   3   0   5   41.42    1.23
   3   0   5   40.52    1.07
   3   0   5   41.49    1.12
  -4   0  -5    4.95    0.23
  -4   0  -5    4.62    0.24
  -4   0  -5    5.02    0.23
  -4   0  -5    4.85    0.18
   4   0   5    5.05    0.21
   4   0   5    4.65    0.23
   4   0   5    4.98    0.22
  -5   0  -5    2.17    0.11
  -5   0  -5    2.08    0.17
  -5   0  -5    2.07    0.17
  -5   0  -5    2.40    0.20
   5   0   5    2.11    0.17
   5   0   5    1.93    0.16
   5   0   5    2.28    0.17
  -6   0  -5    0.83    0.14
  -6   0  -5    0.81    0.11
   6   0   5    1.11    0.12
   6   0   5    1.10    0.12
  -7   0  -5    0.51    0.12
  -7   0  -5    0.39    0.09
   7   0   5    0.45    0.10
   7   0   5    0.42    0.10
  11  -1  -5    3.04    0.22
  11  -1  -5    3.16    0.20
 -11   1   5    2.91    0.21
 -11   1   5    3.07    0.21
  10  -1  -5    2.24    0.17
 -10   1   5    2.02    0.17
 -10   1   5    2.22    0.18
   9  -1  -5    1.03    0.12
   9  -1  -5    1.07    0.11
  -9   1   5    1.15    0.12
  -9   1   5    1.03    0.12
   8  -1  -5   10.02    0.30
   8  -1  -5   10.20    0.38
   8  -1  -5    9.84    0.32
  -8   1   5   10.32    0.38
  -8   1   5   10.62    0.34
  -8   1   5   10.84    0.38
   7  -1  -5    0.65    0.06
   7  -1  -5    0.64    0.09
   7  -1  -5    0.59    0.06
  -7   1   5    0.60    0.09
  -7   1   5    0.57    0.08
  -7   1   5    0.63    0.09
   6  -1  -5    0.13    0.03
   6  -1  -5    0.19    0.06
   6  -1  -5    0.18    0.04
   6  -1  -5    0.16    0.07
  -6   1   5    0.18    0.07
  -6   1   5    0.25    0.07
  -6   1   5    0.18    0.05
   5  -1  -5   11.83    0.42
   5  -1  -5   13.10    0.43
   5  -1  -5   12.31    0.38
   5  -1  -5   12.42    0.36
   5  -1  -5   12.45    0.34
  -5   1   5   13.28    0.43
  -5   1   5   12.92    0.36
  -5   1   5   11.57    0.42
  -5   1   5   12.69    0.34
   4  -1  -5   54.45    1.43
   4  -1  -5   51.06    1.58
   4  -1  -5   54.89    1.35
   4  -1  -5   54.65    1.36
   4  -1  -5   51.18    1.58
  -4   1   5   53.38    1.58
  -4   1   5   54.67    1.35
  -4   1   5   55.44    1.59
  -4   1   5   54.64    1.36
   3  -1  -5   23.81    0.75
   3  -1  -5   24.66    0.64
   3  -1  -5   24.98    0.67
   3  -1  -5   25.45    0.76
   3  -1  -5   24.61    0.65
  -3   1   5   25.44    0.76
  -3   1   5   23.84    0.76
  -3   1   5   23.99    0.64
  -3   1   5   24.17    0.65
   2  -1  -5   16.91    0.53
   2  -1  -5   17.23    0.54
   2  -1  -5   16.76    0.45
   2  -1  -5   16.24    0.46
   2  -1  -5   16.72    0.46
  -2   1   5   16.29    0.46
  -2   1   5   16.56    0.46
  -2   1   5   15.19    0.53
  -2   1   5   17.59    0.53
   1  -1  -5   33.57    0.86
   1  -1  -5   33.29    0.90
   1  -1  -5   33.46    1.01
   1  -1  -5   34.75    1.01
   1  -1  -5   34.32    0.87
   1  -1  -5   34.83    0.88
  -1   1   5   32.89    0.88
  -1   1   5   31.99    1.01
  -1   1   5   32.76    0.86
  -1   1   5   33.25    0.90
  -1   1   5   34.17    1.01
   0  -1  -5    0.03    0.05
   0  -1  -5    0.12    0.04
   0  -1  -5    0.12    0.05
   0  -1  -5    0.21    0.04
   0  -1  -5    0.09    0.05
   0  -1  -5    0.14    0.05
   0   1   5    0.13    0.05
   0   1   5    0.05    0.05
   0   1   5    0.13    0.06
   0   1   5    0.08    0.04
   0   1   5    0.08    0.05
  -1  -1  -5   11.21    0.28
  -1  -1  -5   10.78    0.38
  -1  -1  -5   11.12    0.34
  -1  -1  -5   10.74    0.32
  -1  -1  -5   10.72    0.32
  -1  -1  -5   11.25    0.38
  -1  -1  -5   10.91    0.33
   1   1   5   10.58    0.34
   1   1   5   10.58    0.32
   1   1   5   10.63    0.32
   1   1   5   10.71    0.38
   1   1   5   10.93    0.33
   1   1   5   10.71    0.33
   1   1   5   11.07    0.38
  -2  -1  -5   12.88    0.39
  -2  -1  -5   13.63    0.40
  -2  -1  -5   12.73    0.45
  -2  -1  -5   13.43    0.33
  -2  -1  -5   12.84    0.38
  -2  -1  -5   13.15    0.45
   2   1   5   12.89    0.39
   2   1   5   13.53    0.41
   2   1   5   13.66    0.40
   2   1   5   12.95    0.39
   2   1   5   13.54    0.46
   2   1   5   13.30    0.38
  -3  -1  -5    0.74    0.08
  -3  -1  -5    0.85    0.12
  -3  -1  -5    0.87    0.10
  -3  -1  -5    0.72    0.10
   3   1   5    0.72    0.08
   3   1   5    0.80    0.08
   3   1   5    0.76    0.09
   3   1   5    0.61    0.09
   3   1   5    0.71    0.09
  -4  -1  -5    4.63    0.22
  -4  -1  -5    4.49    0.22
  -4  -1  -5    4.42    0.25
  -4  -1  -5    4.32    0.17
   4   1   5    4.50    0.21
   4   1   5    4.46    0.21
   4   1   5    4.43    0.18
   4   1   5    4.59    0.22
  -5  -1  -5    0.31    0.11
  -5  -1  -5    0.33    0.08
   5   1   5    0.28    0.09
   5   1   5    0.29    0.09
   5   1   5    0.14    0.08
  -6  -1  -5    2.61    0.19
  -6  -1  -5    2.90    0.24
   6   1   5    2.77    0.19
   6   1   5    2.93    0.20
  -7  -1  -5    1.33    0.14
  -7  -1  -5    1.36    0.18
   7   1   5    1.36    0.15
   7   1   5    1.58    0.15
  11  -2  -5    0.09    0.08
 -11   2   5   -0.08    0.08
 -11   2   5   -0.01    0.08
  10  -2  -5    1.03    0.13
  10  -2  -5    1.09    0.11
 -10   2   5    1.27    0.13
 -10   2   5    1.03    0.13
   9  -2  -5    3.02    0.20
  -9   2   5    3.02    0.18
  -9   2   5    3.16    0.21
  -9   2   5    3.31    0.20
   8  -2  -5    0.02    0.04
   8  -2  -5    0.15    0.07
  -8   2   5   -0.02    0.06
  -8   2   5    0.12    0.07
  -8   2   5   -0.03    0.06
   7  -2  -5   23.43    0.69
   7  -2  -5   22.99    0.75
   7  -2  -5   23.60    0.63
  -7   2   5   23.29    0.60
  -7   2   5   24.35    0.76
  -7   2   5   23.79    0.63
  -7   2   5   24.23    0.76
  -7   2   5   23.92    0.64
   6  -2  -5   43.17    1.10
   6  -2  -5   41.48    1.19
   6  -2  -5   42.66    1.11
   6  -2  -5   42.98    1.18
   6  -2  -5   44.58    1.31
  -6   2   5   44.82    1.31
  -6   2   5   43.75    1.11
  -6   2   5   43.30    1.10
  -6   2   5   45.81    1.31
   5  -2  -5    1.66    0.14
   5  -2  -5    2.02    0.10
   5  -2  -5    2.01    0.14
   5  -2  -5    2.11    0.11
   5  -2  -5    2.00    0.11
  -5   2   5    1.95    0.10
  -5   2   5    1.88    0.15
  -5   2   5    1.96    0.12
  -5   2   5    1.98    0.14
   4  -2  -5    0.08    0.06
   4  -2  -5    0.07    0.05
   4  -2  -5    0.16    0.06
   4  -2  -5    0.10    0.04
   4  -2  -5    0.10    0.04
  -4   2   5    0.09    0.05
  -4   2   5    0.08    0.06
  -4   2   5    0.13    0.06
  -4   2   5    0.04    0.05
   3  -2  -5   15.99    0.51
   3  -2  -5   15.09    0.43
   3  -2  -5   15.44    0.43
   3  -2  -5   15.64    0.50
   3  -2  -5   15.65    0.43
  -3   2   5   15.06    0.50
  -3   2   5   15.39    0.51
  -3   2   5   14.90    0.43
  -3   2   5   14.76    0.43
   2  -2  -5    1.51    0.08
   2  -2  -5    1.62    0.10
   2  -2  -5    1.48    0.10
   2  -2  -5    1.45    0.12
   2  -2  -5    1.64    0.12
   2  -2  -5    1.49    0.10
   2  -2  -5    1.57    0.08
  -2   2   5    1.51    0.12
  -2   2   5    1.39    0.10
  -2   2   5    1.54    0.12
  -2   2   5    1.57    0.11
  -2   2   5    1.59    0.08
   1  -2  -5    8.19    0.25
   1  -2  -5    8.74    0.31
   1  -2  -5    8.32    0.27
   1  -2  -5    7.93    0.26
   1  -2  -5    8.38    0.26
   1  -2  -5    8.34    0.31
  -1   2   5    8.12    0.27
  -1   2   5    8.17    0.30
  -1   2   5    8.40    0.27
  -1   2   5    8.41    0.31
  -1   2   5    8.17    0.25
   0  -2  -5   22.89    0.62
   0  -2  -5   23.15    0.73
   0  -2  -5   23.48    0.66
   0  -2  -5   22.60    0.62
   0  -2  -5   23.68    0.73
   0   2   5   22.75    0.62
   0   2   5   23.75    0.73
   0   2   5   23.08    0.64
   0   2   5   22.59    0.73
   0   2   5   23.27    0.64
  -1  -2  -5   14.85    0.49
  -1  -2  -5   15.00    0.42
  -1  -2  -5   14.48    0.43
  -1  -2  -5   14.78    0.45
  -1  -2  -5   14.70    0.49
  -1  -2  -5   14.44    0.49
  -1  -2  -5   14.82    0.36
   1   2   5   14.81    0.44
   1   2   5   13.85    0.42
   1   2   5   15.01    0.50
   1   2   5   15.04    0.43
   1   2   5   14.56    0.43
  -2  -2  -5    5.65    0.22
  -2  -2  -5    5.26    0.17
  -2  -2  -5    5.68    0.27
  -2  -2  -5    5.38    0.24
  -2  -2  -5    5.57    0.24
   2   2   5    5.27    0.21
   2   2   5    5.27    0.23
   2   2   5    5.28    0.21
   2   2   5    5.65    0.22
   2   2   5    5.55    0.21
   2   2   5    5.74    0.25
  -3  -2  -5    0.22    0.08
  -3  -2  -5    0.21    0.07
  -3  -2  -5   -0.01    0.09
   3   2   5    0.15    0.07
   3   2   5    0.12    0.06
   3   2   5    0.03    0.08
   3   2   5    0.19    0.07
   3   2   5    0.26    0.08
  -4  -2  -5    0.79    0.10
  -4  -2  -5    0.67    0.13
   4   2   5    0.60    0.10
   4   2   5    0.85    0.09
   4   2   5    0.67    0.10
   4   2   5    0.76    0.11
  -5  -2  -5    1.14    0.12
  -5  -2  -5    1.36    0.17
   5   2   5    1.23    0.14
   5   2   5    1.19    0.12
  -6  -2  -5    0.05    0.08
  -6  -2  -5    0.13    0.12
   6   2   5    0.06    0.09
   6   2   5    0.02    0.09
  11  -3  -5    0.32    0.09
 -11   3   5    0.36    0.10
 -11   3   5    0.27    0.11
  10  -3  -5    1.28    0.15
  10  -3  -5    1.24    0.12
 -10   3   5    1.78    0.16
 -10   3   5    1.74    0.19
   9  -3  -5    0.47    0.10
  -9   3   5    0.44    0.10
  -9   3   5    0.25    0.09
  -9   3   5    0.46    0.07
   8  -3  -5    0.06    0.07
   8  -3  -5    0.08    0.05
  -8   3   5    0.05    0.08
  -8   3   5    0.13    0.07
  -8   3   5    0.03    0.06
  -8   3   5    0.10    0.03
   7  -3  -5   16.39    0.50
   7  -3  -5   16.48    0.57
   7  -3  -5   16.38    0.47
  -7   3   5   16.57    0.47
  -7   3   5   16.94    0.57
  -7   3   5   17.10    0.57
  -7   3   5   16.24    0.45
   6  -3  -5    2.99    0.13
   6  -3  -5    3.10    0.15
   6  -3  -5    3.10    0.15
   6  -3  -5    2.85    0.18
  -6   3   5    3.12    0.19
  -6   3   5    3.25    0.18
  -6   3   5    3.10    0.13
  -6   3   5    2.94    0.15
   5  -3  -5    3.60    0.19
   5  -3  -5    3.35    0.17
   5  -3  -5    3.55    0.19
   5  -3  -5    3.76    0.14
   5  -3  -5    3.49    0.15
   5  -3  -5    3.34    0.13
  -5   3   5    3.40    0.20
  -5   3   5    3.51    0.16
  -5   3   5    3.81    0.19
  -5   3   5    3.79    0.15
   4  -3  -5    8.58    0.26
   4  -3  -5    9.04    0.33
   4  -3  -5    8.43    0.27
   4  -3  -5    8.23    0.33
  -4   3   5    8.52    0.33
  -4   3   5    8.23    0.27
  -4   3   5    9.07    0.33
  -4   3   5    8.54    0.28
   3  -3  -5    2.37    0.13
   3  -3  -5    2.47    0.15
   3  -3  -5    2.19    0.13
   3  -3  -5    2.13    0.16
   3  -3  -5    2.21    0.09
   3  -3  -5    2.20    0.11
  -3   3   5    2.15    0.13
  -3   3   5    1.96    0.13
  -3   3   5    2.23    0.16
  -3   3   5    2.34    0.15
   2  -3  -5    6.58    0.25
   2  -3  -5    6.21    0.21
   2  -3  -5    6.54    0.27
   2  -3  -5    6.64    0.22
   2  -3  -5    6.39    0.20
   2  -3  -5    6.48    0.26
  -2   3   5    6.50    0.20
  -2   3   5    6.80    0.27
  -2   3   5    6.38    0.23
  -2   3   5    6.47    0.24
   1  -3  -5   30.66    0.90
   1  -3  -5   30.65    0.95
   1  -3  -5   30.70    0.80
   1  -3  -5   30.10    0.94
  -1   3   5   32.15    0.95
  -1   3   5   31.27    0.83
  -1   3   5   30.37    0.81
  -1   3   5   29.67    0.82
   0  -3  -5    3.76    0.20
   0  -3  -5    3.64    0.13
   0  -3  -5    3.76    0.19
   0  -3  -5    3.80    0.16
   0  -3  -5    3.75    0.18
   0  -3  -5    3.52    0.19
   0   3   5    3.69    0.14
   0   3   5    3.58    0.17
   0   3   5    3.72    0.19
   0   3   5    3.56    0.20
  -1  -3  -5    4.82    0.22
  -1  -3  -5    4.77    0.22
  -1  -3  -5    4.70    0.15
  -1  -3  -5    4.92    0.23
  -1  -3  -5    4.92    0.25
   1   3   5    4.69    0.19
   1   3   5    4.89    0.23
   1   3   5    5.10    0.24
   1   3   5    4.68    0.20
   1   3   5    4.70    0.18
  -2  -3  -5    1.87    0.18
  -2  -3  -5    2.08    0.16
  -2  -3  -5    2.31    0.17
  -2  -3  -5    2.31    0.16
   2   3   5    2.36    0.15
   2   3   5    1.97    0.18
   2   3   5    2.19    0.13
   2   3   5    2.21    0.17
   2   3   5    1.79    0.15
  -3  -3  -5    0.94    0.11
  -3  -3  -5    0.83    0.14
   3   3   5    0.79    0.12
   3   3   5    0.76    0.10
   3   3   5    0.88    0.10
  -4  -3  -5    0.04    0.07
  -4  -3  -5    0.12    0.11
   4   3   5   -0.02    0.07
   4   3   5    0.10    0.08
   4   3   5    0.02    0.09
  -5  -3  -5    0.65    0.16
  -5  -3  -5    0.68    0.10
   5   3   5    0.76    0.11
   5   3   5    0.63    0.12
  12  -4  -5    0.09    0.09
  11  -4  -5   10.82    0.46
  11  -4  -5   10.96    0.35
 -11   4   5   11.65    0.38
 -11   4   5   10.91    0.46
  10  -4  -5    2.21    0.16
  10  -4  -5    2.02    0.20
 -10   4   5    2.12    0.21
 -10   4   5    1.63    0.14
 -10   4   5    2.11    0.14
   9  -4  -5    6.72    0.31
  -9   4   5    6.78    0.32
  -9   4   5    6.76    0.24
  -9   4   5    5.94    0.25
   8  -4  -5    3.12    0.17
   8  -4  -5    3.15    0.21
  -8   4   5    2.95    0.21
  -8   4   5    3.01    0.13
  -8   4   5    2.91    0.17
   7  -4  -5    3.36    0.16
   7  -4  -5    3.44    0.21
  -7   4   5    3.52    0.15
  -7   4   5    3.37    0.18
  -7   4   5    3.28    0.21
   6  -4  -5   15.35    0.45
   6  -4  -5   15.99    0.54
  -6   4   5   15.01    0.44
  -6   4   5   14.71    0.46
  -6   4   5   15.87    0.54
   5  -4  -5   22.81    0.63
   5  -4  -5   23.23    0.63
   5  -4  -5   21.71    0.66
   5  -4  -5   24.37    0.76
  -5   4   5   22.61    0.64
  -5   4   5   22.49    0.64
  -5   4   5   25.20    0.76
   4  -4  -5    2.89    0.14
   4  -4  -5    2.49    0.10
  -4   4   5    2.65    0.16
  -4   4   5    2.89    0.16
   3  -4  -5    7.12    0.24
   3  -4  -5    7.64    0.30
   3  -4  -5    7.24    0.25
   3  -4  -5    7.23    0.27
   3  -4  -5    7.48    0.30
  -3   4   5    7.65    0.31
  -3   4   5    7.21    0.26
  -3   4   5    7.30    0.27
   2  -4  -5    6.15    0.25
   2  -4  -5    6.05    0.21
   2  -4  -5    5.89    0.21
   2  -4  -5    6.37    0.26
   2  -4  -5    6.04    0.27
  -2   4   5    5.94    0.24
  -2   4   5    5.88    0.24
  -2   4   5    5.85    0.18
  -2   4   5    6.02    0.27
   1  -4  -5    1.57    0.11
   1  -4  -5    1.67    0.15
   1  -4  -5    1.70    0.15
   1  -4  -5    1.74    0.15
   1  -4  -5    1.90    0.15
   1  -4  -5    1.74    0.08
  -1   4   5    1.47    0.08
  -1   4   5    1.47    0.14
  -1   4   5    1.68    0.15
  -1   4   5    1.84    0.16
   0  -4  -5    8.27    0.33
   0  -4  -5    8.07    0.32
   0  -4  -5    8.39    0.31
   0  -4  -5    8.08    0.32
   0  -4  -5    8.14    0.22
   0   4   5    7.68    0.32
   0   4   5    8.41    0.31
   0   4   5    8.38    0.29
   0   4   5    7.93    0.25
  -1  -4  -5    8.17    0.33
  -1  -4  -5    7.63    0.22
  -1  -4  -5    8.32    0.31
  -1  -4  -5    8.08    0.35
  -1  -4  -5    7.83    0.32
   1   4   5    7.45    0.29
   1   4   5    8.31    0.33
   1   4   5    7.88    0.32
  -2  -4  -5    0.03    0.07
  -2  -4  -5   -0.21    0.10
  -2  -4  -5    0.10    0.09
   2   4   5   -0.12    0.07
   2   4   5   -0.19    0.09
  -3  -4  -5    1.98    0.17
  -3  -4  -5    1.84    0.19
   3   4   5    2.03    0.16
   3   4   5    2.03    0.20
  -4  -4  -5    2.10    0.17
  -4  -4  -5    2.18    0.22
   4   4   5    2.30    0.21
  11  -5  -5    3.00    0.19
  11  -5  -5    3.00    0.26
 -11   5   5    2.98    0.26
 -11   5   5    2.73    0.20
  10  -5  -5    0.05    0.10
  10  -5  -5    0.16    0.07
 -10   5   5    0.11    0.07
 -10   5   5    0.01    0.08
 -10   5   5   -0.01    0.10
   9  -5  -5    0.32    0.11
   9  -5  -5    0.51    0.08
   9  -5  -5    0.60    0.08
  -9   5   5    0.50    0.09
  -9   5   5    0.45    0.12
  -9   5   5    0.52    0.06
   8  -5  -5    2.19    0.20
   8  -5  -5    2.00    0.13
  -8   5   5    1.95    0.16
  -8   5   5    2.25    0.20
  -8   5   5    1.95    0.12
   7  -5  -5    6.44    0.22
   7  -5  -5    6.75    0.31
  -7   5   5    6.27    0.23
  -7   5   5    6.48    0.26
  -7   5   5    6.45    0.31
   6  -5  -5   11.85    0.45
   6  -5  -5   12.05    0.35
   6  -5  -5   11.84    0.35
  -6   5   5   11.99    0.38
  -6   5   5   12.01    0.39
  -6   5   5   12.03    0.46
   5  -5  -5   63.68    1.91
   5  -5  -5   60.52    1.76
  -5   5   5   63.83    1.65
  -5   5   5   67.51    1.91
  -5   5   5   64.32    1.63
   4  -5  -5    0.45    0.10
   4  -5  -5    0.29    0.07
   4  -5  -5    0.63    0.08
   4  -5  -5    0.41    0.09
  -4   5   5    0.94    0.10
  -4   5   5    0.47    0.10
  -4   5   5    0.41    0.09
   3  -5  -5    3.02    0.16
   3  -5  -5    3.40    0.21
   3  -5  -5    3.59    0.20
   3  -5  -5    3.55    0.19
  -3   5   5    3.73    0.20
  -3   5   5    3.55    0.21
  -3   5   5    3.51    0.19
   2  -5  -5   -0.01    0.05
   2  -5  -5   -0.04    0.07
   2  -5  -5    0.07    0.07
   2  -5  -5    0.04    0.03
   2  -5  -5    0.05    0.07
   2  -5  -5   -0.11    0.07
  -2   5   5   -0.02    0.07
  -2   5   5    0.14    0.08
  -2   5   5   -0.02    0.07
   1  -5  -5    3.97    0.21
   1  -5  -5    3.68    0.22
   1  -5  -5    3.96    0.22
   1  -5  -5    3.85    0.12
   1  -5  -5    3.77    0.23
  -1   5   5    3.62    0.21
  -1   5   5    3.79    0.22
  -1   5   5    3.80    0.20
   0  -5  -5    0.27    0.09
   0  -5  -5    0.28    0.11
   0  -5  -5    0.27    0.10
   0   5   5    0.35    0.10
   0   5   5    0.24    0.09
   0   5   5    0.18    0.09
  -1  -5  -5    6.72    0.36
  -1  -5  -5    7.46    0.32
  -1  -5  -5    7.83    0.32
   1   5   5    6.99    0.30
   1   5   5    7.23    0.33
  -2  -5  -5    0.44    0.13
  -2  -5  -5    0.24    0.09
   2   5   5    0.33    0.11
   2   5   5    0.16    0.08
  -3  -5  -5    0.27    0.13
  -3  -5  -5    0.36    0.09
   3   5   5    0.52    0.12
   3   5   5    0.39    0.10
  11  -6  -5    1.11    0.12
  11  -6  -5    1.25    0.17
  11  -6  -5    1.21    0.11
 -11   6   5    1.14    0.12
 -11   6   5    1.31    0.14
 -11   6   5    1.40    0.18
  10  -6  -5    0.64    0.13
  10  -6  -5    0.63    0.09
  10  -6  -5    0.65    0.09
 -10   6   5    0.61    0.10
 -10   6   5    0.61    0.13
 -10   6   5    0.53    0.10
   9  -6  -5    0.85    0.09
   9  -6  -5    0.75    0.08
   9  -6  -5    0.80    0.13
  -9   6   5    0.82    0.08
  -9   6   5    0.84    0.14
  -9   6   5    0.94    0.11
   8  -6  -5    1.60    0.11
   8  -6  -5    1.39    0.11
   8  -6  -5    1.36    0.16
  -8   6   5    1.26    0.13
  -8   6   5    1.36    0.16
  -8   6   5    1.54    0.13
   7  -6  -5    0.03    0.04
   7  -6  -5   -0.07    0.09
  -7   6   5    0.07    0.08
  -7   6   5    0.07    0.07
  -7   6   5   -0.02    0.09
   6  -6  -5    5.23    0.29
  -6   6   5    5.25    0.30
  -6   6   5    5.46    0.24
  -6   6   5    5.50    0.25
   5  -6  -5    1.17    0.13
   5  -6  -5    0.94    0.10
   5  -6  -5    0.92    0.13
  -5   6   5    0.98    0.12
  -5   6   5    0.86    0.11
  -5   6   5    1.00    0.14
   4  -6  -5    3.07    0.18
   4  -6  -5    3.07    0.22
   4  -6  -5    2.84    0.21
   4  -6  -5    2.67    0.17
  -4   6   5    3.06    0.19
  -4   6   5    2.97    0.20
  -4   6   5    2.52    0.21
   3  -6  -5    2.70    0.19
   3  -6  -5    2.20    0.18
   3  -6  -5    2.50    0.19
   3  -6  -5    2.46    0.16
  -3   6   5    2.15    0.19
  -3   6   5    2.32    0.19
  -3   6   5    2.01    0.19
   2  -6  -5    0.58    0.11
   2  -6  -5    0.40    0.10
   2  -6  -5    0.48    0.11
  -2   6   5    0.56    0.10
  -2   6   5    0.43    0.10
  -2   6   5    0.44    0.11
   1  -6  -5    2.40    0.21
   1  -6  -5    2.35    0.19
   1  -6  -5    1.87    0.20
  -1   6   5    2.37    0.19
  -1   6   5    2.58    0.20
  -1   6   5    2.03    0.20
   0  -6  -5    0.47    0.10
   0  -6  -5    0.63    0.14
   0  -6  -5    0.62    0.13
   0   6   5    0.40    0.11
   0   6   5    0.52    0.13
  -1  -6  -5    2.69    0.27
  -1  -6  -5    2.79    0.24
  -1  -6  -5    2.55    0.20
   1   6   5    2.94    0.24
   1   6   5    2.60    0.21
  -2  -6  -5    0.40    0.10
  -2  -6  -5    0.44    0.15
   2   6   5    0.53    0.11
   2   6   5    0.48    0.13
  11  -7  -5    0.20    0.12
  11  -7  -5    0.17    0.07
 -11   7   5    0.04    0.12
 -11   7   5    0.27    0.09
  10  -7  -5    0.50    0.13
  10  -7  -5    0.39    0.08
 -10   7   5    0.38    0.13
 -10   7   5    0.45    0.10
   9  -7  -5    1.06    0.09
   9  -7  -5    1.02    0.15
  -9   7   5    1.15    0.16
  -9   7   5    1.06    0.11
  -9   7   5    0.96    0.12
   8  -7  -5    0.12    0.05
   8  -7  -5    0.04    0.10
  -8   7   5   -0.03    0.07
  -8   7   5    0.13    0.09
  -8   7   5   -0.08    0.10
   7  -7  -5   22.42    0.52
   7  -7  -5   23.37    0.79
  -7   7   5   22.32    0.66
  -7   7   5   23.26    0.79
  -7   7   5   22.73    0.67
   6  -7  -5    7.01    0.29
   6  -7  -5    7.72    0.36
  -6   7   5    6.99    0.36
  -6   7   5    7.26    0.31
  -6   7   5    7.25    0.29
   5  -7  -5    1.33    0.14
   5  -7  -5    1.01    0.14
   5  -7  -5    1.08    0.12
  -5   7   5    1.30    0.16
  -5   7   5    1.24    0.13
  -5   7   5    1.11    0.13
   4  -7  -5   -0.05    0.08
   4  -7  -5    0.05    0.08
   4  -7  -5   -0.05    0.07
  -4   7   5    0.01    0.09
  -4   7   5    0.01    0.09
  -4   7   5    0.07    0.09
   3  -7  -5    0.94    0.14
   3  -7  -5    1.52    0.15
   3  -7  -5    1.17    0.14
   3  -7  -5    1.17    0.15
  -3   7   5    1.13    0.15
  -3   7   5    1.22    0.14
  -3   7   5    1.09    0.14
   2  -7  -5    0.31    0.11
   2  -7  -5    0.30    0.12
   2  -7  -5    0.38    0.11
  -2   7   5    0.39    0.11
  -2   7   5    0.31    0.11
   1  -7  -5    4.21    0.25
   1  -7  -5    3.86    0.27
   1  -7  -5    3.98    0.28
  -1   7   5    4.21    0.27
  -1   7   5    4.09    0.26
   0  -7  -5    0.90    0.15
   0  -7  -5    1.01    0.13
   0  -7  -5    0.73    0.15
   0   7   5    0.88    0.13
   0   7   5    0.97    0.15
  10  -8  -5    0.58    0.14
 -10   8   5    0.51    0.11
 -10   8   5    0.50    0.14
   9  -8  -5   -0.10    0.10
  -9   8   5   -0.07    0.11
  -9   8   5    0.04    0.08
  -9   8   5    0.00    0.09
   8  -8  -5    1.22    0.18
  -8   8   5    1.39    0.15
  -8   8   5    1.76    0.17
  -8   8   5    1.24    0.18
   7  -8  -5    1.96    0.18
   7  -8  -5    1.28    0.18
  -7   8   5    1.11    0.13
  -7   8   5    1.53    0.19
  -7   8   5    1.36    0.15
   6  -8  -5   -0.01    0.10
   6  -8  -5   -0.07    0.07
  -6   8   5   -0.08    0.10
  -6   8   5    0.02    0.09
  -6   8   5    0.01    0.09
   5  -8  -5    0.68    0.13
   5  -8  -5    0.72    0.11
   5  -8  -5    0.80    0.11
  -5   8   5    0.59    0.13
  -5   8   5    0.66    0.13
  -5   8   5    0.60    0.12
   4  -8  -5    0.18    0.09
   4  -8  -5    0.11    0.10
   4  -8  -5    0.22    0.10
   4  -8  -5    0.06    0.10
  -4   8   5    0.01    0.10
  -4   8   5    0.12    0.10
   3  -8  -5    0.15    0.11
   3  -8  -5    0.26    0.11
   3  -8  -5    0.40    0.11
  -3   8   5    0.12    0.11
  -3   8   5    0.05    0.11
   2  -8  -5    0.88    0.15
   2  -8  -5    0.73    0.15
   2  -8  -5    0.85    0.13
  -2   8   5    0.87    0.15
  -2   8   5    0.66    0.13
   9  -9  -5    0.84    0.17
  -9   9   5    0.83    0.12
  -9   9   5    0.83    0.14
  -9   9   5    0.67    0.16
   8  -9  -5    0.31    0.14
   8  -9  -5    0.29    0.10
  -8   9   5    0.24    0.14
  -8   9   5    0.24    0.11
  -8   9   5    0.15    0.10
   7  -9  -5    0.08    0.09
   7  -9  -5    0.00    0.11
  -7   9   5    0.15    0.10
  -7   9   5    0.08    0.13
  -7   9   5    0.04    0.10
   6  -9  -5    0.30    0.10
   6  -9  -5    0.23    0.12
  -6   9   5    0.22    0.11
  -6   9   5    0.09    0.10
   5  -9  -5    1.48    0.17
   5  -9  -5    0.92    0.15
   5  -9  -5    0.92    0.13
  -5   9   5    0.80    0.14
  -5   9   5    0.91    0.15
   4  -9  -5    0.18    0.12
   4  -9  -5    0.12    0.09
   4  -9  -5    0.13    0.11
  -4   9   5    0.11    0.12
  -4   9   5   -0.03    0.11
   5 -13   6    2.16    0.21
  -1  12  -6    1.24    0.15
  -2  12  -6    0.67    0.13
   2 -12   6    0.60    0.09
   2 -12   6    0.63    0.13
  -3  12  -6    0.11    0.11
  -3  12  -6    0.09    0.08
   3 -12   6   -0.01    0.10
   3 -12   6    0.04    0.08
  -4  12  -6    1.19    0.12
  -4  12  -6    0.88    0.14
   4 -12   6    1.12    0.13
   4 -12   6    1.20    0.15
  -5  12  -6    0.03    0.08
  -5  12  -6    0.08    0.10
   5 -12   6   -0.02    0.09
   5 -12   6   -0.02    0.09
   5 -12   6   -0.01    0.08
  -6  12  -6    0.11    0.09
  -6  12  -6    0.20    0.10
   6 -12   6    0.14    0.10
   6 -12   6    0.01    0.08
   6 -12   6    0.25    0.11
  -7  12  -6    0.01    0.11
  -7  12  -6   -0.08    0.09
   7 -12   6    0.00    0.09
   7 -12   6    0.09    0.11
   7 -12   6    0.08    0.07
  -8  12  -6    0.18    0.12
  -8  12  -6    0.13    0.09
   8 -12   6    0.03    0.11
   8 -12   6    0.05    0.08
   1  11  -6    2.94    0.23
   1  11  -6    2.46    0.21
   0  11  -6    1.14    0.13
   0  11  -6    1.17    0.15
  -1  11  -6    1.18    0.14
  -1  11  -6    1.64    0.16
   1 -11   6    1.40    0.12
   1 -11   6    1.39    0.16
  -2  11  -6    1.75    0.16
  -2  11  -6    1.07    0.14
   2 -11   6    1.51    0.14
   2 -11   6    1.38    0.16
  -3  11  -6   -0.23    0.09
  -3  11  -6    0.03    0.07
   3 -11   6    0.05    0.07
   3 -11   6    0.04    0.09
  -4  11  -6    0.04    0.07
   4 -11   6    0.08    0.09
   4 -11   6    0.11    0.08
  -5  11  -6    0.11    0.09
  -5  11  -6    0.03    0.08
   5 -11   6    0.13    0.09
   5 -11   6    0.00    0.09
   5 -11   6   -0.03    0.05
   5 -11   6   -0.04    0.07
  -6  11  -6    0.72    0.13
  -6  11  -6    0.49    0.11
  -6  11  -6    0.60    0.11
   6 -11   6    0.66    0.12
   6 -11   6    0.59    0.13
   6 -11   6    0.47    0.08
   6 -11   6    0.80    0.10
  -7  11  -6    0.04    0.08
  -7  11  -6    0.15    0.11
   7 -11   6    0.21    0.07
   7 -11   6    0.03    0.10
   7 -11   6    0.13    0.07
  -8  11  -6    0.23    0.09
  -8  11  -6    0.14    0.11
   8 -11   6    0.16    0.08
   8 -11   6    0.20    0.11
  -9  11  -6    0.07    0.12
  -9  11  -6    0.04    0.08
   9 -11   6    0.01    0.12
   9 -11   6    0.05    0.08
   2  10  -6    1.07    0.13
   2  10  -6    1.14    0.14
   1  10  -6    5.24    0.26
   1  10  -6    5.49    0.26
   0  10  -6    3.91    0.22
   0 -10   6    3.82    0.16
  -1  10  -6    0.04    0.07
   1 -10   6    0.01    0.08
   1 -10   6    0.06    0.06
  -2  10  -6    0.75    0.10
   2 -10   6    0.61    0.09
   2 -10   6    0.70    0.11
  -3  10  -6    4.04    0.20
  -3  10  -6    4.03    0.22
   3 -10   6    3.96    0.15
   3 -10   6    3.77    0.22
   3 -10   6    3.72    0.21
  -4  10  -6   11.16    0.42
  -4  10  -6   11.15    0.38
   4 -10   6   10.78    0.41
   4 -10   6   11.03    0.42
   4 -10   6   10.97    0.33
  -5  10  -6    7.07    0.29
  -5  10  -6    7.15    0.33
   5 -10   6    7.08    0.31
   5 -10   6    7.70    0.33
   5 -10   6    7.18    0.27
   5 -10   6    7.11    0.26
  -6  10  -6    1.13    0.14
  -6  10  -6    0.86    0.12
   6 -10   6    0.99    0.13
   6 -10   6    0.92    0.10
   6 -10   6    1.04    0.10
  -7  10  -6    0.00    0.09
   7 -10   6    0.11    0.07
   7 -10   6   -0.04    0.05
   7 -10   6    0.02    0.09
  -8  10  -6    0.51    0.13
   8 -10   6    0.69    0.14
   8 -10   6    0.74    0.11
  -9  10  -6   -0.09    0.07
  -9  10  -6    0.00    0.12
   9 -10   6   -0.12    0.11
   9 -10   6   -0.09    0.08
 -10  10  -6    0.51    0.15
  10 -10   6    0.37    0.14
   4   9  -6    0.19    0.11
   4   9  -6    0.26    0.09
   4   9  -6    0.30    0.11
   3   9  -6    0.08    0.09
   3   9  -6    0.34    0.09
   2   9  -6    0.61    0.11
   1   9  -6    0.01    0.08
   0   9  -6    0.69    0.10
   0  -9   6    0.84    0.12
   0  -9   6    0.63    0.07
  -1   9  -6    5.39    0.23
  -1   9  -6    4.72    0.22
   1  -9   6    4.60    0.22
   1  -9   6    4.96    0.22
   1  -9   6    5.30    0.25
  -2   9  -6   -0.02    0.07
  -2   9  -6    0.06    0.07
   2  -9   6   -0.05    0.06
   2  -9   6    0.14    0.08
   2  -9   6   -0.06    0.06
  -3   9  -6    3.16    0.19
  -3   9  -6    3.19    0.19
   3  -9   6    3.15    0.19
   3  -9   6    3.36    0.19
   3  -9   6    3.22    0.20
   3  -9   6    3.32    0.14
  -4   9  -6    5.59    0.27
  -4   9  -6    5.77    0.24
   4  -9   6    5.58    0.27
   4  -9   6    5.73    0.26
   4  -9   6    5.50    0.27
   4  -9   6    5.76    0.22
   4  -9   6    5.39    0.21
  -5   9  -6    3.09    0.19
  -5   9  -6    3.51    0.22
   5  -9   6    3.58    0.22
   5  -9   6    3.43    0.16
   5  -9   6    3.12    0.17
  -6   9  -6   -0.13    0.07
  -6   9  -6   -0.01    0.08
   6  -9   6   -0.02    0.06
   6  -9   6   -0.06    0.04
   6  -9   6    0.01    0.08
  -7   9  -6    0.02    0.10
   7  -9   6    0.21    0.08
   7  -9   6   -0.01    0.10
   7  -9   6    0.10    0.05
  -8   9  -6    0.27    0.13
   8  -9   6    0.27    0.09
   8  -9   6    0.31    0.13
  -9   9  -6    0.01    0.11
  -9   9  -6   -0.13    0.07
   9  -9   6   -0.08    0.11
   9  -9   6   -0.05    0.08
 -10   9  -6    0.69    0.16
  10  -9   6    0.89    0.16
  10  -9   6    0.61    0.13
   5   8  -6    8.03    0.33
   5   8  -6    8.47    0.36
   5   8  -6    8.19    0.27
   4   8  -6    8.77    0.35
   4   8  -6    7.97    0.31
   3   8  -6    1.87    0.16
   2   8  -6   19.19    0.60
  -2  -8   6   19.49    0.57
   1   8  -6    1.52    0.14
   1   8  -6    1.29    0.09
   1   8  -6    1.29    0.09
  -1  -8   6    1.27    0.12
  -1  -8   6    1.19    0.09
  -1  -8   6    1.28    0.09
   0   8  -6   26.33    0.74
   0   8  -6   25.14    0.64
   0   8  -6   25.08    0.77
   0  -8   6   24.94    0.77
   0  -8   6   25.67    0.76
   0  -8   6   25.06    0.77
   0  -8   6   25.49    0.68
  -1   8  -6   19.71    0.59
  -1   8  -6   19.18    0.61
  -1   8  -6   18.48    0.50
   1  -8   6   19.26    0.61
   1  -8   6   18.68    0.61
   1  -8   6   19.78    0.60
   1  -8   6   19.36    0.53
  -2   8  -6    1.34    0.09
  -2   8  -6    1.08    0.12
  -2   8  -6    1.47    0.14
   2  -8   6    1.32    0.12
   2  -8   6    1.23    0.10
   2  -8   6    1.54    0.14
   2  -8   6    1.44    0.14
   2  -8   6    1.42    0.11
  -3   8  -6   36.64    1.02
  -3   8  -6   35.38    0.93
  -3   8  -6   37.09    1.11
   3  -8   6   37.47    1.03
   3  -8   6   34.97    0.90
   3  -8   6   36.51    1.11
   3  -8   6   35.56    1.10
   3  -8   6   36.49    0.94
  -4   8  -6   12.27    0.44
  -4   8  -6   11.58    0.36
  -4   8  -6   11.67    0.40
   4  -8   6   12.14    0.36
   4  -8   6   11.62    0.31
   4  -8   6   12.31    0.44
   4  -8   6   11.93    0.43
  -5   8  -6    6.64    0.28
  -5   8  -6    6.86    0.31
   5  -8   6    6.63    0.22
   5  -8   6    6.73    0.25
   5  -8   6    7.05    0.31
  -6   8  -6    5.00    0.26
  -6   8  -6    4.54    0.23
   6  -8   6    4.19    0.16
   6  -8   6    4.81    0.21
   6  -8   6    4.97    0.26
  -7   8  -6    0.99    0.16
   7  -8   6    1.10    0.12
   7  -8   6    0.86    0.15
   7  -8   6    1.07    0.08
  -8   8  -6   -0.06    0.10
   8  -8   6   -0.10    0.07
   8  -8   6   -0.10    0.09
  -9   8  -6    0.57    0.14
   9  -8   6    0.40    0.13
   9  -8   6    0.43    0.11
 -10   8  -6    0.50    0.14
  10  -8   6    0.47    0.12
  10  -8   6    0.69    0.15
   6   7  -6    0.15    0.11
   6   7  -6    0.16    0.08
   5   7  -6    0.71    0.13
   5   7  -6    0.65    0.10
   5   7  -6    0.89    0.11
   4   7  -6    0.84    0.13
  -4  -7   6    1.20    0.13
   3   7  -6    0.14    0.08
  -3  -7   6    0.09    0.08
   2   7  -6    0.08    0.07
   2   7  -6    0.14    0.03
   2   7  -6    0.12    0.04
   2   7  -6    0.09    0.04
  -2  -7   6    0.12    0.07
  -2  -7   6    0.13    0.04
  -2  -7   6    0.09    0.04
   1   7  -6   17.80    0.55
   1   7  -6   18.04    0.55
   1   7  -6   17.97    0.55
   1   7  -6   17.99    0.47
  -1  -7   6   18.12    0.51
  -1  -7   6   17.84    0.55
   0   7  -6   34.56    0.96
   0   7  -6   33.21    0.95
   0   7  -6   33.78    1.02
   0   7  -6   34.67    0.86
   0  -7   6   33.82    0.88
   0  -7   6   34.58    0.97
   0  -7   6   34.53    1.02
   0  -7   6   33.25    1.02
  -1   7  -6   34.36    0.96
  -1   7  -6   34.38    1.04
  -1   7  -6   33.83    0.88
  -1   7  -6   34.76    0.95
   1  -7   6   34.54    0.87
   1  -7   6   34.21    1.04
   1  -7   6   34.59    0.97
   1  -7   6   35.05    1.04
  -2   7  -6    1.87    0.15
  -2   7  -6    2.45    0.15
  -2   7  -6    2.55    0.11
   2  -7   6    2.41    0.12
   2  -7   6    2.10    0.15
   2  -7   6    2.31    0.15
   2  -7   6    2.24    0.11
   2  -7   6    2.38    0.15
  -3   7  -6    0.16    0.08
  -3   7  -6    0.23    0.05
  -3   7  -6    0.06    0.06
   3  -7   6    0.02    0.07
   3  -7   6    0.12    0.06
   3  -7   6   -0.10    0.06
   3  -7   6    0.19    0.06
   3  -7   6    0.05    0.04
  -4   7  -6   13.85    0.44
  -4   7  -6   13.81    0.48
   4  -7   6   13.53    0.48
   4  -7   6   13.36    0.48
   4  -7   6   13.43    0.35
   4  -7   6   14.26    0.41
  -5   7  -6   18.20    0.61
  -5   7  -6   17.55    0.55
   5  -7   6   17.65    0.61
   5  -7   6   18.12    0.52
  -6   7  -6    7.79    0.30
  -6   7  -6    7.09    0.34
   6  -7   6    7.31    0.28
   6  -7   6    6.52    0.34
  -7   7  -6    3.21    0.24
   7  -7   6    3.78    0.21
   7  -7   6    2.88    0.24
  -8   7  -6    1.51    0.17
   8  -7   6    1.40    0.14
   8  -7   6    1.50    0.17
  -9   7  -6   -0.03    0.11
   9  -7   6   -0.10    0.09
   9  -7   6   -0.01    0.10
 -10   7  -6    0.31    0.13
  10  -7   6    0.18    0.12
  10  -7   6    0.22    0.11
   7   6  -6    4.58    0.22
   7   6  -6    4.22    0.28
   6   6  -6    7.00    0.33
   6   6  -6    7.04    0.26
  -6  -6   6    6.97    0.30
   5   6  -6    2.17    0.20
  -5  -6   6    2.17    0.19
   4   6  -6    3.11    0.20
  -4  -6   6    2.99    0.19
   3   6  -6   10.31    0.29
   3   6  -6   10.35    0.32
   3   6  -6   10.24    0.32
   3   6  -6   10.39    0.36
  -3  -6   6   10.24    0.32
  -3  -6   6   10.06    0.34
  -3  -6   6   10.63    0.32
   2   6  -6    0.32    0.05
   2   6  -6    0.24    0.05
   2   6  -6    0.30    0.05
   2   6  -6    0.29    0.08
  -2  -6   6    0.22    0.07
  -2  -6   6    0.29    0.05
   1   6  -6   79.74    2.27
   1   6  -6   77.50    1.94
   1   6  -6   82.86    2.13
   1   6  -6   79.25    2.27
   1   6  -6   78.64    2.10
   1   6  -6   79.36    2.10
  -1  -6   6   77.41    2.26
  -1  -6   6   75.74    2.26
  -1  -6   6   78.42    1.93
   0   6  -6    5.45    0.22
   0   6  -6    5.45    0.22
   0   6  -6    5.38    0.23
   0   6  -6    5.53    0.20
   0   6  -6    5.30    0.18
   0  -6   6    5.83    0.22
   0  -6   6    5.41    0.22
   0  -6   6    5.36    0.20
   0  -6   6    5.51    0.22
  -1   6  -6    1.25    0.09
  -1   6  -6    1.27    0.11
  -1   6  -6    1.27    0.09
  -1   6  -6    1.40    0.12
  -1   6  -6    1.22    0.11
   1  -6   6    1.28    0.09
   1  -6   6    1.07    0.10
   1  -6   6    1.41    0.09
   1  -6   6    1.23    0.11
   1  -6   6    1.22    0.11
   1  -6   6    1.26    0.11
  -2   6  -6    3.15    0.13
  -2   6  -6    2.91    0.17
  -2   6  -6    3.02    0.16
   2  -6   6    2.99    0.17
   2  -6   6    2.95    0.17
   2  -6   6    3.05    0.16
   2  -6   6    3.19    0.15
   2  -6   6    3.08    0.12
   2  -6   6    2.90    0.14
  -3   6  -6    1.16    0.13
  -3   6  -6    1.24    0.12
  -3   6  -6    1.27    0.10
   3  -6   6    1.10    0.08
   3  -6   6    1.29    0.11
   3  -6   6    1.05    0.11
   3  -6   6    1.16    0.13
  -4   6  -6    0.08    0.06
  -4   6  -6    0.14    0.07
   4  -6   6    0.20    0.06
   4  -6   6    0.17    0.07
   4  -6   6    0.16    0.07
  -5   6  -6    3.83    0.20
  -5   6  -6    3.17    0.23
   5  -6   6    3.04    0.23
   5  -6   6    3.46    0.19
  -6   6  -6    0.26    0.12
   6  -6   6    0.28    0.12
   6  -6   6    0.44    0.10
  -7   6  -6    4.76    0.27
   7  -6   6    4.84    0.23
   7  -6   6    4.53    0.26
  -8   6  -6    1.17    0.15
   8  -6   6    1.26    0.16
   8  -6   6    1.14    0.13
  -9   6  -6   -0.12    0.10
   9  -6   6    0.13    0.11
   9  -6   6    0.06    0.09
 -10   6  -6    0.19    0.13
  10  -6   6    0.17    0.11
  10  -6   6    0.24    0.12
   8   5  -6    2.78    0.18
   8   5  -6    2.41    0.24
   7   5  -6    0.64    0.12
  -7  -5   6    0.68    0.12
   6   5  -6   22.73    0.70
   6   5  -6   21.90    0.61
  -6  -5   6   21.61    0.65
   5   5  -6    0.23    0.08
  -5  -5   6    0.16    0.08
   4   5  -6    0.29    0.08
   4   5  -6    0.29    0.04
   4   5  -6    0.34    0.05
  -4  -5   6    0.35    0.05
  -4  -5   6    0.25    0.08
  -4  -5   6    0.28    0.04
   3   5  -6   13.80    0.42
   3   5  -6   13.21    0.43
   3   5  -6   13.55    0.42
  -3  -5   6   13.25    0.42
  -3  -5   6   13.55    0.41
   2   5  -6   17.01    0.51
   2   5  -6   16.64    0.52
   2   5  -6   17.00    0.52
   2   5  -6   16.54    0.51
   2   5  -6   16.62    0.45
   2   5  -6   17.18    0.52
  -2  -5   6   17.22    0.47
  -2  -5   6   16.65    0.53
  -2  -5   6   16.85    0.52
   1   5  -6   50.72    1.46
   1   5  -6   48.79    1.36
   1   5  -6   50.36    1.46
   1   5  -6   51.38    1.36
   1   5  -6   50.05    1.35
   1   5  -6   50.09    1.26
  -1  -5   6   52.01    1.36
  -1  -5   6   48.97    1.46
  -1  -5   6   49.31    1.24
  -1  -5   6   50.10    1.46
   0   5  -6   68.12    2.11
   0   5  -6   72.55    1.85
   0   5  -6   73.77    2.11
   0   5  -6   71.99    1.94
   0   5  -6   73.31    1.92
   0   5  -6   74.65    1.81
   0  -5   6   73.72    1.95
   0  -5   6   75.18    2.11
   0  -5   6   73.54    1.77
   0  -5   6   74.70    1.94
   0  -5   6   70.18    2.11
  -1   5  -6    8.03    0.25
  -1   5  -6    8.54    0.30
  -1   5  -6    8.10    0.28
  -1   5  -6    8.05    0.25
  -1   5  -6    8.30    0.30
  -1   5  -6    8.12    0.27
   1  -5   6    8.18    0.25
   1  -5   6    8.15    0.27
   1  -5   6    8.32    0.30
   1  -5   6    8.01    0.30
   1  -5   6    8.28    0.28
  -2   5  -6   31.23    0.87
  -2   5  -6   29.05    0.94
  -2   5  -6   30.46    0.95
  -2   5  -6   32.20    0.81
  -2   5  -6   31.35    0.83
   2  -5   6   31.77    0.95
   2  -5   6   31.07    0.86
   2  -5   6   29.51    0.94
   2  -5   6   31.96    0.81
   2  -5   6   32.13    0.86
  -3   5  -6    6.74    0.25
  -3   5  -6    6.50    0.27
  -3   5  -6    6.76    0.27
  -3   5  -6    6.78    0.23
   3  -5   6    7.19    0.27
   3  -5   6    6.79    0.23
   3  -5   6    6.58    0.27
  -4   5  -6   42.35    1.34
  -4   5  -6   45.14    1.22
   4  -5   6   46.88    1.35
   4  -5   6   43.62    1.34
   4  -5   6   43.60    1.15
  -5   5  -6  123.38    3.31
  -5   5  -6  126.68    3.63
   5  -5   6  123.44    3.12
   5  -5   6  128.50    3.63
  -6   5  -6    0.16    0.09
  -6   5  -6    0.12    0.05
   6  -5   6    0.26    0.09
  -7   5  -6    0.89    0.08
  -7   5  -6    0.99    0.13
   7  -5   6    0.84    0.12
   7  -5   6    0.89    0.11
  -8   5  -6    2.76    0.24
   8  -5   6    3.07    0.25
   8  -5   6    3.08    0.21
  -9   5  -6    0.35    0.12
   9  -5   6    0.67    0.13
   9  -5   6    0.27    0.10
   8   4  -6    3.23    0.18
   8   4  -6    3.07    0.23
   8   4  -6    3.10    0.19
  -8  -4   6    2.93    0.22
   7   4  -6    0.51    0.11
  -7  -4   6    0.58    0.11
   6   4  -6    2.18    0.18
   6   4  -6    2.12    0.12
  -6  -4   6    2.11    0.10
  -6  -4   6    2.44    0.17
  -6  -4   6    2.13    0.11
   5   4  -6   11.19    0.40
   5   4  -6   11.67    0.37
   5   4  -6   11.40    0.37
  -5  -4   6   11.56    0.36
  -5  -4   6   11.73    0.37
  -5  -4   6   11.29    0.37
   4   4  -6    6.08    0.25
   4   4  -6    5.98    0.22
   4   4  -6    6.00    0.22
  -4  -4   6    6.26    0.24
  -4  -4   6    6.07    0.22
  -4  -4   6    5.92    0.22
   3   4  -6    8.87    0.30
   3   4  -6    9.04    0.31
   3   4  -6    9.15    0.28
   3   4  -6    8.97    0.31
   3   4  -6    8.99    0.31
  -3  -4   6    9.41    0.31
  -3  -4   6    8.81    0.31
  -3  -4   6    9.45    0.30
   2   4  -6    2.12    0.13
   2   4  -6    2.19    0.12
   2   4  -6    2.27    0.11
   2   4  -6    2.03    0.12
   2   4  -6    2.42    0.11
   2   4  -6    2.37    0.12
  -2  -4   6    1.98    0.12
  -2  -4   6    2.32    0.13
  -2  -4   6    2.11    0.12
  -2  -4   6    2.19    0.12
   1   4  -6    0.04    0.04
   1   4  -6    0.15    0.05
   1   4  -6    0.03    0.05
   1   4  -6    0.08    0.05
   1   4  -6    0.07    0.04
  -1  -4   6    0.06    0.05
  -1  -4   6    0.06    0.05
  -1  -4   6   -0.05    0.05
  -1  -4   6    0.30    0.05
   0   4  -6    7.72    0.28
   0   4  -6    7.45    0.26
   0   4  -6    7.79    0.25
   0   4  -6    7.00    0.27
   0   4  -6    7.53    0.24
   0  -4   6    7.31    0.25
   0  -4   6    8.01    0.28
   0  -4   6    7.50    0.24
  -1   4  -6   25.58    0.74
  -1   4  -6   26.13    0.70
  -1   4  -6   26.73    0.70
  -1   4  -6   25.44    0.81
  -1   4  -6   27.39    0.71
  -1   4  -6   28.08    0.81
   1  -4   6   27.17    0.81
   1  -4   6   24.52    0.81
   1  -4   6   26.63    0.73
   1  -4   6   27.07    0.74
   1  -4   6   27.08    0.70
  -2   4  -6   13.74    0.45
  -2   4  -6   12.77    0.45
  -2   4  -6   13.00    0.39
  -2   4  -6   13.19    0.41
  -2   4  -6   13.11    0.38
   2  -4   6   13.06    0.45
   2  -4   6   13.88    0.41
   2  -4   6   13.57    0.39
   2  -4   6   13.47    0.45
  -3   4  -6    2.89    0.16
  -3   4  -6    3.15    0.17
  -3   4  -6    3.02    0.14
  -3   4  -6    2.95    0.14
  -3   4  -6    3.09    0.17
   3  -4   6    3.36    0.17
   3  -4   6    3.00    0.17
   3  -4   6    3.11    0.15
  -4   4  -6   21.01    0.58
  -4   4  -6   21.36    0.63
  -4   4  -6   21.67    0.70
  -4   4  -6   21.93    0.70
   4  -4   6   21.61    0.70
   4  -4   6   20.94    0.60
  -5   4  -6   14.62    0.43
  -5   4  -6   15.72    0.54
   5  -4   6   15.65    0.54
   5  -4   6   14.41    0.46
  -6   4  -6    3.03    0.21
  -6   4  -6    3.09    0.14
   6  -4   6    3.47    0.21
   6  -4   6    2.98    0.19
  -7   4  -6    1.34    0.15
   7  -4   6    1.19    0.13
   7  -4   6    1.29    0.15
  -8   4  -6    0.96    0.14
   8  -4   6    1.13    0.14
   8  -4   6    1.19    0.15
  -9   4  -6   -0.02    0.09
  -9   4  -6   -0.08    0.10
   9  -4   6   -0.06    0.09
   9   3  -6    0.09    0.10
   9   3  -6    0.04    0.08
   9   3  -6    0.02    0.08
  -9  -3   6    0.05    0.10
   8   3  -6    2.72    0.22
  -8  -3   6    3.04    0.21
  -8  -3   6    2.49    0.14
   7   3  -6    0.94    0.12
   7   3  -6    0.91    0.08
  -7  -3   6    0.67    0.11
  -7  -3   6    0.94    0.09
   6   3  -6   21.34    0.58
   6   3  -6   22.98    0.68
   6   3  -6   21.96    0.59
   6   3  -6   21.89    0.68
  -6  -3   6   22.52    0.63
  -6  -3   6   22.06    0.68
  -6  -3   6   22.43    0.68
   5   3  -6    8.19    0.25
   5   3  -6    8.36    0.30
   5   3  -6    8.38    0.31
   5   3  -6    8.56    0.26
   5   3  -6    8.26    0.30
  -5  -3   6    8.60    0.29
  -5  -3   6    8.79    0.29
  -5  -3   6    8.70    0.30
   4   3  -6   17.15    0.52
   4   3  -6   17.25    0.53
   4   3  -6   16.76    0.53
   4   3  -6   16.60    0.46
   4   3  -6   17.26    0.51
   4   3  -6   16.91    0.47
  -4  -3   6   17.50    0.53
  -4  -3   6   16.94    0.48
  -4  -3   6   16.70    0.54
   3   3  -6    3.20    0.15
   3   3  -6    2.74    0.15
   3   3  -6    3.00    0.13
   3   3  -6    2.97    0.14
   3   3  -6    2.87    0.12
  -3  -3   6    2.96    0.15
  -3  -3   6    2.91    0.14
  -3  -3   6    3.05    0.14
   2   3  -6   63.30    1.97
   2   3  -6   65.66    1.97
   2   3  -6   70.40    1.70
   2   3  -6   69.16    1.81
   2   3  -6   67.31    1.81
   2   3  -6   69.88    1.72
  -2  -3   6   66.54    1.97
  -2  -3   6   68.52    1.97
  -2  -3   6   72.14    1.81
   1   3  -6  107.62    2.85
   1   3  -6  109.58    2.71
   1   3  -6  108.73    3.11
   1   3  -6  110.25    3.11
   1   3  -6  110.03    2.68
   1   3  -6  106.65    2.84
  -1  -3   6  112.11    2.85
  -1  -3   6  111.57    3.11
  -1  -3   6   99.93    3.11
   0   3  -6   28.36    0.85
   0   3  -6   26.64    0.77
   0   3  -6   28.03    0.73
   0   3  -6   28.33    0.74
   0   3  -6   27.77    0.84
   0  -3   6   26.90    0.75
   0  -3   6   28.87    0.85
   0  -3   6   28.15    0.85
   0  -3   6   27.59    0.77
  -1   3  -6    0.54    0.07
  -1   3  -6    0.46    0.06
  -1   3  -6    0.40    0.07
  -1   3  -6    0.76    0.08
  -1   3  -6    0.50    0.06
  -1   3  -6    0.51    0.06
   1  -3   6    0.35    0.04
   1  -3   6    0.39    0.06
   1  -3   6    0.46    0.07
   1  -3   6    0.34    0.08
   1  -3   6    0.49    0.07
  -2   3  -6   73.05    2.01
  -2   3  -6   69.44    1.71
  -2   3  -6   68.40    1.75
  -2   3  -6   69.68    2.01
  -2   3  -6   66.98    1.83
  -2   3  -6   67.78    1.73
   2  -3   6   67.09    1.73
   2  -3   6   68.74    2.01
   2  -3   6   69.91    2.01
   2  -3   6   68.43    1.83
   2  -3   6   68.02    1.75
  -3   3  -6    1.76    0.12
  -3   3  -6    1.76    0.15
  -3   3  -6    1.84    0.14
  -3   3  -6    2.08    0.16
  -3   3  -6    1.89    0.11
   3  -3   6    1.83    0.15
   3  -3   6    1.89    0.13
   3  -3   6    1.75    0.16
   3  -3   6    2.19    0.14
  -4   3  -6   29.82    0.88
  -4   3  -6   31.42    0.96
  -4   3  -6   31.87    0.97
  -4   3  -6   30.05    0.80
   4  -3   6   31.35    0.84
   4  -3   6   32.26    0.97
   4  -3   6   29.77    0.83
  -5   3  -6    0.12    0.08
  -5   3  -6    0.15    0.08
  -5   3  -6    0.22    0.05
   5  -3   6    0.41    0.08
   5  -3   6    0.09    0.08
   5  -3   6    0.01    0.07
  -6   3  -6    0.06    0.05
  -6   3  -6    0.03    0.08
   6  -3   6    0.02    0.07
   6  -3   6   -0.03    0.08
   6  -3   6   -0.05    0.08
  -7   3  -6    1.10    0.14
   7  -3   6    1.06    0.14
   7  -3   6    1.08    0.12
   7  -3   6    0.89    0.12
  -8   3  -6    0.06    0.10
  -8   3  -6    0.00    0.09
   8  -3   6    0.00    0.09
  -9   3  -6    0.81    0.15
  -9   3  -6    0.66    0.14
   9  -3   6    0.93    0.14
  10   2  -6    1.88    0.16
  10   2  -6    2.02    0.19
  10   2  -6    1.97    0.19
 -10  -2   6    1.89    0.18
 -10  -2   6    2.03    0.15
   9   2  -6    0.22    0.08
   9   2  -6    0.10    0.10
  -9  -2   6    0.23    0.10
  -9  -2   6    0.20    0.07
   8   2  -6    4.26    0.25
  -8  -2   6    4.60    0.23
  -8  -2   6    4.75    0.21
   7   2  -6    1.51    0.12
   7   2  -6    1.42    0.14
   7   2  -6    1.54    0.10
  -7  -2   6    1.43    0.12
  -7  -2   6    1.47    0.13
  -7  -2   6    1.25    0.12
   6   2  -6    4.92    0.21
   6   2  -6    4.91    0.16
   6   2  -6    4.52    0.23
   6   2  -6    5.01    0.18
   6   2  -6    4.93    0.21
  -6  -2   6    4.88    0.21
  -6  -2   6    5.03    0.21
  -6  -2   6    5.18    0.22
   5   2  -6    6.85    0.27
   5   2  -6    7.25    0.27
   5   2  -6    7.58    0.22
   5   2  -6    7.44    0.23
   5   2  -6    7.26    0.26
  -5  -2   6    7.45    0.27
  -5  -2   6    7.08    0.27
  -5  -2   6    7.32    0.26
   4   2  -6   10.55    0.35
   4   2  -6    9.95    0.34
   4   2  -6   10.24    0.36
   4   2  -6   10.32    0.30
   4   2  -6   10.23    0.31
  -4  -2   6   10.73    0.35
  -4  -2   6   10.50    0.32
  -4  -2   6   10.45    0.36
   3   2  -6    7.12    0.25
   3   2  -6    7.31    0.26
   3   2  -6    6.55    0.26
   3   2  -6    6.96    0.22
   3   2  -6    7.30    0.23
   3   2  -6    6.88    0.23
  -3  -2   6    6.90    0.26
  -3  -2   6    7.04    0.26
   2   2  -6    8.56    0.26
   2   2  -6    8.36    0.28
   2   2  -6    8.51    0.26
   2   2  -6    8.58    0.26
   2   2  -6    8.13    0.25
   2   2  -6    8.67    0.30
   2   2  -6    7.96    0.30
  -2  -2   6    8.57    0.28
  -2  -2   6    8.53    0.30
  -2  -2   6    8.12    0.30
   1   2  -6    0.21    0.06
   1   2  -6    0.30    0.05
   1   2  -6    0.17    0.06
   1   2  -6    0.44    0.06
   1   2  -6    0.21    0.05
  -1  -2   6    0.27    0.05
  -1  -2   6    0.18    0.06
  -1  -2   6    0.23    0.05
  -1  -2   6    0.22    0.06
   0   2  -6  107.53    2.98
   0   2  -6  104.91    2.98
   0   2  -6  103.90    2.59
   0   2  -6  102.96    2.56
   0   2  -6  102.94    2.54
   0   2  -6  102.40    2.71
   0  -2   6  107.74    2.98
   0  -2   6   95.61    2.97
   0  -2   6  102.35    2.59
   0  -2   6  102.67    2.70
  -1   2  -6   72.37    1.85
  -1   2  -6   72.45    2.16
  -1   2  -6   72.52    1.96
  -1   2  -6   74.29    1.88
  -1   2  -6   73.62    1.84
  -1   2  -6   77.91    2.16
   1  -2   6   76.56    2.16
   1  -2   6   74.78    1.96
   1  -2   6   76.66    2.16
   1  -2   6   72.91    1.88
   1  -2   6   71.92    1.86
  -2   2  -6    5.85    0.20
  -2   2  -6    5.44    0.24
  -2   2  -6    5.59    0.20
  -2   2  -6    5.43    0.24
  -2   2  -6    5.22    0.21
  -2   2  -6    5.50    0.21
   2  -2   6    5.92    0.21
   2  -2   6    5.65    0.21
   2  -2   6    5.54    0.24
   2  -2   6    5.63    0.21
  -3   2  -6   10.01    0.36
  -3   2  -6    9.32    0.29
  -3   2  -6    9.84    0.37
  -3   2  -6    9.79    0.33
   3  -2   6    9.64    0.32
   3  -2   6    9.31    0.36
   3  -2   6    9.48    0.32
  -4   2  -6   21.27    0.69
  -4   2  -6   21.41    0.69
  -4   2  -6   20.68    0.57
   4  -2   6   21.39    0.61
   4  -2   6   21.59    0.61
   4  -2   6   21.71    0.70
  -5   2  -6   10.91    0.41
  -5   2  -6   10.33    0.40
  -5   2  -6   10.25    0.32
   5  -2   6   10.73    0.36
   5  -2   6   10.69    0.41
   5  -2   6   10.65    0.36
  -6   2  -6    0.58    0.11
  -6   2  -6    0.55    0.11
   6  -2   6    0.61    0.11
   6  -2   6    0.61    0.10
   6  -2   6    0.50    0.10
  -7   2  -6    0.30    0.10
  -7   2  -6    0.30    0.11
   7  -2   6    0.22    0.10
   7  -2   6    0.27    0.10
   7  -2   6    0.25    0.09
  -8   2  -6    0.37    0.12
  -8   2  -6    0.39    0.11
   8  -2   6    0.40    0.10
   8  -2   6    0.46    0.11
  10   1  -6    1.12    0.15
  10   1  -6    1.07    0.12
 -10  -1   6    0.93    0.14
 -10  -1   6    1.00    0.11
   9   1  -6    3.36    0.23
  -9  -1   6    3.49    0.20
  -9  -1   6    3.48    0.21
   8   1  -6    1.66    0.14
   8   1  -6    1.63    0.15
  -8  -1   6    1.79    0.16
  -8  -1   6    1.59    0.14
   7   1  -6    0.01    0.07
   7   1  -6    0.14    0.05
   7   1  -6    0.16    0.07
   7   1  -6    0.19    0.06
  -7  -1   6    0.14    0.07
  -7  -1   6    0.04    0.06
  -7  -1   6    0.07    0.07
   6   1  -6   12.99    0.43
   6   1  -6   13.62    0.36
   6   1  -6   13.25    0.38
   6   1  -6   12.53    0.45
   6   1  -6   13.28    0.42
  -6  -1   6   13.44    0.45
  -6  -1   6   13.71    0.41
  -6  -1   6   13.23    0.45
   5   1  -6    2.73    0.11
   5   1  -6    2.42    0.14
   5   1  -6    2.50    0.12
   5   1  -6    2.28    0.15
  -5  -1   6    2.20    0.15
  -5  -1   6    2.31    0.14
  -5  -1   6    2.66    0.14
   4   1  -6    0.74    0.08
   4   1  -6    0.92    0.09
   4   1  -6    0.90    0.09
   4   1  -6    0.85    0.08
   4   1  -6    0.92    0.11
  -4  -1   6    0.95    0.09
  -4  -1   6    0.92    0.10
   3   1  -6    3.40    0.14
   3   1  -6    3.23    0.16
   3   1  -6    3.13    0.15
   3   1  -6    3.52    0.17
   3   1  -6    3.03    0.13
  -3  -1   6    3.25    0.16
  -3  -1   6    3.55    0.15
  -3  -1   6    3.49    0.17
  -3  -1   6    3.35    0.14
   2   1  -6    1.91    0.11
   2   1  -6    2.01    0.12
   2   1  -6    2.13    0.11
   2   1  -6    2.06    0.13
   2   1  -6    2.14    0.07
   2   1  -6    2.29    0.13
   2   1  -6    2.00    0.11
  -2  -1   6    2.02    0.13
  -2  -1   6    2.22    0.13
  -2  -1   6    2.01    0.11
  -2  -1   6    1.96    0.11
   1   1  -6   27.97    0.71
   1   1  -6   27.66    0.70
   1   1  -6   24.87    0.82
   1   1  -6   26.69    0.82
   1   1  -6   27.51    0.71
   1   1  -6   26.53    0.74
  -1  -1   6   24.88    0.82
  -1  -1   6   27.37    0.74
  -1  -1   6   26.40    0.82
  -1  -1   6   27.22    0.71
   0   1  -6    9.17    0.35
   0   1  -6   10.01    0.30
   0   1  -6   10.33    0.31
   0   1  -6    9.81    0.31
   0   1  -6    9.91    0.35
   0   1  -6   10.11    0.30
   0  -1   6   10.06    0.31
   0  -1   6    9.87    0.36
   0  -1   6   10.43    0.36
   0  -1   6   10.11    0.31
  -1   1  -6    0.03    0.04
  -1   1  -6   -0.05    0.05
  -1   1  -6    0.03    0.03
  -1   1  -6   -0.08    0.05
  -1   1  -6    0.02    0.04
  -1   1  -6    0.05    0.04
  -1   1  -6    0.06    0.05
   1  -1   6   -0.03    0.05
   1  -1   6   -0.03    0.05
   1  -1   6   -0.06    0.05
   1  -1   6   -0.01    0.04
   1  -1   6   -0.14    0.05
  -2   1  -6    0.05    0.04
  -2   1  -6    0.06    0.05
  -2   1  -6    0.01    0.06
  -2   1  -6    0.07    0.03
  -2   1  -6   -0.01    0.06
   2  -1   6   -0.13    0.06
   2  -1   6    0.08    0.06
   2  -1   6    0.23    0.06
   2  -1   6    0.04    0.04
  -3   1  -6    0.79    0.10
  -3   1  -6    0.89    0.08
  -3   1  -6    0.75    0.10
   3  -1   6    0.96    0.11
   3  -1   6    0.88    0.09
   3  -1   6    0.63    0.09
  -4   1  -6    2.63    0.18
  -4   1  -6    2.44    0.17
  -4   1  -6    2.46    0.13
   4  -1   6    2.22    0.18
   4  -1   6    2.55    0.16
   4  -1   6    2.54    0.16
  -5   1  -6   11.30    0.35
  -5   1  -6   11.41    0.44
  -5   1  -6   12.30    0.45
   5  -1   6   12.27    0.46
   5  -1   6   12.16    0.39
   5  -1   6   11.90    0.40
  -6   1  -6    1.56    0.17
  -6   1  -6    1.73    0.19
   6  -1   6    2.00    0.18
   6  -1   6    1.75    0.18
   6  -1   6    1.50    0.14
  -7   1  -6    1.22    0.16
  -7   1  -6    1.17    0.14
   7  -1   6    1.46    0.15
   7  -1   6    1.13    0.13
  10   0  -6    0.19    0.10
  10   0  -6    0.15    0.08
 -10   0   6    0.10    0.08
 -10   0   6    0.18    0.09
   9   0  -6    2.34    0.19
  -9   0   6    2.03    0.17
  -9   0   6    2.13    0.17
   8   0  -6    2.48    0.13
   8   0  -6    2.39    0.18
   8   0  -6    2.20    0.17
  -8   0   6    2.31    0.17
  -8   0   6    2.53    0.16
  -8   0   6    2.44    0.17
   7   0  -6    2.10    0.12
   7   0  -6    2.25    0.16
   7   0  -6    2.27    0.12
   7   0  -6    1.89    0.16
  -7   0   6    2.08    0.16
  -7   0   6    2.01    0.16
  -7   0   6    2.29    0.16
   6   0  -6   25.78    0.74
   6   0  -6   26.00    0.75
   6   0  -6   26.39    0.81
   6   0  -6   26.04    0.68
   6   0  -6   26.07    0.67
  -6   0   6   25.33    0.69
  -6   0   6   25.96    0.80
  -6   0   6   25.54    0.81
   5   0  -6    0.89    0.10
   5   0  -6    1.05    0.10
   5   0  -6    0.95    0.09
   5   0  -6    1.09    0.08
  -5   0   6    1.13    0.11
  -5   0   6    0.99    0.10
   4   0  -6   11.22    0.35
   4   0  -6   11.57    0.33
   4   0  -6   10.22    0.39
   4   0  -6   11.27    0.39
   4   0  -6   11.41    0.33
  -4   0   6   11.41    0.40
  -4   0   6   11.41    0.33
  -4   0   6   12.10    0.39
   3   0  -6   66.31    1.64
   3   0  -6   68.88    1.92
   3   0  -6   61.89    1.92
   3   0  -6   66.09    1.67
   3   0  -6   65.17    1.74
  -3   0   6   67.31    1.74
  -3   0   6   65.83    1.64
  -3   0   6   68.14    1.92
  -3   0   6   62.85    1.92
  -3   0   6   66.22    1.66
   2   0  -6   49.14    1.38
   2   0  -6   46.13    1.24
   2   0  -6   42.93    1.38
   2   0  -6   46.32    1.19
   2   0  -6   46.29    1.19
   2   0  -6   46.68    1.18
  -2   0   6   50.28    1.38
  -2   0   6   45.87    1.18
  -2   0   6   45.70    1.20
  -2   0   6   47.51    1.24
  -2   0   6   44.38    1.38
   1   0  -6    3.63    0.18
   1   0  -6    3.91    0.16
   1   0  -6    3.62    0.15
   1   0  -6    3.88    0.16
   1   0  -6    3.66    0.19
   1   0  -6    3.86    0.16
  -1   0   6    3.73    0.15
  -1   0   6    3.57    0.19
  -1   0   6    3.96    0.16
  -1   0   6    3.73    0.16
  -1   0   6    3.79    0.18
   0   0  -6  107.01    2.74
   0   0  -6  101.63    2.57
   0   0  -6  104.79    2.63
   0   0  -6  105.78    2.60
   0   0  -6  104.67    3.02
   0   0  -6  111.29    3.02
   0   0   6  106.15    2.74
   0   0   6  103.20    3.02
   0   0   6  103.63    2.58
   0   0   6  106.29    2.63
   0   0   6   95.97    3.01
  -1   0  -6   32.40    0.84
  -1   0  -6   34.07    0.99
  -1   0  -6   32.11    0.87
  -1   0  -6   32.06    0.88
  -1   0  -6   34.19    0.99
   1   0   6   31.47    0.84
   1   0   6   32.46    0.86
   1   0   6   31.16    0.85
   1   0   6   30.80    0.86
   1   0   6   30.72    0.98
   1   0   6   32.18    0.88
  -2   0  -6    2.24    0.16
  -2   0  -6    2.33    0.16
  -2   0  -6    2.15    0.13
  -2   0  -6    2.09    0.11
   2   0   6    2.20    0.13
   2   0   6    2.30    0.11
   2   0   6    2.26    0.16
   2   0   6    2.11    0.15
   2   0   6    1.89    0.14
   2   0   6    2.18    0.13
  -3   0  -6   10.19    0.32
  -3   0  -6   10.45    0.39
  -3   0  -6   10.58    0.39
   3   0   6   10.35    0.34
   3   0   6   10.22    0.33
   3   0   6   10.40    0.35
   3   0   6   10.66    0.39
  -4   0  -6   22.29    0.75
  -4   0  -6   23.57    0.75
  -4   0  -6   22.79    0.75
   4   0   6   23.41    0.67
   4   0   6   23.74    0.66
   4   0   6   23.09    0.75
  -5   0  -6    7.99    0.36
  -5   0  -6    7.80    0.34
   5   0   6    8.31    0.32
   5   0   6    7.54    0.34
   5   0   6    7.66    0.31
  -6   0  -6    1.90    0.18
  -6   0  -6    2.13    0.23
   6   0   6    1.81    0.18
   6   0   6    2.17    0.19
  -7   0  -6    2.27    0.24
  -7   0  -6    1.90    0.19
   7   0   6    1.61    0.16
   7   0   6    1.49    0.15
  11  -1  -6    1.61    0.17
  11  -1  -6    1.60    0.15
 -11   1   6    1.56    0.16
 -11   1   6    1.64    0.16
  10  -1  -6    0.16    0.09
  10  -1  -6    0.35    0.08
 -10   1   6    0.20    0.09
 -10   1   6    0.25    0.10
   9  -1  -6    4.47    0.24
   9  -1  -6    4.82    0.24
  -9   1   6    4.67    0.22
  -9   1   6    4.46    0.25
   8  -1  -6    3.45    0.20
   8  -1  -6    3.28    0.20
   8  -1  -6    3.40    0.15
  -8   1   6    3.75    0.19
  -8   1   6    3.52    0.21
  -8   1   6    3.22    0.19
   7  -1  -6    2.47    0.13
   7  -1  -6    2.47    0.10
   7  -1  -6    2.42    0.11
   7  -1  -6    2.60    0.16
   7  -1  -6    2.35    0.17
  -7   1   6    2.39    0.16
  -7   1   6    2.52    0.15
  -7   1   6    2.66    0.18
   6  -1  -6    8.67    0.28
   6  -1  -6    9.03    0.31
   6  -1  -6    8.85    0.34
   6  -1  -6    8.74    0.26
  -6   1   6    8.99    0.34
  -6   1   6    8.60    0.26
  -6   1   6    8.76    0.28
  -6   1   6    9.30    0.34
   5  -1  -6    5.11    0.23
   5  -1  -6    5.17    0.18
   5  -1  -6    5.16    0.19
   5  -1  -6    4.92    0.20
  -5   1   6    4.75    0.22
  -5   1   6    5.22    0.18
  -5   1   6    5.21    0.20
  -5   1   6    4.97    0.23
   4  -1  -6    0.76    0.10
   4  -1  -6    0.82    0.08
   4  -1  -6    0.86    0.08
   4  -1  -6    0.79    0.09
   4  -1  -6    0.96    0.08
  -4   1   6    0.84    0.08
  -4   1   6    0.80    0.10
  -4   1   6    0.97    0.09
  -4   1   6    0.84    0.10
   3  -1  -6   16.70    0.56
   3  -1  -6   16.87    0.49
   3  -1  -6   17.46    0.48
   3  -1  -6   16.96    0.56
   3  -1  -6   17.21    0.48
  -3   1   6   17.29    0.48
  -3   1   6   18.21    0.57
  -3   1   6   16.62    0.56
  -3   1   6   17.47    0.48
  -3   1   6   17.71    0.49
   2  -1  -6    4.45    0.20
   2  -1  -6    4.15    0.21
   2  -1  -6    4.55    0.17
   2  -1  -6    4.14    0.18
   2  -1  -6    4.45    0.17
   2  -1  -6    4.34    0.17
  -2   1   6    4.47    0.20
  -2   1   6    4.41    0.18
  -2   1   6    4.71    0.17
  -2   1   6    4.32    0.18
  -2   1   6    4.21    0.21
   1  -1  -6    1.49    0.11
   1  -1  -6    1.16    0.13
   1  -1  -6    1.50    0.11
   1  -1  -6    1.55    0.10
   1  -1  -6    1.01    0.11
   1  -1  -6    1.60    0.12
  -1   1   6    1.43    0.09
  -1   1   6    1.54    0.12
  -1   1   6    1.59    0.12
  -1   1   6    1.18    0.12
  -1   1   6    1.14    0.11
   0  -1  -6    2.51    0.13
   0  -1  -6    2.44    0.14
   0  -1  -6    2.39    0.16
   0  -1  -6    2.41    0.16
   0   1   6    2.60    0.15
   0   1   6    2.46    0.12
   0   1   6    2.30    0.14
   0   1   6    2.22    0.17
  -1  -1  -6    5.63    0.25
  -1  -1  -6    5.44    0.21
  -1  -1  -6    5.48    0.17
  -1  -1  -6    5.76    0.25
   1   1   6    5.63    0.21
   1   1   6    5.82    0.25
   1   1   6    5.83    0.21
   1   1   6    5.28    0.23
   1   1   6    5.42    0.18
  -2  -1  -6    0.10    0.08
  -2  -1  -6    0.17    0.06
  -2  -1  -6    0.08    0.07
   2   1   6    0.07    0.06
   2   1   6    0.15    0.07
   2   1   6    0.14    0.08
   2   1   6    0.13    0.05
   2   1   6   -0.03    0.07
   2   1   6    0.24    0.06
  -3  -1  -6    5.64    0.26
  -3  -1  -6    5.15    0.27
  -3  -1  -6    5.63    0.28
   3   1   6    5.37    0.27
   3   1   6    5.76    0.22
   3   1   6    5.39    0.21
   3   1   6    5.68    0.25
   3   1   6    5.43    0.23
  -4  -1  -6   10.65    0.43
  -4  -1  -6   10.47    0.41
   4   1   6   10.77    0.37
   4   1   6   10.32    0.41
   4   1   6   10.69    0.38
  -5  -1  -6    0.23    0.09
  -5  -1  -6    0.27    0.12
   5   1   6    0.26    0.10
   5   1   6    0.34    0.10
  -6  -1  -6    2.44    0.24
  -6  -1  -6    2.37    0.20
   6   1   6    2.20    0.20
   6   1   6    2.57    0.21
  11  -2  -6    2.05    0.16
  11  -2  -6    2.46    0.21
 -11   2   6    1.89    0.19
 -11   2   6    2.01    0.21
  10  -2  -6    3.40    0.23
  10  -2  -6    2.74    0.18
  10  -2  -6    3.07    0.21
 -10   2   6    3.02    0.20
 -10   2   6    2.85    0.22
   9  -2  -6   -0.12    0.07
   9  -2  -6   -0.10    0.07
  -9   2   6   -0.05    0.08
  -9   2   6   -0.05    0.07
   8  -2  -6    1.02    0.12
   8  -2  -6    1.00    0.11
  -8   2   6    0.98    0.12
  -8   2   6    0.88    0.11
  -8   2   6    1.00    0.11
   7  -2  -6   26.43    0.70
   7  -2  -6   25.62    0.86
   7  -2  -6   27.36    0.77
  -7   2   6   26.91    0.86
  -7   2   6   27.72    0.87
  -7   2   6   27.77    0.72
  -7   2   6   27.12    0.70
   6  -2  -6    3.12    0.14
   6  -2  -6    3.24    0.16
   6  -2  -6    3.54    0.21
  -6   2   6    3.39    0.17
  -6   2   6    3.48    0.14
  -6   2   6    3.14    0.19
  -6   2   6    3.44    0.21
   5  -2  -6    6.45    0.23
   5  -2  -6    6.45    0.21
   5  -2  -6    5.86    0.27
  -5   2   6    6.30    0.27
  -5   2   6    6.66    0.28
  -5   2   6    6.48    0.23
  -5   2   6    6.49    0.22
   4  -2  -6   16.99    0.57
   4  -2  -6   17.48    0.49
   4  -2  -6   18.27    0.58
   4  -2  -6   17.11    0.49
  -4   2   6   17.19    0.49
  -4   2   6   17.90    0.58
  -4   2   6   16.55    0.57
  -4   2   6   17.07    0.49
   3  -2  -6    5.33    0.19
   3  -2  -6    5.58    0.20
   3  -2  -6    5.39    0.24
   3  -2  -6    5.00    0.17
   3  -2  -6    5.28    0.23
  -3   2   6    5.53    0.24
  -3   2   6    5.45    0.21
  -3   2   6    5.64    0.24
  -3   2   6    5.40    0.21
  -3   2   6    5.07    0.19
   2  -2  -6   46.02    1.32
   2  -2  -6   43.10    1.16
   2  -2  -6   43.05    1.31
   2  -2  -6   42.53    1.16
  -2   2   6   44.24    1.13
  -2   2   6   42.24    1.16
  -2   2   6   43.70    1.31
  -2   2   6   44.19    1.14
   1  -2  -6    2.83    0.17
   1  -2  -6    2.89    0.18
   1  -2  -6    2.49    0.12
  -1   2   6    2.55    0.15
  -1   2   6    2.67    0.16
  -1   2   6    2.66    0.12
  -1   2   6    3.14    0.18
   0  -2  -6    9.47    0.35
   0  -2  -6    8.67    0.35
   0  -2  -6    9.41    0.31
   0   2   6    9.31    0.29
   0   2   6    9.88    0.33
   0   2   6    9.19    0.36
   0   2   6    9.42    0.31
  -1  -2  -6    2.04    0.19
  -1  -2  -6    2.33    0.17
  -1  -2  -6    2.48    0.18
  -1  -2  -6    2.38    0.12
  -1  -2  -6    2.42    0.15
   1   2   6    2.25    0.12
   1   2   6    2.35    0.18
   1   2   6    2.31    0.15
   1   2   6    2.32    0.17
   1   2   6    2.50    0.13
  -2  -2  -6    0.99    0.12
  -2  -2  -6    0.92    0.10
  -2  -2  -6    0.91    0.13
  -2  -2  -6    0.67    0.11
   2   2   6    0.88    0.10
   2   2   6    1.01    0.11
   2   2   6    1.09    0.12
   2   2   6    0.89    0.12
  -3  -2  -6    1.03    0.15
  -3  -2  -6    1.06    0.13
   3   2   6    1.24    0.12
   3   2   6    0.99    0.13
   3   2   6    1.43    0.14
   3   2   6    1.22    0.13
  -4  -2  -6    0.22    0.12
  -4  -2  -6    0.38    0.10
   4   2   6    0.38    0.09
   4   2   6    0.38    0.08
   4   2   6    0.38    0.10
  -5  -2  -6    0.61    0.14
  -5  -2  -6    0.30    0.10
   5   2   6    0.63    0.12
   5   2   6    0.47    0.11
  11  -3  -6    0.07    0.08
  11  -3  -6    0.12    0.09
 -11   3   6    0.15    0.10
 -11   3   6    0.32    0.10
  10  -3  -6    1.69    0.14
  10  -3  -6    2.13    0.21
  10  -3  -6    2.35    0.19
 -10   3   6    2.15    0.21
 -10   3   6    2.34    0.18
   9  -3  -6    0.23    0.08
   9  -3  -6    0.19    0.10
  -9   3   6    0.21    0.07
  -9   3   6    0.16    0.09
  -9   3   6    0.12    0.08
   8  -3  -6    0.86    0.13
   8  -3  -6    0.86    0.10
  -8   3   6    1.03    0.10
  -8   3   6    0.82    0.12
  -8   3   6    0.77    0.07
   7  -3  -6    2.10    0.19
   7  -3  -6    2.08    0.14
  -7   3   6    2.12    0.15
  -7   3   6    2.08    0.12
  -7   3   6    2.21    0.19
   6  -3  -6    1.94    0.18
   6  -3  -6    1.79    0.11
   6  -3  -6    1.76    0.12
  -6   3   6    1.74    0.12
  -6   3   6    1.46    0.12
  -6   3   6    1.57    0.15
   5  -3  -6    1.66    0.16
   5  -3  -6    1.73    0.11
   5  -3  -6    1.58    0.12
  -5   3   6    1.36    0.12
  -5   3   6    1.96    0.17
  -5   3   6    1.23    0.11
   4  -3  -6    2.06    0.17
   4  -3  -6    1.87    0.10
  -4   3   6    1.60    0.14
  -4   3   6    2.06    0.16
  -4   3   6    1.64    0.14
   3  -3  -6    0.84    0.11
   3  -3  -6    0.98    0.07
   3  -3  -6    0.83    0.11
   3  -3  -6    0.86    0.08
  -3   3   6    0.74    0.11
  -3   3   6    0.92    0.10
  -3   3   6    0.71    0.09
   2  -3  -6   -0.02    0.07
   2  -3  -6   -0.01    0.07
   2  -3  -6    0.10    0.04
   2  -3  -6   -0.05    0.06
   2  -3  -6    0.03    0.04
  -2   3   6    0.01    0.06
  -2   3   6    0.00    0.06
  -2   3   6   -0.01    0.07
  -2   3   6    0.02    0.04
   1  -3  -6   18.86    0.62
   1  -3  -6   18.83    0.60
   1  -3  -6   19.33    0.63
  -1   3   6   18.66    0.54
  -1   3   6   18.28    0.52
  -1   3   6   18.49    0.63
  -1   3   6   19.06    0.56
   0  -3  -6    0.97    0.11
   0  -3  -6    1.17    0.13
   0  -3  -6    0.97    0.12
   0  -3  -6    1.27    0.13
   0  -3  -6    1.11    0.08
   0   3   6    0.93    0.10
   0   3   6    1.11    0.09
   0   3   6    0.96    0.12
   0   3   6    1.09    0.12
  -1  -3  -6   10.03    0.40
  -1  -3  -6    9.81    0.38
  -1  -3  -6   10.09    0.39
  -1  -3  -6   10.41    0.36
   1   3   6    9.66    0.36
   1   3   6   10.34    0.39
   1   3   6    9.21    0.32
   1   3   6    9.73    0.34
  -2  -3  -6    6.52    0.33
  -2  -3  -6    6.72    0.28
  -2  -3  -6    6.22    0.29
   2   3   6    6.30    0.26
   2   3   6    6.50    0.30
   2   3   6    6.77    0.29
  -3  -3  -6    1.55    0.18
  -3  -3  -6    1.88    0.18
   3   3   6    2.03    0.17
   3   3   6    1.68    0.16
  -4  -3  -6    4.76    0.26
  -4  -3  -6    5.05    0.32
   4   3   6    4.81    0.23
   4   3   6    5.10    0.28
  11  -4  -6    2.68    0.19
  11  -4  -6    3.01    0.22
  11  -4  -6    2.44    0.24
 -11   4   6    2.55    0.25
 -11   4   6    2.69    0.20
  10  -4  -6    0.83    0.11
  10  -4  -6    0.64    0.10
  10  -4  -6    0.74    0.13
 -10   4   6    0.85    0.10
 -10   4   6    0.86    0.12
 -10   4   6    0.80    0.14
   9  -4  -6    2.56    0.17
   9  -4  -6    2.69    0.23
  -9   4   6    2.80    0.23
  -9   4   6    2.60    0.17
  -9   4   6    2.52    0.16
   8  -4  -6    2.41    0.15
   8  -4  -6    2.35    0.21
  -8   4   6    2.38    0.13
  -8   4   6    2.60    0.22
  -8   4   6    2.38    0.17
   7  -4  -6    1.25    0.11
   7  -4  -6    1.11    0.14
  -7   4   6    1.12    0.14
  -7   4   6    1.28    0.11
  -7   4   6    1.25    0.12
   6  -4  -6    0.25    0.10
   6  -4  -6    0.25    0.06
   6  -4  -6    0.10    0.05
  -6   4   6    0.22    0.07
  -6   4   6    0.21    0.10
  -6   4   6    0.04    0.08
   5  -4  -6    0.12    0.04
   5  -4  -6    0.16    0.09
  -5   4   6   -0.26    0.07
  -5   4   6    0.19    0.09
  -5   4   6   -0.21    0.08
   4  -4  -6    4.36    0.15
   4  -4  -6    4.82    0.25
   4  -4  -6    4.52    0.20
   4  -4  -6    4.68    0.18
  -4   4   6    4.36    0.24
  -4   4   6    4.54    0.22
  -4   4   6    4.54    0.21
   3  -4  -6    2.83    0.19
   3  -4  -6    2.84    0.17
   3  -4  -6    2.99    0.19
   3  -4  -6    2.62    0.13
  -3   4   6    3.02    0.18
  -3   4   6    2.94    0.20
  -3   4   6    2.96    0.18
   2  -4  -6   10.32    0.39
   2  -4  -6   10.14    0.37
   2  -4  -6   10.24    0.39
  -2   4   6   10.33    0.35
  -2   4   6    9.61    0.39
  -2   4   6    9.84    0.34
  -2   4   6    9.41    0.29
   1  -4  -6    0.22    0.05
   1  -4  -6    0.12    0.09
   1  -4  -6    0.22    0.08
   1  -4  -6    0.16    0.09
   1  -4  -6    0.30    0.08
  -1   4   6    0.24    0.09
  -1   4   6    0.14    0.08
  -1   4   6    0.25    0.09
  -1   4   6    0.18    0.04
   0  -4  -6    0.05    0.08
   0  -4  -6    0.12    0.08
   0  -4  -6    0.18    0.05
   0  -4  -6    0.07    0.09
   0   4   6   -0.10    0.08
   0   4   6    0.08    0.08
   0   4   6    0.23    0.09
  -1  -4  -6   -0.16    0.10
  -1  -4  -6   -0.01    0.08
  -1  -4  -6   -0.14    0.08
   1   4   6   -0.23    0.08
   1   4   6   -0.04    0.09
   1   4   6   -0.14    0.07
  -2  -4  -6    1.15    0.13
  -2  -4  -6    1.21    0.17
   2   4   6    1.17    0.15
   2   4   6    1.07    0.13
  -3  -4  -6    2.91    0.28
  -3  -4  -6    2.70    0.21
   3   4   6    3.25    0.20
   3   4   6    3.43    0.25
  11  -5  -6   -0.06    0.11
  11  -5  -6   -0.01    0.07
  11  -5  -6    0.21    0.09
 -11   5   6   -0.10    0.08
 -11   5   6    0.02    0.11
  10  -5  -6   -0.07    0.09
  10  -5  -6   -0.07    0.07
  10  -5  -6    0.06    0.07
 -10   5   6   -0.20    0.10
 -10   5   6   -0.02    0.07
 -10   5   6   -0.10    0.07
   9  -5  -6    5.26    0.30
   9  -5  -6    5.32    0.23
  -9   5   6    5.22    0.24
  -9   5   6    5.01    0.19
  -9   5   6    4.98    0.30
   8  -5  -6    1.02    0.15
   8  -5  -6    1.25    0.12
  -8   5   6    1.10    0.15
  -8   5   6    1.32    0.13
  -8   5   6    1.17    0.12
   7  -5  -6    2.42    0.12
   7  -5  -6    2.00    0.20
  -7   5   6    2.28    0.17
  -7   5   6    1.90    0.21
  -7   5   6    2.32    0.15
   6  -5  -6    4.70    0.16
   6  -5  -6    4.45    0.18
   6  -5  -6    4.88    0.27
  -6   5   6    5.13    0.24
  -6   5   6    4.60    0.22
  -6   5   6    4.70    0.28
   5  -5  -6    2.73    0.17
   5  -5  -6    3.32    0.23
   5  -5  -6    3.00    0.16
  -5   5   6    3.10    0.24
  -5   5   6    2.97    0.19
  -5   5   6    2.89    0.20
   4  -5  -6    0.18    0.09
   4  -5  -6    0.10    0.07
   4  -5  -6    0.13    0.06
  -4   5   6    0.17    0.08
  -4   5   6    0.05    0.09
  -4   5   6    0.11    0.08
   3  -5  -6   20.77    0.66
   3  -5  -6   21.77    0.71
   3  -5  -6   19.70    0.60
  -3   5   6   21.31    0.71
  -3   5   6   20.93    0.61
  -3   5   6   20.53    0.62
   2  -5  -6    0.20    0.10
   2  -5  -6   -0.07    0.08
   2  -5  -6    0.03    0.07
   2  -5  -6   -0.01    0.08
  -2   5   6    0.23    0.10
  -2   5   6    0.02    0.08
  -2   5   6    0.05    0.09
   1  -5  -6    1.92    0.18
   1  -5  -6    1.67    0.18
   1  -5  -6    1.75    0.19
  -1   5   6    1.58    0.14
  -1   5   6    1.90    0.19
  -1   5   6    1.90    0.19
   0  -5  -6    2.49    0.24
   0  -5  -6    2.57    0.20
   0  -5  -6    2.58    0.20
   0   5   6    2.51    0.21
   0   5   6    2.12    0.19
  -1  -5  -6    0.58    0.15
  -1  -5  -6    0.58    0.12
  -1  -5  -6    0.48    0.11
   1   5   6    0.62    0.13
   1   5   6    0.59    0.11
  -2  -5  -6   -0.02    0.09
  -2  -5  -6    0.02    0.12
   2   5   6    0.10    0.11
   2   5   6    0.06    0.08
  11  -6  -6    0.73    0.10
  11  -6  -6    0.58    0.14
 -11   6   6    0.69    0.12
 -11   6   6    0.72    0.16
 -11   6   6    0.73    0.11
  10  -6  -6    0.23    0.12
  10  -6  -6    0.07    0.07
 -10   6   6    0.18    0.12
 -10   6   6    0.23    0.08
   9  -6  -6   -0.06    0.06
   9  -6  -6   -0.02    0.11
  -9   6   6   -0.11    0.07
  -9   6   6    0.02    0.10
  -9   6   6    0.06    0.06
   8  -6  -6    0.08    0.10
  -8   6   6   -0.06    0.10
  -8   6   6   -0.12    0.08
  -8   6   6    0.08    0.07
   7  -6  -6    3.83    0.26
  -7   6   6    3.25    0.23
  -7   6   6    3.56    0.26
  -7   6   6    3.08    0.20
   6  -6  -6    5.25    0.30
   6  -6  -6    4.90    0.21
   6  -6  -6    4.89    0.23
  -6   6   6    4.96    0.26
  -6   6   6    4.91    0.24
  -6   6   6    5.68    0.31
   5  -6  -6    2.68    0.17
   5  -6  -6    2.53    0.23
   5  -6  -6    2.63    0.17
  -5   6   6    2.69    0.20
  -5   6   6    2.64    0.19
  -5   6   6    2.55    0.23
   4  -6  -6    0.41    0.10
   4  -6  -6    0.50    0.11
   4  -6  -6    0.43    0.08
  -4   6   6    0.62    0.12
  -4   6   6    0.41    0.10
  -4   6   6    0.40    0.10
   3  -6  -6    2.10    0.20
   3  -6  -6    2.43    0.20
   3  -6  -6    2.73    0.22
   3  -6  -6    2.64    0.17
  -3   6   6    2.61    0.22
  -3   6   6    2.29    0.20
  -3   6   6    2.16    0.20
   2  -6  -6    2.43    0.21
   2  -6  -6    2.15    0.20
   2  -6  -6    2.15    0.20
  -2   6   6    2.39    0.20
  -2   6   6    2.30    0.21
  -2   6   6    2.03    0.21
   1  -6  -6    0.60    0.11
   1  -6  -6    0.37    0.12
   1  -6  -6    0.48    0.13
  -1   6   6    0.46    0.12
  -1   6   6    0.50    0.11
   0  -6  -6    1.11    0.17
   0  -6  -6    1.13    0.15
   0  -6  -6    1.28    0.15
   0   6   6    1.08    0.14
   0   6   6    1.22    0.16
  -1  -6  -6    0.83    0.12
  -1  -6  -6    0.82    0.15
   1   6   6    0.95    0.15
   1   6   6    0.91    0.13
  10  -7  -6    3.16    0.29
  10  -7  -6    3.22    0.17
 -10   7   6    3.18    0.30
 -10   7   6    3.74    0.22
   9  -7  -6    0.13    0.06
   9  -7  -6    0.21    0.13
  -9   7   6    0.18    0.12
  -9   7   6    0.13    0.09
  -9   7   6    0.11    0.07
   8  -7  -6    0.05    0.12
  -8   7   6    0.21    0.13
  -8   7   6    0.15    0.08
  -8   7   6    0.19    0.10
   7  -7  -6   13.19    0.52
  -7   7   6   12.63    0.44
  -7   7   6   12.06    0.52
  -7   7   6   11.98    0.43
   6  -7  -6    1.91    0.17
   6  -7  -6    2.33    0.23
  -6   7   6    1.63    0.15
  -6   7   6    2.17    0.20
  -6   7   6    2.12    0.24
   5  -7  -6    0.45    0.12
   5  -7  -6    0.48    0.09
   5  -7  -6    0.61    0.10
  -5   7   6    0.71    0.12
  -5   7   6    0.58    0.11
  -5   7   6    0.56    0.13
   4  -7  -6    1.23    0.14
   4  -7  -6    1.23    0.16
   4  -7  -6    1.22    0.12
  -4   7   6    1.14    0.14
  -4   7   6    1.41    0.16
  -4   7   6    1.21    0.15
   3  -7  -6    2.25    0.22
   3  -7  -6    2.16    0.21
   3  -7  -6    2.11    0.22
  -3   7   6    2.44    0.22
  -3   7   6    1.84    0.17
   2  -7  -6    0.07    0.10
   2  -7  -6   -0.10    0.10
   2  -7  -6   -0.04    0.11
  -2   7   6    0.04    0.10
  -2   7   6    0.19    0.11
   1  -7  -6    4.16    0.26
   1  -7  -6    4.32    0.31
   1  -7  -6    4.78    0.29
  -1   7   6    4.46    0.30
  -1   7   6    4.12    0.28
   9  -8  -6    0.02    0.12
  -9   8   6    0.05    0.08
  -9   8   6   -0.01    0.12
  -9   8   6   -0.03    0.10
   8  -8  -6    0.29    0.14
   8  -8  -6    0.21    0.09
  -8   8   6    0.21    0.10
  -8   8   6    0.30    0.11
  -8   8   6    0.26    0.14
   7  -8  -6    0.27    0.13
   7  -8  -6    0.22    0.10
  -7   8   6    0.40    0.14
  -7   8   6    0.23    0.10
  -7   8   6    0.33    0.11
   6  -8  -6   -0.03    0.08
   6  -8  -6    0.01    0.10
  -6   8   6    0.15    0.12
  -6   8   6    0.05    0.10
  -6   8   6   -0.05    0.09
   5  -8  -6    0.05    0.08
   5  -8  -6    0.18    0.11
  -5   8   6    0.16    0.11
  -5   8   6   -0.13    0.10
   4  -8  -6    0.58    0.14
   4  -8  -6    0.93    0.15
   4  -8  -6    0.63    0.13
  -4   8   6    0.54    0.13
  -4   8   6    0.59    0.13
   3  -8  -6    0.31    0.12
   3  -8  -6    0.39    0.12
   3  -8  -6    0.27    0.13
  -3   8   6    0.34    0.13
  -3   8   6    0.27    0.12
  -1  12  -7   -0.08    0.09
  -1  12  -7    0.02    0.10
  -2  12  -7    0.70    0.12
  -2  12  -7    0.60    0.13
   2 -12   7    0.76    0.13
   2 -12   7    0.84    0.10
  -3  12  -7   -0.05    0.10
  -3  12  -7    0.05    0.09
   3 -12   7    0.02    0.09
   3 -12   7   -0.02    0.08
  -4  12  -7    0.83    0.12
   4 -12   7    0.87    0.13
   4 -12   7    0.86    0.14
  -5  12  -7    0.10    0.09
   5 -12   7    0.01    0.09
   5 -12   7    0.11    0.10
  -6  12  -7   -0.05    0.10
  -6  12  -7    0.02    0.09
   6 -12   7    0.00    0.09
   6 -12   7    0.06    0.11
  -7  12  -7    0.16    0.10
  -7  12  -7    0.18    0.12
  -7  12  -7    0.04    0.09
   7 -12   7    0.15    0.11
   7 -12   7    0.02    0.09
   7 -12   7    0.28    0.08
   1  11  -7    9.27    0.38
   1  11  -7    9.02    0.37
   0  11  -7    0.85    0.13
   0  11  -7    0.87    0.14
  -1  11  -7    0.61    0.11
   1 -11   7    0.76    0.09
   1 -11   7    0.63    0.13
  -2  11  -7    3.93    0.22
   2 -11   7    3.71    0.24
   2 -11   7    3.57    0.20
  -3  11  -7    1.15    0.13
   3 -11   7    1.27    0.15
   3 -11   7    1.11    0.13
  -4  11  -7    3.67    0.22
   4 -11   7    3.68    0.23
   4 -11   7    3.75    0.16
   4 -11   7    3.45    0.24
  -5  11  -7    2.37    0.21
  -5  11  -7    2.40    0.19
   5 -11   7    1.99    0.20
   5 -11   7    2.03    0.14
   5 -11   7    2.66    0.22
  -6  11  -7    0.56    0.13
  -6  11  -7    0.53    0.11
   6 -11   7    0.58    0.09
   6 -11   7    0.54    0.12
   6 -11   7    0.44    0.11
  -7  11  -7    0.56    0.11
  -7  11  -7    0.57    0.13
   7 -11   7    0.68    0.10
   7 -11   7    0.61    0.13
  -8  11  -7    0.05    0.11
   8 -11   7    0.04    0.08
   8 -11   7    0.06    0.11
   2  10  -7    0.65    0.11
   2  10  -7    0.49    0.12
   1  10  -7    2.68    0.21
   0  10  -7    0.14    0.09
   0 -10   7    0.19    0.06
  -1  10  -7    0.30    0.09
   1 -10   7    0.16    0.09
   1 -10   7    0.20    0.07
  -2  10  -7    1.86    0.17
   2 -10   7    1.63    0.15
   2 -10   7    1.62    0.15
  -3  10  -7    3.69    0.22
  -3  10  -7    3.73    0.21
   3 -10   7    3.64    0.21
   3 -10   7    3.68    0.22
   3 -10   7    3.69    0.15
  -4  10  -7    0.96    0.12
  -4  10  -7    0.99    0.12
   4 -10   7    1.00    0.13
   4 -10   7    1.01    0.09
   4 -10   7    0.90    0.12
  -5  10  -7   11.75    0.41
  -5  10  -7   11.70    0.46
   5 -10   7   11.82    0.37
   5 -10   7   11.39    0.46
   5 -10   7   11.21    0.42
  -6  10  -7    0.16    0.10
  -6  10  -7   -0.06    0.08
   6 -10   7    0.09    0.07
   6 -10   7    0.08    0.09
  -7  10  -7    0.90    0.13
  -7  10  -7    1.13    0.16
   7 -10   7    0.89    0.11
   7 -10   7    1.11    0.15
  -8  10  -7    2.87    0.26
   8 -10   7    2.24    0.20
   8 -10   7    2.56    0.25
  -9  10  -7   -0.03    0.11
   9 -10   7   -0.16    0.11
   9 -10   7    0.06    0.09
   4   9  -7    4.18    0.23
   4   9  -7    4.00    0.27
   3   9  -7    4.01    0.25
   2   9  -7    0.15    0.09
  -2  -9   7    0.04    0.09
   1   9  -7    4.47    0.24
  -1  -9   7    4.85    0.19
  -1  -9   7    5.02    0.23
   0   9  -7    8.62    0.33
   0  -9   7    8.48    0.30
   0  -9   7    8.57    0.31
   0  -9   7    8.35    0.34
  -1   9  -7    0.03    0.07
  -1   9  -7    0.02    0.06
   1  -9   7   -0.02    0.06
   1  -9   7    0.03    0.07
   1  -9   7    0.05    0.06
  -2   9  -7   10.09    0.38
  -2   9  -7   10.20    0.30
  -2   9  -7   10.62    0.37
   2  -9   7   10.55    0.38
   2  -9   7   10.20    0.31
   2  -9   7   10.27    0.38
   2  -9   7   10.24    0.37
  -3   9  -7    6.70    0.23
  -3   9  -7    7.01    0.29
  -3   9  -7    7.18    0.30
   3  -9   7    6.87    0.29
   3  -9   7    6.90    0.24
   3  -9   7    6.67    0.29
   3  -9   7    6.83    0.30
   3  -9   7    6.68    0.22
  -4   9  -7    1.89    0.17
  -4   9  -7    1.64    0.18
   4  -9   7    1.29    0.14
   4  -9   7    1.55    0.17
   4  -9   7    1.83    0.17
   4  -9   7    1.53    0.13
   4  -9   7    1.53    0.09
  -5   9  -7    1.54    0.18
  -5   9  -7    1.15    0.13
   5  -9   7    1.12    0.11
   5  -9   7    1.35    0.15
  -6   9  -7    1.61    0.15
  -6   9  -7    2.16    0.21
   6  -9   7    2.11    0.16
   6  -9   7    1.95    0.19
  -7   9  -7    1.15    0.16
   7  -9   7    1.02    0.12
   7  -9   7    1.14    0.16
  -8   9  -7   -0.05    0.11
   8  -9   7   -0.21    0.09
   8  -9   7    0.00    0.08
  -9   9  -7    0.15    0.13
   9  -9   7    0.05    0.11
   9  -9   7    0.11    0.10
   5   8  -7    6.08    0.31
   5   8  -7    5.80    0.26
   5   8  -7    5.85    0.27
   4   8  -7    2.92    0.23
  -4  -8   7    2.62    0.22
   3   8  -7   12.40    0.45
  -3  -8   7   13.03    0.43
   2   8  -7    0.95    0.12
  -2  -8   7    1.06    0.08
  -2  -8   7    0.93    0.12
   1   8  -7    8.68    0.32
   1   8  -7    8.88    0.33
  -1  -8   7    8.62    0.30
  -1  -8   7    8.81    0.31
   0   8  -7    6.69    0.26
   0   8  -7    6.52    0.27
   0   8  -7    6.52    0.20
   0  -8   7    6.81    0.26
   0  -8   7    6.43    0.27
   0  -8   7    6.11    0.25
   0  -8   7    6.59    0.24
  -1   8  -7    4.43    0.16
  -1   8  -7    4.46    0.22
  -1   8  -7    4.22    0.20
   1  -8   7    4.12    0.21
   1  -8   7    4.45    0.18
   1  -8   7    4.47    0.22
   1  -8   7    4.54    0.21
  -2   8  -7    7.04    0.28
  -2   8  -7    6.83    0.28
  -2   8  -7    6.76    0.22
   2  -8   7    6.80    0.23
   2  -8   7    6.83    0.28
   2  -8   7    6.87    0.28
   2  -8   7    6.61    0.27
   2  -8   7    6.66    0.22
  -3   8  -7   43.13    1.14
  -3   8  -7   45.18    1.35
  -3   8  -7   44.55    1.24
   3  -8   7   45.49    1.35
   3  -8   7   45.25    1.35
   3  -8   7   44.30    1.24
   3  -8   7   44.07    1.15
   3  -8   7   44.17    1.10
  -4   8  -7    1.19    0.13
  -4   8  -7    1.28    0.13
   4  -8   7    1.55    0.16
   4  -8   7    1.33    0.13
   4  -8   7    1.30    0.12
   4  -8   7    1.55    0.17
   4  -8   7    1.35    0.09
  -5   8  -7   -0.15    0.07
  -5   8  -7    0.05    0.08
   5  -8   7   -0.05    0.06
   5  -8   7    0.03    0.08
  -6   8  -7   10.00    0.37
  -6   8  -7   10.12    0.42
   6  -8   7    9.80    0.35
   6  -8   7    9.47    0.41
  -7   8  -7   -0.02    0.10
   7  -8   7    0.12    0.08
   7  -8   7    0.00    0.10
  -8   8  -7    0.00    0.11
   8  -8   7   -0.05    0.10
   8  -8   7   -0.01    0.08
  -9   8  -7    0.51    0.14
   9  -8   7    0.31    0.11
   9  -8   7    0.40    0.14
   6   7  -7    0.18    0.11
  -6  -7   7    0.36    0.12
   5   7  -7    1.90    0.20
  -5  -7   7    1.90    0.17
   4   7  -7   11.08    0.42
  -4  -7   7   11.62    0.40
   3   7  -7    0.11    0.04
   3   7  -7    0.13    0.08
  -3  -7   7    0.14    0.04
  -3  -7   7    0.08    0.08
  -3  -7   7    0.14    0.04
   2   7  -7   23.30    0.69
   2   7  -7   22.50    0.59
   2   7  -7   22.54    0.69
  -2  -7   7   22.81    0.63
  -2  -7   7   22.40    0.69
   1   7  -7   10.97    0.31
   1   7  -7   10.88    0.38
   1   7  -7   10.87    0.37
  -1  -7   7   10.99    0.35
  -1  -7   7   11.02    0.37
  -1  -7   7   10.56    0.37
   0   7  -7    8.34    0.31
   0   7  -7    8.12    0.29
   0   7  -7    8.33    0.26
   0   7  -7    8.36    0.32
   0  -7   7    8.57    0.30
   0  -7   7    8.53    0.31
   0  -7   7    8.47    0.31
   0  -7   7    7.80    0.28
  -1   7  -7    3.25    0.14
  -1   7  -7    2.61    0.18
  -1   7  -7    3.29    0.17
  -1   7  -7    2.98    0.14
   1  -7   7    3.00    0.17
   1  -7   7    2.97    0.15
   1  -7   7    2.94    0.17
   1  -7   7    3.12    0.16
  -2   7  -7    2.31    0.12
  -2   7  -7    2.05    0.16
  -2   7  -7    2.14    0.16
   2  -7   7    2.42    0.14
   2  -7   7    2.42    0.12
   2  -7   7    1.88    0.15
   2  -7   7    2.25    0.13
   2  -7   7    1.79    0.16
  -3   7  -7    0.00    0.07
  -3   7  -7    0.22    0.07
   3  -7   7    0.01    0.07
   3  -7   7    0.09    0.05
   3  -7   7    0.16    0.06
   3  -7   7    0.12    0.05
   3  -7   7    0.08    0.07
  -4   7  -7    0.46    0.09
  -4   7  -7    0.44    0.10
   4  -7   7    0.40    0.07
   4  -7   7    0.42    0.05
   4  -7   7    0.51    0.10
  -5   7  -7    3.94    0.25
  -5   7  -7    4.29    0.23
   5  -7   7    4.47    0.21
   5  -7   7    4.31    0.25
  -6   7  -7    5.16    0.30
  -6   7  -7    6.03    0.27
   6  -7   7    5.20    0.30
   6  -7   7    5.62    0.25
  -7   7  -7   -0.05    0.09
   7  -7   7   -0.07    0.09
   7  -7   7   -0.03    0.08
  -8   7  -7    2.26    0.23
   8  -7   7    2.53    0.20
   8  -7   7    2.20    0.23
  -9   7  -7    2.94    0.27
   9  -7   7    2.92    0.27
   9  -7   7    3.08    0.23
   7   6  -7    9.28    0.40
  -7  -6   7    8.86    0.37
   6   6  -7    1.01    0.14
  -6  -6   7    1.10    0.14
   5   6  -7    1.51    0.16
  -5  -6   7    1.63    0.16
   4   6  -7   17.94    0.55
   4   6  -7   18.97    0.58
  -4  -6   7   17.75    0.54
  -4  -6   7   17.89    0.55
  -4  -6   7   18.37    0.54
   3   6  -7   -0.09    0.04
   3   6  -7    0.00    0.07
   3   6  -7   -0.01    0.04
  -3  -6   7   -0.05    0.04
  -3  -6   7   -0.02    0.02
  -3  -6   7    0.07    0.07
   2   6  -7   44.62    1.12
   2   6  -7   43.06    1.22
   2   6  -7   43.65    1.29
  -2  -6   7   43.78    1.29
  -2  -6   7   44.69    1.29
  -2  -6   7   43.75    1.12
   1   6  -7  129.52    3.17
   1   6  -7  128.54    3.69
   1   6  -7  128.53    3.40
   1   6  -7  127.32    3.39
  -1  -6   7  130.02    3.12
  -1  -6   7  129.66    3.69
  -1  -6   7  128.82    3.69
   0   6  -7   -0.14    0.07
   0   6  -7    0.07    0.05
   0   6  -7   -0.07    0.05
   0   6  -7    0.11    0.06
   0  -6   7   -0.09    0.05
   0  -6   7    0.06    0.06
   0  -6   7    0.15    0.06
   0  -6   7    0.16    0.06
  -1   6  -7    3.40    0.15
  -1   6  -7    3.55    0.14
  -1   6  -7    3.47    0.18
  -1   6  -7    2.99    0.17
   1  -6   7    3.46    0.18
   1  -6   7    3.39    0.14
   1  -6   7    3.50    0.18
   1  -6   7    3.58    0.16
  -2   6  -7   36.65    1.04
  -2   6  -7   36.85    0.96
  -2   6  -7   36.70    1.13
   2  -6   7   36.47    0.96
   2  -6   7   37.34    1.02
   2  -6   7   38.01    1.13
   2  -6   7   37.32    1.13
  -3   6  -7    1.06    0.11
  -3   6  -7    0.91    0.10
   3  -6   7    0.89    0.11
   3  -6   7    0.77    0.08
   3  -6   7    1.00    0.11
  -4   6  -7   -0.08    0.07
  -4   6  -7   -0.16    0.06
   4  -6   7   -0.08    0.07
   4  -6   7   -0.02    0.05
  -5   6  -7   13.33    0.51
  -5   6  -7   14.42    0.46
   5  -6   7   13.30    0.51
   5  -6   7   13.99    0.44
  -6   6  -7   -0.14    0.09
   6  -6   7   -0.04    0.09
   6  -6   7    0.07    0.07
  -7   6  -7   -0.07    0.09
   7  -6   7    0.05    0.10
   7  -6   7   -0.03    0.08
  -8   6  -7    0.02    0.11
   8  -6   7    0.03    0.09
   8  -6   7    0.10    0.12
  -9   6  -7    0.35    0.13
   9  -6   7    0.42    0.13
   9  -6   7    0.21    0.11
   8   5  -7    0.22    0.08
   8   5  -7    0.08    0.11
  -8  -5   7   -0.02    0.10
   7   5  -7    1.41    0.16
  -7  -5   7    1.32    0.15
   6   5  -7    0.02    0.09
  -6  -5   7   -0.18    0.08
   5   5  -7    0.46    0.07
   5   5  -7    0.40    0.10
  -5  -5   7    0.44    0.10
  -5  -5   7    0.34    0.06
   4   5  -7    1.69    0.11
   4   5  -7    1.75    0.16
   4   5  -7    1.62    0.11
  -4  -5   7    1.84    0.14
  -4  -5   7    1.43    0.11
   3   5  -7    6.14    0.26
   3   5  -7    5.93    0.21
   3   5  -7    5.77    0.23
   3   5  -7    5.97    0.23
  -3  -5   7    5.86    0.23
  -3  -5   7    6.38    0.24
  -3  -5   7    6.16    0.24
   2   5  -7   18.95    0.57
   2   5  -7   18.18    0.58
   2   5  -7   18.02    0.55
   2   5  -7   18.86    0.53
   2   5  -7   18.11    0.50
  -2  -5   7   17.31    0.58
  -2  -5   7   18.84    0.52
   1   5  -7   20.08    0.65
   1   5  -7   20.58    0.61
   1   5  -7   21.15    0.56
  -1  -5   7   20.39    0.65
  -1  -5   7   20.51    0.65
  -1  -5   7   21.07    0.56
   0   5  -7    5.97    0.23
   0   5  -7    5.20    0.22
   0   5  -7    5.55    0.20
   0   5  -7    5.40    0.19
   0  -5   7    5.31    0.19
   0  -5   7    5.70    0.23
   0  -5   7    5.27    0.20
   0  -5   7    5.55    0.23
  -1   5  -7    0.14    0.04
  -1   5  -7    0.13    0.06
  -1   5  -7    0.19    0.05
  -1   5  -7    0.14    0.07
   1  -5   7    0.06    0.05
   1  -5   7    0.09    0.05
   1  -5   7    0.20    0.07
   1  -5   7    0.17    0.07
  -2   5  -7   44.97    1.25
  -2   5  -7   45.83    1.37
  -2   5  -7   47.96    1.19
   2  -5   7   45.68    1.24
   2  -5   7   45.10    1.18
   2  -5   7   44.25    1.37
   2  -5   7   46.53    1.38
  -3   5  -7    4.07    0.20
  -3   5  -7    4.02    0.21
   3  -5   7    3.90    0.21
   3  -5   7    4.00    0.21
   3  -5   7    3.94    0.18
  -4   5  -7   35.18    1.12
  -4   5  -7   36.36    1.02
   4  -5   7   36.03    0.96
   4  -5   7   35.98    1.12
  -5   5  -7   50.05    1.38
  -5   5  -7   49.30    1.52
   5  -5   7   49.31    1.30
   5  -5   7   50.51    1.52
  -6   5  -7    0.21    0.09
   6  -5   7    0.30    0.10
   6  -5   7    0.28    0.09
  -7   5  -7    0.09    0.10
   7  -5   7    0.14    0.11
   7  -5   7    0.17    0.09
  -8   5  -7    0.74    0.14
   8  -5   7    0.59    0.12
   8  -5   7    0.63    0.14
  -9   5  -7    0.99    0.16
   9  -5   7    1.16    0.16
   8   4  -7    3.23    0.24
  -8  -4   7    3.05    0.22
   7   4  -7   14.78    0.51
  -7  -4   7   14.47    0.46
  -7  -4   7   14.19    0.48
   6   4  -7    7.21    0.31
  -6  -4   7    7.48    0.27
  -6  -4   7    7.01    0.29
   5   4  -7   13.39    0.40
   5   4  -7   14.02    0.48
   5   4  -7   14.25    0.46
  -5  -4   7   14.28    0.44
  -5  -4   7   14.30    0.46
  -5  -4   7   14.60    0.46
   4   4  -7   10.84    0.39
   4   4  -7   11.25    0.34
   4   4  -7   11.75    0.38
  -4  -4   7   11.11    0.36
  -4  -4   7   11.47    0.39
  -4  -4   7   11.58    0.38
   3   4  -7   90.53    2.40
   3   4  -7   83.80    2.59
   3   4  -7   90.61    2.24
   3   4  -7   91.08    2.40
   3   4  -7   90.54    2.27
  -3  -4   7   92.27    2.59
  -3  -4   7   88.74    2.59
  -3  -4   7   92.08    2.20
   2   4  -7    5.16    0.19
   2   4  -7    5.49    0.20
   2   4  -7    5.40    0.19
   2   4  -7    4.78    0.22
   2   4  -7    5.27    0.22
   2   4  -7    5.01    0.22
  -2  -4   7    5.39    0.20
  -2  -4   7    5.07    0.22
  -2  -4   7    5.45    0.22
   1   4  -7    5.41    0.19
   1   4  -7    5.27    0.22
   1   4  -7    5.65    0.23
   1   4  -7    5.45    0.22
   1   4  -7    5.12    0.20
  -1  -4   7    5.05    0.22
  -1  -4   7    5.61    0.23
   0   4  -7   41.45    1.21
   0   4  -7   39.85    1.21
   0   4  -7   39.67    1.11
   0   4  -7   40.20    1.04
   0   4  -7   40.12    1.06
   0  -4   7   42.23    1.21
   0  -4   7   40.31    1.21
   0  -4   7   39.52    1.08
  -1   4  -7    1.54    0.14
  -1   4  -7    1.69    0.11
  -1   4  -7    1.41    0.07
  -1   4  -7    1.81    0.14
  -1   4  -7    1.72    0.13
   1  -4   7    1.77    0.14
   1  -4   7    1.87    0.12
   1  -4   7    1.45    0.14
   1  -4   7    1.67    0.09
  -2   4  -7   10.49    0.35
  -2   4  -7   10.81    0.39
   2  -4   7   11.15    0.39
   2  -4   7   10.20    0.39
   2  -4   7   10.51    0.33
  -3   4  -7   19.05    0.66
  -3   4  -7   21.15    0.61
   3  -4   7   20.61    0.58
   3  -4   7   19.72    0.67
  -4   4  -7    0.07    0.11
   4  -4   7    0.28    0.09
   4  -4   7    0.18    0.11
  -5   4  -7    0.10    0.09
   5  -4   7    0.09    0.09
  -6   4  -7    0.04    0.09
   6  -4   7    0.01    0.08
   6  -4   7    0.00    0.09
  -7   4  -7    0.32    0.11
   7  -4   7    0.23    0.11
   7  -4   7    0.41    0.11
  -8   4  -7    0.16    0.10
   8  -4   7    0.22    0.10
   8  -4   7    0.40    0.11
   9   3  -7    0.24    0.11
  -9  -3   7    0.30    0.07
  -9  -3   7    0.34    0.11
   8   3  -7   10.48    0.42
  -8  -3   7   10.18    0.37
  -8  -3   7   11.31    0.39
   7   3  -7    0.47    0.10
  -7  -3   7    0.48    0.10
  -7  -3   7    0.48    0.08
   6   3  -7    4.58    0.17
   6   3  -7    4.82    0.21
   6   3  -7    4.60    0.24
  -6  -3   7    4.74    0.21
  -6  -3   7    4.85    0.21
  -6  -3   7    4.63    0.22
   5   3  -7   29.24    0.90
   5   3  -7   29.43    0.86
   5   3  -7   28.84    0.78
  -5  -3   7   30.89    0.90
  -5  -3   7   30.08    0.80
  -5  -3   7   29.97    0.91
   4   3  -7    3.49    0.18
   4   3  -7    4.26    0.21
   4   3  -7    3.94    0.20
   4   3  -7    4.05    0.16
   4   3  -7    4.72    0.19
  -4  -3   7    3.55    0.20
  -4  -3   7    4.22    0.19
  -4  -3   7    3.58    0.19
   3   3  -7   46.59    1.42
   3   3  -7   49.15    1.24
   3   3  -7   48.63    1.30
   3   3  -7   48.12    1.32
   3   3  -7   49.68    1.23
  -3  -3   7   47.06    1.42
  -3  -3   7   48.42    1.43
  -3  -3   7   48.39    1.21
   2   3  -7    9.54    0.30
   2   3  -7   10.24    0.31
   2   3  -7    9.96    0.30
   2   3  -7    9.92    0.31
   2   3  -7   10.28    0.35
   2   3  -7    9.78    0.33
   2   3  -7    9.85    0.35
  -2  -3   7    9.80    0.36
  -2  -3   7   10.18    0.35
   1   3  -7   49.40    1.26
   1   3  -7   45.99    1.44
   1   3  -7   48.35    1.33
   1   3  -7   49.68    1.24
   1   3  -7   49.55    1.25
   1   3  -7   51.14    1.46
  -1  -3   7   46.73    1.45
  -1  -3   7   50.91    1.46
  -1  -3   7   48.91    1.32
   0   3  -7    0.90    0.08
   0   3  -7    0.74    0.09
   0   3  -7    0.99    0.09
   0   3  -7    0.92    0.10
   0   3  -7    1.09    0.11
   0   3  -7    0.93    0.08
   0  -3   7    0.83    0.10
   0  -3   7    0.88    0.08
   0  -3   7    1.10    0.11
  -1   3  -7   35.00    1.11
  -1   3  -7   36.74    1.12
  -1   3  -7   36.27    1.01
  -1   3  -7   37.88    0.95
   1  -3   7   36.91    0.97
   1  -3   7   36.90    1.01
   1  -3   7   38.64    1.12
   1  -3   7   36.18    0.97
   1  -3   7   35.73    0.96
   1  -3   7   36.88    1.11
  -2   3  -7   23.99    0.65
  -2   3  -7   22.24    0.75
  -2   3  -7   24.04    0.69
  -2   3  -7   24.06    0.76
   2  -3   7   24.08    0.66
   2  -3   7   23.51    0.76
   2  -3   7   22.93    0.65
   2  -3   7   23.77    0.76
  -3   3  -7  183.40    5.25
  -3   3  -7  193.98    5.26
  -3   3  -7  178.69    4.78
   3  -3   7  183.67    4.52
   3  -3   7  176.34    5.25
   3  -3   7  183.17    4.57
  -4   3  -7    2.07    0.19
   4  -3   7    2.04    0.16
   4  -3   7    1.73    0.15
   4  -3   7    2.15    0.19
  -5   3  -7    0.14    0.09
   5  -3   7    0.08    0.08
   5  -3   7   -0.09    0.07
   5  -3   7    0.09    0.08
  -6   3  -7   10.58    0.43
   6  -3   7   10.38    0.42
   6  -3   7    9.88    0.37
   6  -3   7    9.95    0.36
  -7   3  -7   -0.05    0.09
   7  -3   7    0.01    0.09
   7  -3   7   -0.01    0.08
   7  -3   7    0.08    0.10
  -8   3  -7    0.07    0.10
  -8   3  -7   -0.21    0.10
   8  -3   7   -0.04    0.09
   9   2  -7    0.58    0.12
  -9  -2   7    0.46    0.11
  -9  -2   7    0.50    0.09
   8   2  -7    1.01    0.13
  -8  -2   7    1.13    0.11
  -8  -2   7    1.13    0.13
   7   2  -7    5.67    0.27
   7   2  -7    5.98    0.21
   7   2  -7    5.82    0.25
  -7  -2   7    5.85    0.25
  -7  -2   7    6.03    0.25
   6   2  -7    1.13    0.12
   6   2  -7    1.31    0.09
   6   2  -7    1.11    0.11
   6   2  -7    1.68    0.12
   6   2  -7    1.29    0.12
  -6  -2   7    1.29    0.12
  -6  -2   7    1.03    0.11
  -6  -2   7    1.27    0.13
   5   2  -7    3.27    0.13
   5   2  -7    2.89    0.18
   5   2  -7    3.39    0.15
   5   2  -7    3.13    0.19
  -5  -2   7    3.18    0.17
  -5  -2   7    2.74    0.18
  -5  -2   7    3.16    0.17
   4   2  -7   67.59    1.83
   4   2  -7   68.71    1.71
   4   2  -7   66.69    1.72
   4   2  -7   68.88    1.99
  -4  -2   7   69.75    1.99
  -4  -2   7   67.56    1.99
   3   2  -7   27.67    0.81
   3   2  -7   25.19    0.73
   3   2  -7   24.24    0.78
   3   2  -7   24.76    0.70
   3   2  -7   24.58    0.68
   3   2  -7   24.77    0.67
  -3  -2   7   24.69    0.79
  -3  -2   7   25.90    0.74
  -3  -2   7   26.07    0.78
   2   2  -7   33.96    0.95
   2   2  -7   32.76    1.03
   2   2  -7   34.05    0.89
   2   2  -7   34.43    0.90
   2   2  -7   35.41    1.04
   2   2  -7   33.75    0.91
   2   2  -7   34.16    0.90
  -2  -2   7   34.52    0.90
  -2  -2   7   35.18    1.04
  -2  -2   7   33.64    1.04
  -2  -2   7   35.00    0.95
   1   2  -7   18.49    0.52
   1   2  -7   18.42    0.51
   1   2  -7   18.20    0.54
   1   2  -7   18.88    0.52
   1   2  -7   17.91    0.60
   1   2  -7   18.50    0.60
  -1  -2   7   19.13    0.61
  -1  -2   7   19.23    0.60
  -1  -2   7   18.13    0.52
  -1  -2   7   18.18    0.54
   0   2  -7    0.92    0.10
   0   2  -7    1.36    0.10
   0   2  -7    1.11    0.11
   0   2  -7    1.35    0.11
   0   2  -7    1.16    0.13
   0   2  -7    1.09    0.11
   0  -2   7    1.22    0.10
   0  -2   7    0.99    0.11
   0  -2   7    1.12    0.13
   0  -2   7    1.38    0.12
  -1   2  -7    1.52    0.12
  -1   2  -7    1.26    0.14
  -1   2  -7    1.26    0.13
  -1   2  -7    1.45    0.12
   1  -2   7    1.47    0.14
   1  -2   7    1.35    0.12
   1  -2   7    1.49    0.12
   1  -2   7    1.36    0.14
   1  -2   7    1.44    0.11
  -2   2  -7   -0.17    0.09
  -2   2  -7    0.28    0.07
  -2   2  -7   -0.21    0.08
   2  -2   7    0.22    0.07
   2  -2   7    0.02    0.07
  -3   2  -7    1.52    0.16
  -3   2  -7    1.23    0.12
  -3   2  -7    1.86    0.18
   3  -2   7    1.65    0.18
   3  -2   7    1.30    0.12
   3  -2   7    1.66    0.16
  -4   2  -7    3.76    0.24
  -4   2  -7    4.06    0.23
   4  -2   7    3.81    0.21
   4  -2   7    3.90    0.23
   4  -2   7    3.83    0.21
  -5   2  -7    0.96    0.13
   5  -2   7    0.95    0.12
   5  -2   7    0.91    0.13
   5  -2   7    0.96    0.12
  -6   2  -7    0.20    0.10
   6  -2   7    0.23    0.10
   6  -2   7    0.29    0.09
   6  -2   7    0.22    0.10
  -7   2  -7    0.07    0.10
  -7   2  -7    0.03    0.11
   7  -2   7    0.21    0.09
   7  -2   7   -0.19    0.09
  10   1  -7    1.17    0.13
  10   1  -7    1.52    0.17
 -10  -1   7    1.16    0.13
 -10  -1   7    1.31    0.15
   9   1  -7    0.25    0.10
  -9  -1   7    0.38    0.09
  -9  -1   7    0.17    0.09
   8   1  -7    0.89    0.12
  -8  -1   7    1.14    0.12
  -8  -1   7    1.05    0.12
   7   1  -7    7.37    0.27
   7   1  -7    7.19    0.30
   7   1  -7    7.66    0.27
   7   1  -7    7.66    0.30
  -7  -1   7    7.74    0.29
  -7  -1   7    7.23    0.30
  -7  -1   7    7.48    0.30
   6   1  -7    1.97    0.16
   6   1  -7    1.44    0.15
   6   1  -7    2.28    0.14
   6   1  -7    2.07    0.10
  -6  -1   7    2.34    0.16
  -6  -1   7    1.92    0.15
  -6  -1   7    1.49    0.16
   5   1  -7    0.91    0.08
   5   1  -7    0.74    0.08
   5   1  -7    0.69    0.09
   5   1  -7    0.59    0.09
  -5  -1   7    0.56    0.09
  -5  -1   7    0.64    0.09
   4   1  -7    5.41    0.21
   4   1  -7    5.11    0.18
   4   1  -7    4.96    0.21
   4   1  -7    4.66    0.23
  -4  -1   7    4.66    0.23
  -4  -1   7    4.56    0.21
   3   1  -7    6.59    0.24
   3   1  -7    6.49    0.24
   3   1  -7    6.28    0.20
   3   1  -7    6.15    0.27
   3   1  -7    6.61    0.22
  -3  -1   7    6.20    0.26
  -3  -1   7    6.57    0.24
  -3  -1   7    6.36    0.27
  -3  -1   7    6.41    0.22
   2   1  -7   77.28    1.92
   2   1  -7   74.18    2.21
   2   1  -7   68.97    2.21
   2   1  -7   80.21    1.93
   2   1  -7   76.38    2.01
  -2  -1   7   75.90    1.92
  -2  -1   7   72.93    2.21
  -2  -1   7   79.95    2.22
  -2  -1   7   76.97    2.01
   1   1  -7   22.97    0.71
   1   1  -7   22.37    0.71
   1   1  -7   21.90    0.64
   1   1  -7   21.97    0.61
  -1  -1   7   22.25    0.61
  -1  -1   7   21.54    0.63
  -1  -1   7   23.78    0.71
  -1  -1   7   21.38    0.71
   0   1  -7    0.81    0.08
   0   1  -7    0.48    0.08
   0   1  -7    0.43    0.08
   0  -1   7    0.74    0.09
   0  -1   7    0.59    0.08
   0  -1   7    0.53    0.09
   0  -1   7    0.58    0.07
  -1   1  -7    0.08    0.04
  -1   1  -7   -0.16    0.06
  -1   1  -7   -0.09    0.06
  -1   1  -7   -0.04    0.05
   1  -1   7   -0.01    0.06
   1  -1   7   -0.01    0.05
   1  -1   7   -0.02    0.07
   1  -1   7   -0.09    0.05
  -2   1  -7    3.11    0.19
  -2   1  -7    3.14    0.13
  -2   1  -7    3.26    0.21
  -2   1  -7    3.25    0.18
   2  -1   7    3.14    0.18
   2  -1   7    3.23    0.18
   2  -1   7    3.57    0.21
   2  -1   7    3.42    0.12
  -3   1  -7    0.19    0.08
  -3   1  -7    0.13    0.08
   3  -1   7    0.21    0.08
   3  -1   7    0.19    0.09
   3  -1   7    0.16    0.08
  -4   1  -7    0.93    0.13
  -4   1  -7    1.16    0.13
   4  -1   7    0.99    0.12
   4  -1   7    0.93    0.13
   4  -1   7    0.95    0.12
  -5   1  -7    0.19    0.10
   5  -1   7    0.20    0.10
   5  -1   7    0.21    0.09
   5  -1   7    0.26    0.10
  -6   1  -7   -0.09    0.10
  -6   1  -7    0.11    0.10
   6  -1   7    0.08    0.09
   6  -1   7    0.01    0.09
  -7   1  -7   -0.19    0.09
  -7   1  -7   -0.12    0.11
   7  -1   7    0.09    0.10
   7  -1   7   -0.01    0.09
  10   0  -7    0.92    0.14
 -10   0   7    0.93    0.13
 -10   0   7    1.09    0.13
   9   0  -7    1.83    0.18
  -9   0   7    1.63    0.17
  -9   0   7    2.17    0.18
   8   0  -7    0.53    0.10
   8   0  -7    0.51    0.10
  -8   0   7    0.42    0.09
  -8   0   7    0.40    0.10
   7   0  -7    2.00    0.12
   7   0  -7    1.64    0.16
   7   0  -7    1.86    0.16
   7   0  -7    1.83    0.09
  -7   0   7    1.58    0.16
  -7   0   7    1.96    0.15
  -7   0   7    1.74    0.15
   6   0  -7   -0.02    0.06
   6   0  -7   -0.10    0.04
   6   0  -7   -0.02    0.07
  -6   0   7   -0.06    0.06
  -6   0   7   -0.04    0.07
   5   0  -7    0.01    0.04
   5   0  -7   -0.17    0.06
   5   0  -7    0.03    0.06
  -5   0   7   -0.10    0.06
  -5   0   7   -0.06    0.06
  -5   0   7    0.00    0.04
   4   0  -7   -0.03    0.07
   4   0  -7    0.07    0.06
   4   0  -7    0.11    0.05
  -4   0   7   -0.06    0.06
  -4   0   7   -0.03    0.06
  -4   0   7    0.05    0.05
   3   0  -7    1.72    0.15
   3   0  -7    2.11    0.13
   3   0  -7    1.73    0.11
  -3   0   7    1.80    0.14
  -3   0   7    1.83    0.12
  -3   0   7    1.76    0.16
  -3   0   7    1.73    0.13
  -3   0   7    1.92    0.12
   2   0  -7    7.91    0.32
   2   0  -7    8.05    0.31
   2   0  -7    7.86    0.27
   2   0  -7    7.83    0.26
  -2   0   7    7.96    0.31
  -2   0   7    8.14    0.27
  -2   0   7    8.01    0.32
  -2   0   7    8.02    0.27
  -2   0   7    7.99    0.27
   1   0  -7    8.45    0.32
   1   0  -7    7.84    0.27
   1   0  -7    8.37    0.32
  -1   0   7    8.02    0.27
  -1   0   7    7.77    0.31
  -1   0   7    7.87    0.27
  -1   0   7    7.69    0.28
   0   0  -7    0.30    0.06
   0   0  -7    0.34    0.08
   0   0  -7    0.25    0.08
   0   0   7    0.37    0.07
   0   0   7    0.36    0.07
   0   0   7    0.30    0.08
   0   0   7    0.30    0.06
  -1   0  -7   -0.05    0.06
  -1   0  -7    0.00    0.04
  -1   0  -7    0.00    0.05
  -1   0  -7   -0.06    0.07
   1   0   7   -0.07    0.07
   1   0   7   -0.08    0.06
   1   0   7    0.00    0.05
   1   0   7    0.04    0.06
  -2   0  -7    2.67    0.14
  -2   0  -7    3.02    0.20
  -2   0  -7    2.81    0.18
   2   0   7    2.93    0.17
   2   0   7    2.78    0.18
   2   0   7    2.64    0.20
   2   0   7    2.58    0.12
  -3   0  -7    1.34    0.14
  -3   0  -7    1.67    0.17
   3   0   7    1.53    0.18
   3   0   7    1.40    0.13
   3   0   7    1.57    0.11
   3   0   7    1.27    0.13
  -4   0  -7    6.70    0.33
  -4   0  -7    6.89    0.33
   4   0   7    7.07    0.30
   4   0   7    6.84    0.29
   4   0   7    6.94    0.33
  -5   0  -7    2.56    0.21
  -5   0  -7    2.16    0.23
   5   0   7    2.35    0.20
   5   0   7    2.64    0.20
  -6   0  -7   -0.02    0.09
  -6   0  -7    0.06    0.12
   6   0   7    0.16    0.10
   6   0   7   -0.15    0.09
  11  -1  -7    0.34    0.11
  11  -1  -7    0.48    0.10
 -11   1   7    0.40    0.11
 -11   1   7    0.40    0.11
  10  -1  -7    0.33    0.10
 -10   1   7    0.40    0.11
 -10   1   7    0.31    0.11
   9  -1  -7    1.72    0.18
   9  -1  -7    1.66    0.18
  -9   1   7    1.93    0.17
  -9   1   7    1.64    0.18
   8  -1  -7    7.91    0.34
   8  -1  -7    8.20    0.32
  -8   1   7    8.17    0.34
  -8   1   7    7.80    0.30
  -8   1   7    7.74    0.34
   7  -1  -7    0.13    0.07
   7  -1  -7    0.14    0.05
   7  -1  -7   -0.03    0.08
   7  -1  -7    0.16    0.05
  -7   1   7   -0.04    0.07
  -7   1   7    0.10    0.08
   6  -1  -7   22.79    0.67
   6  -1  -7   23.65    0.75
   6  -1  -7   22.90    0.62
  -6   1   7   22.60    0.62
  -6   1   7   23.27    0.75
  -6   1   7   23.42    0.63
  -6   1   7   22.86    0.74
   5  -1  -7   18.38    0.55
   5  -1  -7   18.51    0.52
   5  -1  -7   19.08    0.63
  -5   1   7   18.91    0.53
  -5   1   7   18.62    0.52
  -5   1   7   19.47    0.62
  -5   1   7   18.15    0.62
   4  -1  -7    0.32    0.06
   4  -1  -7    0.04    0.07
   4  -1  -7    0.05    0.05
  -4   1   7    0.06    0.06
  -4   1   7    0.10    0.07
  -4   1   7    0.04    0.06
  -4   1   7    0.10    0.06
   3  -1  -7   14.17    0.43
   3  -1  -7   14.53    0.50
  -3   1   7   14.32    0.42
  -3   1   7   14.03    0.42
  -3   1   7   14.46    0.50
  -3   1   7   14.11    0.42
   2  -1  -7    2.31    0.13
   2  -1  -7    2.46    0.17
   2  -1  -7    2.18    0.16
  -2   1   7    1.91    0.14
  -2   1   7    1.93    0.12
  -2   1   7    2.16    0.16
  -2   1   7    2.12    0.15
   1  -1  -7    1.04    0.11
   1  -1  -7    1.13    0.12
   1  -1  -7    1.07    0.10
  -1   1   7    0.94    0.10
  -1   1   7    1.06    0.09
  -1   1   7    1.09    0.10
  -1   1   7    1.20    0.12
   0  -1  -7    8.75    0.35
   0  -1  -7    8.27    0.28
   0  -1  -7    8.45    0.29
   0  -1  -7    8.41    0.34
   0   1   7    8.68    0.30
   0   1   7    8.82    0.35
   0   1   7    8.74    0.31
   0   1   7    8.43    0.28
  -1  -1  -7    3.79    0.21
  -1  -1  -7    3.51    0.22
  -1  -1  -7    4.03    0.18
   1   1   7    3.76    0.19
   1   1   7    3.79    0.17
   1   1   7    3.91    0.21
   1   1   7    3.79    0.23
  -2  -1  -7    0.69    0.09
  -2  -1  -7    0.72    0.11
  -2  -1  -7    0.66    0.11
   2   1   7    0.60    0.10
   2   1   7    0.55    0.10
   2   1   7    0.51    0.07
   2   1   7    0.68    0.10
   2   1   7    0.63    0.12
  -3  -1  -7    3.58    0.24
  -3  -1  -7    2.77    0.23
   3   1   7    3.40    0.19
   3   1   7    3.16    0.20
   3   1   7    3.37    0.22
   3   1   7    3.21    0.23
  -4  -1  -7    0.40    0.12
  -4  -1  -7    0.39    0.11
   4   1   7    0.52    0.10
   4   1   7    0.41    0.11
  -5  -1  -7    0.19    0.13
  -5  -1  -7    0.10    0.10
   5   1   7    0.14    0.11
   5   1   7    0.02    0.09
  11  -2  -7    0.15    0.09
  11  -2  -7    0.27    0.10
 -11   2   7    0.19    0.10
 -11   2   7    0.19    0.11
  10  -2  -7    0.00    0.08
  10  -2  -7    0.02    0.10
 -10   2   7    0.06    0.09
 -10   2   7   -0.06    0.09
   9  -2  -7    0.56    0.10
   9  -2  -7    0.40    0.11
  -9   2   7    0.50    0.11
  -9   2   7    0.52    0.10
   8  -2  -7    1.65    0.18
   8  -2  -7    1.74    0.15
  -8   2   7    1.70    0.15
  -8   2   7    1.66    0.18
   7  -2  -7    1.12    0.10
   7  -2  -7    1.05    0.13
   7  -2  -7    1.27    0.13
  -7   2   7    1.30    0.13
  -7   2   7    1.19    0.10
  -7   2   7    1.10    0.13
   6  -2  -7    6.92    0.26
   6  -2  -7    6.91    0.24
   6  -2  -7    7.04    0.32
  -6   2   7    7.24    0.25
  -6   2   7    6.93    0.26
  -6   2   7    7.84    0.33
   5  -2  -7   19.85    0.66
   5  -2  -7   19.58    0.57
   5  -2  -7   18.72    0.54
  -5   2   7   19.28    0.66
  -5   2   7   20.22    0.56
  -5   2   7   19.41    0.55
   4  -2  -7    1.81    0.12
   4  -2  -7    1.63    0.16
  -4   2   7    1.75    0.14
  -4   2   7    1.72    0.16
  -4   2   7    1.46    0.13
   3  -2  -7    8.90    0.26
   3  -2  -7    9.11    0.29
   3  -2  -7    9.17    0.36
  -3   2   7    9.51    0.37
  -3   2   7    8.68    0.29
  -3   2   7    9.65    0.32
  -3   2   7    9.71    0.32
   2  -2  -7   16.62    0.56
   2  -2  -7   17.33    0.58
   2  -2  -7   15.87    0.47
  -2   2   7   16.24    0.49
  -2   2   7   16.30    0.48
  -2   2   7   15.62    0.56
  -2   2   7   15.79    0.47
   1  -2  -7    0.51    0.10
   1  -2  -7    0.35    0.06
   1  -2  -7    0.44    0.10
  -1   2   7    0.65    0.11
  -1   2   7    0.47    0.09
  -1   2   7    0.38    0.08
  -1   2   7    0.43    0.06
   0  -2  -7    3.52    0.21
   0  -2  -7    3.40    0.18
   0  -2  -7    3.36    0.21
   0   2   7    3.28    0.22
   0   2   7    3.09    0.15
   0   2   7    3.42    0.20
   0   2   7    3.50    0.19
  -1  -2  -7   16.07    0.56
  -1  -2  -7   16.43    0.57
  -1  -2  -7   16.93    0.51
  -1  -2  -7   16.33    0.58
   1   2   7   16.21    0.52
   1   2   7   16.68    0.58
   1   2   7   16.19    0.49
   1   2   7   15.57    0.49
  -2  -2  -7   10.05    0.41
  -2  -2  -7   10.83    0.36
  -2  -2  -7   10.43    0.42
   2   2   7   10.25    0.38
   2   2   7   10.13    0.41
   2   2   7   10.12    0.35
  -3  -2  -7    8.12    0.36
  -3  -2  -7    8.55    0.38
   3   2   7    8.32    0.31
   3   2   7    7.82    0.34
  -4  -2  -7    1.76    0.20
  -4  -2  -7    1.57    0.19
   4   2   7    1.49    0.16
   4   2   7    1.98    0.18
  11  -3  -7    0.80    0.13
  11  -3  -7    0.68    0.11
 -11   3   7    0.62    0.14
 -11   3   7    0.79    0.12
  10  -3  -7    1.49    0.15
  10  -3  -7    1.64    0.17
 -10   3   7    1.97    0.17
 -10   3   7    1.48    0.17
   9  -3  -7    0.15    0.08
   9  -3  -7    0.08    0.10
  -9   3   7    0.09    0.07
  -9   3   7    0.10    0.08
  -9   3   7    0.01    0.10
   8  -3  -7    4.56    0.27
   8  -3  -7    4.31    0.21
  -8   3   7    4.40    0.17
  -8   3   7    4.97    0.28
  -8   3   7    4.38    0.21
   7  -3  -7    0.27    0.06
   7  -3  -7    0.15    0.06
   7  -3  -7    0.17    0.10
  -7   3   7    0.07    0.06
  -7   3   7    0.20    0.08
  -7   3   7    0.29    0.10
   6  -3  -7    5.76    0.29
   6  -3  -7    5.86    0.22
  -6   3   7    5.78    0.29
  -6   3   7    5.84    0.25
  -6   3   7    5.90    0.23
   5  -3  -7    0.46    0.06
   5  -3  -7    0.36    0.10
  -5   3   7    0.28    0.08
  -5   3   7    0.19    0.09
  -5   3   7    0.50    0.11
   4  -3  -7    5.94    0.21
   4  -3  -7    6.18    0.21
   4  -3  -7    6.42    0.29
  -4   3   7    5.89    0.25
  -4   3   7    6.30    0.29
  -4   3   7    6.13    0.25
   3  -3  -7    5.45    0.26
   3  -3  -7    4.60    0.18
   3  -3  -7    4.85    0.17
  -3   3   7    4.66    0.18
  -3   3   7    5.34    0.23
  -3   3   7    4.72    0.26
  -3   3   7    5.15    0.23
   2  -3  -7    2.74    0.13
   2  -3  -7    3.28    0.21
   2  -3  -7    3.22    0.20
  -2   3   7    3.02    0.13
  -2   3   7    3.40    0.22
  -2   3   7    2.83    0.19
  -2   3   7    3.02    0.18
   1  -3  -7    0.55    0.11
   1  -3  -7    0.57    0.09
   1  -3  -7    0.47    0.10
   1  -3  -7    0.55    0.11
  -1   3   7    0.72    0.11
  -1   3   7    0.46    0.06
  -1   3   7    0.61    0.11
  -1   3   7    0.64    0.10
   0  -3  -7    0.56    0.10
   0  -3  -7    0.59    0.11
   0  -3  -7    0.44    0.11
   0  -3  -7    0.47    0.11
   0   3   7    0.67    0.11
   0   3   7    0.40    0.12
   0   3   7    0.60    0.10
  -1  -3  -7    0.04    0.10
  -1  -3  -7   -0.05    0.09
  -1  -3  -7    0.16    0.08
   1   3   7    0.00    0.10
   1   3   7    0.10    0.09
   1   3   7    0.14    0.08
  -2  -3  -7    0.35    0.13
  -2  -3  -7    0.15    0.11
  -2  -3  -7    0.39    0.10
   2   3   7    0.33    0.10
   2   3   7    0.17    0.11
  -3  -3  -7    0.11    0.12
  -3  -3  -7    0.06    0.09
   3   3   7   -0.03    0.08
   3   3   7   -0.04    0.10
  11  -4  -7    0.02    0.11
  11  -4  -7   -0.07    0.08
  11  -4  -7   -0.14    0.08
 -11   4   7    0.09    0.12
 -11   4   7    0.21    0.10
  10  -4  -7   -0.02    0.07
  10  -4  -7   -0.03    0.10
 -10   4   7   -0.06    0.10
 -10   4   7   -0.07    0.07
 -10   4   7   -0.10    0.08
   9  -4  -7    4.95    0.23
   9  -4  -7    4.80    0.30
  -9   4   7    4.68    0.23
  -9   4   7    4.62    0.30
   8  -4  -7    5.34    0.23
   8  -4  -7    5.88    0.32
  -8   4   7    6.17    0.32
  -8   4   7    5.69    0.22
  -8   4   7    5.62    0.25
   7  -4  -7    2.82    0.23
   7  -4  -7    2.97    0.15
  -7   4   7    2.76    0.16
  -7   4   7    2.57    0.23
  -7   4   7    3.05    0.19
   6  -4  -7    0.86    0.08
   6  -4  -7    0.62    0.12
   6  -4  -7    0.85    0.08
  -6   4   7    0.86    0.10
  -6   4   7    0.74    0.14
  -6   4   7    0.73    0.11
   5  -4  -7    2.18    0.15
   5  -4  -7    2.44    0.14
   5  -4  -7    2.46    0.21
   5  -4  -7    2.47    0.12
  -5   4   7    2.70    0.22
  -5   4   7    2.38    0.19
  -5   4   7    2.09    0.17
   4  -4  -7    0.07    0.04
   4  -4  -7    0.16    0.07
   4  -4  -7    0.19    0.10
   4  -4  -7    0.14    0.05
  -4   4   7    0.13    0.08
  -4   4   7    0.16    0.08
  -4   4   7    0.03    0.09
   3  -4  -7    0.02    0.08
   3  -4  -7    0.22    0.05
   3  -4  -7    0.18    0.10
  -3   4   7    0.04    0.09
  -3   4   7    0.15    0.09
  -3   4   7    0.22    0.10
   2  -4  -7    2.96    0.21
   2  -4  -7    3.19    0.22
  -2   4   7    3.44    0.21
  -2   4   7    3.07    0.23
  -2   4   7    2.85    0.20
   1  -4  -7    0.20    0.10
   1  -4  -7    0.23    0.09
   1  -4  -7    0.18    0.10
  -1   4   7    0.33    0.09
  -1   4   7    0.16    0.10
  -1   4   7    0.03    0.08
   0  -4  -7    0.84    0.12
   0  -4  -7    0.83    0.14
   0  -4  -7    0.81    0.13
   0   4   7    0.86    0.13
   0   4   7    0.95    0.12
   0   4   7    0.73    0.13
  -1  -4  -7    0.35    0.13
  -1  -4  -7    0.48    0.11
  -1  -4  -7    0.32    0.11
   1   4   7    0.33    0.10
   1   4   7    0.51    0.12
  -2  -4  -7    0.23    0.10
  -2  -4  -7    0.38    0.14
   2   4   7    0.17    0.10
   2   4   7    0.25    0.12
  11  -5  -7    0.27    0.10
  11  -5  -7    0.41    0.14
  11  -5  -7    0.18    0.09
 -11   5   7    0.21    0.10
 -11   5   7    0.35    0.09
  10  -5  -7    0.03    0.11
  10  -5  -7    0.23    0.08
 -10   5   7    0.04    0.08
 -10   5   7   -0.02    0.11
   9  -5  -7    0.20    0.12
   9  -5  -7    0.24    0.07
  -9   5   7    0.30    0.09
  -9   5   7    0.16    0.12
   8  -5  -7    0.12    0.06
   8  -5  -7    0.08    0.11
  -8   5   7    0.14    0.09
  -8   5   7    0.13    0.11
  -8   5   7    0.15    0.07
   7  -5  -7    0.17    0.05
   7  -5  -7   -0.01    0.10
  -7   5   7    0.03    0.09
  -7   5   7    0.11    0.10
  -7   5   7    0.04    0.07
   6  -5  -7    0.11    0.07
   6  -5  -7    0.02    0.10
  -6   5   7    0.13    0.11
  -6   5   7    0.12    0.09
  -6   5   7    0.01    0.09
   5  -5  -7   -0.17    0.10
   5  -5  -7    0.23    0.06
   5  -5  -7    0.22    0.08
  -5   5   7    0.14    0.11
  -5   5   7    0.01    0.08
  -5   5   7    0.14    0.09
   4  -5  -7    0.20    0.08
   4  -5  -7    0.19    0.11
   4  -5  -7    0.18    0.06
  -4   5   7    0.33    0.11
  -4   5   7    0.19    0.09
  -4   5   7    0.26    0.10
   3  -5  -7    1.00    0.13
   3  -5  -7    1.19    0.15
  -3   5   7    0.95    0.13
  -3   5   7    1.01    0.13
  -3   5   7    0.90    0.14
   2  -5  -7    2.16    0.21
   2  -5  -7    2.16    0.20
   2  -5  -7    2.25    0.21
  -2   5   7    2.12    0.22
  -2   5   7    2.29    0.21
  -2   5   7    2.18    0.20
   1  -5  -7    1.31    0.16
   1  -5  -7    1.05    0.14
   1  -5  -7    1.12    0.15
  -1   5   7    1.24    0.14
  -1   5   7    0.99    0.14
   0  -5  -7    0.22    0.10
   0  -5  -7    0.30    0.11
   0  -5  -7    0.41    0.14
   0   5   7    0.34    0.12
   0   5   7    0.29    0.10
  -1  -5  -7    0.45    0.13
  -1  -5  -7    0.48    0.12
  -1  -5  -7    0.47    0.15
   1   5   7    0.47    0.13
   1   5   7    0.57    0.12
  10  -6  -7    0.24    0.13
  10  -6  -7    0.12    0.07
 -10   6   7   -0.08    0.08
 -10   6   7    0.02    0.12
   9  -6  -7   -0.10    0.11
  -9   6   7   -0.03    0.12
  -9   6   7    0.05    0.09
  -9   6   7   -0.01    0.07
   8  -6  -7    0.67    0.14
  -8   6   7    0.77    0.11
  -8   6   7    0.79    0.12
  -8   6   7    0.70    0.15
   7  -6  -7    1.40    0.18
  -7   6   7    1.75    0.15
  -7   6   7    1.64    0.19
  -7   6   7    1.49    0.16
   6  -6  -7    4.39    0.30
   6  -6  -7    4.41    0.22
  -6   6   7    4.66    0.24
  -6   6   7    4.47    0.30
  -6   6   7    4.43    0.26
   5  -6  -7    0.39    0.13
   5  -6  -7    0.38    0.08
   5  -6  -7    0.42    0.09
  -5   6   7    0.34    0.12
  -5   6   7    0.27    0.10
  -5   6   7    0.53    0.11
   4  -6  -7    1.89    0.22
   4  -6  -7    1.73    0.14
   4  -6  -7    1.86    0.18
  -4   6   7    1.46    0.15
  -4   6   7    1.46    0.15
  -4   6   7    1.59    0.18
   3  -6  -7   -0.01    0.10
   3  -6  -7    0.04    0.10
   3  -6  -7   -0.01    0.10
  -3   6   7    0.04    0.11
  -3   6   7    0.03    0.09
  -3   6   7    0.10    0.10
   2  -6  -7    0.67    0.13
   2  -6  -7    0.60    0.13
   2  -6  -7    0.74    0.13
  -2   6   7    0.51    0.13
  -2   6   7    0.58    0.12
   1  -6  -7    0.21    0.11
   1  -6  -7   -0.05    0.12
   1  -6  -7    0.03    0.10
  -1   6   7   -0.03    0.11
  -1   6   7   -0.11    0.09
   9  -7  -7    0.86    0.17
  -9   7   7    0.86    0.11
  -9   7   7    0.92    0.17
  -9   7   7    0.97    0.14
   8  -7  -7    0.09    0.12
  -8   7   7    0.03    0.12
  -8   7   7    0.08    0.10
  -8   7   7    0.08    0.09
   7  -7  -7    0.89    0.16
   7  -7  -7    0.96    0.12
  -7   7   7    1.02    0.14
  -7   7   7    0.93    0.13
  -7   7   7    1.07    0.17
   6  -7  -7   -0.01    0.11
  -6   7   7    0.15    0.10
  -6   7   7   -0.02    0.11
  -6   7   7    0.18    0.10
   5  -7  -7    1.31    0.17
  -5   7   7    2.22    0.20
  -5   7   7    1.52    0.17
  -5   7   7    1.56    0.19
   4  -7  -7    0.43    0.13
   4  -7  -7    0.18    0.12
   4  -7  -7    0.33    0.11
  -4   7   7    0.38    0.12
  -4   7   7    0.30    0.12
   3  -7  -7    0.02    0.10
   3  -7  -7   -0.08    0.10
   3  -7  -7    0.12    0.11
  -3   7   7    0.07    0.10
  -3   7   7    0.05    0.10
  -2  12  -8    0.07    0.09
   2 -12   8   -0.02    0.09
   2 -12   8    0.07    0.07
  -3  12  -8    1.95    0.19
   3 -12   8    1.72    0.17
   3 -12   8    1.49    0.17
  -4  12  -8    1.85    0.19
   4 -12   8    1.32    0.16
   4 -12   8    1.70    0.19
  -5  12  -8    0.27    0.11
   5 -12   8    0.33    0.11
   5 -12   8    0.28    0.10
  -6  12  -8    0.62    0.12
   6 -12   8    0.67    0.14
   6 -12   8    0.93    0.14
  -7  12  -8    0.00    0.12
  -7  12  -8    0.02    0.09
   7 -12   8   -0.05    0.09
   1  11  -8    2.96    0.24
   0  11  -8   -0.16    0.09
   0 -11   8    0.02    0.06
  -1  11  -8    0.38    0.11
   1 -11   8    0.54    0.12
   1 -11   8    0.46    0.08
  -2  11  -8    1.77    0.19
   2 -11   8    1.76    0.19
   2 -11   8    1.58    0.16
  -3  11  -8    1.37    0.14
   3 -11   8    1.24    0.14
   3 -11   8    1.41    0.15
  -4  11  -8    0.13    0.09
   4 -11   8    0.09    0.06
   4 -11   8    0.11    0.09
   4 -11   8    0.05    0.09
  -5  11  -8   -0.06    0.09
  -5  11  -8    0.21    0.10
   5 -11   8    0.06    0.10
   5 -11   8    0.16    0.09
   5 -11   8    0.14    0.07
  -6  11  -8    0.35    0.12
  -6  11  -8    0.25    0.11
   6 -11   8    0.25    0.11
   6 -11   8    0.47    0.11
   6 -11   8    0.29    0.08
  -7  11  -8    0.37    0.13
  -7  11  -8    0.24    0.10
   7 -11   8    0.30    0.09
   7 -11   8    0.20    0.12
  -8  11  -8    0.25    0.13
   8 -11   8    0.21    0.09
   8 -11   8    0.15    0.13
   2  10  -8    0.97    0.14
   1  10  -8    0.01    0.10
  -1 -10   8    0.08    0.05
  -1 -10   8    0.14    0.08
   0  10  -8    0.01    0.08
   0 -10   8    0.13    0.06
   0 -10   8    0.02    0.07
  -1  10  -8    0.11    0.09
   1 -10   8    0.05    0.07
   1 -10   8    0.07    0.08
   1 -10   8    0.01    0.07
  -2  10  -8    0.02    0.08
   2 -10   8    0.05    0.08
   2 -10   8   -0.04    0.07
   2 -10   8    0.00    0.06
  -3  10  -8    0.61    0.11
  -3  10  -8    0.52    0.11
   3 -10   8    0.63    0.11
   3 -10   8    0.57    0.11
   3 -10   8    0.56    0.07
  -4  10  -8    1.98    0.19
  -4  10  -8    2.14    0.19
   4 -10   8    2.34    0.19
   4 -10   8    2.14    0.21
   4 -10   8    2.02    0.14
  -5  10  -8    0.36    0.11
  -5  10  -8    0.43    0.11
   5 -10   8    0.34    0.11
   5 -10   8    0.38    0.08
   5 -10   8    0.37    0.10
  -6  10  -8    0.54    0.11
  -6  10  -8    0.43    0.12
   6 -10   8    0.34    0.09
   6 -10   8    0.29    0.11
  -7  10  -8    0.09    0.11
  -7  10  -8    0.13    0.09
   7 -10   8    0.02    0.08
   7 -10   8    0.04    0.11
  -8  10  -8    0.49    0.14
   8 -10   8    0.55    0.15
   8 -10   8    0.52    0.11
   4   9  -8    0.10    0.11
  -4  -9   8    0.18    0.10
   3   9  -8    8.98    0.37
  -3  -9   8    7.83    0.34
   2   9  -8    5.64    0.29
  -2  -9   8    5.64    0.26
  -2  -9   8    5.67    0.21
   1   9  -8    0.86    0.13
  -1  -9   8    0.98    0.11
  -1  -9   8    0.97    0.12
   0   9  -8    1.88    0.18
   0  -9   8    1.44    0.13
   0  -9   8    1.40    0.14
  -1   9  -8   10.32    0.38
  -1   9  -8   10.66    0.38
   1  -9   8    9.79    0.37
   1  -9   8    9.79    0.38
   1  -9   8   10.29    0.33
  -2   9  -8    0.55    0.10
  -2   9  -8    0.44    0.07
  -2   9  -8    0.42    0.10
   2  -9   8    0.46    0.09
   2  -9   8    0.47    0.07
   2  -9   8    0.35    0.09
  -3   9  -8    0.07    0.09
  -3   9  -8   -0.01    0.08
   3  -9   8    0.04    0.08
   3  -9   8    0.00    0.05
   3  -9   8    0.07    0.08
   3  -9   8    0.07    0.08
   3  -9   8    0.08    0.06
  -4   9  -8    8.26    0.33
  -4   9  -8    8.10    0.36
   4  -9   8    8.00    0.35
   4  -9   8    7.90    0.29
   4  -9   8    8.36    0.32
   4  -9   8    7.97    0.24
  -5   9  -8   -0.02    0.09
  -5   9  -8    0.04    0.09
   5  -9   8   -0.10    0.08
   5  -9   8   -0.05    0.07
   5  -9   8   -0.04    0.06
  -6   9  -8    3.44    0.23
  -6   9  -8    3.52    0.26
   6  -9   8    3.26    0.20
   6  -9   8    3.60    0.26
  -7   9  -8    2.98    0.26
   7  -9   8    3.00    0.21
   7  -9   8    3.16    0.26
  -8   9  -8    0.23    0.13
   8  -9   8    0.18    0.12
   8  -9   8    0.15    0.09
   5   8  -8    0.16    0.12
  -5  -8   8    0.15    0.11
   4   8  -8    0.92    0.14
  -4  -8   8    1.00    0.14
   3   8  -8    0.09    0.10
  -3  -8   8    0.05    0.09
   2   8  -8    0.11    0.09
  -2  -8   8    0.25    0.09
  -2  -8   8    0.16    0.06
   1   8  -8    0.43    0.10
  -1  -8   8    0.51    0.08
  -1  -8   8    0.65    0.10
   0   8  -8    4.06    0.22
   0   8  -8    4.15    0.16
   0   8  -8    4.10    0.20
   0  -8   8    4.14    0.21
   0  -8   8    4.15    0.20
   0  -8   8    4.28    0.19
   0  -8   8    4.07    0.21
  -1   8  -8    0.29    0.06
  -1   8  -8    0.37    0.08
  -1   8  -8    0.37    0.09
   1  -8   8    0.26    0.08
   1  -8   8    0.48    0.07
   1  -8   8    0.21    0.08
   1  -8   8    0.44    0.08
  -2   8  -8    0.10    0.08
  -2   8  -8    0.11    0.08
   2  -8   8   -0.02    0.07
   2  -8   8    0.12    0.06
   2  -8   8   -0.14    0.05
   2  -8   8    0.09    0.08
   2  -8   8    0.06    0.07
  -3   8  -8   15.96    0.57
  -3   8  -8   16.66    0.53
   3  -8   8   15.42    0.57
   3  -8   8   15.94    0.44
   3  -8   8   16.39    0.51
   3  -8   8   17.18    0.58
   3  -8   8   16.36    0.48
  -4   8  -8   19.33    0.64
  -4   8  -8   18.57    0.59
   4  -8   8   18.77    0.64
   4  -8   8   18.11    0.48
   4  -8   8   17.69    0.57
   4  -8   8   18.04    0.54
  -5   8  -8    3.41    0.23
  -5   8  -8    3.33    0.22
   5  -8   8    3.43    0.19
   5  -8   8    3.45    0.23
   5  -8   8    3.39    0.13
  -6   8  -8    1.09    0.15
  -6   8  -8    0.97    0.13
   6  -8   8    1.00    0.15
   6  -8   8    1.00    0.12
  -7   8  -8    4.06    0.28
   7  -8   8    3.57    0.26
   7  -8   8    3.50    0.23
  -8   8  -8    1.79    0.20
   8  -8   8    1.54    0.16
   8  -8   8    1.85    0.20
  -9   8  -8    0.93    0.18
   9  -8   8    0.71    0.16
   6   7  -8    4.44    0.29
  -6  -7   8    4.96    0.28
   5   7  -8    3.55    0.25
  -5  -7   8    3.47    0.23
   4   7  -8    2.69    0.21
  -4  -7   8    2.41    0.20
   3   7  -8   22.52    0.71
  -3  -7   8   23.29    0.70
  -3  -7   8   23.09    0.65
   2   7  -8    0.16    0.05
   2   7  -8    0.15    0.09
   2   7  -8    0.19    0.06
  -2  -7   8    0.12    0.08
  -2  -7   8    0.13    0.06
  -2  -7   8    0.28    0.07
   1   7  -8    7.91    0.26
   1   7  -8    8.47    0.32
   1   7  -8    8.08    0.31
  -1  -7   8    8.09    0.31
  -1  -7   8    8.06    0.28
  -1  -7   8    8.48    0.31
   0   7  -8   12.93    0.39
   0   7  -8   11.95    0.36
   0   7  -8   12.80    0.43
   0   7  -8   12.68    0.44
   0  -7   8   12.74    0.43
   0  -7   8   12.37    0.44
   0  -7   8   12.57    0.38
   0  -7   8   12.17    0.40
  -1   7  -8    3.14    0.15
  -1   7  -8    2.72    0.18
  -1   7  -8    2.96    0.18
  -1   7  -8    2.90    0.13
   1  -7   8    3.22    0.18
   1  -7   8    3.12    0.15
   1  -7   8    2.90    0.16
   1  -7   8    3.10    0.18
  -2   7  -8    0.15    0.08
  -2   7  -8   -0.05    0.07
   2  -7   8    0.10    0.05
   2  -7   8    0.04    0.07
   2  -7   8    0.04    0.06
   2  -7   8   -0.06    0.07
   2  -7   8    0.10    0.06
  -3   7  -8    0.42    0.09
  -3   7  -8    0.32    0.09
   3  -7   8    0.26    0.09
   3  -7   8    0.45    0.08
   3  -7   8    0.39    0.07
   3  -7   8    0.31    0.06
  -4   7  -8    5.98    0.29
  -4   7  -8    5.51    0.26
   4  -7   8    5.92    0.24
   4  -7   8    6.12    0.29
  -5   7  -8    0.06    0.08
  -5   7  -8    0.03    0.10
   5  -7   8    0.11    0.10
   5  -7   8    0.18    0.08
  -6   7  -8    6.69    0.30
  -6   7  -8    6.95    0.34
   6  -7   8    6.36    0.28
   6  -7   8    6.18    0.33
  -7   7  -8    0.93    0.15
   7  -7   8    0.71    0.14
   7  -7   8    0.91    0.13
  -8   7  -8    0.03    0.12
   8  -7   8    0.14    0.12
   8  -7   8    0.02    0.10
   7   6  -8    2.88    0.25
  -7  -6   8    2.87    0.24
   6   6  -8    0.09    0.10
  -6  -6   8    0.25    0.10
   5   6  -8   -0.07    0.08
  -5  -6   8   -0.09    0.04
  -5  -6   8   -0.05    0.08
   4   6  -8    3.64    0.22
  -4  -6   8    4.08    0.22
  -4  -6   8    3.46    0.17
   3   6  -8    2.98    0.19
   3   6  -8    2.64    0.14
   3   6  -8    2.56    0.15
  -3  -6   8    2.85    0.17
  -3  -6   8    2.49    0.15
  -3  -6   8    2.60    0.15
   2   6  -8   16.05    0.51
   2   6  -8   15.33    0.44
   2   6  -8   15.79    0.51
  -2  -6   8   15.52    0.46
  -2  -6   8   15.43    0.51
  -2  -6   8   15.29    0.51
   1   6  -8   29.92    0.92
   1   6  -8   29.53    0.79
   1   6  -8   29.50    0.86
   1   6  -8   30.00    0.84
  -1  -6   8   28.93    0.92
  -1  -6   8   31.62    0.92
  -1  -6   8   29.78    0.79
   0   6  -8    1.17    0.11
   0   6  -8    1.54    0.14
   0   6  -8    1.46    0.10
   0   6  -8    1.22    0.12
   0  -6   8    1.48    0.13
   0  -6   8    1.41    0.13
   0  -6   8    1.16    0.10
   0  -6   8    1.37    0.11
  -1   6  -8    7.01    0.22
  -1   6  -8    6.90    0.28
  -1   6  -8    7.43    0.30
   1  -6   8    7.09    0.25
   1  -6   8    7.11    0.30
   1  -6   8    7.54    0.29
  -2   6  -8    8.56    0.32
  -2   6  -8    8.73    0.34
   2  -6   8    8.41    0.34
   2  -6   8    8.59    0.28
   2  -6   8    8.61    0.34
   2  -6   8    8.66    0.29
  -3   6  -8    0.20    0.08
  -3   6  -8    0.10    0.07
   3  -6   8    0.22    0.07
   3  -6   8    0.19    0.08
   3  -6   8    0.05    0.05
  -4   6  -8    0.30    0.09
  -4   6  -8    0.29    0.10
   4  -6   8    0.26    0.07
   4  -6   8    0.34    0.10
  -5   6  -8    1.58    0.17
  -5   6  -8    1.17    0.15
   5  -6   8    1.50    0.15
   5  -6   8    1.25    0.15
  -6   6  -8    0.10    0.10
   6  -6   8    0.21    0.10
   6  -6   8    0.07    0.08
  -7   6  -8    4.42    0.29
   7  -6   8    3.83    0.27
   7  -6   8    3.78    0.24
  -8   6  -8    0.81    0.16
   8  -6   8    0.77    0.15
   8  -6   8    0.86    0.14
   7   5  -8    5.11    0.28
  -7  -5   8    4.92    0.26
   6   5  -8    1.59    0.16
  -6  -5   8    1.99    0.18
  -6  -5   8    1.45    0.12
   5   5  -8    3.35    0.22
  -5  -5   8    3.40    0.17
  -5  -5   8    3.33    0.21
   4   5  -8   11.83    0.39
   4   5  -8   11.27    0.41
  -4  -5   8   11.16    0.37
  -4  -5   8   11.36    0.38
  -4  -5   8   11.08    0.39
   3   5  -8    0.33    0.09
   3   5  -8    0.35    0.08
  -3  -5   8    0.31    0.07
  -3  -5   8    0.30    0.08
  -3  -5   8    0.52    0.09
   2   5  -8   14.24    0.45
   2   5  -8   13.06    0.40
   2   5  -8   13.12    0.46
   2   5  -8   12.60    0.42
  -2  -5   8   13.65    0.46
  -2  -5   8   13.79    0.41
  -2  -5   8   12.21    0.46
   1   5  -8   11.61    0.40
   1   5  -8   12.15    0.36
   1   5  -8   11.96    0.42
  -1  -5   8   12.65    0.42
  -1  -5   8   11.14    0.36
   0   5  -8    1.54    0.09
   0   5  -8    1.78    0.14
   0   5  -8    1.47    0.13
   0  -5   8    1.79    0.14
   0  -5   8    1.63    0.13
  -1   5  -8    1.32    0.13
  -1   5  -8    1.31    0.07
  -1   5  -8    1.26    0.14
   1  -5   8    1.21    0.13
   1  -5   8    1.33    0.09
   1  -5   8    1.36    0.13
  -2   5  -8    2.76    0.17
  -2   5  -8    3.06    0.19
   2  -5   8    2.69    0.18
   2  -5   8    2.75    0.12
   2  -5   8    2.81    0.18
   2  -5   8    2.75    0.15
  -3   5  -8    0.30    0.09
  -3   5  -8    0.42    0.09
   3  -5   8    0.39    0.10
   3  -5   8    0.46    0.08
  -4   5  -8    4.18    0.23
  -4   5  -8    3.76    0.25
   4  -5   8    3.62    0.25
   4  -5   8    4.08    0.21
  -5   5  -8    2.06    0.18
  -5   5  -8    2.22    0.21
   5  -5   8    2.20    0.21
   5  -5   8    2.02    0.17
  -6   5  -8    2.52    0.23
   6  -5   8    2.61    0.23
   6  -5   8    2.65    0.20
  -7   5  -8    1.37    0.17
   7  -5   8    1.29    0.15
   7  -5   8    1.03    0.16
  -8   5  -8    0.22    0.12
   8  -5   8    0.24    0.12
   8  -5   8    0.32    0.13
   8   4  -8    0.97    0.14
  -8  -4   8    0.64    0.12
  -8  -4   8    0.85    0.09
   7   4  -8    1.11    0.15
  -7  -4   8    1.24    0.12
  -7  -4   8    0.87    0.13
   6   4  -8    2.72    0.20
  -6  -4   8    2.52    0.16
  -6  -4   8    2.32    0.19
   5   4  -8    0.60    0.10
   5   4  -8    0.69    0.07
   5   4  -8    0.66    0.09
  -5  -4   8    0.59    0.10
  -5  -4   8    0.61    0.08
  -5  -4   8    0.58    0.09
   4   4  -8   15.67    0.49
   4   4  -8   15.28    0.45
   4   4  -8   15.82    0.51
   4   4  -8   15.90    0.52
  -4  -4   8   15.89    0.52
  -4  -4   8   16.08    0.52
  -4  -4   8   15.84    0.47
   3   4  -8   92.66    2.52
   3   4  -8   95.43    2.74
   3   4  -8   92.55    2.52
  -3  -4   8   95.53    2.32
  -3  -4   8   95.05    2.74
  -3  -4   8   96.02    2.74
   2   4  -8   24.01    0.75
   2   4  -8   24.09    0.71
   2   4  -8   23.93    0.67
  -2  -4   8   23.62    0.75
  -2  -4   8   23.48    0.75
   1   4  -8    2.70    0.17
   1   4  -8    2.98    0.17
  -1  -4   8    3.14    0.18
  -1  -4   8    3.33    0.18
   0   4  -8   17.77    0.56
   0   4  -8   18.79    0.61
   0  -4   8   19.37    0.61
   0  -4   8   18.38    0.61
  -1   4  -8   19.22    0.61
  -1   4  -8   17.85    0.55
   1  -4   8   18.98    0.61
   1  -4   8   18.26    0.52
   1  -4   8   17.09    0.60
   1  -4   8   17.81    0.50
  -2   4  -8    0.57    0.09
  -2   4  -8    0.44    0.09
   2  -4   8    0.52    0.10
   2  -4   8    0.70    0.07
   2  -4   8    0.65    0.09
  -3   4  -8    9.79    0.35
  -3   4  -8    9.02    0.40
   3  -4   8   10.13    0.34
   3  -4   8    8.85    0.40
  -4   4  -8   20.89    0.72
  -4   4  -8   21.49    0.65
   4  -4   8   20.71    0.72
   4  -4   8   20.87    0.62
  -5   4  -8    3.29    0.24
   5  -4   8    3.65    0.24
   5  -4   8    3.00    0.20
  -6   4  -8    0.11    0.11
   6  -4   8    0.06    0.09
   6  -4   8    0.04    0.10
  -7   4  -8   -0.04    0.10
   7  -4   8   -0.11    0.08
   7  -4   8    0.06    0.11
   8  -4   8    1.20    0.16
   9   3  -8    2.67    0.24
  -9  -3   8    3.10    0.18
  -9  -3   8    3.11    0.24
   8   3  -8    0.51    0.11
  -8  -3   8    0.45    0.11
  -8  -3   8    0.59    0.09
   7   3  -8    3.32    0.22
  -7  -3   8    3.59    0.21
  -7  -3   8    3.30    0.19
   6   3  -8    1.29    0.13
   6   3  -8    1.23    0.13
  -6  -3   8    1.43    0.14
  -6  -3   8    1.68    0.14
   5   3  -8    9.32    0.35
   5   3  -8    9.52    0.35
   5   3  -8    9.02    0.29
  -5  -3   8    9.46    0.35
  -5  -3   8    9.36    0.35
  -5  -3   8    9.51    0.33
   4   3  -8    1.95    0.15
   4   3  -8    2.07    0.18
   4   3  -8    2.83    0.14
  -4  -3   8    2.18    0.18
  -4  -3   8    2.05    0.19
   3   3  -8    2.29    0.15
   3   3  -8    2.98    0.18
   3   3  -8    2.76    0.18
   3   3  -8    2.70    0.13
  -3  -3   8    2.74    0.18
  -3  -3   8    2.89    0.18
   2   3  -8    1.04    0.11
   2   3  -8    1.40    0.14
  -2  -3   8    1.27    0.14
  -2  -3   8    1.44    0.13
   1   3  -8    4.14    0.22
   1   3  -8    3.69    0.20
  -1  -3   8    3.90    0.22
  -1  -3   8    4.26    0.21
   0   3  -8   48.09    1.32
   0   3  -8   48.65    1.45
   0  -3   8   49.12    1.26
   0  -3   8   44.68    1.44
   0  -3   8   49.84    1.45
  -1   3  -8    0.46    0.09
  -1   3  -8    0.31    0.08
   1  -3   8    0.10    0.07
   1  -3   8    0.27    0.09
   1  -3   8    0.49    0.08
  -2   3  -8   11.65    0.38
  -2   3  -8   10.85    0.43
   2  -3   8   10.05    0.42
   2  -3   8   10.37    0.36
   2  -3   8   11.66    0.37
  -3   3  -8   94.27    2.83
  -3   3  -8   98.69    2.58
   3  -3   8   94.73    2.83
   3  -3   8   98.63    2.47
   3  -3   8   97.24    2.44
  -4   3  -8    7.45    0.34
   4  -3   8    6.85    0.30
   4  -3   8    7.50    0.34
   4  -3   8    7.27    0.29
  -5   3  -8    3.16    0.24
   5  -3   8    3.13    0.22
   5  -3   8    3.08    0.24
   5  -3   8    3.08    0.20
  -6   3  -8    4.35    0.28
   6  -3   8    4.61    0.26
   6  -3   8    4.34    0.28
   6  -3   8    4.29    0.24
  -7   3  -8    0.11    0.11
   7  -3   8    0.07    0.09
   7  -3   8   -0.02    0.10
   9   2  -8    3.89    0.26
  -9  -2   8    3.86    0.22
  -9  -2   8    3.77    0.24
   8   2  -8    0.11    0.09
  -8  -2   8    0.17    0.09
  -8  -2   8    0.20    0.08
   7   2  -8    9.79    0.38
   7   2  -8    9.68    0.37
  -7  -2   8   10.39    0.36
  -7  -2   8    9.89    0.38
   6   2  -8   19.05    0.64
   6   2  -8   19.22    0.61
   6   2  -8   19.35    0.53
  -6  -2   8   19.80    0.57
  -6  -2   8   19.41    0.64
  -6  -2   8   19.69    0.64
   5   2  -8   51.09    1.41
   5   2  -8   50.92    1.31
   5   2  -8   52.23    1.53
  -5  -2   8   49.82    1.52
  -5  -2   8   51.32    1.30
  -5  -2   8   51.93    1.53
   4   2  -8   15.12    0.52
   4   2  -8   14.60    0.44
   4   2  -8   14.98    0.43
   4   2  -8   15.28    0.48
  -4  -2   8   15.09    0.52
  -4  -2   8   14.95    0.51
   3   2  -8  105.72    2.69
   3   2  -8  102.07    2.67
   3   2  -8  102.21    2.56
   3   2  -8   94.54    2.94
  -3  -2   8  106.37    2.95
  -3  -2   8   98.74    2.94
   2   2  -8    1.44    0.15
  -2  -2   8    1.51    0.15
  -2  -2   8    1.53    0.15
  -2  -2   8    1.52    0.13
   1   2  -8   10.53    0.35
   1   2  -8   11.01    0.40
  -1  -2   8   10.23    0.39
  -1  -2   8   10.92    0.34
  -1  -2   8   10.25    0.40
   0   2  -8    3.60    0.21
   0   2  -8    3.32    0.18
   0  -2   8    3.40    0.17
   0  -2   8    3.30    0.21
  -1   2  -8    0.99    0.13
  -1   2  -8    1.45    0.14
  -1   2  -8    1.05    0.08
   1  -2   8    1.54    0.17
   1  -2   8    1.60    0.15
  -2   2  -8   -0.25    0.11
   2  -2   8    0.11    0.09
  -3   2  -8    1.09    0.14
  -3   2  -8    0.94    0.12
   3  -2   8    1.12    0.12
   3  -2   8    1.07    0.13
   3  -2   8    1.06    0.14
  -4   2  -8    7.60    0.35
   4  -2   8    7.74    0.31
   4  -2   8    8.03    0.36
   4  -2   8    7.64    0.31
  -5   2  -8    0.53    0.12
   5  -2   8    0.42    0.11
   5  -2   8    0.57    0.11
   5  -2   8    0.45    0.12
  -6   2  -8    5.12    0.30
   6  -2   8    5.07    0.27
   6  -2   8    4.88    0.27
   6  -2   8    5.12    0.30
  10   1  -8    3.28    0.26
 -10  -1   8    3.76    0.23
 -10  -1   8    3.62    0.24
   9   1  -8    2.48    0.22
  -9  -1   8    2.66    0.20
  -9  -1   8    2.64    0.21
   8   1  -8    0.69    0.12
  -8  -1   8    0.77    0.11
  -8  -1   8    0.91    0.12
   7   1  -8    1.61    0.16
   7   1  -8    1.56    0.17
  -7  -1   8    1.79    0.16
  -7  -1   8    1.63    0.16
   6   1  -8    0.26    0.06
   6   1  -8   -0.01    0.09
   6   1  -8    0.27    0.08
  -6  -1   8    0.06    0.09
  -6  -1   8    0.04    0.08
  -6  -1   8    0.17    0.08
   5   1  -8    0.30    0.08
   5   1  -8    0.22    0.09
   5   1  -8    0.41    0.06
  -5  -1   8    0.33    0.08
  -5  -1   8    0.17    0.09
   4   1  -8    9.12    0.29
   4   1  -8    8.64    0.36
   4   1  -8    9.27    0.32
  -4  -1   8    9.24    0.30
  -4  -1   8    8.78    0.36
  -4  -1   8    9.15    0.35
   3   1  -8   13.91    0.48
   3   1  -8   13.62    0.43
  -3  -1   8   14.01    0.49
  -3  -1   8   12.81    0.47
  -3  -1   8   13.59    0.41
   2   1  -8    1.93    0.14
   2   1  -8    1.92    0.17
  -2  -1   8    1.74    0.16
  -2  -1   8    1.79    0.17
  -2  -1   8    1.71    0.13
  -2  -1   8    2.14    0.14
   1   1  -8   47.70    1.41
   1   1  -8   45.75    1.26
  -1  -1   8   46.17    1.28
  -1  -1   8   46.04    1.22
  -1  -1   8   46.20    1.40
   0   1  -8    5.63    0.23
   0   1  -8    5.69    0.28
   0  -1   8    5.69    0.27
   0  -1   8    6.46    0.25
  -1   1  -8   64.53    1.73
  -1   1  -8   67.37    1.96
  -1   1  -8   65.55    1.76
   1  -1   8   65.14    1.95
   1  -1   8   64.89    1.70
  -2   1  -8   13.84    0.50
  -2   1  -8   13.46    0.44
  -2   1  -8   12.70    0.39
   2  -1   8   14.09    0.44
   2  -1   8   13.02    0.50
   2  -1   8   13.97    0.45
  -3   1  -8    4.95    0.27
   3  -1   8    4.85    0.27
   3  -1   8    4.98    0.25
   3  -1   8    4.78    0.24
  -4   1  -8    0.77    0.13
   4  -1   8    0.76    0.12
   4  -1   8    1.14    0.15
   4  -1   8    0.83    0.12
  -5   1  -8    0.00    0.10
   5  -1   8    0.05    0.10
   5  -1   8    0.08    0.09
   5  -1   8   -0.02    0.10
  -6   1  -8    0.13    0.12
  -6   1  -8    0.03    0.10
   6  -1   8    0.09    0.10
   6  -1   8    0.26    0.11
  10   0  -8    2.36    0.22
 -10   0   8    2.81    0.22
 -10   0   8    2.61    0.21
   9   0  -8    2.78    0.22
  -9   0   8    3.01    0.22
  -9   0   8    2.93    0.20
   8   0  -8    0.63    0.11
   8   0  -8    0.55    0.11
  -8   0   8    0.68    0.11
  -8   0   8    0.42    0.10
   7   0  -8    7.93    0.35
   7   0  -8    8.88    0.33
  -7   0   8    8.67    0.31
  -7   0   8    8.30    0.35
  -7   0   8    8.32    0.35
   6   0  -8    8.20    0.27
   6   0  -8    8.65    0.31
   6   0  -8    8.39    0.35
  -6   0   8    8.11    0.34
  -6   0   8    8.43    0.35
   5   0  -8    0.85    0.12
   5   0  -8    0.97    0.10
   5   0  -8    0.97    0.09
  -5   0   8    0.95    0.11
  -5   0   8    0.95    0.12
  -5   0   8    1.02    0.09
   4   0  -8   19.55    0.63
   4   0  -8   18.07    0.55
  -4   0   8   17.48    0.62
  -4   0   8   19.38    0.65
  -4   0   8   18.13    0.53
   3   0  -8    5.77    0.23
   3   0  -8    5.92    0.28
  -3   0   8    5.79    0.23
  -3   0   8    6.29    0.28
  -3   0   8    5.68    0.22
   2   0  -8    0.18    0.06
   2   0  -8    0.06    0.08
  -2   0   8    0.12    0.07
  -2   0   8    0.19    0.06
  -2   0   8    0.16    0.09
  -2   0   8    0.19    0.07
   1   0  -8    4.02    0.18
   1   0  -8    3.66    0.23
  -1   0   8    3.96    0.20
  -1   0   8    3.92    0.19
  -1   0   8    3.94    0.17
  -1   0   8    3.78    0.23
   0   0  -8   10.05    0.33
   0   0  -8    8.51    0.39
   0   0   8   10.07    0.33
   0   0   8    8.87    0.39
   0   0   8    9.81    0.34
  -1   0  -8    1.95    0.19
  -1   0  -8    1.83    0.13
  -1   0  -8    1.97    0.15
   1   0   8    1.55    0.16
   1   0   8    1.82    0.18
  -2   0  -8    1.52    0.13
  -2   0  -8    2.06    0.19
   2   0   8    1.85    0.16
   2   0   8    2.21    0.19
  -3   0  -8    0.34    0.11
   3   0   8    0.42    0.10
   3   0   8    0.29    0.10
   3   0   8    0.36    0.11
  -4   0  -8    0.00    0.10
  -4   0  -8    0.05    0.11
   4   0   8    0.09    0.10
   4   0   8    0.09    0.09
   4   0   8    0.07    0.10
  -5   0  -8    0.90    0.14
  -5   0  -8    0.89    0.17
   5   0   8    0.85    0.14
   5   0   8    0.99    0.13
  10  -1  -8    0.41    0.11
 -10   1   8    0.63    0.12
 -10   1   8    0.46    0.11
   9  -1  -8    2.54    0.20
   9  -1  -8    2.45    0.21
  -9   1   8    2.48    0.19
  -9   1   8    2.19    0.21
   8  -1  -8    1.44    0.16
   8  -1  -8    1.30    0.13
  -8   1   8    1.31    0.13
  -8   1   8    1.25    0.15
   7  -1  -8   -0.10    0.08
   7  -1  -8   -0.01    0.06
  -7   1   8   -0.13    0.07
   6  -1  -8    0.14    0.06
   6  -1  -8    0.22    0.07
   6  -1  -8    0.10    0.09
  -6   1   8    0.13    0.06
  -6   1   8    0.13    0.09
   5  -1  -8    0.78    0.09
   5  -1  -8    0.64    0.11
  -5   1   8    0.69    0.11
  -5   1   8    0.72    0.10
  -5   1   8    0.49    0.08
   4  -1  -8    2.65    0.15
   4  -1  -8    2.72    0.19
  -4   1   8    2.50    0.19
  -4   1   8    2.56    0.16
  -4   1   8    2.70    0.17
   3  -1  -8   21.79    0.72
   3  -1  -8   20.94    0.62
  -3   1   8   21.19    0.62
  -3   1   8   21.91    0.62
  -3   1   8   22.56    0.73
  -3   1   8   21.43    0.62
   2  -1  -8    2.10    0.19
   2  -1  -8    1.78    0.13
  -2   1   8    1.99    0.18
  -2   1   8    1.87    0.16
  -2   1   8    2.22    0.16
  -2   1   8    2.06    0.13
   1  -1  -8    1.99    0.20
   1  -1  -8    2.05    0.14
  -1   1   8    2.38    0.17
  -1   1   8    1.62    0.19
  -1   1   8    2.07    0.16
  -1   1   8    2.06    0.13
   0  -1  -8    0.08    0.09
   0  -1  -8    0.16    0.06
   0  -1  -8    0.16    0.06
   0   1   8    0.15    0.08
   0   1   8    0.16    0.10
   0   1   8    0.10    0.08
  -1  -1  -8    0.51    0.09
  -1  -1  -8    0.43    0.11
   1   1   8    0.31    0.09
   1   1   8    0.50    0.11
   1   1   8    0.27    0.10
  -2  -1  -8    0.09    0.09
  -2  -1  -8   -0.03    0.06
   2   1   8   -0.06    0.09
   2   1   8    0.00    0.08
   2   1   8    0.09    0.09
  -3  -1  -8    3.56    0.25
  -3  -1  -8    4.02    0.28
   3   1   8    3.52    0.25
   3   1   8    3.65    0.26
  -4  -1  -8   -0.06    0.10
  -4  -1  -8    0.09    0.12
   4   1   8    0.22    0.09
   4   1   8    0.12    0.11
  10  -2  -8    0.22    0.10
 -10   2   8    0.21    0.10
 -10   2   8    0.17    0.11
   9  -2  -8    1.79    0.18
   9  -2  -8    2.06    0.18
  -9   2   8    2.34    0.19
  -9   2   8    1.90    0.21
   8  -2  -8    0.86    0.14
   8  -2  -8    1.17    0.12
  -8   2   8    0.94    0.08
  -8   2   8    0.91    0.13
   7  -2  -8    0.83    0.13
   7  -2  -8    0.85    0.10
  -7   2   8    0.83    0.13
  -7   2   8    0.78    0.08
  -7   2   8    0.76    0.10
   6  -2  -8    0.70    0.09
   6  -2  -8    0.80    0.13
  -6   2   8    0.81    0.13
  -6   2   8    0.70    0.10
  -6   2   8    0.69    0.09
   5  -2  -8    0.29    0.10
   5  -2  -8    0.29    0.07
  -5   2   8    0.25    0.08
  -5   2   8    0.31    0.10
  -5   2   8    0.30    0.09
   4  -2  -8    1.88    0.19
   4  -2  -8    1.83    0.09
   4  -2  -8    1.87    0.13
  -4   2   8    1.71    0.16
  -4   2   8    2.27    0.20
  -4   2   8    1.88    0.17
   3  -2  -8    1.25    0.15
   3  -2  -8    1.22    0.11
  -3   2   8    1.09    0.14
  -3   2   8    1.26    0.12
  -3   2   8    1.20    0.13
  -3   2   8    1.22    0.11
   2  -2  -8    6.73    0.32
   2  -2  -8    6.06    0.23
  -2   2   8    6.54    0.32
  -2   2   8    6.11    0.23
  -2   2   8    6.49    0.27
  -2   2   8    6.97    0.28
   1  -2  -8    2.99    0.22
   1  -2  -8    2.68    0.15
  -1   2   8    2.98    0.20
  -1   2   8    2.86    0.22
  -1   2   8    2.75    0.15
  -1   2   8    2.97    0.19
   0  -2  -8    2.25    0.16
   0  -2  -8    2.37    0.20
   0  -2  -8    2.46    0.21
   0   2   8    2.39    0.21
   0   2   8    2.55    0.19
   0   2   8    2.70    0.20
  -1  -2  -8    0.12    0.10
  -1  -2  -8   -0.03    0.07
  -1  -2  -8    0.00    0.11
   1   2   8    0.10    0.09
   1   2   8    0.16    0.09
   1   2   8    0.21    0.10
  -2  -2  -8    1.07    0.15
  -2  -2  -8    1.43    0.17
   2   2   8    1.41    0.16
   2   2   8    1.13    0.13
  -3  -2  -8    6.53    0.36
  -3  -2  -8    6.15    0.33
   3   2   8    6.63    0.32
  10  -3  -8   -0.03    0.11
  10  -3  -8    0.03    0.08
 -10   3   8    0.02    0.09
 -10   3   8    0.01    0.11
   9  -3  -8    0.20    0.08
   9  -3  -8    0.08    0.11
  -9   3   8    0.05    0.10
  -9   3   8    0.27    0.08
   8  -3  -8    7.88    0.30
   8  -3  -8    7.93    0.37
  -8   3   8    7.76    0.30
  -8   3   8    7.64    0.27
  -8   3   8    8.31    0.38
   7  -3  -8    1.48    0.17
   7  -3  -8    1.56    0.14
  -7   3   8    1.56    0.14
  -7   3   8    1.50    0.14
  -7   3   8    1.20    0.16
   6  -3  -8    6.99    0.26
   6  -3  -8    7.09    0.34
  -6   3   8    7.12    0.27
  -6   3   8    7.09    0.29
  -6   3   8    6.84    0.34
   5  -3  -8   22.09    0.65
   5  -3  -8   23.09    0.78
  -5   3   8   22.21    0.66
  -5   3   8   23.56    0.66
  -5   3   8   23.03    0.78
   4  -3  -8    0.76    0.13
   4  -3  -8    0.63    0.08
   4  -3  -8    0.78    0.08
  -4   3   8    0.68    0.11
  -4   3   8    0.63    0.13
  -4   3   8    0.77    0.11
   3  -3  -8   14.13    0.43
   3  -3  -8   14.77    0.50
   3  -3  -8   14.12    0.54
  -3   3   8   14.72    0.47
  -3   3   8   14.82    0.55
  -3   3   8   14.74    0.47
   2  -3  -8    3.74    0.25
   2  -3  -8    3.58    0.23
  -2   3   8    3.38    0.22
  -2   3   8    3.61    0.25
  -2   3   8    3.42    0.22
   1  -3  -8    0.12    0.08
   1  -3  -8    0.03    0.10
   1  -3  -8    0.09    0.09
  -1   3   8    0.13    0.10
  -1   3   8    0.06    0.08
  -1   3   8    0.07    0.09
   0  -3  -8    0.31    0.12
   0  -3  -8    0.41    0.11
   0  -3  -8    0.30    0.09
   0   3   8    0.38    0.10
   0   3   8    0.42    0.11
   0   3   8    0.34    0.11
  -1  -3  -8    1.16    0.17
  -1  -3  -8    1.14    0.15
  -1  -3  -8    1.19    0.13
   1   3   8    1.24    0.16
   1   3   8    1.17    0.14
  -2  -3  -8    0.44    0.13
  -2  -3  -8    0.82    0.16
   2   3   8    0.83    0.12
   2   3   8    0.81    0.15
  10  -4  -8    1.60    0.17
  10  -4  -8    1.36    0.18
 -10   4   8    0.95    0.17
 -10   4   8    1.26    0.13
 -10   4   8    1.26    0.14
   9  -4  -8    0.22    0.12
   9  -4  -8    0.22    0.08
  -9   4   8    0.32    0.09
  -9   4   8    0.23    0.12
   8  -4  -8    1.49    0.14
   8  -4  -8    1.47    0.18
  -8   4   8    1.64    0.15
  -8   4   8    1.44    0.17
  -8   4   8    1.53    0.14
   7  -4  -8    0.01    0.10
   7  -4  -8   -0.02    0.05
  -7   4   8    0.04    0.10
  -7   4   8    0.04    0.08
  -7   4   8    0.00    0.07
   6  -4  -8    0.79    0.08
   6  -4  -8    0.71    0.13
   6  -4  -8    0.74    0.09
  -6   4   8    0.53    0.11
  -6   4   8    0.75    0.14
  -6   4   8    0.60    0.11
   5  -4  -8    0.81    0.14
   5  -4  -8    0.70    0.07
   5  -4  -8    0.66    0.10
   5  -4  -8    0.73    0.07
  -5   4   8    0.79    0.12
  -5   4   8    0.63    0.11
  -5   4   8    0.80    0.14
   4  -4  -8    7.62    0.26
   4  -4  -8    8.24    0.33
   4  -4  -8    8.47    0.39
  -4   4   8    8.33    0.38
  -4   4   8    8.50    0.33
  -4   4   8    8.67    0.33
   3  -4  -8    4.15    0.28
   3  -4  -8    4.41    0.24
  -3   4   8    4.15    0.24
  -3   4   8    4.30    0.24
  -3   4   8    3.89    0.27
   2  -4  -8    5.01    0.28
   2  -4  -8    4.89    0.26
   2  -4  -8    4.91    0.29
  -2   4   8    5.37    0.27
  -2   4   8    4.78    0.27
  -2   4   8    5.24    0.30
   1  -4  -8    5.79    0.31
   1  -4  -8    5.68    0.31
   1  -4  -8    5.66    0.27
  -1   4   8    5.27    0.31
  -1   4   8    5.46    0.28
  -1   4   8    5.38    0.29
   0  -4  -8    0.10    0.12
   0  -4  -8    0.00    0.10
   0  -4  -8   -0.13    0.09
   0   4   8   -0.07    0.09
   0   4   8   -0.05    0.10
  -1  -4  -8    5.81    0.35
  -1  -4  -8    6.04    0.30
  -1  -4  -8    6.03    0.33
   1   4   8    5.99    0.33
   1   4   8    6.31    0.30
  10  -5  -8    1.65    0.20
 -10   5   8    1.64    0.15
 -10   5   8    1.66    0.20
   9  -5  -8   -0.06    0.11
  -9   5   8    0.07    0.09
  -9   5   8    0.08    0.11
   8  -5  -8    0.33    0.12
  -8   5   8    0.44    0.13
  -8   5   8    0.39    0.10
  -8   5   8    0.43    0.09
   7  -5  -8    0.40    0.13
  -7   5   8    0.37    0.10
  -7   5   8    0.40    0.13
  -7   5   8    0.27    0.11
   6  -5  -8    1.99    0.23
  -6   5   8    1.74    0.19
  -6   5   8    1.81    0.16
  -6   5   8    2.22    0.20
   5  -5  -8    0.10    0.08
   5  -5  -8   -0.07    0.11
  -5   5   8   -0.01    0.09
  -5   5   8    0.09    0.09
  -5   5   8   -0.06    0.11
   4  -5  -8    2.38    0.24
   4  -5  -8    2.30    0.20
  -4   5   8    2.53    0.21
  -4   5   8    1.73    0.19
  -4   5   8    2.14    0.20
   3  -5  -8    0.69    0.14
   3  -5  -8    0.69    0.12
  -3   5   8    0.71    0.14
  -3   5   8    0.68    0.12
  -3   5   8    0.63    0.12
   2  -5  -8    0.67    0.13
   2  -5  -8    0.71    0.14
   2  -5  -8    0.76    0.14
  -2   5   8    0.68    0.13
  -2   5   8    0.69    0.12
  -2   5   8    0.71    0.15
   1  -5  -8   -0.11    0.10
   1  -5  -8   -0.16    0.11
   1  -5  -8   -0.09    0.10
  -1   5   8   -0.03    0.10
  -1   5   8   -0.07    0.10
   9  -6  -8    0.07    0.13
  -9   6   8    0.14    0.13
  -9   6   8    0.07    0.10
   8  -6  -8   -0.04    0.11
  -8   6   8   -0.09    0.11
  -8   6   8   -0.07    0.08
  -8   6   8   -0.01    0.09
   7  -6  -8    0.14    0.13
  -7   6   8    0.09    0.09
  -7   6   8    0.24    0.13
  -7   6   8    0.21    0.11
   6  -6  -8    0.06    0.12
  -6   6   8   -0.13    0.10
  -6   6   8    0.05    0.09
  -6   6   8    0.01    0.09
   5  -6  -8    0.19    0.13
  -5   6   8    0.06    0.12
  -5   6   8    0.43    0.11
  -5   6   8    0.28    0.10
   4  -6  -8    1.60    0.19
   4  -6  -8    1.82    0.20
  -4   6   8    1.41    0.16
  -4   6   8    1.71    0.17
  -4   6   8    1.42    0.19
   3  -6  -8    0.04    0.11
   3  -6  -8   -0.05    0.10
   3  -6  -8    0.02    0.11
  -3   6   8    0.15    0.10
  -3   6   8    0.13    0.10
  -2  12  -9   -0.15    0.09
   2 -12   9    0.01    0.09
   2 -12   9    0.05    0.08
  -3  12  -9    0.46    0.11
   3 -12   9    0.37    0.10
   3 -12   9    0.40    0.11
  -4  12  -9    1.43    0.16
   4 -12   9    1.24    0.15
   4 -12   9    1.11    0.15
  -5  12  -9    0.19    0.11
   5 -12   9    0.26    0.11
   5 -12   9    0.27    0.10
   0  11  -9    0.07    0.10
   0 -11   9    0.21    0.07
  -1  11  -9   -0.16    0.08
   1 -11   9    0.03    0.07
   1 -11   9   -0.07    0.07
  -2  11  -9    0.15    0.10
   2 -11   9    0.16    0.07
   2 -11   9    0.24    0.09
   2 -11   9    0.19    0.09
  -3  11  -9    0.44    0.11
   3 -11   9    0.38    0.10
   3 -11   9    0.47    0.11
  -4  11  -9    3.18    0.23
   4 -11   9    2.74    0.23
   4 -11   9    2.93    0.17
   4 -11   9    3.08    0.21
  -5  11  -9    0.10    0.10
  -5  11  -9    0.07    0.10
   5 -11   9    0.22    0.09
   5 -11   9    0.16    0.07
   5 -11   9    0.05    0.10
  -6  11  -9    0.95    0.15
  -6  11  -9    1.22    0.17
   6 -11   9    1.26    0.14
   6 -11   9    1.12    0.12
   6 -11   9    1.27    0.17
  -7  11  -9    0.17    0.11
  -7  11  -9    0.21    0.12
   7 -11   9    0.14    0.09
   7 -11   9    0.14    0.09
   2  10  -9    6.78    0.33
  -2 -10   9    6.30    0.29
   1  10  -9    0.72    0.14
  -1 -10   9    0.94    0.09
  -1 -10   9    0.85    0.12
   0  10  -9    1.40    0.16
   0 -10   9    1.46    0.14
   0 -10   9    1.79    0.16
  -1  10  -9    3.72    0.24
   1 -10   9    3.53    0.21
   1 -10   9    3.59    0.22
   1 -10   9    3.73    0.19
  -2  10  -9   -0.18    0.08
   2 -10   9    0.05    0.06
   2 -10   9    0.08    0.08
   2 -10   9    0.03    0.08
  -3  10  -9    2.66    0.21
  -3  10  -9    2.86    0.22
   3 -10   9    2.96    0.20
   3 -10   9    2.81    0.15
   3 -10   9    2.83    0.21
  -4  10  -9    3.56    0.24
  -4  10  -9    3.72    0.23
   4 -10   9    3.26    0.18
   4 -10   9    3.28    0.21
   4 -10   9    3.23    0.23
  -5  10  -9    1.53    0.17
  -5  10  -9    1.58    0.16
   5 -10   9    1.79    0.16
   5 -10   9    1.53    0.17
   5 -10   9    1.55    0.15
  -6  10  -9    0.02    0.10
  -6  10  -9   -0.03    0.10
   6 -10   9    0.18    0.08
   6 -10   9    0.09    0.11
   6 -10   9    0.05    0.08
  -7  10  -9    0.36    0.14
  -7  10  -9    0.34    0.12
   7 -10   9    0.35    0.13
   7 -10   9    0.43    0.10
   3   9  -9   12.58    0.48
  -3  -9   9   12.65    0.45
   2   9  -9    1.50    0.17
  -2  -9   9    1.58    0.16
  -2  -9   9    1.66    0.13
   1   9  -9    5.01    0.27
  -1  -9   9    4.84    0.23
  -1  -9   9    5.14    0.24
   0   9  -9   10.74    0.40
   0  -9   9   10.85    0.35
   0  -9   9   10.06    0.39
  -1   9  -9    0.66    0.12
  -1   9  -9    0.61    0.10
   1  -9   9    0.72    0.10
   1  -9   9    0.61    0.09
   1  -9   9    0.67    0.10
  -2   9  -9    4.37    0.24
  -2   9  -9    4.32    0.25
   2  -9   9    4.58    0.19
   2  -9   9    4.30    0.24
   2  -9   9    4.41    0.22
  -3   9  -9    4.51    0.26
  -3   9  -9    4.19    0.25
   3  -9   9    4.28    0.26
   3  -9   9    4.36    0.22
   3  -9   9    4.60    0.21
   3  -9   9    4.87    0.18
  -4   9  -9    0.53    0.11
  -4   9  -9    0.47    0.11
   4  -9   9    0.49    0.09
   4  -9   9    0.54    0.09
   4  -9   9    0.34    0.11
   4  -9   9    0.54    0.07
  -5   9  -9    5.72    0.31
  -5   9  -9    5.52    0.29
   5  -9   9    5.50    0.25
   5  -9   9    5.79    0.31
   5  -9   9    5.48    0.26
  -6   9  -9    3.16    0.26
  -6   9  -9    2.78    0.23
   6  -9   9    3.44    0.26
   6  -9   9    3.11    0.20
  -7   9  -9    0.02    0.11
   7  -9   9   -0.02    0.12
   7  -9   9    0.05    0.09
  -8   9  -9    0.12    0.13
   8  -9   9    0.09    0.13
   8  -9   9    0.19    0.11
   4   8  -9    0.78    0.14
  -4  -8   9    0.52    0.13
   3   8  -9    1.38    0.16
  -3  -8   9    1.38    0.15
  -3  -8   9    1.44    0.13
   2   8  -9    0.21    0.10
  -2  -8   9    0.30    0.07
  -2  -8   9    0.31    0.09
   1   8  -9    1.88    0.19
  -1  -8   9    1.42    0.15
  -1  -8   9    1.54    0.14
   0   8  -9    0.65    0.10
   0   8  -9    0.66    0.11
   0  -8   9    0.58    0.10
   0  -8   9    0.61    0.10
  -1   8  -9    2.18    0.18
  -1   8  -9    2.35    0.19
   1  -8   9    2.27    0.15
   1  -8   9    2.15    0.18
   1  -8   9    2.48    0.19
   1  -8   9    2.02    0.16
  -2   8  -9    0.31    0.09
  -2   8  -9    0.16    0.09
   2  -8   9    0.29    0.07
   2  -8   9    0.28    0.07
   2  -8   9    0.28    0.10
   2  -8   9    0.16    0.09
  -3   8  -9    0.68    0.12
  -3   8  -9    0.88    0.12
   3  -8   9    0.73    0.12
   3  -8   9    0.95    0.11
   3  -8   9    1.01    0.10
   3  -8   9    0.94    0.09
  -4   8  -9    0.36    0.11
  -4   8  -9    0.37    0.10
   4  -8   9    0.40    0.06
   4  -8   9    0.29    0.11
   4  -8   9    0.32    0.08
   4  -8   9    0.32    0.08
  -5   8  -9    0.23    0.11
  -5   8  -9    0.03    0.10
   5  -8   9   -0.01    0.10
   5  -8   9   -0.02    0.05
   5  -8   9   -0.02    0.08
  -6   8  -9    1.50    0.18
  -6   8  -9    1.61    0.16
   6  -8   9    1.45    0.15
   6  -8   9    1.89    0.22
  -7   8  -9    0.67    0.15
   7  -8   9    0.57    0.12
   7  -8   9    0.81    0.15
  -8   8  -9    0.31    0.14
   8  -8   9    0.21    0.13
   8  -8   9    0.19    0.11
   6   7  -9    1.92    0.19
   5   7  -9    4.21    0.28
  -5  -7   9    3.99    0.25
   4   7  -9    7.66    0.34
  -4  -7   9    7.02    0.27
  -4  -7   9    7.59    0.32
   3   7  -9   -0.07    0.08
  -3  -7   9    0.00    0.06
  -3  -7   9    0.01    0.08
   2   7  -9    2.38    0.18
   2   7  -9    2.34    0.20
  -2  -7   9    2.69    0.18
  -2  -7   9    2.34    0.17
   1   7  -9    0.24    0.09
   1   7  -9    0.42    0.08
  -1  -7   9    0.31    0.08
  -1  -7   9    0.33    0.08
  -1  -7   9    0.31    0.09
   0   7  -9    0.89    0.08
   0   7  -9    0.83    0.11
   0   7  -9    0.71    0.10
   0  -7   9    0.60    0.10
   0  -7   9    0.85    0.09
   0  -7   9    0.67    0.10
  -1   7  -9    6.80    0.29
  -1   7  -9    7.05    0.30
  -1   7  -9    6.70    0.22
   1  -7   9    6.82    0.24
   1  -7   9    6.81    0.30
   1  -7   9    6.29    0.25
   1  -7   9    6.61    0.30
  -2   7  -9   17.56    0.54
  -2   7  -9   16.03    0.58
   2  -7   9   16.42    0.49
   2  -7   9   16.57    0.50
   2  -7   9   15.45    0.58
   2  -7   9   16.71    0.46
  -3   7  -9    0.03    0.08
  -3   7  -9   -0.02    0.08
   3  -7   9   -0.01    0.09
   3  -7   9    0.06    0.07
   3  -7   9    0.07    0.06
  -4   7  -9    1.79    0.19
  -4   7  -9    1.75    0.19
   4  -7   9    1.71    0.19
   4  -7   9    1.62    0.16
  -5   7  -9    0.91    0.13
  -5   7  -9    0.87    0.14
   5  -7   9    0.97    0.15
   5  -7   9    0.92    0.12
  -6   7  -9    2.19    0.21
  -6   7  -9    2.38    0.24
   6  -7   9    2.18    0.20
   6  -7   9    2.09    0.24
  -7   7  -9    1.37    0.18
   7  -7   9    1.19    0.17
   7  -7   9    1.34    0.15
  -8   7  -9   -0.05    0.12
   8  -7   9    0.04    0.12
   8  -7   9    0.10    0.11
   6   6  -9    0.03    0.10
  -6  -6   9    0.07    0.06
  -6  -6   9    0.17    0.10
   5   6  -9    6.55    0.32
  -5  -6   9    6.57    0.29
  -5  -6   9    6.27    0.26
   4   6  -9   -0.15    0.08
  -4  -6   9   -0.02    0.06
  -4  -6   9    0.09    0.08
   3   6  -9    8.48    0.34
   3   6  -9    8.11    0.32
  -3  -6   9    8.12    0.30
  -3  -6   9    8.10    0.32
   2   6  -9    1.37    0.14
   2   6  -9    1.22    0.13
  -2  -6   9    1.56    0.13
  -2  -6   9    1.24    0.13
  -2  -6   9    1.37    0.14
   1   6  -9    5.04    0.20
   1   6  -9    5.14    0.24
   1   6  -9    5.06    0.25
  -1  -6   9    5.11    0.21
  -1  -6   9    5.46    0.24
  -1  -6   9    4.90    0.24
   0   6  -9    0.25    0.05
   0   6  -9    0.23    0.08
   0   6  -9    0.25    0.08
   0  -6   9    0.33    0.08
   0  -6   9    0.28    0.07
   0  -6   9    0.17    0.08
  -1   6  -9   14.89    0.53
  -1   6  -9   14.54    0.42
  -1   6  -9   15.55    0.49
   1  -6   9   15.16    0.44
   1  -6   9   13.97    0.52
   1  -6   9   15.02    0.53
  -2   6  -9   11.27    0.41
  -2   6  -9   11.50    0.44
   2  -6   9   11.72    0.36
   2  -6   9   11.74    0.38
   2  -6   9   11.74    0.44
  -3   6  -9    0.52    0.11
  -3   6  -9    0.41    0.10
   3  -6   9    0.49    0.09
   3  -6   9    0.49    0.07
   3  -6   9    0.51    0.11
  -4   6  -9   11.25    0.45
  -4   6  -9   11.32    0.41
   4  -6   9   10.88    0.38
   4  -6   9   11.30    0.45
  -5   6  -9    1.33    0.15
  -5   6  -9    1.77    0.20
   5  -6   9    1.30    0.14
   5  -6   9    1.56    0.17
  -6   6  -9    0.20    0.12
   6  -6   9    0.18    0.10
   6  -6   9    0.26    0.12
  -7   6  -9    0.64    0.15
   7  -6   9    0.52    0.15
   7  -6   9    0.60    0.13
   7   5  -9    0.92    0.14
  -7  -5   9    0.80    0.09
  -7  -5   9    0.91    0.13
   6   5  -9    0.17    0.10
  -6  -5   9    0.18    0.07
  -6  -5   9    0.15    0.09
   5   5  -9    9.22    0.37
  -5  -5   9    9.04    0.34
  -5  -5   9    8.92    0.34
   4   5  -9    0.00    0.06
   4   5  -9    0.09    0.08
  -4  -5   9    0.04    0.07
  -4  -5   9   -0.09    0.07
   3   5  -9    4.86    0.24
   3   5  -9    5.02    0.21
   3   5  -9    5.46    0.24
  -3  -5   9    5.11    0.23
  -3  -5   9    5.02    0.24
  -3  -5   9    5.61    0.23
   2   5  -9   13.52    0.48
   2   5  -9   13.43    0.46
  -2  -5   9   13.97    0.48
  -2  -5   9   13.72    0.41
  -2  -5   9   12.98    0.48
   1   5  -9    1.43    0.14
   1   5  -9    1.83    0.15
  -1  -5   9    2.06    0.15
  -1  -5   9    1.50    0.16
   0   5  -9    1.52    0.15
   0   5  -9    1.74    0.16
   0  -5   9    1.88    0.15
   0  -5   9    1.38    0.16
  -1   5  -9    1.71    0.08
  -1   5  -9    1.96    0.17
  -1   5  -9    1.62    0.15
   1  -5   9    2.00    0.10
   1  -5   9    1.95    0.17
  -2   5  -9    2.94    0.20
  -2   5  -9    2.66    0.18
   2  -5   9    3.07    0.20
   2  -5   9    2.92    0.12
   2  -5   9    2.86    0.17
  -3   5  -9    0.01    0.09
  -3   5  -9   -0.06    0.07
   3  -5   9    0.03    0.09
   3  -5   9   -0.04    0.06
  -4   5  -9    0.68    0.11
  -4   5  -9    0.72    0.12
   4  -5   9    0.66    0.12
   4  -5   9    0.82    0.11
  -5   5  -9    0.59    0.13
  -5   5  -9    0.50    0.11
   5  -5   9    0.64    0.13
   5  -5   9    0.64    0.12
  -6   5  -9    0.17    0.12
   6  -5   9    0.34    0.11
   6  -5   9    0.21    0.12
  -7   5  -9    0.80    0.16
   7  -5   9    1.07    0.17
   7  -5   9    0.89    0.14
   8   4  -9    0.28    0.11
  -8  -4   9    0.15    0.07
  -8  -4   9    0.22    0.10
   7   4  -9    1.56    0.17
  -7  -4   9    1.59    0.15
  -7  -4   9    1.77    0.16
   6   4  -9    8.64    0.36
  -6  -4   9    8.73    0.34
  -6  -4   9    8.87    0.34
   5   4  -9    3.13    0.18
   5   4  -9    3.36    0.21
  -5  -4   9    2.84    0.18
  -5  -4   9    2.83    0.19
   4   4  -9    4.93    0.20
   4   4  -9    4.70    0.24
   4   4  -9    5.36    0.26
  -4  -4   9    4.80    0.23
  -4  -4   9    5.02    0.24
  -4  -4   9    4.86    0.23
   3   4  -9   71.53    2.08
   3   4  -9   69.08    1.91
   3   4  -9   68.82    1.89
  -3  -4   9   71.26    1.76
  -3  -4   9   70.17    2.08
  -3  -4   9   73.21    2.08
   2   4  -9    0.67    0.11
   2   4  -9    1.29    0.14
  -2  -4   9    1.20    0.14
  -2  -4   9    1.10    0.12
   1   4  -9   -0.02    0.07
   1   4  -9   -0.05    0.07
  -1  -4   9   -0.04    0.06
  -1  -4   9    0.01    0.06
   0   4  -9    0.98    0.11
   0   4  -9    1.02    0.11
   0  -4   9    0.90    0.12
  -1   4  -9    0.95    0.11
  -1   4  -9    0.99    0.12
  -2   4  -9    0.39    0.10
  -2   4  -9    0.28    0.08
   2  -4   9    0.21    0.08
   2  -4   9    0.38    0.11
  -3   4  -9   11.40    0.46
  -3   4  -9   11.91    0.42
   3  -4   9   10.95    0.39
   3  -4   9   11.64    0.46
  -4   4  -9    2.29    0.21
  -4   4  -9    2.07    0.19
   4  -4   9    2.07    0.19
   4  -4   9    2.23    0.18
   4  -4   9    2.12    0.20
  -5   4  -9    0.86    0.14
   5  -4   9    1.09    0.13
   5  -4   9    0.73    0.14
  -6   4  -9    0.39    0.13
   6  -4   9    0.37    0.12
   6  -4   9    0.26    0.13
   7  -4   9    1.71    0.18
   7  -4   9    1.85    0.20
   8   3  -9    0.52    0.12
  -8  -3   9    0.42    0.11
  -8  -3   9    0.51    0.10
   7   3  -9    0.79    0.12
  -7  -3   9    0.64    0.11
  -7  -3   9    0.82    0.13
   6   3  -9    1.51    0.15
   6   3  -9    1.31    0.14
  -6  -3   9    1.45    0.15
  -6  -3   9    1.24    0.13
   5   3  -9    1.06    0.13
   5   3  -9    1.36    0.12
   5   3  -9    1.35    0.15
  -5  -3   9    1.44    0.14
  -5  -3   9    1.24    0.13
  -5  -3   9    1.58    0.14
   4   3  -9    1.33    0.13
   4   3  -9    1.35    0.14
  -4  -3   9    1.66    0.17
  -4  -3   9    1.70    0.19
   3   3  -9   11.29    0.41
   3   3  -9   12.24    0.44
   3   3  -9   11.31    0.35
  -3  -3   9   12.02    0.43
  -3  -3   9   12.22    0.44
   2   3  -9    0.83    0.11
   2   3  -9    1.01    0.12
  -2  -3   9    0.97    0.11
  -2  -3   9    0.98    0.12
   1   3  -9    3.11    0.19
   1   3  -9    3.68    0.21
  -1  -3   9    3.09    0.20
   0   3  -9    7.80    0.30
   0   3  -9    8.10    0.34
   0  -3   9    7.59    0.33
   0  -3   9    8.14    0.29
  -1   3  -9    3.09    0.21
  -1   3  -9    3.69    0.20
   1  -3   9    3.61    0.23
   1  -3   9    3.06    0.20
  -2   3  -9    1.29    0.13
  -2   3  -9    0.97    0.15
   2  -3   9    1.35    0.14
   2  -3   9    1.32    0.16
   2  -3   9    1.03    0.13
  -3   3  -9    6.74    0.34
  -3   3  -9    6.31    0.29
   3  -3   9    6.77    0.29
   3  -3   9    6.80    0.34
   3  -3   9    6.57    0.29
  -4   3  -9    0.43    0.13
   4  -3   9    0.74    0.12
   4  -3   9    0.62    0.11
   4  -3   9    0.66    0.13
  -5   3  -9    0.04    0.11
   5  -3   9   -0.01    0.10
   5  -3   9   -0.09    0.09
   5  -3   9    0.03    0.09
  -6   3  -9    0.21    0.12
   6  -3   9    0.32    0.12
   6  -3   9    0.29    0.11
   6  -3   9    0.42    0.13
   9   2  -9    3.94    0.27
  -9  -2   9    3.69    0.23
  -9  -2   9    4.02    0.26
   8   2  -9    4.47    0.26
  -8  -2   9    4.18    0.25
  -8  -2   9    4.43    0.24
   7   2  -9    0.14    0.09
  -7  -2   9    0.10    0.08
  -7  -2   9    0.10    0.09
   6   2  -9    0.49    0.10
   6   2  -9    0.58    0.10
  -6  -2   9    0.43    0.10
  -6  -2   9    0.57    0.10
   5   2  -9   24.56    0.73
   5   2  -9   23.54    0.69
   5   2  -9   24.46    0.79
  -5  -2   9   24.08    0.79
  -5  -2   9   24.04    0.78
   4   2  -9   11.02    0.41
   4   2  -9    9.87    0.32
   4   2  -9   10.79    0.38
  -4  -2   9   11.41    0.42
  -4  -2   9   10.34    0.40
   3   2  -9    8.26    0.31
   3   2  -9    8.34    0.35
  -3  -2   9    8.43    0.34
  -3  -2   9    8.45    0.35
   2   2  -9    0.10    0.07
   2   2  -9    0.07    0.08
  -2  -2   9    0.08    0.07
  -2  -2   9    0.02    0.08
   1   2  -9    0.01    0.08
   1   2  -9    0.03    0.07
  -1  -2   9   -0.03    0.07
  -1  -2   9    0.03    0.08
   0   2  -9    1.37    0.15
   0   2  -9    1.51    0.17
   0  -2   9    1.41    0.15
   0  -2   9    1.84    0.16
  -1   2  -9   24.53    0.83
  -1   2  -9   25.10    0.74
  -1   2  -9   24.85    0.68
   1  -2   9   25.71    0.84
   1  -2   9   25.34    0.72
  -2   2  -9   27.91    0.80
  -2   2  -9   26.30    0.89
   2  -2   9   26.79    0.78
   2  -2   9   26.71    0.76
  -3   2  -9    0.51    0.13
   3  -2   9    0.61    0.11
   3  -2   9    0.72    0.12
   3  -2   9    0.50    0.13
  -4   2  -9    0.53    0.13
   4  -2   9    0.50    0.12
   4  -2   9    0.22    0.11
   4  -2   9    0.48    0.11
  -5   2  -9    1.06    0.16
   5  -2   9    1.27    0.15
   5  -2   9    1.20    0.15
   5  -2   9    1.13    0.16
   6  -2   9    0.22    0.11
   9   1  -9    0.31    0.11
  -9  -1   9    0.25    0.10
  -9  -1   9    0.21    0.10
   8   1  -9    0.12    0.09
  -8  -1   9    0.05    0.09
  -8  -1   9    0.12    0.09
   7   1  -9   -0.02    0.08
   7   1  -9   -0.09    0.08
  -7  -1   9    0.11    0.09
  -7  -1   9   -0.07    0.08
   6   1  -9    0.51    0.10
   6   1  -9    0.13    0.11
  -6  -1   9    0.16    0.11
  -6  -1   9    0.10    0.09
   5   1  -9   19.34    0.60
   5   1  -9   18.93    0.66
  -5  -1   9   20.49    0.68
  -5  -1   9   18.90    0.66
   4   1  -9    2.96    0.19
   4   1  -9    2.92    0.21
   4   1  -9    2.97    0.11
  -4  -1   9    3.04    0.21
  -4  -1   9    3.21    0.17
   3   1  -9   14.41    0.51
   3   1  -9   13.20    0.45
  -3  -1   9   13.67    0.43
  -3  -1   9   14.48    0.51
   2   1  -9   11.21    0.38
   2   1  -9   11.59    0.44
  -2  -1   9   11.17    0.38
  -2  -1   9   11.90    0.45
   1   1  -9    4.66    0.22
   1   1  -9    5.32    0.28
  -1  -1   9    5.41    0.24
  -1  -1   9    5.51    0.27
   0   1  -9    0.07    0.11
   0   1  -9    0.48    0.09
   0  -1   9    0.22    0.12
   0  -1   9    0.54    0.10
  -1   1  -9   46.38    1.44
  -1   1  -9   46.51    1.29
  -1   1  -9   45.86    1.25
   1  -1   9   47.25    1.44
   1  -1   9   46.88    1.26
  -2   1  -9    2.79    0.23
  -2   1  -9    1.75    0.19
   2  -1   9    2.97    0.21
   2  -1   9    2.46    0.22
  -3   1  -9   -0.06    0.10
   3  -1   9   -0.11    0.09
   3  -1   9   -0.09    0.10
   3  -1   9   -0.09    0.08
  -4   1  -9    4.12    0.29
   4  -1   9    4.70    0.26
   4  -1   9    4.33    0.27
   4  -1   9    4.35    0.29
  -5   1  -9    0.05    0.12
  -5   1  -9   -0.05    0.10
   5  -1   9    0.06    0.10
   5  -1   9   -0.03    0.10
  10   0  -9   -0.01    0.09
 -10   0   9    0.07    0.09
 -10   0   9   -0.04    0.10
   9   0  -9    0.96    0.14
  -9   0   9    1.00    0.14
  -9   0   9    1.15    0.14
   8   0  -9    5.09    0.28
   8   0  -9    5.09    0.26
  -8   0   9    5.12    0.26
  -8   0   9    4.96    0.28
   7   0  -9    2.48    0.19
   7   0  -9    2.12    0.21
  -7   0   9    2.38    0.22
   6   0  -9    3.59    0.24
   6   0  -9    3.39    0.20
  -6   0   9    3.48    0.23
   5   0  -9    3.00    0.18
   5   0  -9    3.13    0.22
  -5   0   9    2.95    0.17
  -5   0   9    2.88    0.22
   4   0  -9    2.67    0.17
   4   0  -9    2.43    0.20
  -4   0   9    2.71    0.17
  -4   0   9    2.64    0.21
   3   0  -9    0.54    0.12
   3   0  -9    0.66    0.09
  -3   0   9    0.73    0.10
  -3   0   9    0.67    0.12
   2   0  -9    1.40    0.13
   2   0  -9    1.19    0.14
  -2   0   9    1.33    0.13
  -2   0   9    1.27    0.15
   1   0  -9    0.25    0.07
   1   0  -9   -0.11    0.10
  -1   0   9    0.02    0.11
  -1   0   9    0.17    0.09
   0   0  -9    4.32    0.22
   0   0  -9    4.42    0.19
   0   0   9    4.38    0.25
  -1   0  -9    1.36    0.11
  -1   0  -9    1.42    0.16
  -1   0  -9    1.45    0.13
   1   0   9    1.54    0.15
   1   0   9    1.92    0.22
  -2   0  -9    0.06    0.10
   2   0   9    0.19    0.10
   2   0   9    0.20    0.11
  -3   0  -9   -0.02    0.11
   3   0   9   -0.09    0.11
   3   0   9   -0.14    0.10
  -4   0  -9    0.70    0.16
  -4   0  -9    0.75    0.14
   4   0   9    0.59    0.14
   4   0   9    1.01    0.13
  10  -1  -9    0.39    0.11
 -10   1   9    0.36    0.12
 -10   1   9    0.44    0.12
   9  -1  -9    0.56    0.11
   9  -1  -9    0.49    0.12
  -9   1   9    0.61    0.13
  -9   1   9    0.54    0.12
   8  -1  -9    0.05    0.11
   8  -1  -9    0.18    0.09
  -8   1   9    0.04    0.10
   7  -1  -9    3.41    0.25
   7  -1  -9    3.84    0.21
  -7   1   9    3.57    0.17
  -7   1   9    3.57    0.25
   6  -1  -9    5.57    0.29
   6  -1  -9    5.64    0.25
  -6   1   9    5.50    0.30
  -6   1   9    5.32    0.22
   5  -1  -9    3.42    0.18
   5  -1  -9    3.33    0.24
  -5   1   9    2.91    0.18
  -5   1   9    3.59    0.24
  -5   1   9    2.87    0.19
   4  -1  -9    0.05    0.09
   4  -1  -9    0.09    0.06
  -4   1   9    0.08    0.08
  -4   1   9    0.16    0.08
  -4   1   9    0.11    0.09
   3  -1  -9    9.34    0.32
   3  -1  -9    9.18    0.39
  -3   1   9    8.76    0.33
  -3   1   9    9.29    0.39
  -3   1   9    9.44    0.34
   2  -1  -9    3.01    0.16
   2  -1  -9    2.16    0.21
  -2   1   9    2.71    0.22
  -2   1   9    2.80    0.20
  -2   1   9    2.94    0.20
   1  -1  -9    7.29    0.36
   1  -1  -9    8.06    0.29
  -1   1   9    7.61    0.37
  -1   1   9    8.03    0.31
  -1   1   9    7.93    0.32
   0  -1  -9    1.75    0.15
   0  -1  -9    1.36    0.16
   0  -1  -9    1.43    0.15
   0   1   9    1.90    0.22
   0   1   9    1.82    0.18
   0   1   9    1.86    0.19
  -1  -1  -9   -0.01    0.10
   1   1   9   -0.08    0.09
   1   1   9   -0.08    0.09
  -2  -1  -9    0.16    0.11
  -2  -1  -9    0.02    0.12
   2   1   9    0.13    0.11
   2   1   9    0.03    0.11
  -3  -1  -9    0.66    0.16
  -3  -1  -9    0.74    0.14
   3   1   9    0.55    0.14
  10  -2  -9    0.38    0.11
 -10   2   9    0.53    0.12
 -10   2   9    0.32    0.12
   9  -2  -9    0.25    0.13
   9  -2  -9    0.53    0.11
  -9   2   9    0.41    0.13
  -9   2   9    0.42    0.11
   8  -2  -9    0.10    0.08
   8  -2  -9   -0.04    0.10
  -8   2   9    0.05    0.11
  -8   2   9    0.19    0.06
   7  -2  -9    0.10    0.08
   7  -2  -9    0.28    0.11
  -7   2   9    0.22    0.09
  -7   2   9    0.27    0.11
  -7   2   9    0.22    0.07
   6  -2  -9    1.36    0.16
   6  -2  -9    1.19    0.11
  -6   2   9    1.30    0.14
  -6   2   9    1.30    0.12
  -6   2   9    1.32    0.16
   5  -2  -9    2.16    0.15
   5  -2  -9    2.42    0.22
  -5   2   9    2.21    0.22
  -5   2   9    2.02    0.18
  -5   2   9    1.95    0.19
   4  -2  -9    0.09    0.10
   4  -2  -9   -0.03    0.06
  -4   2   9   -0.03    0.08
  -4   2   9    0.13    0.09
  -4   2   9   -0.02    0.10
   3  -2  -9    2.31    0.23
   3  -2  -9    1.99    0.14
  -3   2   9    2.10    0.20
  -3   2   9    1.84    0.19
  -3   2   9    1.92    0.22
   2  -2  -9    0.31    0.07
   2  -2  -9    0.21    0.12
  -2   2   9    0.46    0.11
  -2   2   9    0.25    0.12
  -2   2   9    0.29    0.10
   1  -2  -9    2.70    0.18
   1  -2  -9    2.26    0.23
  -1   2   9    1.92    0.23
  -1   2   9    2.24    0.20
  -1   2   9    2.25    0.21
   0  -2  -9    2.35    0.18
   0  -2  -9    2.63    0.23
   0  -2  -9    2.16    0.23
   0   2   9    2.19    0.20
   0   2   9    2.16    0.22
   0   2   9    2.36    0.23
  -1  -2  -9    0.19    0.11
  -1  -2  -9    0.13    0.12
  -1  -2  -9    0.07    0.08
   1   2   9    0.05    0.11
   1   2   9    0.14    0.11
   1   2   9    0.13    0.10
  -2  -2  -9    0.02    0.12
  -2  -2  -9    0.04    0.11
   2   2   9    0.00    0.12
  10  -3  -9    0.96    0.13
  10  -3  -9    1.17    0.18
 -10   3   9    1.01    0.14
   9  -3  -9    0.27    0.09
   9  -3  -9    0.18    0.13
  -9   3   9    0.22    0.12
   8  -3  -9    3.18    0.20
   8  -3  -9    3.58    0.27
  -8   3   9    3.29    0.26
  -8   3   9    3.42    0.22
  -8   3   9    3.21    0.18
   7  -3  -9    0.20    0.12
   7  -3  -9    0.22    0.07
  -7   3   9    0.23    0.09
  -7   3   9    0.24    0.12
  -7   3   9    0.27    0.08
   6  -3  -9    0.05    0.10
   6  -3  -9   -0.02    0.06
  -6   3   9    0.00    0.10
  -6   3   9    0.03    0.08
  -6   3   9   -0.04    0.08
   5  -3  -9    0.65    0.08
   5  -3  -9    0.65    0.14
  -5   3   9    0.55    0.11
  -5   3   9    0.77    0.12
  -5   3   9    0.77    0.14
   4  -3  -9    1.05    0.11
   4  -3  -9    1.24    0.17
  -4   3   9    1.02    0.15
  -4   3   9    1.04    0.14
  -4   3   9    1.12    0.14
   3  -3  -9    0.47    0.07
   3  -3  -9    0.49    0.11
   3  -3  -9    0.42    0.13
  -3   3   9    0.20    0.13
  -3   3   9    0.53    0.12
  -3   3   9    0.62    0.12
   2  -3  -9    0.08    0.11
   2  -3  -9    0.00    0.10
  -2   3   9    0.04    0.11
  -2   3   9    0.10    0.10
  -2   3   9    0.03    0.10
   1  -3  -9    0.10    0.11
   1  -3  -9    0.27    0.10
   1  -3  -9    0.22    0.12
  -1   3   9    0.21    0.12
  -1   3   9    0.26    0.11
  -1   3   9    0.15    0.11
   0  -3  -9    0.00    0.11
   0  -3  -9    0.10    0.11
   0  -3  -9   -0.15    0.08
   0   3   9    0.04    0.10
   0   3   9    0.08    0.11
  -1  -3  -9    4.02    0.29
  -1  -3  -9    4.39    0.31
   1   3   9    4.05    0.26
   1   3   9    4.12    0.29
   9  -4  -9    0.48    0.14
  -9   4   9    0.33    0.11
  -9   4   9    0.34    0.14
   8  -4  -9   -0.12    0.10
  -8   4   9   -0.04    0.11
  -8   4   9   -0.04    0.08
  -8   4   9    0.03    0.09
   7  -4  -9    0.47    0.13
  -7   4   9    0.41    0.10
  -7   4   9    0.51    0.13
  -7   4   9    0.39    0.11
   6  -4  -9    0.73    0.15
  -6   4   9    0.88    0.16
  -6   4   9    0.82    0.13
  -6   4   9    0.86    0.13
   5  -4  -9    3.79    0.22
   5  -4  -9    4.10    0.29
  -5   4   9    3.97    0.24
  -5   4   9    4.41    0.25
  -5   4   9    3.75    0.29
   4  -4  -9    1.21    0.14
   4  -4  -9    0.86    0.16
  -4   4   9    1.03    0.17
  -4   4   9    1.02    0.14
  -4   4   9    1.14    0.14
   3  -4  -9    2.68    0.26
   3  -4  -9    2.93    0.23
  -3   4   9    2.98    0.23
  -3   4   9    2.63    0.26
  -3   4   9    2.46    0.23
   2  -4  -9    2.68    0.25
   2  -4  -9    2.43    0.21
   2  -4  -9    2.52    0.25
  -2   4   9    2.74    0.24
  -2   4   9    2.80    0.23
  -2   4   9    2.85    0.26
   1  -4  -9    0.30    0.12
   1  -4  -9    0.23    0.11
   1  -4  -9   -0.08    0.11
  -1   4   9    0.28    0.11
  -1   4   9    0.29    0.12
   8  -5  -9    1.50    0.19
  -8   5   9    1.62    0.20
  -8   5   9    1.49    0.16
  -8   5   9    1.27    0.14
   7  -5  -9    0.69    0.15
  -7   5   9    0.54    0.11
  -7   5   9    0.76    0.15
  -7   5   9    0.57    0.13
   6  -5  -9    1.44    0.19
  -6   5   9    1.17    0.18
  -6   5   9    1.00    0.14
  -6   5   9    1.29    0.16
   5  -5  -9    0.01    0.13
  -5   5   9    0.00    0.12
  -5   5   9    0.14    0.11
  -5   5   9    0.18    0.10
   4  -5  -9    0.02    0.12
   4  -5  -9    0.03    0.09
  -4   5   9   -0.07    0.10
  -4   5   9    0.00    0.10
  -4   5   9   -0.17    0.11
   3  -5  -9    0.51    0.12
   3  -5  -9    0.42    0.14
   3  -5  -9    0.26    0.11
  -3   5   9    0.36    0.14
  -3   5   9    0.22    0.12
  -3   5   9    0.35    0.12
   0  11 -10    0.58    0.12
   0 -11  10    0.51    0.09
  -1  11 -10    0.30    0.11
   1 -11  10    0.25    0.09
   1 -11  10    0.21    0.09
  -2  11 -10    0.16    0.10
   2 -11  10    0.25    0.10
   2 -11  10    0.31    0.10
  -3  11 -10   -0.01    0.10
   3 -11  10    0.01    0.09
   3 -11  10    0.05    0.08
  -4  11 -10    2.33    0.23
   4 -11  10    2.64    0.24
   4 -11  10    2.42    0.20
  -5  11 -10    0.18    0.11
   5 -11  10    0.36    0.13
   5 -11  10    0.41    0.10
   5 -11  10    0.31    0.09
   1  10 -10    0.06    0.11
  -1 -10  10    0.20    0.09
  -1 -10  10    0.20    0.07
   0  10 -10    0.71    0.13
   0 -10  10    0.74    0.10
   0 -10  10    0.93    0.12
  -1  10 -10    0.99    0.14
   1 -10  10    1.05    0.13
   1 -10  10    1.53    0.15
  -2  10 -10    0.03    0.09
   2 -10  10    0.06    0.08
   2 -10  10    0.18    0.09
   2 -10  10    0.15    0.07
  -3  10 -10    0.41    0.12
  -3  10 -10    0.68    0.13
   3 -10  10    0.38    0.11
   3 -10  10    0.50    0.10
  -4  10 -10    0.11    0.10
  -4  10 -10    0.09    0.10
   4 -10  10    0.17    0.07
   4 -10  10    0.15    0.10
   4 -10  10    0.10    0.08
  -5  10 -10    0.43    0.12
  -5  10 -10    0.37    0.12
   5 -10  10    0.47    0.12
   5 -10  10    0.40    0.09
   5 -10  10    0.41    0.09
  -6  10 -10    0.41    0.13
  -6  10 -10    0.57    0.14
   6 -10  10    0.40    0.10
   6 -10  10    0.30    0.13
   6 -10  10    0.43    0.11
   3   9 -10    2.27    0.23
  -3  -9  10    2.03    0.18
  -3  -9  10    2.10    0.14
   2   9 -10    0.03    0.11
  -2  -9  10    0.01    0.09
  -2  -9  10    0.07    0.07
   1   9 -10    0.50    0.12
  -1  -9  10    0.63    0.11
  -1  -9  10    0.58    0.10
   0   9 -10    1.06    0.14
   0  -9  10    1.41    0.13
   0  -9  10    1.13    0.13
  -1   9 -10    0.17    0.10
   1  -9  10    0.19    0.08
   1  -9  10    0.14    0.07
   1  -9  10    0.15    0.08
  -2   9 -10    1.09    0.14
  -2   9 -10    1.12    0.14
   2  -9  10    1.22    0.14
   2  -9  10    1.14    0.12
   2  -9  10    1.54    0.13
  -3   9 -10    1.09    0.14
  -3   9 -10    1.09    0.14
   3  -9  10    1.09    0.11
   3  -9  10    1.12    0.11
   3  -9  10    1.23    0.10
   3  -9  10    1.05    0.14
  -4   9 -10    0.18    0.11
  -4   9 -10    0.25    0.10
   4  -9  10    0.17    0.08
   4  -9  10    0.34    0.08
   4  -9  10    0.13    0.10
  -5   9 -10   -0.04    0.10
  -5   9 -10   -0.14    0.09
   5  -9  10    0.00    0.10
   5  -9  10    0.04    0.07
   5  -9  10    0.02    0.08
  -6   9 -10    0.03    0.11
  -6   9 -10   -0.09    0.09
   6  -9  10   -0.03    0.08
   6  -9  10   -0.08    0.11
  -7   9 -10    5.89    0.36
   7  -9  10    5.52    0.35
   7  -9  10    5.42    0.29
   4   8 -10   14.13    0.52
  -4  -8  10   13.62    0.47
  -4  -8  10   13.21    0.45
   3   8 -10    0.04    0.11
  -3  -8  10   -0.14    0.09
  -3  -8  10    0.01    0.07
   2   8 -10    9.06    0.38
  -2  -8  10    8.81    0.35
  -2  -8  10    9.15    0.34
   1   8 -10   10.57    0.41
  -1  -8  10   10.35    0.35
  -1  -8  10   10.23    0.39
   0   8 -10    0.21    0.08
   0   8 -10    0.16    0.10
   0  -8  10    0.33    0.10
   0  -8  10    0.18    0.08
  -1   8 -10    4.47    0.26
  -1   8 -10    4.80    0.26
   1  -8  10    4.46    0.20
   1  -8  10    4.74    0.21
   1  -8  10    4.61    0.26
  -2   8 -10    1.17    0.14
  -2   8 -10    1.44    0.15
   2  -8  10    1.47    0.13
   2  -8  10    1.46    0.13
   2  -8  10    1.27    0.15
  -3   8 -10    0.02    0.09
  -3   8 -10    0.02    0.09
   3  -8  10    0.08    0.10
   3  -8  10    0.05    0.07
   3  -8  10    0.07    0.06
   3  -8  10    0.07    0.06
  -4   8 -10    0.33    0.12
  -4   8 -10    0.47    0.11
   4  -8  10    0.43    0.10
   4  -8  10    0.36    0.08
   4  -8  10    0.31    0.12
  -5   8 -10    0.07    0.11
  -5   8 -10    0.34    0.11
   5  -8  10    0.45    0.10
   5  -8  10    0.39    0.08
   5  -8  10    0.20    0.12
  -6   8 -10    0.05    0.12
  -6   8 -10    0.03    0.10
   6  -8  10    0.04    0.12
   6  -8  10    0.07    0.09
  -7   8 -10    0.05    0.13
   7  -8  10    0.07    0.13
   7  -8  10    0.11    0.10
   5   7 -10    5.96    0.32
  -5  -7  10    5.37    0.24
  -5  -7  10    6.24    0.30
   4   7 -10    3.69    0.26
  -4  -7  10    3.26    0.19
  -4  -7  10    3.51    0.23
   3   7 -10    3.90    0.25
  -3  -7  10    3.78    0.21
  -3  -7  10    3.99    0.22
   2   7 -10    7.26    0.33
  -2  -7  10    7.55    0.29
  -2  -7  10    7.07    0.31
   1   7 -10   12.12    0.44
   1   7 -10   11.86    0.44
  -1  -7  10   11.97    0.45
  -1  -7  10   12.01    0.39
   0   7 -10   14.21    0.49
   0   7 -10   12.97    0.50
   0  -7  10   14.26    0.42
   0  -7  10   13.94    0.51
  -1   7 -10    2.52    0.21
  -1   7 -10    2.78    0.21
   1  -7  10    2.75    0.15
   1  -7  10    2.61    0.16
   1  -7  10    2.82    0.21
  -2   7 -10    5.64    0.28
  -2   7 -10    5.63    0.29
   2  -7  10    5.47    0.29
   2  -7  10    5.34    0.21
  -3   7 -10    3.78    0.24
  -3   7 -10    4.02    0.26
   3  -7  10    3.73    0.18
   3  -7  10    3.98    0.26
   3  -7  10    3.84    0.21
  -4   7 -10    0.11    0.11
  -4   7 -10    0.11    0.10
   4  -7  10    0.17    0.07
   4  -7  10    0.10    0.11
   4  -7  10    0.12    0.09
  -5   7 -10    2.85    0.24
  -5   7 -10    2.92    0.26
   5  -7  10    2.77    0.26
   5  -7  10    2.73    0.21
  -6   7 -10    2.34    0.26
   6  -7  10    2.37    0.26
   6  -7  10    1.83    0.18
  -7   7 -10    0.26    0.14
   7  -7  10    0.05    0.13
   7  -7  10    0.07    0.11
   6   6 -10    1.46    0.17
  -6  -6  10    1.59    0.17
  -6  -6  10    1.27    0.14
   5   6 -10    0.11    0.10
  -5  -6  10    0.10    0.10
   4   6 -10    1.20    0.14
  -4  -6  10    1.27    0.14
   3   6 -10    0.08    0.09
  -3  -6  10    0.04    0.08
   2   6 -10    0.28    0.10
   2   6 -10    0.21    0.09
  -2  -6  10    0.21    0.09
  -2  -6  10    0.33    0.09
   1   6 -10    0.82    0.12
   1   6 -10    0.64    0.11
  -1  -6  10    0.79    0.11
  -1  -6  10    0.61    0.11
  -1  -6  10    0.64    0.10
   0   6 -10    0.13    0.09
   0   6 -10    0.07    0.08
   0  -6  10    0.03    0.09
   0  -6  10    0.05    0.08
  -1   6 -10    4.91    0.25
  -1   6 -10    4.47    0.27
   1  -6  10    4.80    0.28
  -2   6 -10    1.41    0.14
  -2   6 -10    1.35    0.15
   2  -6  10    1.69    0.10
   2  -6  10    1.65    0.19
  -3   6 -10    0.46    0.11
  -3   6 -10    0.44    0.12
   3  -6  10    0.55    0.10
   3  -6  10    0.62    0.07
   3  -6  10    0.43    0.12
  -4   6 -10    0.05    0.10
  -4   6 -10    0.05    0.10
   4  -6  10   -0.01    0.10
   4  -6  10    0.01    0.08
  -5   6 -10    1.31    0.16
  -5   6 -10    1.30    0.17
   5  -6  10    1.29    0.17
   5  -6  10    1.58    0.16
  -6   6 -10    0.84    0.16
   6  -6  10    0.87    0.16
   6  -6  10    1.01    0.15
   7   5 -10    1.07    0.15
  -7  -5  10    1.17    0.15
  -7  -5  10    0.99    0.11
   6   5 -10    4.13    0.26
  -6  -5  10    4.17    0.25
  -6  -5  10    3.89    0.21
   5   5 -10    2.27    0.21
  -5  -5  10    2.43    0.19
  -5  -5  10    1.86    0.16
   4   5 -10    0.00    0.08
  -4  -5  10   -0.05    0.07
  -4  -5  10    0.13    0.08
   3   5 -10    2.26    0.19
   3   5 -10    2.10    0.18
  -3  -5  10    2.20    0.18
  -3  -5  10    2.31    0.18
   2   5 -10    3.16    0.21
   2   5 -10    3.40    0.21
  -2  -5  10    2.63    0.21
  -2  -5  10    3.32    0.19
  -2  -5  10    3.57    0.20
   1   5 -10    3.88    0.23
   1   5 -10    3.96    0.23
  -1  -5  10    4.16    0.23
  -1  -5  10    3.69    0.23
   0   5 -10   14.25    0.47
   0   5 -10   13.92    0.52
   0  -5  10   13.43    0.51
  -1   5 -10    2.10    0.20
  -1   5 -10    2.07    0.19
   1  -5  10    2.36    0.21
  -2   5 -10    0.07    0.09
  -2   5 -10    0.02    0.08
   2  -5  10    0.12    0.03
   2  -5  10    0.08    0.09
   2  -5  10    0.06    0.07
  -3   5 -10    0.70    0.12
  -3   5 -10    0.68    0.13
   3  -5  10    0.92    0.12
   3  -5  10    0.78    0.14
  -4   5 -10    0.11    0.10
  -4   5 -10    0.25    0.11
   4  -5  10    0.18    0.11
   4  -5  10    0.18    0.09
  -5   5 -10    0.61    0.14
   5  -5  10    0.33    0.11
   5  -5  10    0.42    0.13
  -6   5 -10    0.55    0.15
   6  -5  10    0.47    0.15
   6  -5  10    0.62    0.13
   7   4 -10    1.52    0.17
  -7  -4  10    1.34    0.14
  -7  -4  10    1.55    0.16
   6   4 -10    1.13    0.14
  -6  -4  10    0.94    0.12
  -6  -4  10    0.95    0.13
   5   4 -10    6.85    0.31
  -5  -4  10    7.01    0.29
  -5  -4  10    6.55    0.30
   4   4 -10    2.81    0.20
   4   4 -10    2.88    0.20
  -4  -4  10    2.78    0.20
  -4  -4  10    3.08    0.19
   3   4 -10    5.48    0.27
   3   4 -10    5.58    0.28
  -3  -4  10    5.37    0.28
  -3  -4  10    5.48    0.27
   2   4 -10    2.03    0.19
   2   4 -10    2.46    0.20
  -2  -4  10    2.43    0.19
  -2  -4  10    2.80    0.19
   1   4 -10    7.21    0.33
   1   4 -10    7.45    0.31
  -1  -4  10    7.48    0.33
   0   4 -10   11.46    0.44
   0   4 -10   11.10    0.40
   0  -4  10   10.96    0.44
  -1   4 -10    0.92    0.13
  -1   4 -10    0.46    0.10
   1  -4  10    0.87    0.13
  -2   4 -10    1.92    0.21
  -2   4 -10    2.25    0.18
   2  -4  10    2.00    0.20
  -3   4 -10    4.19    0.24
  -3   4 -10    3.91    0.26
   3  -4  10    3.93    0.26
   3  -4  10    4.31    0.23
   3  -4  10    3.96    0.23
  -4   4 -10    0.94    0.14
  -4   4 -10    1.14    0.16
   4  -4  10    1.07    0.14
   4  -4  10    1.16    0.14
   4  -4  10    1.11    0.16
  -5   4 -10    5.28    0.32
   5  -4  10    5.35    0.29
   5  -4  10    5.20    0.32
   6  -4  10    3.85    0.27
   6  -4  10    4.00    0.31
   8   3 -10   -0.14    0.09
  -8  -3  10   -0.02    0.08
  -8  -3  10    0.02    0.10
   7   3 -10    5.13    0.28
  -7  -3  10    5.16    0.26
  -7  -3  10    4.98    0.26
   6   3 -10    3.26    0.22
  -6  -3  10    3.69    0.22
  -6  -3  10    2.99    0.21
   5   3 -10    5.17    0.27
   5   3 -10    5.31    0.27
  -5  -3  10    5.24    0.27
  -5  -3  10    5.11    0.25
   4   3 -10   50.96    1.54
   4   3 -10   50.45    1.41
  -4  -3  10   51.15    1.54
  -4  -3  10   49.88    1.53
   3   3 -10    2.56    0.21
   3   3 -10    3.55    0.22
  -3  -3  10    3.40    0.22
   2   3 -10    4.43    0.26
   2   3 -10    4.30    0.23
  -2  -3  10    4.20    0.25
   1   3 -10    5.91    0.29
   1   3 -10    5.55    0.26
  -1  -3  10    6.16    0.26
  -1  -3  10    5.48    0.29
   0   3 -10    2.27    0.18
   0   3 -10    2.72    0.21
   0  -3  10    2.66    0.21
   0  -3  10    2.27    0.18
  -1   3 -10    1.04    0.12
  -1   3 -10    0.98    0.14
   1  -3  10    0.66    0.12
   1  -3  10    0.96    0.14
  -2   3 -10    0.16    0.11
  -2   3 -10    0.22    0.09
   2  -3  10    0.02    0.09
   2  -3  10    0.13    0.11
  -3   3 -10    0.54    0.13
  -3   3 -10    0.44    0.11
   3  -3  10    0.63    0.12
   3  -3  10    0.67    0.11
   3  -3  10    0.61    0.14
  -4   3 -10   -0.02    0.11
   4  -3  10    0.15    0.10
   4  -3  10    0.36    0.11
   4  -3  10    0.07    0.11
  -5   3 -10    1.00    0.17
   5  -3  10    1.09    0.15
   5  -3  10    0.89    0.14
   5  -3  10    1.12    0.17
   8   2 -10    0.06    0.10
  -8  -2  10   -0.08    0.08
  -8  -2  10   -0.07    0.09
   7   2 -10    3.17    0.23
  -7  -2  10    3.14    0.22
  -7  -2  10    3.03    0.22
   6   2 -10    9.98    0.40
   6   2 -10    9.88    0.38
  -6  -2  10    9.74    0.36
  -6  -2  10    9.46    0.40
   5   2 -10   28.58    0.83
   5   2 -10   26.57    0.90
  -5  -2  10   27.14    0.90
   4   2 -10    2.55    0.21
   4   2 -10    2.31    0.19
  -4  -2  10    2.56    0.21
   3   2 -10    6.08    0.27
   3   2 -10    5.83    0.29
  -3  -2  10    5.85    0.29
  -3  -2  10    6.33    0.25
   2   2 -10   17.35    0.55
   2   2 -10   16.95    0.62
  -2  -2  10   18.05    0.63
  -2  -2  10   17.97    0.54
   1   2 -10    5.67    0.29
   1   2 -10    4.97    0.25
  -1  -2  10    4.97    0.24
  -1  -2  10    5.42    0.29
   0   2 -10    2.43    0.18
   0   2 -10    2.88    0.23
   0  -2  10    2.63    0.22
   0  -2  10    2.56    0.20
  -1   2 -10   16.64    0.61
  -1   2 -10   16.25    0.53
   1  -2  10   16.18    0.53
   1  -2  10   16.15    0.61
  -2   2 -10    7.65    0.32
  -2   2 -10    7.69    0.37
   2  -2  10    7.76    0.37
   2  -2  10    7.74    0.34
  -3   2 -10    1.85    0.19
   3  -2  10    1.75    0.16
   3  -2  10    2.15    0.21
   3  -2  10    2.20    0.24
  -4   2 -10   -0.06    0.11
   4  -2  10    0.15    0.10
   4  -2  10    0.04    0.11
   4  -2  10   -0.02    0.10
   9   1 -10    0.23    0.11
  -9  -1  10    0.18    0.10
  -9  -1  10    0.08    0.10
   8   1 -10    7.66    0.34
  -8  -1  10    6.98    0.32
  -8  -1  10    7.57    0.35
   7   1 -10    0.00    0.09
   7   1 -10    0.10    0.10
  -7  -1  10    0.03    0.09
  -7  -1  10    0.12    0.10
   6   1 -10    8.99    0.39
   6   1 -10    8.96    0.35
  -6  -1  10    7.91    0.38
   5   1 -10    0.30    0.11
   5   1 -10    0.26    0.09
  -5  -1  10    0.41    0.11
   4   1 -10    4.27    0.23
   4   1 -10    4.31    0.26
  -4  -1  10    4.24    0.21
  -4  -1  10    4.53    0.27
   3   1 -10   -0.18    0.08
   3   1 -10    0.07    0.07
  -3  -1  10    0.02    0.10
  -3  -1  10    0.07    0.07
   2   1 -10    0.55    0.10
   2   1 -10    0.69    0.13
  -2  -1  10    0.63    0.11
  -2  -1  10    0.58    0.12
   1   1 -10    0.32    0.11
   1   1 -10    0.28    0.09
  -1  -1  10    0.37    0.11
  -1  -1  10    0.41    0.12
   0   1 -10    5.51    0.33
   0   1 -10    5.83    0.26
   0  -1  10    5.97    0.28
   0  -1  10    5.22    0.32
  -1   1 -10    8.56    0.40
  -1   1 -10    8.47    0.34
   1  -1  10    7.87    0.41
   1  -1  10    8.56    0.36
  -2   1 -10   -0.08    0.11
   2  -1  10    0.09    0.11
  -3   1 -10    0.55    0.14
   3  -1  10    0.59    0.13
   3  -1  10    0.63    0.14
   4  -1  10    0.05    0.11
   9   0 -10   -0.04    0.09
  -9   0  10    0.02    0.10
  -9   0  10   -0.07    0.09
   8   0 -10    0.22    0.11
   8   0 -10    0.28    0.10
  -8   0  10    0.35    0.11
  -8   0  10    0.21    0.11
   7   0 -10    9.31    0.37
   7   0 -10    8.86    0.41
  -7   0  10    8.99    0.41
   6   0 -10    3.27    0.25
   6   0 -10    2.68    0.20
  -6   0  10    2.88    0.17
  -6   0  10    2.77    0.23
   5   0 -10    2.15    0.18
   5   0 -10    2.45    0.21
  -5   0  10    2.43    0.22
  -5   0  10    2.30    0.17
   4   0 -10    0.95    0.14
   4   0 -10    1.09    0.11
  -4   0  10    1.00    0.12
  -4   0  10    0.92    0.14
   3   0 -10    1.08    0.15
   3   0 -10    0.99    0.11
  -3   0  10    1.01    0.12
  -3   0  10    1.27    0.16
   2   0 -10    3.21    0.25
   2   0 -10    3.00    0.18
  -2   0  10    3.09    0.24
  -2   0  10    3.05    0.21
   1   0 -10    6.98    0.29
   1   0 -10    7.34    0.37
  -1   0  10    6.68    0.36
  -1   0  10    7.56    0.32
   0   0 -10   16.84    0.52
   0   0 -10   17.51    0.55
   0   0 -10   16.99    0.65
   0   0  10   16.47    0.65
   0   0  10   18.32    0.57
  -1   0 -10    0.80    0.15
   1   0  10    0.88    0.14
   1   0  10    0.56    0.14
  -2   0 -10    0.12    0.12
   2   0  10    0.08    0.11
  -3   0 -10    0.12    0.13
  -3   0 -10    0.28    0.13
   3   0  10    0.22    0.12
   9  -1 -10    0.05    0.09
  -9   1  10   -0.12    0.10
  -9   1  10    0.04    0.10
   8  -1 -10    0.08    0.09
   8  -1 -10   -0.20    0.11
  -8   1  10   -0.11    0.11
   7  -1 -10    1.78    0.18
   7  -1 -10    1.43    0.17
  -7   1  10    1.44    0.17
  -7   1  10    1.86    0.15
   6  -1 -10    0.36    0.12
   6  -1 -10    0.47    0.09
  -6   1  10    0.53    0.12
  -6   1  10    0.22    0.08
   5  -1 -10    6.04    0.32
   5  -1 -10    5.95    0.26
  -5   1  10    5.86    0.32
  -5   1  10    5.97    0.26
   4  -1 -10    0.34    0.12
   4  -1 -10    0.36    0.08
  -4   1  10    0.40    0.12
  -4   1  10    0.44    0.10
   3  -1 -10   -0.07    0.06
   3  -1 -10    0.00    0.10
  -3   1  10   -0.11    0.08
  -3   1  10   -0.10    0.10
  -3   1  10   -0.23    0.08
   2  -1 -10    0.02    0.07
   2  -1 -10   -0.18    0.10
  -2   1  10    0.09    0.09
  -2   1  10    0.04    0.10
  -2   1  10   -0.07    0.11
   1  -1 -10   17.22    0.65
   1  -1 -10   16.90    0.54
  -1   1  10   18.06    0.57
  -1   1  10   17.13    0.65
   0  -1 -10    2.73    0.26
   0  -1 -10    2.46    0.18
   0   1  10    2.45    0.23
   0   1  10    2.55    0.26
  -1  -1 -10    0.63    0.15
   1   1  10    0.71    0.14
   1   1  10    0.69    0.15
  -2  -1 -10    1.24    0.19
  -2  -1 -10    1.36    0.20
   2   1  10    1.12    0.17
   9  -2 -10    1.10    0.17
   9  -2 -10    1.07    0.14
  -9   2  10    0.90    0.16
   8  -2 -10   -0.02    0.08
   8  -2 -10    0.25    0.12
  -8   2  10   -0.06    0.10
   7  -2 -10    0.41    0.13
   7  -2 -10    0.56    0.10
  -7   2  10    0.60    0.10
  -7   2  10    0.37    0.13
   6  -2 -10    0.75    0.10
   6  -2 -10    0.56    0.14
  -6   2  10    0.56    0.10
  -6   2  10    0.42    0.11
  -6   2  10    0.52    0.14
   5  -2 -10    1.06    0.16
   5  -2 -10    1.04    0.11
  -5   2  10    1.21    0.14
  -5   2  10    1.07    0.16
  -5   2  10    1.14    0.13
   4  -2 -10    5.83    0.33
   4  -2 -10    5.32    0.23
  -4   2  10    5.89    0.28
  -4   2  10    5.76    0.33
  -4   2  10    5.59    0.28
   3  -2 -10    0.79    0.15
   3  -2 -10    0.74    0.09
  -3   2  10    0.77    0.13
  -3   2  10    0.67    0.15
  -3   2  10    0.79    0.13
   2  -2 -10    0.01    0.13
   2  -2 -10    0.07    0.07
  -2   2  10    0.29    0.12
  -2   2  10    0.05    0.12
  -2   2  10    0.31    0.11
   1  -2 -10    0.16    0.13
   1  -2 -10    0.24    0.09
  -1   2  10    0.15    0.11
  -1   2  10    0.15    0.13
  -1   2  10    0.28    0.12
   0  -2 -10   -0.15    0.11
   0  -2 -10   -0.05    0.11
   0   2  10   -0.06    0.10
   0   2  10    0.08    0.10
   0   2  10    0.03    0.11
   8  -3 -10    0.25    0.13
  -8   3  10    0.14    0.10
  -8   3  10    0.17    0.12
   7  -3 -10    1.00    0.17
  -7   3  10    1.15    0.13
  -7   3  10    1.04    0.14
  -7   3  10    1.07    0.17
   6  -3 -10    1.06    0.17
  -6   3  10    1.18    0.14
  -6   3  10    1.17    0.17
  -6   3  10    1.42    0.15
   5  -3 -10    4.00    0.29
   5  -3 -10    3.73    0.23
  -5   3  10    3.86    0.24
  -5   3  10    4.27    0.30
  -5   3  10    4.05    0.25
   4  -3 -10   -0.09    0.09
   4  -3 -10   -0.07    0.12
  -4   3  10   -0.18    0.11
  -4   3  10   -0.05    0.10
  -4   3  10    0.00    0.10
   3  -3 -10    4.59    0.33
   3  -3 -10    4.98    0.29
  -3   3  10    5.19    0.29
  -3   3  10    4.69    0.33
  -3   3  10    5.19    0.29
   2  -3 -10    0.41    0.14
   2  -3 -10    0.67    0.12
   2  -3 -10    0.36    0.13
  -2   3  10    0.40    0.14
  -2   3  10    0.36    0.13
  -2   3  10    0.42    0.13
   1  -3 -10    0.11    0.12
   1  -3 -10    0.02    0.12
   1  -3 -10   -0.24    0.09
  -1   3  10    0.03    0.11
  -1   3  10    0.09    0.12
  -1   3  10    0.07    0.11
   8  -4 -10    1.91    0.22
  -8   4  10    2.48    0.27
   7  -4 -10    0.34    0.13
  -7   4  10    0.29    0.11
  -7   4  10    0.24    0.13
  -7   4  10    0.10    0.09
   6  -4 -10    1.25    0.18
  -6   4  10    1.47    0.19
  -6   4  10    1.46    0.15
  -6   4  10    1.27    0.16
   5  -4 -10   -0.01    0.13
  -5   4  10   -0.04    0.12
  -5   4  10    0.26    0.12
  -5   4  10    0.13    0.11
   4  -4 -10   -0.11    0.13
   4  -4 -10    0.06    0.10
  -4   4  10    0.14    0.11
  -4   4  10    0.10    0.11
  -4   4  10   -0.05    0.13
   3  -4 -10    0.21    0.10
   3  -4 -10    0.01    0.11
  -3   4  10    0.18    0.12
  -3   4  10    0.24    0.12
  -3   4  10    0.02    0.12
   2 -11  11    0.09    0.10
  -3  11 -11    0.36    0.13
   3 -11  11    0.38    0.13
   3 -11  11    0.32    0.10
   1  10 -11    0.05    0.11
  -1 -10  11    0.14    0.09
  -1 -10  11    0.04    0.07
   0  10 -11    0.85    0.14
   0 -10  11    1.00    0.13
   0 -10  11    0.93    0.12
  -1  10 -11    4.28    0.28
   1 -10  11    3.76    0.25
   1 -10  11    4.29    0.21
  -2  10 -11    1.37    0.17
   2 -10  11    1.57    0.16
   2 -10  11    1.34    0.16
  -3  10 -11    0.50    0.13
   3 -10  11    0.51    0.12
   3 -10  11    0.59    0.10
  -4  10 -11    0.32    0.12
  -4  10 -11    0.15    0.11
   4 -10  11    0.23    0.09
   4 -10  11    0.33    0.09
   4 -10  11    0.22    0.12
  -5  10 -11    1.39    0.19
  -5  10 -11    1.36    0.18
   5 -10  11    1.18    0.14
   2   9 -11    0.27    0.12
  -2  -9  11    0.32    0.08
  -2  -9  11    0.17    0.09
   1   9 -11   -0.11    0.10
  -1  -9  11   -0.06    0.08
  -1  -9  11   -0.01    0.07
   0   9 -11    0.57    0.13
   0  -9  11    0.58    0.10
   0  -9  11    0.59    0.11
  -1   9 -11    0.45    0.12
   1  -9  11    0.84    0.10
   1  -9  11    0.60    0.12
  -2   9 -11    0.20    0.10
  -2   9 -11    0.10    0.10
   2  -9  11    0.24    0.10
   2  -9  11    0.24    0.07
   2  -9  11    0.22    0.07
  -3   9 -11   -0.05    0.09
  -3   9 -11    0.04    0.09
   3  -9  11   -0.05    0.06
   3  -9  11   -0.06    0.09
  -4   9 -11    0.35    0.12
  -4   9 -11    0.24    0.11
   4  -9  11    0.29    0.09
   4  -9  11    0.27    0.12
  -5   9 -11    1.12    0.17
  -5   9 -11    1.46    0.19
   5  -9  11    1.40    0.15
   5  -9  11    1.53    0.19
  -4  -8  11    0.61    0.09
   3   8 -11    0.07    0.11
  -3  -8  11    0.33    0.08
  -3  -8  11    0.12    0.10
   2   8 -11    0.59    0.13
  -2  -8  11    0.78    0.12
  -2  -8  11    0.61    0.10
   1   8 -11    0.01    0.10
  -1  -8  11    0.09    0.08
  -1  -8  11    0.11    0.08
   0   8 -11    0.04    0.09
   0  -8  11   -0.05    0.07
   0  -8  11   -0.10    0.08
  -1   8 -11    2.69    0.22
  -1   8 -11    2.33    0.21
   1  -8  11    2.64    0.21
   1  -8  11    2.40    0.16
  -2   8 -11    0.06    0.09
  -2   8 -11    0.10    0.10
   2  -8  11    0.00    0.09
   2  -8  11    0.09    0.07
   2  -8  11    0.05    0.06
  -3   8 -11   -0.11    0.08
  -3   8 -11    0.07    0.10
   3  -8  11    0.00    0.10
   3  -8  11   -0.04    0.06
  -4   8 -11    0.45    0.12
  -4   8 -11    0.56    0.14
   4  -8  11    0.51    0.10
   4  -8  11    0.45    0.13
  -5   8 -11    0.80    0.14
  -5   8 -11    1.02    0.17
   5  -8  11    1.06    0.14
   5  -8  11    1.04    0.17
   5   7 -11    0.29    0.12
  -5  -7  11    0.16    0.08
  -5  -7  11    0.45    0.12
   4   7 -11    0.49    0.13
  -4  -7  11    0.63    0.10
  -4  -7  11    0.65    0.13
   3   7 -11    0.56    0.13
  -3  -7  11    0.35    0.09
  -3  -7  11    0.30    0.10
   2   7 -11    0.09    0.09
  -2  -7  11    0.01    0.08
  -2  -7  11    0.03    0.08
   1   7 -11    0.62    0.12
   1   7 -11    0.76    0.12
  -1  -7  11    0.60    0.10
  -1  -7  11    0.65    0.12
   0   7 -11    0.03    0.09
   0   7 -11    0.09    0.09
   0  -7  11    0.11    0.09
   0  -7  11    0.01    0.07
  -1   7 -11    0.31    0.11
  -1   7 -11    0.65    0.12
   1  -7  11    0.49    0.12
  -2   7 -11    0.07    0.09
  -2   7 -11    0.11    0.10
   2  -7  11    0.01    0.10
  -3   7 -11    1.07    0.14
  -3   7 -11    0.95    0.15
   3  -7  11    0.90    0.15
   3  -7  11    1.07    0.12
  -4   7 -11    0.15    0.11
  -4   7 -11    0.04    0.10
   4  -7  11   -0.04    0.08
   4  -7  11    0.03    0.11
  -5   7 -11    1.57    0.18
  -5   7 -11    1.55    0.20
   5  -7  11    1.68    0.20
   5  -7  11    1.56    0.16
   5   6 -11    0.82    0.14
  -5  -6  11    0.59    0.13
   4   6 -11    2.82    0.23
  -4  -6  11    2.42    0.20
   3   6 -11    8.55    0.36
  -3  -6  11    8.64    0.33
   2   6 -11    0.13    0.10
   2   6 -11   -0.03    0.08
  -2  -6  11    0.01    0.08
  -2  -6  11   -0.06    0.08
   1   6 -11    6.50    0.31
   1   6 -11    6.15    0.30
  -1  -6  11    6.40    0.26
  -1  -6  11    6.04    0.31
   0   6 -11    2.47    0.21
   0   6 -11    2.56    0.22
   0  -6  11    2.84    0.22
  -1   6 -11    0.99    0.14
  -1   6 -11    0.83    0.14
   1  -6  11    1.08    0.15
  -2   6 -11    1.20    0.14
  -2   6 -11    1.21    0.16
   2  -6  11    1.18    0.16
  -3   6 -11    0.40    0.13
  -3   6 -11    0.28    0.11
   3  -6  11    0.33    0.10
   3  -6  11    0.44    0.13
  -4   6 -11    0.73    0.14
  -4   6 -11    0.86    0.16
   4  -6  11    1.01    0.16
   4  -6  11    0.97    0.13
  -5   6 -11    0.50    0.13
  -5   6 -11    0.27    0.14
   5  -6  11    0.35    0.14
   5  -6  11    0.50    0.12
   6   5 -11    5.13    0.30
  -6  -5  11    4.39    0.25
  -6  -5  11    4.54    0.27
   5   5 -11    0.75    0.13
  -5  -5  11    0.72    0.12
  -5  -5  11    0.63    0.11
   4   5 -11    1.94    0.20
  -4  -5  11    1.69    0.18
  -4  -5  11    1.88    0.18
   3   5 -11    1.05    0.13
   3   5 -11    0.98    0.13
  -3  -5  11    1.10    0.13
  -3  -5  11    1.00    0.13
   2   5 -11   -0.04    0.09
   2   5 -11   -0.09    0.08
  -2  -5  11   -0.03    0.08
   1   5 -11    3.73    0.23
   1   5 -11    3.86    0.25
  -1  -5  11    3.94    0.25
   0   5 -11   10.84    0.45
   0   5 -11   10.78    0.41
   0  -5  11   11.10    0.45
  -1   5 -11    0.01    0.10
  -1   5 -11    0.10    0.09
   1  -5  11    0.07    0.11
  -2   5 -11    3.29    0.25
  -2   5 -11    3.10    0.22
   2  -5  11    3.22    0.25
  -3   5 -11    4.59    0.31
  -3   5 -11    4.48    0.28
   3  -5  11    4.55    0.25
   3  -5  11    4.86    0.31
  -4   5 -11    0.51    0.14
  -4   5 -11    0.49    0.13
   4  -5  11    0.38    0.11
   4  -5  11    0.58    0.14
  -5   5 -11    1.56    0.20
   5  -5  11    1.73    0.18
   5  -5  11    1.55    0.20
   7   4 -11    0.04    0.11
  -7  -4  11    0.09    0.10
  -7  -4  11    0.09    0.09
   6   4 -11    0.40    0.11
  -6  -4  11    0.42    0.10
  -6  -4  11    0.43    0.11
   5   4 -11   -0.14    0.09
  -5  -4  11   -0.05    0.08
  -5  -4  11    0.00    0.08
   4   4 -11    0.47    0.11
   4   4 -11    0.49    0.11
  -4  -4  11    0.44    0.10
  -4  -4  11    0.46    0.11
   3   4 -11   -0.07    0.08
   3   4 -11   -0.06    0.08
  -3  -4  11   -0.03    0.09
   2   4 -11    0.39    0.11
   2   4 -11    0.41    0.10
  -2  -4  11    0.43    0.11
   1   4 -11    0.74    0.12
   1   4 -11    0.72    0.14
  -1  -4  11    0.72    0.13
   0   4 -11    1.31    0.14
   0   4 -11    1.06    0.15
   0  -4  11    1.18    0.16
  -1   4 -11   -0.05    0.10
  -1   4 -11   -0.06    0.08
   1  -4  11   -0.12    0.10
  -2   4 -11    1.40    0.17
  -2   4 -11    1.25    0.15
   2  -4  11    1.33    0.17
  -3   4 -11    0.43    0.12
  -3   4 -11    0.59    0.14
   3  -4  11    0.62    0.14
   3  -4  11    0.58    0.11
  -4   4 -11    0.16    0.13
   4  -4  11    0.18    0.12
   4  -4  11    0.40    0.12
   7   3 -11    1.75    0.18
  -7  -3  11    1.62    0.17
  -7  -3  11    1.50    0.16
   6   3 -11    2.50    0.22
  -6  -3  11    2.39    0.20
  -6  -3  11    2.25    0.20
   5   3 -11    0.00    0.09
   5   3 -11    0.07    0.09
  -5  -3  11    0.07    0.09
  -5  -3  11    0.12    0.09
   4   3 -11    1.86    0.20
   4   3 -11    1.67    0.16
  -4  -3  11    1.82    0.20
   3   3 -11    0.41    0.11
   3   3 -11    0.57    0.12
  -3  -3  11    0.61    0.12
   2   3 -11    5.62    0.27
   2   3 -11    5.64    0.31
  -2  -3  11    5.34    0.30
   1   3 -11    5.94    0.32
   1   3 -11    6.00    0.28
  -1  -3  11    6.51    0.28
  -1  -3  11    5.77    0.32
   0   3 -11    0.37    0.12
   0   3 -11    0.37    0.10
   0  -3  11    0.26    0.11
   0  -3  11    0.33    0.10
  -1   3 -11    0.75    0.14
  -1   3 -11    0.67    0.11
   1  -3  11    0.95    0.15
   1  -3  11    0.52    0.12
  -2   3 -11    0.03    0.11
  -2   3 -11   -0.08    0.09
   2  -3  11   -0.02    0.11
   2  -3  11   -0.11    0.09
  -3   3 -11   -0.13    0.11
  -3   3 -11   -0.08    0.09
   3  -3  11   -0.12    0.11
   3  -3  11   -0.10    0.10
  -4   3 -11    0.10    0.13
   4  -3  11    0.42    0.13
   4  -3  11    0.15    0.11
   4  -3  11    0.33    0.14
   8   2 -11    0.06    0.10
  -8  -2  11    0.03    0.10
  -8  -2  11    0.06    0.10
   7   2 -11    0.21    0.11
  -7  -2  11    0.21    0.10
  -7  -2  11    0.19    0.11
   6   2 -11    0.26    0.11
   6   2 -11    0.32    0.11
  -6  -2  11    0.12    0.10
  -6  -2  11    0.15    0.10
   5   2 -11    1.36    0.15
   5   2 -11    1.42    0.16
  -5  -2  11    1.89    0.21
   4   2 -11    2.40    0.20
   4   2 -11    2.44    0.22
  -4  -2  11    2.31    0.22
   3   2 -11    1.24    0.13
   3   2 -11    1.20    0.16
  -3  -2  11    1.33    0.13
  -3  -2  11    1.25    0.16
   2   2 -11    8.00    0.33
   2   2 -11    8.43    0.39
  -2  -2  11    7.91    0.32
  -2  -2  11    8.49    0.39
   1   2 -11    0.96    0.15
   1   2 -11    1.10    0.13
  -1  -2  11    0.96    0.13
  -1  -2  11    0.97    0.15
   0   2 -11    0.72    0.15
   0   2 -11    0.37    0.10
   0  -2  11    0.15    0.11
   0  -2  11    0.76    0.14
  -1   2 -11    0.71    0.12
  -1   2 -11    0.81    0.15
   1  -2  11    0.78    0.16
   1  -2  11    0.76    0.14
  -2   2 -11    0.11    0.12
  -2   2 -11    0.18    0.10
   2  -2  11    0.28    0.13
   2  -2  11    0.33    0.12
  -3   2 -11    1.08    0.18
   3  -2  11    1.24    0.17
   3  -2  11    1.48    0.19
   8   1 -11   -0.10    0.10
  -8  -1  11    0.00    0.10
  -8  -1  11    0.23    0.11
   7   1 -11    0.38    0.12
   7   1 -11    0.29    0.11
  -7  -1  11    0.45    0.11
  -7  -1  11    0.38    0.12
   6   1 -11   17.17    0.64
   6   1 -11   17.02    0.58
  -6  -1  11   18.17    0.65
   5   1 -11    0.02    0.09
   5   1 -11    0.26    0.11
  -5  -1  11    0.28    0.11
   4   1 -11    0.01    0.10
   4   1 -11    0.13    0.08
  -4  -1  11    0.15    0.09
  -4  -1  11    0.11    0.11
   3   1 -11    1.81    0.19
   3   1 -11    1.84    0.17
  -3  -1  11    1.70    0.18
  -3  -1  11    1.88    0.18
   2   1 -11    1.78    0.17
   2   1 -11    1.44    0.17
  -2  -1  11    1.83    0.21
  -2  -1  11    1.51    0.15
   1   1 -11    0.22    0.12
   1   1 -11    0.21    0.09
  -1  -1  11    0.24    0.12
  -1  -1  11    0.13    0.10
   0   1 -11    6.90    0.37
   0   1 -11    6.98    0.31
   0  -1  11    7.10    0.34
   0  -1  11    6.59    0.37
  -1   1 -11    0.31    0.14
  -1   1 -11    0.48    0.11
   1  -1  11    0.20    0.14
   1  -1  11    0.42    0.13
  -2   1 -11   -0.30    0.11
   2  -1  11   -0.05    0.11
   2  -1  11    0.02    0.12
   8   0 -11    0.36    0.12
  -8   0  11    0.40    0.12
  -8   0  11    0.40    0.13
   7   0 -11   11.33    0.43
   7   0 -11   11.01    0.49
  -7   0  11   10.96    0.48
   6   0 -11    5.27    0.27
   6   0 -11    5.49    0.32
  -6   0  11    5.00    0.24
  -6   0  11    5.59    0.32
   5   0 -11    1.08    0.13
   5   0 -11    1.13    0.16
  -5   0  11    1.16    0.16
  -5   0  11    1.08    0.12
   4   0 -11   -0.07    0.09
   4   0 -11    0.06    0.08
  -4   0  11    0.07    0.10
  -4   0  11    0.05    0.09
   3   0 -11    2.02    0.17
   3   0 -11    2.12    0.23
  -3   0  11    1.72    0.16
  -3   0  11    1.71    0.19
   2   0 -11    0.48    0.13
   2   0 -11    0.40    0.09
  -2   0  11    0.33    0.13
  -2   0  11    0.32    0.11
   1   0 -11    5.56    0.26
   1   0 -11    5.79    0.34
  -1   0  11    5.69    0.31
  -1   0  11    5.24    0.34
   0   0 -11   12.83    0.46
   0   0 -11   13.66    0.55
   0   0  11   13.05    0.56
   0   0  11   13.46    0.49
  -1   0 -11    0.38    0.14
   1   0  11    0.28    0.13
   1   0  11    0.21    0.13
   8  -1 -11    1.56    0.20
   8  -1 -11    2.14    0.21
  -8   1  11    1.62    0.20
   7  -1 -11    0.05    0.12
   7  -1 -11   -0.09    0.08
  -7   1  11    0.06    0.08
  -7   1  11    0.13    0.12
   6  -1 -11    0.11    0.11
   6  -1 -11    0.16    0.08
  -6   1  11    0.14    0.12
  -6   1  11    0.06    0.08
   5  -1 -11    0.01    0.07
   5  -1 -11    0.12    0.11
  -5   1  11    0.06    0.08
  -5   1  11   -0.05    0.11
   4  -1 -11    0.86    0.15
   4  -1 -11    0.66    0.10
  -4   1  11    0.89    0.15
  -4   1  11    0.57    0.12
   3  -1 -11   -0.08    0.07
   3  -1 -11   -0.01    0.11
  -3   1  11   -0.03    0.09
  -3   1  11   -0.09    0.10
   2  -1 -11    0.03    0.08
   2  -1 -11    0.06    0.13
  -2   1  11    0.19    0.11
  -2   1  11    0.07    0.13
   1  -1 -11    3.45    0.32
   1  -1 -11    3.49    0.22
  -1   1  11    4.19    0.29
  -1   1  11    3.19    0.31
   0  -1 -11    0.44    0.15
   0   1  11    0.30    0.14
   0   1  11    0.32    0.13
   7  -2 -11    1.11    0.18
   7  -2 -11    1.85    0.18
  -7   2  11    1.31    0.18
  -7   2  11    1.28    0.14
   6  -2 -11    0.86    0.16
  -6   2  11    0.95    0.13
  -6   2  11    0.81    0.15
   5  -2 -11    0.57    0.15
  -5   2  11    0.48    0.11
  -5   2  11    0.48    0.14
   4  -2 -11    0.26    0.12
  -4   2  11    0.18    0.13
  -4   2  11    0.06    0.10
  -4   2  11   -0.10    0.09
   3  -2 -11    0.05    0.12
  -3   2  11   -0.10    0.12
  -3   2  11    0.06    0.11
  -3   2  11   -0.09    0.10
   2  -2 -11    9.10    0.46
   2  -2 -11    9.06    0.36
  -2   2  11    8.60    0.46
  -2   2  11    9.28    0.39
  -2   2  11    9.48    0.40
   6  -3 -11    0.73    0.16
  -6   3  11    0.53    0.15
  -6   3  11    0.66    0.14
  -6   3  11    0.56    0.12
   5  -3 -11    0.44    0.14
  -5   3  11    0.34    0.14
  -5   3  11    0.29    0.12
  -5   3  11    0.39    0.12
   4  -3 -11    0.56    0.17
   4  -3 -11    0.38    0.12
  -4   3  11    0.56    0.13
  -4   3  11    0.49    0.13
  -4   3  11    0.36    0.15
   1   9 -12    0.13    0.11
  -1  -9  12    0.16    0.09
  -1  -9  12    0.07    0.09
   0   9 -12    3.11    0.25
   0  -9  12    2.55    0.23
   0  -9  12    2.78    0.20
  -1   9 -12    0.67    0.14
   1  -9  12    0.45    0.10
   1  -9  12    0.74    0.14
  -2   9 -12   -0.10    0.10
   2  -9  12    0.04    0.10
   2  -9  12   -0.01    0.07
  -3   9 -12    0.24    0.12
  -3   9 -12    0.24    0.12
   3  -9  12    0.39    0.13
  -3  -8  12   -0.02    0.08
   2   8 -12    0.11    0.11
  -2  -8  12   -0.08    0.08
  -2  -8  12   -0.10    0.08
   1   8 -12    5.02    0.29
  -1  -8  12    5.22    0.25
  -1  -8  12    4.81    0.28
   0   8 -12   -0.03    0.10
   0  -8  12   -0.05    0.07
   0  -8  12   -0.06    0.09
  -1   8 -12    0.34    0.12
  -1   8 -12    0.41    0.12
   1  -8  12    0.30    0.11
   1  -8  12    0.26    0.09
  -2   8 -12    0.33    0.11
  -2   8 -12    0.40    0.12
   2  -8  12    0.31    0.12
   2  -8  12    0.26    0.08
  -3   8 -12    0.15    0.12
  -3   8 -12    0.09    0.10
   3  -8  12    0.06    0.11
  -4   8 -12    3.36    0.27
  -4   8 -12    2.91    0.29
   4  -8  12    3.71    0.30
   4  -8  12    3.21    0.23
   4   7 -12    0.17    0.12
  -4  -7  12    0.29    0.11
  -4  -7  12    0.38    0.10
   3   7 -12    1.21    0.16
  -3  -7  12    1.33    0.15
  -3  -7  12    1.04    0.14
   2   7 -12    0.79    0.14
  -2  -7  12    0.97    0.13
  -2  -7  12    0.93    0.14
   1   7 -12   -0.01    0.09
  -1  -7  12    0.09    0.10
  -1  -7  12   -0.05    0.08
   0   7 -12    0.05    0.10
   0   7 -12   -0.03    0.10
   0  -7  12    0.13    0.08
   0  -7  12    0.12    0.10
  -1   7 -12    0.18    0.11
  -1   7 -12    0.16    0.10
   1  -7  12    0.26    0.11
  -2   7 -12    0.15    0.11
  -2   7 -12    0.29    0.11
   2  -7  12    0.24    0.11
  -3   7 -12    0.82    0.14
  -3   7 -12    0.85    0.16
   3  -7  12    0.90    0.16
  -4   7 -12    0.11    0.12
  -4   7 -12    0.11    0.12
   4  -7  12    0.21    0.13
   4  -7  12    0.16    0.10
   5   6 -12    0.01    0.11
  -5  -6  12    0.09    0.09
  -5  -6  12    0.18    0.11
   4   6 -12    2.04    0.19
  -4  -6  12    2.27    0.20
  -4  -6  12    2.33    0.21
   3   6 -12    1.30    0.16
  -3  -6  12    1.17    0.14
   2   6 -12    0.92    0.14
   2   6 -12    1.15    0.15
  -2  -6  12    0.99    0.13
  -2  -6  12    1.20    0.15
   1   6 -12    3.72    0.25
   1   6 -12    3.68    0.26
  -1  -6  12    3.84    0.26
   0   6 -12    0.28    0.11
   0   6 -12    0.12    0.10
   0  -6  12    0.23    0.11
  -1   6 -12    0.18    0.11
  -1   6 -12    0.12    0.11
   1  -6  12    0.18    0.11
  -2   6 -12    0.43    0.13
  -2   6 -12    0.60    0.13
   2  -6  12    0.30    0.12
  -3   6 -12    0.64    0.15
  -3   6 -12    0.78    0.14
   3  -6  12    0.48    0.14
  -4   6 -12    1.14    0.16
  -4   6 -12    0.99    0.17
   4  -6  12    0.88    0.17
   4  -6  12    1.11    0.15
   5   5 -12    0.20    0.11
  -5  -5  12    0.24    0.10
  -5  -5  12    0.27    0.11
   4   5 -12    0.03    0.10
  -4  -5  12    0.11    0.09
  -4  -5  12    0.06    0.10
   3   5 -12    3.08    0.24
   3   5 -12    3.03    0.24
  -3  -5  12    3.07    0.24
  -3  -5  12    2.96    0.21
   2   5 -12    2.73    0.23
   2   5 -12    2.66    0.24
  -2  -5  12    2.56    0.23
   1   5 -12    0.45    0.12
   1   5 -12    0.85    0.14
  -1  -5  12    0.58    0.13
   0   5 -12    3.01    0.24
   0   5 -12    3.12    0.25
   0  -5  12    3.28    0.26
  -1   5 -12    0.88    0.15
  -1   5 -12    0.85    0.13
   1  -5  12    0.72    0.15
  -2   5 -12    0.00    0.11
  -2   5 -12   -0.03    0.10
   2  -5  12    0.11    0.12
  -3   5 -12    0.43    0.15
  -3   5 -12    0.73    0.14
   3  -5  12    0.62    0.16
   6   4 -12    1.60    0.18
  -6  -4  12    1.52    0.17
  -6  -4  12    1.79    0.20
   5   4 -12    0.86    0.14
  -5  -4  12    0.82    0.13
  -5  -4  12    0.88    0.14
   4   4 -12    0.89    0.15
   4   4 -12    0.96    0.14
  -4  -4  12    1.08    0.15
   3   4 -12    3.18    0.25
   3   4 -12    2.95    0.23
  -3  -4  12    2.95    0.24
   2   4 -12    3.27    0.23
   2   4 -12    3.00    0.25
  -2  -4  12    3.01    0.25
   1   4 -12    0.03    0.11
   1   4 -12    0.13    0.10
  -1  -4  12   -0.01    0.11
   0   4 -12    0.78    0.15
   0   4 -12    0.68    0.13
   0  -4  12    0.57    0.14
  -1   4 -12    0.96    0.16
  -1   4 -12    0.89    0.14
   1  -4  12    0.91    0.16
  -2   4 -12    0.07    0.10
  -2   4 -12    0.00    0.12
   2  -4  12   -0.09    0.12
  -3   4 -12    0.15    0.11
  -3   4 -12    0.14    0.14
   3  -4  12    0.23    0.13
   6   3 -12   -0.24    0.09
  -6  -3  12    0.11    0.10
  -6  -3  12   -0.01    0.09
   5   3 -12    0.20    0.10
   5   3 -12    0.01    0.10
  -5  -3  12    0.06    0.10
   4   3 -12    0.12    0.10
   4   3 -12    0.16    0.11
  -4  -3  12    0.08    0.11
   3   3 -12    3.39    0.26
   3   3 -12    3.68    0.24
  -3  -3  12    3.67    0.27
   2   3 -12    7.13    0.36
   2   3 -12    6.88    0.32
  -2  -3  12    6.71    0.35
   1   3 -12    0.03    0.11
   1   3 -12    0.16    0.10
  -1  -3  12    0.06    0.11
   0   3 -12    0.19    0.12
   0   3 -12   -0.01    0.09
   0  -3  12    0.27    0.12
   0  -3  12    0.11    0.11
  -1   3 -12    0.07    0.10
  -1   3 -12    0.13    0.13
   1  -3  12    0.29    0.13
   1  -3  12    0.29    0.12
  -2   3 -12    0.74    0.14
  -2   3 -12    0.65    0.16
   2  -3  12    0.72    0.17
   2  -3  12    0.53    0.13
   7   2 -12    0.60    0.13
  -7  -2  12    0.51    0.13
   6   2 -12    0.81    0.13
  -6  -2  12    0.64    0.14
   5   2 -12    3.56    0.25
   5   2 -12    3.22    0.27
  -5  -2  12    3.26    0.27
   4   2 -12    0.21    0.10
   4   2 -12    0.31    0.12
  -4  -2  12    0.31    0.12
   3   2 -12   -0.05    0.09
   3   2 -12   -0.11    0.11
  -3  -2  12    0.07    0.09
  -3  -2  12   -0.01    0.11
   2   2 -12    1.08    0.14
   2   2 -12    1.24    0.17
  -2  -2  12    1.28    0.17
  -2  -2  12    1.24    0.14
   1   2 -12    0.01    0.11
   1   2 -12   -0.02    0.08
  -1  -2  12   -0.09    0.10
  -1  -2  12   -0.10    0.09
   0   2 -12    0.78    0.16
   0   2 -12    0.60    0.12
   0  -2  12    0.59    0.14
   0  -2  12    0.85    0.15
  -1   2 -12    0.20    0.13
  -1   2 -12   -0.03    0.10
   1  -2  12    0.10    0.11
   7   1 -12    4.93    0.29
   6   1 -12    2.76    0.23
   6   1 -12    2.79    0.26
  -6  -1  12    2.58    0.26
   5   1 -12    0.01    0.11
   5   1 -12   -0.12    0.09
  -5  -1  12   -0.06    0.11
   4   1 -12    1.16    0.17
   4   1 -12    1.28    0.14
  -4  -1  12    1.42    0.14
  -4  -1  12    1.41    0.18
   3   1 -12   -0.06    0.11
   3   1 -12    0.06    0.09
  -3  -1  12    0.05    0.11
  -3  -1  12   -0.09    0.09
   2   1 -12   -0.14    0.10
   2   1 -12   -0.02    0.08
  -2  -1  12   -0.07    0.09
  -2  -1  12    0.09    0.12
   1   1 -12   -0.10    0.11
   1   1 -12   -0.06    0.08
  -1  -1  12   -0.19    0.10
  -1  -1  12    0.07    0.11
   0   1 -12   -0.04    0.13
   0   1 -12   -0.09    0.09
   0  -1  12   -0.08    0.12
   0  -1  12   -0.10    0.12
   6   0 -12    1.09    0.14
   6   0 -12    1.13    0.17
  -6   0  12    1.10    0.17
  -6   0  12    1.11    0.13
   5   0 -12    0.04    0.09
   5   0 -12    0.03    0.11
  -5   0  12    0.12    0.09
  -5   0  12    0.01    0.11
   4   0 -12    0.41    0.14
   4   0 -12    0.63    0.11
  -4   0  12    0.51    0.14
  -4   0  12    0.56    0.12
   3   0 -12    0.78    0.12
   3   0 -12    0.79    0.16
  -3   0  12    0.85    0.16
  -3   0  12    0.75    0.13
   2   0 -12    0.05    0.12
   2   0 -12    0.00    0.08
  -2   0  12   -0.13    0.10
  -2   0  12    0.00    0.12
   1   0 -12    0.60    0.16
   1   0 -12    0.69    0.12
  -1   0  12    0.54    0.15
  -1   0  12    0.49    0.15
   6  -1 -12    0.63    0.11
   6  -1 -12    0.77    0.16
  -6   1  12    0.71    0.12
  -6   1  12    0.53    0.16
   5  -1 -12    0.51    0.14
   5  -1 -12    0.47    0.11
  -5   1  12    0.44    0.14
  -5   1  12    0.48    0.11
   4  -1 -12    0.01    0.11
  -4   1  12    0.11    0.12
  -4   1  12    0.03    0.10
   3  -1 -12    0.08    0.12
  -3   1  12    0.02    0.11
  -3   1  12    0.13    0.13
   0   8 -13    1.54    0.18
   0  -8  13    1.62    0.15
  -1   8 -13    0.73    0.15
   2   7 -13    0.37    0.12
  -2  -7  13    0.44    0.11
  -2  -7  13    0.39    0.12
   1   7 -13   -0.05    0.10
  -1  -7  13    0.02    0.11
  -1  -7  13   -0.05    0.08
   0   7 -13    0.42    0.13
   0   7 -13    0.51    0.13
   0  -7  13    0.47    0.13
  -1   7 -13   -0.10    0.11
  -1   7 -13    0.00    0.10
   1  -7  13   -0.02    0.11
  -2   7 -13    0.02    0.12
  -2   7 -13    0.15    0.11
   3   6 -13    1.61    0.18
  -3  -6  13    1.28    0.15
   2   6 -13    0.47    0.12
  -2  -6  13    0.36    0.12
  -2  -6  13    0.24    0.10
   1   6 -13    0.40    0.13
   1   6 -13    0.49    0.13
  -1  -6  13    0.38    0.13
   0   6 -13    0.08    0.11
   0   6 -13    0.29    0.12
   0  -6  13    0.21    0.12
  -1   6 -13    0.24    0.13
  -1   6 -13    0.43    0.12
   1  -6  13    0.25    0.13
  -2   6 -13   -0.22    0.11
  -2   6 -13    0.08    0.11
   2  -6  13   -0.13    0.11
   4   5 -13    1.22    0.16
  -4  -5  13    1.02    0.15
  -4  -5  13    1.06    0.15
   3   5 -13    0.93    0.15
  -3  -5  13    0.82    0.15
   2   5 -13    2.60    0.25
   2   5 -13    2.67    0.24
  -2  -5  13    2.46    0.24
   1   5 -13    0.20    0.11
   1   5 -13    0.10    0.11
   0   5 -13    1.37    0.17
   0   5 -13    1.48    0.19
   0  -5  13    1.23    0.18
  -1   5 -13    0.47    0.15
  -1   5 -13    0.52    0.13
   1  -5  13    0.54    0.15
   4   4 -13    0.26    0.11
  -4  -4  13    0.16    0.11
   3   4 -13    2.93    0.23
   3   4 -13    2.82    0.26
  -3  -4  13    2.45    0.25
   2   4 -13    0.90    0.14
   2   4 -13    1.03    0.17
  -2  -4  13    0.95    0.15
   1   4 -13    2.71    0.27
   1   4 -13    2.48    0.24
  -1  -4  13    2.40    0.26
   0   4 -13    3.18    0.24
   0   4 -13    3.39    0.29
  -1   4 -13   -0.05    0.10
  -1   4 -13    0.08    0.13
   1  -4  13   -0.12    0.13
   5   3 -13    0.99    0.14
   4   3 -13   -0.01    0.09
   4   3 -13   -0.01    0.11
  -4  -3  13   -0.10    0.11
   3   3 -13    0.10    0.12
   3   3 -13   -0.01    0.09
  -3  -3  13    0.22    0.12
   2   3 -13    2.69    0.23
   2   3 -13    1.94    0.22
  -2  -3  13    2.38    0.26
   1   3 -13    0.00    0.12
   1   3 -13    0.04    0.10
  -1  -3  13   -0.04    0.12
   0   3 -13    1.44    0.19
   0   3 -13    1.24    0.15
   0  -3  13    1.43    0.17
   0  -3  13    1.60    0.20
   4   2 -13    0.14    0.10
   4   2 -13    0.07    0.12
  -4  -2  13    0.23    0.13
   3   2 -13    0.18    0.11
   3   2 -13    0.19    0.14
  -3  -2  13    0.14    0.13
   2   2 -13   -0.06    0.12
   2   2 -13    0.03    0.09
  -2  -2  13   -0.02    0.12
  -2  -2  13   -0.10    0.09
   1   2 -13   -0.03    0.09
   1   2 -13    0.14    0.13
  -1  -2  13    0.00    0.12
  -1  -2  13    0.00    0.11
   0   0   0    0.00    0.00
;
_shelx_hkl_checksum              40281
loop_
_space_group_symop_operation_xyz
'x, y, z'
'-x, -y, -z'
loop_
_atom_site_label
_atom_site_type_symbol
_atom_site_fract_x
_atom_site_fract_y
_atom_site_fract_z
_atom_site_U_iso_or_equiv
_atom_site_adp_type
_atom_site_occupancy
_atom_site_site_symmetry_order
_atom_site_calc_flag
_atom_site_refinement_flags_posn
_atom_site_refinement_flags_adp
_atom_site_refinement_flags_occupancy
_atom_site_disorder_assembly
_atom_site_disorder_group
Cl1 Cl 1.32845(5) 1.10514(5) 0.91563(5) 0.05709(13) Uani 1 1 d . . . . .
F1 F 0.97746(12) 0.91796(11) 0.71854(10) 0.0546(2) Uani 1 1 d . . . . .
N2 N 0.6214(2) 0.4197(2) 0.91805(19) 0.0726(5) Uani 1 1 d . . . . .
C1 C 0.87468(17) 0.66494(17) 0.90902(15) 0.0393(3) Uani 1 1 d . . . . .
N1 N 0.69626(15) 0.65159(16) 0.70624(14) 0.0438(3) Uani 1 1 d D . . . .
H1 H 0.696(2) 0.662(2) 0.6277(18) 0.061(5) Uiso 1 1 d D . . . .
H2 H 0.618(2) 0.5465(19) 0.684(2) 0.058(5) Uiso 1 1 d D . . . .
C2 C 0.85112(16) 0.72031(16) 0.80531(14) 0.0348(3) Uani 1 1 d . . . . .
F2 F 1.33036(12) 0.94773(15) 1.10767(12) 0.0738(3) Uani 1 1 d . . . . .
C3 C 0.99694(17) 0.85961(16) 0.81441(14) 0.0368(3) Uani 1 1 d . . . . .
F3 F 1.05473(14) 0.69072(15) 1.10944(12) 0.0736(3) Uani 1 1 d . . . . .
C4 C 1.15590(17) 0.93736(17) 0.91361(15) 0.0402(3) Uani 1 1 d . . . . .
C5 C 1.17574(18) 0.87752(19) 1.01202(16) 0.0466(3) Uani 1 1 d . . . . .
C6 C 1.0361(2) 0.7448(2) 1.01056(16) 0.0467(3) Uani 1 1 d . . . . .
C7 C 0.7329(2) 0.5272(2) 0.91278(16) 0.0488(3) Uani 1 1 d . . . . .
O1 O 0.21661(14) 0.50658(14) 0.58331(12) 0.0507(3) Uani 1 1 d . . . . .
O2 O 0.35095(12) 0.30662(12) 0.57997(11) 0.0445(2) Uani 1 1 d . . . . .
O3 O 0.63829(15) 0.28477(15) 0.56010(13) 0.0558(3) Uani 1 1 d . . . . .
C8 C 0.2349(3) 0.6686(2) 0.6263(2) 0.0687(5) Uani 1 1 d . . . . .
H8A H 0.341812 0.758737 0.707880 0.082 Uiso 1 1 calc R U . . .
H8B H 0.143751 0.668561 0.660699 0.082 Uiso 1 1 calc R U . . .
C9 C 0.2550(2) 0.4829(2) 0.70733(18) 0.0552(4) Uani 1 1 d . . . . .
H9A H 0.179546 0.489670 0.761734 0.066 Uiso 1 1 calc R U . . .
H9B H 0.370828 0.573175 0.774093 0.066 Uiso 1 1 calc R U . . .
C10 C 0.2340(2) 0.3111(2) 0.65400(19) 0.0534(4) Uani 1 1 d . . . . .
H10A H 0.255475 0.291677 0.737822 0.064 Uiso 1 1 calc R U . . .
H10B H 0.118737 0.220849 0.585928 0.064 Uiso 1 1 calc R U . . .
C11 C 0.3492(2) 0.15180(19) 0.53748(19) 0.0519(4) Uani 1 1 d . . . . .
H11A H 0.235832 0.052642 0.472900 0.062 Uiso 1 1 calc R U . . .
H11B H 0.382041 0.142456 0.625162 0.062 Uiso 1 1 calc R U . . .
C12 C 0.4716(2) 0.1561(2) 0.45713(18) 0.0544(4) Uani 1 1 d . . . . .
H12A H 0.459481 0.044609 0.413204 0.065 Uiso 1 1 calc R U . . .
H12B H 0.448300 0.181579 0.377786 0.065 Uiso 1 1 calc R U . . .
C13 C 0.7696(3) 0.2955(3) 0.5024(3) 0.0700(5) Uani 1 1 d . . . . .
H13A H 0.763928 0.187470 0.471273 0.084 Uiso 1 1 calc R U . . .
H13B H 0.877945 0.385767 0.582218 0.084 Uiso 1 1 calc R U . . .
loop_
_atom_site_aniso_label
_atom_site_aniso_U_11
_atom_site_aniso_U_22
_atom_site_aniso_U_33
_atom_site_aniso_U_23
_atom_site_aniso_U_13
_atom_site_aniso_U_12
Cl1 0.0412(2) 0.0478(2) 0.0583(2) 0.02276(17) 0.01937(16) 0.00838(16)
F1 0.0542(5) 0.0505(5) 0.0545(5) 0.0361(4) 0.0154(4) 0.0172(4)
N2 0.0641(9) 0.0675(9) 0.0693(10) 0.0456(8) 0.0233(8) 0.0133(8)
C1 0.0410(7) 0.0375(6) 0.0372(6) 0.0201(5) 0.0159(5) 0.0175(5)
N1 0.0373(6) 0.0422(6) 0.0459(7) 0.0252(5) 0.0106(5) 0.0151(5)
C2 0.0363(6) 0.0327(6) 0.0336(6) 0.0151(5) 0.0143(5) 0.0176(5)
F2 0.0434(5) 0.0810(7) 0.0652(6) 0.0330(6) -0.0031(4) 0.0178(5)
C3 0.0416(6) 0.0341(6) 0.0336(6) 0.0174(5) 0.0161(5) 0.0181(5)
F3 0.0708(7) 0.0837(7) 0.0633(6) 0.0517(6) 0.0102(5) 0.0300(6)
C4 0.0366(6) 0.0345(6) 0.0376(6) 0.0130(5) 0.0162(5) 0.0134(5)
C5 0.0372(7) 0.0479(8) 0.0389(7) 0.0156(6) 0.0064(5) 0.0175(6)
C6 0.0511(8) 0.0499(8) 0.0382(7) 0.0248(6) 0.0126(6) 0.0246(7)
C7 0.0509(8) 0.0496(8) 0.0431(7) 0.0284(6) 0.0160(6) 0.0205(7)
O1 0.0628(7) 0.0508(6) 0.0522(6) 0.0285(5) 0.0285(5) 0.0357(5)
O2 0.0445(5) 0.0451(5) 0.0541(6) 0.0322(5) 0.0209(5) 0.0240(4)
O3 0.0586(7) 0.0540(6) 0.0625(7) 0.0328(5) 0.0248(5) 0.0314(5)
C8 0.0861(13) 0.0568(10) 0.0846(13) 0.0355(9) 0.0549(11) 0.0469(10)
C9 0.0538(9) 0.0715(10) 0.0464(8) 0.0292(8) 0.0240(7) 0.0360(8)
C10 0.0497(8) 0.0695(10) 0.0577(9) 0.0450(8) 0.0269(7) 0.0310(8)
C11 0.0531(8) 0.0421(7) 0.0602(9) 0.0317(7) 0.0121(7) 0.0218(7)
C12 0.0720(10) 0.0516(8) 0.0503(8) 0.0267(7) 0.0164(8) 0.0407(8)
C13 0.0771(12) 0.0659(11) 0.1071(16) 0.0552(11) 0.0495(12) 0.0529(10)
loop_
_atom_type_symbol
_atom_type_description
_atom_type_scat_dispersion_real
_atom_type_scat_dispersion_imag
_atom_type_scat_source
C C 0.0033 0.0016 'International Tables Vol C Tables 4.2.6.8 and 6.1.1.4'
H H 0.0000 0.0000 'International Tables Vol C Tables 4.2.6.8 and 6.1.1.4'
N N 0.0061 0.0033 'International Tables Vol C Tables 4.2.6.8 and 6.1.1.4'
O O 0.0106 0.0060 'International Tables Vol C Tables 4.2.6.8 and 6.1.1.4'
F F 0.0171 0.0103 'International Tables Vol C Tables 4.2.6.8 and 6.1.1.4'
Cl Cl 0.1484 0.1585 'International Tables Vol C Tables 4.2.6.8 and 6.1.1.4'
loop_
_geom_angle_atom_site_label_1
_geom_angle_atom_site_label_2
_geom_angle_atom_site_label_3
_geom_angle
_geom_angle_site_symmetry_1
_geom_angle_site_symmetry_3
_geom_angle_publ_flag
C6 C1 C2 120.28(12) . . ?
C6 C1 C7 119.14(13) . . ?
C2 C1 C7 120.57(12) . . ?
N1 C2 C3 120.63(12) . . ?
N1 C2 C1 123.26(12) . . ?
C3 C2 C1 116.02(12) . . ?
F1 C3 C4 119.02(12) . . ?
F1 C3 C2 117.30(12) . . ?
C4 C3 C2 123.68(12) . . ?
C3 C4 C5 118.98(12) . . ?
C3 C4 Cl1 120.79(11) . . ?
C5 C4 Cl1 120.24(11) . . ?
F2 C5 C6 120.01(14) . . ?
F2 C5 C4 120.40(13) . . ?
C6 C5 C4 119.59(13) . . ?
F3 C6 C5 119.53(13) . . ?
F3 C6 C1 119.05(13) . . ?
C5 C6 C1 121.41(13) . . ?
N2 C7 C1 178.95(18) . . ?
C8 O1 C9 112.27(13) . . ?
C11 O2 C10 112.16(11) . . ?
C12 O3 C13 115.20(14) . . ?
O1 C8 C13 110.44(15) . 2_666 ?
O1 C9 C10 109.28(13) . . ?
O2 C10 C9 108.89(12) . . ?
O2 C11 C12 108.48(12) . . ?
O3 C12 C11 108.68(13) . . ?
O3 C13 C8 115.49(16) . 2_666 ?
loop_
_geom_bond_atom_site_label_1
_geom_bond_atom_site_label_2
_geom_bond_distance
_geom_bond_site_symmetry_2
_geom_bond_publ_flag
Cl1 C4 1.7141(14) . ?
F1 C3 1.3496(15) . ?
N2 C7 1.136(2) . ?
C1 C6 1.393(2) . ?
C1 C2 1.4077(18) . ?
C1 C7 1.4346(19) . ?
N1 C2 1.3612(18) . ?
C2 C3 1.4016(18) . ?
F2 C5 1.3411(17) . ?
C3 C4 1.3698(19) . ?
F3 C6 1.3431(17) . ?
C4 C5 1.384(2) . ?
C5 C6 1.372(2) . ?
O1 C8 1.417(2) . ?
O1 C9 1.4165(19) . ?
O2 C11 1.4224(18) . ?
O2 C10 1.4252(18) . ?
O3 C12 1.412(2) . ?
O3 C13 1.418(2) . ?
C8 C13 1.498(3) 2_666 ?
C9 C10 1.489(2) . ?
C11 C12 1.498(2) . ?
