#------------------------------------------------------------------------------
#$Date: 2022-02-04 21:19:41 +0200 (Fri, 04 Feb 2022) $
#$Revision: 272610 $
#$URL: file:///home/coder/svn-repositories/cod/cif/7/24/41/7244181.cif $
#------------------------------------------------------------------------------
#
# This file is available in the Crystallography Open Database (COD),
# http://www.crystallography.net/
#
# All data on this site have been placed in the public domain by the
# contributors.
#
data_7244181
loop_
_publ_author_name
'Vaganova, Tamara A.'
'Benassi, Enrico'
'Gatilov, Yurij V.'
'Chuikov, Igor P.'
'Pishchur, Denis P.'
'Malykhin, Evgenij V.'
_publ_section_title
;
 Polyhalogenated aminobenzonitriles vs. their co-crystals with 18-crown-6:
 amino group position as a tool to control crystal packing and solid-state
 fluorescence
;
_journal_issue                   5
_journal_name_full               CrystEngComm
_journal_page_first              987
_journal_page_last               1001
_journal_paper_doi               10.1039/D1CE01469B
_journal_volume                  24
_journal_year                    2022
_chemical_formula_moiety         '2(C7 H3 Cl F2 N2), C12 H24 O6'
_chemical_formula_sum            'C26 H30 Cl2 F4 N4 O6'
_chemical_formula_weight         641.44
_chemical_melting_point          390
_chemical_name_systematic
;
2-amino-4-chloro-3,6-difluorobenzonitrile 18-crown-6 associate 2:1
;
_space_group_crystal_system      triclinic
_space_group_IT_number           2
_space_group_name_Hall           '-P 1'
_space_group_name_H-M_alt        'P -1'
_atom_sites_solution_hydrogens   mixed
_atom_sites_solution_primary     direct
_atom_sites_solution_secondary   difmap
_audit_creation_method           SHELXL-2018/3
_audit_update_record
;
2021-10-27 deposited with the CCDC.	2021-12-20 downloaded from the CCDC.
;
_cell_angle_alpha                111.106(2)
_cell_angle_beta                 98.506(2)
_cell_angle_gamma                116.108(2)
_cell_formula_units_Z            1
_cell_length_a                   9.2760(4)
_cell_length_b                   9.8840(5)
_cell_length_c                   10.2679(5)
_cell_measurement_reflns_used    9984
_cell_measurement_temperature    296(2)
_cell_measurement_theta_max      28.00
_cell_measurement_theta_min      2.28
_cell_volume                     734.00(7)
_computing_cell_refinement       'Bruker SAINT'
_computing_data_collection       'Bruker APEX2'
_computing_data_reduction        'Bruker SAINT'
_computing_molecular_graphics    'Bruker SHELXTL'
_computing_publication_material  'Bruker SHELXTL'
_computing_structure_refinement  'SHELXL-2018/3 (Sheldrick, 2018)'
_computing_structure_solution    'SHELXS-97 (Sheldrick, 2008)'
_diffrn_ambient_temperature      296(2)
_diffrn_measured_fraction_theta_full 0.999
_diffrn_measured_fraction_theta_max 0.996
_diffrn_measurement_device_type  'Bruker APEX-II CCD'
_diffrn_measurement_method       '\f and \w scans'
_diffrn_radiation_type           MoK\a
_diffrn_radiation_wavelength     0.71073
_diffrn_reflns_av_R_equivalents  0.0231
_diffrn_reflns_av_unetI/netI     0.0137
_diffrn_reflns_Laue_measured_fraction_full 0.999
_diffrn_reflns_Laue_measured_fraction_max 0.996
_diffrn_reflns_limit_h_max       12
_diffrn_reflns_limit_h_min       -12
_diffrn_reflns_limit_k_max       13
_diffrn_reflns_limit_k_min       -13
_diffrn_reflns_limit_l_max       13
_diffrn_reflns_limit_l_min       -13
_diffrn_reflns_number            20065
_diffrn_reflns_point_group_measured_fraction_full 0.999
_diffrn_reflns_point_group_measured_fraction_max 0.996
_diffrn_reflns_theta_full        25.242
_diffrn_reflns_theta_max         28.043
_diffrn_reflns_theta_min         2.517
_diffrn_source                   'sealed tube'
_exptl_absorpt_coefficient_mu    0.293
_exptl_absorpt_correction_T_max  0.8372
_exptl_absorpt_correction_T_min  0.7724
_exptl_absorpt_correction_type   multi-scan
_exptl_absorpt_process_details   SADABS-2008/1
_exptl_crystal_colour            colourless
_exptl_crystal_density_diffrn    1.451
_exptl_crystal_description       plate
_exptl_crystal_F_000             332
_exptl_crystal_size_max          0.580
_exptl_crystal_size_mid          0.520
_exptl_crystal_size_min          0.160
_refine_diff_density_max         0.331
_refine_diff_density_min         -0.297
_refine_diff_density_rms         0.038
_refine_ls_extinction_method     none
_refine_ls_goodness_of_fit_ref   1.035
_refine_ls_hydrogen_treatment    mixed
_refine_ls_matrix_type           full
_refine_ls_number_parameters     198
_refine_ls_number_reflns         3547
_refine_ls_number_restraints     2
_refine_ls_restrained_S_all      1.036
_refine_ls_R_factor_all          0.0439
_refine_ls_R_factor_gt           0.0370
_refine_ls_shift/su_max          0.000
_refine_ls_shift/su_mean         0.000
_refine_ls_structure_factor_coef Fsqd
_refine_ls_weighting_details
'w=1/[\s^2^(Fo^2^)+(0.0555P)^2^+0.2075P] where P=(Fo^2^+2Fc^2^)/3'
_refine_ls_weighting_scheme      calc
_refine_ls_wR_factor_gt          0.1032
_refine_ls_wR_factor_ref         0.1108
_reflns_Friedel_coverage         0.000
_reflns_number_gt                3009
_reflns_number_total             3547
_reflns_threshold_expression     'I > 2\s(I)'
_cod_data_source_file            d1ce01469b2.cif
_cod_data_source_block           2Ecr-M26
_cod_depositor_comments
'Adding full bibliography for 7244175--7244182.cif.'
_cod_original_cell_volume        734.00(6)
_cod_database_code               7244181
_shelx_shelxl_version_number     2018/3
_shelx_space_group_comment
;
The symmetry employed for this shelxl refinement is uniquely defined
by the following loop, which should always be used as a source of
symmetry information in preference to the above space-group names.
They are only intended as comments.
;
_shelx_estimated_absorpt_t_min   0.848
_shelx_estimated_absorpt_t_max   0.955
_shelx_res_file
;
TITL M26_0m in P-1
    M26.res
    created by SHELXL-2018/3 at 15:56:40 on 01-May-2020
CELL 0.71073   9.2760   9.8840  10.2679 111.106  98.506 116.108
ZERR    1.00   0.0004   0.0005   0.0005   0.002   0.002   0.002
LATT  1
SFAC C H N O F CL
UNIT 26 30 4 6 4 2
TEMP 23.000
SIZE 0.16 0.52 0.58
L.S. 10
ACTA
BOND
FMAP 2
PLAN 9
dfix 0.90 N1 h1  N1 h2
WGHT    0.055500    0.207500
FVAR       0.32420
CL1   6    1.336544    0.600551    0.428542    11.00000    0.04214    0.04689 =
         0.05937    0.02113    0.01812    0.00445
N2    3    0.620804   -0.091970    0.413510    11.00000    0.05875    0.07887 =
         0.07073    0.05252    0.01844    0.00832
C1    1    0.877796    0.159680    0.415564    11.00000    0.03842    0.04077 =
         0.03751    0.02140    0.01541    0.01611
F1    5    0.984287    0.409776    0.221242    11.00000    0.05405    0.04755 =
         0.05457    0.03402    0.01624    0.01589
N1    3    0.699618    0.142108    0.203374    11.00000    0.03651    0.04058 =
         0.04245    0.02333    0.01035    0.01323
H1    2    0.622517    0.038925    0.182841    11.00000    0.05429
H2    2    0.700694    0.157771    0.126098    11.00000    0.05296
C2    1    0.854993    0.213791    0.308863    11.00000    0.03488    0.03164 =
         0.03256    0.01363    0.01460    0.01616
F2    5    1.055915    0.188958    0.624230    11.00000    0.06347    0.10239 =
         0.06774    0.06293    0.01151    0.02711
C3    1    1.003137    0.354238    0.321195    11.00000    0.04116    0.03201 =
         0.03469    0.01637    0.01685    0.01646
C4    1    1.162439    0.432883    0.426907    11.00000    0.03698    0.03553 =
         0.03969    0.01335    0.01683    0.01144
C5    1    1.184894    0.377538    0.530794    11.00000    0.03633    0.05760 =
         0.04128    0.01994    0.00577    0.01389
AFIX  43
H5    2    1.292802    0.429259    0.602381    11.00000   -1.20000
AFIX   0
C6    1    1.041229    0.243602    0.523087    11.00000    0.04738    0.05920 =
         0.04116    0.03075    0.01399    0.02237
C7    1    0.734487    0.019328    0.414257    11.00000    0.04592    0.05664 =
         0.04377    0.03201    0.01482    0.01769
O1    4    0.219181    1.006874    0.086845    11.00000    0.06273    0.05000 =
         0.05239    0.02851    0.03097    0.03552
O2    4    0.346459    0.798026    0.074399    11.00000    0.04171    0.04114 =
         0.05484    0.03113    0.01886    0.02080
O3    4    0.633717    0.773015    0.046989    11.00000    0.05601    0.05294 =
         0.06759    0.03372    0.02389    0.02890
C8    1    0.238275    1.169115    0.134982    11.00000    0.09402    0.05663 =
         0.09306    0.03798    0.06312    0.04989
AFIX  23
H8A   2    0.347027    1.256006    0.218393    11.00000   -1.20000
H8B   2    0.146061    1.167686    0.169576    11.00000   -1.20000
AFIX   0
C9    1    0.255591    0.976453    0.208945    11.00000    0.05119    0.06849 =
         0.04511    0.02862    0.02389    0.03124
AFIX  23
H9A   2    0.179264    0.982719    0.262821    11.00000   -1.20000
H9B   2    0.373567    1.063012    0.277807    11.00000   -1.20000
AFIX   0
C10   1    0.230316    0.802990    0.150010    11.00000    0.04495    0.06541 =
         0.05824    0.04437    0.02376    0.02558
AFIX  23
H10A  2    0.252081    0.779096    0.232041    11.00000   -1.20000
H10B  2    0.112340    0.716448    0.081137    11.00000   -1.20000
AFIX   0
C11   1    0.342782    0.641993    0.027949    11.00000    0.04812    0.03878 =
         0.07068    0.03223    0.00873    0.01825
AFIX  23
H11A  2    0.226770    0.545070   -0.037036    11.00000   -1.20000
H11B  2    0.377994    0.629644    0.114621    11.00000   -1.20000
AFIX   0
C12   1    0.464759    0.646849   -0.055065    11.00000    0.07283    0.05001 =
         0.05408    0.02372    0.01394    0.04089
AFIX  23
H12A  2    0.452709    0.535890   -0.100275    11.00000   -1.20000
H12B  2    0.438142    0.673356   -0.134209    11.00000   -1.20000
AFIX   0
C13   1    0.766102    0.786708   -0.011142    11.00000    0.07838    0.06627 =
         0.11713    0.05767    0.05408    0.05336
AFIX  23
H13A  2    0.759721    0.678299   -0.046846    11.00000   -1.20000
H13B  2    0.876533    0.873434    0.070299    11.00000   -1.20000

AFIX   0
HKLF 4




REM  M26_0m in P-1
REM wR2 = 0.1108, GooF = S = 1.035, Restrained GooF = 1.036 for all data
REM R1 = 0.0370 for 3009 Fo > 4sig(Fo) and 0.0439 for all 3547 data
REM 198 parameters refined using 2 restraints

END

WGHT      0.0528      0.2115

REM Highest difference peak  0.331,  deepest hole -0.297,  1-sigma level  0.038
Q1    1   1.3655  0.5830  0.4940  11.00000  0.05    0.33
Q2    1   0.5498  0.7377 -0.0293  11.00000  0.05    0.33
Q3    1   0.3645  1.2912  0.1317  11.00000  0.05    0.27
Q4    1   0.9300  0.2802  0.3143  11.00000  0.05    0.24
Q5    1   1.1107  0.2862  0.4997  11.00000  0.05    0.24
Q6    1   0.3566  0.6040 -0.0595  11.00000  0.05    0.23
Q7    1   0.9633  0.1760  0.4478  11.00000  0.05    0.22
Q8    1   0.8790  0.1705  0.3545  11.00000  0.05    0.20
Q9    1   1.1724  0.3871  0.4577  11.00000  0.05    0.19
;
_shelx_res_checksum              40122
_shelx_hkl_file
;
  -1   0   0   16.10    0.42
  -1   0   0   15.70    0.39
   1   0   0   15.71    0.39
   1   0   0   16.00    0.42
  -2   0   0  263.81    6.77
  -2   0   0  272.37    6.42
  -2   0   0  261.98    6.37
   2   0   0  272.61    6.78
   2   0   0  260.12    6.38
  -3   0   0  256.77    6.10
  -3   0   0  255.40    6.53
  -3   0   0  254.50    6.20
   3   0   0  258.00    6.08
  -4   0   0   -0.01    0.02
  -4   0   0    0.01    0.03
  -4   0   0    0.02    0.03
  -4   0   0   -0.03    0.03
   4   0   0    0.00    0.03
  -5   0   0    7.25    0.24
  -5   0   0    7.24    0.22
  -5   0   0    7.43    0.23
  -5   0   0    7.14    0.22
  -5   0   0    7.09    0.23
  -6   0   0   34.74    0.86
  -6   0   0   34.49    0.94
  -6   0   0   33.52    0.89
  -6   0   0   34.71    0.91
  -6   0   0   35.02    0.87
  -7   0   0    5.33    0.20
  -7   0   0    4.83    0.17
  -7   0   0    5.29    0.21
  -7   0   0    5.37    0.20
  -8   0   0    1.29    0.11
  -8   0   0    1.37    0.12
  -8   0   0    1.27    0.12
  -8   0   0    1.25    0.09
  -9   0   0    3.25    0.17
  -9   0   0    3.16    0.18
  -9   0   0    3.01    0.18
 -10   0   0    2.97    0.18
 -10   0   0    2.53    0.17
 -10   1   0    1.63    0.15
 -10   1   0    1.65    0.14
 -10   1   0    1.45    0.13
  -9   1   0    4.73    0.21
  -9   1   0    4.83    0.18
  -9   1   0    5.16    0.22
  -9   1   0    5.15    0.22
  -8   1   0   13.80    0.41
  -8   1   0   14.08    0.42
  -8   1   0   13.39    0.38
  -8   1   0   13.49    0.41
  -7   1   0    2.53    0.11
  -7   1   0    1.75    0.14
  -7   1   0    2.13    0.14
  -6   1   0    7.67    0.26
  -6   1   0    7.45    0.25
  -6   1   0    7.66    0.22
   5  -1   0   23.71    0.65
  -5   1   0   23.81    0.60
  -5   1   0   24.32    0.62
  -5   1   0   24.20    0.66
   4  -1   0    0.43    0.05
   4  -1   0    0.66    0.06
  -4   1   0    0.67    0.05
  -4   1   0    0.65    0.04
  -4   1   0    0.60    0.05
  -4   1   0    0.73    0.06
   3  -1   0    9.75    0.28
   3  -1   0    9.60    0.26
   3  -1   0    9.65    0.26
   3  -1   0    9.81    0.26
   3  -1   0    9.68    0.24
  -3   1   0    9.78    0.25
  -3   1   0    9.90    0.26
  -3   1   0    9.85    0.26
  -3   1   0    9.71    0.28
  -3   1   0    9.91    0.26
   2  -1   0   30.19    0.79
   2  -1   0   30.67    0.75
   2  -1   0   30.75    0.80
   2  -1   0   29.29    0.74
  -2   1   0   30.76    0.79
  -2   1   0   30.07    0.74
  -2   1   0   30.53    0.75
  -2   1   0   31.23    0.80
  -2   1   0   31.46    0.80
   1  -1   0   43.75    1.11
   1  -1   0   43.79    1.07
   1  -1   0   41.38    1.08
   1  -1   0   37.70    1.12
  -1   1   0   42.42    1.11
  -1   1   0   42.12    1.12
  -1   1   0   42.87    1.02
   0  -1   0    8.53    0.24
   0  -1   0    8.68    0.22
   0  -1   0    8.61    0.24
   0  -1   0    8.53    0.22
   0  -1   0    8.81    0.22
   0  -1   0    8.87    0.23
   0   1   0    9.11    0.22
   0   1   0    9.58    0.22
   0   1   0    9.14    0.24
   0   1   0    8.55    0.24
   0   1   0    8.70    0.23
  -1  -1   0   28.59    0.70
  -1  -1   0   29.56    0.77
  -1  -1   0   28.80    0.72
  -1  -1   0   30.45    0.71
  -1  -1   0   28.70    0.77
  -1  -1   0   29.29    0.70
   1   1   0   29.56    0.77
   1   1   0   29.26    0.71
   1   1   0   28.67    0.77
   1   1   0   28.87    0.70
   1   1   0   28.68    0.72
   1   1   0   28.87    0.70
  -2  -1   0  347.58    8.92
  -2  -1   0  334.06    8.17
  -2  -1   0  344.85    8.25
  -2  -1   0  345.15    8.42
  -2  -1   0  337.30    8.17
  -2  -1   0  346.62    8.92
   2   1   0  341.75    8.24
   2   1   0  348.67    8.43
   2   1   0  331.34    8.16
   2   1   0  341.74    8.92
  -3  -1   0   39.01    1.01
  -3  -1   0   38.33    0.95
  -3  -1   0   37.79    0.98
  -3  -1   0   39.37    0.95
  -3  -1   0   38.63    1.00
  -3  -1   0   38.37    0.94
  -3  -1   0   38.58    0.97
  -3  -1   0   38.44    1.01
   3   1   0   38.62    1.01
   3   1   0   38.42    0.95
   3   1   0   39.47    1.01
  -4  -1   0   27.27    0.69
  -4  -1   0   27.42    0.74
  -4  -1   0   27.64    0.71
  -4  -1   0   27.92    0.70
  -4  -1   0   27.60    0.70
  -4  -1   0   26.90    0.71
  -4  -1   0   27.75    0.72
  -4  -1   0   27.64    0.72
   4   1   0   27.46    0.72
   4   1   0   28.39    0.72
   4   1   0   26.77    0.70
  -5  -1   0   31.37    0.84
  -5  -1   0   31.35    0.81
  -5  -1   0   30.65    0.79
  -5  -1   0   31.15    0.76
  -5  -1   0   31.56    0.81
  -6  -1   0  105.76    2.57
  -6  -1   0  107.83    2.68
  -6  -1   0  107.57    2.65
  -6  -1   0  105.85    2.74
  -7  -1   0    1.29    0.11
  -7  -1   0    1.29    0.10
  -7  -1   0    1.19    0.10
  -7  -1   0    1.29    0.09
  -8  -1   0    0.16    0.06
  -8  -1   0    0.09    0.07
  -8  -1   0    0.19    0.07
  -8  -1   0    0.20    0.05
  -9  -1   0    0.27    0.08
  -9  -1   0    0.25    0.08
 -11   2   0   -0.13    0.08
 -11   2   0    0.04    0.08
 -11   2   0   -0.01    0.07
 -10   2   0    2.37    0.16
 -10   2   0    2.40    0.17
 -10   2   0    2.33    0.16
  -9   2   0    1.04    0.10
  -9   2   0    1.01    0.08
  -9   2   0    1.03    0.11
  -8   2   0   10.01    0.29
  -8   2   0    9.57    0.33
   7  -2   0   13.31    0.41
  -7   2   0   13.11    0.36
  -7   2   0   12.60    0.39
   6  -2   0   18.34    0.52
  -6   2   0   17.91    0.52
  -6   2   0   18.23    0.48
  -6   2   0   17.37    0.47
   5  -2   0    6.19    0.18
   5  -2   0    6.15    0.21
   5  -2   0    6.39    0.18
   5  -2   0    6.09    0.16
  -5   2   0    5.98    0.18
  -5   2   0    6.44    0.21
  -5   2   0    6.20    0.18
  -5   2   0    6.17    0.19
  -5   2   0    6.45    0.18
   4  -2   0  138.31    3.33
   4  -2   0  144.41    3.63
   4  -2   0  136.30    3.50
   4  -2   0  136.50    3.37
  -4   2   0  139.92    3.65
  -4   2   0  135.76    3.27
  -4   2   0  138.41    3.50
  -4   2   0  132.93    3.39
  -4   2   0  139.80    3.62
   3  -2   0   25.64    0.69
   3  -2   0   25.85    0.64
   3  -2   0   25.75    0.68
   3  -2   0   25.88    0.69
  -3   2   0   25.45    0.68
  -3   2   0   25.82    0.64
  -3   2   0   25.41    0.63
  -3   2   0   25.75    0.69
  -3   2   0   25.60    0.69
   2  -2   0  428.32   11.24
   2  -2   0  409.19   11.24
   2  -2   0  433.46   10.92
   2  -2   0  435.53   10.38
  -2   2   0  410.05   11.24
  -2   2   0  455.51   11.25
  -2   2   0  437.45   10.92
   1  -2   0   -0.05    0.02
   1  -2   0   -0.06    0.02
   1  -2   0   -0.02    0.02
   1  -2   0   -0.05    0.02
   1  -2   0   -0.04    0.02
  -1   2   0   -0.04    0.02
  -1   2   0   -0.08    0.02
  -1   2   0   -0.03    0.02
  -1   2   0   -0.04    0.02
  -1   2   0   -0.03    0.02
   0  -2   0   75.70    1.79
   0  -2   0   72.30    1.82
   0  -2   0   76.18    1.94
   0  -2   0   73.26    1.94
   0  -2   0   74.15    1.77
   0   2   0   74.33    1.82
   0   2   0   71.63    1.94
   0   2   0   74.64    1.94
   0   2   0   75.53    1.85
   0   2   0   74.07    1.76
  -1  -2   0   25.57    0.69
  -1  -2   0   25.18    0.66
  -1  -2   0   25.70    0.63
  -1  -2   0   25.86    0.64
  -1  -2   0   26.31    0.70
  -1  -2   0   26.35    0.64
   1   2   0   26.85    0.64
   1   2   0   26.08    0.66
   1   2   0   26.23    0.64
   1   2   0   25.74    0.63
   1   2   0   26.05    0.70
   1   2   0   25.53    0.69
  -2  -2   0   36.23    0.91
  -2  -2   0   35.82    0.89
  -2  -2   0   35.56    0.90
  -2  -2   0   35.46    0.88
  -2  -2   0   36.89    0.96
  -2  -2   0   35.99    0.96
  -2  -2   0   36.21    0.88
   2   2   0   37.01    0.91
   2   2   0   35.75    0.96
   2   2   0   35.62    0.89
   2   2   0   35.32    0.88
   2   2   0   36.72    0.96
  -3  -2   0   51.81    1.31
  -3  -2   0   51.70    1.27
  -3  -2   0   52.25    1.27
  -3  -2   0   52.64    1.28
  -3  -2   0   52.39    1.37
  -3  -2   0   51.80    1.30
  -3  -2   0   51.74    1.37
   3   2   0   51.71    1.27
   3   2   0   51.84    1.28
   3   2   0   52.76    1.37
  -4  -2   0    3.56    0.12
  -4  -2   0    3.84    0.12
  -4  -2   0    3.61    0.14
  -4  -2   0    3.49    0.12
  -4  -2   0    3.56    0.14
  -4  -2   0    3.26    0.14
  -4  -2   0    3.58    0.15
  -4  -2   0    3.40    0.14
   4   2   0    3.55    0.12
   4   2   0    3.72    0.12
  -5  -2   0    1.36    0.09
  -5  -2   0    1.23    0.06
  -5  -2   0    1.20    0.10
  -5  -2   0    1.19    0.06
  -5  -2   0    1.50    0.12
  -5  -2   0    1.15    0.11
  -5  -2   0    1.25    0.07
   5   2   0    1.28    0.06
   5   2   0    1.21    0.06
  -6  -2   0    8.56    0.25
  -6  -2   0    8.29    0.22
  -6  -2   0    8.36    0.28
  -6  -2   0    8.24    0.28
  -7  -2   0    0.35    0.08
  -7  -2   0    0.66    0.09
  -7  -2   0    0.49    0.06
  -8  -2   0    3.97    0.20
  -8  -2   0    3.68    0.20
  -9  -2   0    0.69    0.11
  -9  -2   0    0.80    0.11
 -11   3   0    2.03    0.18
 -11   3   0    1.61    0.14
 -11   3   0    1.86    0.15
 -10   3   0    0.65    0.07
 -10   3   0    0.46    0.09
 -10   3   0    0.63    0.10
   9  -3   0    0.10    0.07
  -9   3   0   -0.08    0.07
  -9   3   0    0.09    0.05
   8  -3   0    2.66    0.17
  -8   3   0    2.43    0.16
  -8   3   0    2.63    0.12
   7  -3   0    4.15    0.13
   7  -3   0    3.99    0.18
   7  -3   0    4.08    0.13
   7  -3   0    4.15    0.11
  -7   3   0    4.15    0.15
  -7   3   0    4.16    0.13
  -7   3   0    4.08    0.13
  -7   3   0    3.93    0.17
   6  -3   0    0.40    0.04
   6  -3   0    0.36    0.03
   6  -3   0    0.42    0.04
   6  -3   0    0.45    0.07
  -6   3   0    0.32    0.04
  -6   3   0    0.32    0.06
  -6   3   0    0.36    0.04
  -6   3   0    0.37    0.04
  -6   3   0    0.36    0.03
   5  -3   0    0.18    0.03
   5  -3   0    0.01    0.04
   5  -3   0    0.04    0.03
   5  -3   0    0.04    0.03
   5  -3   0    0.04    0.03
  -5   3   0    0.07    0.03
  -5   3   0    0.02    0.04
  -5   3   0    0.06    0.03
  -5   3   0    0.01    0.03
   4  -3   0   22.67    0.62
   4  -3   0   22.70    0.58
   4  -3   0   22.87    0.62
   4  -3   0   22.91    0.62
  -4   3   0   23.03    0.58
  -4   3   0   23.63    0.62
  -4   3   0   22.97    0.62
  -4   3   0   22.84    0.58
  -4   3   0   22.53    0.57
  -4   3   0   22.90    0.62
   3  -3   0    3.41    0.12
   3  -3   0    3.26    0.12
   3  -3   0    2.94    0.12
   3  -3   0    3.07    0.11
  -3   3   0    3.35    0.12
  -3   3   0    3.15    0.11
  -3   3   0    3.10    0.11
  -3   3   0    3.32    0.12
  -3   3   0    3.37    0.09
  -3   3   0    3.21    0.10
   2  -3   0  129.25    3.31
   2  -3   0  132.05    3.20
   2  -3   0  132.04    3.47
   2  -3   0  131.51    3.47
   2  -3   0  130.43    3.38
  -2   3   0  135.08    3.47
  -2   3   0  140.88    3.50
  -2   3   0  133.45    3.31
  -2   3   0  132.13    3.14
  -2   3   0  134.80    3.28
  -2   3   0  130.72    3.36
   1  -3   0  106.34    2.66
   1  -3   0  102.59    2.62
   1  -3   0   95.28    2.66
   1  -3   0  102.40    2.49
   1  -3   0  103.62    2.45
  -1   3   0   97.82    2.42
  -1   3   0  108.84    2.66
  -1   3   0  103.56    2.59
  -1   3   0   91.47    2.66
  -1   3   0  103.18    2.47
  -1   3   0  104.56    2.52
   0  -3   0    4.40    0.15
   0  -3   0    4.27    0.13
   0  -3   0    4.32    0.15
   0  -3   0    4.39    0.13
   0  -3   0    4.32    0.14
   0  -3   0    4.28    0.12
   0   3   0    4.39    0.11
   0   3   0    4.33    0.13
   0   3   0    4.28    0.15
   0   3   0    4.27    0.14
   0   3   0    4.49    0.13
   0   3   0    4.34    0.15
  -1  -3   0    2.20    0.10
  -1  -3   0    2.21    0.08
  -1  -3   0    2.12    0.09
  -1  -3   0    2.20    0.09
  -1  -3   0    2.16    0.09
  -1  -3   0    2.22    0.09
   1   3   0    2.41    0.09
   1   3   0    2.36    0.09
   1   3   0    1.97    0.09
   1   3   0    2.19    0.09
   1   3   0    2.22    0.09
   1   3   0    2.08    0.09
  -2  -3   0   36.93    0.91
  -2  -3   0   36.53    0.94
  -2  -3   0   36.70    0.99
  -2  -3   0   36.68    0.91
  -2  -3   0   37.26    0.99
   2   3   0   36.68    0.91
   2   3   0   37.79    0.94
   2   3   0   37.15    0.91
   2   3   0   36.88    0.99
   2   3   0   36.02    0.99
  -3  -3   0    2.14    0.10
  -3  -3   0    2.09    0.10
  -3  -3   0    2.00    0.06
  -3  -3   0    2.00    0.11
  -3  -3   0    2.06    0.09
  -3  -3   0    2.01    0.11
  -3  -3   0    1.99    0.10
   3   3   0    2.02    0.09
   3   3   0    2.04    0.10
   3   3   0    2.18    0.10
   3   3   0    2.29    0.11
  -4  -3   0   82.60    2.14
  -4  -3   0   80.90    2.03
  -4  -3   0   81.97    2.14
  -4  -3   0   81.33    1.97
  -4  -3   0   80.20    2.02
  -4  -3   0   79.85    2.09
   4   3   0   82.66    2.14
  -5  -3   0    3.38    0.16
  -5  -3   0    3.51    0.16
  -5  -3   0    3.59    0.12
  -5  -3   0    3.48    0.13
  -5  -3   0    3.48    0.12
  -5  -3   0    3.49    0.17
  -5  -3   0    3.34    0.13
   5   3   0    3.54    0.13
   5   3   0    3.50    0.12
  -6  -3   0    2.43    0.10
  -6  -3   0    2.56    0.15
  -6  -3   0    2.28    0.14
   6   3   0    2.23    0.08
   6   3   0    2.42    0.08
  -7  -3   0    2.01    0.16
  -7  -3   0    1.70    0.15
  -8  -3   0    1.74    0.16
  -8  -3   0    1.59    0.14
 -11   4   0    0.01    0.09
  10  -4   0    0.16    0.08
 -10   4   0    0.19    0.09
 -10   4   0    0.33    0.06
   9  -4   0    1.84    0.07
   9  -4   0    1.92    0.07
   9  -4   0    2.00    0.16
  -9   4   0    1.85    0.07
  -9   4   0    1.57    0.15
  -9   4   0    1.81    0.11
   8  -4   0   -0.06    0.06
   8  -4   0    0.10    0.04
   8  -4   0    0.11    0.03
  -8   4   0    0.14    0.07
  -8   4   0    0.15    0.04
  -8   4   0    0.08    0.05
  -8   4   0    0.12    0.03
   7  -4   0    0.94    0.07
   7  -4   0    0.95    0.06
   7  -4   0    0.92    0.07
   7  -4   0    0.80    0.09
   7  -4   0    0.81    0.07
  -7   4   0    0.89    0.08
  -7   4   0    0.83    0.06
  -7   4   0    0.91    0.08
  -7   4   0    0.96    0.07
   6  -4   0   58.94    1.46
   6  -4   0   59.37    1.57
   6  -4   0   59.83    1.58
   6  -4   0   59.73    1.56
   6  -4   0   59.43    1.45
  -6   4   0   59.13    1.58
  -6   4   0   59.47    1.56
  -6   4   0   58.65    1.57
  -6   4   0   59.74    1.46
  -6   4   0   59.76    1.44
   5  -4   0   16.12    0.47
   5  -4   0   16.11    0.47
   5  -4   0   16.80    0.47
   5  -4   0   16.08    0.44
  -5   4   0   17.03    0.47
  -5   4   0   16.63    0.47
  -5   4   0   16.35    0.42
  -5   4   0   16.29    0.44
  -5   4   0   16.72    0.47
  -5   4   0   16.43    0.44
   4  -4   0   38.32    1.05
   4  -4   0   40.16    1.05
   4  -4   0   39.13    0.97
   4  -4   0   38.49    1.03
  -4   4   0   38.36    1.05
  -4   4   0   38.80    1.02
  -4   4   0   38.80    0.97
  -4   4   0   39.03    0.98
  -4   4   0   38.51    0.93
  -4   4   0   39.41    1.05
   3  -4   0   25.15    0.66
   3  -4   0   25.04    0.71
   3  -4   0   26.50    0.71
   3  -4   0   25.09    0.69
   3  -4   0   26.12    0.65
  -3   4   0   27.14    0.71
  -3   4   0   25.83    0.65
  -3   4   0   25.81    0.68
  -3   4   0   25.34    0.71
  -3   4   0   25.92    0.66
  -3   4   0   25.70    0.61
   2  -4   0  112.92    2.94
   2  -4   0  111.57    2.76
   2  -4   0  109.71    2.70
   2  -4   0  112.43    2.84
   2  -4   0  109.95    2.93
  -2   4   0  109.93    2.83
  -2   4   0  107.67    2.93
  -2   4   0  113.98    2.70
  -2   4   0  113.86    2.94
  -2   4   0  116.50    2.75
   1  -4   0   18.63    0.52
   1  -4   0   18.68    0.50
   1  -4   0   18.80    0.48
   1  -4   0   18.35    0.48
   1  -4   0   18.19    0.52
  -1   4   0   18.53    0.47
  -1   4   0   18.59    0.48
  -1   4   0   18.34    0.47
  -1   4   0   18.08    0.52
  -1   4   0   18.55    0.52
   0  -4   0   26.04    0.68
   0  -4   0   26.70    0.67
   0  -4   0   25.90    0.73
   0  -4   0   26.95    0.73
   0  -4   0   26.82    0.64
   0  -4   0   26.61    0.70
   0   4   0   26.15    0.65
   0   4   0   26.91    0.69
   0   4   0   26.65    0.73
   0   4   0   26.56    0.66
   0   4   0   26.89    0.66
   0   4   0   25.93    0.73
   0   4   0   26.25    0.66
  -1  -4   0    2.06    0.09
  -1  -4   0    2.06    0.10
  -1  -4   0    1.92    0.10
  -1  -4   0    2.11    0.10
  -1  -4   0    1.80    0.09
   1   4   0    1.67    0.09
   1   4   0    1.96    0.10
   1   4   0    2.05    0.11
   1   4   0    2.14    0.11
   1   4   0    1.78    0.10
  -2  -4   0    2.25    0.11
  -2  -4   0    2.15    0.11
  -2  -4   0    2.27    0.10
  -2  -4   0    2.11    0.10
  -2  -4   0    2.11    0.10
  -2  -4   0    2.08    0.12
   2   4   0    2.08    0.10
   2   4   0    2.29    0.11
   2   4   0    2.30    0.11
   2   4   0    2.26    0.11
  -3  -4   0   23.19    0.60
  -3  -4   0   22.97    0.64
  -3  -4   0   22.96    0.60
  -3  -4   0   23.33    0.61
  -3  -4   0   22.31    0.62
  -3  -4   0   23.63    0.65
   3   4   0   22.80    0.61
   3   4   0   22.66    0.64
   3   4   0   23.97    0.65
  -4  -4   0    0.06    0.05
  -4  -4   0    0.04    0.04
  -4  -4   0    0.09    0.06
  -4  -4   0    0.01    0.06
  -4  -4   0    0.10    0.05
   4   4   0    0.06    0.04
   4   4   0    0.09    0.04
  -5  -4   0   10.04    0.34
  -5  -4   0   10.53    0.34
   5   4   0   10.10    0.31
  -6  -4   0   10.30    0.34
  -6  -4   0   10.16    0.35
   6   4   0    9.87    0.29
  -7  -4   0    0.17    0.09
  -7  -4   0    0.08    0.08
  11  -5   0    0.02    0.08
 -11   5   0   -0.04    0.08
 -11   5   0    0.03    0.06
  10  -5   0    4.22    0.15
  10  -5   0    4.42    0.24
 -10   5   0    4.58    0.18
 -10   5   0    4.82    0.23
   9  -5   0    6.60    0.23
   9  -5   0    7.30    0.21
   9  -5   0    7.63    0.30
  -9   5   0    7.60    0.25
  -9   5   0    7.44    0.29
  -9   5   0    7.33    0.24
   8  -5   0    0.20    0.04
   8  -5   0    0.20    0.04
   8  -5   0    0.11    0.07
   8  -5   0    0.17    0.05
   8  -5   0    0.17    0.05
  -8   5   0    0.12    0.04
  -8   5   0    0.22    0.05
  -8   5   0    0.09    0.07
  -8   5   0    0.19    0.05
   7  -5   0    3.40    0.14
   7  -5   0    2.98    0.13
   7  -5   0    3.24    0.13
   7  -5   0    3.37    0.18
   7  -5   0    3.25    0.14
  -7   5   0    3.09    0.13
  -7   5   0    3.39    0.14
  -7   5   0    3.10    0.14
  -7   5   0    3.33    0.14
  -7   5   0    3.21    0.13
  -7   5   0    3.15    0.16
   6  -5   0    7.14    0.25
   6  -5   0    7.10    0.23
   6  -5   0    7.31    0.26
   6  -5   0    7.24    0.24
  -6   5   0    7.35    0.23
  -6   5   0    7.69    0.27
  -6   5   0    7.34    0.24
  -6   5   0    7.51    0.25
  -6   5   0    7.32    0.22
  -6   5   0    7.06    0.21
   5  -5   0   -0.04    0.04
   5  -5   0    0.00    0.04
   5  -5   0    0.03    0.04
   5  -5   0   -0.05    0.05
  -5   5   0    0.01    0.04
  -5   5   0    0.03    0.03
  -5   5   0    0.06    0.05
  -5   5   0   -0.02    0.04
  -5   5   0   -0.02    0.05
  -5   5   0    0.09    0.02
   4  -5   0   13.85    0.43
   4  -5   0   14.85    0.43
   4  -5   0   14.35    0.40
   4  -5   0   14.54    0.39
   4  -5   0   14.52    0.42
  -4   5   0   14.71    0.41
  -4   5   0   14.38    0.39
  -4   5   0   14.26    0.35
  -4   5   0   14.02    0.43
  -4   5   0   14.88    0.43
  -4   5   0   14.59    0.39
   3  -5   0   92.37    2.33
   3  -5   0   90.27    2.40
   3  -5   0   79.09    2.40
   3  -5   0   91.64    2.25
   3  -5   0   93.03    2.21
  -3   5   0   91.01    2.32
  -3   5   0   92.55    2.22
  -3   5   0   93.70    2.41
  -3   5   0   92.15    2.40
  -3   5   0   93.34    2.25
   2  -5   0  130.28    3.12
   2  -5   0  117.86    3.38
   2  -5   0  133.33    3.27
   2  -5   0  126.22    3.38
   2  -5   0  129.92    3.17
  -2   5   0  131.00    3.39
  -2   5   0  129.22    3.27
  -2   5   0  133.19    3.12
  -2   5   0  128.69    3.39
  -2   5   0  129.40    3.21
   1  -5   0   33.94    0.89
   1  -5   0   34.56    0.94
   1  -5   0   33.19    0.87
   1  -5   0   33.79    0.93
   1  -5   0   34.46    0.86
  -1   5   0   34.20    0.94
  -1   5   0   33.10    0.93
  -1   5   0   33.21    0.84
  -1   5   0   34.86    0.87
  -1   5   0   33.90    0.86
   0  -5   0  307.80    7.84
   0  -5   0  310.23    7.49
   0  -5   0  311.20    7.25
   0  -5   0  311.17    7.36
   0  -5   0  291.89    7.98
   0  -5   0  300.69    7.98
   0   5   0  304.44    7.41
   0   5   0  300.37    7.22
   0   5   0  304.27    7.98
   0   5   0  320.05    8.04
   0   5   0  312.36    7.49
  -1  -5   0    0.50    0.07
  -1  -5   0    0.41    0.06
  -1  -5   0    0.39    0.05
  -1  -5   0    0.50    0.07
  -1  -5   0    0.51    0.05
  -1  -5   0    0.35    0.06
   1   5   0    0.52    0.07
   1   5   0    0.46    0.06
   1   5   0    0.44    0.07
  -2  -5   0    3.87    0.17
  -2  -5   0    3.63    0.15
  -2  -5   0    4.15    0.16
  -2  -5   0    3.84    0.15
   2   5   0    4.03    0.16
   2   5   0    3.96    0.17
   2   5   0    4.11    0.17
  -3  -5   0    3.20    0.16
  -3  -5   0    3.13    0.14
  -3  -5   0    2.98    0.16
   3   5   0    3.01    0.14
   3   5   0    3.04    0.15
   3   5   0    2.87    0.15
  -4  -5   0    0.94    0.10
  -4  -5   0    1.00    0.10
  -4  -5   0    1.20    0.10
   4   5   0    1.09    0.09
  -5  -5   0    1.12    0.12
  -5  -5   0    1.19    0.11
   5   5   0    1.19    0.09
  -6  -5   0    7.27    0.30
  -6  -5   0    7.80    0.30
   6   5   0    7.18    0.24
  12  -6   0    0.21    0.10
 -12   6   0    0.20    0.10
  11  -6   0    2.34    0.21
  11  -6   0    1.97    0.10
 -11   6   0    2.22    0.14
 -11   6   0    1.99    0.18
  10  -6   0    0.02    0.04
  10  -6   0   -0.06    0.08
 -10   6   0    0.06    0.09
 -10   6   0    0.09    0.06
   9  -6   0    1.17    0.11
   9  -6   0    1.28    0.13
   9  -6   0    1.00    0.09
   9  -6   0    1.12    0.10
  -9   6   0    1.10    0.12
  -9   6   0    1.21    0.10
  -9   6   0    1.20    0.11
   8  -6   0    3.41    0.15
   8  -6   0    3.66    0.16
   8  -6   0    3.40    0.14
   8  -6   0    3.61    0.20
  -8   6   0    3.34    0.15
  -8   6   0    3.53    0.14
  -8   6   0    3.50    0.16
  -8   6   0    3.60    0.18
   7  -6   0    1.07    0.11
   7  -6   0    1.28    0.10
   7  -6   0    0.97    0.08
   7  -6   0    0.98    0.09
  -7   6   0    1.00    0.11
  -7   6   0    1.07    0.08
  -7   6   0    0.87    0.09
  -7   6   0    1.08    0.10
  -7   6   0    0.95    0.09
   6  -6   0    9.05    0.31
   6  -6   0    8.87    0.30
   6  -6   0    8.46    0.27
   6  -6   0    8.68    0.29
  -6   6   0    8.45    0.29
  -6   6   0    8.66    0.24
  -6   6   0    8.68    0.29
  -6   6   0    8.66    0.26
  -6   6   0    8.67    0.27
   5  -6   0    4.40    0.18
   5  -6   0    4.64    0.17
   5  -6   0    4.56    0.19
   5  -6   0    4.80    0.19
  -5   6   0    4.45    0.18
  -5   6   0    4.71    0.13
  -5   6   0    4.76    0.19
  -5   6   0    4.85    0.17
  -5   6   0    4.55    0.19
  -5   6   0    4.65    0.18
  -5   6   0    4.71    0.17
   4  -6   0   16.18    0.45
   4  -6   0   16.25    0.48
   4  -6   0   16.65    0.49
   4  -6   0   16.18    0.45
   4  -6   0   16.49    0.49
  -4   6   0   16.37    0.49
  -4   6   0   16.63    0.45
  -4   6   0   16.54    0.45
  -4   6   0   16.25    0.46
  -4   6   0   16.42    0.46
  -4   6   0   16.49    0.49
   3  -6   0   30.29    0.84
   3  -6   0   29.89    0.76
   3  -6   0   28.46    0.77
   3  -6   0   29.23    0.80
   3  -6   0   28.97    0.84
  -3   6   0   30.19    0.77
  -3   6   0   29.27    0.84
  -3   6   0   30.22    0.77
  -3   6   0   30.03    0.78
  -3   6   0   30.70    0.84
  -3   6   0   29.76    0.79
   2  -6   0    0.06    0.05
   2  -6   0    0.12    0.05
   2  -6   0    0.03    0.04
   2  -6   0    0.07    0.04
   2  -6   0    0.01    0.05
  -2   6   0    0.02    0.04
  -2   6   0    0.03    0.05
  -2   6   0    0.02    0.04
  -2   6   0    0.06    0.05
  -2   6   0    0.00    0.03
   1  -6   0    6.05    0.21
   1  -6   0    6.68    0.24
   1  -6   0    6.21    0.21
   1  -6   0    6.34    0.21
   1  -6   0    6.23    0.23
  -1   6   0    6.16    0.20
  -1   6   0    6.01    0.18
  -1   6   0    6.31    0.24
  -1   6   0    6.32    0.19
  -1   6   0    6.53    0.24
   0  -6   0    0.08    0.04
   0  -6   0   -0.04    0.05
   0  -6   0    0.08    0.05
   0   6   0    0.04    0.05
   0   6   0    0.03    0.04
   0   6   0   -0.01    0.05
  -1  -6   0    9.02    0.29
  -1  -6   0    9.44    0.31
  -1  -6   0    9.11    0.30
  -1  -6   0    9.27    0.26
   1   6   0    9.48    0.32
   1   6   0    9.40    0.32
   1   6   0    9.19    0.28
  -2  -6   0    9.67    0.33
  -2  -6   0    9.70    0.30
  -2  -6   0   10.06    0.32
   2   6   0    9.49    0.31
   2   6   0   10.27    0.34
   2   6   0   10.10    0.33
  -3  -6   0    4.06    0.19
  -3  -6   0    3.93    0.17
   3   6   0    3.86    0.18
   3   6   0    3.89    0.17
  -4  -6   0    6.20    0.25
   4   6   0    6.19    0.23
  -5  -6   0    4.28    0.23
   5   6   0    3.69    0.17
  12  -7   0    0.42    0.12
 -12   7   0    0.25    0.11
  11  -7   0    0.55    0.07
  11  -7   0    0.53    0.12
 -11   7   0    0.69    0.09
 -11   7   0    0.62    0.12
  10  -7   0    4.50    0.26
  10  -7   0    4.42    0.19
 -10   7   0    4.77    0.20
 -10   7   0    4.76    0.24
   9  -7   0    1.53    0.11
   9  -7   0    1.60    0.12
   9  -7   0    1.27    0.14
  -9   7   0    1.44    0.12
  -9   7   0    1.32    0.13
  -9   7   0    1.47    0.12
   8  -7   0    3.74    0.17
   8  -7   0    3.70    0.18
   8  -7   0    3.51    0.21
  -8   7   0    3.74    0.17
  -8   7   0    3.72    0.20
  -8   7   0    3.86    0.18
  -8   7   0    3.59    0.14
   7  -7   0   11.91    0.39
   7  -7   0   12.24    0.41
  -7   7   0   12.13    0.39
  -7   7   0   11.71    0.32
  -7   7   0   11.84    0.39
  -7   7   0   12.46    0.37
   6  -7   0    0.87    0.09
   6  -7   0    1.21    0.11
   6  -7   0    0.72    0.10
  -6   7   0    1.07    0.09
  -6   7   0    0.94    0.09
  -6   7   0    0.70    0.09
   5  -7   0    2.94    0.16
   5  -7   0    2.87    0.14
   5  -7   0    2.96    0.16
   5  -7   0    2.97    0.16
  -5   7   0    2.91    0.14
  -5   7   0    2.77    0.15
  -5   7   0    2.96    0.14
   4  -7   0   15.51    0.46
   4  -7   0   15.75    0.48
   4  -7   0   15.53    0.44
   4  -7   0   14.68    0.48
  -4   7   0   15.86    0.44
  -4   7   0   15.40    0.45
  -4   7   0   15.66    0.48
  -4   7   0   15.52    0.44
   3  -7   0    3.09    0.14
   3  -7   0    2.99    0.14
   3  -7   0    2.91    0.15
  -3   7   0    2.93    0.15
  -3   7   0    2.94    0.15
  -3   7   0    2.94    0.12
  -3   7   0    2.90    0.13
  -3   7   0    3.16    0.13
  -3   7   0    3.03    0.15
   2  -7   0    8.80    0.28
   2  -7   0    8.80    0.31
   2  -7   0    9.07    0.29
  -2   7   0    8.56    0.32
  -2   7   0    8.92    0.25
  -2   7   0    9.06    0.31
   1  -7   0    2.73    0.14
   1  -7   0    2.71    0.15
   1  -7   0    2.78    0.16
  -1   7   0    2.83    0.16
  -1   7   0    2.79    0.16
  -1   7   0    2.86    0.09
  -1   7   0    2.67    0.12
   0  -7   0    0.54    0.08
   0  -7   0    0.56    0.06
   0  -7   0    0.25    0.08
   0   7   0    0.48    0.08
   0   7   0    0.60    0.09
   0   7   0    0.51    0.06
  -1  -7   0    0.20    0.05
  -1  -7   0    0.20    0.07
  -1  -7   0    0.08    0.08
   1   7   0    0.09    0.06
   1   7   0    0.17    0.05
   1   7   0    0.18    0.07
  -2  -7   0   -0.07    0.07
  -2  -7   0    0.00    0.06
  -2  -7   0   -0.01    0.04
   2   7   0    0.03    0.06
   2   7   0    0.04    0.06
  -3  -7   0    0.01    0.08
  -3  -7   0    0.06    0.05
   3   7   0    0.06    0.06
   3   7   0    0.10    0.07
  -4  -7   0    0.80    0.12
   4   7   0    0.73    0.09
  11  -8   0    0.03    0.09
  11  -8   0    0.04    0.06
 -11   8   0   -0.11    0.09
 -11   8   0   -0.01    0.07
  10  -8   0    0.04    0.09
  10  -8   0    0.04    0.06
 -10   8   0    0.09    0.09
 -10   8   0    0.13    0.07
   9  -8   0   -0.07    0.06
   9  -8   0    0.10    0.09
  -9   8   0    0.02    0.07
  -9   8   0   -0.10    0.06
  -9   8   0   -0.02    0.08
   8  -8   0    1.44    0.13
   8  -8   0    1.31    0.13
   8  -8   0    1.45    0.14
  -8   8   0    1.20    0.12
  -8   8   0    1.27    0.13
  -8   8   0    1.51    0.13
   7  -8   0    0.18    0.07
   7  -8   0    0.19    0.08
   7  -8   0    0.08    0.08
  -7   8   0    0.21    0.08
  -7   8   0    0.15    0.07
  -7   8   0    0.09    0.08
   6  -8   0    0.02    0.07
   6  -8   0   -0.02    0.06
   6  -8   0   -0.13    0.06
  -6   8   0   -0.01    0.06
  -6   8   0    0.04    0.06
  -6   8   0   -0.05    0.06
   5  -8   0    0.16    0.07
   5  -8   0    0.15    0.05
   5  -8   0    0.09    0.07
  -5   8   0    0.15    0.07
  -5   8   0    0.07    0.05
  -5   8   0    0.15    0.06
   4  -8   0    5.40    0.22
   4  -8   0    5.07    0.20
   4  -8   0    5.15    0.23
  -4   8   0    5.33    0.19
  -4   8   0    5.19    0.23
  -4   8   0    5.25    0.21
   3  -8   0    1.53    0.12
   3  -8   0    1.82    0.12
   3  -8   0    1.68    0.14
  -3   8   0    1.47    0.14
  -3   8   0    1.64    0.09
   2  -8   0    2.04    0.14
   2  -8   0    2.25    0.16
   2  -8   0    2.37    0.14
  -2   8   0    2.19    0.11
  -2   8   0    2.18    0.16
  -2   8   0    2.10    0.09
   1  -8   0    5.83    0.24
   1  -8   0    6.14    0.23
   1  -8   0    6.08    0.26
  -1   8   0    6.02    0.20
  -1   8   0    6.29    0.26
   0  -8   0    1.46    0.15
   0  -8   0    1.56    0.12
   0  -8   0    1.34    0.12
   0   8   0    1.54    0.15
   0   8   0    1.44    0.14
   0   8   0    1.39    0.11
  -1  -8   0    1.06    0.10
  -1  -8   0    1.05    0.11
  -1  -8   0    0.82    0.11
   1   8   0    0.91    0.11
   1   8   0    1.00    0.09
  -2  -8   0    3.06    0.20
  -2  -8   0    2.83    0.15
   2   8   0    2.87    0.16
   2   8   0    3.04    0.18
  -3  -8   0    1.11    0.13
   3   8   0    1.31    0.13
  11  -9   0    0.08    0.10
  11  -9   0   -0.01    0.06
 -11   9   0    0.01    0.07
 -11   9   0    0.04    0.10
  10  -9   0   -0.09    0.06
  10  -9   0    0.09    0.10
 -10   9   0   -0.06    0.09
 -10   9   0    0.09    0.08
   9  -9   0    0.00    0.09
   9  -9   0   -0.10    0.07
  -9   9   0   -0.05    0.08
  -9   9   0   -0.10    0.07
  -9   9   0   -0.08    0.07
   8  -9   0    0.25    0.09
   8  -9   0    0.18    0.08
  -8   9   0    0.28    0.09
  -8   9   0    0.31    0.08
  -8   9   0    0.18    0.08
   7  -9   0    0.15    0.08
   7  -9   0    0.41    0.09
  -7   9   0    0.17    0.08
  -7   9   0    0.21    0.08
  -7   9   0    0.33    0.08
   6  -9   0    3.58    0.17
   6  -9   0    3.30    0.19
   6  -9   0    3.49    0.20
  -6   9   0    3.63    0.18
  -6   9   0    3.44    0.17
  -6   9   0    3.71    0.20
   5  -9   0   -0.04    0.07
   5  -9   0    0.04    0.06
   5  -9   0    0.04    0.07
  -5   9   0    0.08    0.07
  -5   9   0    0.25    0.06
  -5   9   0   -0.02    0.07
   4  -9   0    0.88    0.11
   4  -9   0    0.87    0.09
   4  -9   0    1.11    0.11
  -4   9   0    0.91    0.09
  -4   9   0    0.76    0.11
   3  -9   0    0.27    0.09
   3  -9   0    0.40    0.08
   3  -9   0    0.39    0.08
  -3   9   0    0.41    0.05
  -3   9   0    0.24    0.09
   2  -9   0   -0.04    0.07
   2  -9   0    0.07    0.06
   2  -9   0    0.08    0.08
  -2   9   0    0.04    0.08
  -2   9   0    0.19    0.05
  -2   9   0    0.04    0.02
   1  -9   0    0.09    0.08
   1  -9   0    0.14    0.06
   1  -9   0    0.06    0.08
  -1   9   0    0.02    0.08
  -1   9   0    0.10    0.05
   0  -9   0    0.07    0.06
   0  -9   0    0.02    0.08
   0  -9   0    0.11    0.08
   0   9   0    0.05    0.08
   0   9   0    0.07    0.06
  -1  -9   0    0.08    0.08
   1   9   0    0.02    0.08
   1   9   0    0.07    0.06
  -2  -9   0   -0.06    0.09
   2   9   0    0.09    0.07
   2   9   0    0.06    0.08
  11 -10   0    0.17    0.12
  11 -10   0    0.22    0.09
 -11  10   0    0.39    0.10
 -11  10   0    0.31    0.11
  10 -10   0    0.37    0.11
  10 -10   0    0.20    0.09
 -10  10   0    0.42    0.11
 -10  10   0    0.28    0.09
   9 -10   0    0.62    0.11
   9 -10   0    0.88    0.13
  -9  10   0    0.67    0.11
  -9  10   0    0.89    0.12
  -9  10   0    0.78    0.11
   8 -10   0    0.60    0.11
   8 -10   0    0.75    0.12
  -8  10   0    0.63    0.11
  -8  10   0    0.50    0.10
  -8  10   0    0.38    0.10
   7 -10   0    2.45    0.19
   7 -10   0    2.75    0.19
  -7  10   0    2.67    0.19
  -7  10   0    2.62    0.17
  -7  10   0    2.07    0.16
   6 -10   0    0.39    0.10
   6 -10   0    0.42    0.10
   6 -10   0    0.35    0.08
  -6  10   0    0.41    0.10
  -6  10   0    0.54    0.08
  -6  10   0    0.35    0.08
   5 -10   0   -0.01    0.06
   5 -10   0    0.05    0.08
   5 -10   0   -0.06    0.07
  -5  10   0    0.01    0.05
  -5  10   0   -0.08    0.08
   4 -10   0    0.48    0.09
   4 -10   0    0.41    0.11
   4 -10   0    0.52    0.09
  -4  10   0    0.22    0.10
  -4  10   0    0.49    0.06
   3 -10   0    1.73    0.15
   3 -10   0    1.72    0.17
   3 -10   0    1.88    0.15
  -3  10   0    1.81    0.11
  -3  10   0    1.73    0.17
   2 -10   0    3.00    0.18
   2 -10   0    3.04    0.20
   2 -10   0    2.67    0.19
  -2  10   0    2.86    0.14
  -2  10   0    2.80    0.20
   1 -10   0    0.40    0.10
   1 -10   0    0.32    0.09
   1 -10   0    0.42    0.08
  -1  10   0    0.47    0.07
  -1  10   0    0.27    0.10
   0 -10   0    0.36    0.11
   0  10   0    0.55    0.11
  10 -11   0    0.04    0.11
  10 -11   0    0.05    0.09
 -10  11   0    0.08    0.10
 -10  11   0   -0.12    0.09
   9 -11   0    0.11    0.10
   9 -11   0   -0.05    0.10
  -9  11   0    0.04    0.10
  -9  11   0    0.01    0.09
  -9  11   0   -0.01    0.09
   8 -11   0    0.11    0.10
   8 -11   0    0.13    0.10
  -8  11   0    0.17    0.09
  -8  11   0    0.27    0.10
  -8  11   0    0.19    0.09
   7 -11   0    0.47    0.11
   7 -11   0    0.42    0.11
  -7  11   0    0.47    0.11
  -7  11   0    0.50    0.09
   6 -11   0    0.50    0.11
   6 -11   0    0.71    0.12
   6 -11   0    0.54    0.09
  -6  11   0    0.56    0.09
  -6  11   0    0.66    0.12
   5 -11   0    1.45    0.13
   5 -11   0    1.26    0.15
   5 -11   0    1.62    0.15
  -5  11   0    1.57    0.13
  -5  11   0    1.25    0.15
   4 -11   0    0.12    0.10
   4 -11   0    0.21    0.09
   4 -11   0    0.15    0.08
  -4  11   0    0.11    0.10
   3 -11   0    0.34    0.09
   3 -11   0    0.54    0.11
   3 -11   0    0.45    0.12
  -3  11   0    0.46    0.12
   2 -11   0    0.14    0.09
   2 -11   0    0.31    0.12
  -2  11   0    0.21    0.11
   8 -12   0    0.46    0.12
  -8  12   0    0.33    0.10
  -8  12   0    0.37    0.12
   7 -12   0    0.09    0.10
   7 -12   0    0.11    0.11
  -7  12   0    0.11    0.11
  -7  12   0    0.09    0.08
   6 -12   0    0.40    0.13
   6 -12   0    0.36    0.11
   6 -12   0    0.53    0.10
  -6  12   0    0.46    0.13
   5 -12   0    0.02    0.09
   5 -12   0    0.15    0.10
   5 -12   0   -0.05    0.11
  -5  12   0    0.06    0.11
  -4  12  -1    0.55    0.13
   4 -12   1    0.50    0.11
   4 -12   1    0.70    0.14
   4 -12   1    0.70    0.12
  -5  12  -1    3.73    0.25
   5 -12   1    4.07    0.26
   5 -12   1    3.86    0.22
   5 -12   1    4.20    0.25
  -6  12  -1    0.02    0.10
   6 -12   1    0.11    0.08
   6 -12   1    0.12    0.11
   6 -12   1   -0.10    0.09
  -7  12  -1    0.04    0.08
  -7  12  -1    0.10    0.08
  -7  12  -1    0.17    0.10
   7 -12   1   -0.10    0.09
   7 -12   1   -0.03    0.09
  -8  12  -1    0.37    0.11
  -8  12  -1    0.39    0.10
  -8  12  -1    0.20    0.09
   8 -12   1    0.37    0.12
   8 -12   1    0.40    0.12
  -1  11  -1    0.11    0.10
   1 -11   1    0.15    0.08
   1 -11   1    0.08    0.09
   1 -11   1    0.30    0.12
  -2  11  -1    0.87    0.13
   2 -11   1    0.52    0.10
   2 -11   1    0.63    0.11
   2 -11   1    0.60    0.12
  -3  11  -1    0.06    0.09
   3 -11   1    0.20    0.10
   3 -11   1    0.06    0.08
   3 -11   1    0.16    0.09
  -4  11  -1    0.21    0.11
   4 -11   1    0.10    0.10
   4 -11   1    0.26    0.09
   4 -11   1    0.24    0.09
  -5  11  -1    0.15    0.10
  -5  11  -1    0.13    0.07
   5 -11   1    0.08    0.09
   5 -11   1    0.29    0.09
   5 -11   1    0.07    0.10
  -6  11  -1    0.02    0.07
  -6  11  -1    0.04    0.07
  -6  11  -1   -0.10    0.08
   6 -11   1   -0.04    0.09
   6 -11   1   -0.09    0.08
   6 -11   1   -0.01    0.06
  -7  11  -1    0.05    0.07
  -7  11  -1    0.04    0.08
  -7  11  -1   -0.06    0.08
   7 -11   1   -0.05    0.08
   7 -11   1    0.11    0.09
  -8  11  -1    0.80    0.11
  -8  11  -1    0.86    0.12
  -8  11  -1    0.77    0.11
   8 -11   1    0.81    0.12
   8 -11   1    0.89    0.13
  -9  11  -1    0.08    0.09
  -9  11  -1    0.11    0.09
  -9  11  -1    0.03    0.08
   9 -11   1   -0.02    0.08
   9 -11   1    0.06    0.10
 -10  11  -1    0.93    0.14
 -10  11  -1    0.79    0.12
  10 -11   1    0.62    0.14
  10 -11   1    0.81    0.12
   1  10  -1    2.87    0.20
  -1 -10   1    3.21    0.21
   0  10  -1    0.01    0.08
   0 -10   1    0.01    0.08
   0 -10   1   -0.07    0.06
   0 -10   1   -0.02    0.08
  -1  10  -1    2.15    0.18
  -1  10  -1    2.41    0.13
   1 -10   1    2.33    0.16
   1 -10   1    2.46    0.17
   1 -10   1    2.43    0.19
  -2  10  -1    0.09    0.09
  -2  10  -1    0.18    0.05
   2 -10   1    0.23    0.08
   2 -10   1    0.23    0.08
   2 -10   1    0.17    0.09
  -3  10  -1    0.25    0.05
  -3  10  -1    0.16    0.10
  -3  10  -1    0.37    0.05
   3 -10   1    0.27    0.08
   3 -10   1    0.32    0.08
   3 -10   1    0.11    0.09
  -4  10  -1   -0.19    0.08
  -4  10  -1    0.01    0.05
   4 -10   1    0.00    0.07
   4 -10   1   -0.16    0.08
   4 -10   1   -0.01    0.06
  -5  10  -1    1.60    0.16
  -5  10  -1    1.83    0.14
  -5  10  -1    1.87    0.13
   5 -10   1    1.91    0.16
   5 -10   1    1.60    0.14
   5 -10   1    1.90    0.16
  -6  10  -1    0.74    0.09
  -6  10  -1    0.65    0.11
  -6  10  -1    0.87    0.10
   6 -10   1    0.58    0.10
   6 -10   1    0.73    0.11
  -7  10  -1    0.08    0.07
  -7  10  -1    0.01    0.08
  -7  10  -1   -0.10    0.07
   7 -10   1   -0.09    0.07
   7 -10   1    0.07    0.08
  -8  10  -1    0.63    0.10
  -8  10  -1    0.63    0.11
  -8  10  -1    0.75    0.11
   8 -10   1    0.63    0.10
   8 -10   1    0.54    0.11
  -9  10  -1    0.32    0.09
  -9  10  -1    0.31    0.10
  -9  10  -1    0.25    0.09
   9 -10   1    0.43    0.10
   9 -10   1    0.55    0.11
 -10  10  -1   -0.04    0.08
 -10  10  -1    0.09    0.11
  10 -10   1    0.12    0.09
  10 -10   1    0.00    0.10
 -11  10  -1    0.66    0.11
 -11  10  -1    0.55    0.13
  11 -10   1    0.42    0.13
  11 -10   1    0.51    0.10
   2   9  -1    1.52    0.15
  -2  -9   1    1.53    0.14
   1   9  -1    2.81    0.18
   1   9  -1    2.64    0.14
  -1  -9   1    2.78    0.19
  -1  -9   1    2.45    0.15
   0   9  -1    8.77    0.27
   0   9  -1    8.37    0.33
   0  -9   1    8.23    0.30
   0  -9   1    8.76    0.34
   0  -9   1    8.24    0.31
  -1   9  -1    3.28    0.14
  -1   9  -1    3.47    0.20
   1  -9   1    3.24    0.20
   1  -9   1    3.64    0.18
   1  -9   1    3.61    0.19
  -2   9  -1    2.56    0.10
  -2   9  -1    2.66    0.12
  -2   9  -1    2.24    0.17
   2  -9   1    2.66    0.15
   2  -9   1    2.57    0.17
   2  -9   1    2.50    0.15
  -3   9  -1    4.39    0.15
  -3   9  -1    4.36    0.22
  -3   9  -1    4.64    0.17
   3  -9   1    4.51    0.22
   3  -9   1    4.74    0.21
   3  -9   1    4.41    0.20
  -4   9  -1    1.24    0.10
  -4   9  -1    0.98    0.11
  -4   9  -1    1.08    0.10
   4  -9   1    1.04    0.10
   4  -9   1    1.06    0.10
   4  -9   1    1.18    0.12
  -5   9  -1    2.84    0.15
  -5   9  -1    2.85    0.16
  -5   9  -1    2.77    0.17
   5  -9   1    3.04    0.15
   5  -9   1    2.64    0.17
   5  -9   1    2.83    0.17
  -6   9  -1    0.74    0.09
  -6   9  -1    0.68    0.10
  -6   9  -1    0.81    0.10
   6  -9   1    0.48    0.09
   6  -9   1    0.54    0.10
  -7   9  -1   15.52    0.51
  -7   9  -1   15.66    0.47
  -7   9  -1   16.30    0.49
   7  -9   1   16.14    0.52
   7  -9   1   15.31    0.51
  -8   9  -1    0.08    0.07
  -8   9  -1    0.06    0.08
  -8   9  -1    0.13    0.08
   8  -9   1   -0.01    0.08
   8  -9   1    0.09    0.07
  -9   9  -1    6.35    0.27
  -9   9  -1    7.02    0.30
  -9   9  -1    6.72    0.27
   9  -9   1    5.96    0.27
   9  -9   1    7.30    0.31
 -10   9  -1    0.04    0.08
 -10   9  -1    0.04    0.09
  10  -9   1    0.09    0.07
  10  -9   1    0.10    0.10
 -11   9  -1    0.11    0.10
 -11   9  -1    0.21    0.08
  11  -9   1    0.23    0.11
  11  -9   1    0.11    0.07
   4   8  -1    0.83    0.10
   3   8  -1    0.41    0.08
  -3  -8   1    0.26    0.09
  -3  -8   1    0.35    0.07
   2   8  -1    3.96    0.20
  -2  -8   1    3.79    0.18
  -2  -8   1    4.10    0.20
   1   8  -1    5.31    0.20
   1   8  -1    5.46    0.23
  -1  -8   1    5.28    0.21
  -1  -8   1    5.22    0.22
  -1  -8   1    5.04    0.23
   0   8  -1    0.12    0.05
   0   8  -1    0.06    0.07
   0   8  -1    0.05    0.07
   0  -8   1    0.03    0.07
   0  -8   1    0.14    0.08
   0  -8   1    0.09    0.05
  -1   8  -1    9.97    0.35
  -1   8  -1    9.82    0.26
  -1   8  -1    9.75    0.28
  -1   8  -1   10.47    0.37
  -1   8  -1    9.70    0.26
   1  -8   1    9.85    0.32
   1  -8   1    9.67    0.35
   1  -8   1   10.13    0.32
  -2   8  -1    7.00    0.21
  -2   8  -1    6.85    0.21
  -2   8  -1    6.75    0.27
   2  -8   1    7.41    0.26
   2  -8   1    7.12    0.28
   2  -8   1    7.07    0.25
  -3   8  -1    0.09    0.06
  -3   8  -1    0.00    0.07
  -3   8  -1    0.12    0.04
   3  -8   1    0.02    0.07
   3  -8   1    0.12    0.06
   3  -8   1    0.07    0.05
  -4   8  -1    1.47    0.10
  -4   8  -1    1.79    0.12
  -4   8  -1    1.73    0.13
   4  -8   1    1.67    0.13
   4  -8   1    1.60    0.11
   4  -8   1    1.63    0.13
  -5   8  -1    0.47    0.08
  -5   8  -1    0.55    0.07
   5  -8   1    0.53    0.08
   5  -8   1    0.44    0.08
   5  -8   1    0.59    0.07
   5  -8   1    0.53    0.09
  -6   8  -1    3.20    0.10
  -6   8  -1    3.10    0.16
  -6   8  -1    3.11    0.17
   6  -8   1    3.37    0.18
   6  -8   1    3.32    0.19
   6  -8   1    3.25    0.17
  -7   8  -1    0.93    0.10
  -7   8  -1    0.96    0.07
  -7   8  -1    1.08    0.10
   7  -8   1    1.16    0.11
   7  -8   1    0.93    0.10
   7  -8   1    1.04    0.12
  -8   8  -1    3.48    0.17
  -8   8  -1    3.32    0.13
  -8   8  -1    3.50    0.18
   8  -8   1    3.22    0.18
   8  -8   1    3.30    0.18
   8  -8   1    3.63    0.21
  -9   8  -1    0.12    0.07
  -9   8  -1    0.11    0.08
  -9   8  -1   -0.06    0.06
   9  -8   1    0.08    0.06
   9  -8   1   -0.01    0.09
 -10   8  -1    1.37    0.12
 -10   8  -1    1.41    0.14
  10  -8   1    1.36    0.12
  10  -8   1    1.00    0.14
 -11   8  -1    0.06    0.07
 -11   8  -1    0.04    0.10
  11  -8   1   -0.13    0.09
  11  -8   1    0.06    0.06
   5   7  -1    2.78    0.15
  -5  -7   1    2.83    0.20
   4   7  -1    0.32    0.07
  -4  -7   1    0.38    0.09
   3   7  -1    0.06    0.06
  -3  -7   1    0.11    0.08
  -3  -7   1    0.04    0.05
   2   7  -1    3.87    0.18
   2   7  -1    3.89    0.20
   2   7  -1    3.64    0.16
  -2  -7   1    3.93    0.19
  -2  -7   1    3.76    0.18
  -2  -7   1    3.68    0.17
   1   7  -1    5.14    0.18
   1   7  -1    5.50    0.23
   1   7  -1    5.08    0.22
  -1  -7   1    5.59    0.22
  -1  -7   1    5.27    0.20
  -1  -7   1    5.20    0.21
   0   7  -1    3.32    0.17
   0   7  -1    3.40    0.13
   0   7  -1    3.51    0.18
   0  -7   1    3.48    0.15
   0  -7   1    3.58    0.17
   0  -7   1    3.19    0.16
  -1   7  -1    0.12    0.03
  -1   7  -1    0.18    0.03
  -1   7  -1    0.11    0.06
  -1   7  -1    0.13    0.06
  -1   7  -1    0.26    0.04
   1  -7   1    0.08    0.05
   1  -7   1    0.11    0.06
   1  -7   1    0.20    0.05
  -2   7  -1    2.73    0.11
  -2   7  -1    2.69    0.15
  -2   7  -1    2.89    0.15
  -2   7  -1    2.75    0.13
  -2   7  -1    2.91    0.12
   2  -7   1    2.55    0.13
   2  -7   1    2.41    0.14
   2  -7   1    2.69    0.14
  -3   7  -1   17.13    0.52
  -3   7  -1   16.50    0.47
  -3   7  -1   17.23    0.52
  -3   7  -1   17.12    0.45
  -3   7  -1   16.62    0.48
   3  -7   1   16.99    0.51
   3  -7   1   17.01    0.48
   3  -7   1   16.83    0.52
   3  -7   1   17.73    0.50
  -4   7  -1    2.93    0.15
  -4   7  -1    3.12    0.17
  -4   7  -1    2.94    0.14
  -4   7  -1    2.87    0.15
   4  -7   1    2.74    0.13
   4  -7   1    2.95    0.15
   4  -7   1    2.86    0.15
   4  -7   1    3.10    0.15
  -5   7  -1   19.58    0.49
  -5   7  -1   20.70    0.55
  -5   7  -1   19.43    0.59
   5  -7   1   20.12    0.60
   5  -7   1   20.49    0.59
   5  -7   1   20.87    0.60
  -6   7  -1    2.69    0.10
  -6   7  -1    2.82    0.14
  -6   7  -1    2.69    0.14
   6  -7   1    2.76    0.15
   6  -7   1    2.80    0.17
   6  -7   1    2.76    0.15
  -7   7  -1    0.05    0.03
  -7   7  -1   -0.02    0.06
  -7   7  -1   -0.01    0.05
   7  -7   1    0.00    0.05
   7  -7   1   -0.06    0.06
   7  -7   1    0.09    0.07
  -8   7  -1    0.47    0.07
  -8   7  -1    0.45    0.07
  -8   7  -1    0.47    0.06
   8  -7   1    0.47    0.08
   8  -7   1    0.45    0.07
   8  -7   1    0.44    0.09
  -9   7  -1    1.66    0.11
  -9   7  -1    1.74    0.13
   9  -7   1    1.60    0.12
   9  -7   1    1.41    0.14
 -10   7  -1    4.16    0.23
 -10   7  -1    4.14    0.19
  10  -7   1    4.01    0.17
  10  -7   1    3.98    0.25
 -11   7  -1    1.02    0.14
 -11   7  -1    1.14    0.11
  11  -7   1    0.96    0.10
  11  -7   1    0.93    0.14
   6   6  -1    5.75    0.23
  -6  -6   1    6.39    0.27
  -6  -6   1    6.42    0.28
   5   6  -1    5.93    0.22
  -5  -6   1    6.01    0.25
  -5  -6   1    5.94    0.25
   4   6  -1    3.20    0.16
  -4  -6   1    3.34    0.18
  -4  -6   1    3.38    0.18
   3   6  -1    0.28    0.06
   3   6  -1    0.20    0.06
  -3  -6   1    0.27    0.06
  -3  -6   1    0.24    0.07
  -3  -6   1    0.26    0.07
   2   6  -1    1.99    0.12
   2   6  -1    2.34    0.13
   2   6  -1    2.14    0.13
   2   6  -1    2.18    0.12
  -2  -6   1    2.23    0.13
  -2  -6   1    2.18    0.14
   1   6  -1    4.00    0.18
   1   6  -1    4.06    0.15
   1   6  -1    3.85    0.15
   1   6  -1    4.23    0.18
  -1  -6   1    3.98    0.17
  -1  -6   1    4.05    0.16
  -1  -6   1    4.01    0.17
  -1  -6   1    4.07    0.16
   0   6  -1    9.65    0.27
   0   6  -1    9.58    0.29
   0   6  -1    9.47    0.32
   0   6  -1    9.39    0.32
   0   6  -1    9.40    0.27
   0  -6   1    9.88    0.29
   0  -6   1    9.64    0.30
   0  -6   1    9.86    0.30
   0  -6   1   10.06    0.33
   0  -6   1    9.62    0.32
  -1   6  -1    0.16    0.06
  -1   6  -1    0.35    0.04
  -1   6  -1    0.31    0.03
  -1   6  -1    0.39    0.06
  -1   6  -1    0.42    0.06
  -1   6  -1    0.36    0.06
  -1   6  -1    0.40    0.05
   1  -6   1    0.38    0.05
   1  -6   1    0.16    0.05
   1  -6   1    0.36    0.06
   1  -6   1    0.42    0.06
  -2   6  -1    4.93    0.17
  -2   6  -1    4.94    0.13
  -2   6  -1    4.77    0.18
  -2   6  -1    5.11    0.20
  -2   6  -1    4.88    0.16
  -2   6  -1    4.76    0.19
   2  -6   1    5.07    0.18
   2  -6   1    5.09    0.17
   2  -6   1    5.02    0.19
   2  -6   1    5.09    0.18
   2  -6   1    4.98    0.20
  -3   6  -1    4.68    0.17
  -3   6  -1    4.61    0.19
  -3   6  -1    4.97    0.19
  -3   6  -1    4.74    0.17
  -3   6  -1    4.92    0.17
   3  -6   1    5.13    0.19
   3  -6   1    4.72    0.17
   3  -6   1    4.92    0.19
   3  -6   1    4.80    0.17
   3  -6   1    4.86    0.19
  -4   6  -1    7.37    0.23
  -4   6  -1    7.23    0.24
  -4   6  -1    7.64    0.26
  -4   6  -1    7.30    0.19
  -4   6  -1    7.44    0.25
  -4   6  -1    7.53    0.23
   4  -6   1    7.80    0.26
   4  -6   1    7.43    0.25
   4  -6   1    7.08    0.23
   4  -6   1    7.24    0.23
   4  -6   1    7.53    0.25
  -5   6  -1    0.12    0.04
  -5   6  -1    0.18    0.05
  -5   6  -1    0.08    0.03
  -5   6  -1    0.08    0.05
  -5   6  -1    0.05    0.05
  -5   6  -1    0.06    0.05
   5  -6   1    0.08    0.05
   5  -6   1    0.08    0.06
   5  -6   1    0.06    0.05
   5  -6   1    0.09    0.04
  -6   6  -1    0.75    0.06
  -6   6  -1    0.83    0.08
  -6   6  -1    0.73    0.07
  -6   6  -1    0.61    0.07
  -6   6  -1    0.86    0.09
   6  -6   1    0.85    0.08
   6  -6   1    0.76    0.07
   6  -6   1    0.59    0.07
   6  -6   1    0.67    0.09
  -7   6  -1    0.13    0.06
  -7   6  -1    0.20    0.04
  -7   6  -1    0.14    0.05
   7  -6   1    0.17    0.07
   7  -6   1    0.24    0.05
   7  -6   1    0.15    0.05
  -8   6  -1    0.04    0.05
  -8   6  -1    0.05    0.04
   8  -6   1    0.01    0.04
   8  -6   1    0.01    0.07
   8  -6   1    0.01    0.04
   8  -6   1    0.09    0.05
  -9   6  -1   -0.07    0.05
   9  -6   1    0.06    0.04
   9  -6   1   -0.05    0.07
 -10   6  -1    0.46    0.11
 -10   6  -1    0.41    0.08
  10  -6   1    0.35    0.10
  10  -6   1    0.44    0.06
 -11   6  -1    0.56    0.12
 -11   6  -1    0.60    0.09
  11  -6   1    0.52    0.11
  -7  -5   1    0.47    0.10
  -7  -5   1    0.35    0.10
   6   5  -1    2.42    0.12
  -6  -5   1    2.27    0.18
  -6  -5   1    2.80    0.19
   5   5  -1    1.30    0.09
  -5  -5   1    1.36    0.11
  -5  -5   1    1.54    0.13
   4   5  -1    0.48    0.06
   4   5  -1    0.54    0.07
  -4  -5   1    0.47    0.06
  -4  -5   1    0.37    0.07
  -4  -5   1    0.52    0.08
   3   5  -1   12.07    0.35
   3   5  -1   12.20    0.37
   3   5  -1   11.74    0.36
  -3  -5   1   11.83    0.33
  -3  -5   1   11.58    0.36
  -3  -5   1   11.16    0.35
  -3  -5   1   11.78    0.36
   2   5  -1    0.04    0.04
   2   5  -1    0.12    0.04
   2   5  -1    0.06    0.04
   2   5  -1    0.05    0.04
  -2  -5   1    0.09    0.04
  -2  -5   1   -0.05    0.05
  -2  -5   1    0.04    0.05
  -2  -5   1    0.08    0.04
  -2  -5   1    0.00    0.04
  -2  -5   1    0.10    0.05
   1   5  -1    0.77    0.07
   1   5  -1    0.81    0.08
   1   5  -1    0.49    0.05
   1   5  -1    0.82    0.07
   1   5  -1    0.42    0.07
   1   5  -1    0.58    0.05
  -1  -5   1    0.56    0.06
  -1  -5   1    0.77    0.07
  -1  -5   1    0.66    0.06
  -1  -5   1    0.60    0.06
  -1  -5   1    0.63    0.06
   0   5  -1    8.39    0.23
   0   5  -1    8.00    0.23
   0   5  -1    8.26    0.24
   0   5  -1    8.42    0.27
   0   5  -1    8.57    0.25
   0   5  -1    8.28    0.27
   0   5  -1    8.37    0.22
   0  -5   1    8.18    0.24
   0  -5   1    8.26    0.25
   0  -5   1    8.70    0.27
   0  -5   1    8.51    0.25
   0  -5   1    8.34    0.27
  -1   5  -1   22.51    0.55
  -1   5  -1   22.19    0.57
  -1   5  -1   23.23    0.59
  -1   5  -1   22.90    0.64
  -1   5  -1   22.45    0.64
  -1   5  -1   22.62    0.56
   1  -5   1   22.74    0.59
   1  -5   1   22.60    0.64
   1  -5   1   22.42    0.58
   1  -5   1   22.31    0.61
   1  -5   1   23.38    0.64
  -2   5  -1    3.58    0.13
  -2   5  -1    3.57    0.13
  -2   5  -1    3.82    0.12
  -2   5  -1    3.61    0.15
  -2   5  -1    3.69    0.15
   2  -5   1    3.56    0.14
   2  -5   1    3.56    0.13
   2  -5   1    3.58    0.15
   2  -5   1    3.59    0.15
  -3   5  -1    8.94    0.29
  -3   5  -1    8.89    0.26
  -3   5  -1    9.34    0.27
  -3   5  -1    8.90    0.28
  -3   5  -1    9.18    0.26
   3  -5   1    8.87    0.26
   3  -5   1    8.95    0.26
   3  -5   1    9.03    0.28
   3  -5   1    8.90    0.28
   3  -5   1    8.95    0.29
  -4   5  -1    0.58    0.05
  -4   5  -1    0.45    0.05
  -4   5  -1    0.50    0.04
  -4   5  -1    0.43    0.05
  -4   5  -1    0.63    0.06
  -4   5  -1    0.53    0.05
   4  -5   1    0.44    0.05
   4  -5   1    0.53    0.06
   4  -5   1    0.45    0.05
   4  -5   1    0.63    0.06
  -5   5  -1   42.55    1.11
  -5   5  -1   41.73    1.09
  -5   5  -1   40.29    1.00
  -5   5  -1   40.64    1.03
  -5   5  -1   41.96    1.04
  -5   5  -1   40.97    1.11
   5  -5   1   39.43    1.11
   5  -5   1   40.43    1.10
   5  -5   1   41.34    1.03
   5  -5   1   41.34    1.11
  -6   5  -1    6.39    0.21
  -6   5  -1    6.00    0.21
  -6   5  -1    5.95    0.20
  -6   5  -1    6.20    0.19
  -6   5  -1    6.51    0.24
  -6   5  -1    6.17    0.20
   6  -5   1    6.07    0.23
   6  -5   1    6.18    0.21
   6  -5   1    6.04    0.21
   6  -5   1    6.08    0.20
  -7   5  -1    3.76    0.15
  -7   5  -1    3.60    0.15
  -7   5  -1    3.57    0.14
  -7   5  -1    3.62    0.14
   7  -5   1    3.58    0.14
   7  -5   1    3.69    0.15
   7  -5   1    3.51    0.14
   7  -5   1    3.42    0.18
  -8   5  -1    7.34    0.23
  -8   5  -1    7.73    0.24
  -8   5  -1    7.30    0.23
   8  -5   1    6.15    0.23
   8  -5   1    7.34    0.21
   8  -5   1    7.29    0.23
   8  -5   1    7.08    0.28
  -9   5  -1    0.26    0.07
   9  -5   1    0.27    0.05
   9  -5   1    0.37    0.09
   9  -5   1    0.28    0.05
 -10   5  -1    2.75    0.19
 -10   5  -1    2.60    0.15
  10  -5   1    2.66    0.20
 -11   5  -1    0.21    0.07
 -11   5  -1    0.00    0.09
  11  -5   1    0.07    0.09
  -7  -4   1   10.81    0.36
  -7  -4   1   10.19    0.37
   6   4  -1    1.79    0.08
  -6  -4   1    1.84    0.14
  -6  -4   1    1.88    0.14
   5   4  -1    0.23    0.04
   5   4  -1    0.22    0.04
  -5  -4   1    0.20    0.04
  -5  -4   1    0.25    0.07
  -5  -4   1    0.28    0.07
  -5  -4   1    0.22    0.02
  -5  -4   1    0.31    0.05
   4   4  -1    7.42    0.24
   4   4  -1    7.61    0.25
   4   4  -1    7.34    0.24
  -4  -4   1    7.34    0.25
  -4  -4   1    7.68    0.23
  -4  -4   1    7.34    0.25
  -4  -4   1    7.19    0.24
   3   4  -1   10.66    0.33
   3   4  -1   11.06    0.33
   3   4  -1   11.79    0.32
   3   4  -1   10.84    0.33
  -3  -4   1   10.78    0.32
  -3  -4   1   11.06    0.33
  -3  -4   1   10.54    0.31
  -3  -4   1   10.80    0.30
  -3  -4   1   10.43    0.32
  -3  -4   1   11.14    0.33
  -3  -4   1   10.91    0.31
   2   4  -1   47.51    1.30
   2   4  -1   49.31    1.31
   2   4  -1   50.16    1.24
   2   4  -1   48.33    1.20
   2   4  -1   49.30    1.19
  -2  -4   1   49.11    1.19
  -2  -4   1   48.97    1.31
  -2  -4   1   47.74    1.23
  -2  -4   1   49.43    1.20
  -2  -4   1   47.39    1.20
  -2  -4   1   49.16    1.30
  -2  -4   1   48.84    1.19
   1   4  -1    1.37    0.08
   1   4  -1    1.35    0.08
   1   4  -1    1.42    0.09
   1   4  -1    1.36    0.08
   1   4  -1    1.39    0.09
   1   4  -1    1.26    0.07
  -1  -4   1    1.40    0.08
  -1  -4   1    1.23    0.07
  -1  -4   1    1.40    0.08
  -1  -4   1    1.31    0.07
  -1  -4   1    1.25    0.08
   0   4  -1   50.78    1.25
   0   4  -1   51.04    1.23
   0   4  -1   50.08    1.22
   0   4  -1   52.55    1.36
   0   4  -1   51.63    1.27
   0   4  -1   51.98    1.27
   0   4  -1   50.95    1.23
   0   4  -1   49.16    1.36
   0  -4   1   50.12    1.27
   0  -4   1   51.55    1.25
   0  -4   1   51.15    1.23
   0  -4   1   52.69    1.36
   0  -4   1   51.03    1.31
   0  -4   1   49.63    1.36
  -1   4  -1  117.76    2.80
  -1   4  -1  115.74    2.78
  -1   4  -1  116.89    2.84
  -1   4  -1  112.86    3.03
  -1   4  -1  115.84    2.73
   1  -4   1  116.84    2.85
   1  -4   1  116.75    2.79
   1  -4   1  112.21    3.03
   1  -4   1  117.53    2.97
  -2   4  -1    5.89    0.18
  -2   4  -1    5.89    0.19
  -2   4  -1    6.04    0.20
  -2   4  -1    6.03    0.18
  -2   4  -1    6.11    0.18
   2  -4   1    6.27    0.20
   2  -4   1    5.92    0.19
   2  -4   1    5.85    0.19
   2  -4   1    5.80    0.18
   2  -4   1    5.94    0.18
  -3   4  -1   41.07    1.02
  -3   4  -1   39.25    1.05
  -3   4  -1   40.07    1.01
  -3   4  -1   42.52    1.09
  -3   4  -1   40.22    1.09
   3  -4   1   40.39    1.01
   3  -4   1   40.62    1.06
   3  -4   1   42.07    1.09
   3  -4   1   39.54    1.09
  -4   4  -1   13.70    0.36
  -4   4  -1   14.44    0.40
  -4   4  -1   14.06    0.40
  -4   4  -1   13.90    0.37
  -4   4  -1   14.04    0.40
  -4   4  -1   14.23    0.38
   4  -4   1   13.87    0.38
   4  -4   1   13.88    0.40
   4  -4   1   13.83    0.40
   4  -4   1   13.85    0.40
  -5   4  -1    8.63    0.25
  -5   4  -1    8.78    0.26
  -5   4  -1    8.75    0.27
  -5   4  -1    8.52    0.24
  -5   4  -1    8.94    0.26
   5  -4   1    8.35    0.28
   5  -4   1    8.60    0.25
   5  -4   1    8.51    0.26
   5  -4   1    8.45    0.26
  -6   4  -1    7.67    0.25
  -6   4  -1    7.31    0.23
  -6   4  -1    7.73    0.23
  -6   4  -1    7.70    0.23
  -6   4  -1    7.44    0.23
  -6   4  -1    7.40    0.23
   6  -4   1    7.37    0.23
   6  -4   1    7.48    0.26
   6  -4   1    7.46    0.23
   6  -4   1    7.29    0.23
  -7   4  -1   22.66    0.61
  -7   4  -1   23.30    0.63
  -7   4  -1   22.74    0.63
  -7   4  -1   23.82    0.63
   7  -4   1   22.88    0.63
   7  -4   1   23.00    0.58
   7  -4   1   23.89    0.67
  -8   4  -1    0.69    0.05
  -8   4  -1    0.66    0.05
  -8   4  -1    0.62    0.07
   8  -4   1    0.59    0.09
   8  -4   1    0.72    0.05
   8  -4   1    0.70    0.06
  -9   4  -1    4.46    0.18
  -9   4  -1    4.66    0.22
   9  -4   1    4.58    0.22
 -10   4  -1    0.60    0.08
 -10   4  -1    0.70    0.11
  10  -4   1    0.67    0.10
 -11   4  -1    0.50    0.08
 -11   4  -1    0.33    0.10
  -8  -3   1    4.89    0.24
  -8  -3   1    4.70    0.22
  -7  -3   1    0.03    0.06
  -7  -3   1    0.06    0.07
   6   3  -1    2.85    0.10
   6   3  -1    2.80    0.09
  -6  -3   1    2.87    0.16
  -6  -3   1    2.94    0.11
  -6  -3   1    2.95    0.12
  -6  -3   1    2.78    0.15
  -6  -3   1    2.86    0.10
   5   3  -1    0.57    0.07
   5   3  -1    0.64    0.06
   5   3  -1    0.63    0.05
  -5  -3   1    0.37    0.07
  -5  -3   1    0.53    0.05
  -5  -3   1    0.49    0.07
  -5  -3   1    0.58    0.06
  -5  -3   1    0.55    0.05
  -5  -3   1    0.29    0.07
  -5  -3   1    0.57    0.05
   4   3  -1    0.30    0.05
   4   3  -1    0.38    0.04
  -4  -3   1    0.24    0.05
  -4  -3   1    0.32    0.04
  -4  -3   1    0.34    0.04
  -4  -3   1    0.38    0.04
  -4  -3   1    0.27    0.03
  -4  -3   1    0.38    0.06
  -4  -3   1    0.09    0.05
   3   3  -1    0.26    0.04
   3   3  -1    0.30    0.05
   3   3  -1    0.25    0.04
   3   3  -1    0.34    0.05
  -3  -3   1    0.37    0.03
  -3  -3   1    0.24    0.04
  -3  -3   1    0.30    0.04
  -3  -3   1    0.20    0.05
  -3  -3   1    0.23    0.04
  -3  -3   1    0.31    0.04
  -3  -3   1    0.30    0.04
  -3  -3   1    0.29    0.04
   2   3  -1  158.45    4.10
   2   3  -1  157.72    4.17
   2   3  -1  156.19    3.74
   2   3  -1  156.80    3.80
   2   3  -1  159.66    3.86
  -2  -3   1  158.52    3.73
  -2  -3   1  154.38    3.78
  -2  -3   1  152.85    3.85
  -2  -3   1  164.86    4.19
  -2  -3   1  154.82    3.76
  -2  -3   1  160.80    4.10
  -2  -3   1  156.71    3.92
  -2  -3   1  155.69    3.78
   1   3  -1  209.59    5.20
   1   3  -1  221.76    5.74
   1   3  -1  212.43    5.19
   1   3  -1  211.35    5.36
   1   3  -1  229.70    5.74
   1   3  -1  213.07    5.32
  -1  -3   1  209.01    5.13
  -1  -3   1  230.26    5.76
  -1  -3   1  229.13    5.73
  -1  -3   1  205.88    5.16
  -1  -3   1  213.30    5.22
  -1  -3   1  210.07    5.23
  -1  -3   1  210.05    5.32
   0   3  -1   16.82    0.46
   0   3  -1   16.73    0.46
   0   3  -1   16.45    0.43
   0   3  -1   16.64    0.41
   0   3  -1   16.49    0.42
   0   3  -1   16.26    0.41
   0   3  -1   16.71    0.41
   0  -3   1   16.61    0.46
   0  -3   1   16.85    0.42
   0  -3   1   16.43    0.41
   0  -3   1   16.08    0.43
   0  -3   1   16.66    0.46
  -1   3  -1    9.93    0.29
  -1   3  -1    9.99    0.27
  -1   3  -1   10.03    0.29
  -1   3  -1   10.03    0.27
  -1   3  -1    9.95    0.28
  -1   3  -1   10.34    0.26
   1  -3   1   10.26    0.28
   1  -3   1   10.13    0.27
   1  -3   1    9.72    0.29
   1  -3   1    9.73    0.29
   1  -3   1   10.05    0.27
  -2   3  -1  137.06    3.46
  -2   3  -1  126.75    3.27
  -2   3  -1  125.18    3.40
  -2   3  -1  128.62    3.22
  -2   3  -1  127.47    3.29
   2  -3   1  128.15    3.21
   2  -3   1  139.55    3.47
   2  -3   1  131.83    3.42
   2  -3   1  128.53    3.34
  -3   3  -1   16.94    0.46
  -3   3  -1   16.26    0.46
  -3   3  -1   16.75    0.43
  -3   3  -1   16.94    0.46
   3  -3   1   16.82    0.46
   3  -3   1   17.07    0.43
   3  -3   1   17.48    0.47
   3  -3   1   16.60    0.46
  -4   3  -1   85.58    2.10
  -4   3  -1   90.40    2.29
  -4   3  -1   85.80    2.21
  -4   3  -1   86.12    2.27
  -4   3  -1   85.03    2.07
   4  -3   1   86.53    2.10
   4  -3   1   87.31    2.31
   4  -3   1   85.50    2.22
   4  -3   1   87.65    2.27
  -5   3  -1    9.25    0.26
  -5   3  -1    9.45    0.29
  -5   3  -1    9.20    0.26
  -5   3  -1    9.33    0.27
  -5   3  -1    9.22    0.27
  -5   3  -1    9.70    0.26
   5  -3   1    7.93    0.26
   5  -3   1    9.54    0.27
   5  -3   1    9.69    0.29
   5  -3   1    9.59    0.26
  -6   3  -1   -0.02    0.03
  -6   3  -1    0.02    0.04
  -6   3  -1   -0.03    0.02
  -6   3  -1   -0.05    0.04
  -6   3  -1    0.05    0.02
  -6   3  -1    0.02    0.03
   6  -3   1    0.05    0.02
   6  -3   1    0.02    0.02
   6  -3   1   -0.08    0.05
   6  -3   1   -0.02    0.02
  -7   3  -1    5.47    0.16
  -7   3  -1    5.52    0.16
  -7   3  -1    5.45    0.19
   7  -3   1    5.60    0.16
   7  -3   1    5.45    0.16
   7  -3   1    5.33    0.22
  -8   3  -1    5.13    0.19
   8  -3   1    5.36    0.23
  -9   3  -1    0.04    0.05
  -9   3  -1    0.02    0.07
   9  -3   1    0.03    0.07
 -10   3  -1    2.65    0.17
 -10   3  -1    2.91    0.18
 -10   3  -1    2.69    0.15
 -10   3  -1    2.52    0.13
 -11   3  -1    1.00    0.12
 -11   3  -1    1.07    0.11
 -11   3  -1    0.86    0.11
  -9  -2   1   -0.06    0.07
  -9  -2   1    0.07    0.07
  -8  -2   1    6.76    0.27
  -8  -2   1    7.10    0.26
  -7  -2   1    3.96    0.18
  -7  -2   1    3.87    0.19
  -7  -2   1    4.10    0.16
   6   2  -1    0.08    0.06
  -6  -2   1    0.10    0.02
  -6  -2   1    0.05    0.06
  -6  -2   1    0.13    0.06
  -6  -2   1    0.13    0.04
   5   2  -1   41.16    1.08
   5   2  -1   42.23    1.05
   5   2  -1   41.44    1.08
  -5  -2   1   41.08    1.05
  -5  -2   1   40.76    1.08
  -5  -2   1   40.18    1.04
  -5  -2   1   41.79    1.08
  -5  -2   1   41.13    1.05
  -5  -2   1   41.46    1.10
   4   2  -1   39.77    1.03
   4   2  -1   37.96    1.03
   4   2  -1   39.63    0.97
  -4  -2   1   38.93    0.99
  -4  -2   1   38.24    0.99
  -4  -2   1   38.51    1.03
  -4  -2   1   39.05    0.97
  -4  -2   1   38.02    0.97
  -4  -2   1   39.21    0.97
  -4  -2   1   39.27    1.03
  -4  -2   1   39.52    1.03
   3   2  -1   13.32    0.37
   3   2  -1   13.58    0.36
   3   2  -1   13.54    0.36
  -3  -2   1   13.27    0.36
  -3  -2   1   13.46    0.37
  -3  -2   1   13.12    0.36
  -3  -2   1   13.53    0.36
  -3  -2   1   13.48    0.37
  -3  -2   1   12.94    0.35
  -3  -2   1   13.57    0.36
   2   2  -1   83.30    2.04
   2   2  -1   82.06    2.16
   2   2  -1   84.18    2.21
   2   2  -1   83.27    1.98
  -2  -2   1   81.72    1.98
  -2  -2   1   82.17    2.06
  -2  -2   1   88.01    2.22
  -2  -2   1   82.09    1.99
  -2  -2   1   79.99    1.97
  -2  -2   1   82.36    2.03
  -2  -2   1   83.88    2.16
  -2  -2   1   81.70    1.98
   1   2  -1   65.16    1.65
   1   2  -1   74.82    1.76
   1   2  -1   64.60    1.56
   1   2  -1   65.55    1.61
   1   2  -1   65.31    1.58
   1   2  -1   66.04    1.72
  -1  -2   1   67.69    1.74
  -1  -2   1   64.68    1.58
  -1  -2   1   65.96    1.60
  -1  -2   1   64.82    1.65
  -1  -2   1   63.99    1.72
  -1  -2   1   64.76    1.56
  -1  -2   1   63.37    1.61
  -1  -2   1   63.82    1.56
   0   2  -1  170.37    4.19
   0   2  -1  169.99    4.35
   0   2  -1  171.69    4.19
   0   2  -1  186.60    4.67
   0   2  -1  183.57    4.67
   0   2  -1  167.56    4.28
   0  -2   1  190.64    4.68
   0  -2   1  168.58    4.19
   0  -2   1  168.85    4.25
   0  -2   1  168.68    4.35
   0  -2   1  174.74    4.19
   0  -2   1  186.55    4.67
  -1   2  -1   17.23    0.43
  -1   2  -1   17.56    0.43
  -1   2  -1   16.23    0.46
  -1   2  -1   17.41    0.46
   1  -2   1   17.61    0.46
   1  -2   1   17.47    0.43
   1  -2   1   17.48    0.45
   1  -2   1   17.56    0.43
   1  -2   1   16.13    0.46
  -2   2  -1   15.57    0.42
  -2   2  -1   15.40    0.40
  -2   2  -1   16.01    0.42
  -2   2  -1   15.68    0.42
   2  -2   1   15.26    0.42
   2  -2   1   15.61    0.40
   2  -2   1   16.02    0.42
   2  -2   1   15.76    0.42
  -3   2  -1  141.65    3.35
  -3   2  -1  138.42    3.69
  -3   2  -1  137.09    3.52
  -3   2  -1  140.15    3.67
  -3   2  -1  138.17    3.42
   3  -2   1  143.75    3.69
   3  -2   1  141.15    3.42
   3  -2   1  133.85    3.67
   3  -2   1  137.81    3.52
  -4   2  -1  104.46    2.68
  -4   2  -1  100.90    2.47
  -4   2  -1  105.83    2.45
  -4   2  -1  103.42    2.71
  -4   2  -1  101.35    2.60
  -4   2  -1   98.01    2.44
   4  -2   1  103.06    2.70
   4  -2   1  101.53    2.61
  -5   2  -1    9.02    0.26
  -5   2  -1    8.47    0.25
  -5   2  -1    8.67    0.27
  -5   2  -1    8.79    0.25
  -5   2  -1    8.70    0.24
  -5   2  -1    8.72    0.24
   5  -2   1    8.81    0.24
   5  -2   1    9.10    0.28
   5  -2   1    8.57    0.24
  -6   2  -1   10.54    0.32
  -6   2  -1   10.47    0.32
  -6   2  -1   10.35    0.33
  -6   2  -1   11.20    0.30
   6  -2   1   10.32    0.33
  -7   2  -1    0.02    0.04
   7  -2   1    0.04    0.05
  -8   2  -1    1.99    0.14
  -8   2  -1    2.15    0.11
  -8   2  -1    2.38    0.13
  -9   2  -1    0.24    0.07
  -9   2  -1    0.16    0.08
  -9   2  -1    0.23    0.06
  -9   2  -1    0.17    0.07
 -10   2  -1    0.06    0.08
 -10   2  -1   -0.02    0.08
 -10   2  -1   -0.04    0.06
  -9  -1   1    0.77    0.11
  -9  -1   1    0.90    0.09
  -8  -1   1    0.10    0.06
  -8  -1   1    0.17    0.04
  -8  -1   1    0.14    0.07
  -8  -1   1    0.17    0.06
  -7  -1   1    8.27    0.26
  -7  -1   1    8.07    0.27
  -7  -1   1    8.01    0.23
  -7  -1   1    8.30    0.28
   6   1  -1   56.42    1.39
  -6  -1   1   57.16    1.49
  -6  -1   1   54.92    1.37
  -6  -1   1   54.41    1.34
  -6  -1   1   54.14    1.36
  -6  -1   1   54.86    1.40
  -6  -1   1   56.94    1.42
   5   1  -1   61.93    1.54
  -5  -1   1   62.99    1.63
  -5  -1   1   62.91    1.54
  -5  -1   1   63.06    1.51
  -5  -1   1   62.73    1.59
  -5  -1   1   63.01    1.57
  -5  -1   1   62.57    1.53
   4   1  -1    0.12    0.04
   4   1  -1    0.16    0.02
   4   1  -1    0.13    0.02
  -4  -1   1    0.15    0.03
  -4  -1   1    0.17    0.02
  -4  -1   1    0.14    0.04
  -4  -1   1    0.13    0.02
  -4  -1   1    0.12    0.03
  -4  -1   1    0.13    0.03
  -4  -1   1    0.12    0.04
  -4  -1   1    0.15    0.02
   3   1  -1    7.29    0.20
   3   1  -1    7.11    0.21
   3   1  -1    6.98    0.20
  -3  -1   1    7.25    0.20
  -3  -1   1    7.17    0.20
  -3  -1   1    6.93    0.20
  -3  -1   1    7.26    0.20
  -3  -1   1    6.97    0.22
  -3  -1   1    7.12    0.20
  -3  -1   1    7.12    0.20
   2   1  -1   10.73    0.28
   2   1  -1   10.48    0.28
   2   1  -1   10.70    0.28
   2   1  -1   10.42    0.29
  -2  -1   1   10.45    0.27
  -2  -1   1   10.36    0.27
  -2  -1   1   10.52    0.28
  -2  -1   1   10.85    0.27
  -2  -1   1   10.67    0.29
  -2  -1   1   10.21    0.29
   1   1  -1   35.37    0.81
   1   1  -1   35.14    0.81
   1   1  -1   34.30    0.90
   1   1  -1   29.62    0.89
   1   1  -1   34.75    0.84
   1   1  -1   34.57    0.83
  -1  -1   1   34.80    0.81
  -1  -1   1   33.99    0.90
  -1  -1   1   34.70    0.84
  -1  -1   1   34.42    0.82
  -1  -1   1   34.04    0.83
  -1  -1   1   29.01    0.88
   0   1  -1  125.91    3.69
   0   1  -1  142.68    3.46
   0   1  -1  143.04    3.70
   0   1  -1  142.37    3.40
   0   1  -1  147.57    3.52
   0  -1   1  148.26    3.70
   0  -1   1  123.62    3.68
   0  -1   1  140.14    3.40
   0  -1   1  146.79    3.53
   0  -1   1  140.57    3.46
  -1   1  -1   80.68    2.08
  -1   1  -1   81.67    2.02
  -1   1  -1   75.31    2.17
  -1   1  -1   86.67    2.19
  -1   1  -1   82.37    1.99
   1  -1   1   81.24    2.11
   1  -1   1   80.41    1.99
   1  -1   1   89.16    2.20
   1  -1   1   81.17    2.03
   1  -1   1   81.20    2.18
  -2   1  -1  222.76    5.61
  -2   1  -1  224.77    5.86
  -2   1  -1  239.51    6.03
  -2   1  -1  231.05    5.56
   2  -1   1  236.92    6.03
   2  -1   1  225.68    5.87
   2  -1   1  231.37    5.57
  -3   1  -1   12.00    0.32
  -3   1  -1   12.30    0.32
  -3   1  -1   12.35    0.33
  -3   1  -1   12.18    0.34
  -3   1  -1   12.34    0.32
  -3   1  -1   12.73    0.33
   3  -1   1   12.17    0.33
   3  -1   1   12.28    0.34
   3  -1   1   12.48    0.33
  -4   1  -1   25.92    0.67
  -4   1  -1   25.78    0.65
  -4   1  -1   25.60    0.69
  -4   1  -1   25.33    0.65
  -4   1  -1   26.36    0.65
  -4   1  -1   25.73    0.67
   4  -1   1   25.35    0.67
   4  -1   1   26.61    0.67
   4  -1   1   25.97    0.69
  -5   1  -1   39.82    0.99
  -5   1  -1   38.78    0.99
  -5   1  -1   40.08    0.99
  -5   1  -1   39.67    1.05
   5  -1   1   39.83    1.05
  -6   1  -1    1.85    0.12
  -6   1  -1    2.16    0.11
  -6   1  -1    2.04    0.10
  -7   1  -1    0.98    0.08
  -7   1  -1    1.00    0.08
  -8   1  -1    1.53    0.12
  -8   1  -1    1.48    0.10
  -8   1  -1    1.59    0.13
  -8   1  -1    1.83    0.13
  -9   1  -1    0.93    0.11
  -9   1  -1    0.73    0.08
  -9   1  -1    0.74    0.10
  -9   1  -1    0.79    0.10
 -10   1  -1    1.17    0.12
 -10   1  -1    0.94    0.11
 -10   1  -1    1.13    0.12
 -10   0   1    0.94    0.11
 -10   0   1    0.88    0.10
 -10   0   1    0.64    0.10
  -9   0   1    0.96    0.10
  -9   0   1    0.90    0.10
  -9   0   1    0.92    0.10
  -8   0   1    2.29    0.14
  -8   0   1    2.23    0.14
  -8   0   1    2.37    0.13
  -8   0   1    2.30    0.10
   7   0  -1    7.49    0.26
  -7   0   1    7.21    0.25
  -7   0   1    7.08    0.24
  -7   0   1    6.58    0.21
   6   0  -1    2.60    0.14
  -6   0   1    2.51    0.09
  -6   0   1    2.67    0.13
  -6   0   1    2.39    0.12
  -6   0   1    2.62    0.14
   5   0  -1    0.59    0.06
  -5   0   1    0.77    0.07
  -5   0   1    0.65    0.06
  -5   0   1    0.78    0.07
  -5   0   1    0.80    0.04
  -5   0   1    0.64    0.06
  -5   0   1    0.78    0.03
  -5   0   1    0.72    0.06
   4   0  -1    4.00    0.14
  -4   0   1    4.14    0.12
  -4   0   1    4.34    0.15
  -4   0   1    4.28    0.13
  -4   0   1    3.89    0.14
  -4   0   1    4.14    0.11
   3   0  -1  171.65    4.45
   3   0  -1  170.14    4.05
   3   0  -1  179.28    4.46
  -3   0   1  167.40    4.13
  -3   0   1  169.65    4.13
  -3   0   1  164.95    4.29
  -3   0   1  167.10    4.03
  -3   0   1  170.46    4.18
  -3   0   1  169.07    4.31
  -3   0   1  173.04    4.46
  -3   0   1  173.29    4.46
   2   0  -1  156.72    4.12
   2   0  -1  153.49    3.78
   2   0  -1  154.33    3.93
   2   0  -1  158.42    3.81
  -2   0   1  153.86    3.81
  -2   0   1  166.75    4.12
  -2   0   1  158.26    4.12
  -2   0   1  153.42    3.93
  -2   0   1  158.14    4.02
  -2   0   1  156.09    3.77
   1   0  -1  105.91    2.60
   1   0  -1   96.64    2.49
   1   0  -1   92.44    2.59
   1   0  -1   93.14    2.39
  -1   0   1  103.06    2.59
  -1   0   1   93.81    2.48
  -1   0   1   95.72    2.39
  -1   0   1  105.75    2.60
  -1   0  -1  370.23    9.39
  -1   0  -1  358.26    8.66
  -1   0  -1  364.64    8.61
  -1   0  -1  351.66    9.07
  -1   0  -1  355.12    9.38
   1   0   1  353.66    9.08
   1   0   1  365.12    9.39
   1   0   1  360.30    8.66
   1   0   1  354.90    8.61
   1   0   1  363.51    9.38
  -2   0  -1    6.13    0.18
  -2   0  -1    6.26    0.18
  -2   0  -1    6.21    0.18
  -2   0  -1    6.31    0.18
  -2   0  -1    6.39    0.17
  -2   0  -1    6.41    0.18
  -2   0  -1    6.36    0.16
   2   0   1    6.38    0.18
   2   0   1    6.29    0.18
  -3   0  -1   46.63    1.15
  -3   0  -1   47.53    1.22
  -3   0  -1   47.52    1.14
  -3   0  -1   46.68    1.24
  -3   0  -1   47.72    1.14
  -3   0  -1   47.44    1.24
  -3   0  -1   48.30    1.16
   3   0   1   47.75    1.16
   3   0   1   47.34    1.24
   3   0   1   48.04    1.24
  -4   0  -1   48.20    1.26
  -4   0  -1   47.61    1.20
  -4   0  -1   48.62    1.23
  -4   0  -1   48.18    1.18
  -4   0  -1   49.36    1.27
  -4   0  -1   50.08    1.20
  -4   0  -1   48.89    1.27
   4   0   1   50.75    1.27
   4   0   1   47.82    1.27
  -5   0  -1    8.36    0.25
  -5   0  -1    8.54    0.27
  -5   0  -1    8.26    0.26
  -6   0  -1   15.76    0.47
  -6   0  -1   15.95    0.46
  -6   0  -1   16.32    0.44
  -7   0  -1    0.70    0.07
  -7   0  -1    0.77    0.08
  -7   0  -1    0.71    0.09
  -7   0  -1    0.70    0.08
  -8   0  -1   12.43    0.38
  -8   0  -1   11.86    0.38
  -8   0  -1   12.25    0.39
  -8   0  -1   11.68    0.35
  -9   0  -1    0.46    0.08
  -9   0  -1    0.32    0.08
  -9   0  -1    0.30    0.09
 -10   1   1    0.03    0.07
 -10   1   1    0.11    0.07
 -10   1   1   -0.01    0.08
  -9   1   1    4.99    0.16
  -9   1   1    4.97    0.21
  -9   1   1    4.83    0.20
  -8   1   1   12.45    0.34
  -8   1   1   12.99    0.39
  -8   1   1   12.58    0.37
   7  -1  -1   99.99    2.44
  -7   1   1  101.65    2.43
  -7   1   1   99.75    2.48
  -7   1   1  100.13    2.54
   6  -1  -1    5.79    0.20
  -6   1   1    5.98    0.22
  -6   1   1    5.63    0.20
  -6   1   1    5.65    0.20
  -6   1   1    5.90    0.17
   5  -1  -1   12.45    0.34
   5  -1  -1   12.68    0.33
   5  -1  -1   12.70    0.33
   5  -1  -1   12.54    0.37
  -5   1   1   12.55    0.37
  -5   1   1   12.33    0.33
  -5   1   1   12.36    0.36
  -5   1   1   12.64    0.33
  -5   1   1   12.32    0.32
  -5   1   1   12.40    0.34
   4  -1  -1   87.80    2.49
   4  -1  -1   97.63    2.28
   4  -1  -1   91.84    2.48
   4  -1  -1   96.43    2.30
   4  -1  -1   96.18    2.43
  -4   1   1   93.98    2.27
  -4   1   1   96.50    2.43
  -4   1   1   95.40    2.33
  -4   1   1   96.21    2.49
  -4   1   1   98.83    2.48
  -4   1   1   96.67    2.39
  -4   1   1   95.99    2.29
   3  -1  -1   37.56    0.98
   3  -1  -1   37.94    0.90
   3  -1  -1   37.89    0.90
   3  -1  -1   37.45    0.90
   3  -1  -1   31.98    0.98
   3  -1  -1   37.83    0.97
  -3   1   1   38.20    0.98
  -3   1   1   36.95    0.95
  -3   1   1   38.26    0.90
  -3   1   1   38.17    0.97
  -3   1   1   36.92    0.90
  -3   1   1   37.49    0.98
  -3   1   1   37.15    0.90
   2  -1  -1  135.15    3.40
   2  -1  -1  131.01    3.58
   2  -1  -1  138.43    3.32
   2  -1  -1  135.11    3.44
   2  -1  -1  143.49    3.58
   2  -1  -1  137.19    3.32
   2  -1  -1  136.99    3.26
  -2   1   1  136.60    3.31
  -2   1   1  139.26    3.36
  -2   1   1  131.94    3.58
  -2   1   1  134.44    3.42
  -2   1   1  133.20    3.56
  -2   1   1  139.56    3.28
  -2   1   1  137.40    3.32
   1  -1  -1   33.72    0.84
   1  -1  -1   34.55    0.91
   1  -1  -1   34.41    0.84
   1  -1  -1   33.70    0.86
   1  -1  -1   33.81    0.88
   1  -1  -1   32.90    0.91
  -1   1   1   33.44    0.91
  -1   1   1   34.25    0.84
  -1   1   1   33.39    0.88
  -1   1   1   32.45    0.86
  -1   1   1   34.70    0.91
   0  -1  -1   28.65    0.70
   0  -1  -1   27.88    0.76
   0  -1  -1   28.89    0.71
   0  -1  -1   28.56    0.72
   0  -1  -1   28.91    0.71
   0  -1  -1   29.19    0.76
   0   1   1   27.63    0.76
   0   1   1   29.15    0.76
   0   1   1   28.45    0.72
  -1  -1  -1    5.61    0.17
  -1  -1  -1    5.40    0.16
  -1  -1  -1    5.51    0.15
  -1  -1  -1    5.46    0.16
  -1  -1  -1    5.45    0.15
   1   1   1    5.43    0.16
   1   1   1    5.58    0.17
   1   1   1    5.59    0.16
   1   1   1    5.72    0.15
  -2  -1  -1  152.58    3.93
  -2  -1  -1  155.84    4.06
  -2  -1  -1  157.49    3.70
  -2  -1  -1  157.64    3.76
  -2  -1  -1  166.37    4.07
  -2  -1  -1  153.67    3.71
  -2  -1  -1  150.88    3.66
  -2  -1  -1  152.96    3.78
   2   1   1  152.52    4.04
   2   1   1  151.72    3.67
   2   1   1  154.49    3.78
   2   1   1  147.69    4.06
  -3  -1  -1   70.13    1.85
  -3  -1  -1   70.79    1.76
  -3  -1  -1   70.38    1.85
  -3  -1  -1   70.01    1.81
  -3  -1  -1   71.36    1.71
  -3  -1  -1   73.01    1.72
  -3  -1  -1   70.51    1.71
  -3  -1  -1   70.32    1.70
   3   1   1   71.39    1.72
   3   1   1   71.30    1.85
  -4  -1  -1    0.03    0.04
  -4  -1  -1    0.10    0.02
  -4  -1  -1    0.13    0.02
  -4  -1  -1    0.09    0.03
  -4  -1  -1    0.05    0.02
  -4  -1  -1    0.08    0.04
  -4  -1  -1    0.09    0.04
  -4  -1  -1    0.05    0.04
   4   1   1    0.10    0.04
   4   1   1    0.08    0.02
   4   1   1    0.09    0.02
  -5  -1  -1    0.09    0.05
  -5  -1  -1    0.06    0.02
  -5  -1  -1    0.08    0.05
  -5  -1  -1    0.10    0.06
  -6  -1  -1    5.39    0.21
  -6  -1  -1    5.17    0.21
  -6  -1  -1    6.12    0.21
  -6  -1  -1    5.33    0.19
  -7  -1  -1    4.22    0.20
  -7  -1  -1    4.45    0.19
  -7  -1  -1    4.59    0.18
  -8  -1  -1    0.65    0.08
  -8  -1  -1    0.81    0.11
  -8  -1  -1    0.70    0.08
  -8  -1  -1    0.83    0.10
  -9  -1  -1    0.15    0.09
  -9  -1  -1    0.49    0.09
 -11   2   1    0.24    0.08
 -11   2   1    0.24    0.10
 -10   2   1   -0.04    0.07
 -10   2   1    0.10    0.06
  -9   2   1    0.01    0.04
  -9   2   1    0.07    0.06
  -9   2   1    0.09    0.07
  -8   2   1    5.91    0.19
  -8   2   1    6.05    0.24
   7  -2  -1    1.70    0.12
   7  -2  -1    1.85    0.14
  -7   2   1    1.80    0.08
  -7   2   1    1.53    0.12
   6  -2  -1   25.80    0.68
   6  -2  -1   26.77    0.72
   6  -2  -1   25.63    0.63
   6  -2  -1   25.40    0.68
   6  -2  -1   25.87    0.66
  -6   2   1   25.68    0.68
  -6   2   1   25.43    0.65
  -6   2   1   25.56    0.68
  -6   2   1   25.73    0.64
  -6   2   1   24.71    0.69
  -6   2   1   26.00    0.71
   5  -2  -1   63.67    1.56
   5  -2  -1   64.24    1.55
   5  -2  -1   64.86    1.56
   5  -2  -1   64.23    1.68
   5  -2  -1   63.67    1.67
  -5   2   1   65.65    1.69
  -5   2   1   64.11    1.55
  -5   2   1   63.88    1.64
  -5   2   1   64.25    1.56
  -5   2   1   63.34    1.68
  -5   2   1   65.38    1.67
   4  -2  -1    0.10    0.03
   4  -2  -1    0.12    0.03
   4  -2  -1    0.05    0.04
   4  -2  -1    0.09    0.03
   4  -2  -1    0.09    0.03
  -4   2   1    0.10    0.03
  -4   2   1    0.10    0.03
  -4   2   1    0.07    0.02
  -4   2   1    0.12    0.03
  -4   2   1    0.12    0.02
   3  -2  -1    5.44    0.15
   3  -2  -1    5.73    0.16
   3  -2  -1    5.46    0.17
   3  -2  -1    5.35    0.15
   3  -2  -1    5.18    0.17
  -3   2   1    5.03    0.15
  -3   2   1    5.26    0.15
  -3   2   1    5.39    0.17
  -3   2   1    5.37    0.17
  -3   2   1    5.35    0.17
  -3   2   1    5.77    0.15
  -3   2   1    5.36    0.17
   1  -2  -1  615.81   15.12
   1  -2  -1  604.98   15.60
   1  -2  -1  649.30   16.19
   1  -2  -1  641.84   16.19
   1  -2  -1  594.56   14.88
   1  -2  -1  607.19   15.36
  -1   2   1  598.97   15.59
  -1   2   1  605.36   15.11
  -1   2   1  638.36   16.18
  -1   2   1  626.10   16.18
   0  -2  -1   31.72    0.80
   0  -2  -1   31.29    0.79
   0  -2  -1   31.20    0.79
   0  -2  -1   31.47    0.76
   0  -2  -1   30.37    0.84
   0  -2  -1   32.12    0.85
   0   2   1   32.04    0.79
   0   2   1   30.92    0.84
   0   2   1   31.80    0.85
   0   2   1   32.27    0.79
  -1  -2  -1  165.55    4.12
  -1  -2  -1  166.96    4.32
  -1  -2  -1  165.97    4.34
  -1  -2  -1  164.11    4.04
  -1  -2  -1  163.41    3.91
   1   2   1  167.57    4.04
   1   2   1  163.97    4.33
   1   2   1  166.04    4.34
   1   2   1  162.41    3.98
   1   2   1  166.16    3.95
  -2  -2  -1    9.25    0.27
  -2  -2  -1    9.43    0.25
  -2  -2  -1    9.50    0.27
  -2  -2  -1    9.45    0.28
  -2  -2  -1    9.13    0.26
  -2  -2  -1    9.44    0.28
   2   2   1    9.44    0.28
   2   2   1    9.81    0.27
   2   2   1    9.68    0.28
   2   2   1    9.59    0.27
  -3  -2  -1    6.07    0.19
  -3  -2  -1    5.98    0.18
  -3  -2  -1    5.95    0.19
  -3  -2  -1    6.08    0.19
  -3  -2  -1    6.18    0.19
  -3  -2  -1    5.93    0.19
  -3  -2  -1    5.87    0.20
  -3  -2  -1    5.97    0.19
   3   2   1    6.18    0.19
   3   2   1    6.23    0.20
   3   2   1    6.03    0.19
  -4  -2  -1  115.81    2.97
  -4  -2  -1  115.34    2.75
  -4  -2  -1  111.49    2.84
  -4  -2  -1  113.29    2.97
  -4  -2  -1  113.77    2.82
  -4  -2  -1  111.32    2.90
  -4  -2  -1  114.87    2.72
   4   2   1  114.44    2.97
   4   2   1  113.89    2.75
  -5  -2  -1    8.12    0.24
  -5  -2  -1    8.36    0.23
  -5  -2  -1    7.64    0.27
  -5  -2  -1    8.00    0.27
  -5  -2  -1    7.99    0.23
  -5  -2  -1    7.92    0.24
  -5  -2  -1    8.11    0.28
   5   2   1    8.20    0.24
   5   2   1    8.14    0.23
  -6  -2  -1    0.08    0.05
  -6  -2  -1    0.00    0.05
  -6  -2  -1    0.02    0.04
  -6  -2  -1   -0.04    0.06
  -7  -2  -1    1.53    0.14
  -7  -2  -1    1.47    0.13
  -8  -2  -1    0.36    0.10
  -8  -2  -1    0.41    0.09
 -11   3   1    2.05    0.18
 -10   3   1    1.24    0.12
 -10   3   1    1.32    0.09
 -10   3   1    1.43    0.12
   9  -3  -1    0.43    0.08
  -9   3   1    0.17    0.05
  -9   3   1    0.44    0.10
   8  -3  -1    3.05    0.09
   8  -3  -1    2.93    0.10
   8  -3  -1    3.17    0.18
   8  -3  -1    3.17    0.11
  -8   3   1    3.17    0.12
  -8   3   1    3.06    0.10
  -8   3   1    3.22    0.17
  -8   3   1    3.11    0.10
   7  -3  -1    4.92    0.16
   7  -3  -1    4.17    0.16
   7  -3  -1    4.69    0.16
   7  -3  -1    4.84    0.14
   7  -3  -1    4.96    0.21
  -7   3   1    4.91    0.16
  -7   3   1    4.97    0.20
  -7   3   1    5.01    0.16
  -7   3   1    4.92    0.17
  -7   3   1    4.95    0.16
   6  -3  -1    8.77    0.24
   6  -3  -1    8.54    0.24
   6  -3  -1    8.90    0.26
   6  -3  -1    8.34    0.25
   6  -3  -1    8.88    0.29
   6  -3  -1    8.31    0.26
  -6   3   1    8.73    0.28
  -6   3   1    8.48    0.26
  -6   3   1    8.69    0.26
  -6   3   1    8.87    0.25
  -6   3   1    8.48    0.24
  -6   3   1    8.36    0.28
   5  -3  -1   18.47    0.48
   5  -3  -1   18.99    0.52
   5  -3  -1   18.57    0.53
   5  -3  -1   18.62    0.52
   5  -3  -1   18.91    0.48
   5  -3  -1   18.28    0.48
  -5   3   1   18.98    0.53
  -5   3   1   18.96    0.49
  -5   3   1   19.02    0.52
  -5   3   1   19.16    0.52
  -5   3   1   18.74    0.48
  -5   3   1   18.91    0.48
  -5   3   1   18.57    0.52
   4  -3  -1   29.18    0.71
   4  -3  -1   30.18    0.79
   4  -3  -1   28.89    0.73
   4  -3  -1   28.23    0.79
   4  -3  -1   29.21    0.78
   4  -3  -1   29.86    0.73
  -4   3   1   29.22    0.71
  -4   3   1   28.93    0.73
  -4   3   1   29.02    0.76
  -4   3   1   28.97    0.78
  -4   3   1   29.32    0.73
  -4   3   1   29.91    0.79
  -4   3   1   28.48    0.79
   3  -3  -1   58.31    1.44
   3  -3  -1   58.58    1.51
   3  -3  -1   57.53    1.56
   3  -3  -1   58.39    1.45
   3  -3  -1   59.87    1.56
   3  -3  -1   59.23    1.39
   3  -3  -1   58.63    1.43
  -3   3   1   58.99    1.43
  -3   3   1   57.58    1.51
  -3   3   1   58.69    1.56
  -3   3   1   59.88    1.45
  -3   3   1   57.72    1.48
  -3   3   1   60.71    1.56
   2  -3  -1    3.51    0.13
   2  -3  -1    3.62    0.14
   2  -3  -1    3.74    0.12
   2  -3  -1    3.70    0.13
   2  -3  -1    3.68    0.12
  -2   3   1    3.69    0.12
  -2   3   1    3.65    0.13
  -2   3   1    3.49    0.12
  -2   3   1    3.64    0.14
  -2   3   1    3.84    0.12
  -2   3   1    3.43    0.12
   1  -3  -1    0.15    0.02
   1  -3  -1    0.18    0.03
   1  -3  -1    0.12    0.03
   1  -3  -1    0.15    0.02
   1  -3  -1    0.33    0.04
   1  -3  -1    0.14    0.04
  -1   3   1    0.15    0.04
  -1   3   1    0.20    0.03
  -1   3   1    0.15    0.02
  -1   3   1    0.14    0.04
   0  -3  -1   20.02    0.49
   0  -3  -1   20.21    0.56
   0  -3  -1   20.03    0.56
   0  -3  -1   20.11    0.52
   0  -3  -1   19.20    0.52
   0   3   1   19.78    0.50
   0   3   1   19.99    0.50
   0   3   1   20.18    0.52
   0   3   1   20.12    0.56
   0   3   1   19.95    0.56
  -1  -3  -1   23.26    0.64
  -1  -3  -1   23.53    0.58
  -1  -3  -1   22.83    0.64
  -1  -3  -1   23.20    0.61
   1   3   1   22.74    0.59
   1   3   1   23.74    0.59
   1   3   1   23.17    0.64
   1   3   1   23.35    0.64
  -2  -3  -1    2.85    0.12
  -2  -3  -1    2.80    0.12
  -2  -3  -1    2.93    0.12
  -2  -3  -1    2.68    0.12
  -2  -3  -1    2.79    0.11
   2   3   1    2.86    0.12
   2   3   1    2.68    0.12
   2   3   1    2.86    0.12
   2   3   1    2.76    0.12
   2   3   1    3.19    0.12
  -3  -3  -1   23.14    0.63
  -3  -3  -1   23.52    0.61
  -3  -3  -1   22.51    0.62
  -3  -3  -1   22.39    0.64
  -3  -3  -1   23.35    0.58
  -3  -3  -1   23.79    0.60
  -3  -3  -1   23.15    0.61
  -3  -3  -1   23.16    0.65
  -3  -3  -1   23.32    0.58
   3   3   1   23.41    0.61
   3   3   1   23.43    0.64
   3   3   1   23.49    0.65
  -4  -3  -1   80.18    1.96
  -4  -3  -1   77.82    2.00
  -4  -3  -1   78.87    1.94
  -4  -3  -1   76.91    2.05
  -4  -3  -1   79.70    1.94
  -4  -3  -1   79.93    2.06
  -4  -3  -1   80.42    1.90
  -4  -3  -1   78.71    1.90
   4   3   1   68.04    2.05
   4   3   1   76.99    2.05
   4   3   1   79.64    1.92
  -5  -3  -1    0.32    0.07
  -5  -3  -1    0.38    0.03
  -5  -3  -1    0.29    0.04
  -5  -3  -1    0.31    0.07
  -5  -3  -1    0.34    0.05
  -5  -3  -1    0.45    0.05
  -5  -3  -1    0.39    0.06
   5   3   1    0.32    0.05
   5   3   1    0.49    0.05
  -6  -3  -1    0.04    0.06
  -6  -3  -1   -0.01    0.07
   6   3   1    0.04    0.02
  -7  -3  -1    1.95    0.16
  -7  -3  -1    1.83    0.16
 -11   4   1    0.30    0.10
  10  -4  -1    0.09    0.08
 -10   4   1   -0.04    0.08
 -10   4   1    0.04    0.05
   9  -4  -1   -0.06    0.03
   9  -4  -1   -0.09    0.07
   9  -4  -1    0.06    0.04
   9  -4  -1   -0.06    0.03
  -9   4   1    0.00    0.04
  -9   4   1    0.02    0.08
  -9   4   1    0.05    0.04
  -9   4   1    0.05    0.03
   8  -4  -1   11.56    0.34
   8  -4  -1   11.96    0.40
   8  -4  -1   11.46    0.33
   8  -4  -1   11.79    0.32
  -8   4   1   11.79    0.38
  -8   4   1   11.67    0.33
  -8   4   1   11.76    0.35
  -8   4   1   11.49    0.34
  -8   4   1   12.10    0.33
   7  -4  -1    1.59    0.09
   7  -4  -1    1.58    0.08
   7  -4  -1    1.60    0.09
   7  -4  -1    1.66    0.13
   7  -4  -1    1.56    0.09
  -7   4   1    1.61    0.09
  -7   4   1    1.55    0.09
  -7   4   1    1.60    0.12
  -7   4   1    1.54    0.09
  -7   4   1    1.49    0.08
  -7   4   1    1.56    0.09
   6  -4  -1   11.50    0.32
   6  -4  -1   12.32    0.37
   6  -4  -1   11.61    0.35
   6  -4  -1   10.99    0.34
   6  -4  -1   11.38    0.32
  -6   4   1   11.64    0.32
  -6   4   1   11.38    0.35
  -6   4   1   11.14    0.35
  -6   4   1   11.14    0.31
  -6   4   1   11.18    0.34
  -6   4   1   11.63    0.32
   5  -4  -1   83.19    2.00
   5  -4  -1   83.87    2.17
   5  -4  -1   82.74    2.01
   5  -4  -1   79.98    2.17
   5  -4  -1   82.78    2.12
  -5   4   1   82.95    2.00
  -5   4   1   82.37    2.03
  -5   4   1   83.37    2.17
  -5   4   1   79.27    2.17
  -5   4   1   82.22    2.08
  -5   4   1   81.15    1.96
   4  -4  -1   12.66    0.34
   4  -4  -1   12.17    0.37
   4  -4  -1   12.74    0.37
   4  -4  -1   12.71    0.37
   4  -4  -1   11.82    0.33
   4  -4  -1   11.95    0.33
  -4   4   1   12.76    0.33
  -4   4   1   12.23    0.37
  -4   4   1   12.40    0.37
  -4   4   1   12.30    0.36
  -4   4   1   12.31    0.34
  -4   4   1   12.25    0.35
   3  -4  -1   31.76    0.85
   3  -4  -1   30.94    0.77
   3  -4  -1   30.21    0.78
   3  -4  -1   30.82    0.85
   3  -4  -1   29.85    0.82
  -3   4   1   30.73    0.85
  -3   4   1   30.51    0.78
  -3   4   1   31.51    0.85
  -3   4   1   31.24    0.78
  -3   4   1   30.91    0.80
  -3   4   1   30.58    0.81
   2  -4  -1    3.70    0.13
   2  -4  -1    3.82    0.15
   2  -4  -1    3.46    0.15
   2  -4  -1    3.64    0.13
   2  -4  -1    3.70    0.13
  -2   4   1    3.78    0.15
  -2   4   1    3.64    0.12
  -2   4   1    3.76    0.13
  -2   4   1    3.47    0.14
  -2   4   1    3.61    0.13
   1  -4  -1    2.04    0.09
   1  -4  -1    1.91    0.11
   1  -4  -1    2.03    0.07
   1  -4  -1    1.99    0.09
   1  -4  -1    1.94    0.09
   1  -4  -1    1.86    0.11
  -1   4   1    1.93    0.11
  -1   4   1    2.11    0.07
  -1   4   1    2.12    0.11
  -1   4   1    2.07    0.09
   0  -4  -1   45.27    1.24
   0  -4  -1   46.02    1.18
   0  -4  -1   46.75    1.24
   0  -4  -1   46.46    1.11
   0  -4  -1   45.01    1.16
   0  -4  -1   46.42    1.14
   0   4   1   45.91    1.24
   0   4   1   47.09    1.17
   0   4   1   45.98    1.14
   0   4   1   45.21    1.24
   0   4   1   45.37    1.12
   0   4   1   45.88    1.12
  -1  -4  -1    1.15    0.09
  -1  -4  -1    1.10    0.07
  -1  -4  -1    1.27    0.08
  -1  -4  -1    1.16    0.09
  -1  -4  -1    1.15    0.09
   1   4   1    1.14    0.09
   1   4   1    1.12    0.08
   1   4   1    1.24    0.08
   1   4   1    1.16    0.09
   1   4   1    1.12    0.09
  -2  -4  -1   39.98    1.09
  -2  -4  -1   40.30    1.10
  -2  -4  -1   40.27    1.00
  -2  -4  -1   39.62    1.04
   2   4   1   40.23    1.09
   2   4   1   39.95    1.01
   2   4   1   41.05    1.10
  -3  -4  -1    2.09    0.14
  -3  -4  -1    1.99    0.12
  -3  -4  -1    2.13    0.12
   3   4   1    1.84    0.13
   3   4   1    2.20    0.12
   3   4   1    2.08    0.12
  -4  -4  -1    1.26    0.10
  -4  -4  -1    1.33    0.11
  -4  -4  -1    1.31    0.10
  -4  -4  -1    1.43    0.13
  -4  -4  -1    1.44    0.09
   4   4   1    1.45    0.10
   4   4   1    1.48    0.10
   4   4   1    1.11    0.11
  -5  -4  -1    3.06    0.18
  -5  -4  -1    3.15    0.17
   5   4   1    3.08    0.13
  -6  -4  -1    2.15    0.17
   6   4   1    2.09    0.10
  -7  -4  -1    0.04    0.09
 -12   5   1    0.19    0.10
  11  -5  -1    0.09    0.09
 -11   5   1    0.04    0.09
  10  -5  -1    0.34    0.05
  10  -5  -1    0.30    0.10
 -10   5   1    0.41    0.10
 -10   5   1    0.43    0.07
   9  -5  -1    1.43    0.14
   9  -5  -1    1.83    0.11
   9  -5  -1    1.77    0.11
   9  -5  -1    1.76    0.10
   9  -5  -1    1.74    0.10
  -9   5   1    1.72    0.11
  -9   5   1    1.89    0.10
  -9   5   1    1.75    0.11
  -9   5   1    1.66    0.15
   8  -5  -1    1.38    0.10
   8  -5  -1    1.27    0.09
   8  -5  -1    1.10    0.09
   8  -5  -1    1.33    0.09
   8  -5  -1    1.25    0.12
  -8   5   1    1.39    0.09
  -8   5   1    1.41    0.09
  -8   5   1    1.28    0.09
  -8   5   1    1.32    0.12
  -8   5   1    1.26    0.09
   7  -5  -1    2.72    0.12
   7  -5  -1    3.01    0.16
   7  -5  -1    2.53    0.12
   7  -5  -1    2.88    0.14
   7  -5  -1    2.94    0.14
  -7   5   1    2.90    0.13
  -7   5   1    2.36    0.12
  -7   5   1    2.86    0.15
  -7   5   1    2.53    0.12
  -7   5   1    2.90    0.11
   6  -5  -1    2.80    0.13
   6  -5  -1    2.72    0.14
   6  -5  -1    2.54    0.15
   6  -5  -1    2.89    0.14
   6  -5  -1    2.77    0.12
  -6   5   1    2.67    0.14
  -6   5   1    2.67    0.11
  -6   5   1    2.65    0.12
  -6   5   1    2.77    0.14
  -6   5   1    2.79    0.13
  -6   5   1    2.68    0.10
   5  -5  -1    4.86    0.19
   5  -5  -1    5.03    0.19
   5  -5  -1    4.94    0.19
   5  -5  -1    5.07    0.18
   5  -5  -1    4.56    0.17
  -5   5   1    5.17    0.19
  -5   5   1    4.87    0.16
  -5   5   1    4.87    0.18
  -5   5   1    4.98    0.17
  -5   5   1    4.86    0.19
  -5   5   1    5.00    0.19
   4  -5  -1   15.16    0.45
   4  -5  -1   14.49    0.40
   4  -5  -1   15.12    0.40
   4  -5  -1   14.15    0.43
   4  -5  -1   14.38    0.44
  -4   5   1   15.04    0.41
  -4   5   1   14.44    0.44
  -4   5   1   15.23    0.40
  -4   5   1   15.65    0.45
  -4   5   1   14.69    0.42
  -4   5   1   14.34    0.42
   3  -5  -1    7.63    0.25
   3  -5  -1    7.97    0.24
   3  -5  -1    7.87    0.24
   3  -5  -1    8.10    0.27
   3  -5  -1    8.12    0.27
  -3   5   1    8.11    0.24
  -3   5   1    7.76    0.27
  -3   5   1    8.26    0.24
  -3   5   1    7.83    0.24
  -3   5   1    7.93    0.27
  -3   5   1    7.90    0.24
   2  -5  -1  115.21    2.98
   2  -5  -1  119.90    3.10
   2  -5  -1  114.96    3.10
   2  -5  -1  118.17    2.89
   2  -5  -1  114.86    2.85
  -2   5   1  121.16    2.90
  -2   5   1  119.72    3.10
  -2   5   1  115.88    3.10
  -2   5   1  115.82    2.98
  -2   5   1  118.71    2.93
   1  -5  -1    8.25    0.25
   1  -5  -1    8.11    0.27
   1  -5  -1    7.76    0.24
   1  -5  -1    7.94    0.21
   1  -5  -1    7.92    0.24
   1  -5  -1    7.96    0.27
  -1   5   1    7.83    0.27
  -1   5   1    7.58    0.24
  -1   5   1    7.94    0.27
  -1   5   1    8.25    0.22
  -1   5   1    8.30    0.25
   0  -5  -1    1.34    0.11
   0  -5  -1    1.40    0.08
   0  -5  -1    1.49    0.11
   0  -5  -1    1.17    0.12
   0  -5  -1    1.33    0.10
   0  -5  -1    1.47    0.08
   0   5   1    1.23    0.09
   0   5   1    1.37    0.12
   0   5   1    1.36    0.12
  -1  -5  -1   23.05    0.63
  -1  -5  -1   22.97    0.62
  -1  -5  -1   23.44    0.59
  -1  -5  -1   23.04    0.67
   1   5   1   23.73    0.67
   1   5   1   23.63    0.67
   1   5   1   22.75    0.61
  -2  -5  -1   21.70    0.57
  -2  -5  -1   21.81    0.61
  -2  -5  -1   21.55    0.63
  -2  -5  -1   21.52    0.59
   2   5   1   21.84    0.64
   2   5   1   21.92    0.63
   2   5   1   21.46    0.58
  -3  -5  -1    4.34    0.18
  -3  -5  -1    4.48    0.20
   3   5   1    4.04    0.19
   3   5   1    4.29    0.18
   3   5   1    4.19    0.19
  -4  -5  -1    1.10    0.11
   4   5   1    1.08    0.11
   4   5   1    1.15    0.10
  -5  -5  -1    2.35    0.18
   5   5   1    1.96    0.12
  -6  -5  -1    2.75    0.20
  12  -6  -1    0.09    0.09
 -12   6   1   -0.12    0.10
  11  -6  -1    0.59    0.12
 -11   6   1    0.69    0.12
 -11   6   1    0.84    0.09
  10  -6  -1    0.45    0.11
  10  -6  -1    0.32    0.06
 -10   6   1    0.40    0.07
 -10   6   1    0.30    0.09
   9  -6  -1    4.78    0.24
   9  -6  -1    4.69    0.19
   9  -6  -1    4.78    0.18
   9  -6  -1    5.31    0.22
  -9   6   1    4.58    0.19
  -9   6   1    5.13    0.24
  -9   6   1    4.74    0.19
   8  -6  -1    3.65    0.17
   8  -6  -1    3.87    0.21
   8  -6  -1    4.06    0.18
   8  -6  -1    3.69    0.16
  -8   6   1    3.91    0.17
  -8   6   1    3.89    0.19
  -8   6   1    3.71    0.15
  -8   6   1    4.02    0.14
  -8   6   1    3.83    0.17
   7  -6  -1   41.26    1.18
   7  -6  -1   42.88    1.17
   7  -6  -1   43.71    1.09
   7  -6  -1   43.73    1.19
  -7   6   1   43.04    1.04
  -7   6   1   43.08    1.09
  -7   6   1   42.67    1.18
  -7   6   1   42.83    1.09
  -7   6   1   42.95    1.14
   6  -6  -1   15.43    0.48
   6  -6  -1   15.54    0.47
   6  -6  -1   15.59    0.44
   6  -6  -1   15.26    0.47
   6  -6  -1   15.57    0.44
  -6   6   1   14.87    0.43
  -6   6   1   15.14    0.47
  -6   6   1   15.18    0.46
  -6   6   1   15.55    0.43
   5  -6  -1    0.28    0.05
   5  -6  -1    0.39    0.07
   5  -6  -1    0.30    0.06
   5  -6  -1    0.41    0.06
   5  -6  -1    0.26    0.07
  -5   6   1    0.50    0.08
  -5   6   1    0.42    0.05
  -5   6   1    0.20    0.06
  -5   6   1    0.35    0.07
  -5   6   1    0.36    0.06
  -5   6   1    0.42    0.06
   4  -6  -1    2.97    0.15
   4  -6  -1    2.95    0.13
   4  -6  -1    2.95    0.15
   4  -6  -1    2.78    0.14
   4  -6  -1    2.93    0.13
  -4   6   1    2.82    0.15
  -4   6   1    2.97    0.15
  -4   6   1    3.10    0.13
  -4   6   1    3.25    0.13
  -4   6   1    2.93    0.13
  -4   6   1    3.10    0.13
   3  -6  -1    0.04    0.04
   3  -6  -1    0.10    0.04
   3  -6  -1   -0.04    0.05
   3  -6  -1    0.05    0.06
  -3   6   1    0.01    0.06
  -3   6   1    0.04    0.03
  -3   6   1    0.00    0.05
  -3   6   1    0.12    0.04
  -3   6   1    0.02    0.04
   2  -6  -1   26.35    0.72
   2  -6  -1   26.47    0.77
   2  -6  -1   27.56    0.78
   2  -6  -1   27.30    0.71
  -2   6   1   26.58    0.69
  -2   6   1   26.51    0.70
  -2   6   1   26.74    0.77
  -2   6   1   27.11    0.77
   1  -6  -1    6.04    0.21
   1  -6  -1    5.65    0.20
   1  -6  -1    5.87    0.16
   1  -6  -1    5.87    0.23
  -1   6   1    6.06    0.24
  -1   6   1    5.80    0.16
  -1   6   1    5.83    0.23
   0  -6  -1   28.82    0.78
   0  -6  -1   29.28    0.78
   0  -6  -1   29.06    0.83
   0  -6  -1   29.20    0.72
   0   6   1   29.39    0.83
   0   6   1   29.52    0.84
   0   6   1   28.91    0.75
  -1  -6  -1   15.07    0.46
  -1  -6  -1   14.47    0.42
  -1  -6  -1   14.20    0.44
  -1  -6  -1   14.79    0.40
   1   6   1   14.47    0.42
   1   6   1   15.21    0.47
   1   6   1   14.29    0.46
  -2  -6  -1    7.98    0.26
  -2  -6  -1    8.36    0.29
  -2  -6  -1    8.42    0.30
   2   6   1    8.26    0.30
   2   6   1    7.89    0.27
   2   6   1    7.99    0.30
  -3  -6  -1    7.17    0.28
  -3  -6  -1    6.90    0.23
   3   6   1    7.22    0.26
   3   6   1    6.61    0.26
  -4  -6  -1    0.82    0.11
   4   6   1    0.95    0.11
   4   6   1    0.83    0.09
  -5  -6  -1    0.48    0.11
   5   6   1    0.38    0.07
  12  -7  -1    0.34    0.06
  12  -7  -1    0.37    0.12
 -12   7   1    0.43    0.12
  11  -7  -1    0.04    0.09
  11  -7  -1   -0.02    0.05
 -11   7   1   -0.10    0.08
 -11   7   1   -0.13    0.06
  10  -7  -1    1.07    0.13
  10  -7  -1    0.89    0.09
 -10   7   1    1.23    0.12
 -10   7   1    0.97    0.12
   9  -7  -1    0.37    0.10
   9  -7  -1    0.35    0.07
  -9   7   1    0.43    0.10
  -9   7   1    0.29    0.07
  -9   7   1    0.36    0.07
   8  -7  -1    0.35    0.08
   8  -7  -1    0.37    0.08
   8  -7  -1    0.54    0.10
  -8   7   1    0.34    0.09
  -8   7   1    0.43    0.08
  -8   7   1    0.35    0.08
   7  -7  -1    0.06    0.08
   7  -7  -1    0.05    0.07
   7  -7  -1   -0.03    0.07
  -7   7   1   -0.13    0.07
  -7   7   1   -0.05    0.07
  -7   7   1   -0.01    0.06
   6  -7  -1    1.69    0.15
   6  -7  -1    1.90    0.14
   6  -7  -1    2.02    0.14
  -6   7   1    1.97    0.14
  -6   7   1    1.59    0.12
  -6   7   1    1.96    0.13
   5  -7  -1   15.75    0.49
   5  -7  -1   15.80    0.48
   5  -7  -1   15.78    0.49
   5  -7  -1   15.76    0.45
  -5   7   1   15.88    0.46
  -5   7   1   15.56    0.45
  -5   7   1   15.31    0.49
   4  -7  -1    0.08    0.06
   4  -7  -1    0.01    0.06
   4  -7  -1    0.12    0.05
  -4   7   1    0.13    0.05
  -4   7   1    0.15    0.07
  -4   7   1    0.14    0.05
   3  -7  -1    2.38    0.13
   3  -7  -1    2.50    0.16
   3  -7  -1    2.31    0.13
  -3   7   1    2.50    0.16
  -3   7   1    2.35    0.12
  -3   7   1    2.31    0.11
   2  -7  -1   39.33    1.07
   2  -7  -1   39.71    1.13
   2  -7  -1   39.92    1.05
  -2   7   1   41.17    1.13
  -2   7   1   41.27    1.14
  -2   7   1   39.50    1.02
   1  -7  -1    7.26    0.24
   1  -7  -1    6.87    0.28
   1  -7  -1    7.07    0.26
  -1   7   1    7.32    0.28
  -1   7   1    7.28    0.28
  -1   7   1    7.16    0.23
  -1   7   1    7.09    0.19
   0  -7  -1    7.10    0.27
   0  -7  -1    7.11    0.21
   0  -7  -1    7.53    0.28
   0  -7  -1    7.60    0.25
   0   7   1    7.30    0.25
   0   7   1    7.32    0.28
   0   7   1    7.06    0.29
  -1  -7  -1    8.87    0.28
  -1  -7  -1    8.93    0.33
  -1  -7  -1    8.53    0.31
   1   7   1    8.86    0.29
   1   7   1    9.00    0.33
  -2  -7  -1    1.58    0.11
  -2  -7  -1    1.36    0.13
   2   7   1    1.73    0.14
   2   7   1    1.62    0.14
  -3  -7  -1    0.47    0.10
   3   7   1    0.47    0.08
   3   7   1    0.64    0.09
  -4  -7  -1   11.28    0.40
   4   7   1   10.69    0.38
  12  -8  -1    0.32    0.07
  11  -8  -1   -0.07    0.09
  11  -8  -1   -0.07    0.05
 -11   8   1    0.00    0.07
 -11   8   1    0.13    0.10
  10  -8  -1    0.38    0.11
  10  -8  -1    0.36    0.08
 -10   8   1    0.44    0.08
 -10   8   1    0.18    0.09
   9  -8  -1    0.02    0.07
   9  -8  -1    0.05    0.08
  -9   8   1   -0.14    0.06
  -9   8   1   -0.05    0.08
  -9   8   1    0.00    0.06
   8  -8  -1    3.26    0.19
   8  -8  -1    3.98    0.22
   8  -8  -1    3.51    0.20
  -8   8   1    3.42    0.18
  -8   8   1    3.31    0.18
  -8   8   1    3.70    0.20
   7  -8  -1    4.35    0.22
   7  -8  -1    3.71    0.21
  -7   8   1    3.93    0.19
  -7   8   1    3.69    0.21
  -7   8   1    3.88    0.18
   6  -8  -1    0.25    0.08
   6  -8  -1    0.17    0.06
   6  -8  -1    0.16    0.07
  -6   8   1    0.17    0.07
  -6   8   1    0.12    0.06
  -6   8   1    0.16    0.08
   5  -8  -1    0.49    0.08
   5  -8  -1    0.62    0.08
   5  -8  -1    0.57    0.10
  -5   8   1    0.69    0.08
  -5   8   1    0.55    0.10
   4  -8  -1   -0.02    0.07
   4  -8  -1   -0.04    0.06
   4  -8  -1    0.01    0.05
  -4   8   1    0.01    0.04
  -4   8   1    0.00    0.07
   3  -8  -1    1.24    0.12
   3  -8  -1    1.20    0.13
   3  -8  -1    1.38    0.12
  -3   8   1    1.37    0.09
  -3   8   1    1.27    0.13
   2  -8  -1    0.88    0.10
   2  -8  -1    0.78    0.08
   2  -8  -1    0.75    0.10
  -2   8   1    0.86    0.06
  -2   8   1    0.87    0.08
  -2   8   1    0.84    0.11
   1  -8  -1    1.39    0.14
   1  -8  -1    1.70    0.12
   1  -8  -1    1.45    0.14
  -1   8   1    1.60    0.11
  -1   8   1    1.74    0.15
   0  -8  -1    0.19    0.06
   0  -8  -1    0.08    0.08
   0  -8  -1    0.10    0.08
   0   8   1    0.08    0.06
   0   8   1    0.08    0.08
  -1  -8  -1    2.11    0.17
   1   8   1    2.11    0.14
   1   8   1    1.79    0.16
  -2  -8  -1    1.79    0.17
   2   8   1    1.84    0.15
   2   8   1    1.68    0.15
  11  -9  -1    0.05    0.10
  11  -9  -1   -0.07    0.06
 -11   9   1    0.01    0.07
 -11   9   1   -0.01    0.09
  10  -9  -1    0.50    0.09
  10  -9  -1    0.43    0.11
 -10   9   1    0.56    0.10
 -10   9   1    0.54    0.11
   9  -9  -1   -0.07    0.09
   9  -9  -1    0.10    0.08
  -9   9   1   -0.12    0.08
  -9   9   1   -0.05    0.07
  -9   9   1   -0.09    0.07
   8  -9  -1    0.78    0.12
   8  -9  -1    0.63    0.11
  -8   9   1    0.80    0.11
  -8   9   1    0.68    0.11
  -8   9   1    0.73    0.10
   7  -9  -1    7.08    0.29
   7  -9  -1    6.56    0.28
  -7   9   1    6.70    0.27
  -7   9   1    6.65    0.29
  -7   9   1    6.50    0.26
   6  -9  -1    0.57    0.10
   6  -9  -1    0.63    0.10
   6  -9  -1    0.72    0.09
  -6   9   1    0.69    0.09
  -6   9   1    0.64    0.10
   5  -9  -1    0.53    0.10
   5  -9  -1    0.57    0.09
   5  -9  -1    0.52    0.08
  -5   9   1    0.45    0.10
  -5   9   1    0.63    0.08
   4  -9  -1    2.22    0.15
   4  -9  -1    1.97    0.15
   4  -9  -1    1.89    0.17
  -4   9   1    2.00    0.11
  -4   9   1    1.86    0.17
   3  -9  -1    0.04    0.07
   3  -9  -1   -0.02    0.07
   3  -9  -1    0.10    0.08
  -3   9   1    0.09    0.04
  -3   9   1   -0.09    0.08
   2  -9  -1    0.43    0.10
   2  -9  -1    0.45    0.08
   2  -9  -1    0.12    0.08
  -2   9   1    0.42    0.07
  -2   9   1    0.38    0.10
   1  -9  -1    0.77    0.12
   1  -9  -1    0.70    0.11
   1  -9  -1    0.81    0.09
  -1   9   1    0.59    0.11
  -1   9   1    0.76    0.09
   0  -9  -1    0.23    0.09
   0  -9  -1    0.47    0.10
   0   9   1    0.50    0.08
   0   9   1    0.44    0.10
  -1  -9  -1   -0.04    0.09
   1   9   1    0.08    0.07
   1   9   1    0.02    0.08
  11 -10  -1   -0.09    0.08
  10 -10  -1    0.01    0.08
  10 -10  -1    0.06    0.10
 -10  10   1   -0.09    0.08
 -10  10   1   -0.03    0.09
   9 -10  -1    0.19    0.09
   9 -10  -1    0.18    0.10
  -9  10   1    0.07    0.09
  -9  10   1    0.07    0.10
  -9  10   1    0.13    0.09
   8 -10  -1    0.21    0.10
   8 -10  -1    0.25    0.10
  -8  10   1    0.12    0.09
  -8  10   1    0.16    0.09
   7 -10  -1    0.33    0.07
   7 -10  -1    0.31    0.10
   7 -10  -1    0.39    0.10
  -7  10   1    0.28    0.10
  -7  10   1    0.36    0.09
   6 -10  -1    0.72    0.09
   6 -10  -1    0.74    0.11
   6 -10  -1    0.53    0.11
  -6  10   1    0.75    0.09
  -6  10   1    0.68    0.12
   5 -10  -1    0.88    0.13
   5 -10  -1    0.78    0.10
   5 -10  -1    1.03    0.12
  -5  10   1    0.92    0.09
  -5  10   1    0.80    0.13
   4 -10  -1    1.75    0.16
   4 -10  -1    1.39    0.15
   4 -10  -1    1.55    0.15
  -4  10   1    1.42    0.15
   3 -10  -1    1.06    0.11
   3 -10  -1    1.05    0.12
   3 -10  -1    1.03    0.14
  -3  10   1    0.96    0.13
  -3  10   1    0.91    0.09
   2 -10  -1    1.23    0.12
   2 -10  -1    1.03    0.12
   2 -10  -1    1.13    0.15
  -2  10   1    0.96    0.14
  -2  10   1    1.07    0.10
   1 -10  -1    3.00    0.20
   1 -10  -1    3.07    0.23
  -1  10   1    3.19    0.23
  -1  10   1    3.05    0.17
   9 -11  -1    2.60    0.22
   9 -11  -1    2.80    0.23
  -9  11   1    2.56    0.22
  -9  11   1    2.77    0.21
   8 -11  -1    0.07    0.10
   8 -11  -1    0.08    0.10
  -8  11   1   -0.02    0.08
  -8  11   1    0.11    0.10
   7 -11  -1   -0.08    0.06
   7 -11  -1    0.00    0.09
   7 -11  -1   -0.03    0.09
  -7  11   1   -0.03    0.10
  -7  11   1   -0.06    0.07
   6 -11  -1    0.23    0.11
   6 -11  -1    0.13    0.08
   6 -11  -1    0.41    0.10
  -6  11   1    0.34    0.12
  -6  11   1    0.20    0.07
   5 -11  -1    0.09    0.08
   5 -11  -1   -0.15    0.10
   5 -11  -1   -0.08    0.07
  -5  11   1   -0.20    0.09
   4 -11  -1    0.17    0.08
   4 -11  -1   -0.01    0.10
   4 -11  -1    0.03    0.08
  -4  11   1   -0.01    0.10
   3 -11  -1    0.14    0.11
   3 -11  -1    0.02    0.08
  -3  11   1    0.07    0.10
  -3  12  -2    2.74    0.22
   3 -12   2    2.98    0.22
   3 -12   2    2.54    0.21
   3 -12   2    2.60    0.20
  -4  12  -2    0.48    0.12
   4 -12   2    0.39    0.12
   4 -12   2    0.36    0.10
   4 -12   2    0.16    0.10
  -5  12  -2    1.24    0.15
   5 -12   2    1.42    0.16
   5 -12   2    1.71    0.16
   5 -12   2    1.16    0.14
  -6  12  -2    0.83    0.13
  -6  12  -2    0.85    0.11
  -6  12  -2    0.95    0.13
   6 -12   2    0.72    0.13
   6 -12   2    0.77    0.13
  -7  12  -2   -0.03    0.08
  -7  12  -2   -0.03    0.08
  -7  12  -2    0.04    0.09
   7 -12   2    0.16    0.10
   7 -12   2   -0.01    0.09
  -8  12  -2    0.05    0.09
  -8  12  -2    0.01    0.08
  -8  12  -2    0.06    0.09
   8 -12   2    0.14    0.09
   8 -12   2    0.14    0.10
  -9  12  -2    0.70    0.12
  -9  12  -2    0.61    0.11
   9 -12   2    0.56    0.13
   0 -11   2    0.27    0.08
   0 -11   2    0.32    0.10
  -1  11  -2    0.56    0.11
   1 -11   2    0.53    0.12
   1 -11   2    0.44    0.10
   1 -11   2    0.47    0.09
  -2  11  -2    4.31    0.25
   2 -11   2    4.32    0.23
   2 -11   2    4.03    0.22
   2 -11   2    4.52    0.25
  -3  11  -2    0.01    0.09
   3 -11   2   -0.05    0.09
   3 -11   2    0.09    0.09
   3 -11   2   -0.01    0.08
  -4  11  -2    4.62    0.26
  -4  11  -2    4.61    0.19
   4 -11   2    4.75    0.24
   4 -11   2    5.03    0.24
   4 -11   2    4.57    0.26
  -5  11  -2    0.78    0.11
  -5  11  -2    0.88    0.10
  -5  11  -2    0.69    0.12
   5 -11   2    0.79    0.12
   5 -11   2    0.75    0.10
   5 -11   2    0.61    0.12
  -6  11  -2    0.05    0.08
  -6  11  -2    0.10    0.07
  -6  11  -2   -0.05    0.08
   6 -11   2   -0.07    0.08
   6 -11   2    0.00    0.08
  -7  11  -2    0.02    0.07
  -7  11  -2   -0.02    0.08
  -7  11  -2    0.04    0.07
   7 -11   2    0.07    0.08
   7 -11   2   -0.04    0.08
  -8  11  -2    0.08    0.08
  -8  11  -2    0.12    0.08
  -8  11  -2    0.07    0.08
   8 -11   2    0.08    0.10
   8 -11   2    0.00    0.08
  -9  11  -2    0.56    0.11
  -9  11  -2    0.39    0.10
   9 -11   2    0.32    0.10
   9 -11   2    0.38    0.12
 -10  11  -2    0.30    0.11
 -10  11  -2    0.25    0.10
  10 -11   2    0.24    0.10
  10 -11   2    0.31    0.12
   1  10  -2    1.25    0.13
  -1 -10   2    1.27    0.13
  -1 -10   2    1.18    0.11
   0  10  -2    0.02    0.08
   0 -10   2    0.17    0.09
   0 -10   2    0.15    0.07
   0 -10   2    0.10    0.08
  -1  10  -2    0.09    0.08
   1 -10   2    0.12    0.09
   1 -10   2    0.13    0.07
   1 -10   2    0.14    0.08
  -2  10  -2    1.08    0.13
  -2  10  -2    1.01    0.08
   2 -10   2    1.09    0.11
   2 -10   2    1.10    0.11
   2 -10   2    1.13    0.13
  -3  10  -2    5.35    0.19
  -3  10  -2    5.19    0.16
  -3  10  -2    4.85    0.25
   3 -10   2    5.49    0.24
   3 -10   2    4.95    0.25
   3 -10   2    5.36    0.23
  -4  10  -2    3.00    0.19
  -4  10  -2    2.77    0.11
  -4  10  -2    2.80    0.17
  -4  10  -2    2.97    0.14
   4 -10   2    3.05    0.17
   4 -10   2    3.03    0.19
   4 -10   2    2.97    0.20
  -5  10  -2    1.22    0.11
  -5  10  -2    1.08    0.12
   5 -10   2    1.06    0.10
   5 -10   2    1.17    0.13
   5 -10   2    1.18    0.12
  -6  10  -2   -0.07    0.07
  -6  10  -2   -0.04    0.06
   6 -10   2   -0.08    0.07
   6 -10   2    0.00    0.07
  -7  10  -2    0.64    0.10
  -7  10  -2    0.47    0.10
   7 -10   2    0.72    0.11
   7 -10   2    0.55    0.10
  -8  10  -2    0.02    0.07
  -8  10  -2    0.01    0.07
   8 -10   2    0.04    0.08
   8 -10   2    0.05    0.08
  -9  10  -2    4.67    0.25
  -9  10  -2    4.22    0.23
   9 -10   2    4.50    0.23
   9 -10   2    4.81    0.28
 -10  10  -2    3.34    0.21
 -10  10  -2    3.86    0.24
  10 -10   2    3.67    0.27
 -11  10  -2    0.39    0.12
 -11  10  -2    0.13    0.09
  11 -10   2    0.20    0.12
  11 -10   2    0.11    0.07
   3   9  -2    1.51    0.14
  -3  -9   2    1.32    0.14
  -3  -9   2    1.34    0.12
   2   9  -2    0.38    0.09
  -2  -9   2    0.38    0.09
  -2  -9   2    0.40    0.08
   1   9  -2    0.09    0.07
  -1  -9   2   -0.10    0.07
  -1  -9   2   -0.04    0.07
  -1  -9   2    0.00    0.06
   0   9  -2    0.13    0.08
   0   9  -2    0.21    0.05
   0  -9   2    0.08    0.08
   0  -9   2   -0.04    0.08
   0  -9   2    0.17    0.06
  -1   9  -2    1.68    0.09
  -1   9  -2    1.49    0.15
  -1   9  -2    1.68    0.07
   1  -9   2    1.89    0.15
   1  -9   2    1.76    0.14
   1  -9   2    1.60    0.15
  -2   9  -2   -0.01    0.08
  -2   9  -2    0.21    0.04
  -2   9  -2    0.28    0.04
  -2   9  -2    0.10    0.03
   2  -9   2    0.23    0.07
   2  -9   2    0.01    0.08
   2  -9   2    0.26    0.07
  -3   9  -2    1.91    0.08
  -3   9  -2    1.54    0.15
  -3   9  -2    2.02    0.13
   3  -9   2    2.00    0.14
   3  -9   2    1.82    0.15
   3  -9   2    2.02    0.14
  -4   9  -2    1.47    0.14
  -4   9  -2    1.27    0.12
   4  -9   2    1.65    0.13
   4  -9   2    1.34    0.14
   4  -9   2    1.46    0.14
  -5   9  -2    0.59    0.09
  -5   9  -2    0.73    0.09
  -5   9  -2    0.74    0.07
   5  -9   2    0.54    0.09
   5  -9   2    0.65    0.09
  -6   9  -2    0.72    0.05
  -6   9  -2    0.74    0.09
  -6   9  -2    0.72    0.10
   6  -9   2    0.60    0.10
   6  -9   2    0.72    0.10
  -7   9  -2    4.21    0.20
  -7   9  -2    4.27    0.21
   7  -9   2    4.43    0.22
   7  -9   2    4.08    0.21
   7  -9   2    4.58    0.24
  -8   9  -2    0.27    0.08
  -8   9  -2    0.06    0.07
   8  -9   2    0.22    0.09
   8  -9   2    0.21    0.08
  -9   9  -2    0.34    0.09
  -9   9  -2    0.57    0.10
   9  -9   2    0.60    0.12
   9  -9   2    0.62    0.10
 -10   9  -2    1.65    0.15
  10  -9   2    1.53    0.14
  10  -9   2    1.39    0.16
 -11   9  -2    0.06    0.08
 -11   9  -2    0.06    0.09
  11  -9   2   -0.04    0.06
  11  -9   2   -0.01    0.10
   4   8  -2    0.96    0.10
  -4  -8   2    1.14    0.11
  -4  -8   2    0.93    0.12
   3   8  -2    4.84    0.22
  -3  -8   2    4.87    0.21
  -3  -8   2    4.88    0.23
   2   8  -2    0.00    0.06
  -2  -8   2   -0.05    0.07
  -2  -8   2   -0.06    0.06
  -2  -8   2   -0.03    0.05
   1   8  -2    0.00    0.04
   1   8  -2    0.03    0.06
   1   8  -2    0.04    0.06
  -1  -8   2    0.02    0.05
  -1  -8   2    0.02    0.07
  -1  -8   2    0.13    0.07
   0   8  -2   19.06    0.58
   0   8  -2   18.17    0.48
   0   8  -2   17.96    0.48
   0   8  -2   18.03    0.56
   0  -8   2   18.31    0.53
   0  -8   2   18.77    0.57
   0  -8   2   17.79    0.53
  -1   8  -2    0.62    0.05
  -1   8  -2    0.63    0.05
  -1   8  -2    0.74    0.06
  -1   8  -2    0.57    0.09
  -1   8  -2    0.78    0.10
  -1   8  -2    0.65    0.05
   1  -8   2    0.65    0.08
   1  -8   2    0.66    0.08
   1  -8   2    0.56    0.09
  -2   8  -2    7.02    0.25
  -2   8  -2    7.11    0.20
  -2   8  -2    6.83    0.27
  -2   8  -2    7.02    0.20
   2  -8   2    7.43    0.26
   2  -8   2    7.54    0.25
   2  -8   2    6.86    0.27
  -3   8  -2   19.61    0.60
  -3   8  -2   20.13    0.55
  -3   8  -2   20.02    0.52
  -3   8  -2   19.14    0.48
   3  -8   2   20.49    0.58
   3  -8   2   19.89    0.60
   3  -8   2   20.03    0.56
  -4   8  -2    3.18    0.12
  -4   8  -2    3.02    0.15
  -4   8  -2    2.88    0.16
   4  -8   2    3.01    0.16
   4  -8   2    3.17    0.17
   4  -8   2    3.17    0.15
  -5   8  -2   10.98    0.34
  -5   8  -2   11.01    0.28
  -5   8  -2   10.79    0.37
   5  -8   2   10.87    0.37
   5  -8   2   11.24    0.37
   5  -8   2   10.72    0.37
  -6   8  -2    5.58    0.22
  -6   8  -2    5.33    0.22
  -6   8  -2    5.15    0.16
   6  -8   2    5.29    0.23
   6  -8   2    5.33    0.24
   6  -8   2    5.20    0.22
  -7   8  -2    0.23    0.07
  -7   8  -2    0.20    0.06
  -7   8  -2    0.33    0.05
   7  -8   2    0.26    0.08
   7  -8   2    0.18    0.07
   7  -8   2    0.25    0.07
  -8   8  -2    0.67    0.09
  -8   8  -2    0.64    0.07
  -8   8  -2    0.49    0.09
   8  -8   2    0.64    0.09
   8  -8   2    0.88    0.12
   8  -8   2    0.40    0.09
  -9   8  -2    2.11    0.14
   9  -8   2    1.84    0.16
   9  -8   2    1.66    0.14
 -10   8  -2    0.42    0.09
  10  -8   2    0.38    0.08
  10  -8   2    0.39    0.11
 -11   8  -2   -0.01    0.09
  11  -8   2   -0.03    0.10
  11  -8   2    0.05    0.06
   5   7  -2    6.05    0.24
  -5  -7   2    6.47    0.28
  -5  -7   2    6.21    0.27
   4   7  -2    0.27    0.07
  -4  -7   2    0.26    0.08
  -4  -7   2    0.32    0.08
   3   7  -2   10.78    0.34
   3   7  -2   10.17    0.35
  -3  -7   2   10.21    0.35
  -3  -7   2   10.72    0.35
   2   7  -2    9.39    0.33
   2   7  -2    9.06    0.29
   2   7  -2    9.24    0.32
  -2  -7   2    9.68    0.31
  -2  -7   2    9.45    0.31
  -2  -7   2    9.79    0.33
   1   7  -2    0.38    0.07
   1   7  -2    0.38    0.05
   1   7  -2    0.54    0.08
  -1  -7   2    0.46    0.07
  -1  -7   2    0.39    0.07
  -1  -7   2    0.47    0.06
   0   7  -2   31.83    0.80
   0   7  -2   33.08    0.91
   0   7  -2   32.07    0.91
   0   7  -2   31.61    0.79
   0   7  -2   31.24    0.80
   0  -7   2   31.86    0.87
   0  -7   2   32.15    0.84
   0  -7   2   31.94    0.90
  -1   7  -2   25.99    0.64
  -1   7  -2   26.72    0.75
  -1   7  -2   24.53    0.74
  -1   7  -2   26.28    0.66
  -1   7  -2   26.08    0.68
  -1   7  -2   26.06    0.67
  -1   7  -2   25.74    0.64
   1  -7   2   26.25    0.71
   1  -7   2   26.26    0.69
   1  -7   2   24.85    0.74
  -2   7  -2    0.54    0.07
  -2   7  -2    0.66    0.04
  -2   7  -2    0.61    0.05
  -2   7  -2    0.71    0.06
  -2   7  -2    0.78    0.07
  -2   7  -2    0.61    0.08
   2  -7   2    0.63    0.07
   2  -7   2    0.62    0.08
   2  -7   2    0.48    0.07
   2  -7   2    0.57    0.06
  -3   7  -2   56.22    1.54
  -3   7  -2   56.97    1.42
  -3   7  -2   57.20    1.54
  -3   7  -2   57.50    1.37
   3  -7   2   55.48    1.44
   3  -7   2   56.19    1.54
   3  -7   2   56.73    1.54
   3  -7   2   58.36    1.49
  -4   7  -2   10.30    0.33
  -4   7  -2    9.78    0.32
  -4   7  -2    9.38    0.30
   4  -7   2    9.57    0.32
   4  -7   2    9.58    0.32
   4  -7   2   10.02    0.33
  -5   7  -2    8.84    0.31
  -5   7  -2    9.40    0.29
   5  -7   2    9.15    0.31
   5  -7   2    9.36    0.31
   5  -7   2    9.17    0.31
  -6   7  -2   12.85    0.38
  -6   7  -2   12.61    0.35
  -6   7  -2   12.77    0.41
   6  -7   2   12.62    0.40
   6  -7   2   13.31    0.41
   6  -7   2   13.44    0.42
  -7   7  -2    7.18    0.26
  -7   7  -2    7.13    0.22
  -7   7  -2    7.17    0.25
  -7   7  -2    6.84    0.22
   7  -7   2    7.46    0.26
   7  -7   2    7.39    0.26
   7  -7   2    7.35    0.29
  -8   7  -2    0.35    0.07
  -8   7  -2    0.36    0.06
   8  -7   2    0.31    0.07
   8  -7   2    0.24    0.09
   8  -7   2    0.30    0.07
  -9   7  -2    2.59    0.15
   9  -7   2    2.80    0.14
   9  -7   2    2.62    0.20
 -10   7  -2    1.25    0.12
  10  -7   2    1.27    0.14
  10  -7   2    1.26    0.10
 -11   7  -2    3.60    0.24
 -11   7  -2    3.47    0.19
  11  -7   2    3.37    0.24
  11  -7   2    3.28    0.14
   6   6  -2    0.21    0.05
  -6  -6   2    0.19    0.09
  -6  -6   2    0.32    0.09
   5   6  -2    4.55    0.18
  -5  -6   2    4.37    0.21
  -5  -6   2    4.38    0.21
   4   6  -2   12.31    0.39
   4   6  -2   12.63    0.39
  -4  -6   2   12.22    0.40
  -4  -6   2   13.23    0.39
   3   6  -2    5.57    0.22
   3   6  -2    5.40    0.21
   3   6  -2    5.41    0.21
  -3  -6   2    5.52    0.19
  -3  -6   2    5.40    0.21
  -3  -6   2    5.51    0.21
   2   6  -2    0.09    0.04
   2   6  -2    0.13    0.05
   2   6  -2    0.14    0.05
  -2  -6   2    0.24    0.05
  -2  -6   2    0.12    0.06
  -2  -6   2    0.15    0.05
  -2  -6   2    0.19    0.05
   1   6  -2   65.30    1.60
   1   6  -2   68.79    1.78
   1   6  -2   65.45    1.60
   1   6  -2   65.88    1.78
  -1  -6   2   65.13    1.62
  -1  -6   2   66.46    1.66
  -1  -6   2   67.33    1.78
  -1  -6   2   64.60    1.61
   0   6  -2    8.45    0.28
   0   6  -2    8.35    0.25
   0   6  -2    8.38    0.23
   0   6  -2    8.20    0.25
   0   6  -2    8.14    0.23
   0   6  -2    8.36    0.22
   0   6  -2    8.29    0.28
   0  -6   2    8.27    0.28
   0  -6   2    8.34    0.26
   0  -6   2    8.41    0.28
   0  -6   2    8.11    0.25
  -1   6  -2   12.06    0.31
  -1   6  -2   11.38    0.37
  -1   6  -2   12.24    0.38
  -1   6  -2   12.52    0.34
  -1   6  -2   11.86    0.34
  -1   6  -2   12.21    0.31
  -1   6  -2   12.02    0.33
   1  -6   2   11.42    0.37
   1  -6   2   12.07    0.36
   1  -6   2   12.41    0.34
   1  -6   2   11.83    0.34
   1  -6   2   12.36    0.38
  -2   6  -2   70.25    1.93
  -2   6  -2   71.91    1.81
  -2   6  -2   75.68    1.94
  -2   6  -2   72.29    1.73
  -2   6  -2   73.16    1.78
   2  -6   2   72.06    1.81
   2  -6   2   73.71    1.87
   2  -6   2   76.05    1.94
   2  -6   2   67.11    1.93
   2  -6   2   72.78    1.78
  -3   6  -2   15.15    0.46
  -3   6  -2   15.43    0.42
  -3   6  -2   15.75    0.39
  -3   6  -2   15.37    0.43
  -3   6  -2   15.81    0.44
  -3   6  -2   15.10    0.46
   3  -6   2   16.15    0.42
   3  -6   2   15.12    0.43
   3  -6   2   15.19    0.46
   3  -6   2   15.50    0.46
   3  -6   2   15.89    0.45
  -4   6  -2   10.18    0.32
  -4   6  -2   10.10    0.29
  -4   6  -2    9.57    0.32
  -4   6  -2   10.10    0.31
  -4   6  -2    9.93    0.29
   4  -6   2    9.99    0.32
   4  -6   2    9.84    0.31
   4  -6   2    9.64    0.32
   4  -6   2   10.07    0.30
  -5   6  -2    6.62    0.24
  -5   6  -2    6.91    0.24
  -5   6  -2    6.93    0.22
  -5   6  -2    6.72    0.23
  -5   6  -2    6.73    0.22
   5  -6   2    6.78    0.22
   5  -6   2    6.76    0.25
   5  -6   2    6.76    0.24
   5  -6   2    6.78    0.24
  -6   6  -2    0.44    0.06
  -6   6  -2    0.57    0.07
  -6   6  -2    0.51    0.05
  -6   6  -2    0.61    0.05
  -6   6  -2    0.50    0.06
   6  -6   2    0.29    0.07
   6  -6   2    0.48    0.06
   6  -6   2    0.54    0.06
  -7   6  -2    3.00    0.13
  -7   6  -2    2.98    0.13
  -7   6  -2    2.95    0.14
  -7   6  -2    3.04    0.14
   7  -6   2    3.03    0.14
   7  -6   2    3.08    0.14
   7  -6   2    3.00    0.17
  -8   6  -2    1.69    0.11
  -8   6  -2    1.55    0.10
   8  -6   2    1.52    0.10
   8  -6   2    1.70    0.15
   8  -6   2    1.59    0.10
  -9   6  -2   -0.09    0.05
   9  -6   2    0.01    0.04
   9  -6   2   -0.08    0.07
 -10   6  -2    0.13    0.07
  10  -6   2    0.14    0.05
  10  -6   2    0.21    0.09
 -11   6  -2    0.71    0.10
 -11   6  -2    0.86    0.12
  11  -6   2    0.51    0.11
  -7  -5   2    6.88    0.30
  -7  -5   2    7.30    0.28
   6   5  -2    0.41    0.05
  -6  -5   2    0.32    0.08
  -6  -5   2    0.29    0.08
   5   5  -2    5.98    0.22
   5   5  -2    6.56    0.25
  -5  -5   2    6.42    0.24
  -5  -5   2    5.99    0.25
   4   5  -2   13.35    0.41
   4   5  -2   13.74    0.41
   4   5  -2   13.71    0.42
  -4  -5   2   13.70    0.41
  -4  -5   2   14.04    0.41
  -4  -5   2   13.71    0.40
  -4  -5   2   14.01    0.38
   3   5  -2    2.15    0.11
   3   5  -2    1.96    0.12
   3   5  -2    2.26    0.11
  -3  -5   2    1.97    0.10
  -3  -5   2    1.92    0.11
  -3  -5   2    2.00    0.11
  -3  -5   2    2.02    0.12
  -3  -5   2    2.13    0.10
   2   5  -2    6.85    0.22
   2   5  -2    6.51    0.23
   2   5  -2    6.63    0.23
   2   5  -2    6.71    0.21
  -2  -5   2    6.61    0.22
  -2  -5   2    6.52    0.20
  -2  -5   2    6.26    0.22
  -2  -5   2    6.53    0.21
  -2  -5   2    6.83    0.23
   1   5  -2    5.35    0.18
   1   5  -2    4.83    0.18
   1   5  -2    5.34    0.19
   1   5  -2    5.31    0.17
   1   5  -2    5.23    0.14
  -1  -5   2    5.01    0.17
  -1  -5   2    5.34    0.19
  -1  -5   2    5.01    0.19
  -1  -5   2    5.19    0.16
  -1  -5   2    4.99    0.17
   0   5  -2    4.82    0.14
   0   5  -2    4.74    0.16
   0   5  -2    4.90    0.18
   0   5  -2    4.74    0.15
   0   5  -2    4.73    0.14
   0   5  -2    5.02    0.18
   0   5  -2    4.69    0.16
   0   5  -2    4.72    0.16
   0  -5   2    5.05    0.16
   0  -5   2    5.05    0.18
   0  -5   2    4.75    0.16
   0  -5   2    4.73    0.17
   0  -5   2    4.73    0.16
   0  -5   2    5.11    0.18
  -1   5  -2   22.32    0.63
  -1   5  -2   22.47    0.63
  -1   5  -2   22.33    0.57
  -1   5  -2   22.13    0.55
  -1   5  -2   22.01    0.58
  -1   5  -2   21.93    0.54
   1  -5   2   22.45    0.63
   1  -5   2   22.91    0.63
   1  -5   2   22.51    0.57
   1  -5   2   21.84    0.58
   1  -5   2   22.11    0.60
  -2   5  -2   86.99    2.03
  -2   5  -2   86.77    2.27
  -2   5  -2   85.86    2.09
  -2   5  -2   86.70    2.12
  -2   5  -2   85.25    2.27
  -2   5  -2   85.21    2.19
   2  -5   2   85.62    2.09
   2  -5   2   84.31    2.12
   2  -5   2   86.58    2.20
   2  -5   2   84.73    2.27
   2  -5   2   86.61    2.27
  -3   5  -2  156.54    3.97
  -3   5  -2  146.25    3.72
  -3   5  -2  148.33    3.68
  -3   5  -2  153.37    3.97
  -3   5  -2  152.05    3.84
   3  -5   2  150.77    3.85
   3  -5   2  155.04    3.97
   3  -5   2  151.12    3.66
   3  -5   2  151.92    3.97
  -4   5  -2    8.75    0.27
  -4   5  -2    9.26    0.28
  -4   5  -2    9.04    0.26
  -4   5  -2    8.94    0.26
  -4   5  -2    8.67    0.28
   4  -5   2    8.81    0.26
   4  -5   2    8.98    0.28
   4  -5   2    8.66    0.28
   4  -5   2    8.26    0.28
  -5   5  -2   24.10    0.66
  -5   5  -2   23.42    0.66
  -5   5  -2   23.50    0.62
  -5   5  -2   23.71    0.59
  -5   5  -2   23.66    0.65
  -5   5  -2   24.09    0.62
   5  -5   2   23.75    0.66
   5  -5   2   22.85    0.66
   5  -5   2   23.35    0.66
   5  -5   2   23.16    0.62
  -6   5  -2    8.29    0.26
  -6   5  -2    8.36    0.26
  -6   5  -2    8.44    0.25
  -6   5  -2    8.23    0.25
  -6   5  -2    8.55    0.26
   6  -5   2    8.36    0.26
   6  -5   2    7.98    0.26
   6  -5   2    7.94    0.28
   6  -5   2    8.35    0.26
  -7   5  -2    2.21    0.11
  -7   5  -2    2.25    0.10
  -7   5  -2    2.15    0.12
   7  -5   2    2.16    0.15
   7  -5   2    2.29    0.11
   7  -5   2    2.29    0.11
  -8   5  -2    0.46    0.07
  -8   5  -2    0.58    0.06
  -8   5  -2    0.51    0.05
   8  -5   2    0.52    0.09
   8  -5   2    0.52    0.05
   8  -5   2    0.48    0.04
  -9   5  -2   14.16    0.42
   9  -5   2   13.94    0.40
   9  -5   2   14.69    0.47
   9  -5   2   13.94    0.40
 -10   5  -2    0.13    0.06
 -10   5  -2    0.06    0.06
  10  -5   2    0.21    0.09
 -11   5  -2    0.07    0.06
 -11   5  -2    0.07    0.09
  11  -5   2    0.01    0.08
  -8  -4   2    2.54    0.18
  -8  -4   2    2.83    0.18
  -7  -4   2    8.09    0.31
  -7  -4   2    8.27    0.29
   6   4  -2    3.39    0.18
   6   4  -2    3.15    0.12
  -6  -4   2    3.17    0.16
  -6  -4   2    3.01    0.17
   5   4  -2   11.99    0.36
   5   4  -2   11.41    0.34
  -5  -4   2   11.39    0.31
  -5  -4   2   11.85    0.35
  -5  -4   2   11.76    0.36
  -5  -4   2   11.67    0.34
  -5  -4   2   11.67    0.32
   4   4  -2    3.08    0.13
   4   4  -2    3.22    0.14
   4   4  -2    3.15    0.13
   4   4  -2    3.05    0.15
  -4  -4   2    3.03    0.11
  -4  -4   2    3.32    0.13
  -4  -4   2    3.13    0.10
  -4  -4   2    3.21    0.13
  -4  -4   2    3.02    0.14
  -4  -4   2    2.96    0.14
   3   4  -2   19.91    0.53
   3   4  -2   19.12    0.55
   3   4  -2   19.04    0.52
   3   4  -2   19.45    0.55
  -3  -4   2   19.66    0.50
  -3  -4   2   19.89    0.55
  -3  -4   2   19.45    0.52
  -3  -4   2   19.74    0.55
  -3  -4   2   19.15    0.50
  -3  -4   2   19.09    0.51
  -3  -4   2   19.17    0.52
   2   4  -2    8.85    0.26
   2   4  -2    8.26    0.26
   2   4  -2    8.25    0.22
   2   4  -2    8.38    0.25
   2   4  -2    8.18    0.24
  -2  -4   2    8.36    0.23
  -2  -4   2    8.60    0.26
  -2  -4   2    8.14    0.25
  -2  -4   2    8.48    0.26
  -2  -4   2    8.22    0.24
  -2  -4   2    8.23    0.23
   1   4  -2   73.87    1.89
   1   4  -2   70.50    1.89
   1   4  -2   72.16    1.71
   1   4  -2   72.86    1.73
   1   4  -2   71.82    1.79
   1   4  -2   72.32    1.77
  -1  -4   2   72.24    1.77
  -1  -4   2   71.74    1.89
  -1  -4   2   71.20    1.73
  -1  -4   2   66.90    1.89
  -1  -4   2   70.21    1.71
  -1  -4   2   71.14    1.71
   0   4  -2    0.02    0.02
   0   4  -2    0.02    0.03
   0   4  -2    0.03    0.02
   0   4  -2    0.08    0.02
   0   4  -2   -0.03    0.03
   0   4  -2    0.06    0.03
   0  -4   2    0.00    0.02
   0  -4   2    0.06    0.03
   0  -4   2    0.02    0.03
   0  -4   2    0.07    0.03
   0  -4   2    0.02    0.03
  -1   4  -2   57.55    1.38
  -1   4  -2   58.70    1.35
  -1   4  -2   56.39    1.50
  -1   4  -2   58.15    1.40
  -1   4  -2   59.34    1.34
  -1   4  -2   51.32    1.50
   1  -4   2   52.17    1.50
   1  -4   2   49.85    1.50
   1  -4   2   59.92    1.45
   1  -4   2   57.92    1.40
   1  -4   2   59.18    1.38
  -2   4  -2    1.62    0.07
  -2   4  -2    1.49    0.07
  -2   4  -2    1.64    0.06
  -2   4  -2    1.63    0.08
  -2   4  -2    1.54    0.08
  -2   4  -2    1.76    0.08
   2  -4   2    1.63    0.08
   2  -4   2    1.73    0.08
   2  -4   2    1.62    0.07
  -3   4  -2   14.00    0.38
  -3   4  -2   14.54    0.40
  -3   4  -2   13.90    0.40
  -3   4  -2   14.29    0.35
  -3   4  -2   13.64    0.38
   3  -4   2   13.85    0.40
   3  -4   2   14.07    0.40
   3  -4   2   14.26    0.38
   3  -4   2   13.90    0.40
  -4   4  -2    1.46    0.09
  -4   4  -2    1.43    0.08
  -4   4  -2    1.43    0.08
  -4   4  -2    1.65    0.08
  -4   4  -2    1.51    0.07
   4  -4   2    1.43    0.09
   4  -4   2    1.45    0.08
   4  -4   2    1.51    0.08
   4  -4   2    1.36    0.08
  -5   4  -2    0.03    0.03
  -5   4  -2    0.13    0.04
  -5   4  -2    0.00    0.03
  -5   4  -2    0.04    0.03
  -5   4  -2    0.03    0.03
   5  -4   2    0.05    0.03
   5  -4   2    0.07    0.03
   5  -4   2    0.03    0.03
   5  -4   2    0.03    0.04
  -6   4  -2   -0.01    0.04
  -6   4  -2    0.01    0.04
  -6   4  -2    0.02    0.04
  -6   4  -2    0.04    0.03
  -6   4  -2   -0.01    0.03
  -6   4  -2    0.01    0.03
   6  -4   2   -0.01    0.03
   6  -4   2    0.01    0.05
   6  -4   2    0.04    0.03
  -7   4  -2    2.62    0.11
  -7   4  -2    2.59    0.13
  -7   4  -2    2.70    0.10
   7  -4   2    2.69    0.08
   7  -4   2    2.66    0.16
   7  -4   2    2.53    0.08
   7  -4   2    2.35    0.10
   7  -4   2    2.65    0.11
  -8   4  -2    1.96    0.08
  -8   4  -2    1.81    0.08
  -8   4  -2    1.80    0.11
   8  -4   2    1.87    0.08
   8  -4   2    1.92    0.15
   8  -4   2    1.89    0.08
  -9   4  -2    1.18    0.11
  -9   4  -2    1.28    0.10
   9  -4   2    1.31    0.13
 -10   4  -2   -0.03    0.05
 -10   4  -2    0.02    0.05
 -10   4  -2   -0.04    0.08
  10  -4   2   -0.11    0.07
 -11   4  -2   -0.08    0.08
 -11   4  -2    0.02    0.08
  -8  -3   2    2.69    0.19
  -8  -3   2    2.97    0.17
   7   3  -2    3.88    0.20
  -7  -3   2    3.81    0.19
  -7  -3   2    3.69    0.17
  -7  -3   2    4.06    0.15
   6   3  -2    9.36    0.27
   6   3  -2    8.99    0.31
   6   3  -2    9.04    0.26
  -6  -3   2    9.20    0.26
  -6  -3   2    9.51    0.29
  -6  -3   2    9.16    0.26
  -6  -3   2    9.13    0.26
  -6  -3   2    9.10    0.31
  -6  -3   2    9.21    0.25
  -6  -3   2    9.57    0.27
   5   3  -2    4.21    0.18
   5   3  -2    4.20    0.14
   5   3  -2    4.35    0.15
  -5  -3   2    4.31    0.18
  -5  -3   2    4.23    0.14
  -5  -3   2    3.82    0.16
  -5  -3   2    4.35    0.13
  -5  -3   2    4.17    0.14
  -5  -3   2    4.32    0.15
   4   3  -2    8.37    0.26
   4   3  -2    7.89    0.25
   4   3  -2    8.23    0.25
   4   3  -2    8.37    0.25
  -4  -3   2    8.13    0.25
  -4  -3   2    8.48    0.25
  -4  -3   2    8.40    0.25
  -4  -3   2    8.38    0.26
  -4  -3   2    8.20    0.25
  -4  -3   2    8.37    0.25
  -4  -3   2    8.29    0.22
  -4  -3   2    8.19    0.23
   3   3  -2    0.29    0.04
   3   3  -2    0.42    0.04
   3   3  -2    0.36    0.04
   3   3  -2    0.35    0.04
  -3  -3   2    0.35    0.04
  -3  -3   2    0.29    0.04
  -3  -3   2    0.42    0.05
  -3  -3   2    0.39    0.04
  -3  -3   2    0.41    0.04
  -3  -3   2    0.39    0.03
  -3  -3   2    0.34    0.04
   2   3  -2  163.49    3.84
   2   3  -2  165.15    4.28
   2   3  -2  165.44    3.92
   2   3  -2  163.44    4.02
   2   3  -2  144.27    4.20
  -2  -3   2  159.74    3.92
  -2  -3   2  155.79    4.26
  -2  -3   2  160.16    3.88
  -2  -3   2  162.79    4.25
  -2  -3   2  162.69    3.87
  -2  -3   2  159.84    3.87
  -2  -3   2  160.94    4.02
   1   3  -2   84.68    2.04
   1   3  -2   83.80    2.18
   1   3  -2   80.83    2.18
   1   3  -2   83.45    1.98
   1   3  -2   83.48    2.03
   1   3  -2   81.55    2.10
  -1  -3   2   82.99    2.04
  -1  -3   2   82.55    2.01
  -1  -3   2   81.48    1.98
  -1  -3   2   84.37    2.18
  -1  -3   2   81.52    2.00
  -1  -3   2   89.30    2.21
  -1  -3   2   81.55    2.11
   0   3  -2  200.57    5.13
   0   3  -2  211.63    5.61
   0   3  -2  207.24    5.25
   0   3  -2  208.91    5.31
   0   3  -2  227.37    5.65
   0  -3   2  210.21    5.04
   0  -3   2  206.66    5.13
   0  -3   2  206.78    5.25
   0  -3   2  207.19    5.03
   0  -3   2  223.89    5.64
  -1   3  -2  257.91    6.34
  -1   3  -2  238.99    6.30
  -1   3  -2  240.63    5.61
  -1   3  -2  225.03    5.80
  -1   3  -2  225.49    5.89
   1  -3   2  221.17    6.05
   1  -3   2  230.03    5.78
   1  -3   2  236.07    5.61
   1  -3   2  251.73    6.33
   1  -3   2  242.95    6.31
  -2   3  -2    3.49    0.13
  -2   3  -2    3.80    0.13
  -2   3  -2    3.69    0.10
  -2   3  -2    3.65    0.12
   2  -3   2    3.82    0.13
   2  -3   2    3.69    0.12
   2  -3   2    3.56    0.13
  -3   3  -2  133.86    3.42
  -3   3  -2  120.88    3.42
  -3   3  -2  132.16    3.09
  -3   3  -2  129.18    3.25
  -3   3  -2  126.76    3.15
   3  -3   2  132.55    3.43
   3  -3   2  125.02    3.12
   3  -3   2  128.08    3.25
   3  -3   2  126.56    3.43
  -4   3  -2   14.55    0.39
  -4   3  -2   14.62    0.41
  -4   3  -2   14.54    0.38
  -4   3  -2   14.89    0.41
  -4   3  -2   14.29    0.41
   4  -3   2   14.86    0.41
   4  -3   2   14.79    0.41
   4  -3   2   14.07    0.41
  -5   3  -2    1.18    0.08
  -5   3  -2    1.18    0.06
  -5   3  -2    1.29    0.08
  -5   3  -2    1.22    0.07
  -5   3  -2    1.31    0.08
  -5   3  -2    1.19    0.06
   5  -3   2    1.29    0.09
   5  -3   2    1.03    0.06
   5  -3   2    1.25    0.06
  -6   3  -2   18.34    0.51
  -6   3  -2   18.73    0.53
  -6   3  -2   18.40    0.50
  -6   3  -2   18.69    0.50
  -6   3  -2   18.29    0.50
  -6   3  -2   18.19    0.50
   6  -3   2   18.61    0.50
   6  -3   2   18.16    0.50
   6  -3   2   18.53    0.45
   6  -3   2   18.77    0.53
  -7   3  -2    1.42    0.06
  -7   3  -2    1.37    0.06
  -7   3  -2    1.45    0.09
  -7   3  -2    1.36    0.10
   7  -3   2    1.44    0.06
   7  -3   2    1.33    0.06
   7  -3   2    1.38    0.12
  -8   3  -2    0.61    0.07
  -8   3  -2    0.55    0.07
   8  -3   2    0.42    0.08
  -9   3  -2    1.75    0.12
  -9   3  -2    1.73    0.12
   9  -3   2    1.88    0.16
 -10   3  -2   -0.11    0.07
 -10   3  -2    0.00    0.06
 -10   3  -2    0.03    0.08
 -10   3  -2    0.09    0.06
  -9  -2   2    6.26    0.28
  -9  -2   2    6.70    0.25
  -8  -2   2    2.25    0.12
  -8  -2   2    2.16    0.15
  -8  -2   2    2.05    0.14
   7   2  -2   -0.02    0.06
  -7  -2   2   -0.02    0.05
  -7  -2   2   -0.01    0.03
  -7  -2   2    0.08    0.06
  -7  -2   2    0.04    0.05
  -7  -2   2    0.04    0.02
   6   2  -2    2.70    0.08
   6   2  -2    2.70    0.16
   6   2  -2    2.65    0.08
  -6  -2   2    2.80    0.10
  -6  -2   2    2.67    0.08
  -6  -2   2    2.68    0.08
  -6  -2   2    2.77    0.09
  -6  -2   2    2.79    0.12
  -6  -2   2    2.80    0.14
  -6  -2   2    2.22    0.12
   5   2  -2   22.93    0.61
   5   2  -2   22.76    0.61
   5   2  -2   22.79    0.61
  -5  -2   2   22.17    0.63
  -5  -2   2   22.72    0.60
  -5  -2   2   22.38    0.57
  -5  -2   2   22.57    0.56
  -5  -2   2   22.74    0.61
  -5  -2   2   22.72    0.59
  -5  -2   2   22.66    0.61
   4   2  -2   17.26    0.47
   4   2  -2   17.58    0.48
  -4  -2   2   17.55    0.46
  -4  -2   2   17.55    0.46
  -4  -2   2   17.42    0.48
  -4  -2   2   17.72    0.46
  -4  -2   2   17.45    0.46
  -4  -2   2   17.39    0.43
  -4  -2   2   17.83    0.48
   3   2  -2   89.29    2.16
   3   2  -2   86.20    2.20
   3   2  -2   87.14    2.35
   3   2  -2   85.91    2.11
   3   2  -2   91.99    2.33
  -3  -2   2   89.96    2.36
  -3  -2   2   88.44    2.10
  -3  -2   2   86.94    2.11
  -3  -2   2   86.83    2.19
  -3  -2   2   86.48    2.11
  -3  -2   2   89.90    2.31
  -3  -2   2   86.31    2.16
   2   2  -2   29.81    0.74
   2   2  -2   29.72    0.73
   2   2  -2   30.91    0.80
   2   2  -2   29.16    0.79
   2   2  -2   29.91    0.75
  -2  -2   2   29.24    0.75
  -2  -2   2   29.97    0.72
  -2  -2   2   29.00    0.74
  -2  -2   2   29.42    0.79
  -2  -2   2   30.58    0.80
   1   2  -2   37.14    0.90
   1   2  -2   38.27    0.93
   1   2  -2   36.42    0.98
   1   2  -2   32.43    0.98
   1   2  -2   37.82    0.92
  -1  -2   2   38.08    0.92
  -1  -2   2   36.10    0.98
  -1  -2   2   38.48    0.99
  -1  -2   2   38.24    0.90
  -1  -2   2   38.34    0.93
   0   2  -2   86.19    2.25
   0   2  -2   86.56    2.20
   0   2  -2   88.97    2.27
   0   2  -2   92.41    2.38
   0   2  -2   94.25    2.42
   0  -2   2   86.74    2.25
   0  -2   2   87.07    2.18
   0  -2   2   90.60    2.41
   0  -2   2   93.76    2.41
  -1   2  -2  279.53    7.78
  -1   2  -2  283.58    7.78
  -1   2  -2  300.99    7.21
  -1   2  -2  313.81    7.54
   1  -2   2  278.64    7.78
   1  -2   2  300.90    7.80
   1  -2   2  301.33    7.21
   1  -2   2  307.19    7.54
  -2   2  -2   69.12    1.67
  -2   2  -2   68.78    1.84
  -2   2  -2   69.25    1.64
  -2   2  -2   68.90    1.75
  -2   2  -2   73.31    1.87
  -2   2  -2   69.65    1.66
   2  -2   2   69.20    1.86
   2  -2   2   67.60    1.69
   2  -2   2   68.20    1.75
   2  -2   2   66.09    1.84
  -3   2  -2    0.04    0.02
  -3   2  -2    0.02    0.02
  -3   2  -2    0.06    0.02
  -3   2  -2   -0.03    0.02
  -3   2  -2    0.04    0.02
  -3   2  -2    0.00    0.02
   3  -2   2    0.02    0.02
   3  -2   2    0.03    0.02
   3  -2   2    0.02    0.03
   3  -2   2    0.05    0.02
   3  -2   2    0.05    0.02
  -4   2  -2   88.81    2.30
  -4   2  -2   90.01    2.19
  -4   2  -2   96.00    2.39
  -4   2  -2   90.34    2.35
  -4   2  -2   89.06    2.13
  -4   2  -2   90.54    2.17
   4  -2   2   88.71    2.16
   4  -2   2   88.35    2.30
   4  -2   2   89.71    2.35
  -5   2  -2    6.43    0.20
  -5   2  -2    6.10    0.21
  -5   2  -2    6.50    0.18
  -5   2  -2    6.23    0.19
  -5   2  -2    6.42    0.20
  -5   2  -2    6.12    0.20
  -5   2  -2    6.23    0.18
   5  -2   2    6.38    0.18
   5  -2   2    6.39    0.22
   5  -2   2    6.13    0.18
  -6   2  -2    6.33    0.17
  -6   2  -2    6.65    0.20
  -6   2  -2    6.54    0.21
  -6   2  -2    6.12    0.22
   6  -2   2    6.14    0.17
   6  -2   2    6.31    0.22
   6  -2   2    6.28    0.17
  -7   2  -2   19.01    0.52
  -7   2  -2   18.50    0.50
   7  -2   2   19.22    0.55
  -8   2  -2    8.03    0.26
  -8   2  -2    7.98    0.26
  -8   2  -2    7.91    0.29
  -9   2  -2    0.89    0.10
  -9   2  -2    0.80    0.09
  -9   2  -2    0.97    0.10
  -9   2  -2    0.81    0.10
 -10   2  -2    5.67    0.25
 -10   2  -2    5.40    0.23
 -10   2  -2    5.36    0.25
 -10  -1   2    3.39    0.20
  -9  -1   2    0.76    0.11
  -9  -1   2    0.74    0.09
  -9  -1   2    0.75    0.09
   8   1  -2   15.41    0.47
  -8  -1   2   14.81    0.43
  -8  -1   2   15.84    0.45
  -8  -1   2   14.76    0.45
   7   1  -2    0.41    0.08
  -7  -1   2    0.44    0.04
  -7  -1   2    0.30    0.06
  -7  -1   2    0.36    0.04
  -7  -1   2    0.41    0.07
   6   1  -2    5.32    0.21
  -6  -1   2    4.91    0.14
  -6  -1   2    4.88    0.18
  -6  -1   2    5.62    0.19
  -6  -1   2    5.06    0.15
   5   1  -2    0.92    0.04
   5   1  -2    0.97    0.05
   5   1  -2    0.82    0.07
  -5  -1   2    0.95    0.04
  -5  -1   2    0.94    0.07
  -5  -1   2    0.88    0.08
  -5  -1   2    0.95    0.07
  -5  -1   2    0.97    0.04
  -5  -1   2    0.90    0.08
  -5  -1   2    0.91    0.05
  -5  -1   2    1.01    0.05
  -5  -1   2    0.95    0.07
   4   1  -2  109.24    2.60
   4   1  -2  108.88    2.85
  -4  -1   2  108.65    2.66
  -4  -1   2  107.95    2.72
  -4  -1   2  108.79    2.63
  -4  -1   2  110.64    2.87
  -4  -1   2  108.96    2.63
  -4  -1   2  108.81    2.60
  -4  -1   2  108.26    2.78
  -4  -1   2  108.17    2.86
   3   1  -2   45.81    1.17
   3   1  -2   44.86    1.21
   3   1  -2   46.85    1.12
   3   1  -2   47.00    1.22
  -3  -1   2   45.59    1.17
  -3  -1   2   45.15    1.21
  -3  -1   2   46.31    1.14
  -3  -1   2   47.74    1.22
  -3  -1   2   46.69    1.13
  -3  -1   2   46.35    1.12
   2   1  -2   15.65    0.39
   2   1  -2   15.18    0.42
   2   1  -2   16.17    0.40
   2   1  -2   15.28    0.42
   2   1  -2   15.37    0.39
  -2  -1   2   15.85    0.42
  -2  -1   2   15.09    0.42
  -2  -1   2   15.33    0.40
  -2  -1   2   15.36    0.38
  -2  -1   2   15.44    0.39
   1   1  -2  359.98    8.91
   1   1  -2  382.93    9.36
   1   1  -2  354.10    9.34
  -1  -1   2  362.19    9.35
  -1  -1   2  324.87    9.33
  -1  -1   2  357.27    8.92
  -1  -1   2  354.52    8.63
   0   1  -2    8.21    0.22
   0   1  -2    8.38    0.24
   0   1  -2    8.59    0.24
   0   1  -2    8.31    0.23
   0  -1   2    8.39    0.23
   0  -1   2    7.91    0.22
   0  -1   2    8.25    0.24
   0  -1   2    8.14    0.24
  -1   1  -2   27.77    0.66
  -1   1  -2   26.40    0.72
  -1   1  -2   27.27    0.69
  -1   1  -2   27.83    0.72
   1  -1   2   27.02    0.66
   1  -1   2   27.48    0.72
   1  -1   2   27.24    0.72
   1  -1   2   26.68    0.66
   1  -1   2   26.79    0.69
  -2   1  -2  351.94    8.29
  -2   1  -2  345.31    8.13
  -2   1  -2  364.11    9.00
  -2   1  -2  322.42    8.99
  -2   1  -2  338.72    8.71
  -2   1  -2  358.32    8.27
   2  -1   2  345.78    8.27
   2  -1   2  338.72    8.73
   2  -1   2  339.23    8.29
   2  -1   2  343.06    9.01
   2  -1   2  331.91    8.99
  -3   1  -2   19.96    0.53
  -3   1  -2   19.82    0.49
  -3   1  -2   19.98    0.50
  -3   1  -2   19.45    0.52
  -3   1  -2   19.72    0.53
   3  -1   2   19.80    0.49
   3  -1   2   19.53    0.51
   3  -1   2   19.35    0.53
   3  -1   2   19.90    0.53
  -4   1  -2   17.62    0.47
  -4   1  -2   17.30    0.47
  -4   1  -2   17.46    0.46
  -4   1  -2   18.30    0.46
  -4   1  -2   17.32    0.48
  -4   1  -2   17.73    0.45
   4  -1   2   17.10    0.46
   4  -1   2   17.51    0.48
   4  -1   2   17.57    0.47
   4  -1   2   17.25    0.47
  -5   1  -2   15.57    0.43
  -5   1  -2   15.32    0.43
  -5   1  -2   15.52    0.41
  -5   1  -2   15.58    0.41
  -5   1  -2   15.44    0.44
  -5   1  -2   15.39    0.41
   5  -1   2   15.81    0.41
   5  -1   2   15.54    0.44
   5  -1   2   15.34    0.41
  -6   1  -2    3.47    0.14
  -6   1  -2    3.15    0.15
  -6   1  -2    3.34    0.14
  -7   1  -2    0.37    0.06
  -7   1  -2    0.38    0.06
  -7   1  -2    0.29    0.07
  -8   1  -2    5.24    0.20
  -8   1  -2    5.37    0.21
  -8   1  -2    5.36    0.23
  -9   1  -2    2.69    0.18
  -9   1  -2    2.84    0.15
  -9   1  -2    2.81    0.16
  -9   1  -2    2.62    0.17
 -10   1  -2    0.02    0.08
 -10   1  -2   -0.04    0.06
 -10   0   2    2.39    0.17
 -10   0   2    2.37    0.16
  -9   0   2    3.00    0.16
  -9   0   2    2.83    0.15
   8   0  -2    0.49    0.08
  -8   0   2    0.54    0.08
  -8   0   2    0.42    0.06
  -8   0   2    0.55    0.05
   7   0  -2   90.32    2.19
  -7   0   2   88.22    2.15
  -7   0   2   88.48    2.22
  -7   0   2   89.11    2.15
  -7   0   2   91.73    2.27
   6   0  -2   28.48    0.74
  -6   0   2   28.78    0.76
  -6   0   2   28.47    0.70
  -6   0   2   28.24    0.79
  -6   0   2   28.13    0.69
  -6   0   2   28.14    0.72
   5   0  -2   36.18    0.95
   5   0  -2   35.81    0.90
   5   0  -2   35.92    0.95
  -5   0   2   35.94    0.89
  -5   0   2   35.51    0.95
  -5   0   2   35.62    0.93
  -5   0   2   35.95    0.87
  -5   0   2   36.62    0.96
  -5   0   2   36.10    0.95
  -5   0   2   36.07    0.90
  -5   0   2   36.16    0.88
   4   0  -2  121.80    3.10
   4   0  -2  126.38    3.25
   4   0  -2  124.49    2.96
  -4   0   2  130.08    3.25
  -4   0   2  122.24    2.99
  -4   0   2  122.34    3.26
  -4   0   2  122.64    2.98
  -4   0   2  123.97    3.16
  -4   0   2  124.61    2.95
  -4   0   2  124.49    3.03
  -4   0   2  122.07    3.10
   3   0  -2   10.01    0.27
   3   0  -2    9.78    0.25
   3   0  -2    9.52    0.27
   3   0  -2    9.60    0.26
   3   0  -2    9.64    0.27
   3   0  -2    9.50    0.24
  -3   0   2    9.84    0.27
  -3   0   2    9.69    0.24
  -3   0   2    9.66    0.28
  -3   0   2    9.59    0.25
  -3   0   2    9.41    0.27
  -3   0   2    9.82    0.27
   2   0  -2   13.46    0.36
   2   0  -2   13.19    0.36
   2   0  -2   13.28    0.34
   2   0  -2   13.36    0.35
  -2   0   2   13.02    0.34
  -2   0   2   13.07    0.36
  -2   0   2   13.48    0.36
  -2   0   2   13.09    0.35
  -2   0   2   13.40    0.36
   1   0  -2   10.33    0.30
   1   0  -2   10.80    0.27
   1   0  -2   10.47    0.28
   1   0  -2   11.03    0.30
  -1   0   2   10.17    0.30
  -1   0   2   10.93    0.30
  -1   0   2   10.71    0.28
   0   0  -2  298.93    7.30
   0   0  -2  276.06    7.64
   0   0  -2  284.48    7.06
   0   0  -2  322.36    7.69
   0   0   2  279.50    7.06
   0   0   2  264.31    7.62
   0   0   2  295.78    7.31
   0   0   2  310.04    7.68
  -1   0  -2  481.75   11.88
  -1   0  -2  493.59   12.44
  -1   0  -2  484.17   11.48
  -1   0  -2  458.43   12.44
   1   0   2  480.42   11.48
   1   0   2  477.18   12.44
   1   0   2  447.51   12.43
   1   0   2  477.27   11.24
   1   0   2  482.90   11.40
  -2   0  -2  222.98    5.98
  -2   0  -2  222.06    5.78
  -2   0  -2  233.99    6.01
  -2   0  -2  229.69    5.45
  -2   0  -2  233.33    5.52
   2   0   2  226.18    5.99
   2   0   2  233.65    6.01
   2   0   2  230.24    5.79
   2   0   2  223.19    5.52
   2   0   2  229.67    5.45
   2   0   2  222.24    5.52
  -3   0  -2    6.00    0.18
  -3   0  -2    5.66    0.18
  -3   0  -2    5.83    0.18
  -3   0  -2    5.87    0.19
  -3   0  -2    6.02    0.16
  -3   0  -2    5.97    0.18
   3   0   2    5.96    0.18
   3   0   2    6.16    0.19
  -4   0  -2   27.23    0.71
  -4   0  -2   28.64    0.70
  -4   0  -2   27.64    0.68
  -4   0  -2   26.80    0.73
  -4   0  -2   28.56    0.74
  -4   0  -2   27.20    0.74
  -4   0  -2   27.19    0.73
  -4   0  -2   28.13    0.71
   4   0   2   28.32    0.74
   4   0   2   26.94    0.71
   4   0   2   27.80    0.74
  -5   0  -2   15.67    0.45
  -5   0  -2   15.53    0.45
  -5   0  -2   15.86    0.43
  -5   0  -2   15.76    0.42
  -5   0  -2   15.84    0.42
   5   0   2   16.24    0.45
   5   0   2   16.23    0.42
   5   0   2   15.56    0.42
  -6   0  -2    0.06    0.05
  -6   0  -2    0.04    0.06
  -6   0  -2    0.04    0.05
  -7   0  -2    0.85    0.09
  -7   0  -2    0.94    0.09
  -7   0  -2    0.94    0.10
  -8   0  -2    1.92    0.14
  -8   0  -2    1.74    0.12
  -8   0  -2    1.97    0.14
  -8   0  -2    2.12    0.16
  -9   0  -2   -0.02    0.08
  -9   0  -2    0.05    0.07
 -11   1   2   -0.04    0.07
 -11   1   2   -0.20    0.08
 -10   1   2    0.93    0.11
 -10   1   2    0.98    0.09
  -9   1   2    5.12    0.19
  -9   1   2    5.40    0.22
   8  -1  -2   34.29    0.89
  -8   1   2   32.93    0.83
  -8   1   2   33.10    0.87
  -8   1   2   34.18    0.91
   7  -1  -2    4.19    0.18
  -7   1   2    3.85    0.18
  -7   1   2    3.69    0.14
  -7   1   2    3.76    0.12
   6  -1  -2   10.40    0.30
   6  -1  -2   10.87    0.29
   6  -1  -2   10.82    0.32
  -6   1   2   10.55    0.30
  -6   1   2   10.67    0.27
  -6   1   2   10.33    0.34
  -6   1   2   10.80    0.29
  -6   1   2   10.73    0.32
  -6   1   2   10.72    0.30
  -6   1   2   10.66    0.28
   5  -1  -2   88.45    2.11
   5  -1  -2   88.87    2.11
   5  -1  -2   87.31    2.29
  -5   1   2   86.99    2.29
  -5   1   2   88.75    2.10
  -5   1   2   86.82    2.12
  -5   1   2   87.55    2.25
  -5   1   2   88.38    2.29
  -5   1   2   86.09    2.21
  -5   1   2   86.70    2.10
   4  -1  -2   10.50    0.28
   4  -1  -2   10.29    0.26
   4  -1  -2   10.34    0.30
   4  -1  -2   10.53    0.31
   4  -1  -2   10.56    0.30
   4  -1  -2   10.17    0.30
   4  -1  -2   10.32    0.27
  -4   1   2   10.73    0.30
  -4   1   2   10.52    0.31
  -4   1   2   10.22    0.26
  -4   1   2   10.39    0.28
  -4   1   2   10.45    0.30
  -4   1   2   10.76    0.28
  -4   1   2   10.37    0.30
   3  -1  -2   35.45    0.90
   3  -1  -2   34.97    0.86
   3  -1  -2   35.21    0.92
   3  -1  -2   34.81    0.93
   3  -1  -2   35.73    0.85
   3  -1  -2   35.36    0.85
   3  -1  -2   35.29    0.94
  -3   1   2   34.79    0.90
  -3   1   2   35.69    0.86
  -3   1   2   34.50    0.92
  -3   1   2   35.06    0.94
  -3   1   2   35.38    0.87
  -3   1   2   34.41    0.93
   2  -1  -2  174.30    4.32
   2  -1  -2  168.36    4.51
   2  -1  -2  176.60    4.31
   2  -1  -2  176.24    4.37
   2  -1  -2  173.26    4.48
   2  -1  -2  185.62    4.73
   2  -1  -2  194.98    4.72
  -2   1   2  174.10    4.30
  -2   1   2  187.14    4.71
  -2   1   2  171.39    4.50
  -2   1   2  174.09    4.37
  -2   1   2  187.09    4.72
  -2   1   2  172.84    4.54
   1  -1  -2  916.72   22.86
   1  -1  -2  975.74   24.79
   1  -1  -2  920.08   23.59
   1  -1  -2 1000.00   24.79
  -1   1   2  983.83   24.78
  -1   1   2  898.66   22.86
  -1   1   2  961.35   24.79
   0  -1  -2   66.25    1.71
   0  -1  -2   63.40    1.61
   0  -1  -2   65.25    1.62
   0  -1  -2   66.80    1.58
   0  -1  -2   64.60    1.71
   0   1   2   63.62    1.58
   0   1   2   64.67    1.66
   0   1   2   65.25    1.72
   0   1   2   66.33    1.71
   0   1   2   65.44    1.61
  -1  -1  -2  109.04    2.73
  -1  -1  -2  107.01    2.73
  -1  -1  -2  104.56    2.82
  -1  -1  -2  112.11    2.61
  -1  -1  -2  108.25    2.82
  -1  -1  -2  105.39    2.65
   1   1   2  108.30    2.82
   1   1   2  109.47    2.82
   1   1   2  107.68    2.59
   1   1   2  108.34    2.55
  -2  -1  -2    0.09    0.02
  -2  -1  -2    0.04    0.03
  -2  -1  -2    0.09    0.04
  -2  -1  -2    0.11    0.03
  -2  -1  -2    0.08    0.02
  -2  -1  -2    0.09    0.03
   2   1   2    0.13    0.03
   2   1   2    0.11    0.03
   2   1   2    0.08    0.03
   2   1   2    0.09    0.03
  -3  -1  -2    0.49    0.04
  -3  -1  -2    0.63    0.06
  -3  -1  -2    0.47    0.04
  -3  -1  -2    0.50    0.05
  -3  -1  -2    0.56    0.05
  -3  -1  -2    0.48    0.05
  -3  -1  -2    0.41    0.06
   3   1   2    0.59    0.06
   3   1   2    0.59    0.05
   3   1   2    0.55    0.06
  -4  -1  -2    0.58    0.05
  -4  -1  -2    0.61    0.07
  -4  -1  -2    0.62    0.06
  -4  -1  -2    0.68    0.05
  -4  -1  -2    0.54    0.07
  -4  -1  -2    0.66    0.05
  -4  -1  -2    0.61    0.06
   4   1   2    0.53    0.05
   4   1   2    0.63    0.07
   4   1   2    0.58    0.06
  -5  -1  -2    2.13    0.14
  -5  -1  -2    2.09    0.08
  -5  -1  -2    2.00    0.08
  -5  -1  -2    2.10    0.08
  -5  -1  -2    2.48    0.12
  -5  -1  -2    1.99    0.11
   5   1   2    1.99    0.08
   5   1   2    2.12    0.08
   5   1   2    2.08    0.12
  -6  -1  -2    8.52    0.28
  -6  -1  -2    8.77    0.28
  -6  -1  -2    8.65    0.30
  -7  -1  -2    1.67    0.12
  -7  -1  -2    1.45    0.13
  -7  -1  -2    1.39    0.12
  -8  -1  -2    2.56    0.15
  -8  -1  -2    2.83    0.19
  -8  -1  -2    2.61    0.17
 -11   2   2    0.03    0.08
 -10   2   2    0.95    0.11
 -10   2   2    0.92    0.08
  -9   2   2    3.03    0.14
  -9   2   2    2.69    0.11
  -9   2   2    3.30    0.18
   8  -2  -2    6.56    0.25
   8  -2  -2    6.55    0.19
   8  -2  -2    6.84    0.19
  -8   2   2    6.89    0.19
  -8   2   2    6.85    0.19
  -8   2   2    7.20    0.26
  -8   2   2    6.88    0.20
   7  -2  -2    2.13    0.08
   7  -2  -2    2.39    0.15
   7  -2  -2    2.31    0.09
   7  -2  -2    2.34    0.09
   7  -2  -2    2.40    0.13
  -7   2   2    2.33    0.13
  -7   2   2    2.29    0.09
  -7   2   2    2.07    0.09
  -7   2   2    2.28    0.09
   6  -2  -2    4.44    0.14
   6  -2  -2    4.41    0.18
   6  -2  -2    4.49    0.16
   6  -2  -2    4.39    0.13
   6  -2  -2    4.21    0.15
  -6   2   2    4.34    0.15
  -6   2   2    4.04    0.18
  -6   2   2    4.34    0.13
  -6   2   2    4.28    0.14
  -6   2   2    4.56    0.15
  -6   2   2    4.20    0.17
   5  -2  -2    7.33    0.22
   5  -2  -2    7.25    0.23
   5  -2  -2    7.29    0.23
   5  -2  -2    7.20    0.20
   5  -2  -2    7.51    0.21
   5  -2  -2    7.20    0.24
  -5   2   2    7.24    0.24
  -5   2   2    7.38    0.23
  -5   2   2    7.14    0.23
  -5   2   2    7.31    0.20
  -5   2   2    7.40    0.21
  -5   2   2    7.36    0.20
  -5   2   2    7.34    0.23
   4  -2  -2    7.62    0.21
   4  -2  -2    7.79    0.23
   4  -2  -2    7.73    0.21
   4  -2  -2    7.62    0.24
   4  -2  -2    7.44    0.22
   4  -2  -2    7.54    0.24
  -4   2   2    7.62    0.23
  -4   2   2    7.71    0.23
  -4   2   2    7.54    0.24
  -4   2   2    7.56    0.22
  -4   2   2    7.75    0.20
  -4   2   2    7.77    0.24
  -4   2   2    7.56    0.21
   3  -2  -2  164.95    3.88
   3  -2  -2  167.29    4.20
   3  -2  -2  160.70    4.07
   3  -2  -2  159.82    4.01
   3  -2  -2  157.85    3.98
   3  -2  -2  156.24    4.20
   3  -2  -2  164.62    3.85
   3  -2  -2  162.65    3.88
  -3   2   2  161.25    3.97
  -3   2   2  155.71    4.01
  -3   2   2  166.51    4.20
  -3   2   2  157.04    3.88
  -3   2   2  161.82    4.07
  -3   2   2  157.81    4.20
   2  -2  -2  471.44   11.05
   2  -2  -2  458.34   10.89
   2  -2  -2  448.03   11.25
   2  -2  -2  457.92   11.44
   2  -2  -2  440.35   11.83
   2  -2  -2  430.61   11.80
  -2   2   2  465.19   11.28
  -2   2   2  432.35   11.81
  -2   2   2  457.29   10.96
  -2   2   2  468.45   11.05
  -2   2   2  459.68   11.43
  -2   2   2  413.64   11.80
   1  -2  -2    0.81    0.06
   1  -2  -2    0.72    0.05
   1  -2  -2    0.77    0.04
   1  -2  -2    0.81    0.04
   1  -2  -2    0.84    0.06
   1  -2  -2    1.00    0.07
  -1   2   2    0.73    0.04
  -1   2   2    0.78    0.04
  -1   2   2    0.80    0.05
  -1   2   2    1.00    0.06
  -1   2   2    1.03    0.06
   0  -2  -2    0.06    0.03
   0  -2  -2    0.04    0.01
   0  -2  -2    0.02    0.03
   0  -2  -2    0.01    0.02
   0  -2  -2   -0.04    0.03
   0  -2  -2    0.08    0.03
   0   2   2    0.09    0.03
   0   2   2    0.07    0.03
   0   2   2    0.04    0.02
  -1  -2  -2   43.69    1.17
  -1  -2  -2   44.08    1.17
  -1  -2  -2   42.44    1.10
  -1  -2  -2   43.54    1.09
  -1  -2  -2   43.29    1.11
  -1  -2  -2   44.17    1.08
   1   2   2   43.83    1.07
   1   2   2   43.60    1.17
   1   2   2   43.87    1.06
   1   2   2   44.81    1.17
  -2  -2  -2   19.98    0.53
  -2  -2  -2   20.17    0.52
  -2  -2  -2   19.55    0.54
  -2  -2  -2   19.93    0.52
  -2  -2  -2   20.13    0.56
  -2  -2  -2   20.29    0.52
  -2  -2  -2   20.08    0.56
   2   2   2   20.29    0.53
   2   2   2   20.47    0.56
   2   2   2   20.26    0.56
   2   2   2   20.50    0.52
  -3  -2  -2    0.91    0.06
  -3  -2  -2    0.64    0.07
  -3  -2  -2    0.88    0.07
  -3  -2  -2    1.03    0.07
  -3  -2  -2    0.93    0.08
  -3  -2  -2    1.00    0.05
  -3  -2  -2    0.82    0.06
  -3  -2  -2    0.74    0.07
   3   2   2    1.08    0.08
   3   2   2    0.86    0.07
   3   2   2    0.85    0.07
   3   2   2    0.73    0.07
  -4  -2  -2   12.00    0.37
  -4  -2  -2   11.54    0.34
  -4  -2  -2   11.68    0.35
  -4  -2  -2   11.88    0.35
  -4  -2  -2   11.93    0.32
  -4  -2  -2   11.59    0.34
  -4  -2  -2   12.10    0.32
   4   2   2   12.01    0.36
   4   2   2   11.54    0.34
  -5  -2  -2    3.49    0.15
  -5  -2  -2    3.82    0.13
  -5  -2  -2    3.78    0.13
  -5  -2  -2    3.87    0.18
  -5  -2  -2    3.61    0.17
  -5  -2  -2    3.60    0.13
  -5  -2  -2    3.67    0.13
   5   2   2    3.85    0.13
   5   2   2    3.75    0.13
   5   2   2    3.73    0.17
  -6  -2  -2    5.60    0.23
  -6  -2  -2    5.68    0.23
  -6  -2  -2    5.89    0.19
   6   2   2    5.49    0.17
   6   2   2    5.52    0.17
  -7  -2  -2    0.01    0.08
  -7  -2  -2    0.02    0.07
  -8  -2  -2    0.44    0.10
  -8  -2  -2    0.44    0.09
 -11   3   2    0.64    0.11
 -10   3   2    1.35    0.13
 -10   3   2    1.85    0.12
   9  -3  -2   19.78    0.53
   9  -3  -2   19.84    0.53
  -9   3   2   19.23    0.53
  -9   3   2   20.61    0.59
  -9   3   2   19.58    0.51
   8  -3  -2    0.61    0.08
   8  -3  -2    0.71    0.07
   8  -3  -2    0.67    0.06
   8  -3  -2    0.76    0.07
   8  -3  -2    0.72    0.09
  -8   3   2    0.74    0.06
  -8   3   2    0.77    0.09
  -8   3   2    0.73    0.07
  -8   3   2    0.77    0.07
   7  -3  -2    2.59    0.10
   7  -3  -2    2.83    0.16
   7  -3  -2    2.69    0.11
   7  -3  -2    2.57    0.11
   7  -3  -2    2.63    0.13
   7  -3  -2    2.62    0.10
  -7   3   2    2.65    0.10
  -7   3   2    2.68    0.11
  -7   3   2    2.76    0.14
  -7   3   2    2.69    0.10
  -7   3   2    2.58    0.11
  -7   3   2    2.70    0.11
   6  -3  -2   11.96    0.37
   6  -3  -2   12.48    0.34
   6  -3  -2   13.21    0.35
   6  -3  -2   12.81    0.38
   6  -3  -2   13.06    0.39
   6  -3  -2   13.00    0.35
  -6   3   2   12.76    0.34
  -6   3   2   13.20    0.34
  -6   3   2   12.73    0.34
  -6   3   2   12.75    0.38
  -6   3   2   12.96    0.38
  -6   3   2   12.71    0.39
  -6   3   2   12.38    0.37
   5  -3  -2    0.00    0.03
   5  -3  -2    0.17    0.05
   5  -3  -2    0.06    0.03
   5  -3  -2    0.16    0.04
   5  -3  -2   -0.03    0.04
   5  -3  -2    0.00    0.04
  -5   3   2    0.05    0.04
  -5   3   2   -0.01    0.04
  -5   3   2    0.06    0.03
  -5   3   2    0.00    0.04
  -5   3   2    0.05    0.04
  -5   3   2    0.05    0.02
   4  -3  -2    0.24    0.04
   4  -3  -2    0.18    0.04
   4  -3  -2    0.13    0.03
   4  -3  -2    0.15    0.04
   4  -3  -2    0.25    0.05
   4  -3  -2    0.32    0.04
   4  -3  -2    0.11    0.03
  -4   3   2    0.19    0.04
  -4   3   2    0.16    0.04
  -4   3   2    0.23    0.03
  -4   3   2    0.22    0.05
  -4   3   2    0.21    0.04
  -4   3   2    0.17    0.04
   3  -3  -2  259.63    6.76
   3  -3  -2  272.35    6.43
   3  -3  -2  272.61    6.49
   3  -3  -2  263.22    6.58
   3  -3  -2  265.27    6.68
   3  -3  -2  280.92    7.15
   3  -3  -2  264.50    6.83
   3  -3  -2  283.32    7.11
  -3   3   2  257.74    6.77
  -3   3   2  258.91    6.85
  -3   3   2  286.14    7.11
  -3   3   2  268.53    6.66
  -3   3   2  282.86    7.07
   2  -3  -2    4.62    0.15
   2  -3  -2    4.78    0.15
   2  -3  -2    4.16    0.17
   2  -3  -2    4.60    0.15
   2  -3  -2    4.63    0.14
   2  -3  -2    4.62    0.17
   2  -3  -2    4.75    0.16
  -2   3   2    4.84    0.15
  -2   3   2    4.88    0.17
  -2   3   2    4.57    0.15
  -2   3   2    4.37    0.17
  -2   3   2    4.90    0.15
   1  -3  -2    0.32    0.03
   1  -3  -2    0.40    0.05
   1  -3  -2    0.39    0.05
   1  -3  -2    0.31    0.04
   1  -3  -2    0.48    0.04
   1  -3  -2    0.42    0.05
  -1   3   2    0.46    0.05
  -1   3   2    0.38    0.04
  -1   3   2    0.36    0.03
  -1   3   2    0.35    0.04
  -1   3   2    0.30    0.05
   0  -3  -2   27.02    0.74
   0  -3  -2   27.26    0.74
   0  -3  -2   26.84    0.68
   0  -3  -2   26.23    0.68
   0  -3  -2   25.94    0.67
   0  -3  -2   26.08    0.65
   0  -3  -2   25.74    0.69
   0   3   2   27.15    0.74
   0   3   2   26.37    0.67
   0   3   2   27.49    0.74
   0   3   2   26.30    0.67
   0   3   2   27.00    0.69
  -1  -3  -2   27.35    0.76
  -1  -3  -2   27.06    0.71
  -1  -3  -2   27.75    0.70
  -1  -3  -2   26.82    0.69
  -1  -3  -2   27.38    0.68
  -1  -3  -2   27.21    0.70
  -1  -3  -2   26.83    0.75
   1   3   2   27.09    0.76
   1   3   2   27.26    0.69
   1   3   2   27.92    0.69
   1   3   2   26.78    0.75
   1   3   2   27.46    0.72
  -2  -3  -2    3.93    0.17
  -2  -3  -2    4.26    0.12
  -2  -3  -2    4.14    0.16
  -2  -3  -2    4.44    0.16
  -2  -3  -2    4.45    0.16
  -2  -3  -2    4.58    0.17
   2   3   2    4.61    0.17
   2   3   2    4.34    0.16
   2   3   2    4.33    0.16
   2   3   2    4.33    0.17
  -3  -3  -2    0.23    0.05
  -3  -3  -2    0.24    0.06
  -3  -3  -2    0.18    0.05
  -3  -3  -2    0.21    0.03
  -3  -3  -2    0.20    0.04
  -3  -3  -2    0.32    0.07
   3   3   2    0.21    0.06
   3   3   2    0.26    0.06
   3   3   2    0.37    0.07
  -4  -3  -2   18.27    0.53
  -4  -3  -2   18.03    0.52
  -4  -3  -2   18.87    0.49
  -4  -3  -2   19.16    0.50
  -4  -3  -2   18.54    0.48
  -4  -3  -2   19.04    0.54
   4   3   2   18.90    0.54
   4   3   2   19.12    0.54
   4   3   2   19.11    0.53
  -5  -3  -2    4.35    0.20
   5   3   2    4.30    0.16
   5   3   2    4.44    0.20
  -6  -3  -2    0.69    0.10
   6   3   2    0.59    0.06
  -7  -3  -2    1.95    0.17
 -12   4   2    0.10    0.10
 -11   4   2    0.57    0.11
  10  -4  -2    6.62    0.29
  10  -4  -2    5.51    0.19
 -10   4   2    5.81    0.20
 -10   4   2    5.99    0.27
   9  -4  -2   -0.03    0.04
   9  -4  -2   -0.10    0.07
   9  -4  -2    0.01    0.03
   9  -4  -2    0.00    0.04
  -9   4   2    0.02    0.04
  -9   4   2   -0.02    0.04
  -9   4   2   -0.05    0.04
  -9   4   2    0.03    0.08
   8  -4  -2    7.49    0.25
   8  -4  -2    7.70    0.25
   8  -4  -2    7.26    0.25
   8  -4  -2    7.69    0.29
   8  -4  -2    7.43    0.23
   8  -4  -2    7.78    0.23
  -8   4   2    7.63    0.25
  -8   4   2    7.76    0.28
  -8   4   2    7.57    0.23
  -8   4   2    7.50    0.23
   7  -4  -2    4.55    0.16
   7  -4  -2    4.71    0.18
   7  -4  -2    4.48    0.16
   7  -4  -2    5.05    0.18
   7  -4  -2    4.58    0.20
   7  -4  -2    4.46    0.16
  -7   4   2    4.47    0.18
  -7   4   2    4.47    0.15
  -7   4   2    5.10    0.18
  -7   4   2    4.47    0.16
  -7   4   2    4.70    0.16
  -7   4   2    4.47    0.19
   6  -4  -2   10.82    0.30
   6  -4  -2   10.19    0.34
   6  -4  -2   10.38    0.33
   6  -4  -2   10.36    0.33
   6  -4  -2   10.45    0.29
   6  -4  -2   10.66    0.29
  -6   4   2   10.56    0.29
  -6   4   2   10.23    0.33
  -6   4   2   10.25    0.29
  -6   4   2   10.18    0.32
  -6   4   2   10.35    0.33
   5  -4  -2    1.76    0.09
   5  -4  -2    1.66    0.08
   5  -4  -2    1.98    0.12
   5  -4  -2    1.94    0.11
   5  -4  -2    1.92    0.10
   5  -4  -2    1.68    0.11
  -5   4   2    1.85    0.11
  -5   4   2    1.65    0.09
  -5   4   2    1.95    0.11
  -5   4   2    1.62    0.08
  -5   4   2    1.99    0.11
  -5   4   2    1.70    0.11
   4  -4  -2  201.41    5.18
   4  -4  -2  197.66    4.70
   4  -4  -2  196.39    5.18
   4  -4  -2  198.47    5.02
   4  -4  -2  197.90    4.77
   4  -4  -2  197.45    4.78
   4  -4  -2  196.09    4.96
  -4   4   2  196.39    5.18
  -4   4   2  197.97    4.94
  -4   4   2  200.34    4.85
  -4   4   2  201.34    5.18
  -4   4   2  196.75    5.01
   3  -4  -2   29.61    0.74
   3  -4  -2   28.47    0.81
   3  -4  -2   28.94    0.78
   3  -4  -2   29.67    0.69
   3  -4  -2   29.96    0.75
   3  -4  -2   29.27    0.74
   3  -4  -2   29.08    0.81
  -3   4   2   28.91    0.81
  -3   4   2   28.50    0.81
  -3   4   2   28.96    0.76
  -3   4   2   28.57    0.77
  -3   4   2   30.05    0.75
   2  -4  -2    0.26    0.04
   2  -4  -2    0.18    0.04
   2  -4  -2    0.22    0.04
   2  -4  -2    0.30    0.05
   2  -4  -2    0.04    0.05
   2  -4  -2    0.14    0.05
   2  -4  -2    0.32    0.04
  -2   4   2    0.32    0.04
  -2   4   2    0.30    0.04
  -2   4   2    0.09    0.05
  -2   4   2    0.22    0.03
  -2   4   2    0.11    0.05
   1  -4  -2   91.66    2.16
   1  -4  -2   85.89    2.34
   1  -4  -2   78.44    2.33
   1  -4  -2   90.63    2.15
   1  -4  -2   88.55    2.18
   1  -4  -2   88.59    2.24
   1  -4  -2   88.06    2.20
   1  -4  -2   89.96    2.09
  -1   4   2   81.87    2.33
  -1   4   2   92.20    2.20
  -1   4   2   91.50    2.19
  -1   4   2   89.92    2.34
   0  -4  -2    0.14    0.06
   0  -4  -2    0.24    0.03
   0  -4  -2    0.04    0.05
   0  -4  -2    0.18    0.05
   0  -4  -2    0.21    0.03
   0  -4  -2    0.19    0.03
   0  -4  -2    0.14    0.04
   0   4   2    0.00    0.05
   0   4   2    0.22    0.02
   0   4   2    0.06    0.06
   0   4   2    0.18    0.05
   0   4   2    0.20    0.04
  -1  -4  -2   -0.13    0.05
  -1  -4  -2    0.02    0.03
  -1  -4  -2    0.13    0.05
  -1  -4  -2    0.00    0.05
  -1  -4  -2    0.05    0.05
  -1  -4  -2    0.06    0.04
   1   4   2   -0.02    0.05
   1   4   2    0.05    0.04
   1   4   2   -0.05    0.05
  -2  -4  -2   27.72    0.76
  -2  -4  -2   27.90    0.79
  -2  -4  -2   27.49    0.73
  -2  -4  -2   28.56    0.74
  -2  -4  -2   28.31    0.72
   2   4   2   28.64    0.80
   2   4   2   28.72    0.74
   2   4   2   28.09    0.79
  -3  -4  -2   26.40    0.72
  -3  -4  -2   26.27    0.74
  -3  -4  -2   25.11    0.69
  -3  -4  -2   26.19    0.69
   3   4   2   25.74    0.70
   3   4   2   26.76    0.74
   3   4   2   25.80    0.74
  -4  -4  -2    1.23    0.12
   4   4   2    1.25    0.11
   4   4   2    1.67    0.11
  -5  -4  -2    0.56    0.10
   5   4   2    0.68    0.07
   5   4   2    0.67    0.10
  -6  -4  -2    0.23    0.10
 -12   5   2    0.07    0.10
  11  -5  -2    0.06    0.09
  11  -5  -2    0.02    0.04
 -11   5   2   -0.07    0.09
  10  -5  -2    0.51    0.11
  10  -5  -2    0.53    0.06
 -10   5   2    0.56    0.11
 -10   5   2    0.47    0.07
   9  -5  -2    6.12    0.23
   9  -5  -2    6.65    0.29
   9  -5  -2    6.37    0.21
   9  -5  -2    5.95    0.21
   9  -5  -2    6.15    0.23
  -9   5   2    6.37    0.21
  -9   5   2    6.84    0.27
  -9   5   2    6.27    0.23
  -9   5   2    6.35    0.21
   8  -5  -2    6.88    0.28
   8  -5  -2    6.40    0.22
   8  -5  -2    6.67    0.24
   8  -5  -2    6.81    0.22
   8  -5  -2    6.72    0.24
  -8   5   2    6.56    0.21
  -8   5   2    6.44    0.25
  -8   5   2    6.25    0.23
  -8   5   2    6.69    0.22
   7  -5  -2   31.00    0.80
   7  -5  -2   31.40    0.88
   7  -5  -2   30.78    0.87
   7  -5  -2   31.79    0.81
   7  -5  -2   31.49    0.88
  -7   5   2   31.53    0.80
  -7   5   2   31.66    0.85
  -7   5   2   30.01    0.87
  -7   5   2   31.74    0.80
   6  -5  -2    7.56    0.27
   6  -5  -2    7.60    0.24
   6  -5  -2    7.57    0.27
   6  -5  -2    7.46    0.27
   6  -5  -2    7.77    0.22
   6  -5  -2    8.02    0.25
  -6   5   2    7.65    0.24
  -6   5   2    7.60    0.23
  -6   5   2    7.68    0.27
  -6   5   2    7.81    0.26
   5  -5  -2    6.58    0.22
   5  -5  -2    6.09    0.20
   5  -5  -2    6.62    0.24
   5  -5  -2    6.64    0.24
   5  -5  -2    6.15    0.18
   5  -5  -2    6.38    0.21
   5  -5  -2    6.65    0.24
  -5   5   2    6.62    0.21
  -5   5   2    6.79    0.23
  -5   5   2    6.31    0.23
  -5   5   2    6.47    0.24
  -5   5   2    6.26    0.20
  -5   5   2    7.04    0.24
   4  -5  -2   18.69    0.55
   4  -5  -2   18.76    0.51
   4  -5  -2   19.80    0.57
   4  -5  -2   19.14    0.51
   4  -5  -2   18.96    0.53
   4  -5  -2   20.07    0.57
  -4   5   2   19.14    0.54
  -4   5   2   19.68    0.57
  -4   5   2   19.42    0.51
  -4   5   2   18.78    0.53
  -4   5   2   19.99    0.57
   3  -5  -2   -0.06    0.05
   3  -5  -2    0.06    0.04
   3  -5  -2   -0.06    0.04
   3  -5  -2    0.04    0.04
   3  -5  -2    0.03    0.05
   3  -5  -2    0.06    0.05
  -3   5   2    0.01    0.04
  -3   5   2    0.07    0.04
  -3   5   2    0.03    0.06
  -3   5   2    0.06    0.04
  -3   5   2    0.05    0.05
   2  -5  -2    6.45    0.25
   2  -5  -2    6.41    0.24
   2  -5  -2    6.77    0.17
   2  -5  -2    6.61    0.21
   2  -5  -2    6.82    0.23
   2  -5  -2    6.52    0.21
  -2   5   2    6.78    0.20
  -2   5   2    6.67    0.20
  -2   5   2    6.42    0.25
  -2   5   2    6.80    0.25
  -2   5   2    6.73    0.22
   1  -5  -2    0.80    0.07
   1  -5  -2    0.76    0.05
   1  -5  -2    0.67    0.08
   1  -5  -2    0.56    0.08
   1  -5  -2    0.62    0.07
   1  -5  -2    0.62    0.08
  -1   5   2    0.66    0.08
  -1   5   2    0.54    0.08
  -1   5   2    0.79    0.05
   0  -5  -2   18.71    0.48
   0  -5  -2   19.15    0.51
   0  -5  -2   18.51    0.56
   0  -5  -2   18.83    0.52
   0   5   2   19.05    0.51
   0   5   2   19.21    0.57
   0   5   2   18.62    0.56
  -1  -5  -2   32.83    0.86
  -1  -5  -2   32.18    0.91
  -1  -5  -2   31.92    0.81
  -1  -5  -2   32.31    0.85
   1   5   2   33.02    0.92
   1   5   2   33.15    0.92
   1   5   2   31.76    0.84
  -2  -5  -2   41.85    1.15
  -2  -5  -2   41.79    1.10
  -2  -5  -2   41.51    1.08
   2   5   2   42.29    1.16
   2   5   2   41.08    1.07
   2   5   2   41.89    1.16
  -3  -5  -2    0.22    0.08
  -3  -5  -2    0.09    0.04
  -3  -5  -2    0.22    0.06
   3   5   2    0.16    0.06
   3   5   2   -0.10    0.07
  -4  -5  -2   -0.02    0.08
   4   5   2   -0.05    0.05
   4   5   2    0.11    0.07
  -5  -5  -2    4.35    0.23
   5   5   2    3.78    0.17
  12  -6  -2    0.38    0.11
 -12   6   2    0.26    0.11
  11  -6  -2    0.13    0.10
  11  -6  -2    0.16    0.05
 -11   6   2   -0.01    0.09
 -11   6   2    0.13    0.06
  10  -6  -2    1.34    0.14
  10  -6  -2    1.34    0.11
 -10   6   2    1.63    0.12
 -10   6   2    1.43    0.14
   9  -6  -2    5.76    0.26
   9  -6  -2    5.58    0.22
  -9   6   2    5.55    0.20
  -9   6   2    5.58    0.22
  -9   6   2    5.51    0.19
  -9   6   2    5.62    0.24
   8  -6  -2    1.76    0.16
   8  -6  -2    1.50    0.13
   8  -6  -2    1.69    0.14
  -8   6   2    1.63    0.13
  -8   6   2    1.69    0.12
  -8   6   2    1.53    0.10
  -8   6   2    1.81    0.15
   7  -6  -2    3.58    0.19
   7  -6  -2    3.42    0.18
   7  -6  -2    3.20    0.18
  -7   6   2    2.65    0.14
  -7   6   2    3.31    0.18
  -7   6   2    3.03    0.17
  -7   6   2    3.16    0.16
   6  -6  -2    7.39    0.28
   6  -6  -2    6.95    0.24
   6  -6  -2    7.59    0.28
   6  -6  -2    7.99    0.28
  -6   6   2    7.08    0.26
  -6   6   2    7.36    0.25
  -6   6   2    7.47    0.28
  -6   6   2    7.30    0.24
   5  -6  -2    3.41    0.14
   5  -6  -2    3.34    0.17
   5  -6  -2    3.30    0.17
   5  -6  -2    3.44    0.18
  -5   6   2    3.17    0.15
  -5   6   2    3.30    0.15
  -5   6   2    3.67    0.14
  -5   6   2    3.84    0.18
   4  -6  -2    0.32    0.08
   4  -6  -2    0.38    0.05
   4  -6  -2    0.27    0.06
   4  -6  -2    0.31    0.07
  -4   6   2    0.40    0.06
  -4   6   2    0.27    0.08
  -4   6   2    0.19    0.05
  -4   6   2    0.33    0.05
   3  -6  -2    6.79    0.26
   3  -6  -2    7.29    0.23
   3  -6  -2    6.97    0.24
  -3   6   2    7.07    0.27
  -3   6   2    7.16    0.22
  -3   6   2    6.95    0.22
  -3   6   2    6.98    0.26
   2  -6  -2   16.13    0.50
   2  -6  -2   16.31    0.46
   2  -6  -2   16.15    0.39
   2  -6  -2   15.94    0.46
  -2   6   2   15.77    0.50
  -2   6   2   16.13    0.51
  -2   6   2   16.25    0.43
   1  -6  -2   19.39    0.48
   1  -6  -2   20.18    0.55
   1  -6  -2   19.36    0.53
   1  -6  -2   19.69    0.59
  -1   6   2   18.72    0.50
  -1   6   2   18.93    0.59
  -1   6   2   19.32    0.59
   0  -6  -2    0.46    0.05
   0  -6  -2    0.26    0.08
   0  -6  -2    0.40    0.05
   0  -6  -2    0.43    0.08
   0   6   2    0.56    0.09
   0   6   2    0.61    0.09
   0   6   2    0.35    0.07
  -1  -6  -2    3.52    0.19
  -1  -6  -2    3.62    0.15
  -1  -6  -2    3.63    0.20
  -1  -6  -2    3.55    0.15
   1   6   2    3.75    0.18
   1   6   2    3.75    0.20
   1   6   2    3.90    0.20
  -2  -6  -2    1.52    0.15
  -2  -6  -2    1.46    0.13
  -2  -6  -2    1.45    0.09
   2   6   2    1.38    0.13
   2   6   2    1.18    0.11
  -3  -6  -2    0.09    0.08
   3   6   2    0.09    0.07
   3   6   2    0.18    0.07
  -4  -6  -2    1.53    0.14
   4   6   2    1.83    0.16
   4   6   2    1.62    0.13
  12  -7  -2    0.37    0.12
  12  -7  -2    0.17    0.06
 -12   7   2   -0.02    0.11
  11  -7  -2    0.00    0.05
  11  -7  -2   -0.03    0.09
 -11   7   2   -0.01    0.09
 -11   7   2   -0.03    0.06
  10  -7  -2   -0.02    0.06
  10  -7  -2   -0.02    0.09
 -10   7   2   -0.04    0.06
 -10   7   2   -0.05    0.08
   9  -7  -2    0.08    0.07
   9  -7  -2    0.17    0.09
  -9   7   2    0.13    0.07
  -9   7   2    0.06    0.06
  -9   7   2    0.11    0.08
   8  -7  -2    2.02    0.15
   8  -7  -2    2.06    0.18
   8  -7  -2    1.92    0.15
  -8   7   2    2.08    0.13
  -8   7   2    1.90    0.14
  -8   7   2    1.96    0.15
   7  -7  -2    0.02    0.07
   7  -7  -2   -0.12    0.07
   7  -7  -2   -0.02    0.08
  -7   7   2   -0.03    0.07
  -7   7   2    0.14    0.07
  -7   7   2    0.03    0.06
   6  -7  -2    1.42    0.13
   6  -7  -2    1.64    0.11
   6  -7  -2    1.82    0.15
   6  -7  -2    1.66    0.15
  -6   7   2    1.43    0.12
  -6   7   2    1.82    0.15
   5  -7  -2    1.69    0.11
   5  -7  -2    1.45    0.12
   5  -7  -2    1.79    0.14
  -5   7   2    1.51    0.12
  -5   7   2    1.80    0.14
   4  -7  -2    7.69    0.27
   4  -7  -2    7.90    0.30
   4  -7  -2    7.86    0.26
  -4   7   2    7.93    0.25
  -4   7   2    7.42    0.25
  -4   7   2    8.38    0.30
   3  -7  -2    3.45    0.16
   3  -7  -2    3.43    0.18
   3  -7  -2    3.68    0.17
  -3   7   2    3.60    0.14
  -3   7   2    3.60    0.18
   2  -7  -2    2.04    0.13
   2  -7  -2    1.91    0.12
   2  -7  -2    1.83    0.16
  -2   7   2    1.97    0.09
  -2   7   2    1.88    0.16
   1  -7  -2    0.05    0.07
   1  -7  -2    0.15    0.08
   1  -7  -2    0.09    0.03
   1  -7  -2    0.05    0.05
  -1   7   2    0.17    0.02
  -1   7   2    0.22    0.06
  -1   7   2    0.12    0.08
   0  -7  -2    1.84    0.11
   0  -7  -2    1.52    0.13
   0  -7  -2    1.71    0.15
   0   7   2    1.80    0.16
   0   7   2    1.73    0.13
   0   7   2    1.54    0.16
  -1  -7  -2    1.06    0.12
  -1  -7  -2    1.20    0.12
   1   7   2    1.05    0.11
   1   7   2    1.05    0.12
  -2  -7  -2   -0.21    0.08
   2   7   2    0.04    0.08
   2   7   2    0.01    0.07
  -3  -7  -2    0.46    0.11
   3   7   2    0.53    0.10
   3   7   2    0.48    0.09
  11  -8  -2    0.22    0.11
  11  -8  -2    0.28    0.08
 -11   8   2    0.41    0.08
 -11   8   2    0.38    0.11
  10  -8  -2    0.23    0.08
  10  -8  -2    0.46    0.11
 -10   8   2    0.49    0.11
 -10   8   2    0.37    0.08
   9  -8  -2    3.45    0.22
   9  -8  -2    3.60    0.20
  -9   8   2    3.72    0.20
  -9   8   2    3.31    0.20
  -9   8   2    3.65    0.18
   8  -8  -2    0.09    0.08
   8  -8  -2    0.19    0.09
  -8   8   2    0.24    0.07
  -8   8   2    0.17    0.08
  -8   8   2    0.14    0.08
   7  -8  -2    0.86    0.11
   7  -8  -2    0.73    0.11
  -7   8   2    0.93    0.11
  -7   8   2    0.94    0.12
   6  -8  -2    3.67    0.17
   6  -8  -2    3.63    0.20
   6  -8  -2    3.63    0.20
  -6   8   2    3.98    0.21
  -6   8   2    3.60    0.18
   5  -8  -2    1.96    0.15
   5  -8  -2    2.17    0.16
   5  -8  -2    2.26    0.13
  -5   8   2    2.18    0.17
  -5   8   2    2.02    0.13
   4  -8  -2    0.78    0.11
   4  -8  -2    0.90    0.09
   4  -8  -2    0.87    0.09
  -4   8   2    0.78    0.07
  -4   8   2    0.87    0.12
   3  -8  -2    9.04    0.31
   3  -8  -2    9.73    0.36
   3  -8  -2    8.99    0.31
  -3   8   2    8.89    0.27
  -3   8   2    9.42    0.36
   2  -8  -2    3.76    0.17
   2  -8  -2    4.15    0.22
   2  -8  -2    3.77    0.19
  -2   8   2    3.48    0.12
  -2   8   2    3.79    0.21
   1  -8  -2    0.93    0.08
   1  -8  -2    0.84    0.12
   1  -8  -2    0.57    0.11
  -1   8   2    0.90    0.09
  -1   8   2    0.98    0.12
   0  -8  -2    1.24    0.13
   0  -8  -2    1.43    0.13
   0   8   2    1.60    0.13
   0   8   2    1.33    0.14
  -1  -8  -2    0.77    0.12
   1   8   2    0.69    0.10
   1   8   2    0.89    0.12
  -2  -8  -2    0.15    0.10
   2   8   2    0.02    0.08
   2   8   2    0.11    0.08
  11  -9  -2   -0.07    0.09
  11  -9  -2   -0.08    0.07
 -11   9   2   -0.01    0.09
 -11   9   2    0.00    0.07
  10  -9  -2    0.24    0.09
  10  -9  -2    0.24    0.11
 -10   9   2    0.22    0.08
 -10   9   2    0.30    0.11
   9  -9  -2    0.19    0.10
   9  -9  -2    0.40    0.10
  -9   9   2    0.41    0.10
  -9   9   2    0.32    0.10
   8  -9  -2    0.31    0.10
   8  -9  -2    0.22    0.09
  -8   9   2    0.15    0.10
  -8   9   2    0.13    0.09
   7  -9  -2   -0.08    0.08
   7  -9  -2    0.02    0.05
   7  -9  -2   -0.07    0.07
  -7   9   2    0.03    0.09
  -7   9   2   -0.06    0.07
   6  -9  -2   -0.10    0.05
   6  -9  -2   -0.10    0.07
   6  -9  -2   -0.08    0.08
  -6   9   2   -0.09    0.08
  -6   9   2   -0.01    0.06
   5  -9  -2   -0.03    0.07
   5  -9  -2   -0.11    0.08
   5  -9  -2   -0.01    0.06
  -5   9   2   -0.11    0.08
  -5   9   2   -0.01    0.05
   4  -9  -2    5.71    0.24
   4  -9  -2    6.01    0.25
   4  -9  -2    5.85    0.28
  -4   9   2    5.68    0.20
  -4   9   2    5.88    0.28
   3  -9  -2    0.12    0.08
   3  -9  -2    0.13    0.10
   3  -9  -2    0.16    0.07
  -3   9   2    0.17    0.10
   2  -9  -2    0.91    0.13
   2  -9  -2    0.85    0.09
   2  -9  -2    0.78    0.11
  -2   9   2    0.74    0.13
  -2   9   2    0.87    0.09
   1  -9  -2    0.86    0.13
   1  -9  -2    0.86    0.12
  -1   9   2    0.73    0.09
  -1   9   2    0.86    0.13
   0  -9  -2   -0.13    0.08
   0   9   2   -0.02    0.07
   0   9   2    0.03    0.09
  10 -10  -2    0.07    0.10
  10 -10  -2    0.10    0.09
 -10  10   2    0.10    0.10
   9 -10  -2    1.37    0.15
   9 -10  -2    1.04    0.14
  -9  10   2    1.27    0.15
  -9  10   2    1.43    0.14
   8 -10  -2    0.02    0.09
   8 -10  -2   -0.03    0.09
  -8  10   2    0.07    0.09
  -8  10   2    0.03    0.08
   7 -10  -2    0.38    0.10
   7 -10  -2    0.32    0.07
   7 -10  -2    0.10    0.09
  -7  10   2    0.33    0.08
  -7  10   2    0.25    0.10
   6 -10  -2    0.07    0.08
   6 -10  -2   -0.18    0.07
   6 -10  -2    0.21    0.07
  -6  10   2   -0.01    0.06
  -6  10   2    0.01    0.09
   5 -10  -2    0.17    0.08
   5 -10  -2    0.28    0.08
   5 -10  -2    0.18    0.11
  -5  10   2    0.19    0.06
  -5  10   2    0.21    0.11
   4 -10  -2    0.53    0.10
   4 -10  -2    0.55    0.12
   4 -10  -2    0.60    0.10
  -4  10   2    0.52    0.13
   3 -10  -2    0.00    0.08
   3 -10  -2    0.07    0.10
  -3  10   2    0.16    0.10
  -3  10   2    0.20    0.07
   2 -10  -2    0.36    0.12
   2 -10  -2    0.37    0.10
  -2  10   2    0.42    0.08
  -2  10   2    0.42    0.12
   8 -11  -2    1.02    0.15
   8 -11  -2    0.79    0.13
  -8  11   2    0.75    0.14
  -8  11   2    0.89    0.12
   7 -11  -2    0.17    0.08
   7 -11  -2    0.24    0.11
   7 -11  -2    0.26    0.10
  -7  11   2    0.30    0.12
  -7  11   2    0.24    0.08
   6 -11  -2    0.03    0.07
   6 -11  -2   -0.19    0.10
   6 -11  -2    0.06    0.09
  -6  11   2    0.00    0.11
   5 -11  -2    0.11    0.08
   5 -11  -2   -0.04    0.11
   5 -11  -2   -0.14    0.08
  -5  11   2   -0.07    0.11
  -2  12  -3    0.10    0.10
   2 -12   3   -0.04    0.10
   2 -12   3    0.08    0.09
   2 -12   3    0.09    0.08
  -3  12  -3    0.40    0.11
   3 -12   3    0.26    0.11
   3 -12   3    0.17    0.09
   3 -12   3    0.25    0.10
  -4  12  -3    0.06    0.08
  -4  12  -3    0.14    0.10
   4 -12   3    0.13    0.09
   4 -12   3    0.19    0.09
   4 -12   3    0.11    0.11
  -5  12  -3    0.53    0.09
  -5  12  -3    0.38    0.10
  -5  12  -3    0.67    0.13
   5 -12   3    0.41    0.12
   5 -12   3    0.39    0.11
  -6  12  -3    0.06    0.09
  -6  12  -3    0.18    0.08
  -6  12  -3   -0.03    0.08
   6 -12   3   -0.05    0.09
   6 -12   3    0.15    0.10
  -7  12  -3    0.06    0.09
  -7  12  -3    0.00    0.08
   7 -12   3    0.03    0.09
   7 -12   3    0.12    0.10
  -8  12  -3    0.05    0.09
  -8  12  -3   -0.02    0.08
   8 -12   3   -0.10    0.09
   8 -12   3    0.04    0.10
  -9  12  -3    0.02    0.09
  -9  12  -3   -0.05    0.08
   9 -12   3   -0.02    0.10
   0  11  -3    0.29    0.10
   0 -11   3    0.34    0.10
   0 -11   3    0.50    0.10
  -1  11  -3    1.00    0.13
   1 -11   3    1.24    0.13
   1 -11   3    1.09    0.12
   1 -11   3    1.11    0.14
  -2  11  -3    0.25    0.09
   2 -11   3    0.27    0.10
   2 -11   3    0.20    0.09
   2 -11   3    0.12    0.08
  -3  11  -3    2.41    0.19
  -3  11  -3    2.60    0.17
   3 -11   3    2.77    0.19
   3 -11   3    2.62    0.20
   3 -11   3    2.44    0.19
  -4  11  -3    7.80    0.33
  -4  11  -3    7.28    0.30
   4 -11   3    7.84    0.32
   4 -11   3    7.93    0.34
   4 -11   3    7.97    0.31
  -5  11  -3    2.13    0.18
  -5  11  -3    2.02    0.17
   5 -11   3    2.03    0.18
   5 -11   3    2.00    0.19
  -6  11  -3    0.54    0.10
  -6  11  -3    0.52    0.11
   6 -11   3    0.64    0.11
   6 -11   3    0.41    0.10
  -7  11  -3    1.61    0.15
  -7  11  -3    1.42    0.14
   7 -11   3    1.83    0.16
   7 -11   3    1.78    0.16
  -8  11  -3    0.33    0.10
  -8  11  -3    0.40    0.10
   8 -11   3    0.36    0.11
   8 -11   3    0.38    0.10
  -9  11  -3    0.08    0.08
   9 -11   3    0.13    0.11
   9 -11   3    0.04    0.07
 -10  11  -3    1.22    0.14
  10 -11   3    1.26    0.14
  10 -11   3    1.34    0.17
   2  10  -3    1.09    0.13
  -2 -10   3    1.01    0.11
  -2 -10   3    1.36    0.14
   1  10  -3    0.55    0.10
  -1 -10   3    0.42    0.10
  -1 -10   3    0.47    0.09
   0  10  -3    0.32    0.09
   0 -10   3    0.30    0.09
   0 -10   3    0.37    0.10
   0 -10   3    0.24    0.07
  -1  10  -3    0.39    0.09
   1 -10   3    0.32    0.08
   1 -10   3    0.38    0.09
   1 -10   3    0.29    0.08
  -2  10  -3    3.03    0.18
  -2  10  -3    3.48    0.20
   2 -10   3    3.61    0.21
   2 -10   3    3.26    0.18
   2 -10   3    3.21    0.19
  -3  10  -3    9.07    0.35
  -3  10  -3    8.32    0.31
   3 -10   3    9.18    0.35
   3 -10   3    9.00    0.33
   3 -10   3    8.85    0.32
  -4  10  -3    0.06    0.07
  -4  10  -3    0.03    0.08
   4 -10   3    0.14    0.08
   4 -10   3    0.13    0.08
   4 -10   3    0.04    0.06
  -5  10  -3    0.16    0.07
  -5  10  -3    0.21    0.05
  -5  10  -3    0.19    0.08
   5 -10   3    0.15    0.08
   5 -10   3    0.17    0.08
  -6  10  -3    1.52    0.14
  -6  10  -3    1.52    0.14
   6 -10   3    1.51    0.14
   6 -10   3    1.27    0.13
  -7  10  -3    1.52    0.14
  -7  10  -3    1.81    0.15
   7 -10   3    1.62    0.15
   7 -10   3    1.38    0.14
  -8  10  -3   -0.06    0.07
  -8  10  -3    0.05    0.07
   8 -10   3   -0.05    0.08
   8 -10   3   -0.03    0.07
   9 -10   3    5.22    0.29
   9 -10   3    4.40    0.23
 -10  10  -3    1.36    0.14
  10 -10   3    1.19    0.12
  10 -10   3    1.45    0.17
   3   9  -3    2.21    0.16
  -3  -9   3    2.25    0.16
  -3  -9   3    2.17    0.18
   2   9  -3    2.32    0.17
   2   9  -3    2.33    0.14
  -2  -9   3    2.33    0.17
  -2  -9   3    2.35    0.15
   1   9  -3    0.17    0.08
   1   9  -3    0.25    0.06
  -1  -9   3    0.36    0.08
  -1  -9   3    0.19    0.08
  -1  -9   3    0.20    0.07
   0   9  -3   21.60    0.58
   0   9  -3   22.30    0.68
   0  -9   3   22.94    0.69
   0  -9   3   22.04    0.65
   0  -9   3   22.78    0.63
  -1   9  -3    0.36    0.05
  -1   9  -3    0.53    0.09
  -1   9  -3    0.45    0.04
   1  -9   3    0.40    0.08
   1  -9   3    0.35    0.08
   1  -9   3    0.53    0.09
  -2   9  -3   14.92    0.50
  -2   9  -3   15.38    0.46
  -2   9  -3   15.52    0.40
  -2   9  -3   15.16    0.43
   2  -9   3   15.47    0.48
   2  -9   3   15.95    0.47
   2  -9   3   15.84    0.51
  -3   9  -3    1.88    0.08
  -3   9  -3    2.13    0.12
  -3   9  -3    1.90    0.16
  -3   9  -3    2.10    0.14
   3  -9   3    2.15    0.16
   3  -9   3    2.25    0.15
   3  -9   3    1.94    0.14
  -4   9  -3    4.46    0.16
  -4   9  -3    4.44    0.19
  -4   9  -3    4.19    0.21
   4  -9   3    4.42    0.21
   4  -9   3    4.51    0.21
  -5   9  -3    0.16    0.06
  -5   9  -3    0.12    0.04
  -5   9  -3    0.06    0.06
   5  -9   3    0.07    0.07
   5  -9   3    0.05    0.07
  -6   9  -3    0.21    0.04
  -6   9  -3    0.07    0.04
  -6   9  -3    0.11    0.07
  -6   9  -3    0.17    0.07
  -6   9  -3    0.19    0.04
   6  -9   3    0.23    0.09
   6  -9   3    0.04    0.07
  -7   9  -3    1.02    0.11
  -7   9  -3    1.03    0.11
   7  -9   3    1.01    0.12
   7  -9   3    1.27    0.13
   7  -9   3    1.00    0.12
  -8   9  -3    4.99    0.23
  -8   9  -3    5.28    0.24
   8  -9   3    5.81    0.27
   8  -9   3    4.89    0.23
  -9   9  -3    1.91    0.17
   9  -9   3    1.58    0.15
   9  -9   3    1.51    0.16
 -10   9  -3    3.11    0.20
  10  -9   3    3.14    0.24
  10  -9   3    2.87    0.17
 -11   9  -3    0.10    0.08
  11  -9   3    0.08    0.07
  11  -9   3    0.03    0.10
   4   8  -3   -0.04    0.06
   4   8  -3    0.08    0.06
  -4  -8   3   -0.10    0.08
  -4  -8   3    0.14    0.08
   3   8  -3    4.36    0.21
   3   8  -3    4.28    0.20
  -3  -8   3    3.79    0.20
  -3  -8   3    4.58    0.21
   2   8  -3    0.34    0.07
   2   8  -3    0.32    0.06
  -2  -8   3    0.37    0.07
  -2  -8   3    0.39    0.07
  -2  -8   3    0.39    0.08
   1   8  -3    1.25    0.13
   1   8  -3    0.82    0.08
   1   8  -3    0.93    0.10
  -1  -8   3    1.04    0.10
  -1  -8   3    1.06    0.11
  -1  -8   3    0.99    0.09
   0   8  -3    0.03    0.06
   0   8  -3    0.05    0.02
   0   8  -3    0.10    0.06
   0   8  -3    0.06    0.04
   0  -8   3    0.04    0.05
   0  -8   3    0.05    0.06
   0  -8   3    0.06    0.06
  -1   8  -3    0.10    0.04
  -1   8  -3    0.10    0.06
  -1   8  -3    0.09    0.07
  -1   8  -3    0.26    0.04
  -1   8  -3   -0.03    0.07
   1  -8   3    0.21    0.06
   1  -8   3    0.27    0.07
  -2   8  -3    4.62    0.15
  -2   8  -3    4.54    0.18
  -2   8  -3    4.41    0.21
  -2   8  -3    4.59    0.17
   2  -8   3    4.74    0.20
   2  -8   3    4.77    0.19
   2  -8   3    4.79    0.21
  -3   8  -3   -0.13    0.06
  -3   8  -3    0.01    0.06
  -3   8  -3    0.07    0.04
   3  -8   3   -0.02    0.06
   3  -8   3    0.08    0.06
   3  -8   3   -0.02    0.05
  -4   8  -3    1.41    0.12
  -4   8  -3    1.57    0.08
  -4   8  -3    1.60    0.12
   4  -8   3    1.62    0.13
   4  -8   3    1.48    0.12
   4  -8   3    1.39    0.12
  -5   8  -3    0.08    0.06
  -5   8  -3    0.23    0.04
  -5   8  -3    0.23    0.03
  -5   8  -3    0.27    0.06
   5  -8   3    0.27    0.07
   5  -8   3    0.16    0.07
   5  -8   3    0.23    0.07
  -6   8  -3    9.92    0.26
  -6   8  -3    9.28    0.31
  -6   8  -3    9.43    0.33
   6  -8   3    9.65    0.33
   6  -8   3    9.56    0.34
   6  -8   3    9.10    0.33
  -7   8  -3    1.79    0.14
  -7   8  -3    1.83    0.11
  -7   8  -3    1.61    0.13
  -7   8  -3    1.69    0.10
   7  -8   3    2.17    0.17
   7  -8   3    1.79    0.14
   7  -8   3    1.72    0.14
  -8   8  -3   16.81    0.53
  -8   8  -3   17.63    0.51
   8  -8   3   16.63    0.53
   8  -8   3   18.27    0.56
  -9   8  -3    3.03    0.17
   9  -8   3    3.08    0.21
   9  -8   3    2.66    0.15
 -10   8  -3    1.57    0.15
  10  -8   3    1.50    0.13
  10  -8   3    1.51    0.16
 -11   8  -3    0.12    0.08
  11  -8   3   -0.15    0.09
  11  -8   3    0.05    0.06
   5   7  -3    0.84    0.09
   5   7  -3    1.05    0.11
  -5  -7   3    1.18    0.12
  -5  -7   3    0.81    0.11
   4   7  -3    0.21    0.07
   4   7  -3    0.19    0.06
  -4  -7   3    0.34    0.08
  -4  -7   3    0.27    0.08
   3   7  -3    0.76    0.08
   3   7  -3    0.73    0.08
  -3  -7   3    1.01    0.10
  -3  -7   3    0.73    0.09
  -3  -7   3    0.88    0.10
   2   7  -3    9.33    0.32
   2   7  -3    8.97    0.29
   2   7  -3    9.03    0.32
  -2  -7   3    8.83    0.30
  -2  -7   3    9.59    0.29
  -2  -7   3    9.04    0.32
  -2  -7   3    9.15    0.30
   1   7  -3    0.21    0.06
   1   7  -3    0.31    0.05
   1   7  -3    0.27    0.02
   1   7  -3    0.23    0.07
  -1  -7   3    0.38    0.06
  -1  -7   3    0.23    0.07
  -1  -7   3    0.25    0.05
  -1  -7   3    0.20    0.06
   0   7  -3    0.46    0.07
   0   7  -3    0.62    0.04
   0   7  -3    0.68    0.08
   0   7  -3    0.63    0.06
   0   7  -3    0.61    0.07
   0  -7   3    0.37    0.06
   0  -7   3    0.61    0.07
   0  -7   3    0.62    0.07
   0  -7   3    0.67    0.08
  -1   7  -3    6.43    0.24
  -1   7  -3    6.54    0.20
  -1   7  -3    6.91    0.25
  -1   7  -3    6.52    0.19
  -1   7  -3    6.45    0.22
   1  -7   3    6.67    0.24
   1  -7   3    6.47    0.23
   1  -7   3    6.44    0.21
   1  -7   3    6.35    0.22
  -2   7  -3   -0.02    0.03
  -2   7  -3    0.09    0.05
  -2   7  -3    0.03    0.05
  -2   7  -3   -0.06    0.04
   2  -7   3    0.01    0.05
   2  -7   3    0.13    0.06
   2  -7   3    0.09    0.05
   2  -7   3    0.02    0.04
   2  -7   3   -0.04    0.04
  -3   7  -3    1.07    0.07
  -3   7  -3    0.76    0.08
  -3   7  -3    0.85    0.09
  -3   7  -3    1.03    0.10
   3  -7   3    0.99    0.09
   3  -7   3    1.04    0.10
   3  -7   3    0.72    0.08
  -4   7  -3    2.08    0.12
  -4   7  -3    2.23    0.08
  -4   7  -3    2.16    0.13
  -4   7  -3    2.07    0.07
   4  -7   3    1.97    0.13
   4  -7   3    2.14    0.13
   4  -7   3    2.02    0.12
  -5   7  -3    0.87    0.08
  -5   7  -3    0.94    0.06
  -5   7  -3    0.77    0.08
   5  -7   3    0.92    0.10
   5  -7   3    0.85    0.09
   5  -7   3    0.69    0.08
  -6   7  -3    2.46    0.11
  -6   7  -3    2.40    0.13
  -6   7  -3    2.88    0.14
   6  -7   3    2.68    0.14
   6  -7   3    2.76    0.14
   6  -7   3    2.59    0.16
  -7   7  -3    3.66    0.17
  -7   7  -3    3.68    0.15
  -7   7  -3    4.10    0.16
  -7   7  -3    3.77    0.18
   7  -7   3    3.68    0.18
   7  -7   3    3.99    0.21
   7  -7   3    3.47    0.17
  -8   7  -3    0.06    0.05
  -8   7  -3    0.00    0.06
   8  -7   3    0.05    0.05
   8  -7   3    0.13    0.08
   8  -7   3    0.13    0.06
  -9   7  -3    0.16    0.07
   9  -7   3    0.09    0.08
   9  -7   3    0.16    0.06
 -10   7  -3    0.32    0.08
  10  -7   3    0.21    0.06
  10  -7   3    0.21    0.10
 -11   7  -3    0.63    0.10
  11  -7   3    0.56    0.12
   6   6  -3    0.88    0.11
   6   6  -3    1.00    0.09
  -6  -6   3    0.72    0.10
  -6  -6   3    1.12    0.12
   5   6  -3   -0.04    0.06
   5   6  -3    0.11    0.05
  -5  -6   3    0.20    0.07
  -5  -6   3    0.01    0.07
   4   6  -3    0.75    0.09
   4   6  -3    0.96    0.09
  -4  -6   3    0.82    0.09
  -4  -6   3    0.99    0.09
  -4  -6   3    0.85    0.09
   3   6  -3    1.67    0.11
   3   6  -3    1.42    0.11
   3   6  -3    1.52    0.11
  -3  -6   3    1.71    0.11
  -3  -6   3    1.34    0.09
  -3  -6   3    1.55    0.12
  -3  -6   3    1.51    0.11
  -3  -6   3    1.62    0.09
   2   6  -3    7.30    0.23
   2   6  -3    6.94    0.25
   2   6  -3    7.18    0.19
   2   6  -3    7.00    0.25
  -2  -6   3    6.82    0.25
  -2  -6   3    7.36    0.24
  -2  -6   3    7.35    0.24
  -2  -6   3    7.45    0.22
   1   6  -3    0.93    0.05
   1   6  -3    0.90    0.09
   1   6  -3    0.80    0.07
   1   6  -3    0.87    0.07
   1   6  -3    0.89    0.09
  -1  -6   3    1.03    0.08
  -1  -6   3    0.88    0.07
  -1  -6   3    0.67    0.07
  -1  -6   3    0.82    0.08
   0   6  -3   13.87    0.37
   0   6  -3   13.61    0.38
   0   6  -3   13.75    0.42
   0   6  -3   14.84    0.43
   0   6  -3   13.67    0.39
   0   6  -3   13.51    0.36
   0  -6   3   14.00    0.37
   0  -6   3   13.90    0.38
   0  -6   3   14.33    0.42
   0  -6   3   13.94    0.42
   0  -6   3   13.36    0.39
   0  -6   3   13.21    0.40
  -1   6  -3   15.34    0.41
  -1   6  -3   15.03    0.45
  -1   6  -3   15.22    0.41
  -1   6  -3   15.00    0.45
  -1   6  -3   14.96    0.41
   1  -6   3   14.89    0.43
   1  -6   3   14.93    0.45
   1  -6   3   15.22    0.41
   1  -6   3   15.13    0.42
   1  -6   3   14.66    0.45
  -2   6  -3   49.32    1.27
  -2   6  -3   51.11    1.29
  -2   6  -3   51.54    1.38
  -2   6  -3   52.10    1.23
  -2   6  -3   52.25    1.39
   2  -6   3   51.64    1.39
   2  -6   3   50.63    1.34
   2  -6   3   49.00    1.29
   2  -6   3   51.93    1.38
   2  -6   3   51.42    1.27
  -3   6  -3    0.20    0.05
  -3   6  -3    0.18    0.03
  -3   6  -3    0.27    0.04
  -3   6  -3    0.16    0.05
  -3   6  -3    0.16    0.05
  -3   6  -3    0.18    0.02
  -3   6  -3    0.13    0.04
   3  -6   3    0.21    0.05
   3  -6   3    0.16    0.05
   3  -6   3    0.13    0.05
   3  -6   3    0.17    0.05
  -4   6  -3   76.44    1.97
  -4   6  -3   69.48    2.03
  -4   6  -3   77.66    1.82
  -4   6  -3   76.32    1.88
  -4   6  -3   78.43    1.90
  -4   6  -3   79.75    2.04
  -4   6  -3   77.82    1.80
   4  -6   3   77.93    1.98
   4  -6   3   70.28    2.03
   4  -6   3   77.82    2.03
   4  -6   3   76.96    1.88
  -5   6  -3    6.34    0.22
  -5   6  -3    6.33    0.24
  -5   6  -3    6.30    0.19
  -5   6  -3    6.15    0.22
  -5   6  -3    6.46    0.22
  -5   6  -3    6.51    0.23
   5  -6   3    6.42    0.24
   5  -6   3    5.91    0.22
   5  -6   3    6.76    0.23
   5  -6   3    6.22    0.22
  -6   6  -3    4.46    0.18
  -6   6  -3    4.61    0.18
  -6   6  -3    4.62    0.16
   6  -6   3    4.54    0.18
   6  -6   3    4.72    0.21
   6  -6   3    4.62    0.18
  -7   6  -3    2.86    0.13
  -7   6  -3    2.85    0.14
  -7   6  -3    2.93    0.15
   7  -6   3    2.82    0.14
   7  -6   3    2.73    0.17
   7  -6   3    2.76    0.14
  -8   6  -3    0.14    0.05
  -8   6  -3    0.18    0.06
   8  -6   3    0.13    0.04
   8  -6   3    0.10    0.05
   8  -6   3    0.11    0.07
  -9   6  -3    0.65    0.09
   9  -6   3    0.39    0.10
   9  -6   3    0.59    0.07
 -10   6  -3    1.83    0.14
  10  -6   3    1.83    0.18
  10  -6   3    1.72    0.09
 -11   6  -3    0.18    0.08
  11  -6   3    0.14    0.09
   7   5  -3    7.91    0.32
  -7  -5   3    7.74    0.31
  -7  -5   3    8.15    0.29
   6   5  -3    0.75    0.10
   6   5  -3    0.89    0.08
  -6  -5   3    0.99    0.09
  -6  -5   3    0.89    0.10
   5   5  -3   15.89    0.47
   5   5  -3   16.69    0.48
  -5  -5   3   16.18    0.46
  -5  -5   3   15.82    0.42
  -5  -5   3   15.66    0.47
   4   5  -3    5.55    0.20
   4   5  -3    5.94    0.22
   4   5  -3    5.48    0.20
  -4  -5   3    5.51    0.20
  -4  -5   3    5.47    0.17
  -4  -5   3    5.41    0.16
  -4  -5   3    5.68    0.20
  -4  -5   3    5.60    0.22
   3   5  -3    0.19    0.05
   3   5  -3    0.19    0.05
   3   5  -3    0.25    0.05
   3   5  -3    0.24    0.03
   3   5  -3    0.24    0.05
  -3  -5   3    0.19    0.05
  -3  -5   3    0.21    0.04
  -3  -5   3    0.21    0.04
  -3  -5   3    0.22    0.05
  -3  -5   3    0.28    0.06
   2   5  -3   24.20    0.69
   2   5  -3   24.95    0.69
   2   5  -3   24.21    0.63
   2   5  -3   24.64    0.63
   2   5  -3   24.99    0.65
  -2  -5   3   24.34    0.64
  -2  -5   3   24.43    0.62
  -2  -5   3   25.10    0.62
  -2  -5   3   24.00    0.63
  -2  -5   3   23.81    0.69
  -2  -5   3   24.68    0.69
   1   5  -3   27.84    0.70
   1   5  -3   28.36    0.72
   1   5  -3   27.38    0.69
   1   5  -3   28.12    0.77
   1   5  -3   27.32    0.71
   1   5  -3   27.09    0.77
  -1  -5   3   28.51    0.77
  -1  -5   3   27.88    0.68
  -1  -5   3   27.28    0.77
  -1  -5   3   27.36    0.72
  -1  -5   3   27.52    0.70
  -1  -5   3   27.68    0.70
   0   5  -3    0.37    0.04
   0   5  -3    0.42    0.05
   0   5  -3    0.38    0.05
   0   5  -3    0.41    0.04
   0   5  -3    0.52    0.05
   0  -5   3    0.36    0.04
   0  -5   3    0.40    0.05
   0  -5   3    0.47    0.04
   0  -5   3    0.47    0.04
  -1   5  -3   23.44    0.67
  -1   5  -3   23.20    0.61
  -1   5  -3   23.55    0.62
  -1   5  -3   25.37    0.67
   1  -5   3   24.65    0.61
   1  -5   3   23.68    0.62
   1  -5   3   24.81    0.67
   1  -5   3   24.45    0.59
   1  -5   3   22.51    0.67
   1  -5   3   23.79    0.65
  -2   5  -3    0.09    0.04
  -2   5  -3    0.08    0.03
  -2   5  -3    0.10    0.03
  -2   5  -3    0.02    0.03
  -2   5  -3    0.08    0.02
   2  -5   3    0.04    0.03
   2  -5   3    0.09    0.04
   2  -5   3    0.04    0.03
   2  -5   3    0.02    0.04
  -3   5  -3    0.94    0.07
  -3   5  -3    0.76    0.07
  -3   5  -3    0.83    0.04
  -3   5  -3    0.85    0.07
  -3   5  -3    0.72    0.07
  -3   5  -3    0.83    0.04
  -3   5  -3    0.80    0.07
   3  -5   3    0.82    0.07
   3  -5   3    1.02    0.08
   3  -5   3    0.76    0.07
   3  -5   3    0.58    0.06
  -4   5  -3   14.82    0.44
  -4   5  -3   15.12    0.44
  -4   5  -3   14.89    0.38
  -4   5  -3   15.37    0.43
  -4   5  -3   15.11    0.41
   4  -5   3   15.21    0.44
   4  -5   3   14.90    0.44
   4  -5   3   14.92    0.44
   4  -5   3   15.18    0.42
  -5   5  -3    4.20    0.16
  -5   5  -3    4.34    0.16
  -5   5  -3    4.48    0.14
  -5   5  -3    4.50    0.16
  -5   5  -3    4.44    0.16
   5  -5   3    4.25    0.16
   5  -5   3    4.15    0.16
   5  -5   3    4.17    0.17
   5  -5   3    4.33    0.16
  -6   5  -3    2.68    0.11
  -6   5  -3    2.78    0.12
  -6   5  -3    2.58    0.12
  -6   5  -3    2.67    0.13
   6  -5   3    2.75    0.15
   6  -5   3    2.81    0.12
   6  -5   3    2.56    0.12
  -7   5  -3    5.34    0.19
  -7   5  -3    5.20    0.20
  -7   5  -3    5.49    0.19
   7  -5   3    5.37    0.23
   7  -5   3    5.34    0.19
   7  -5   3    5.34    0.19
  -8   5  -3    0.37    0.07
  -8   5  -3    0.43    0.05
  -8   5  -3    0.35    0.05
   8  -5   3    0.35    0.08
   8  -5   3    0.47    0.04
   8  -5   3    0.34    0.05
   8  -5   3    0.39    0.05
  -9   5  -3    1.69    0.11
  -9   5  -3    1.74    0.14
   9  -5   3    1.45    0.09
   9  -5   3    1.70    0.16
 -10   5  -3    3.38    0.18
  10  -5   3    3.84    0.22
 -11   5  -3    0.16    0.07
 -11   5  -3    0.09    0.09
  11  -5   3    0.27    0.09
  -8  -4   3    1.32    0.14
  -8  -4   3    1.29    0.11
   7   4  -3    6.05    0.26
   7   4  -3    5.58    0.18
  -7  -4   3    5.60    0.25
  -7  -4   3    5.85    0.22
   6   4  -3   10.05    0.31
   6   4  -3   10.77    0.33
   6   4  -3   11.26    0.36
  -6  -4   3   10.70    0.32
  -6  -4   3   10.65    0.30
  -6  -4   3    9.84    0.30
  -6  -4   3   10.07    0.34
   5   4  -3    0.83    0.09
   5   4  -3    0.96    0.09
   5   4  -3    0.92    0.07
   5   4  -3    1.00    0.07
  -5  -4   3    0.90    0.07
  -5  -4   3    0.97    0.06
  -5  -4   3    0.86    0.09
  -5  -4   3    1.00    0.07
  -5  -4   3    1.03    0.09
   4   4  -3   15.83    0.44
   4   4  -3   14.86    0.44
   4   4  -3   15.37    0.43
   4   4  -3   15.47    0.42
  -4  -4   3   14.67    0.39
  -4  -4   3   14.54    0.40
  -4  -4   3   14.98    0.44
  -4  -4   3   15.12    0.44
  -4  -4   3   14.85    0.43
  -4  -4   3   14.50    0.41
  -4  -4   3   15.39    0.41
   3   4  -3   51.41    1.25
   3   4  -3   52.67    1.35
   3   4  -3   50.23    1.27
   3   4  -3   49.97    1.35
   3   4  -3   52.20    1.27
  -3  -4   3   51.72    1.27
  -3  -4   3   50.27    1.24
  -3  -4   3   50.39    1.27
  -3  -4   3   50.36    1.23
  -3  -4   3   44.72    1.35
  -3  -4   3   50.77    1.35
  -3  -4   3   51.28    1.24
   2   4  -3    0.57    0.04
   2   4  -3    0.55    0.05
   2   4  -3    0.51    0.05
   2   4  -3    0.52    0.05
  -2  -4   3    0.56    0.06
  -2  -4   3    0.58    0.04
  -2  -4   3    0.62    0.05
  -2  -4   3    0.63    0.04
  -2  -4   3    0.57    0.06
  -2  -4   3    0.70    0.06
   1   4  -3   10.18    0.28
   1   4  -3   10.29    0.29
   1   4  -3   10.31    0.28
   1   4  -3   10.44    0.31
   1   4  -3   10.40    0.28
   1   4  -3   10.37    0.31
  -1  -4   3   10.38    0.28
  -1  -4   3   10.21    0.31
  -1  -4   3   10.43    0.28
  -1  -4   3   10.60    0.27
  -1  -4   3   10.42    0.31
  -1  -4   3   10.47    0.29
   0   4  -3  152.79    3.90
   0   4  -3  170.76    4.29
   0   4  -3  148.42    3.91
   0   4  -3  161.29    4.25
   0   4  -3  155.55    4.02
   0  -4   3  155.98    3.97
   0  -4   3  159.95    3.85
   0  -4   3  153.71    3.83
   0  -4   3  171.74    4.27
   0  -4   3  155.89    4.24
   0  -4   3  154.78    3.78
  -1   4  -3    0.54    0.04
  -1   4  -3    0.45    0.04
  -1   4  -3    0.55    0.05
  -1   4  -3    0.43    0.05
   1  -4   3    0.54    0.06
   1  -4   3    0.49    0.03
   1  -4   3    0.52    0.05
   1  -4   3    0.44    0.05
   1  -4   3    0.69    0.05
  -2   4  -3  107.16    2.57
  -2   4  -3  106.57    2.65
  -2   4  -3  103.23    2.74
  -2   4  -3  101.84    2.74
  -2   4  -3  102.24    2.53
   2  -4   3  102.47    2.74
   2  -4   3  103.53    2.53
   2  -4   3  109.59    2.66
   2  -4   3  103.66    2.74
  -3   4  -3   32.90    0.92
  -3   4  -3   34.79    0.93
  -3   4  -3   33.82    0.83
  -3   4  -3   33.79    0.89
  -3   4  -3   34.07    0.86
   3  -4   3   34.39    0.93
   3  -4   3   34.94    0.90
   3  -4   3   33.93    0.86
   3  -4   3   34.42    0.93
  -4   4  -3   19.88    0.50
  -4   4  -3   20.42    0.54
  -4   4  -3   18.14    0.55
  -4   4  -3   20.38    0.55
  -4   4  -3   20.30    0.52
   4  -4   3   19.21    0.55
   4  -4   3   19.50    0.55
   4  -4   3   20.09    0.52
   4  -4   3   19.98    0.55
  -5   4  -3   16.12    0.45
  -5   4  -3   16.37    0.43
  -5   4  -3   16.36    0.46
  -5   4  -3   16.61    0.46
  -5   4  -3   16.55    0.47
   5  -4   3   16.08    0.47
   5  -4   3   16.40    0.47
   5  -4   3   16.56    0.47
  -6   4  -3    1.79    0.09
  -6   4  -3    1.77    0.10
  -6   4  -3    1.97    0.11
  -6   4  -3    1.68    0.11
  -6   4  -3    1.84    0.09
  -6   4  -3    1.90    0.08
   6  -4   3    1.73    0.09
   6  -4   3    1.80    0.09
   6  -4   3    1.67    0.12
   6  -4   3    1.79    0.07
  -7   4  -3    1.02    0.07
  -7   4  -3    0.95    0.07
  -7   4  -3    0.96    0.09
  -7   4  -3    0.93    0.06
   7  -4   3    0.98    0.05
   7  -4   3    0.82    0.09
   7  -4   3    0.99    0.07
   7  -4   3    0.93    0.06
  -8   4  -3    0.12    0.06
  -8   4  -3    0.02    0.03
  -8   4  -3    0.02    0.05
   8  -4   3    0.14    0.07
   8  -4   3    0.04    0.03
   8  -4   3    0.00    0.03
  -9   4  -3    0.84    0.10
  -9   4  -3    0.75    0.08
   9  -4   3    1.08    0.11
 -10   4  -3    0.33    0.07
 -10   4  -3    0.31    0.08
  10  -4   3    0.26    0.08
  -9  -3   3    2.03    0.18
   8   3  -3    0.81    0.11
  -8  -3   3    0.86    0.09
  -8  -3   3    0.68    0.10
   7   3  -3    0.39    0.04
   7   3  -3    0.41    0.09
   7   3  -3    0.42    0.03
  -7  -3   3    0.50    0.05
  -7  -3   3    0.48    0.06
  -7  -3   3    0.44    0.08
  -7  -3   3    0.41    0.07
   6   3  -3    0.01    0.06
   6   3  -3    0.07    0.03
   6   3  -3    0.05    0.03
  -6  -3   3    0.05    0.03
  -6  -3   3   -0.08    0.05
  -6  -3   3    0.00    0.05
  -6  -3   3    0.06    0.03
  -6  -3   3    0.00    0.03
  -6  -3   3    0.06    0.04
  -6  -3   3    0.04    0.02
   5   3  -3    0.93    0.09
   5   3  -3    1.21    0.07
  -5  -3   3    1.37    0.08
  -5  -3   3    1.12    0.07
  -5  -3   3    1.15    0.05
  -5  -3   3    0.94    0.08
  -5  -3   3    1.21    0.07
  -5  -3   3    1.16    0.07
   4   3  -3    1.69    0.08
   4   3  -3    1.62    0.08
   4   3  -3    1.63    0.08
   4   3  -3    1.55    0.09
   4   3  -3    1.59    0.11
  -4  -3   3    1.67    0.08
  -4  -3   3    1.81    0.06
  -4  -3   3    1.68    0.08
  -4  -3   3    1.68    0.08
  -4  -3   3    1.57    0.08
  -4  -3   3    1.79    0.09
   3   3  -3    9.64    0.28
   3   3  -3    9.79    0.27
   3   3  -3    9.60    0.29
   3   3  -3    9.76    0.29
   3   3  -3    9.56    0.27
  -3  -3   3    9.84    0.27
  -3  -3   3    9.46    0.26
  -3  -3   3    9.60    0.27
  -3  -3   3    9.67    0.29
  -3  -3   3    9.59    0.29
  -3  -3   3    9.66    0.25
   2   3  -3    2.68    0.08
   2   3  -3    2.39    0.10
   2   3  -3    2.61    0.09
   2   3  -3    2.51    0.09
   2   3  -3    2.58    0.11
   2   3  -3    2.55    0.10
  -2  -3   3    2.99    0.09
  -2  -3   3    2.54    0.09
  -2  -3   3    2.68    0.11
  -2  -3   3    2.67    0.09
  -2  -3   3    2.55    0.10
   1   3  -3    0.59    0.04
   1   3  -3    0.66    0.05
   1   3  -3    0.59    0.04
   1   3  -3    0.78    0.04
   1   3  -3    0.56    0.05
  -1  -3   3    0.61    0.04
  -1  -3   3    0.73    0.05
  -1  -3   3    0.58    0.04
  -1  -3   3    0.71    0.04
  -1  -3   3    0.62    0.05
   0   3  -3    6.81    0.19
   0   3  -3    6.59    0.21
   0   3  -3    6.47    0.18
   0   3  -3    6.46    0.19
   0  -3   3    6.85    0.21
   0  -3   3    6.71    0.21
   0  -3   3    6.69    0.19
  -1   3  -3    0.10    0.03
  -1   3  -3    0.11    0.03
  -1   3  -3    0.11    0.02
   1  -3   3    0.10    0.02
   1  -3   3    0.11    0.03
   1  -3   3    0.11    0.02
   1  -3   3    0.08    0.03
   1  -3   3    0.16    0.01
   1  -3   3    0.17    0.01
  -2   3  -3   22.07    0.68
  -2   3  -3   25.45    0.66
  -2   3  -3   24.98    0.64
  -2   3  -3   26.02    0.69
   2  -3   3   25.54    0.61
   2  -3   3   25.96    0.69
   2  -3   3   25.56    0.66
   2  -3   3   24.92    0.64
   2  -3   3   25.59    0.69
  -3   3  -3   78.16    1.99
  -3   3  -3   77.89    1.82
  -3   3  -3   75.77    1.93
  -3   3  -3   77.76    1.85
  -3   3  -3   72.42    1.99
   3  -3   3   76.24    1.99
   3  -3   3   75.65    1.83
   3  -3   3   71.55    1.99
   3  -3   3   76.18    1.94
  -4   3  -3   16.97    0.45
  -4   3  -3   16.41    0.46
  -4   3  -3   17.01    0.41
  -4   3  -3   17.33    0.44
  -4   3  -3   17.02    0.47
  -4   3  -3   16.70    0.47
   4  -3   3   16.64    0.47
   4  -3   3   16.74    0.47
   4  -3   3   17.14    0.43
   4  -3   3   16.92    0.47
  -5   3  -3    0.18    0.04
  -5   3  -3   -0.03    0.03
  -5   3  -3    0.03    0.03
  -5   3  -3    0.07    0.04
  -5   3  -3    0.05    0.03
  -5   3  -3    0.09    0.03
   5  -3   3    0.02    0.02
   5  -3   3    0.00    0.03
   5  -3   3    0.00    0.04
   5  -3   3    0.10    0.03
  -6   3  -3   24.05    0.67
  -6   3  -3   24.43    0.61
  -6   3  -3   24.96    0.66
  -6   3  -3   23.86    0.66
  -6   3  -3   24.66    0.65
   6  -3   3   24.38    0.66
   6  -3   3   25.16    0.68
   6  -3   3   23.80    0.66
   6  -3   3   23.89    0.59
  -7   3  -3    3.27    0.15
  -7   3  -3    3.14    0.11
  -7   3  -3    3.08    0.13
  -7   3  -3    3.11    0.10
   7  -3   3    3.02    0.10
   7  -3   3    3.11    0.16
   7  -3   3    3.11    0.11
  -8   3  -3    6.67    0.25
  -8   3  -3    7.11    0.23
   8  -3   3    6.94    0.27
  -9   3  -3   -0.03    0.05
  -9   3  -3   -0.04    0.06
 -10   3  -3    0.30    0.08
 -10   3  -3    0.30    0.09
 -10   3  -3    0.21    0.07
   9   2  -3    8.59    0.33
  -9  -2   3    7.99    0.32
   8   2  -3    0.71    0.10
  -8  -2   3    0.63    0.07
  -8  -2   3    0.51    0.09
  -8  -2   3    0.66    0.08
   7   2  -3    0.65    0.09
  -7  -2   3    0.66    0.07
  -7  -2   3    0.72    0.06
  -7  -2   3    0.74    0.07
   6   2  -3   11.09    0.31
   6   2  -3   10.79    0.34
   6   2  -3   11.10    0.31
  -6  -2   3   10.90    0.30
  -6  -2   3   11.35    0.32
  -6  -2   3   10.79    0.31
  -6  -2   3   11.00    0.31
  -6  -2   3   11.35    0.31
   5   2  -3    4.37    0.17
   5   2  -3    4.26    0.14
  -5  -2   3    4.14    0.14
  -5  -2   3    4.23    0.14
  -5  -2   3    4.21    0.18
  -5  -2   3    4.26    0.14
  -5  -2   3    4.10    0.14
  -5  -2   3    3.99    0.15
  -5  -2   3    4.13    0.15
   4   2  -3   11.15    0.31
   4   2  -3   10.80    0.31
   4   2  -3   11.04    0.29
   4   2  -3   10.84    0.31
   4   2  -3   11.08    0.31
  -4  -2   3   11.06    0.31
  -4  -2   3   10.70    0.30
  -4  -2   3   10.92    0.30
  -4  -2   3   10.39    0.29
  -4  -2   3   10.64    0.31
   3   2  -3   80.04    2.09
   3   2  -3   79.29    1.99
   3   2  -3   81.60    1.91
   3   2  -3   79.71    1.95
   3   2  -3   80.74    2.09
  -3  -2   3   79.71    1.99
  -3  -2   3   78.62    2.08
  -3  -2   3   76.68    1.93
  -3  -2   3   79.74    1.92
  -3  -2   3   79.08    1.94
  -3  -2   3   78.76    2.08
   2   2  -3    2.32    0.09
   2   2  -3    2.38    0.10
   2   2  -3    2.62    0.07
   2   2  -3    2.33    0.08
   2   2  -3    2.47    0.10
  -2  -2   3    2.27    0.09
  -2  -2   3    2.50    0.10
  -2  -2   3    2.37    0.09
  -2  -2   3    2.39    0.08
  -2  -2   3    2.48    0.07
  -2  -2   3    2.27    0.09
   1   2  -3    2.96    0.10
   1   2  -3    2.70    0.09
   1   2  -3    2.75    0.08
   1   2  -3    2.76    0.10
   1   2  -3    2.80    0.08
  -1  -2   3    2.62    0.10
  -1  -2   3    2.89    0.10
  -1  -2   3    2.71    0.10
  -1  -2   3    2.83    0.08
  -1  -2   3    2.65    0.09
   0   2  -3   15.91    0.41
   0   2  -3   16.16    0.45
   0   2  -3   15.91    0.43
   0   2  -3   16.94    0.45
   0  -2   3   16.12    0.42
   0  -2   3   16.09    0.43
   0  -2   3   16.36    0.45
   0  -2   3   16.50    0.45
  -1   2  -3  120.27    2.91
  -1   2  -3  108.54    3.12
  -1   2  -3  118.88    3.00
  -1   2  -3  120.46    3.09
   1  -2   3  110.73    3.10
   1  -2   3  120.46    3.07
   1  -2   3  119.46    2.90
   1  -2   3  126.17    3.10
  -2   2  -3   65.97    1.72
  -2   2  -3   64.00    1.72
  -2   2  -3   65.52    1.66
  -2   2  -3   63.30    1.59
   2  -2   3   65.15    1.58
   2  -2   3   66.12    1.66
   2  -2   3   64.40    1.56
   2  -2   3   67.03    1.72
   2  -2   3   64.08    1.57
   2  -2   3   65.88    1.72
  -3   2  -3    5.77    0.18
  -3   2  -3    5.85    0.18
  -3   2  -3    5.85    0.18
  -3   2  -3    5.88    0.16
  -3   2  -3    5.81    0.18
  -3   2  -3    6.27    0.18
   3  -2   3    5.82    0.18
   3  -2   3    5.84    0.17
   3  -2   3    5.84    0.18
   3  -2   3    6.20    0.19
   3  -2   3    5.96    0.18
  -4   2  -3    9.48    0.27
  -4   2  -3    9.42    0.27
  -4   2  -3    9.27    0.27
  -4   2  -3    9.88    0.27
  -4   2  -3    9.38    0.25
   4  -2   3    9.19    0.25
   4  -2   3    9.79    0.28
   4  -2   3    9.25    0.27
   4  -2   3    9.18    0.27
   4  -2   3    9.36    0.27
  -5   2  -3    0.21    0.05
  -5   2  -3    0.20    0.04
  -5   2  -3    0.18    0.04
  -5   2  -3    0.18    0.05
  -5   2  -3    0.26    0.05
  -5   2  -3    0.22    0.03
   5  -2   3    0.22    0.03
   5  -2   3    0.17    0.05
   5  -2   3    0.15    0.04
   5  -2   3    0.14    0.03
  -6   2  -3    0.05    0.03
  -6   2  -3   -0.05    0.04
  -6   2  -3    0.07    0.02
  -6   2  -3    0.05    0.04
  -6   2  -3   -0.03    0.04
   6  -2   3    0.05    0.03
   6  -2   3    0.07    0.02
   6  -2   3    0.03    0.04
  -7   2  -3    1.41    0.11
  -7   2  -3    1.40    0.10
  -7   2  -3    1.21    0.11
   7  -2   3    1.53    0.12
  -8   2  -3    0.13    0.05
  -8   2  -3    0.05    0.06
  -8   2  -3    0.15    0.08
  -9   2  -3    1.45    0.13
  -9   2  -3    1.48    0.13
  -9   2  -3    1.71    0.12
 -10   2  -3    0.13    0.07
 -10   2  -3    0.22    0.09
 -10   2  -3    0.14    0.10
 -10  -1   3    0.06    0.08
   9   1  -3    4.68    0.23
  -9  -1   3    4.97    0.21
  -9  -1   3    4.62    0.18
   8   1  -3    0.22    0.08
  -8  -1   3    0.20    0.05
  -8  -1   3    0.24    0.06
  -8  -1   3    0.25    0.03
   7   1  -3    4.80    0.21
  -7  -1   3    4.57    0.15
  -7  -1   3    4.46    0.16
  -7  -1   3    5.07    0.19
   6   1  -3   19.09    0.53
   6   1  -3   19.18    0.53
   6   1  -3   19.67    0.53
  -6  -1   3   19.71    0.53
  -6  -1   3   19.69    0.53
  -6  -1   3   19.24    0.50
  -6  -1   3   19.38    0.53
  -6  -1   3   19.64    0.50
   5   1  -3    2.55    0.11
   5   1  -3    2.25    0.12
   5   1  -3    2.42    0.10
  -5  -1   3    2.59    0.09
  -5  -1   3    2.62    0.11
  -5  -1   3    2.29    0.09
  -5  -1   3    2.17    0.12
  -5  -1   3    2.39    0.09
  -5  -1   3    2.41    0.09
   4   1  -3   51.61    1.24
   4   1  -3   50.12    1.29
   4   1  -3   50.98    1.34
   4   1  -3   52.52    1.34
  -4  -1   3   50.65    1.34
  -4  -1   3   50.07    1.24
  -4  -1   3   49.83    1.24
  -4  -1   3   50.30    1.29
  -4  -1   3   49.64    1.34
  -4  -1   3   51.34    1.33
   3   1  -3  363.44    9.76
   3   1  -3  404.39    9.79
   3   1  -3  358.42    8.89
   3   1  -3  368.56    9.31
   3   1  -3  366.67    9.06
  -3  -1   3  392.58    9.77
  -3  -1   3  362.84    9.05
  -3  -1   3  372.09    9.29
  -3  -1   3  370.93    9.04
  -3  -1   3  353.07    9.75
   2   1  -3  153.49    3.70
   2   1  -3  138.29    3.37
   2   1  -3  136.81    3.51
   2   1  -3  137.31    3.38
   2   1  -3  138.07    3.42
   2   1  -3  134.21    3.67
  -2  -1   3  128.52    3.66
  -2  -1   3  136.97    3.51
  -2  -1   3  140.70    3.43
  -2  -1   3  151.33    3.68
   1   1  -3   49.62    1.26
   1   1  -3   51.84    1.32
   1   1  -3   50.23    1.22
   1   1  -3   49.77    1.32
  -1  -1   3   49.63    1.32
  -1  -1   3   48.59    1.26
  -1  -1   3   50.11    1.32
  -1  -1   3   49.32    1.22
   0   1  -3  331.60    9.10
   0   1  -3  333.52    8.68
   0   1  -3  347.96    8.39
   0   1  -3  379.76    9.14
   0  -1   3  329.95    9.10
   0  -1   3  324.33    8.39
   0  -1   3  348.32    8.72
   0  -1   3  370.51    9.13
  -1   1  -3  192.36    5.01
  -1   1  -3  210.88    5.28
  -1   1  -3  197.79    4.85
  -1   1  -3  180.40    5.21
   1  -1   3  211.28    5.26
   1  -1   3  207.05    5.26
   1  -1   3  196.75    5.05
   1  -1   3  192.28    4.81
  -2   1  -3   17.64    0.43
  -2   1  -3   16.12    0.47
  -2   1  -3   17.00    0.47
  -2   1  -3   17.02    0.44
   2  -1   3   16.72    0.45
   2  -1   3   16.61    0.43
   2  -1   3   17.12    0.43
   2  -1   3   16.92    0.47
   2  -1   3   17.30    0.47
   2  -1   3   16.95    0.42
  -3   1  -3  123.70    2.98
  -3   1  -3  121.72    3.09
  -3   1  -3  126.26    3.19
  -3   1  -3  121.36    3.20
   3  -1   3  121.46    2.94
   3  -1   3  122.72    3.10
   3  -1   3  118.33    3.19
   3  -1   3  124.19    3.22
   3  -1   3  122.51    2.95
  -4   1  -3   70.96    1.69
  -4   1  -3   69.82    1.66
  -4   1  -3   66.54    1.82
  -4   1  -3   71.29    1.82
  -4   1  -3   69.07    1.77
   4  -1   3   69.13    1.67
   4  -1   3   69.48    1.77
   4  -1   3   69.12    1.69
   4  -1   3   68.00    1.82
  -5   1  -3    0.14    0.04
  -5   1  -3    0.17    0.03
  -5   1  -3    0.22    0.04
  -5   1  -3    0.13    0.03
   5  -1   3    0.15    0.03
   5  -1   3    0.13    0.05
   5  -1   3    0.20    0.04
   5  -1   3    0.13    0.03
  -6   1  -3    1.10    0.09
  -6   1  -3    0.81    0.04
  -6   1  -3    0.92    0.05
  -6   1  -3    0.99    0.10
  -6   1  -3    0.81    0.07
   6  -1   3    0.89    0.05
   6  -1   3    0.91    0.04
  -7   1  -3    1.31    0.10
  -7   1  -3    1.20    0.11
  -7   1  -3    1.34    0.11
  -7   1  -3    1.25    0.11
  -8   1  -3    0.10    0.06
  -8   1  -3    0.04    0.06
  -8   1  -3   -0.02    0.07
  -9   1  -3   -0.03    0.06
  -9   1  -3    0.11    0.06
  -9   1  -3    0.12    0.09
  -9   1  -3    0.04    0.07
 -10   0   3    2.82    0.18
   9   0  -3    0.02    0.07
  -9   0   3   -0.06    0.05
  -9   0   3   -0.10    0.06
   8   0  -3    2.57    0.16
  -8   0   3    2.63    0.09
  -8   0   3    2.57    0.15
  -8   0   3    2.31    0.11
   7   0  -3   18.13    0.48
   7   0  -3   17.52    0.49
   7   0  -3   17.59    0.51
  -7   0   3   18.25    0.47
  -7   0   3   17.98    0.48
  -7   0   3   18.12    0.47
  -7   0   3   18.25    0.49
  -7   0   3   18.20    0.51
   6   0  -3    4.85    0.15
   6   0  -3    4.81    0.16
   6   0  -3    4.48    0.19
  -6   0   3    4.77    0.16
  -6   0   3    4.68    0.14
  -6   0   3    4.75    0.15
  -6   0   3    4.70    0.15
  -6   0   3    4.91    0.18
   5   0  -3   44.39    1.15
   5   0  -3   45.06    1.10
   5   0  -3   44.61    1.18
   5   0  -3   44.78    1.18
  -5   0   3   44.11    1.09
  -5   0   3   44.13    1.18
  -5   0   3   45.03    1.18
  -5   0   3   43.67    1.09
  -5   0   3   43.93    1.14
  -5   0   3   44.89    1.18
   4   0  -3    4.00    0.15
   4   0  -3    4.06    0.14
   4   0  -3    3.98    0.14
   4   0  -3    4.12    0.14
   4   0  -3    4.06    0.13
  -4   0   3    4.05    0.16
  -4   0   3    3.83    0.14
  -4   0   3    3.95    0.10
  -4   0   3    3.90    0.13
  -4   0   3    4.02    0.14
  -4   0   3    4.07    0.14
   3   0  -3   45.94    1.09
   3   0  -3   46.13    1.11
   3   0  -3   46.12    1.10
   3   0  -3   44.98    1.20
   3   0  -3   44.61    1.21
   3   0  -3   44.91    1.15
  -3   0   3   43.80    1.18
  -3   0   3   47.20    1.20
  -3   0   3   45.03    1.15
  -3   0   3   45.42    1.20
  -3   0   3   44.94    1.12
   2   0  -3    8.48    0.25
   2   0  -3    8.45    0.24
   2   0  -3    8.58    0.22
   2   0  -3    8.52    0.25
   2   0  -3    8.64    0.23
  -2   0   3    8.60    0.25
  -2   0   3    8.55    0.24
  -2   0   3    8.50    0.25
  -2   0   3    8.68    0.24
   1   0  -3   41.84    1.03
   1   0  -3   40.96    1.12
   1   0  -3   42.83    1.11
   1   0  -3   42.20    1.06
  -1   0   3   40.10    1.11
  -1   0   3   40.74    1.03
  -1   0   3   42.31    1.06
  -1   0   3   43.87    1.12
   0   0  -3    4.13    0.14
   0   0  -3    4.07    0.12
   0   0  -3    3.79    0.14
   0   0  -3    3.94    0.13
   0   0   3    3.90    0.14
   0   0   3    3.89    0.13
   0   0   3    4.05    0.14
   0   0   3    3.91    0.13
  -1   0  -3   43.64    1.12
  -1   0  -3   41.31    1.11
  -1   0  -3   41.72    1.06
  -1   0  -3   42.51    1.03
   1   0   3   40.98    1.06
   1   0   3   41.91    1.12
   1   0   3   40.65    1.03
   1   0   3   42.81    1.12
  -2   0  -3   72.91    2.03
  -2   0  -3   76.43    2.04
  -2   0  -3   78.03    1.88
  -2   0  -3   78.81    1.95
  -2   0  -3   78.20    1.94
   2   0   3   78.98    1.84
   2   0   3   76.07    2.03
   2   0   3   79.04    1.95
   2   0   3   77.67    1.88
   2   0   3   79.09    2.04
   2   0   3   76.71    1.87
  -3   0  -3   16.94    0.47
  -3   0  -3   17.04    0.43
  -3   0  -3   16.80    0.45
  -3   0  -3   16.53    0.47
  -3   0  -3   16.68    0.47
   3   0   3   16.65    0.47
   3   0   3   17.44    0.47
   3   0   3   17.04    0.44
   3   0   3   16.73    0.45
  -4   0  -3   26.72    0.71
  -4   0  -3   27.40    0.67
  -4   0  -3   25.99    0.72
  -4   0  -3   27.74    0.73
  -4   0  -3   26.57    0.73
  -4   0  -3   27.60    0.68
   4   0   3   27.09    0.74
   4   0   3   27.04    0.71
  -5   0  -3   17.23    0.49
  -5   0  -3   17.80    0.44
  -5   0  -3   18.01    0.48
  -5   0  -3   17.78    0.49
  -5   0  -3   17.22    0.49
  -5   0  -3   17.53    0.51
   5   0   3   18.48    0.49
   5   0   3   17.38    0.49
   5   0   3   17.99    0.50
  -6   0  -3    0.00    0.04
  -6   0  -3    0.05    0.02
  -6   0  -3   -0.04    0.06
  -6   0  -3    0.01    0.02
  -6   0  -3    0.03    0.05
   6   0   3    0.05    0.02
   6   0   3    0.03    0.02
  -7   0  -3    6.85    0.27
  -7   0  -3    6.28    0.24
  -8   0  -3    4.96    0.21
  -8   0  -3    5.30    0.22
  -8   0  -3    4.95    0.24
  -8   0  -3    4.80    0.22
 -11   1   3    2.12    0.18
  10  -1  -3    1.11    0.12
 -10   1   3    0.91    0.11
   9  -1  -3    2.11    0.16
  -9   1   3    2.19    0.15
  -9   1   3    1.69    0.11
   8  -1  -3    8.10    0.29
   8  -1  -3    7.66    0.22
   8  -1  -3    8.13    0.23
  -8   1   3    8.52    0.29
  -8   1   3    7.91    0.23
  -8   1   3    7.92    0.24
  -8   1   3    7.98    0.22
   7  -1  -3   28.55    0.77
   7  -1  -3   28.47    0.77
   7  -1  -3   29.12    0.75
  -7   1   3   28.39    0.77
  -7   1   3   29.06    0.72
  -7   1   3   28.73    0.77
  -7   1   3   28.18    0.72
  -7   1   3   28.52    0.77
   6  -1  -3   71.98    1.92
   6  -1  -3   74.94    1.77
   6  -1  -3   74.81    1.77
   6  -1  -3   70.68    1.91
  -6   1   3   71.43    1.77
  -6   1   3   72.67    1.86
  -6   1   3   73.04    1.78
  -6   1   3   73.64    1.90
  -6   1   3   74.18    1.91
  -6   1   3   70.75    1.92
   5  -1  -3   90.80    2.19
   5  -1  -3   90.61    2.29
   5  -1  -3   85.59    2.37
   5  -1  -3   91.49    2.38
   5  -1  -3   90.87    2.17
   5  -1  -3   90.83    2.19
  -5   1   3   90.22    2.20
  -5   1   3   87.97    2.28
  -5   1   3   94.07    2.38
  -5   1   3   91.83    2.33
  -5   1   3   91.35    2.37
  -5   1   3   91.34    2.22
   4  -1  -3  172.29    4.13
   4  -1  -3  175.24    4.29
   4  -1  -3  175.69    4.13
   4  -1  -3  175.10    4.48
   4  -1  -3  171.55    4.18
   4  -1  -3  175.10    4.49
  -4   1   3  169.00    4.14
  -4   1   3  167.42    4.28
  -4   1   3  171.30    4.19
  -4   1   3  168.25    4.48
  -4   1   3  167.38    4.48
  -4   1   3  174.24    4.36
   3  -1  -3   64.62    1.70
   3  -1  -3   63.59    1.71
   3  -1  -3   66.84    1.58
   3  -1  -3   65.88    1.56
   3  -1  -3   62.98    1.63
   3  -1  -3   64.25    1.60
  -3   1   3   64.08    1.58
  -3   1   3   64.37    1.71
  -3   1   3   64.74    1.65
  -3   1   3   65.72    1.57
  -3   1   3   64.22    1.70
  -3   1   3   62.74    1.63
   2  -1  -3    9.23    0.29
   2  -1  -3    9.49    0.29
   2  -1  -3    9.76    0.27
   2  -1  -3    9.79    0.25
   2  -1  -3    9.99    0.27
  -2   1   3    9.88    0.27
  -2   1   3    9.55    0.27
  -2   1   3    9.80    0.25
  -2   1   3    9.62    0.29
  -2   1   3    9.65    0.27
  -2   1   3    9.22    0.29
   1  -1  -3   12.33    0.38
   1  -1  -3   13.24    0.35
   1  -1  -3   13.61    0.39
   1  -1  -3   13.40    0.36
   1  -1  -3   13.88    0.36
  -1   1   3   13.31    0.36
  -1   1   3   12.68    0.38
  -1   1   3   13.75    0.35
  -1   1   3   13.72    0.39
  -1   1   3   13.51    0.36
   0  -1  -3  167.54    4.19
   0  -1  -3  168.89    4.29
   0  -1  -3  177.22    4.11
   0  -1  -3  172.36    4.46
   0  -1  -3  173.14    4.45
   0   1   3  173.38    4.45
   0   1   3  168.03    4.46
   0   1   3  166.55    4.11
   0   1   3  170.78    4.33
  -1  -1  -3   22.32    0.61
  -1  -1  -3   22.41    0.56
  -1  -1  -3   21.48    0.58
  -1  -1  -3   21.62    0.60
  -1  -1  -3   21.97    0.57
   1   1   3   21.23    0.61
   1   1   3   21.88    0.55
   1   1   3   22.11    0.61
   1   1   3   21.90    0.56
  -2  -1  -3    1.94    0.09
  -2  -1  -3    1.94    0.08
  -2  -1  -3    1.87    0.09
  -2  -1  -3    1.81    0.06
  -2  -1  -3    1.91    0.09
  -2  -1  -3    1.77    0.10
   2   1   3    1.73    0.09
   2   1   3    1.92    0.09
   2   1   3    1.82    0.09
   2   1   3    1.87    0.10
  -3  -1  -3  115.88    3.02
  -3  -1  -3  114.86    2.88
  -3  -1  -3  116.28    2.86
  -3  -1  -3  113.83    2.91
  -3  -1  -3  115.49    3.02
  -3  -1  -3  115.75    2.77
  -3  -1  -3  115.49    2.79
   3   1   3  113.78    3.02
   3   1   3  115.77    2.79
   3   1   3  116.73    3.02
   3   1   3  115.70    2.75
  -4  -1  -3    3.80    0.13
  -4  -1  -3    3.77    0.14
  -4  -1  -3    3.89    0.14
  -4  -1  -3    3.83    0.17
  -4  -1  -3    4.06    0.13
  -4  -1  -3    3.92    0.15
   4   1   3    3.91    0.15
   4   1   3    4.14    0.17
   4   1   3    3.90    0.14
  -5  -1  -3    4.30    0.16
  -5  -1  -3    4.27    0.13
  -5  -1  -3    4.25    0.19
  -5  -1  -3    4.44    0.15
  -5  -1  -3    4.14    0.15
  -5  -1  -3    4.27    0.15
   5   1   3    4.55    0.19
   5   1   3    4.24    0.15
   5   1   3    4.37    0.15
  -6  -1  -3    8.01    0.30
   6   1   3    7.74    0.23
   6   1   3    7.80    0.23
   6   1   3    7.72    0.28
  -7  -1  -3    0.59    0.10
  -8  -1  -3    0.09    0.09
  -8  -1  -3    0.11    0.07
 -11   2   3    0.14    0.09
  10  -2  -3    0.38    0.09
 -10   2   3    0.36    0.09
   9  -2  -3   16.02    0.44
   9  -2  -3   16.26    0.44
   9  -2  -3   16.71    0.49
  -9   2   3   16.28    0.41
  -9   2   3   16.52    0.50
  -9   2   3   15.89    0.44
  -9   2   3   16.54    0.44
   8  -2  -3    7.05    0.22
   8  -2  -3    7.71    0.26
   8  -2  -3    7.09    0.22
   8  -2  -3    7.51    0.21
  -8   2   3    7.52    0.26
  -8   2   3    7.27    0.23
  -8   2   3    7.25    0.22
  -8   2   3    7.00    0.21
  -8   2   3    6.86    0.20
   7  -2  -3    7.12    0.23
   7  -2  -3    7.02    0.19
   7  -2  -3    7.02    0.22
   7  -2  -3    7.13    0.21
   7  -2  -3    6.69    0.22
  -7   2   3    6.92    0.22
  -7   2   3    6.80    0.24
  -7   2   3    6.95    0.19
  -7   2   3    6.67    0.22
  -7   2   3    6.77    0.19
   6  -2  -3    0.57    0.05
   6  -2  -3    0.56    0.06
   6  -2  -3    0.64    0.08
   6  -2  -3    0.62    0.06
   6  -2  -3    0.53    0.05
   6  -2  -3    0.58    0.06
  -6   2   3    0.63    0.06
  -6   2   3    0.46    0.07
  -6   2   3    0.49    0.05
  -6   2   3    0.55    0.08
  -6   2   3    0.56    0.04
  -6   2   3    0.64    0.06
   5  -2  -3    0.02    0.04
   5  -2  -3    0.01    0.03
   5  -2  -3    0.02    0.03
   5  -2  -3    0.04    0.04
   5  -2  -3    0.03    0.04
   5  -2  -3   -0.04    0.04
   5  -2  -3   -0.01    0.02
  -5   2   3    0.01    0.04
  -5   2   3    0.04    0.04
  -5   2   3    0.02    0.02
  -5   2   3   -0.03    0.04
  -5   2   3   -0.03    0.04
  -5   2   3   -0.03    0.04
   4  -2  -3    0.02    0.04
   4  -2  -3    0.01    0.04
   4  -2  -3   -0.04    0.04
   4  -2  -3    0.04    0.03
   4  -2  -3    0.02    0.02
   4  -2  -3    0.01    0.03
   4  -2  -3    0.06    0.04
   4  -2  -3    0.02    0.02
  -4   2   3    0.00    0.03
  -4   2   3    0.01    0.02
  -4   2   3    0.04    0.04
  -4   2   3    0.06    0.04
  -4   2   3   -0.01    0.04
  -4   2   3    0.10    0.04
   3  -2  -3    9.29    0.27
   3  -2  -3    8.80    0.26
   3  -2  -3    9.44    0.27
   3  -2  -3    9.51    0.24
   3  -2  -3    9.20    0.25
   3  -2  -3    8.99    0.29
   3  -2  -3    8.83    0.29
  -3   2   3    9.13    0.26
  -3   2   3    9.12    0.27
  -3   2   3    8.92    0.29
  -3   2   3    9.11    0.29
  -3   2   3    9.14    0.27
  -3   2   3    9.18    0.24
   2  -2  -3   22.66    0.60
   2  -2  -3   22.93    0.64
   2  -2  -3   22.67    0.58
   2  -2  -3   22.90    0.60
   2  -2  -3   22.71    0.64
   2  -2  -3   23.66    0.59
  -2   2   3   23.11    0.58
  -2   2   3   22.75    0.59
  -2   2   3   22.27    0.60
  -2   2   3   23.06    0.64
  -2   2   3   23.01    0.64
  -2   2   3   22.92    0.60
   1  -2  -3    0.40    0.03
   1  -2  -3    0.42    0.05
   1  -2  -3    0.36    0.04
   1  -2  -3    0.45    0.05
   1  -2  -3    0.35    0.05
   1  -2  -3    0.30    0.03
  -1   2   3    0.42    0.03
  -1   2   3    0.40    0.04
  -1   2   3    0.38    0.05
  -1   2   3    0.37    0.05
  -1   2   3    0.34    0.05
  -1   2   3    0.31    0.03
   0  -2  -3   61.26    1.56
   0  -2  -3   64.46    1.53
   0  -2  -3   62.81    1.65
   0  -2  -3   60.69    1.55
   0  -2  -3   61.07    1.65
   0   2   3   61.75    1.65
   0   2   3   62.33    1.56
   0   2   3   62.12    1.66
   0   2   3   62.39    1.55
  -1  -2  -3   33.73    0.90
  -1  -2  -3   31.38    0.84
  -1  -2  -3   32.15    0.83
  -1  -2  -3   31.94    0.89
  -1  -2  -3   33.46    0.83
   1   2   3   32.71    0.82
   1   2   3   32.69    0.81
   1   2   3   33.19    0.90
   1   2   3   32.58    0.90
  -2  -2  -3    0.04    0.04
  -2  -2  -3    0.04    0.04
  -2  -2  -3    0.00    0.02
  -2  -2  -3    0.11    0.04
  -2  -2  -3   -0.05    0.05
  -2  -2  -3    0.09    0.02
  -2  -2  -3    0.20    0.05
   2   2   3    0.25    0.05
   2   2   3    0.34    0.05
   2   2   3    0.05    0.04
   2   2   3    0.03    0.03
  -3  -2  -3   19.68    0.51
  -3  -2  -3   18.92    0.50
  -3  -2  -3   18.95    0.55
  -3  -2  -3   19.39    0.55
  -3  -2  -3   18.86    0.54
  -3  -2  -3   19.12    0.50
   3   2   3   19.36    0.55
   3   2   3   19.20    0.55
   3   2   3   19.51    0.53
  -4  -2  -3    1.02    0.07
  -4  -2  -3    1.33    0.08
  -4  -2  -3    1.26    0.07
  -4  -2  -3    1.20    0.12
  -4  -2  -3    1.01    0.09
   4   2   3    1.21    0.11
   4   2   3    1.16    0.10
   4   2   3    1.10    0.09
  -5  -2  -3    0.16    0.07
   5   2   3    0.09    0.04
   5   2   3    0.08    0.04
   5   2   3    0.13    0.06
  -6  -2  -3    8.96    0.33
   6   2   3    8.84    0.32
   6   2   3    8.51    0.26
  -7  -2  -3    0.58    0.11
 -11   3   3    0.10    0.08
  10  -3  -3   11.98    0.38
  10  -3  -3   11.15    0.32
 -10   3   3   11.95    0.40
   9  -3  -3    9.85    0.31
   9  -3  -3   10.17    0.30
   9  -3  -3    9.81    0.28
   9  -3  -3   10.26    0.33
  -9   3   3   10.94    0.36
  -9   3   3    9.68    0.28
   8  -3  -3    0.03    0.07
   8  -3  -3   -0.02    0.05
   8  -3  -3    0.22    0.04
   8  -3  -3    0.03    0.04
   8  -3  -3    0.06    0.04
   8  -3  -3    0.01    0.04
  -8   3   3    0.02    0.04
  -8   3   3    0.04    0.06
  -8   3   3    0.07    0.03
  -8   3   3   -0.03    0.04
   7  -3  -3    3.00    0.11
   7  -3  -3    2.78    0.13
   7  -3  -3    2.99    0.13
   7  -3  -3    2.90    0.12
   7  -3  -3    2.89    0.16
   7  -3  -3    2.95    0.13
  -7   3   3    3.03    0.10
  -7   3   3    2.92    0.15
  -7   3   3    2.88    0.13
  -7   3   3    2.99    0.11
  -7   3   3    2.87    0.13
   6  -3  -3   18.81    0.50
   6  -3  -3   19.75    0.56
   6  -3  -3   19.30    0.51
   6  -3  -3   19.50    0.50
   6  -3  -3   19.58    0.56
   6  -3  -3   18.85    0.55
  -6   3   3   19.21    0.55
  -6   3   3   19.74    0.56
  -6   3   3   19.35    0.49
  -6   3   3   19.26    0.56
  -6   3   3   18.73    0.54
   5  -3  -3    4.07    0.13
   5  -3  -3    3.77    0.16
   5  -3  -3    4.32    0.14
   5  -3  -3    4.17    0.17
   5  -3  -3    4.23    0.15
   5  -3  -3    4.22    0.16
   5  -3  -3    4.12    0.16
  -5   3   3    4.05    0.17
  -5   3   3    3.93    0.17
  -5   3   3    4.25    0.16
  -5   3   3    4.09    0.12
  -5   3   3    4.06    0.16
   4  -3  -3   72.12    1.82
   4  -3  -3   70.07    1.77
   4  -3  -3   70.69    1.91
   4  -3  -3   70.89    1.85
   4  -3  -3   72.98    1.76
   4  -3  -3   73.74    1.71
   4  -3  -3   72.09    1.75
   4  -3  -3   72.42    1.91
  -4   3   3   70.68    1.91
  -4   3   3   71.70    1.76
  -4   3   3   72.66    1.91
  -4   3   3   70.04    1.81
  -4   3   3   71.81    1.85
   3  -3  -3  201.49    4.75
   3  -3  -3  191.20    5.14
   3  -3  -3  196.85    4.89
   3  -3  -3  193.25    4.90
   3  -3  -3  200.12    5.14
   3  -3  -3  196.09    4.97
   3  -3  -3  196.24    4.73
  -3   3   3  193.33    5.14
  -3   3   3  195.53    4.92
  -3   3   3  202.58    5.14
  -3   3   3  197.79    4.97
  -3   3   3  197.29    4.80
   2  -3  -3    7.23    0.25
   2  -3  -3    7.44    0.22
   2  -3  -3    7.57    0.25
   2  -3  -3    7.16    0.22
   2  -3  -3    7.31    0.22
   2  -3  -3    7.71    0.23
  -2   3   3    7.44    0.21
  -2   3   3    7.47    0.22
  -2   3   3    7.31    0.25
  -2   3   3    7.61    0.25
  -2   3   3    7.56    0.22
   1  -3  -3    8.39    0.29
   1  -3  -3    9.03    0.29
   1  -3  -3    8.51    0.26
   1  -3  -3    8.88    0.25
   1  -3  -3    8.51    0.24
   1  -3  -3    8.68    0.27
  -1   3   3    8.83    0.29
  -1   3   3    9.33    0.27
  -1   3   3    8.67    0.24
  -1   3   3    9.28    0.29
  -1   3   3    9.06    0.25
   0  -3  -3    5.52    0.16
   0  -3  -3    5.49    0.21
   0  -3  -3    5.67    0.19
   0  -3  -3    5.40    0.19
   0  -3  -3    5.97    0.21
   0  -3  -3    5.38    0.16
   0   3   3    5.60    0.17
   0   3   3    5.71    0.19
   0   3   3    6.19    0.21
   0   3   3    5.37    0.21
  -1  -3  -3    2.76    0.14
  -1  -3  -3    2.75    0.08
  -1  -3  -3    2.84    0.13
  -1  -3  -3    2.83    0.08
  -1  -3  -3    2.76    0.12
  -1  -3  -3    2.88    0.13
  -1  -3  -3    3.03    0.14
  -1  -3  -3    2.81    0.09
   1   3   3    2.63    0.14
   1   3   3    2.99    0.14
   1   3   3    2.77    0.12
   1   3   3    2.76    0.12
  -2  -3  -3    0.15    0.02
  -2  -3  -3    0.19    0.03
  -2  -3  -3    0.22    0.05
  -2  -3  -3   -0.02    0.06
  -2  -3  -3    0.25    0.06
  -2  -3  -3    0.16    0.05
  -2  -3  -3    0.22    0.02
   2   3   3    0.16    0.06
   2   3   3    0.24    0.06
   2   3   3    0.11    0.06
  -3  -3  -3    7.25    0.27
  -3  -3  -3    6.96    0.21
  -3  -3  -3    7.92    0.24
  -3  -3  -3    7.08    0.25
  -3  -3  -3    7.45    0.21
   3   3   3    7.04    0.26
   3   3   3    7.14    0.25
   3   3   3    7.56    0.26
  -4  -3  -3    1.70    0.11
  -4  -3  -3    1.59    0.11
  -4  -3  -3    1.60    0.14
   4   3   3    1.72    0.12
   4   3   3    1.64    0.13
   4   3   3    1.45    0.10
  -5  -3  -3    0.38    0.09
   5   3   3    0.29    0.08
   5   3   3    0.32    0.06
  -6  -3  -3    1.33    0.13
   6   3   3    1.46    0.09
 -12   4   3    0.81    0.13
  11  -4  -3    0.16    0.03
 -11   4   3    0.20    0.10
  10  -4  -3    0.44    0.06
 -10   4   3    0.54    0.11
 -10   4   3    0.58    0.06
   9  -4  -3    2.74    0.14
   9  -4  -3    2.94    0.12
   9  -4  -3    2.79    0.14
   9  -4  -3    2.57    0.13
   9  -4  -3    3.08    0.16
   9  -4  -3    2.85    0.19
  -9   4   3    2.69    0.12
  -9   4   3    2.83    0.14
  -9   4   3    2.84    0.17
   8  -4  -3    0.26    0.06
   8  -4  -3    0.39    0.06
   8  -4  -3    0.35    0.06
   8  -4  -3    0.36    0.05
   8  -4  -3    0.32    0.06
   8  -4  -3    0.17    0.08
  -8   4   3    0.25    0.08
  -8   4   3    0.29    0.05
  -8   4   3    0.30    0.06
  -8   4   3    0.32    0.04
   7  -4  -3   -0.09    0.04
   7  -4  -3    0.04    0.04
   7  -4  -3   -0.12    0.05
   7  -4  -3    0.02    0.03
   7  -4  -3   -0.11    0.06
   7  -4  -3   -0.08    0.05
  -7   4   3    0.03    0.04
  -7   4   3   -0.01    0.06
  -7   4   3    0.00    0.03
  -7   4   3   -0.12    0.05
   6  -4  -3   10.54    0.30
   6  -4  -3   10.59    0.34
   6  -4  -3   10.29    0.35
   6  -4  -3   10.85    0.32
   6  -4  -3   10.65    0.35
   6  -4  -3   10.94    0.30
  -6   4   3   10.68    0.34
  -6   4   3   10.80    0.29
  -6   4   3   11.14    0.36
  -6   4   3   10.61    0.34
  -6   4   3   10.87    0.35
   5  -4  -3    0.10    0.06
   5  -4  -3    0.16    0.03
   5  -4  -3    0.23    0.06
   5  -4  -3    0.30    0.06
   5  -4  -3    0.24    0.04
   5  -4  -3    0.18    0.03
   5  -4  -3    0.21    0.06
  -5   4   3    0.12    0.06
  -5   4   3    0.17    0.05
  -5   4   3    0.27    0.04
  -5   4   3    0.15    0.05
  -5   4   3    0.16    0.06
   4  -4  -3  130.81    3.37
   4  -4  -3  133.09    3.21
   4  -4  -3  134.74    3.23
   4  -4  -3  132.64    3.25
   4  -4  -3  129.71    3.49
   4  -4  -3  132.63    3.32
   4  -4  -3  133.42    3.50
   4  -4  -3  134.45    3.14
  -4   4   3  137.55    3.50
  -4   4   3  127.23    3.49
  -4   4   3  132.53    3.37
  -4   4   3  130.47    3.25
  -4   4   3  133.83    3.32
   3  -4  -3   46.98    1.29
   3  -4  -3   46.88    1.19
   3  -4  -3   47.15    1.23
   3  -4  -3   47.36    1.19
   3  -4  -3   47.60    1.21
   3  -4  -3   47.85    1.29
   3  -4  -3   46.94    1.18
  -3   4   3   46.85    1.21
  -3   4   3   46.71    1.19
  -3   4   3   47.49    1.29
  -3   4   3   48.65    1.29
  -3   4   3   46.01    1.22
   2  -4  -3   10.70    0.31
   2  -4  -3   10.77    0.32
   2  -4  -3   11.48    0.33
   2  -4  -3   10.97    0.36
   2  -4  -3   11.24    0.36
   2  -4  -3   10.94    0.31
  -2   4   3   11.31    0.31
  -2   4   3   10.72    0.31
  -2   4   3   11.53    0.36
  -2   4   3   11.24    0.32
  -2   4   3   11.17    0.36
   1  -4  -3    5.79    0.18
   1  -4  -3    5.80    0.20
   1  -4  -3    5.86    0.22
   1  -4  -3    5.69    0.21
   1  -4  -3    5.75    0.18
   1  -4  -3    5.94    0.23
  -1   4   3    5.87    0.22
  -1   4   3    6.00    0.23
  -1   4   3    5.93    0.20
  -1   4   3    5.97    0.18
   0  -4  -3    8.28    0.23
   0  -4  -3    8.53    0.27
   0  -4  -3    8.47    0.24
   0  -4  -3    8.53    0.30
   0  -4  -3    8.29    0.24
   0  -4  -3    8.53    0.27
   0   4   3    8.55    0.30
   0   4   3    8.31    0.23
   0   4   3    8.82    0.30
  -1  -4  -3    9.19    0.29
  -1  -4  -3    8.64    0.31
  -1  -4  -3    9.43    0.30
  -1  -4  -3    9.28    0.27
  -1  -4  -3    8.99    0.25
  -1  -4  -3    9.00    0.25
   1   4   3    8.86    0.31
   1   4   3    9.14    0.32
   1   4   3    9.35    0.29
  -2  -4  -3   27.55    0.74
  -2  -4  -3   28.64    0.74
  -2  -4  -3   28.42    0.72
  -2  -4  -3   28.77    0.78
  -2  -4  -3   28.57    0.81
   2   4   3   28.79    0.82
   2   4   3   29.02    0.76
   2   4   3   29.46    0.82
  -3  -4  -3   13.71    0.38
  -3  -4  -3   14.14    0.44
  -3  -4  -3   15.23    0.45
   3   4   3   14.22    0.44
   3   4   3   14.18    0.43
  -4  -4  -3    4.31    0.21
   4   4   3    4.55    0.21
   4   4   3    4.02    0.18
  -5  -4  -3    0.05    0.09
   5   4   3   -0.03    0.07
   5   4   3    0.01    0.05
 -12   5   3    0.67    0.12
  11  -5  -3    2.80    0.13
 -11   5   3    2.56    0.21
  10  -5  -3    0.93    0.09
  10  -5  -3    0.99    0.13
 -10   5   3    1.15    0.10
 -10   5   3    1.32    0.13
   9  -5  -3    3.00    0.15
   9  -5  -3    2.94    0.16
   9  -5  -3    2.75    0.13
   9  -5  -3    3.09    0.19
   9  -5  -3    3.10    0.15
  -9   5   3    3.07    0.19
  -9   5   3    2.73    0.13
  -9   5   3    2.83    0.15
   8  -5  -3    8.01    0.29
   8  -5  -3    8.08    0.31
   8  -5  -3    7.69    0.25
   8  -5  -3    8.12    0.25
   8  -5  -3    7.74    0.28
  -8   5   3    8.11    0.29
  -8   5   3    7.92    0.28
  -8   5   3    7.89    0.25
  -8   5   3    8.07    0.24
   7  -5  -3    0.62    0.06
   7  -5  -3    0.47    0.09
   7  -5  -3    0.47    0.09
   7  -5  -3    0.65    0.07
   7  -5  -3    0.38    0.08
  -7   5   3    0.55    0.06
  -7   5   3    0.48    0.08
  -7   5   3    0.37    0.08
   6  -5  -3    9.50    0.34
   6  -5  -3   10.16    0.30
   6  -5  -3    9.16    0.29
   6  -5  -3   10.24    0.34
   6  -5  -3   10.21    0.34
   6  -5  -3    9.81    0.27
  -6   5   3    9.84    0.29
  -6   5   3   10.43    0.32
  -6   5   3    9.91    0.34
   5  -5  -3   19.97    0.54
   5  -5  -3   19.95    0.54
   5  -5  -3   20.05    0.58
   5  -5  -3   20.99    0.61
   5  -5  -3   20.70    0.61
   5  -5  -3   20.15    0.50
  -5   5   3   20.08    0.54
  -5   5   3   19.95    0.57
  -5   5   3   20.09    0.60
  -5   5   3   19.72    0.56
   4  -5  -3   16.75    0.48
   4  -5  -3   17.18    0.46
   4  -5  -3   16.63    0.41
   4  -5  -3   16.51    0.46
   4  -5  -3   16.76    0.52
   4  -5  -3   15.84    0.51
  -4   5   3   17.28    0.52
  -4   5   3   16.94    0.47
  -4   5   3   16.72    0.47
  -4   5   3   16.62    0.51
  -4   5   3   16.93    0.46
   3  -5  -3    0.95    0.10
   3  -5  -3    1.09    0.11
   3  -5  -3    0.98    0.08
   3  -5  -3    1.13    0.09
  -3   5   3    1.05    0.08
  -3   5   3    1.14    0.07
  -3   5   3    1.11    0.10
  -3   5   3    1.07    0.07
  -3   5   3    1.11    0.11
   2  -5  -3    0.50    0.05
   2  -5  -3    0.81    0.09
   2  -5  -3    0.49    0.04
   2  -5  -3    0.46    0.06
  -2   5   3    0.64    0.08
  -2   5   3    0.69    0.09
  -2   5   3    0.69    0.06
  -2   5   3    0.50    0.05
   1  -5  -3   15.72    0.43
   1  -5  -3   15.47    0.41
   1  -5  -3   16.07    0.45
   1  -5  -3   15.71    0.49
  -1   5   3   16.08    0.50
  -1   5   3   16.32    0.50
  -1   5   3   16.10    0.42
   0  -5  -3    0.22    0.07
   0  -5  -3    0.27    0.04
   0  -5  -3    0.33    0.05
   0  -5  -3    0.06    0.07
   0   5   3    0.19    0.08
   0   5   3    0.07    0.07
   0   5   3    0.15    0.06
  -1  -5  -3   12.18    0.34
  -1  -5  -3   12.29    0.39
  -1  -5  -3   12.24    0.41
  -1  -5  -3   12.31    0.35
   1   5   3   12.44    0.38
   1   5   3   11.99    0.41
   1   5   3   12.83    0.42
  -2  -5  -3   20.03    0.58
  -2  -5  -3   19.70    0.59
  -2  -5  -3   19.41    0.52
   2   5   3   19.24    0.56
   2   5   3   19.82    0.60
  -3  -5  -3    0.21    0.09
   3   5   3    0.36    0.08
   3   5   3    0.25    0.08
  -4  -5  -3    2.19    0.19
   4   5   3    2.37    0.17
   4   5   3    2.07    0.14
  12  -6  -3    0.09    0.05
 -12   6   3   -0.03    0.10
  11  -6  -3    0.56    0.12
  11  -6  -3    0.61    0.08
 -11   6   3    0.44    0.12
  10  -6  -3    0.39    0.10
  10  -6  -3    0.16    0.07
 -10   6   3    0.21    0.06
 -10   6   3    0.31    0.10
   9  -6  -3    0.58    0.09
   9  -6  -3    0.71    0.11
  -9   6   3    0.59    0.10
  -9   6   3    0.71    0.09
   8  -6  -3    4.91    0.22
   8  -6  -3    4.64    0.23
   8  -6  -3    4.74    0.22
  -8   6   3    4.89    0.22
  -8   6   3    4.77    0.17
  -8   6   3    4.62    0.21
   7  -6  -3   18.42    0.56
   7  -6  -3   17.63    0.55
   7  -6  -3   18.16    0.55
  -7   6   3   18.07    0.53
  -7   6   3   18.11    0.56
  -7   6   3   17.27    0.49
   6  -6  -3   97.40    2.55
   6  -6  -3   97.01    2.47
   6  -6  -3   88.79    2.55
   6  -6  -3   92.91    2.36
  -6   6   3   99.24    2.55
  -6   6   3   94.94    2.42
  -6   6   3   95.17    2.36
   5  -6  -3   15.27    0.43
   5  -6  -3   15.72    0.49
   5  -6  -3   14.74    0.46
   5  -6  -3   14.94    0.48
  -5   6   3   15.42    0.49
  -5   6   3   15.07    0.44
  -5   6   3   15.02    0.43
  -5   6   3   14.40    0.44
   4  -6  -3   19.00    0.58
   4  -6  -3   18.98    0.54
   4  -6  -3   18.99    0.52
  -4   6   3   18.27    0.53
  -4   6   3   19.75    0.59
  -4   6   3   18.95    0.52
   3  -6  -3    2.16    0.15
   3  -6  -3    2.09    0.12
   3  -6  -3    2.40    0.13
   3  -6  -3    2.16    0.06
  -3   6   3    2.47    0.16
  -3   6   3    2.37    0.11
  -3   6   3    2.26    0.11
   2  -6  -3    2.07    0.08
   2  -6  -3    1.96    0.11
   2  -6  -3    1.61    0.15
   2  -6  -3    1.90    0.13
  -2   6   3    1.90    0.17
  -2   6   3    2.04    0.09
  -2   6   3    1.90    0.15
   1  -6  -3    0.02    0.04
   1  -6  -3   -0.01    0.06
   1  -6  -3    0.04    0.03
   1  -6  -3   -0.05    0.07
  -1   6   3   -0.07    0.07
  -1   6   3    0.01    0.02
  -1   6   3   -0.02    0.07
   0  -6  -3   10.76    0.38
   0  -6  -3   10.62    0.35
   0  -6  -3   10.66    0.31
   0  -6  -3   11.23    0.31
   0   6   3   11.00    0.39
   0   6   3   10.37    0.34
   0   6   3   11.42    0.39
  -1  -6  -3    5.22    0.25
  -1  -6  -3    5.19    0.24
   1   6   3    5.45    0.25
   1   6   3    4.82    0.22
  -2  -6  -3    1.51    0.13
   2   6   3    1.26    0.12
   2   6   3    1.55    0.14
  -3  -6  -3    4.37    0.23
   3   6   3    4.46    0.22
   3   6   3    4.17    0.21
  12  -7  -3    0.57    0.08
  12  -7  -3    0.67    0.14
 -12   7   3    0.55    0.14
  11  -7  -3    0.45    0.08
  11  -7  -3    0.52    0.12
 -11   7   3    0.56    0.12
  10  -7  -3    0.09    0.09
  10  -7  -3    0.15    0.07
 -10   7   3    0.21    0.09
   9  -7  -3    4.90    0.25
   9  -7  -3    4.33    0.22
  -9   7   3    4.88    0.24
  -9   7   3    4.55    0.22
   8  -7  -3    2.69    0.19
   8  -7  -3    2.64    0.18
   8  -7  -3    2.54    0.17
  -8   7   3    2.80    0.18
  -8   7   3    2.85    0.17
   7  -7  -3    1.05    0.11
   7  -7  -3    0.91    0.08
   7  -7  -3    0.89    0.11
  -7   7   3    0.98    0.10
  -7   7   3    1.12    0.12
   6  -7  -3    0.57    0.09
   6  -7  -3    0.73    0.11
   6  -7  -3    0.49    0.07
  -6   7   3    0.65    0.11
  -6   7   3    0.66    0.09
   5  -7  -3    1.40    0.12
   5  -7  -3    1.87    0.16
   5  -7  -3    1.62    0.11
  -5   7   3    1.58    0.15
  -5   7   3    1.48    0.11
   4  -7  -3    1.97    0.16
   4  -7  -3    1.62    0.13
   4  -7  -3    1.75    0.12
  -4   7   3    1.89    0.11
  -4   7   3    1.85    0.11
  -4   7   3    2.01    0.16
   3  -7  -3    7.23    0.26
   3  -7  -3    6.99    0.25
   3  -7  -3    6.94    0.29
  -3   7   3    7.20    0.23
  -3   7   3    7.15    0.30
   2  -7  -3    3.20    0.17
   2  -7  -3    3.09    0.14
   2  -7  -3    3.02    0.10
   2  -7  -3    3.30    0.19
  -2   7   3    3.02    0.11
  -2   7   3    3.08    0.19
   1  -7  -3    0.41    0.09
   1  -7  -3    0.42    0.06
   1  -7  -3    0.51    0.10
  -1   7   3    0.47    0.10
  -1   7   3    0.40    0.08
   0  -7  -3   28.79    0.84
   0  -7  -3   27.64    0.78
   0   7   3   28.62    0.84
   0   7   3   27.02    0.75
  -1  -7  -3    0.28    0.10
   1   7   3    0.27    0.10
   1   7   3    0.14    0.08
  -2  -7  -3    0.04    0.09
   2   7   3    0.15    0.09
   2   7   3    0.14    0.08
  11  -8  -3    0.22    0.11
  11  -8  -3    0.27    0.09
 -11   8   3    0.21    0.11
  10  -8  -3    1.07    0.12
  10  -8  -3    0.99    0.14
 -10   8   3    1.19    0.14
   9  -8  -3   -0.05    0.08
   9  -8  -3    0.15    0.09
  -9   8   3    0.00    0.08
  -9   8   3   -0.02    0.08
   8  -8  -3    0.53    0.10
   8  -8  -3    0.47    0.10
  -8   8   3    0.65    0.11
  -8   8   3    0.80    0.11
   7  -8  -3    1.10    0.11
   7  -8  -3    1.05    0.12
   7  -8  -3    1.07    0.13
  -7   8   3    0.95    0.12
  -7   8   3    1.04    0.11
   6  -8  -3    0.00    0.07
   6  -8  -3    0.00    0.05
   6  -8  -3   -0.07    0.08
  -6   8   3   -0.08    0.08
  -6   8   3   -0.05    0.06
   5  -8  -3    0.27    0.08
   5  -8  -3    0.33    0.07
   5  -8  -3    0.40    0.09
  -5   8   3    0.32    0.06
  -5   8   3    0.26    0.08
   4  -8  -3    4.18    0.23
   4  -8  -3    3.94    0.19
   4  -8  -3    3.83    0.18
  -4   8   3    3.89    0.23
  -4   8   3    3.89    0.16
   3  -8  -3    2.09    0.16
   3  -8  -3    2.32    0.14
   3  -8  -3    2.08    0.18
  -3   8   3    2.23    0.10
  -3   8   3    2.33    0.19
   2  -8  -3    0.06    0.05
   2  -8  -3    0.03    0.08
   2  -8  -3    0.10    0.09
  -2   8   3    0.09    0.09
   1  -8  -3    0.26    0.10
   1  -8  -3    0.16    0.09
  -1   8   3    0.16    0.07
  -1   8   3    0.12    0.10
   0  -8  -3   -0.19    0.08
   0   8   3   -0.05    0.09
   0   8   3    0.01    0.07
  -1  -8  -3    0.93    0.13
   1   8   3    0.80    0.12
   1   8   3    0.90    0.11
  11  -9  -3   -0.05    0.10
  11  -9  -3   -0.12    0.08
 -11   9   3   -0.12    0.09
  10  -9  -3   -0.01    0.09
  10  -9  -3   -0.07    0.08
 -10   9   3    0.05    0.09
   9  -9  -3    0.41    0.11
   9  -9  -3    0.52    0.12
  -9   9   3    0.42    0.12
  -9   9   3    0.45    0.11
   8  -9  -3    1.58    0.15
   8  -9  -3    1.38    0.15
  -8   9   3    1.57    0.16
  -8   9   3    1.62    0.14
   7  -9  -3   -0.09    0.08
   7  -9  -3    0.04    0.09
   7  -9  -3    0.12    0.06
  -7   9   3   -0.01    0.09
  -7   9   3   -0.08    0.07
   6  -9  -3    0.13    0.08
   6  -9  -3    0.19    0.06
   6  -9  -3    0.15    0.09
  -6   9   3    0.36    0.07
  -6   9   3    0.16    0.10
   5  -9  -3   -0.18    0.08
   5  -9  -3   -0.05    0.07
   5  -9  -3   -0.03    0.06
  -5   9   3    0.02    0.05
  -5   9   3    0.03    0.10
   4  -9  -3    1.53    0.16
   4  -9  -3    1.93    0.15
   4  -9  -3    1.82    0.16
  -4   9   3    1.70    0.10
  -4   9   3    1.66    0.17
   3  -9  -3    0.23    0.11
   3  -9  -3    0.28    0.09
  -3   9   3    0.38    0.12
   2  -9  -3    1.91    0.18
   2  -9  -3    1.98    0.20
  -2   9   3    1.76    0.17
  -2   9   3    1.98    0.15
   1  -9  -3    0.08    0.09
  -1   9   3    0.03    0.07
  -1   9   3   -0.11    0.10
   9 -10  -3    0.17    0.10
   9 -10  -3    0.17    0.11
  -9  10   3    0.08    0.11
  -9  10   3    0.13    0.09
   8 -10  -3    2.27    0.21
   8 -10  -3    2.85    0.22
  -8  10   3    2.37    0.18
  -8  10   3    2.57    0.22
   7 -10  -3   -0.03    0.10
   7 -10  -3    0.08    0.06
   7 -10  -3    0.07    0.09
  -7  10   3    0.08    0.07
  -7  10   3    0.02    0.10
   6 -10  -3   -0.06    0.10
   6 -10  -3   -0.04    0.06
   6 -10  -3    0.00    0.08
  -6  10   3    0.03    0.10
  -6  10   3    0.02    0.06
   5 -10  -3    0.29    0.09
   5 -10  -3    0.31    0.12
   5 -10  -3    0.34    0.09
  -5  10   3    0.21    0.12
   4 -10  -3   -0.04    0.08
   4 -10  -3   -0.01    0.11
  -4  10   3   -0.19    0.10
   3 -10  -3    0.07    0.11
   3 -10  -3    0.05    0.09
  -3  10   3    0.10    0.07
  -3  10   3    0.04    0.11
  -5  13  -4    2.92    0.23
   5 -13   4    3.13    0.25
   5 -13   4    3.30    0.25
  -6  13  -4    0.22    0.10
  -6  13  -4    0.10    0.10
   6 -13   4    0.02    0.10
  -2  12  -4    0.80    0.13
   2 -12   4    0.79    0.12
   2 -12   4    0.74    0.12
   2 -12   4    0.69    0.11
  -3  12  -4    0.06    0.09
  -3  12  -4    0.02    0.07
   3 -12   4    0.00    0.08
   3 -12   4   -0.10    0.07
   3 -12   4   -0.05    0.10
  -4  12  -4    2.68    0.21
  -4  12  -4    2.68    0.18
   4 -12   4    2.85    0.23
   4 -12   4    3.02    0.22
  -5  12  -4    0.11    0.09
  -5  12  -4    0.04    0.09
   5 -12   4   -0.03    0.10
   5 -12   4    0.18    0.09
  -6  12  -4    0.10    0.09
  -6  12  -4    0.02    0.09
   6 -12   4   -0.01    0.09
   6 -12   4    0.13    0.10
  -7  12  -4    1.02    0.13
   7 -12   4    0.63    0.12
   7 -12   4    1.24    0.15
  -8  12  -4    0.08    0.09
  -8  12  -4   -0.03    0.08
   8 -12   4   -0.06    0.08
   8 -12   4    0.07    0.10
  -9  12  -4    0.34    0.11
   9 -12   4    0.38    0.13
   0  11  -4   -0.10    0.08
   0 -11   4   -0.04    0.08
   0 -11   4    0.04    0.07
   0 -11   4    0.15    0.09
  -1  11  -4    0.35    0.10
   1 -11   4    0.37    0.09
   1 -11   4    0.48    0.10
   1 -11   4    0.66    0.10
  -2  11  -4    0.97    0.11
  -2  11  -4    0.86    0.12
   2 -11   4    1.08    0.12
   2 -11   4    1.11    0.14
   2 -11   4    0.93    0.12
  -3  11  -4    5.73    0.28
  -3  11  -4    5.70    0.25
   3 -11   4    5.59    0.27
   3 -11   4    5.84    0.28
   3 -11   4    5.54    0.25
  -4  11  -4    5.08    0.24
  -4  11  -4    5.25    0.26
   4 -11   4    5.31    0.27
   4 -11   4    5.40    0.26
  -5  11  -4    0.80    0.12
  -5  11  -4    0.72    0.11
   5 -11   4    0.85    0.12
   5 -11   4    1.02    0.13
  -6  11  -4   -0.01    0.07
  -6  11  -4   -0.12    0.07
   6 -11   4   -0.11    0.08
   6 -11   4    0.08    0.08
  -7  11  -4    0.27    0.09
  -7  11  -4    0.53    0.10
   7 -11   4    0.33    0.10
   7 -11   4    0.29    0.09
  -8  11  -4    0.14    0.08
  -8  11  -4    0.14    0.08
   8 -11   4   -0.12    0.09
   8 -11   4    0.05    0.08
  -9  11  -4    0.13    0.09
   9 -11   4    0.02    0.11
   9 -11   4    0.05    0.08
 -10  11  -4   -0.06    0.09
  10 -11   4   -0.01    0.11
  10 -11   4    0.05    0.08
   2  10  -4    1.89    0.16
  -2 -10   4    2.09    0.17
  -2 -10   4    2.08    0.16
   1  10  -4    0.00    0.05
   1  10  -4   -0.10    0.07
  -1 -10   4    0.24    0.08
  -1 -10   4   -0.04    0.07
  -1 -10   4    0.05    0.08
   0  10  -4    2.75    0.18
   0  10  -4    3.00    0.14
   0 -10   4    2.99    0.18
   0 -10   4    2.90    0.18
   0 -10   4    2.96    0.19
  -1  10  -4    6.76    0.26
  -1  10  -4    6.51    0.22
  -1  10  -4    6.89    0.29
   1 -10   4    6.86    0.27
   1 -10   4    6.48    0.28
   1 -10   4    7.13    0.27
  -2  10  -4    0.28    0.09
  -2  10  -4    0.28    0.05
  -2  10  -4    0.21    0.08
   2 -10   4    0.41    0.10
   2 -10   4    0.29    0.08
   2 -10   4    0.33    0.08
  -3  10  -4    4.35    0.21
  -3  10  -4    4.33    0.23
  -3  10  -4    4.28    0.15
   3 -10   4    4.62    0.22
   3 -10   4    4.95    0.24
   3 -10   4    4.84    0.23
  -4  10  -4    7.58    0.28
  -4  10  -4    7.23    0.30
  -4  10  -4    7.21    0.23
   4 -10   4    7.33    0.31
   4 -10   4    7.65    0.30
  -5  10  -4    0.88    0.10
  -5  10  -4    0.82    0.11
   5 -10   4    1.04    0.12
   5 -10   4    0.89    0.11
  -6  10  -4    1.77    0.15
  -6  10  -4    1.78    0.15
   6 -10   4    1.54    0.14
   6 -10   4    1.57    0.15
  -7  10  -4    0.73    0.10
  -7  10  -4    0.91    0.11
   7 -10   4    0.62    0.12
   7 -10   4    0.71    0.10
  -8  10  -4    0.93    0.11
  -8  10  -4    1.14    0.12
   8 -10   4    0.97    0.14
   8 -10   4    1.09    0.12
  -9  10  -4    0.12    0.09
   9 -10   4    0.19    0.10
   9 -10   4    0.09    0.08
 -10  10  -4    0.50    0.11
  10 -10   4    0.52    0.09
  10 -10   4    0.65    0.13
   3   9  -4    2.80    0.17
   3   9  -4    2.38    0.17
  -3  -9   4    2.99    0.19
  -3  -9   4    2.96    0.18
   2   9  -4    1.97    0.15
   2   9  -4    1.97    0.14
  -2  -9   4    1.79    0.15
  -2  -9   4    1.93    0.15
  -2  -9   4    1.63    0.15
   1   9  -4    6.01    0.22
   1   9  -4    6.02    0.26
  -1  -9   4    5.94    0.24
  -1  -9   4    5.80    0.24
  -1  -9   4    5.83    0.26
   0   9  -4    0.21    0.05
   0   9  -4    0.16    0.08
   0  -9   4    0.14    0.07
   0  -9   4    0.14    0.07
   0  -9   4    0.15    0.07
  -1   9  -4   -0.10    0.06
  -1   9  -4   -0.02    0.03
  -1   9  -4    0.07    0.07
  -1   9  -4   -0.04    0.04
   1  -9   4   -0.09    0.06
   1  -9   4   -0.09    0.06
  -2   9  -4   31.54    0.85
  -2   9  -4   31.01    0.84
  -2   9  -4   31.09    0.79
  -2   9  -4   31.40    0.93
   2  -9   4   34.58    0.94
   2  -9   4   31.91    0.86
   2  -9   4   31.95    0.89
  -3   9  -4    8.76    0.30
  -3   9  -4    9.20    0.34
   3  -9   4    9.51    0.35
   3  -9   4    9.45    0.33
  -4   9  -4    0.39    0.08
  -4   9  -4    0.46    0.08
  -4   9  -4    0.43    0.05
   4  -9   4    0.30    0.08
   4  -9   4    0.35    0.09
  -5   9  -4    1.56    0.13
  -5   9  -4    1.89    0.08
  -5   9  -4    1.50    0.14
   5  -9   4    1.72    0.15
   5  -9   4    1.50    0.14
  -6   9  -4    0.51    0.04
  -6   9  -4    0.43    0.08
  -6   9  -4    0.48    0.04
  -6   9  -4    0.41    0.08
   6  -9   4    0.49    0.08
   6  -9   4    0.33    0.09
  -7   9  -4    0.01    0.06
  -7   9  -4    0.06    0.07
   7  -9   4    0.06    0.07
   7  -9   4    0.01    0.07
   7  -9   4   -0.15    0.08
  -8   9  -4   12.01    0.42
  -8   9  -4   12.70    0.41
   8  -9   4   12.83    0.46
   8  -9   4   12.04    0.42
  -9   9  -4    0.77    0.12
   9  -9   4    1.04    0.14
   9  -9   4    1.29    0.13
 -10   9  -4    2.49    0.19
  10  -9   4    2.38    0.16
  10  -9   4    2.80    0.23
   5   8  -4    0.55    0.09
   5   8  -4    0.55    0.10
  -5  -8   4    0.49    0.11
  -5  -8   4    0.57    0.10
   4   8  -4    7.41    0.29
   4   8  -4    7.47    0.29
  -4  -8   4    7.82    0.30
  -4  -8   4    7.78    0.29
   3   8  -4    0.36    0.08
   3   8  -4    0.32    0.07
  -3  -8   4    0.38    0.09
  -3  -8   4    0.34    0.08
   2   8  -4    0.14    0.07
   2   8  -4    0.13    0.05
  -2  -8   4    0.10    0.06
  -2  -8   4    0.12    0.06
  -2  -8   4    0.13    0.06
   1   8  -4    1.74    0.07
   1   8  -4    2.00    0.14
   1   8  -4    1.78    0.12
   1   8  -4    1.76    0.14
  -1  -8   4    2.01    0.13
  -1  -8   4    2.00    0.13
  -1  -8   4    1.93    0.14
  -1  -8   4    1.82    0.13
   0   8  -4    1.84    0.08
   0   8  -4    1.50    0.11
   0   8  -4    2.09    0.14
   0   8  -4    1.71    0.14
   0   8  -4    1.83    0.10
   0  -8   4    1.88    0.14
   0  -8   4    1.80    0.12
   0  -8   4    1.66    0.13
  -1   8  -4   25.26    0.67
  -1   8  -4   25.48    0.67
  -1   8  -4   25.17    0.74
  -1   8  -4   24.69    0.64
  -1   8  -4   25.42    0.77
   1  -8   4   24.98    0.71
   1  -8   4   24.12    0.74
   1  -8   4   26.22    0.69
  -2   8  -4   32.39    0.86
  -2   8  -4   31.97    0.85
  -2   8  -4   33.00    0.94
   2  -8   4   33.03    0.87
   2  -8   4   33.01    0.90
  -3   8  -4   52.73    1.46
  -3   8  -4   53.41    1.34
   3  -8   4   53.33    1.42
  -4   8  -4    2.34    0.15
  -4   8  -4    2.40    0.14
  -4   8  -4    2.68    0.10
   4  -8   4    2.01    0.15
   4  -8   4    2.52    0.15
   4  -8   4    2.52    0.15
  -5   8  -4   14.91    0.48
  -5   8  -4   15.46    0.44
  -5   8  -4   14.95    0.38
  -5   8  -4   15.18    0.38
   5  -8   4   15.41    0.47
   5  -8   4   14.94    0.48
   5  -8   4   14.71    0.47
  -6   8  -4    0.60    0.08
  -6   8  -4    0.65    0.08
  -6   8  -4    0.60    0.04
  -6   8  -4    0.65    0.05
   6  -8   4    0.80    0.09
   6  -8   4    0.46    0.08
   6  -8   4    0.70    0.10
  -7   8  -4   16.35    0.52
  -7   8  -4   17.02    0.49
  -7   8  -4   16.41    0.44
   7  -8   4   17.13    0.53
   7  -8   4   16.26    0.51
   7  -8   4   16.13    0.52
  -8   8  -4    6.33    0.26
  -8   8  -4    6.52    0.26
   8  -8   4    6.45    0.27
   8  -8   4    7.27    0.31
  -9   8  -4    0.05    0.08
   9  -8   4    0.04    0.09
   9  -8   4    0.09    0.06
 -10   8  -4    3.34    0.19
  10  -8   4    2.65    0.16
  10  -8   4    3.04    0.23
 -11   8  -4    0.16    0.08
  11  -8   4    0.01    0.10
  11  -8   4    0.02    0.06
   6   7  -4    4.67    0.24
   6   7  -4    4.39    0.20
  -6  -7   4    4.41    0.24
  -6  -7   4    4.84    0.22
   5   7  -4    6.00    0.26
   5   7  -4    5.75    0.23
  -5  -7   4    6.03    0.26
  -5  -7   4    6.09    0.24
   4   7  -4    6.48    0.25
   4   7  -4    6.09    0.25
  -4  -7   4    6.70    0.25
  -4  -7   4    6.27    0.25
   3   7  -4    1.70    0.12
   3   7  -4    1.73    0.13
   3   7  -4    1.74    0.12
  -3  -7   4    1.60    0.10
  -3  -7   4    1.48    0.11
  -3  -7   4    1.26    0.11
  -3  -7   4    1.75    0.12
   2   7  -4   25.62    0.75
   2   7  -4   25.56    0.66
   2   7  -4   26.08    0.76
   2   7  -4   26.38    0.68
  -2  -7   4   26.52    0.70
  -2  -7   4   25.23    0.75
  -2  -7   4   26.09    0.67
  -2  -7   4   25.80    0.69
   1   7  -4   14.95    0.46
   1   7  -4   14.70    0.46
   1   7  -4   14.34    0.41
   1   7  -4   14.69    0.40
   1   7  -4   14.08    0.39
  -1  -7   4   15.05    0.40
  -1  -7   4   14.61    0.46
  -1  -7   4   14.81    0.42
  -1  -7   4   13.86    0.41
   0   7  -4   16.62    0.52
   0   7  -4   17.33    0.46
   0   7  -4   17.64    0.53
   0   7  -4   16.91    0.45
   0   7  -4   16.81    0.47
   0  -7   4   17.85    0.53
   0  -7   4   17.61    0.48
   0  -7   4   17.37    0.46
   0  -7   4   17.41    0.51
   0  -7   4   17.11    0.47
  -1   7  -4    1.09    0.07
  -1   7  -4    0.75    0.08
  -1   7  -4    0.65    0.08
  -1   7  -4    0.78    0.07
   1  -7   4    0.87    0.08
   1  -7   4    0.62    0.07
   1  -7   4    1.09    0.10
   1  -7   4    1.04    0.09
  -2   7  -4    4.14    0.18
  -2   7  -4    3.75    0.15
  -2   7  -4    4.05    0.18
   2  -7   4    4.08    0.17
   2  -7   4    3.87    0.17
   2  -7   4    3.96    0.18
   2  -7   4    3.86    0.15
  -3   7  -4    0.12    0.05
  -3   7  -4    0.12    0.05
  -3   7  -4    0.08    0.05
   3  -7   4    0.14    0.05
   3  -7   4    0.06    0.05
   3  -7   4    0.09    0.05
  -4   7  -4   18.92    0.52
  -4   7  -4   18.69    0.46
  -4   7  -4   18.90    0.56
   4  -7   4   18.20    0.56
   4  -7   4   19.38    0.57
   4  -7   4   19.16    0.55
  -5   7  -4    2.73    0.10
  -5   7  -4    2.67    0.14
  -5   7  -4    2.90    0.08
  -5   7  -4    2.83    0.14
   5  -7   4    2.81    0.16
   5  -7   4    2.80    0.14
   5  -7   4    2.70    0.14
  -6   7  -4    1.34    0.11
  -6   7  -4    1.02    0.10
  -6   7  -4    1.06    0.08
   6  -7   4    1.13    0.10
   6  -7   4    1.01    0.10
   6  -7   4    1.45    0.14
  -7   7  -4    1.84    0.14
  -7   7  -4    1.56    0.11
  -7   7  -4    1.59    0.13
   7  -7   4    1.58    0.13
   7  -7   4    2.33    0.18
   7  -7   4    1.53    0.13
  -8   7  -4   -0.02    0.07
  -8   7  -4   -0.01    0.05
  -8   7  -4    0.14    0.03
   8  -7   4    0.11    0.08
   8  -7   4    0.06    0.05
  -9   7  -4    0.38    0.08
   9  -7   4    0.52    0.10
   9  -7   4    0.60    0.07
 -10   7  -4    0.77    0.11
  10  -7   4    0.75    0.12
  10  -7   4    0.65    0.08
 -11   7  -4    0.35    0.09
  11  -7   4    0.27    0.10
   7   6  -4    1.62    0.15
  -7  -6   4    1.47    0.14
   6   6  -4    0.97    0.11
   6   6  -4    0.90    0.08
  -6  -6   4    0.89    0.09
  -6  -6   4    0.74    0.11
  -6  -6   4    0.66    0.09
   5   6  -4   14.10    0.45
   5   6  -4   14.97    0.45
  -5  -6   4   14.87    0.43
  -5  -6   4   14.32    0.45
   4   6  -4    0.57    0.08
   4   6  -4    0.49    0.08
   4   6  -4    0.52    0.07
  -4  -6   4    0.48    0.07
  -4  -6   4    0.36    0.07
  -4  -6   4    0.61    0.08
   3   6  -4    0.40    0.04
   3   6  -4    0.39    0.07
   3   6  -4    0.38    0.07
   3   6  -4    0.39    0.07
  -3  -6   4    0.58    0.08
  -3  -6   4    0.35    0.06
  -3  -6   4    0.36    0.06
  -3  -6   4    0.50    0.05
  -3  -6   4    0.47    0.05
   2   6  -4   10.57    0.31
   2   6  -4   10.32    0.34
   2   6  -4   10.26    0.31
   2   6  -4   10.05    0.29
   2   6  -4   10.55    0.34
  -2  -6   4   10.55    0.31
  -2  -6   4   10.66    0.30
  -2  -6   4   10.48    0.34
  -2  -6   4   10.73    0.32
  -2  -6   4   10.55    0.29
   1   6  -4    0.71    0.06
   1   6  -4    0.75    0.08
   1   6  -4    0.79    0.06
   1   6  -4    0.88    0.09
   1   6  -4    0.84    0.05
   1   6  -4    0.84    0.07
  -1  -6   4    0.95    0.07
  -1  -6   4    0.90    0.05
  -1  -6   4    0.95    0.09
  -1  -6   4    0.84    0.08
  -1  -6   4    0.91    0.08
   0   6  -4    0.86    0.06
   0   6  -4    0.87    0.07
   0   6  -4    0.83    0.07
   0   6  -4    0.78    0.08
   0   6  -4    0.83    0.08
   0  -6   4    0.84    0.08
   0  -6   4    0.88    0.07
   0  -6   4    1.06    0.07
   0  -6   4    0.89    0.08
   0  -6   4    0.92    0.08
  -1   6  -4   33.68    0.88
  -1   6  -4   35.41    0.90
  -1   6  -4   33.31    0.97
  -1   6  -4   35.29    0.89
  -1   6  -4   34.92    0.97
   1  -6   4   35.03    0.90
   1  -6   4   34.42    0.97
   1  -6   4   34.15    0.93
   1  -6   4   35.52    0.88
   1  -6   4   35.51    0.85
   1  -6   4   35.80    0.97
  -2   6  -4   11.03    0.35
  -2   6  -4   10.88    0.32
  -2   6  -4   10.62    0.32
  -2   6  -4   11.17    0.35
   2  -6   4   10.96    0.32
   2  -6   4   11.01    0.34
   2  -6   4   11.08    0.35
   2  -6   4   11.11    0.35
  -3   6  -4   33.53    0.94
  -3   6  -4   33.90    0.87
  -3   6  -4   34.40    0.88
  -3   6  -4   33.98    0.95
   3  -6   4   34.00    0.87
   3  -6   4   34.10    0.95
   3  -6   4   34.37    0.95
   3  -6   4   33.93    0.92
  -4   6  -4   19.49    0.53
  -4   6  -4   19.42    0.55
  -4   6  -4   19.91    0.57
  -4   6  -4   19.43    0.53
  -4   6  -4   19.44    0.49
  -4   6  -4   19.31    0.57
   4  -6   4   19.76    0.56
   4  -6   4   19.54    0.57
   4  -6   4   19.59    0.53
   4  -6   4   19.71    0.57
  -5   6  -4    0.82    0.06
  -5   6  -4    0.79    0.08
  -5   6  -4    0.56    0.07
   5  -6   4    0.82    0.08
   5  -6   4    0.70    0.08
   5  -6   4    0.68    0.07
  -6   6  -4    7.46    0.25
  -6   6  -4    7.31    0.26
  -6   6  -4    7.00    0.18
  -6   6  -4    7.13    0.22
   6  -6   4    7.04    0.26
   6  -6   4    7.35    0.26
   6  -6   4    7.69    0.28
  -7   6  -4    2.04    0.07
  -7   6  -4    1.93    0.13
  -7   6  -4    1.99    0.12
   7  -6   4    1.86    0.12
   7  -6   4    2.05    0.12
   7  -6   4    2.08    0.16
  -8   6  -4    0.13    0.05
  -8   6  -4    0.09    0.06
  -8   6  -4    0.11    0.03
   8  -6   4    0.14    0.05
   8  -6   4   -0.09    0.07
   8  -6   4    0.11    0.03
  -9   6  -4    0.02    0.06
   9  -6   4   -0.02    0.08
   9  -6   4    0.04    0.05
 -10   6  -4    0.03    0.07
  10  -6   4    0.01    0.08
   7   5  -4    0.31    0.05
   7   5  -4    0.21    0.08
  -7  -5   4    0.37    0.09
  -7  -5   4    0.36    0.08
   6   5  -4    0.45    0.09
   6   5  -4    0.41    0.06
  -6  -5   4    0.61    0.07
  -6  -5   4    0.59    0.07
  -6  -5   4    0.80    0.10
   5   5  -4    3.57    0.15
   5   5  -4    3.60    0.18
   5   5  -4    3.36    0.15
  -5  -5   4    3.32    0.15
  -5  -5   4    3.46    0.13
  -5  -5   4    3.59    0.17
  -5  -5   4    3.46    0.15
   4   5  -4   12.44    0.35
   4   5  -4   12.85    0.39
   4   5  -4   12.68    0.38
   4   5  -4   12.86    0.39
   4   5  -4   12.51    0.37
  -4  -5   4   12.68    0.36
  -4  -5   4   12.75    0.39
  -4  -5   4   13.36    0.38
  -4  -5   4   12.39    0.35
  -4  -5   4   12.62    0.33
  -4  -5   4   12.43    0.38
   3   5  -4    0.66    0.07
   3   5  -4    0.79    0.07
   3   5  -4    0.60    0.07
   3   5  -4    0.60    0.06
   3   5  -4    0.70    0.07
  -3  -5   4    0.85    0.06
  -3  -5   4    0.66    0.06
  -3  -5   4    0.57    0.06
  -3  -5   4    0.75    0.05
  -3  -5   4    0.72    0.06
  -3  -5   4    0.74    0.08
   2   5  -4   21.59    0.54
   2   5  -4   21.26    0.56
   2   5  -4   20.85    0.61
   2   5  -4   21.96    0.61
   2   5  -4   21.30    0.56
   2   5  -4   21.48    0.56
  -2  -5   4   21.27    0.54
  -2  -5   4   21.27    0.56
  -2  -5   4   21.02    0.61
  -2  -5   4   21.47    0.56
  -2  -5   4   20.11    0.61
  -2  -5   4   21.60    0.54
   1   5  -4   22.53    0.56
   1   5  -4   21.28    0.62
   1   5  -4   21.48    0.57
   1   5  -4   21.70    0.57
   1   5  -4   21.46    0.62
  -1  -5   4   22.36    0.62
  -1  -5   4   21.81    0.54
  -1  -5   4   21.52    0.62
  -1  -5   4   22.20    0.57
  -1  -5   4   22.41    0.56
  -1  -5   4   21.55    0.56
   0   5  -4    3.46    0.12
   0   5  -4    3.38    0.12
   0   5  -4    3.31    0.12
   0   5  -4    3.31    0.14
   0  -5   4    3.38    0.12
   0  -5   4    3.52    0.12
   0  -5   4    3.44    0.09
   0  -5   4    3.41    0.13
   0  -5   4    3.45    0.14
  -1   5  -4   23.77    0.61
  -1   5  -4   23.11    0.59
  -1   5  -4   23.34    0.65
  -1   5  -4   23.40    0.60
  -1   5  -4   21.42    0.65
   1  -5   4   23.72    0.60
   1  -5   4   23.03    0.63
   1  -5   4   22.98    0.56
   1  -5   4   21.84    0.65
   1  -5   4   24.04    0.66
  -2   5  -4   44.67    1.33
  -2   5  -4   51.55    1.24
  -2   5  -4   50.03    1.23
  -2   5  -4   50.43    1.33
   2  -5   4   50.00    1.33
   2  -5   4   49.54    1.29
   2  -5   4   52.39    1.23
   2  -5   4   45.69    1.33
  -3   5  -4    8.95    0.27
  -3   5  -4    8.89    0.27
  -3   5  -4    9.23    0.29
  -3   5  -4    8.98    0.29
   3  -5   4    8.65    0.29
   3  -5   4    8.78    0.28
   3  -5   4    9.26    0.29
   3  -5   4    8.87    0.27
  -4   5  -4    6.11    0.22
  -4   5  -4    6.57    0.21
  -4   5  -4    6.40    0.22
  -4   5  -4    6.39    0.18
  -4   5  -4    6.43    0.21
   4  -5   4    6.39    0.22
   4  -5   4    6.14    0.21
   4  -5   4    6.53    0.22
   4  -5   4    6.19    0.22
  -5   5  -4    8.76    0.28
  -5   5  -4    8.90    0.25
  -5   5  -4    8.66    0.28
  -5   5  -4    8.95    0.28
  -5   5  -4    8.27    0.28
   5  -5   4    8.46    0.28
   5  -5   4    8.85    0.28
   5  -5   4    9.01    0.29
  -6   5  -4    0.14    0.04
  -6   5  -4    0.13    0.05
  -6   5  -4    0.04    0.05
  -6   5  -4    0.14    0.03
   6  -5   4    0.06    0.06
   6  -5   4    0.11    0.04
   6  -5   4    0.09    0.05
   6  -5   4    0.08    0.04
  -7   5  -4    5.10    0.15
  -7   5  -4    4.92    0.18
  -7   5  -4    5.20    0.21
   7  -5   4    4.90    0.16
   7  -5   4    5.06    0.22
   7  -5   4    5.09    0.18
   7  -5   4    4.95    0.18
  -8   5  -4   -0.02    0.04
  -8   5  -4   -0.02    0.06
   8  -5   4   -0.04    0.06
   8  -5   4    0.02    0.02
   8  -5   4    0.03    0.05
  -9   5  -4    0.36    0.08
  -9   5  -4    0.36    0.06
   9  -5   4    0.39    0.09
   9  -5   4    0.42    0.05
 -10   5  -4    0.17    0.08
  10  -5   4    0.35    0.09
   8   4  -4    2.85    0.19
  -8  -4   4    2.46    0.18
   7   4  -4    1.62    0.09
   7   4  -4    1.68    0.15
  -7  -4   4    1.58    0.11
  -7  -4   4    1.68    0.10
  -7  -4   4    1.81    0.12
  -7  -4   4    1.73    0.14
   6   4  -4    0.08    0.06
   6   4  -4    0.08    0.04
  -6  -4   4    0.12    0.04
  -6  -4   4    0.05    0.04
  -6  -4   4    0.10    0.05
  -6  -4   4    0.10    0.07
   5   4  -4    0.60    0.06
   5   4  -4    0.43    0.06
   5   4  -4    0.56    0.06
   5   4  -4    0.47    0.07
  -5  -4   4    0.60    0.04
  -5  -4   4    0.47    0.05
  -5  -4   4    0.57    0.08
  -5  -4   4    0.60    0.06
  -5  -4   4    0.50    0.06
  -5  -4   4    0.52    0.06
   4   4  -4    1.24    0.10
   4   4  -4    1.26    0.08
   4   4  -4    1.25    0.07
   4   4  -4    1.21    0.08
   4   4  -4    1.23    0.08
  -4  -4   4    1.27    0.08
  -4  -4   4    1.24    0.08
  -4  -4   4    1.14    0.07
  -4  -4   4    1.27    0.08
  -4  -4   4    1.35    0.08
  -4  -4   4    1.28    0.05
   3   4  -4    0.85    0.08
   3   4  -4    1.36    0.07
   3   4  -4    1.00    0.08
   3   4  -4    1.10    0.08
   3   4  -4    0.93    0.07
  -3  -4   4    0.94    0.08
  -3  -4   4    1.01    0.07
  -3  -4   4    1.04    0.07
  -3  -4   4    0.96    0.05
  -3  -4   4    1.06    0.07
  -3  -4   4    1.05    0.08
   2   4  -4    3.52    0.11
   2   4  -4    3.55    0.12
   2   4  -4    3.62    0.14
   2   4  -4    3.63    0.13
   2   4  -4    3.42    0.12
   2   4  -4    3.64    0.14
  -2  -4   4    3.55    0.12
  -2  -4   4    3.54    0.14
  -2  -4   4    3.33    0.12
  -2  -4   4    3.39    0.11
  -2  -4   4    3.53    0.12
  -2  -4   4    3.59    0.14
   1   4  -4    7.41    0.21
   1   4  -4    7.66    0.24
   1   4  -4    7.44    0.24
   1   4  -4    7.48    0.21
   1   4  -4    7.43    0.22
  -1  -4   4    7.48    0.22
  -1  -4   4    7.74    0.24
  -1  -4   4    7.58    0.22
  -1  -4   4    7.13    0.24
  -1  -4   4    7.57    0.21
   0   4  -4   34.76    0.96
   0   4  -4   34.59    0.90
   0   4  -4   34.67    0.96
   0   4  -4   37.73    0.89
   0   4  -4   35.02    0.87
   0  -4   4   35.23    0.96
   0  -4   4   34.46    0.96
   0  -4   4   34.19    0.87
  -1   4  -4    2.93    0.13
  -1   4  -4    2.94    0.11
  -1   4  -4    2.96    0.11
  -1   4  -4    2.89    0.12
  -1   4  -4    2.93    0.11
   1  -4   4    2.84    0.13
   1  -4   4    3.23    0.11
   1  -4   4    3.14    0.13
   1  -4   4    2.90    0.09
   1  -4   4    2.88    0.12
   1  -4   4    3.16    0.08
  -2   4  -4   77.83    2.22
  -2   4  -4   88.21    2.06
  -2   4  -4   80.29    2.22
   2  -4   4   90.28    2.05
   2  -4   4   90.57    2.15
   2  -4   4   86.03    2.06
   2  -4   4   79.90    2.22
   2  -4   4   80.78    2.22
  -3   4  -4   41.56    1.16
  -3   4  -4   43.21    1.16
  -3   4  -4   43.85    1.08
  -3   4  -4   43.29    1.12
   3  -4   4   41.40    1.16
   3  -4   4   43.79    1.13
   3  -4   4   43.29    1.05
   3  -4   4   43.94    1.16
  -4   4  -4    0.03    0.03
  -4   4  -4    0.09    0.04
  -4   4  -4    0.04    0.03
  -4   4  -4   -0.01    0.03
  -4   4  -4    0.05    0.03
   4  -4   4    0.04    0.03
   4  -4   4   -0.03    0.04
   4  -4   4   -0.02    0.03
   4  -4   4    0.01    0.03
  -5   4  -4    5.03    0.18
  -5   4  -4    4.94    0.17
  -5   4  -4    5.11    0.17
  -5   4  -4    4.84    0.18
  -5   4  -4    4.74    0.18
  -5   4  -4    4.73    0.13
   5  -4   4    4.78    0.19
   5  -4   4    4.70    0.18
   5  -4   4    5.03    0.15
   5  -4   4    4.87    0.18
  -6   4  -4   -0.02    0.03
  -6   4  -4    0.01    0.03
  -6   4  -4    0.00    0.04
  -6   4  -4    0.01    0.05
  -6   4  -4    0.04    0.04
   6  -4   4    0.03    0.03
   6  -4   4    0.02    0.03
   6  -4   4   -0.03    0.04
   6  -4   4   -0.02    0.05
  -7   4  -4    0.13    0.04
  -7   4  -4    0.13    0.06
  -7   4  -4    0.12    0.04
  -7   4  -4    0.13    0.04
   7  -4   4    0.16    0.03
   7  -4   4    0.02    0.06
   7  -4   4    0.03    0.02
   7  -4   4    0.07    0.04
  -8   4  -4   18.78    0.53
  -8   4  -4   18.12    0.48
   8  -4   4   18.55    0.51
   8  -4   4   17.34    0.50
   8  -4   4   18.36    0.55
  -9   4  -4    0.74    0.07
  -9   4  -4    0.65    0.10
   9  -4   4    0.81    0.10
 -10   4  -4    0.53    0.09
   9   3  -4    6.76    0.30
  -9  -3   4    6.31    0.28
   8   3  -4    1.10    0.12
  -8  -3   4    1.15    0.12
  -8  -3   4    1.17    0.10
  -8  -3   4    1.49    0.11
   7   3  -4   26.38    0.71
   7   3  -4   25.09    0.70
   7   3  -4   26.20    0.72
  -7  -3   4   26.34    0.69
  -7  -3   4   25.58    0.67
  -7  -3   4   24.94    0.67
   6   3  -4   25.18    0.67
   6   3  -4   24.38    0.68
  -6  -3   4   24.96    0.68
  -6  -3   4   24.92    0.66
  -6  -3   4   23.91    0.68
  -6  -3   4   24.23    0.64
  -6  -3   4   24.09    0.64
   5   3  -4    2.84    0.12
   5   3  -4    2.84    0.12
   5   3  -4    2.89    0.15
   5   3  -4    2.90    0.12
  -5  -3   4    3.03    0.11
  -5  -3   4    2.91    0.12
  -5  -3   4    2.88    0.12
  -5  -3   4    2.92    0.12
  -5  -3   4    2.77    0.12
   4   3  -4   79.70    2.00
   4   3  -4   81.69    1.96
   4   3  -4   81.67    1.93
   4   3  -4   77.53    2.09
   4   3  -4   78.61    2.10
  -4  -3   4   78.78    1.95
  -4  -3   4   76.17    2.09
  -4  -3   4   78.33    1.94
  -4  -3   4   80.22    2.10
  -4  -3   4   80.46    2.00
   3   3  -4   22.46    0.62
   3   3  -4   23.45    0.60
   3   3  -4   23.41    0.60
   3   3  -4   23.59    0.65
   3   3  -4   24.77    0.65
  -3  -3   4   23.64    0.58
  -3  -3   4   24.27    0.65
  -3  -3   4   23.52    0.60
  -3  -3   4   23.58    0.65
  -3  -3   4   22.68    0.61
  -3  -3   4   23.16    0.61
   2   3  -4    3.09    0.11
   2   3  -4    3.12    0.12
   2   3  -4    3.05    0.09
   2   3  -4    3.26    0.12
   2   3  -4    2.99    0.10
  -2  -3   4    3.08    0.12
  -2  -3   4    3.00    0.11
  -2  -3   4    2.99    0.10
  -2  -3   4    3.62    0.13
  -2  -3   4    3.11    0.10
   1   3  -4    7.83    0.25
   1   3  -4    7.92    0.22
   1   3  -4    7.98    0.25
   1   3  -4    7.73    0.23
   1   3  -4    8.05    0.22
  -1  -3   4    8.25    0.25
  -1  -3   4    8.33    0.25
  -1  -3   4    7.96    0.23
  -1  -3   4    7.86    0.22
   0   3  -4  131.66    3.33
   0   3  -4  128.62    3.13
   0   3  -4  133.84    3.11
   0   3  -4  126.81    3.23
   0  -3   4  108.87    3.33
   0  -3   4  133.84    3.33
  -1   3  -4  172.95    4.56
  -1   3  -4  164.08    4.12
  -1   3  -4  180.48    4.63
  -1   3  -4  168.59    4.35
   1  -3   4  166.60    4.44
   1  -3   4  165.32    4.22
   1  -3   4  181.03    4.62
   1  -3   4  174.00    4.57
  -2   3  -4   20.97    0.54
  -2   3  -4   21.44    0.58
  -2   3  -4   19.07    0.58
   2  -3   4   20.90    0.53
   2  -3   4   21.01    0.56
   2  -3   4   20.27    0.58
   2  -3   4   21.41    0.52
   2  -3   4   20.95    0.58
  -3   3  -4   76.35    2.01
  -3   3  -4   73.25    1.86
  -3   3  -4   77.66    2.00
  -3   3  -4   75.42    1.93
   3  -3   4   77.24    2.00
   3  -3   4   75.48    1.85
   3  -3   4   74.33    1.83
   3  -3   4   76.81    1.94
   3  -3   4   76.62    2.00
  -4   3  -4    4.74    0.16
  -4   3  -4    4.73    0.16
  -4   3  -4    4.60    0.16
  -4   3  -4    4.72    0.17
   4  -3   4    4.70    0.16
   4  -3   4    4.49    0.16
   4  -3   4    4.54    0.17
   4  -3   4    4.57    0.17
   4  -3   4    4.72    0.15
  -5   3  -4    3.75    0.14
  -5   3  -4    3.63    0.14
  -5   3  -4    3.71    0.14
  -5   3  -4    3.56    0.14
  -5   3  -4    3.66    0.15
  -5   3  -4    3.73    0.12
   5  -3   4    3.73    0.14
   5  -3   4    3.75    0.12
   5  -3   4    3.46    0.14
   5  -3   4    3.46    0.15
   5  -3   4    3.65    0.15
  -6   3  -4    3.15    0.12
  -6   3  -4    3.28    0.15
  -6   3  -4    3.13    0.14
  -6   3  -4    3.05    0.12
  -6   3  -4    3.18    0.13
   6  -3   4    3.08    0.12
   6  -3   4    3.06    0.10
   6  -3   4    3.13    0.15
  -7   3  -4    8.38    0.25
  -7   3  -4    8.17    0.25
  -7   3  -4    8.62    0.29
  -7   3  -4    8.19    0.25
   7  -3   4    8.29    0.25
   7  -3   4    8.69    0.29
   7  -3   4    8.38    0.25
  -8   3  -4    1.12    0.11
  -8   3  -4    1.10    0.10
   8  -3   4    1.09    0.10
  -9   3  -4    0.17    0.06
  -9   3  -4    0.18    0.07
  -9   3  -4    0.16    0.09
 -10   3  -4    0.51    0.11
   9   2  -4    6.25    0.27
  -9  -2   4    6.01    0.23
  -9  -2   4    5.71    0.26
   8   2  -4    2.98    0.18
  -8  -2   4    3.08    0.15
  -8  -2   4    2.89    0.12
   7   2  -4    0.01    0.06
   7   2  -4    0.01    0.04
   7   2  -4   -0.01    0.03
  -7  -2   4   -0.02    0.04
  -7  -2   4    0.02    0.05
  -7  -2   4    0.05    0.04
  -7  -2   4    0.03    0.03
  -7  -2   4    0.04    0.04
   6   2  -4    5.53    0.19
   6   2  -4    5.52    0.21
  -6  -2   4    5.55    0.19
  -6  -2   4    5.68    0.20
  -6  -2   4    5.49    0.18
  -6  -2   4    5.75    0.18
  -6  -2   4    5.53    0.17
   5   2  -4   25.46    0.66
   5   2  -4   24.91    0.68
   5   2  -4   25.21    0.69
  -5  -2   4   25.38    0.67
  -5  -2   4   25.80    0.69
  -5  -2   4   25.11    0.65
  -5  -2   4   25.03    0.69
  -5  -2   4   25.13    0.64
   4   2  -4    0.67    0.06
   4   2  -4    0.79    0.06
   4   2  -4    0.84    0.07
   4   2  -4    0.68    0.06
   4   2  -4    0.83    0.05
  -4  -2   4    0.78    0.06
  -4  -2   4    0.69    0.04
  -4  -2   4    0.72    0.06
  -4  -2   4    0.80    0.06
  -4  -2   4    0.96    0.06
   3   2  -4   36.90    0.99
   3   2  -4   36.55    0.90
   3   2  -4   36.31    0.88
   3   2  -4   36.72    0.98
   3   2  -4   36.62    0.94
   3   2  -4   36.62    0.90
  -3  -2   4   36.49    0.99
  -3  -2   4   37.51    0.99
  -3  -2   4   36.26    0.90
  -3  -2   4   35.75    0.91
  -3  -2   4   36.37    0.94
   2   2  -4   52.52    1.38
   2   2  -4   52.64    1.38
   2   2  -4   50.22    1.29
   2   2  -4   51.71    1.26
   2   2  -4   51.69    1.32
  -2  -2   4   54.11    1.38
  -2  -2   4   51.15    1.28
  -2  -2   4   50.32    1.31
  -2  -2   4   53.11    1.38
   1   2  -4  149.59    3.87
   1   2  -4  145.49    3.85
   1   2  -4  142.81    3.58
   1   2  -4  144.34    3.72
  -1  -2   4  147.65    3.82
  -1  -2   4  145.34    3.73
  -1  -2   4  148.43    3.87
  -1  -2   4  146.73    3.61
   0   2  -4  113.02    2.90
   0   2  -4  108.59    2.79
   0   2  -4  105.82    2.90
   0   2  -4  111.21    2.67
   0  -2   4  111.08    2.77
   0  -2   4  112.24    2.68
   0  -2   4  115.63    2.90
   0  -2   4  108.44    2.90
  -1   2  -4   27.05    0.72
  -1   2  -4   25.22    0.71
  -1   2  -4   26.31    0.68
   1  -2   4   24.21    0.71
   1  -2   4   27.39    0.72
   1  -2   4   26.81    0.68
   1  -2   4   25.99    0.66
  -2   2  -4   20.72    0.56
  -2   2  -4   19.92    0.56
  -2   2  -4   19.89    0.54
   2  -2   4   19.97    0.52
   2  -2   4   21.29    0.56
   2  -2   4   20.18    0.49
   2  -2   4   19.57    0.51
   2  -2   4   19.82    0.53
   2  -2   4   19.74    0.56
  -3   2  -4   11.92    0.36
  -3   2  -4   12.31    0.34
  -3   2  -4   12.67    0.36
   3  -2   4   12.85    0.36
   3  -2   4   12.31    0.36
   3  -2   4   12.17    0.34
   3  -2   4   12.09    0.34
   3  -2   4   12.08    0.33
  -4   2  -4   16.89    0.48
  -4   2  -4   16.27    0.45
  -4   2  -4   17.13    0.47
   4  -2   4   16.55    0.47
   4  -2   4   16.54    0.46
   4  -2   4   16.48    0.45
   4  -2   4   16.79    0.43
   4  -2   4   17.23    0.47
  -5   2  -4    1.36    0.07
  -5   2  -4    1.07    0.10
  -5   2  -4    1.26    0.08
  -5   2  -4    1.31    0.08
   5  -2   4    1.30    0.09
   5  -2   4    1.26    0.07
   5  -2   4    1.18    0.10
   5  -2   4    1.18    0.08
   5  -2   4    1.35    0.07
  -6   2  -4   13.92    0.39
  -6   2  -4   13.66    0.37
  -6   2  -4   14.02    0.41
  -6   2  -4   13.58    0.40
  -6   2  -4   13.52    0.39
   6  -2   4   13.15    0.39
   6  -2   4   13.96    0.40
   6  -2   4   13.45    0.39
  -7   2  -4    1.57    0.12
  -7   2  -4    1.73    0.11
  -7   2  -4    1.54    0.13
  -7   2  -4    1.59    0.07
   7  -2   4    1.60    0.07
   7  -2   4    1.67    0.07
  -8   2  -4    0.07    0.06
  -8   2  -4    0.17    0.08
  -8   2  -4    0.20    0.06
  -9   2  -4    0.22    0.10
  -9   2  -4    0.31    0.08
  10   1  -4    0.33    0.10
 -10  -1   4    0.62    0.10
   9   1  -4   -0.07    0.07
  -9  -1   4   -0.02    0.07
   8   1  -4    2.78    0.09
   8   1  -4    2.94    0.18
   8   1  -4    2.90    0.09
  -8  -1   4    2.80    0.12
  -8  -1   4    2.90    0.11
  -8  -1   4    3.12    0.16
   7   1  -4    5.41    0.17
   7   1  -4    5.21    0.22
   7   1  -4    5.26    0.18
  -7  -1   4    5.37    0.18
  -7  -1   4    5.24    0.16
  -7  -1   4    5.26    0.17
  -7  -1   4    5.33    0.18
  -7  -1   4    5.29    0.20
   6   1  -4    0.12    0.03
   6   1  -4    0.10    0.04
   6   1  -4   -0.08    0.05
   6   1  -4    0.05    0.05
  -6  -1   4    0.10    0.03
  -6  -1   4    0.08    0.04
  -6  -1   4    0.06    0.05
  -6  -1   4    0.13    0.04
  -6  -1   4    0.11    0.03
   5   1  -4   10.58    0.33
   5   1  -4   11.11    0.32
   5   1  -4   11.59    0.32
   5   1  -4   10.90    0.33
  -5  -1   4   11.27    0.32
  -5  -1   4   10.81    0.35
  -5  -1   4   11.05    0.33
  -5  -1   4   10.79    0.28
  -5  -1   4   10.92    0.31
  -5  -1   4   11.29    0.32
   4   1  -4   32.58    0.81
   4   1  -4   32.50    0.88
   4   1  -4   31.75    0.87
   4   1  -4   32.78    0.84
  -4  -1   4   32.40    0.88
  -4  -1   4   31.37    0.81
  -4  -1   4   33.20    0.87
  -4  -1   4   31.98    0.84
   3   1  -4    3.37    0.09
   3   1  -4    3.46    0.13
   3   1  -4    3.30    0.13
   3   1  -4    3.42    0.12
   3   1  -4    3.30    0.12
  -3  -1   4    3.31    0.12
  -3  -1   4    3.51    0.12
  -3  -1   4    3.20    0.13
  -3  -1   4    3.47    0.13
   2   1  -4   18.63    0.52
   2   1  -4   18.08    0.52
   2   1  -4   19.36    0.48
   2   1  -4   18.54    0.49
  -2  -1   4   18.53    0.52
  -2  -1   4   18.63    0.48
  -2  -1   4   18.14    0.52
  -2  -1   4   18.42    0.49
   1   1  -4   38.19    0.92
   1   1  -4   36.58    0.99
   1   1  -4   36.94    0.94
   1   1  -4   36.67    0.99
  -1  -1   4   35.98    0.99
  -1  -1   4   36.93    0.92
  -1  -1   4   37.31    0.94
  -1  -1   4   36.40    0.99
   0   1  -4   38.19    1.02
   0   1  -4   38.82    0.94
   0   1  -4   37.89    1.02
   0   1  -4   38.41    0.97
   0  -1   4   37.87    1.02
   0  -1   4   37.62    0.94
   0  -1   4   37.62    0.97
   0  -1   4   37.43    1.02
  -1   1  -4   80.83    2.13
  -1   1  -4   79.72    2.14
  -1   1  -4   82.70    1.97
  -1   1  -4   80.84    2.04
   1  -1   4   80.88    2.14
   1  -1   4   82.18    2.05
   1  -1   4   81.01    1.97
   1  -1   4   80.22    2.13
  -2   1  -4   23.00    0.65
  -2   1  -4   23.96    0.62
  -2   1  -4   24.36    0.59
  -2   1  -4   23.82    0.65
   2  -1   4   22.87    0.60
   2  -1   4   22.88    0.61
   2  -1   4   23.94    0.65
   2  -1   4   23.61    0.58
   2  -1   4   22.86    0.65
   2  -1   4   23.51    0.60
  -3   1  -4   18.23    0.46
  -3   1  -4   17.76    0.47
  -3   1  -4   18.33    0.50
  -3   1  -4   17.69    0.51
  -3   1  -4   18.17    0.49
   3  -1   4   18.28    0.50
   3  -1   4   18.06    0.46
   3  -1   4   17.56    0.48
   3  -1   4   17.43    0.47
   3  -1   4   17.59    0.45
   3  -1   4   17.44    0.50
  -4   1  -4    4.65    0.14
  -4   1  -4    4.56    0.17
  -4   1  -4    4.76    0.15
  -4   1  -4    4.65    0.16
   4  -1   4    4.79    0.16
   4  -1   4    5.45    0.15
   4  -1   4    4.37    0.17
   4  -1   4    4.71    0.16
   4  -1   4    4.41    0.17
  -5   1  -4    0.61    0.06
  -5   1  -4    0.51    0.05
  -5   1  -4    0.54    0.05
   5  -1   4    0.59    0.07
   5  -1   4    0.46    0.05
  -6   1  -4    1.38    0.08
  -6   1  -4    1.43    0.07
  -6   1  -4    1.52    0.10
  -6   1  -4    1.64    0.14
   6  -1   4    1.50    0.13
   6  -1   4    1.38    0.08
   6  -1   4    1.46    0.07
  -7   1  -4    0.60    0.10
  -7   1  -4    0.44    0.08
  -8   1  -4   -0.05    0.08
  -8   1  -4   -0.02    0.06
  -9   1  -4    0.14    0.07
  -9   1  -4   -0.03    0.09
  10   0  -4    0.01    0.07
 -10   0   4    0.08    0.08
   9   0  -4    2.80    0.18
  -9   0   4    3.03    0.17
   8   0  -4    0.93    0.10
   8   0  -4    0.96    0.07
  -8   0   4    0.97    0.06
  -8   0   4    1.05    0.06
  -8   0   4    0.93    0.09
  -8   0   4    1.12    0.07
  -8   0   4    1.03    0.08
   7   0  -4    0.13    0.03
   7   0  -4    0.00    0.06
   7   0  -4    0.15    0.04
  -7   0   4    0.17    0.03
  -7   0   4    0.17    0.04
  -7   0   4    0.01    0.06
  -7   0   4    0.16    0.04
  -7   0   4    0.18    0.04
   6   0  -4   14.44    0.41
   6   0  -4   14.49    0.41
   6   0  -4   14.41    0.42
   6   0  -4   14.66    0.42
  -6   0   4   13.87    0.39
  -6   0   4   14.13    0.36
  -6   0   4   14.47    0.41
  -6   0   4   14.80    0.42
  -6   0   4   14.45    0.42
   5   0  -4   30.82    0.77
   5   0  -4   30.40    0.80
   5   0  -4   29.95    0.83
   5   0  -4   30.37    0.82
   5   0  -4   30.75    0.76
  -5   0   4   28.82    0.83
  -5   0   4   30.25    0.77
  -5   0   4   30.07    0.83
  -5   0   4   30.63    0.82
  -5   0   4   30.39    0.80
   4   0  -4   11.19    0.31
   4   0  -4   11.21    0.33
   4   0  -4   11.30    0.31
   4   0  -4   11.50    0.32
   4   0  -4   10.56    0.33
   4   0  -4   11.41    0.28
  -4   0   4   10.93    0.31
  -4   0   4   11.06    0.32
  -4   0   4   11.17    0.33
  -4   0   4   11.01    0.33
  -4   0   4   10.83    0.33
   3   0  -4    0.35    0.05
   3   0  -4    0.32    0.04
   3   0  -4    0.38    0.05
   3   0  -4    0.34    0.04
  -3   0   4    0.33    0.05
  -3   0   4    0.38    0.05
  -3   0   4    0.41    0.05
  -3   0   4    0.32    0.05
  -3   0   4    0.31    0.04
   2   0  -4   23.92    0.59
   2   0  -4   22.42    0.60
   2   0  -4   24.45    0.64
   2   0  -4   23.32    0.58
   2   0  -4   22.07    0.64
  -2   0   4   22.32    0.59
  -2   0   4   22.69    0.64
  -2   0   4   23.39    0.64
  -2   0   4   23.16    0.61
   1   0  -4    0.84    0.06
   1   0  -4    0.86    0.06
   1   0  -4    0.83    0.05
   1   0  -4    0.81    0.05
   1   0  -4    0.79    0.07
  -1   0   4    0.89    0.06
  -1   0   4    0.82    0.07
  -1   0   4    0.81    0.05
  -1   0   4    0.74    0.06
   0   0  -4    8.68    0.27
   0   0  -4    8.85    0.27
   0   0  -4    8.78    0.25
   0   0  -4    8.96    0.25
   0   0   4    8.72    0.27
   0   0   4    8.29    0.25
   0   0   4    9.02    0.27
   0   0   4    8.79    0.25
  -1   0  -4    0.00    0.02
  -1   0  -4   -0.01    0.04
  -1   0  -4   -0.10    0.03
  -1   0  -4   -0.04    0.03
  -1   0  -4    0.01    0.03
   1   0   4    0.05    0.03
   1   0   4   -0.03    0.03
   1   0   4    0.01    0.04
  -2   0  -4   -0.09    0.04
  -2   0  -4    0.05    0.03
  -2   0  -4    0.03    0.02
  -2   0  -4    0.01    0.03
  -2   0  -4    0.03    0.04
   2   0   4    0.00    0.03
   2   0   4    0.01    0.02
   2   0   4    0.01    0.03
   2   0   4    0.01    0.03
   2   0   4    0.03    0.04
  -3   0  -4    2.01    0.10
  -3   0  -4    2.09    0.09
  -3   0  -4    1.92    0.11
  -3   0  -4    1.96    0.07
  -3   0  -4    2.14    0.12
  -3   0  -4    2.26    0.10
   3   0   4    2.17    0.10
   3   0   4    2.01    0.12
   3   0   4    2.20    0.10
   3   0   4    2.25    0.11
   3   0   4    2.07    0.10
  -4   0  -4   -0.02    0.04
  -4   0  -4    0.01    0.02
  -4   0  -4   -0.01    0.03
  -4   0  -4    0.02    0.06
  -4   0  -4    0.00    0.03
  -4   0  -4   -0.08    0.03
   4   0   4   -0.01    0.04
   4   0   4   -0.04    0.03
   4   0   4   -0.03    0.04
  -5   0  -4    1.51    0.13
  -5   0  -4    1.84    0.10
  -5   0  -4    1.85    0.09
  -5   0  -4    1.66    0.08
  -5   0  -4    1.83    0.10
  -5   0  -4    1.81    0.09
   5   0   4    1.79    0.12
   5   0   4    1.68    0.10
  -6   0  -4    0.09    0.08
   6   0   4    0.21    0.04
   6   0   4    0.11    0.07
   6   0   4    0.14    0.04
  -7   0  -4    1.03    0.12
  -8   0  -4    1.34    0.14
  -8   0  -4    1.45    0.13
  11  -1  -4   -0.07    0.08
 -11   1   4   -0.05    0.08
  10  -1  -4    1.31    0.13
 -10   1   4    1.27    0.12
   9  -1  -4    0.25    0.04
   9  -1  -4    0.17    0.04
   9  -1  -4    0.33    0.08
  -9   1   4    0.17    0.04
  -9   1   4    0.32    0.08
   8  -1  -4    9.21    0.31
   8  -1  -4    8.93    0.28
   8  -1  -4    8.95    0.27
  -8   1   4    9.36    0.31
  -8   1   4    8.92    0.28
  -8   1   4    9.04    0.27
  -8   1   4    9.11    0.27
  -8   1   4    8.89    0.24
  -8   1   4    9.25    0.24
   7  -1  -4    3.40    0.13
   7  -1  -4    3.39    0.12
   7  -1  -4    3.34    0.14
   7  -1  -4    3.25    0.16
  -7   1   4    3.24    0.09
  -7   1   4    3.41    0.16
  -7   1   4    3.13    0.13
  -7   1   4    3.08    0.13
  -7   1   4    3.25    0.09
  -7   1   4    3.19    0.14
   6  -1  -4    0.29    0.06
   6  -1  -4    0.30    0.05
   6  -1  -4    0.26    0.03
   6  -1  -4    0.23    0.06
   6  -1  -4    0.23    0.05
   6  -1  -4    0.26    0.04
  -6   1   4    0.27    0.05
  -6   1   4    0.18    0.06
  -6   1   4    0.21    0.05
  -6   1   4    0.26    0.05
   5  -1  -4   82.26    2.34
   5  -1  -4   90.21    2.25
   5  -1  -4   91.95    2.34
   5  -1  -4   89.08    2.15
   5  -1  -4   93.22    2.13
   5  -1  -4   90.94    2.16
  -5   1   4   89.17    2.24
  -5   1   4   88.82    2.17
  -5   1   4   90.11    2.29
  -5   1   4   82.96    2.34
  -5   1   4   87.21    2.34
   4  -1  -4   46.99    1.22
   4  -1  -4   48.29    1.18
   4  -1  -4   46.91    1.28
   4  -1  -4   47.84    1.15
   4  -1  -4   46.65    1.27
  -4   1   4   47.36    1.22
  -4   1   4   48.39    1.27
  -4   1   4   47.40    1.28
  -4   1   4   48.05    1.24
  -4   1   4   46.45    1.18
   3  -1  -4    3.73    0.16
   3  -1  -4    4.08    0.14
   3  -1  -4    4.19    0.16
   3  -1  -4    4.04    0.11
   3  -1  -4    4.18    0.14
  -3   1   4    3.91    0.16
  -3   1   4    3.91    0.15
  -3   1   4    4.16    0.16
  -3   1   4    3.98    0.14
   2  -1  -4   55.99    1.42
   2  -1  -4   57.99    1.38
   2  -1  -4   56.10    1.49
   2  -1  -4   54.82    1.50
   2  -1  -4   56.14    1.38
  -2   1   4   54.93    1.43
  -2   1   4   55.08    1.38
  -2   1   4   55.25    1.50
  -2   1   4   56.52    1.42
  -2   1   4   56.16    1.49
   1  -1  -4   26.15    0.67
   1  -1  -4   26.69    0.68
   1  -1  -4   25.75    0.73
   1  -1  -4   27.00    0.67
   1  -1  -4   26.61    0.73
  -1   1   4   25.38    0.68
  -1   1   4   26.35    0.68
  -1   1   4   26.56    0.68
  -1   1   4   26.54    0.73
  -1   1   4   26.36    0.73
   0  -1  -4   38.08    1.00
   0  -1  -4   36.89    0.92
   0  -1  -4   35.63    0.94
   0  -1  -4   36.56    1.01
   0  -1  -4   36.88    0.94
   0   1   4   38.53    1.00
   0   1   4   35.89    1.00
   0   1   4   36.52    0.94
   0   1   4   36.29    0.93
  -1  -1  -4  124.14    3.23
  -1  -1  -4  121.37    3.23
  -1  -1  -4  122.02    3.03
  -1  -1  -4  124.92    3.07
  -1  -1  -4  126.95    2.98
   1   1   4  126.35    2.92
   1   1   4  122.70    3.23
   1   1   4  123.59    2.98
   1   1   4  114.63    3.23
  -2  -1  -4    5.74    0.18
  -2  -1  -4    5.31    0.17
  -2  -1  -4    5.48    0.19
  -2  -1  -4    5.34    0.20
  -2  -1  -4    5.27    0.20
   2   1   4    5.69    0.20
   2   1   4    5.42    0.18
   2   1   4    4.98    0.19
   2   1   4    5.30    0.20
  -3  -1  -4    2.89    0.12
  -3  -1  -4    2.94    0.13
  -3  -1  -4    2.89    0.15
  -3  -1  -4    3.02    0.11
  -3  -1  -4    2.78    0.14
   3   1   4    3.18    0.13
   3   1   4    2.69    0.14
   3   1   4    2.89    0.14
   3   1   4    2.83    0.13
  -4  -1  -4    4.62    0.16
  -4  -1  -4    4.65    0.18
  -4  -1  -4    4.55    0.14
  -4  -1  -4    4.64    0.16
  -4  -1  -4    4.66    0.20
   4   1   4    4.60    0.19
   4   1   4    4.67    0.17
   4   1   4    4.62    0.18
  -5  -1  -4    0.54    0.06
  -5  -1  -4    0.34    0.08
   5   1   4    0.49    0.08
   5   1   4    0.44    0.06
  -6  -1  -4    0.08    0.08
   6   1   4   -0.06    0.04
   6   1   4    0.02    0.06
  -7  -1  -4    0.27    0.10
  11  -2  -4    1.16    0.13
 -11   2   4    1.30    0.13
  10  -2  -4    0.18    0.03
  10  -2  -4    0.14    0.08
 -10   2   4    0.19    0.08
   9  -2  -4   13.06    0.39
   9  -2  -4   12.85    0.38
   9  -2  -4   13.69    0.42
  -9   2   4   13.18    0.42
  -9   2   4   13.04    0.34
   8  -2  -4    0.02    0.06
   8  -2  -4    0.15    0.04
   8  -2  -4    0.17    0.05
   8  -2  -4    0.21    0.05
  -8   2   4    0.18    0.02
  -8   2   4    0.16    0.07
  -8   2   4    0.16    0.03
  -8   2   4    0.23    0.05
   7  -2  -4    7.31    0.24
   7  -2  -4    7.06    0.20
   7  -2  -4    7.35    0.25
   7  -2  -4    7.50    0.23
   7  -2  -4    7.47    0.24
  -7   2   4    7.19    0.19
  -7   2   4    7.38    0.26
  -7   2   4    7.03    0.23
  -7   2   4    7.34    0.25
  -7   2   4    7.29    0.24
   6  -2  -4   19.06    0.54
   6  -2  -4   18.58    0.50
   6  -2  -4   18.18    0.48
   6  -2  -4   18.54    0.55
   6  -2  -4   19.12    0.50
  -6   2   4   18.62    0.55
  -6   2   4   18.80    0.53
  -6   2   4   18.81    0.47
  -6   2   4   18.98    0.51
  -6   2   4   19.48    0.54
   5  -2  -4   12.98    0.34
   5  -2  -4   13.30    0.37
   5  -2  -4   13.51    0.35
   5  -2  -4   13.00    0.38
   5  -2  -4   13.31    0.39
   5  -2  -4   12.65    0.40
  -5   2   4   12.88    0.39
  -5   2   4   13.37    0.39
  -5   2   4   13.17    0.40
  -5   2   4   12.75    0.37
  -5   2   4   12.65    0.38
  -5   2   4   13.05    0.33
   4  -2  -4   24.06    0.68
   4  -2  -4   24.70    0.63
   4  -2  -4   23.87    0.61
   4  -2  -4   23.86    0.69
   4  -2  -4   23.74    0.65
   4  -2  -4   24.17    0.61
   4  -2  -4   23.98    0.66
  -4   2   4   24.07    0.69
  -4   2   4   24.07    0.65
  -4   2   4   24.87    0.66
  -4   2   4   25.19    0.69
  -4   2   4   23.98    0.64
  -4   2   4   24.62    0.61
   3  -2  -4   21.42    0.60
   3  -2  -4   22.37    0.60
   3  -2  -4   22.52    0.64
   3  -2  -4   22.75    0.57
   3  -2  -4   21.87    0.64
   3  -2  -4   23.55    0.59
  -3   2   4   22.52    0.64
  -3   2   4   22.86    0.57
  -3   2   4   22.28    0.60
  -3   2   4   22.41    0.60
  -3   2   4   22.22    0.64
  -3   2   4   22.51    0.59
   2  -2  -4    0.89    0.08
   2  -2  -4    0.83    0.06
   2  -2  -4    0.83    0.09
   2  -2  -4    0.78    0.06
   2  -2  -4    0.88    0.07
  -2   2   4    0.93    0.06
  -2   2   4    0.90    0.08
  -2   2   4    0.84    0.05
  -2   2   4    0.78    0.07
  -2   2   4    0.70    0.07
  -2   2   4    0.75    0.06
   1  -2  -4    4.83    0.17
   1  -2  -4    5.10    0.16
   1  -2  -4    4.79    0.18
   1  -2  -4    4.50    0.18
   1  -2  -4    4.44    0.15
  -1   2   4    4.53    0.17
  -1   2   4    4.95    0.18
  -1   2   4    4.79    0.16
  -1   2   4    4.56    0.18
  -1   2   4    4.75    0.15
  -1   2   4    4.53    0.13
   0  -2  -4   28.69    0.81
   0  -2  -4   28.20    0.75
   0  -2  -4   28.52    0.76
   0  -2  -4   30.16    0.75
   0  -2  -4   29.54    0.81
   0   2   4   29.61    0.81
   0   2   4   28.61    0.75
   0   2   4   28.75    0.81
   0   2   4   29.10    0.75
  -1  -2  -4    0.63    0.06
  -1  -2  -4    0.56    0.05
  -1  -2  -4    0.77    0.08
  -1  -2  -4    0.59    0.07
  -1  -2  -4    0.58    0.07
   1   2   4    0.59    0.07
   1   2   4    0.45    0.06
   1   2   4    0.68    0.07
   1   2   4    0.69    0.06
  -2  -2  -4    1.52    0.07
  -2  -2  -4    1.38    0.12
  -2  -2  -4    1.55    0.11
  -2  -2  -4    1.38    0.10
   2   2   4    1.56    0.11
   2   2   4    1.50    0.11
   2   2   4    1.47    0.11
  -3  -2  -4    9.12    0.26
  -3  -2  -4    9.16    0.31
  -3  -2  -4    8.83    0.30
  -3  -2  -4    9.19    0.28
   3   2   4    9.08    0.30
   3   2   4    9.24    0.30
   3   2   4    9.37    0.30
  -4  -2  -4    0.66    0.09
  -4  -2  -4    0.88    0.07
  -4  -2  -4    0.79    0.08
  -4  -2  -4    0.84    0.06
   4   2   4    0.83    0.08
   4   2   4    0.82    0.09
   4   2   4    0.73    0.08
  -5  -2  -4    5.00    0.23
   5   2   4    4.58    0.18
   5   2   4    4.60    0.21
  -6  -2  -4    2.36    0.19
   6   2   4    2.19    0.11
   6   2   4    2.38    0.17
  -7  -2  -4    0.29    0.10
  11  -3  -4    0.85    0.11
 -11   3   4    0.94    0.12
  10  -3  -4    0.70    0.07
  10  -3  -4    0.78    0.10
 -10   3   4    0.65    0.11
   9  -3  -4    8.21    0.28
   9  -3  -4    8.55    0.26
   9  -3  -4    8.79    0.30
  -9   3   4    8.76    0.32
  -9   3   4    9.21    0.30
   8  -3  -4    0.46    0.07
   8  -3  -4    0.45    0.07
   8  -3  -4    0.47    0.05
   8  -3  -4    0.52    0.06
   8  -3  -4    0.53    0.07
  -8   3   4    0.51    0.07
  -8   3   4    0.38    0.08
  -8   3   4    0.46    0.04
   7  -3  -4    7.56    0.24
   7  -3  -4    7.43    0.22
   7  -3  -4    7.41    0.26
   7  -3  -4    7.33    0.28
   7  -3  -4    7.70    0.24
   7  -3  -4    7.56    0.26
  -7   3   4    7.45    0.20
  -7   3   4    7.47    0.26
  -7   3   4    7.46    0.26
   6  -3  -4    1.27    0.07
   6  -3  -4    0.99    0.09
   6  -3  -4    1.19    0.10
   6  -3  -4    1.27    0.12
   6  -3  -4    1.05    0.10
   6  -3  -4    1.12    0.08
  -6   3   4    1.20    0.11
  -6   3   4    1.27    0.10
  -6   3   4    1.49    0.06
  -6   3   4    1.08    0.11
  -6   3   4    1.06    0.10
   5  -3  -4    0.20    0.04
   5  -3  -4    0.14    0.06
   5  -3  -4    0.16    0.03
   5  -3  -4    0.21    0.04
   5  -3  -4    0.08    0.05
   5  -3  -4    0.13    0.05
   5  -3  -4    0.14    0.05
  -5   3   4    0.19    0.05
  -5   3   4    0.19    0.05
  -5   3   4    0.14    0.06
  -5   3   4    0.18    0.03
  -5   3   4    0.19    0.06
  -5   3   4    0.15    0.05
   4  -3  -4    1.54    0.13
   4  -3  -4    1.98    0.11
   4  -3  -4    1.20    0.12
   4  -3  -4    1.92    0.09
   4  -3  -4    2.02    0.11
   4  -3  -4    1.94    0.08
   4  -3  -4    1.52    0.11
  -4   3   4    1.99    0.10
  -4   3   4    1.56    0.12
  -4   3   4    1.90    0.08
  -4   3   4    2.01    0.12
  -4   3   4    1.52    0.13
  -4   3   4    1.88    0.10
   3  -3  -4   62.63    1.85
   3  -3  -4   68.92    1.69
   3  -3  -4   71.47    1.85
   3  -3  -4   69.37    1.75
   3  -3  -4   70.10    1.71
   3  -3  -4   70.65    1.71
   3  -3  -4   75.37    1.77
  -3   3   4   67.90    1.77
  -3   3   4   70.46    1.85
  -3   3   4   69.82    1.71
  -3   3   4   69.25    1.71
  -3   3   4   69.95    1.75
  -3   3   4   60.97    1.85
   2  -3  -4   40.84    1.07
   2  -3  -4   42.95    1.06
   2  -3  -4   42.89    1.15
   2  -3  -4   40.42    1.05
   2  -3  -4   40.70    1.07
   2  -3  -4   41.57    1.15
  -2   3   4   41.09    1.15
  -2   3   4   42.52    1.15
  -2   3   4   40.31    1.07
  -2   3   4   42.55    1.07
  -2   3   4   42.07    1.06
   1  -3  -4   33.26    0.95
   1  -3  -4   33.29    0.88
   1  -3  -4   33.53    0.87
   1  -3  -4   34.90    0.88
   1  -3  -4   32.95    0.88
   1  -3  -4   34.59    0.95
  -1   3   4   35.04    0.89
  -1   3   4   34.56    0.95
  -1   3   4   35.06    0.87
  -1   3   4   34.32    0.96
  -1   3   4   34.03    0.88
   0  -3  -4    0.31    0.07
   0  -3  -4    0.36    0.07
   0  -3  -4    0.37    0.06
   0  -3  -4    0.33    0.04
   0  -3  -4    0.31    0.06
   0   3   4    0.28    0.07
   0   3   4    0.32    0.04
   0   3   4    0.39    0.07
   0   3   4    0.34    0.06
  -1  -3  -4   35.55    0.96
  -1  -3  -4   36.85    1.02
  -1  -3  -4   36.96    0.94
  -1  -3  -4   35.77    0.93
   1   3   4   37.40    0.94
   1   3   4   37.29    1.02
   1   3   4   36.63    1.02
  -2  -3  -4    0.15    0.07
  -2  -3  -4    0.41    0.08
  -2  -3  -4    0.47    0.07
  -2  -3  -4    0.47    0.04
   2   3   4    0.17    0.07
   2   3   4    0.18    0.07
   2   3   4    0.45    0.07
  -3  -3  -4    4.33    0.19
  -3  -3  -4    4.71    0.21
   3   3   4    4.36    0.19
   3   3   4    4.57    0.20
   3   3   4    4.60    0.20
  -4  -3  -4    6.56    0.27
   4   3   4    6.30    0.24
   4   3   4    6.47    0.26
  -5  -3  -4    0.29    0.09
   5   3   4    0.26    0.08
   5   3   4    0.14    0.06
  -6  -3  -4    0.98    0.13
   6   3   4    1.13    0.13
 -12   4   4    0.01    0.10
  11  -4  -4    3.90    0.21
  11  -4  -4    3.45    0.15
 -11   4   4    3.87    0.23
  10  -4  -4    0.68    0.08
  10  -4  -4    0.83    0.10
 -10   4   4    1.05    0.12
   9  -4  -4    0.05    0.06
   9  -4  -4   -0.11    0.05
   9  -4  -4   -0.04    0.07
   9  -4  -4    0.04    0.05
   9  -4  -4    0.00    0.04
  -9   4   4   -0.03    0.07
  -9   4   4   -0.02    0.06
   8  -4  -4    1.42    0.08
   8  -4  -4    1.33    0.12
   8  -4  -4    1.40    0.12
   8  -4  -4    1.23    0.12
   8  -4  -4    1.46    0.11
  -8   4   4    1.27    0.07
  -8   4   4    1.17    0.11
  -8   4   4    1.23    0.11
   7  -4  -4    1.56    0.13
   7  -4  -4    1.81    0.09
   7  -4  -4    1.81    0.13
   7  -4  -4    1.64    0.15
   7  -4  -4    2.17    0.11
  -7   4   4    1.78    0.13
  -7   4   4    1.90    0.14
  -7   4   4    1.95    0.08
   6  -4  -4    0.89    0.09
   6  -4  -4    1.03    0.08
   6  -4  -4    0.85    0.09
   6  -4  -4    0.99    0.07
   6  -4  -4    0.87    0.10
  -6   4   4    0.87    0.10
  -6   4   4    1.07    0.07
  -6   4   4    1.04    0.10
   5  -4  -4    0.50    0.04
   5  -4  -4    0.49    0.09
   5  -4  -4    0.39    0.08
   5  -4  -4    0.44    0.07
   5  -4  -4    0.69    0.08
   5  -4  -4    0.66    0.06
   5  -4  -4    0.59    0.06
  -5   4   4    0.47    0.05
  -5   4   4    0.47    0.07
  -5   4   4    0.53    0.07
  -5   4   4    0.31    0.08
   4  -4  -4    0.23    0.06
   4  -4  -4    0.27    0.07
   4  -4  -4    0.30    0.05
   4  -4  -4    0.24    0.05
   4  -4  -4    0.24    0.06
   4  -4  -4    0.21    0.07
  -4   4   4    0.15    0.06
  -4   4   4    0.12    0.07
  -4   4   4    0.22    0.05
  -4   4   4    0.25    0.05
  -4   4   4    0.37    0.06
   3  -4  -4    0.00    0.05
   3  -4  -4    0.07    0.04
   3  -4  -4    0.12    0.07
   3  -4  -4    0.14    0.06
   3  -4  -4    0.05    0.04
   3  -4  -4    0.15    0.05
  -3   4   4    0.14    0.04
  -3   4   4    0.15    0.04
  -3   4   4    0.07    0.07
  -3   4   4    0.17    0.06
  -3   4   4    0.13    0.04
   2  -4  -4    0.85    0.07
   2  -4  -4    0.88    0.07
   2  -4  -4    0.69    0.07
   2  -4  -4    0.97    0.10
   2  -4  -4    0.83    0.10
  -2   4   4    0.79    0.06
  -2   4   4    0.94    0.10
  -2   4   4    0.85    0.07
  -2   4   4    0.75    0.07
  -2   4   4    0.80    0.09
   1  -4  -4    1.49    0.07
   1  -4  -4    1.69    0.11
   1  -4  -4    1.62    0.08
   1  -4  -4    1.51    0.13
  -1   4   4    1.30    0.12
  -1   4   4    1.66    0.08
  -1   4   4    1.57    0.12
   0  -4  -4    3.08    0.12
   0  -4  -4    3.40    0.16
   0  -4  -4    3.35    0.17
   0  -4  -4    3.17    0.13
   0   4   4    3.44    0.17
   0   4   4    3.29    0.17
  -1  -4  -4    0.15    0.04
  -1  -4  -4    0.17    0.07
  -1  -4  -4    0.00    0.07
  -1  -4  -4    0.13    0.05
   1   4   4    0.09    0.08
   1   4   4    0.18    0.07
   1   4   4   -0.03    0.07
  -2  -4  -4   -0.18    0.07
  -2  -4  -4   -0.05    0.07
   2   4   4    0.05    0.06
   2   4   4   -0.23    0.06
   2   4   4   -0.15    0.07
  -3  -4  -4    0.32    0.09
   3   4   4    0.30    0.08
   3   4   4    0.31    0.08
  -4  -4  -4    2.15    0.18
   4   4   4    2.13    0.17
   4   4   4    1.88    0.14
  -5  -4  -4    1.26    0.14
   5   4   4    1.15    0.13
   5   4   4    1.15    0.12
  12  -5  -4    0.81    0.08
 -12   5   4    0.73    0.13
  11  -5  -4    5.84    0.24
 -11   5   4    6.89    0.29
  10  -5  -4    0.32    0.07
  10  -5  -4    0.40    0.10
  10  -5  -4    0.27    0.07
 -10   5   4    0.39    0.10
   9  -5  -4    0.87    0.08
   9  -5  -4    0.99    0.09
   9  -5  -4    0.99    0.10
   9  -5  -4    0.81    0.11
  -9   5   4    1.04    0.10
  -9   5   4    0.79    0.11
   8  -5  -4    0.02    0.04
   8  -5  -4   -0.06    0.06
   8  -5  -4   -0.01    0.07
   8  -5  -4   -0.01    0.05
   8  -5  -4   -0.09    0.07
  -8   5   4   -0.06    0.07
  -8   5   4   -0.05    0.06
   7  -5  -4    0.34    0.09
   7  -5  -4    0.33    0.09
   7  -5  -4    0.39    0.05
   7  -5  -4    0.23    0.08
  -7   5   4    0.47    0.08
  -7   5   4    0.52    0.06
  -7   5   4    0.45    0.09
   6  -5  -4   18.74    0.47
   6  -5  -4   18.37    0.50
   6  -5  -4   18.69    0.55
   6  -5  -4   18.94    0.58
   6  -5  -4   18.36    0.58
  -6   5   4   18.71    0.50
  -6   5   4   18.19    0.58
  -6   5   4   18.23    0.53
   5  -5  -4   50.87    1.27
   5  -5  -4   50.58    1.21
   5  -5  -4   49.90    1.40
   5  -5  -4   50.49    1.40
   5  -5  -4   50.05    1.34
  -5   5   4   52.07    1.40
  -5   5   4   49.49    1.33
  -5   5   4   49.97    1.27
  -5   5   4   50.85    1.31
   4  -5  -4    0.68    0.10
   4  -5  -4    0.78    0.08
   4  -5  -4    0.63    0.07
   4  -5  -4    0.74    0.08
  -4   5   4    0.73    0.07
  -4   5   4    0.73    0.10
  -4   5   4    0.69    0.07
  -4   5   4    0.73    0.07
   3  -5  -4    0.62    0.09
   3  -5  -4    0.69    0.07
   3  -5  -4    0.70    0.07
   3  -5  -4    0.64    0.06
  -3   5   4    0.56    0.06
  -3   5   4    0.64    0.05
  -3   5   4    0.75    0.10
   2  -5  -4   14.88    0.42
   2  -5  -4   14.73    0.43
   2  -5  -4   14.79    0.42
   2  -5  -4   14.86    0.48
  -2   5   4   15.09    0.41
  -2   5   4   15.38    0.49
  -2   5   4   15.25    0.49
   1  -5  -4    0.94    0.06
   1  -5  -4    0.92    0.11
   1  -5  -4    1.04    0.08
   1  -5  -4    1.08    0.08
   1  -5  -4    0.89    0.09
  -1   5   4    1.11    0.07
  -1   5   4    0.88    0.11
  -1   5   4    1.17    0.11
   0  -5  -4    0.09    0.04
   0  -5  -4   -0.08    0.06
   0  -5  -4   -0.05    0.07
   0  -5  -4    0.04    0.04
   0   5   4   -0.22    0.06
   0   5   4    0.00    0.07
   0   5   4   -0.05    0.07
  -1  -5  -4    3.13    0.18
  -1  -5  -4    3.38    0.19
   1   5   4    2.81    0.18
   1   5   4    2.96    0.17
   1   5   4    3.15    0.19
  -2  -5  -4    0.99    0.12
   2   5   4    0.94    0.11
   2   5   4    1.11    0.12
  -3  -5  -4    0.18    0.09
   3   5   4   -0.04    0.07
   3   5   4   -0.01    0.08
  -4  -5  -4    0.49    0.11
   4   5   4    0.35    0.08
   4   5   4    0.25    0.09
  12  -6  -4    0.05    0.06
 -12   6   4   -0.08    0.11
  11  -6  -4    0.43    0.08
  11  -6  -4    0.32    0.10
 -11   6   4    0.39    0.11
  10  -6  -4    0.62    0.11
  10  -6  -4    0.61    0.09
 -10   6   4    0.59    0.11
   9  -6  -4    1.31    0.11
   9  -6  -4    1.08    0.11
   9  -6  -4    1.10    0.13
  -9   6   4    1.06    0.12
  -9   6   4    1.05    0.12
   8  -6  -4    4.71    0.23
   8  -6  -4    4.70    0.16
   8  -6  -4    4.71    0.23
   8  -6  -4    4.72    0.23
  -8   6   4    4.54    0.17
  -8   6   4    4.74    0.23
  -8   6   4    4.79    0.22
   7  -6  -4    0.27    0.05
   7  -6  -4    0.31    0.05
   7  -6  -4    0.27    0.08
   7  -6  -4    0.36    0.09
   7  -6  -4    0.19    0.08
  -7   6   4    0.28    0.09
  -7   6   4    0.40    0.08
  -7   6   4    0.23    0.06
   6  -6  -4    0.57    0.11
   6  -6  -4    0.36    0.06
   6  -6  -4    0.50    0.09
   6  -6  -4    0.38    0.04
  -6   6   4    0.59    0.11
  -6   6   4    0.34    0.07
  -6   6   4    0.28    0.08
   5  -6  -4   21.17    0.52
   5  -6  -4   22.04    0.59
   5  -6  -4   21.75    0.62
   5  -6  -4   21.92    0.67
  -5   6   4   22.00    0.61
  -5   6   4   21.11    0.61
  -5   6   4   22.03    0.67
   4  -6  -4    2.39    0.13
   4  -6  -4    2.62    0.17
   4  -6  -4    2.21    0.13
  -4   6   4    2.44    0.17
  -4   6   4    2.39    0.13
  -4   6   4    2.33    0.12
   3  -6  -4    0.04    0.05
   3  -6  -4    0.02    0.05
   3  -6  -4   -0.06    0.08
   3  -6  -4    0.02    0.03
  -3   6   4    0.07    0.04
  -3   6   4   -0.01    0.08
  -3   6   4    0.04    0.04
   2  -6  -4    0.66    0.06
   2  -6  -4    0.61    0.06
   2  -6  -4    0.55    0.10
   2  -6  -4    0.58    0.08
  -2   6   4    0.51    0.10
  -2   6   4    0.49    0.05
   1  -6  -4    1.60    0.09
   1  -6  -4    1.53    0.14
   1  -6  -4    1.48    0.08
   1  -6  -4    1.45    0.15
  -1   6   4    1.38    0.08
  -1   6   4    1.79    0.15
   0  -6  -4   11.59    0.38
   0  -6  -4   11.17    0.41
   0   6   4   11.62    0.41
   0   6   4   11.12    0.36
  -1  -6  -4   18.19    0.59
  -1  -6  -4   19.76    0.58
   1   6   4   18.57    0.55
   1   6   4   19.06    0.60
  -2  -6  -4    0.68    0.11
   2   6   4    0.62    0.10
   2   6   4    0.78    0.11
  -3  -6  -4    0.28    0.11
   3   6   4    0.32    0.09
   3   6   4    0.50    0.10
  11  -7  -4    1.96    0.16
  11  -7  -4    2.27    0.20
 -11   7   4    2.42    0.21
  10  -7  -4    0.08    0.08
  10  -7  -4    0.10    0.09
 -10   7   4   -0.05    0.08
   9  -7  -4   -0.02    0.08
   9  -7  -4   -0.01    0.08
  -9   7   4    0.13    0.09
  -9   7   4    0.04    0.08
   8  -7  -4    0.41    0.10
   8  -7  -4    0.32    0.09
  -8   7   4    0.46    0.09
  -8   7   4    0.35    0.10
   7  -7  -4    0.07    0.05
   7  -7  -4    0.14    0.09
   7  -7  -4    0.10    0.08
  -7   7   4    0.19    0.10
  -7   7   4    0.12    0.08
   6  -7  -4    0.03    0.05
   6  -7  -4    0.00    0.08
   6  -7  -4    0.11    0.07
  -6   7   4    0.01    0.07
  -6   7   4    0.04    0.09
   5  -7  -4    0.24    0.06
   5  -7  -4    0.24    0.07
   5  -7  -4    0.30    0.09
  -5   7   4    0.26    0.10
  -5   7   4    0.21    0.06
   4  -7  -4    3.95    0.18
   4  -7  -4    3.55    0.17
   4  -7  -4    3.66    0.21
  -4   7   4    3.62    0.21
  -4   7   4    3.58    0.15
  -4   7   4    3.67    0.16
   3  -7  -4    4.87    0.19
   3  -7  -4    4.85    0.21
   3  -7  -4    5.05    0.25
  -3   7   4    4.85    0.18
  -3   7   4    4.93    0.25
   2  -7  -4    0.41    0.06
   2  -7  -4    0.47    0.10
   2  -7  -4    0.45    0.09
  -2   7   4    0.42    0.11
  -2   7   4    0.40    0.05
   1  -7  -4    0.66    0.11
   1  -7  -4    0.48    0.10
  -1   7   4    0.55    0.11
  -1   7   4    0.27    0.09
   0  -7  -4    0.94    0.12
   0  -7  -4    0.95    0.13
   0   7   4    0.93    0.14
   0   7   4    0.85    0.11
  -1  -7  -4    0.01    0.09
   1   7   4   -0.05    0.07
   1   7   4    0.08    0.09
  11  -8  -4    0.11    0.10
  11  -8  -4   -0.09    0.08
 -11   8   4   -0.05    0.10
  10  -8  -4   -0.02    0.08
  10  -8  -4    0.06    0.09
 -10   8   4    0.06    0.09
   9  -8  -4    1.77    0.17
   9  -8  -4    2.19    0.19
  -9   8   4    2.36    0.18
  -9   8   4    2.07    0.18
   8  -8  -4    1.90    0.18
   8  -8  -4    2.02    0.18
  -8   8   4    1.87    0.18
  -8   8   4    1.79    0.17
   7  -8  -4    7.59    0.33
   7  -8  -4    7.09    0.30
   7  -8  -4    7.46    0.27
  -7   8   4    7.31    0.28
  -7   8   4    7.73    0.33
   6  -8  -4    0.49    0.08
   6  -8  -4    0.59    0.12
   6  -8  -4    0.44    0.09
  -6   8   4    0.47    0.11
  -6   8   4    0.43    0.08
   5  -8  -4    0.16    0.10
   5  -8  -4    0.16    0.07
   5  -8  -4    0.23    0.07
  -5   8   4    0.16    0.10
  -5   8   4    0.31    0.06
   4  -8  -4    0.07    0.06
   4  -8  -4    0.03    0.09
   4  -8  -4    0.13    0.07
  -4   8   4    0.16    0.10
  -4   8   4    0.13    0.05
   3  -8  -4    2.19    0.16
   3  -8  -4    2.11    0.19
  -3   8   4    2.21    0.19
   2  -8  -4    3.77    0.24
   2  -8  -4    3.61    0.21
  -2   8   4    3.53    0.24
  -2   8   4    3.30    0.19
   1  -8  -4    3.15    0.22
   1  -8  -4    3.05    0.21
  -1   8   4    3.02    0.22
  -1   8   4    3.02    0.18
   0  -8  -4    0.65    0.12
   0   8   4    0.44    0.10
   0   8   4    0.44    0.12
  10  -9  -4    0.10    0.09
  10  -9  -4   -0.13    0.09
 -10   9   4    0.13    0.09
   9  -9  -4    0.31    0.10
   9  -9  -4    0.34    0.11
  -9   9   4    0.28    0.11
  -9   9   4    0.06    0.09
   8  -9  -4    0.07    0.06
   8  -9  -4   -0.09    0.08
   8  -9  -4   -0.05    0.10
  -8   9   4    0.02    0.08
  -8   9   4    0.00    0.10
   7  -9  -4    0.01    0.06
   7  -9  -4   -0.07    0.08
   7  -9  -4   -0.06    0.09
  -7   9   4    0.05    0.07
  -7   9   4   -0.13    0.10
   6  -9  -4    0.02    0.06
   6  -9  -4    0.08    0.07
   6  -9  -4    0.04    0.10
  -6   9   4    0.03    0.06
  -6   9   4   -0.06    0.10
   5  -9  -4    0.43    0.11
   5  -9  -4    0.67    0.09
   5  -9  -4    0.46    0.08
  -5   9   4    0.42    0.12
  -5   9   4    0.58    0.07
   4  -9  -4    0.13    0.08
   4  -9  -4    0.17    0.11
  -4   9   4    0.01    0.11
   3  -9  -4    0.10    0.09
   3  -9  -4    0.06    0.10
  -3   9   4    0.11    0.11
   2  -9  -4    2.67    0.24
   2  -9  -4    2.33    0.19
  -2   9   4    2.46    0.26
  -2   9   4    2.88    0.18
   8 -10  -4    0.35    0.13
   8 -10  -4    0.30    0.08
   8 -10  -4    0.37    0.11
  -8  10   4    0.42    0.14
  -8  10   4    0.35    0.10
   7 -10  -4   -0.03    0.08
   7 -10  -4    0.16    0.12
   7 -10  -4    0.01    0.06
  -7  10   4   -0.04    0.11
  -7  10   4    0.04    0.07
   6 -10  -4    0.74    0.15
   6 -10  -4    1.04    0.12
  -6  10   4    1.05    0.17
   5 -10  -4    1.70    0.19
   5 -10  -4    1.72    0.16
  -5  10   4    1.53    0.19
  -5  13  -5    1.53    0.15
  -5  13  -5    1.53    0.17
   5 -13   5    1.38    0.16
   5 -13   5    1.27    0.16
  -6  13  -5    0.68    0.13
  -6  13  -5    0.72    0.12
   6 -13   5    0.59    0.12
   6 -13   5    0.67    0.13
   1 -12   5    0.04    0.08
   1 -12   5    0.21    0.09
   1 -12   5    0.02    0.10
  -2  12  -5    0.02    0.07
  -2  12  -5    0.01    0.09
   2 -12   5    0.05    0.09
   2 -12   5    0.11    0.08
   2 -12   5    0.00    0.08
  -3  12  -5    0.37    0.09
  -3  12  -5    0.31    0.10
   3 -12   5    0.34    0.11
   3 -12   5    0.19    0.09
  -4  12  -5    0.02    0.08
  -4  12  -5    0.15    0.09
   4 -12   5   -0.02    0.08
   4 -12   5    0.05    0.08
  -5  12  -5    1.01    0.14
  -5  12  -5    0.96    0.12
   5 -12   5    0.94    0.13
   5 -12   5    0.93    0.13
  -6  12  -5    0.38    0.10
  -6  12  -5    0.24    0.10
   6 -12   5    0.49    0.11
   6 -12   5    0.23    0.10
  -7  12  -5    1.47    0.15
  -7  12  -5    1.34    0.15
   7 -12   5    1.23    0.14
   7 -12   5    1.45    0.16
  -8  12  -5    0.04    0.09
  -8  12  -5    0.09    0.08
   8 -12   5    0.08    0.10
   8 -12   5   -0.01    0.08
   1  11  -5    0.00    0.08
  -1 -11   5    0.01    0.09
  -1 -11   5   -0.03    0.07
   0  11  -5    2.91    0.20
   0 -11   5    3.32    0.20
   0 -11   5    2.81    0.20
   0 -11   5    3.10    0.20
  -1  11  -5    0.46    0.10
   1 -11   5    0.49    0.10
   1 -11   5    0.46    0.09
   1 -11   5    0.45    0.10
  -2  11  -5    0.47    0.10
  -2  11  -5    0.52    0.09
   2 -11   5    0.45    0.09
   2 -11   5    0.63    0.11
   2 -11   5    0.57    0.09
  -3  11  -5    0.25    0.09
  -3  11  -5    0.37    0.08
   3 -11   5    0.27    0.09
   3 -11   5    0.30    0.10
  -4  11  -5   -0.12    0.06
  -4  11  -5    0.01    0.08
   4 -11   5    0.05    0.08
   4 -11   5    0.01    0.07
  -5  11  -5    0.00    0.07
  -5  11  -5    0.08    0.08
   5 -11   5    0.01    0.08
   5 -11   5    0.06    0.08
  -6  11  -5    6.08    0.28
  -6  11  -5    6.22    0.27
   6 -11   5    5.87    0.28
   6 -11   5    6.14    0.28
  -7  11  -5    0.02    0.07
  -7  11  -5    0.00    0.07
   7 -11   5    0.04    0.08
   7 -11   5   -0.10    0.08
  -8  11  -5    0.06    0.08
  -8  11  -5    0.11    0.07
   8 -11   5    0.04    0.07
   8 -11   5   -0.18    0.08
  -9  11  -5    0.05    0.08
   9 -11   5    0.06    0.10
   9 -11   5    0.19    0.08
   2  10  -5    0.50    0.10
   2  10  -5    0.52    0.09
  -2 -10   5    0.64    0.10
  -2 -10   5    0.67    0.10
   1  10  -5    2.10    0.16
   1  10  -5    2.00    0.14
  -1 -10   5    2.09    0.16
  -1 -10   5    2.07    0.16
  -1 -10   5    1.95    0.16
   0  10  -5    0.64    0.10
   0  10  -5    0.59    0.07
   0 -10   5    0.52    0.09
   0 -10   5    0.61    0.10
   0 -10   5    0.73    0.10
  -1  10  -5    0.08    0.08
  -1  10  -5    0.05    0.04
  -1  10  -5    0.00    0.06
   1 -10   5    0.03    0.07
   1 -10   5    0.07    0.07
   1 -10   5    0.01    0.07
  -2  10  -5    5.92    0.20
  -2  10  -5    5.92    0.27
  -2  10  -5    6.23    0.24
   2 -10   5    5.55    0.26
   2 -10   5    6.50    0.28
   2 -10   5    6.43    0.25
  -3  10  -5    0.72    0.10
  -3  10  -5    0.69    0.10
   3 -10   5    0.89    0.11
   3 -10   5    0.81    0.11
  -4  10  -5    1.20    0.13
  -4  10  -5    1.38    0.13
   4 -10   5    1.54    0.15
   4 -10   5    1.14    0.13
  -5  10  -5    0.02    0.07
  -5  10  -5    0.05    0.08
   5 -10   5    0.09    0.08
   5 -10   5   -0.02    0.07
  -6  10  -5    0.09    0.07
  -6  10  -5    0.08    0.07
   6 -10   5    0.02    0.07
   6 -10   5   -0.12    0.07
  -7  10  -5    0.08    0.07
  -7  10  -5    0.06    0.07
   7 -10   5   -0.07    0.06
   7 -10   5   -0.21    0.08
  -8  10  -5    0.19    0.08
  -8  10  -5    0.20    0.08
   8 -10   5    0.20    0.08
   8 -10   5   -0.06    0.10
  -9  10  -5    0.02    0.08
   9 -10   5    0.02    0.09
   9 -10   5    0.10    0.07
 -10  10  -5    0.37    0.10
  10 -10   5    0.38    0.09
  10 -10   5    0.45    0.12
   4   9  -5    1.45    0.14
   4   9  -5    1.22    0.13
  -4  -9   5    1.41    0.13
   3   9  -5    1.40    0.14
   3   9  -5    1.33    0.12
  -3  -9   5    1.59    0.14
  -3  -9   5    1.43    0.12
   2   9  -5    0.58    0.09
   2   9  -5    0.70    0.08
  -2  -9   5    0.66    0.10
  -2  -9   5    0.67    0.09
  -2  -9   5    0.69    0.09
  -2  -9   5    0.50    0.09
   1   9  -5    0.18    0.06
   1   9  -5    0.11    0.07
  -1  -9   5    0.10    0.07
  -1  -9   5    0.14    0.07
  -1  -9   5    0.14    0.07
  -1  -9   5    0.18    0.07
   0   9  -5    5.64    0.25
   0   9  -5    5.24    0.19
   0   9  -5    5.51    0.21
   0  -9   5    5.43    0.24
   0  -9   5    5.32    0.23
   0  -9   5    5.75    0.23
  -1   9  -5   36.94    1.09
  -1   9  -5   38.79    0.99
  -1   9  -5   37.32    0.95
  -1   9  -5   38.56    0.99
   1  -9   5   38.56    1.01
   1  -9   5   38.44    1.05
   1  -9   5   37.65    1.09
  -2   9  -5   13.69    0.40
  -2   9  -5   13.19    0.41
  -2   9  -5   13.34    0.46
   2  -9   5   14.09    0.46
   2  -9   5   13.69    0.44
  -3   9  -5    0.11    0.08
  -3   9  -5    0.13    0.07
   3  -9   5    0.29    0.07
   3  -9   5    0.17    0.08
  -4   9  -5    0.21    0.07
  -4   9  -5    0.02    0.07
   4  -9   5   -0.07    0.05
   4  -9   5   -0.02    0.06
  -5   9  -5    2.83    0.16
  -5   9  -5    2.87    0.17
   5  -9   5    2.68    0.17
   5  -9   5    3.04    0.18
  -6   9  -5    1.05    0.11
  -6   9  -5    1.06    0.11
   6  -9   5    0.86    0.12
   6  -9   5    1.03    0.11
  -7   9  -5    0.06    0.07
  -7   9  -5    0.00    0.06
   7  -9   5   -0.27    0.08
   7  -9   5    0.01    0.06
  -8   9  -5    0.64    0.10
  -8   9  -5    0.76    0.11
   8  -9   5    0.65    0.10
   8  -9   5    0.79    0.12
  -9   9  -5    0.31    0.09
   9  -9   5    0.40    0.11
   9  -9   5    0.43    0.09
 -10   9  -5    0.20    0.09
  10  -9   5    0.04    0.07
  10  -9   5    0.04    0.10
   5   8  -5    0.95    0.12
   5   8  -5    1.01    0.11
  -5  -8   5    1.01    0.13
  -5  -8   5    1.10    0.11
   4   8  -5    0.26    0.08
   4   8  -5    0.25    0.07
  -4  -8   5    0.19    0.08
  -4  -8   5    0.32    0.09
   3   8  -5    0.14    0.06
   3   8  -5    0.15    0.07
  -3  -8   5    0.33    0.08
  -3  -8   5    0.13    0.07
  -3  -8   5    0.21    0.07
   2   8  -5    1.74    0.14
   2   8  -5    1.58    0.15
   2   8  -5    1.91    0.13
  -2  -8   5    1.92    0.13
  -2  -8   5    2.24    0.14
  -2  -8   5    1.65    0.14
   1   8  -5   11.93    0.41
   1   8  -5   11.94    0.34
   1   8  -5   12.21    0.41
   1   8  -5   12.03    0.36
   1   8  -5   12.07    0.36
  -1  -8   5   12.32    0.37
  -1  -8   5   12.07    0.41
  -1  -8   5   12.31    0.40
  -1  -8   5   12.46    0.36
   0   8  -5    0.27    0.05
   0   8  -5    0.30    0.06
   0   8  -5    0.14    0.04
   0   8  -5    0.25    0.08
   0   8  -5    0.25    0.07
   0  -8   5    0.23    0.07
   0  -8   5    0.31    0.06
   0  -8   5    0.22    0.08
   0  -8   5    0.25    0.07
  -1   8  -5   37.34    0.96
  -1   8  -5   36.41    1.06
  -1   8  -5   36.93    0.97
   1  -8   5   38.81    1.02
   1  -8   5   37.64    0.98
   1  -8   5   36.09    1.05
  -2   8  -5    1.72    0.12
  -2   8  -5    1.88    0.13
  -2   8  -5    1.49    0.10
   2  -8   5    1.69    0.14
   2  -8   5    1.65    0.14
  -3   8  -5   44.36    1.12
  -3   8  -5   42.05    1.21
   3  -8   5   44.77    1.18
   3  -8   5   42.99    1.22
  -4   8  -5   10.93    0.37
  -4   8  -5   11.06    0.34
   4  -8   5   11.12    0.38
   4  -8   5   10.71    0.37
   4  -8   5   10.82    0.37
  -5   8  -5    0.68    0.09
  -5   8  -5    0.53    0.08
   5  -8   5    0.60    0.08
   5  -8   5    0.60    0.08
   5  -8   5    0.60    0.09
  -6   8  -5    5.14    0.22
  -6   8  -5    5.40    0.22
   6  -8   5    5.32    0.24
   6  -8   5    5.27    0.22
   6  -8   5    5.21    0.22
  -7   8  -5    5.27    0.24
  -7   8  -5    5.57    0.24
   7  -8   5    5.47    0.24
   7  -8   5    6.08    0.27
   7  -8   5    5.47    0.24
  -8   8  -5    4.21    0.22
   8  -8   5    4.68    0.24
   8  -8   5    3.90    0.20
  -9   8  -5    0.16    0.09
   9  -8   5    0.43    0.11
   9  -8   5    0.41    0.08
 -10   8  -5    2.12    0.17
  10  -8   5    2.39    0.21
  10  -8   5    2.07    0.14
   6   7  -5    4.35    0.23
   6   7  -5    4.42    0.20
  -6  -7   5    4.51    0.23
  -6  -7   5    4.73    0.21
   5   7  -5    0.07    0.07
   5   7  -5    0.13    0.06
  -5  -7   5    0.11    0.07
  -5  -7   5    0.04    0.07
   4   7  -5   15.94    0.50
   4   7  -5   15.53    0.48
  -4  -7   5   16.18    0.48
  -4  -7   5   16.29    0.47
   3   7  -5    0.93    0.09
   3   7  -5    1.01    0.10
   3   7  -5    1.11    0.11
  -3  -7   5    1.11    0.08
  -3  -7   5    1.07    0.10
  -3  -7   5    0.93    0.09
  -3  -7   5    0.93    0.08
  -3  -7   5    0.84    0.09
   2   7  -5    0.16    0.04
   2   7  -5    0.07    0.06
   2   7  -5    0.24    0.05
   2   7  -5    0.16    0.06
  -2  -7   5    0.07    0.05
  -2  -7   5    0.13    0.05
  -2  -7   5    0.16    0.03
  -2  -7   5    0.13    0.05
  -2  -7   5    0.13    0.06
   1   7  -5    1.16    0.11
   1   7  -5    1.17    0.09
   1   7  -5    1.21    0.11
   1   7  -5    1.22    0.07
   1   7  -5    1.24    0.09
  -1  -7   5    1.29    0.09
  -1  -7   5    1.04    0.10
  -1  -7   5    1.21    0.11
  -1  -7   5    1.35    0.10
   0   7  -5   51.79    1.28
   0   7  -5   49.26    1.25
   0   7  -5   47.23    1.37
   0   7  -5   50.21    1.38
   0  -7   5   50.46    1.33
   0  -7   5   51.30    1.25
   0  -7   5   48.89    1.37
   0  -7   5   50.68    1.22
   0  -7   5   49.75    1.27
  -1   7  -5    0.43    0.07
  -1   7  -5    0.54    0.06
  -1   7  -5    0.49    0.07
  -1   7  -5    0.42    0.05
   1  -7   5    0.42    0.07
   1  -7   5    0.41    0.06
   1  -7   5    0.26    0.06
   1  -7   5    0.33    0.05
  -2   7  -5    0.11    0.04
  -2   7  -5    0.19    0.05
  -2   7  -5    0.08    0.05
  -2   7  -5    0.03    0.05
   2  -7   5    0.10    0.05
   2  -7   5    0.10    0.05
   2  -7   5    0.15    0.05
  -3   7  -5   22.78    0.68
  -3   7  -5   23.59    0.63
   3  -7   5   23.59    0.66
   3  -7   5   22.88    0.68
   3  -7   5   24.09    0.69
  -4   7  -5   10.64    0.35
  -4   7  -5   10.35    0.33
   4  -7   5   10.81    0.35
   4  -7   5   10.57    0.35
   4  -7   5   10.58    0.35
  -5   7  -5    6.82    0.25
  -5   7  -5    7.10    0.26
   5  -7   5    6.79    0.26
   5  -7   5    6.64    0.26
   5  -7   5    7.23    0.27
  -6   7  -5   14.00    0.43
  -6   7  -5   14.87    0.39
  -6   7  -5   13.89    0.46
   6  -7   5   14.56    0.46
   6  -7   5   15.27    0.47
   6  -7   5   14.32    0.46
  -7   7  -5   13.99    0.45
  -7   7  -5   15.02    0.42
  -7   7  -5   14.27    0.44
   7  -7   5   15.20    0.48
   7  -7   5   14.80    0.46
   7  -7   5   13.98    0.45
  -8   7  -5   -0.16    0.06
   8  -7   5   -0.01    0.05
   8  -7   5   -0.03    0.04
   8  -7   5   -0.06    0.07
  -9   7  -5    0.33    0.09
   9  -7   5    0.08    0.09
   9  -7   5    0.26    0.07
 -10   7  -5    0.15    0.08
  10  -7   5    0.04    0.06
   7   6  -5    0.84    0.08
   7   6  -5    0.69    0.12
  -7  -6   5    0.85    0.12
   6   6  -5    4.48    0.19
   6   6  -5    4.84    0.23
  -6  -6   5    4.38    0.19
  -6  -6   5    4.90    0.20
  -6  -6   5    4.84    0.23
   5   6  -5    0.39    0.07
   5   6  -5    0.46    0.09
  -5  -6   5    0.50    0.09
  -5  -6   5    0.41    0.07
  -5  -6   5    0.48    0.07
   4   6  -5    7.12    0.23
   4   6  -5    7.53    0.27
   4   6  -5    7.74    0.27
   4   6  -5    7.32    0.27
  -4  -6   5    7.67    0.26
  -4  -6   5    7.39    0.25
  -4  -6   5    7.48    0.23
  -4  -6   5    7.29    0.26
   3   6  -5   12.78    0.40
   3   6  -5   12.04    0.35
   3   6  -5   11.85    0.36
   3   6  -5   13.12    0.38
   3   6  -5   12.22    0.39
  -3  -6   5   12.10    0.37
  -3  -6   5   12.01    0.36
  -3  -6   5   12.26    0.33
  -3  -6   5   12.37    0.34
  -3  -6   5   12.08    0.39
   2   6  -5    0.48    0.05
   2   6  -5    0.46    0.07
   2   6  -5    0.46    0.06
   2   6  -5    0.56    0.06
   2   6  -5    0.56    0.05
   2   6  -5    0.41    0.07
  -2  -6   5    0.51    0.05
  -2  -6   5    0.51    0.07
  -2  -6   5    0.41    0.06
  -2  -6   5    0.53    0.05
  -2  -6   5    0.48    0.06
   1   6  -5    1.94    0.10
   1   6  -5    1.72    0.09
   1   6  -5    1.79    0.12
   1   6  -5    1.84    0.09
   1   6  -5    1.65    0.12
  -1  -6   5    1.88    0.07
  -1  -6   5    1.97    0.10
  -1  -6   5    1.94    0.09
  -1  -6   5    1.90    0.10
  -1  -6   5    1.57    0.12
   0   6  -5   38.43    1.04
   0   6  -5   37.18    1.04
   0   6  -5   37.56    0.96
   0   6  -5   37.79    0.94
   0   6  -5   37.74    0.97
   0  -6   5   35.87    0.92
   0  -6   5   37.37    1.04
   0  -6   5   37.89    1.04
   0  -6   5   37.24    0.94
  -1   6  -5   16.35    0.45
  -1   6  -5   16.34    0.46
  -1   6  -5   16.72    0.50
  -1   6  -5   16.66    0.50
  -1   6  -5   16.50    0.45
   1  -6   5   16.96    0.45
   1  -6   5   16.60    0.50
   1  -6   5   16.84    0.50
   1  -6   5   16.15    0.48
   1  -6   5   16.30    0.42
  -2   6  -5   10.76    0.35
  -2   6  -5   11.20    0.32
  -2   6  -5   10.78    0.32
  -2   6  -5   10.64    0.32
  -2   6  -5   11.07    0.35
   2  -6   5   10.79    0.35
   2  -6   5   11.00    0.35
   2  -6   5   10.93    0.32
   2  -6   5   10.33    0.33
  -3   6  -5   25.96    0.74
  -3   6  -5   26.72    0.74
  -3   6  -5   26.12    0.69
  -3   6  -5   24.89    0.68
   3  -6   5   26.36    0.75
   3  -6   5   27.30    0.75
   3  -6   5   26.24    0.72
   3  -6   5   25.21    0.69
  -4   6  -5    7.26    0.25
  -4   6  -5    7.28    0.24
  -4   6  -5    7.64    0.26
   4  -6   5    7.17    0.26
   4  -6   5    7.36    0.26
   4  -6   5    7.51    0.26
  -5   6  -5   23.20    0.63
  -5   6  -5   22.61    0.67
   5  -6   5   22.86    0.67
   5  -6   5   22.94    0.67
   5  -6   5   23.82    0.66
  -6   6  -5   69.48    1.96
  -6   6  -5   74.48    1.84
  -6   6  -5   73.34    1.78
   6  -6   5   71.35    1.97
   6  -6   5   76.31    1.93
   6  -6   5   74.25    1.81
   6  -6   5   74.31    1.97
  -7   6  -5    1.07    0.11
  -7   6  -5    1.24    0.10
   7  -6   5    1.20    0.10
   7  -6   5    1.20    0.10
   7  -6   5    1.24    0.09
   7  -6   5    1.35    0.12
  -8   6  -5    0.70    0.09
   8  -6   5    0.57    0.05
   8  -6   5    0.62    0.08
   8  -6   5    0.44    0.09
  -9   6  -5    2.19    0.16
   9  -6   5    1.87    0.12
   9  -6   5    2.02    0.17
 -10   6  -5    0.17    0.08
  10  -6   5    0.06    0.08
   8   5  -5    1.80    0.16
  -8  -5   5    2.15    0.18
   7   5  -5    2.16    0.12
   7   5  -5    2.26    0.17
  -7  -5   5    2.14    0.16
  -7  -5   5    2.11    0.14
   6   5  -5    5.34    0.21
   6   5  -5    5.67    0.24
  -6  -5   5    5.35    0.19
  -6  -5   5    5.38    0.24
  -6  -5   5    5.82    0.20
  -6  -5   5    5.44    0.21
   5   5  -5    1.25    0.10
   5   5  -5    1.17    0.08
   5   5  -5    1.18    0.10
   5   5  -5    1.09    0.10
   5   5  -5    1.39    0.10
  -5  -5   5    1.45    0.12
  -5  -5   5    1.09    0.09
  -5  -5   5    1.26    0.08
  -5  -5   5    1.17    0.10
  -5  -5   5    1.12    0.09
   4   5  -5   30.45    0.78
   4   5  -5   29.41    0.84
   4   5  -5   29.74    0.78
   4   5  -5   29.77    0.78
   4   5  -5   30.26    0.84
  -4  -5   5   29.98    0.78
  -4  -5   5   29.72    0.78
  -4  -5   5   29.81    0.77
  -4  -5   5   29.86    0.74
  -4  -5   5   28.98    0.83
  -4  -5   5   29.79    0.76
   3   5  -5   16.76    0.46
   3   5  -5   17.02    0.47
   3   5  -5   17.32    0.46
   3   5  -5   17.33    0.50
   3   5  -5   16.88    0.50
  -3  -5   5   17.32    0.47
  -3  -5   5   16.64    0.46
  -3  -5   5   16.95    0.44
  -3  -5   5   16.34    0.45
  -3  -5   5   15.99    0.50
  -3  -5   5   16.91    0.43
   2   5  -5   10.74    0.34
   2   5  -5   10.85    0.29
   2   5  -5   10.50    0.31
   2   5  -5   10.53    0.31
   2   5  -5   10.59    0.30
   2   5  -5   10.69    0.34
  -2  -5   5   11.26    0.30
  -2  -5   5   10.76    0.34
  -2  -5   5   10.87    0.31
  -2  -5   5   11.16    0.35
  -2  -5   5   11.19    0.29
  -2  -5   5   10.80    0.31
   1   5  -5   16.72    0.46
   1   5  -5   17.34    0.51
   1   5  -5   16.87    0.45
   1   5  -5   16.90    0.45
   1   5  -5   17.17    0.51
  -1  -5   5   17.01    0.45
  -1  -5   5   16.95    0.51
  -1  -5   5   17.93    0.51
   0   5  -5    8.24    0.25
   0   5  -5    7.76    0.27
   0   5  -5    8.32    0.24
   0   5  -5    8.25    0.24
   0   5  -5    8.12    0.28
   0  -5   5    7.96    0.27
   0  -5   5    8.21    0.23
   0  -5   5    8.27    0.24
   0  -5   5    8.01    0.27
  -1   5  -5   22.71    0.64
  -1   5  -5   21.86    0.58
  -1   5  -5   21.84    0.64
  -1   5  -5   22.20    0.60
  -1   5  -5   22.18    0.59
   1  -5   5   22.61    0.58
   1  -5   5   22.37    0.64
   1  -5   5   22.87    0.55
   1  -5   5   23.00    0.64
   1  -5   5   21.90    0.61
   1  -5   5   22.23    0.54
  -2   5  -5    4.42    0.18
  -2   5  -5    4.95    0.16
  -2   5  -5    4.62    0.18
  -2   5  -5    4.42    0.16
  -2   5  -5    4.58    0.16
   2  -5   5    4.51    0.18
   2  -5   5    4.30    0.17
   2  -5   5    4.43    0.16
   2  -5   5    3.98    0.17
   2  -5   5    4.63    0.12
  -3   5  -5    4.80    0.18
  -3   5  -5    4.79    0.18
  -3   5  -5    4.69    0.19
   3  -5   5    4.95    0.19
   3  -5   5    4.82    0.14
   3  -5   5    4.86    0.18
   3  -5   5    4.76    0.19
  -4   5  -5    0.06    0.04
  -4   5  -5    0.03    0.04
  -4   5  -5   -0.04    0.04
   4  -5   5    0.00    0.04
   4  -5   5    0.07    0.04
   4  -5   5   -0.01    0.04
  -5   5  -5    1.23    0.11
  -5   5  -5    1.55    0.11
  -5   5  -5    1.42    0.11
   5  -5   5    1.64    0.13
   5  -5   5    1.14    0.09
   5  -5   5    1.34    0.11
   5  -5   5    1.31    0.11
  -6   5  -5    0.95    0.10
  -6   5  -5    0.94    0.09
   6  -5   5    0.89    0.08
   6  -5   5    1.10    0.10
   6  -5   5    1.12    0.10
   6  -5   5    1.03    0.09
  -7   5  -5   -0.14    0.05
  -7   5  -5   -0.06    0.04
   7  -5   5    0.02    0.03
   7  -5   5   -0.16    0.05
   7  -5   5    0.00    0.04
   7  -5   5    0.03    0.04
  -8   5  -5    0.29    0.08
   8  -5   5    0.13    0.06
   8  -5   5    0.09    0.08
  -9   5  -5   -0.02    0.07
   9  -5   5    0.00    0.04
   9  -5   5   -0.06    0.07
 -10   5  -5    0.04    0.07
  10  -5   5   -0.01    0.07
   8   4  -5    2.78    0.20
  -8  -4   5    2.70    0.18
   7   4  -5    1.82    0.15
   7   4  -5    1.65    0.11
  -7  -4   5    2.00    0.11
  -7  -4   5    1.52    0.11
  -7  -4   5    1.81    0.11
  -7  -4   5    1.94    0.15
   6   4  -5    2.58    0.13
   6   4  -5    2.88    0.16
  -6  -4   5    2.62    0.12
  -6  -4   5    2.72    0.13
  -6  -4   5    2.74    0.14
  -6  -4   5    2.59    0.13
   5   4  -5    5.05    0.17
   5   4  -5    4.86    0.19
   5   4  -5    5.43    0.21
   5   4  -5    4.80    0.19
   5   4  -5    5.10    0.18
  -5  -4   5    5.02    0.19
  -5  -4   5    4.84    0.19
  -5  -4   5    5.03    0.18
  -5  -4   5    5.03    0.17
   4   4  -5   13.13    0.37
   4   4  -5   12.75    0.38
   4   4  -5   12.95    0.35
   4   4  -5   12.69    0.36
   4   4  -5   12.74    0.39
  -4  -4   5   11.85    0.36
  -4  -4   5   12.67    0.35
  -4  -4   5   12.44    0.39
  -4  -4   5   12.51    0.34
  -4  -4   5   12.54    0.36
   3   4  -5    9.16    0.29
   3   4  -5    8.86    0.25
   3   4  -5    8.68    0.29
   3   4  -5    8.83    0.26
   3   4  -5    8.85    0.23
   3   4  -5    8.61    0.27
  -3  -4   5    8.56    0.29
  -3  -4   5    8.77    0.23
  -3  -4   5    8.85    0.27
  -3  -4   5    8.83    0.25
  -3  -4   5    8.82    0.26
  -3  -4   5    9.17    0.29
   2   4  -5   18.30    0.47
   2   4  -5   18.80    0.53
   2   4  -5   17.85    0.49
   2   4  -5   17.38    0.52
   2   4  -5   17.77    0.46
  -2  -4   5   18.28    0.46
  -2  -4   5   18.26    0.49
  -2  -4   5   17.72    0.52
  -2  -4   5   18.53    0.53
   1   4  -5   26.73    0.67
   1   4  -5   25.73    0.69
   1   4  -5   25.98    0.74
   1   4  -5   26.15    0.66
   1   4  -5   26.34    0.74
  -1  -4   5   26.21    0.74
  -1  -4   5   26.13    0.66
  -1  -4   5   27.12    0.70
  -1  -4   5   26.32    0.74
   0   4  -5   75.72    1.96
   0   4  -5   73.96    1.82
   0   4  -5   73.10    1.96
   0   4  -5   72.83    1.86
   0   4  -5   74.31    1.80
   0  -4   5   74.88    1.96
   0  -4   5   71.04    1.96
  -1   4  -5   93.21    2.26
  -1   4  -5   95.31    2.34
  -1   4  -5   90.82    2.46
  -1   4  -5   93.51    2.46
   1  -4   5   95.43    2.46
   1  -4   5   92.53    2.27
   1  -4   5   89.61    2.46
   1  -4   5   93.25    2.37
  -2   4  -5  100.69    2.62
  -2   4  -5   98.69    2.50
  -2   4  -5   99.78    2.41
  -2   4  -5   96.41    2.62
   2  -4   5   97.03    2.62
   2  -4   5   98.25    2.41
   2  -4   5  103.24    2.62
   2  -4   5   98.81    2.38
   2  -4   5   98.76    2.53
  -3   4  -5    0.40    0.05
  -3   4  -5    0.42    0.06
  -3   4  -5    0.30    0.05
   3  -4   5    0.39    0.06
   3  -4   5    0.41    0.05
   3  -4   5    0.43    0.05
   3  -4   5    0.47    0.06
   3  -4   5    0.46    0.05
  -4   4  -5   19.19    0.56
  -4   4  -5   19.38    0.56
  -4   4  -5   19.66    0.53
  -4   4  -5   19.07    0.53
   4  -4   5   19.84    0.54
   4  -4   5   18.66    0.56
   4  -4   5   19.94    0.56
   4  -4   5   19.22    0.51
   4  -4   5   19.28    0.51
  -5   4  -5   11.04    0.35
  -5   4  -5   10.67    0.32
  -5   4  -5   10.78    0.34
  -5   4  -5   10.70    0.33
   5  -4   5   11.24    0.31
   5  -4   5   11.25    0.34
   5  -4   5   10.85    0.34
   5  -4   5   10.94    0.34
   5  -4   5   10.40    0.32
  -6   4  -5    0.58    0.06
  -6   4  -5    0.67    0.08
  -6   4  -5    0.54    0.06
   6  -4   5    0.57    0.07
   6  -4   5    0.56    0.06
   6  -4   5    0.68    0.07
   6  -4   5    0.47    0.05
  -7   4  -5   -0.01    0.06
   7  -4   5    0.01    0.03
   7  -4   5   -0.01    0.03
   7  -4   5   -0.11    0.04
   7  -4   5   -0.06    0.06
  -8   4  -5    0.14    0.07
   8  -4   5    0.09    0.05
   8  -4   5    0.03    0.07
  -9   4  -5    0.08    0.07
   9  -4   5    0.10    0.07
   9   3  -5    0.70    0.12
  -9  -3   5    0.68    0.11
   8   3  -5    1.19    0.08
   8   3  -5    0.86    0.11
  -8  -3   5    1.15    0.11
   7   3  -5    2.52    0.12
   7   3  -5    2.24    0.16
  -7  -3   5    2.54    0.11
  -7  -3   5    2.75    0.14
  -7  -3   5    2.32    0.12
   6   3  -5    0.01    0.05
   6   3  -5   -0.08    0.06
   6   3  -5    0.01    0.05
   6   3  -5    0.02    0.04
  -6  -3   5    0.03    0.05
  -6  -3   5    0.04    0.04
  -6  -3   5   -0.01    0.05
  -6  -3   5    0.01    0.04
   5   3  -5    2.88    0.11
   5   3  -5    2.78    0.13
   5   3  -5    2.78    0.13
   5   3  -5    2.78    0.12
   5   3  -5    2.99    0.15
  -5  -3   5    2.80    0.10
  -5  -3   5    2.83    0.13
  -5  -3   5    2.64    0.13
  -5  -3   5    2.79    0.13
   4   3  -5    6.32    0.22
   4   3  -5    6.35    0.22
   4   3  -5    6.45    0.21
   4   3  -5    6.30    0.19
   4   3  -5    6.70    0.22
  -4  -3   5    6.46    0.19
  -4  -3   5    6.78    0.22
  -4  -3   5    6.57    0.21
  -4  -3   5    6.56    0.22
  -4  -3   5    6.62    0.21
   3   3  -5    9.72    0.25
   3   3  -5   10.28    0.31
   3   3  -5    9.71    0.26
   3   3  -5    9.63    0.29
   3   3  -5    9.76    0.31
  -3  -3   5    9.92    0.29
  -3  -3   5    9.67    0.31
  -3  -3   5    9.87    0.29
  -3  -3   5   10.16    0.31
   2   3  -5    0.89    0.05
   2   3  -5    0.86    0.07
   2   3  -5    0.94    0.06
   2   3  -5    0.95    0.07
  -2  -3   5    0.82    0.07
  -2  -3   5    0.94    0.07
  -2  -3   5    0.94    0.07
  -2  -3   5    0.95    0.07
   1   3  -5   58.99    1.44
   1   3  -5   53.56    1.57
   1   3  -5   59.45    1.58
   1   3  -5   60.26    1.50
   1   3  -5   59.16    1.46
  -1  -3   5   59.27    1.58
  -1  -3   5   60.45    1.46
  -1  -3   5   59.79    1.58
  -1  -3   5   60.44    1.50
   0   3  -5    9.35    0.26
   0   3  -5    9.12    0.27
   0   3  -5    9.43    0.30
   0   3  -5    9.70    0.29
   0  -3   5    9.23    0.30
   0  -3   5    9.45    0.27
   0  -3   5    9.24    0.28
   0  -3   5    9.43    0.29
  -1   3  -5  159.16    3.94
  -1   3  -5  154.90    3.81
  -1   3  -5  166.62    4.21
  -1   3  -5  153.19    4.13
   1  -3   5  163.73    4.21
   1  -3   5  160.15    4.13
   1  -3   5  151.30    4.07
   1  -3   5  154.05    3.83
  -2   3  -5   15.49    0.45
  -2   3  -5   15.13    0.45
  -2   3  -5   15.67    0.43
  -2   3  -5   15.28    0.42
   2  -3   5   15.28    0.45
   2  -3   5   15.51    0.42
   2  -3   5   15.18    0.37
   2  -3   5   14.97    0.40
   2  -3   5   15.84    0.45
   2  -3   5   15.51    0.41
  -3   3  -5   26.40    0.70
  -3   3  -5   27.49    0.74
  -3   3  -5   26.21    0.69
  -3   3  -5   25.83    0.74
   3  -3   5   27.02    0.68
   3  -3   5   26.97    0.74
   3  -3   5   25.95    0.67
   3  -3   5   26.45    0.70
   3  -3   5   25.72    0.74
  -4   3  -5    9.17    0.27
  -4   3  -5    9.16    0.29
  -4   3  -5    9.26    0.30
  -4   3  -5    9.15    0.29
   4  -3   5    9.51    0.29
   4  -3   5    9.25    0.27
   4  -3   5    9.24    0.30
   4  -3   5    9.66    0.29
   4  -3   5    9.41    0.28
  -5   3  -5    4.75    0.17
  -5   3  -5    4.84    0.17
  -5   3  -5    4.51    0.18
  -5   3  -5    4.88    0.19
   5  -3   5    4.74    0.16
   5  -3   5    4.77    0.18
   5  -3   5    4.67    0.17
   5  -3   5    4.98    0.18
   5  -3   5    4.72    0.18
  -6   3  -5   -0.04    0.05
  -6   3  -5   -0.06    0.04
  -6   3  -5   -0.02    0.04
   6  -3   5   -0.05    0.03
   6  -3   5   -0.05    0.05
   6  -3   5    0.04    0.04
   6  -3   5   -0.07    0.04
   6  -3   5    0.02    0.05
  -7   3  -5    0.85    0.10
   7  -3   5    0.74    0.09
   7  -3   5    0.76    0.07
  -8   3  -5    6.51    0.26
   8  -3   5    6.09    0.19
   8  -3   5    6.79    0.25
  -9   3  -5    1.24    0.14
  -9   3  -5    1.14    0.12
  10   2  -5    2.06    0.19
   9   2  -5    0.35    0.09
  -9  -2   5    0.33    0.08
   8   2  -5    0.39    0.05
   8   2  -5    0.34    0.08
  -8  -2   5    0.40    0.07
  -8  -2   5    0.44    0.06
   7   2  -5    4.91    0.21
   7   2  -5    4.72    0.18
  -7  -2   5    4.85    0.18
  -7  -2   5    4.92    0.15
  -7  -2   5    4.77    0.20
  -7  -2   5    4.79    0.18
   6   2  -5    1.03    0.09
   6   2  -5    1.04    0.08
   6   2  -5    0.89    0.09
  -6  -2   5    1.10    0.10
  -6  -2   5    0.94    0.08
  -6  -2   5    1.07    0.06
  -6  -2   5    0.96    0.08
   5   2  -5   -0.01    0.05
   5   2  -5   -0.01    0.04
   5   2  -5   -0.01    0.04
   5   2  -5   -0.01    0.04
  -5  -2   5    0.06    0.04
  -5  -2   5   -0.05    0.04
  -5  -2   5   -0.02    0.04
  -5  -2   5    0.05    0.02
  -5  -2   5    0.03    0.03
   4   2  -5   41.03    1.13
   4   2  -5   41.80    1.02
   4   2  -5   41.41    1.08
   4   2  -5   41.21    1.03
   4   2  -5   42.75    1.12
  -4  -2   5   41.70    1.12
  -4  -2   5   40.74    1.04
  -4  -2   5   41.43    1.07
  -4  -2   5   42.28    1.13
   3   2  -5    3.42    0.14
   3   2  -5    3.45    0.13
   3   2  -5    3.45    0.10
   3   2  -5    3.39    0.14
   3   2  -5    3.48    0.10
  -3  -2   5    3.56    0.14
  -3  -2   5    3.34    0.13
  -3  -2   5    3.57    0.13
  -3  -2   5    3.36    0.14
   2   2  -5    0.20    0.02
   2   2  -5    0.16    0.04
   2   2  -5    0.15    0.03
   2   2  -5    0.19    0.04
   2   2  -5    0.18    0.03
  -2  -2   5    0.14    0.04
  -2  -2   5    0.25    0.04
  -2  -2   5    0.17    0.04
  -2  -2   5    0.21    0.04
   1   2  -5    3.92    0.14
   1   2  -5    4.04    0.15
   1   2  -5    4.25    0.14
   1   2  -5    3.93    0.15
  -1  -2   5    3.98    0.15
  -1  -2   5    4.00    0.14
  -1  -2   5    3.79    0.15
   0   2  -5   58.97    1.52
   0   2  -5   59.92    1.59
   0   2  -5   59.33    1.60
   0   2  -5   60.91    1.47
   0  -2   5   59.26    1.52
   0  -2   5   61.31    1.59
   0  -2   5   58.60    1.47
   0  -2   5   60.21    1.60
  -1   2  -5    0.16    0.04
  -1   2  -5    0.16    0.05
  -1   2  -5    0.13    0.04
  -1   2  -5    0.28    0.04
   1  -2   5    0.13    0.05
   1  -2   5    0.15    0.04
   1  -2   5    0.05    0.04
   1  -2   5    0.17    0.03
  -2   2  -5   24.54    0.61
  -2   2  -5   24.32    0.66
  -2   2  -5   23.53    0.67
  -2   2  -5   23.36    0.64
   2  -2   5   23.50    0.67
   2  -2   5   23.75    0.61
   2  -2   5   24.43    0.67
   2  -2   5   24.03    0.63
   2  -2   5   23.38    0.61
   2  -2   5   23.39    0.58
  -3   2  -5   65.56    1.65
  -3   2  -5   65.96    1.73
  -3   2  -5   66.41    1.72
  -3   2  -5   64.88    1.65
   3  -2   5   63.66    1.58
   3  -2   5   63.11    1.54
   3  -2   5   65.70    1.66
   3  -2   5   63.98    1.73
   3  -2   5   65.55    1.72
   3  -2   5   62.89    1.59
  -4   2  -5    2.46    0.12
  -4   2  -5    2.32    0.12
  -4   2  -5    2.53    0.10
   4  -2   5    2.37    0.12
   4  -2   5    2.61    0.11
   4  -2   5    2.51    0.12
   4  -2   5    2.57    0.11
   4  -2   5    2.40    0.12
  -5   2  -5    3.25    0.14
  -5   2  -5    3.30    0.13
   5  -2   5    3.22    0.14
   5  -2   5    3.33    0.16
   5  -2   5    3.38    0.14
   5  -2   5    3.40    0.12
   5  -2   5    3.50    0.14
  -6   2  -5   14.49    0.42
  -6   2  -5   14.95    0.44
  -6   2  -5   14.30    0.43
   6  -2   5   14.28    0.44
   6  -2   5   14.65    0.43
   6  -2   5   14.88    0.43
  -7   2  -5    1.20    0.12
  -7   2  -5    1.62    0.15
   7  -2   5    1.27    0.09
  -8   2  -5    0.09    0.07
  -8   2  -5    0.19    0.09
  10   1  -5    2.80    0.20
 -10  -1   5    2.85    0.18
   9   1  -5    9.83    0.35
   9   1  -5    8.89    0.27
  -9  -1   5    9.95    0.33
   8   1  -5    2.65    0.12
   8   1  -5    2.98    0.18
   8   1  -5    2.75    0.12
  -8  -1   5    2.94    0.16
  -8  -1   5    2.65    0.13
   7   1  -5   17.76    0.52
   7   1  -5   18.20    0.52
   7   1  -5   18.67    0.52
  -7  -1   5   18.16    0.49
  -7  -1   5   18.00    0.52
  -7  -1   5   18.18    0.52
   6   1  -5   52.36    1.29
   6   1  -5   52.26    1.39
   6   1  -5   53.10    1.39
  -6  -1   5   50.85    1.34
  -6  -1   5   52.11    1.39
  -6  -1   5   50.02    1.29
  -6  -1   5   51.67    1.38
   5   1  -5    4.83    0.18
   5   1  -5    4.92    0.18
   5   1  -5    4.82    0.18
   5   1  -5    4.83    0.18
  -5  -1   5    4.94    0.17
  -5  -1   5    5.08    0.18
  -5  -1   5    4.97    0.18
  -5  -1   5    4.85    0.18
   4   1  -5   41.79    1.07
   4   1  -5   40.98    1.00
   4   1  -5   40.71    1.03
   4   1  -5   42.42    1.12
   4   1  -5   39.52    1.12
  -4  -1   5   40.51    1.07
  -4  -1   5   40.73    1.04
  -4  -1   5   43.37    1.12
  -4  -1   5   41.66    1.12
   3   1  -5   80.17    2.15
   3   1  -5   82.03    2.05
   3   1  -5   83.79    1.99
   3   1  -5   81.07    2.00
   3   1  -5   81.41    2.15
  -3  -1   5   80.75    2.05
  -3  -1   5   79.82    1.99
  -3  -1   5   81.10    2.15
  -3  -1   5   81.65    2.15
   2   1  -5   40.05    0.98
   2   1  -5   37.96    1.01
   2   1  -5   39.65    1.06
   2   1  -5   39.39    1.06
  -2  -1   5   38.52    0.98
  -2  -1   5   38.39    1.06
  -2  -1   5   39.79    1.06
  -2  -1   5   38.69    1.01
   1   1  -5    0.27    0.04
   1   1  -5    0.43    0.06
   1   1  -5    0.37    0.04
   1   1  -5    0.38    0.05
  -1  -1   5    0.34    0.05
  -1  -1   5    0.37    0.05
  -1  -1   5    0.31    0.04
  -1  -1   5    0.32    0.05
   0   1  -5   25.72    0.69
   0   1  -5   24.91    0.65
   0   1  -5   24.08    0.69
   0   1  -5   25.42    0.63
   0  -1   5   24.26    0.64
   0  -1   5   23.44    0.69
   0  -1   5   24.78    0.66
   0  -1   5   24.95    0.69
  -1   1  -5   22.55    0.64
  -1   1  -5   22.34    0.61
  -1   1  -5   23.40    0.64
  -1   1  -5   23.51    0.59
   1  -1   5   23.59    0.59
   1  -1   5   21.99    0.64
   1  -1   5   22.32    0.59
   1  -1   5   22.89    0.64
  -2   1  -5    0.04    0.04
  -2   1  -5    0.05    0.03
  -2   1  -5    0.00    0.04
  -2   1  -5    0.06    0.03
   2  -1   5    0.12    0.03
   2  -1   5    0.14    0.04
   2  -1   5    0.04    0.03
   2  -1   5    0.02    0.04
   2  -1   5   -0.03    0.03
   2  -1   5    0.11    0.02
  -3   1  -5   11.97    0.35
  -3   1  -5   12.48    0.37
  -3   1  -5   12.25    0.37
  -3   1  -5   12.63    0.34
   3  -1   5   11.91    0.34
   3  -1   5   12.23    0.37
   3  -1   5   12.17    0.37
   3  -1   5   12.25    0.33
   3  -1   5   12.12    0.33
   3  -1   5   12.16    0.35
  -4   1  -5   14.96    0.43
  -4   1  -5   15.10    0.40
  -4   1  -5   15.27    0.45
  -4   1  -5   14.98    0.45
  -4   1  -5   15.27    0.41
   4  -1   5   15.14    0.41
   4  -1   5   15.42    0.44
   4  -1   5   15.40    0.41
   4  -1   5   15.09    0.43
   4  -1   5   14.85    0.45
  -5   1  -5   10.22    0.29
  -5   1  -5   10.01    0.32
  -5   1  -5   10.46    0.35
   5  -1   5   10.57    0.33
   5  -1   5   10.08    0.33
   5  -1   5   10.42    0.32
  -6   1  -5   14.16    0.45
   6  -1   5   13.78    0.44
   6  -1   5   14.27    0.42
  -7   1  -5    1.14    0.12
  -7   1  -5    1.01    0.12
   7  -1   5    0.99    0.07
  -8   1  -5   -0.02    0.07
  -8   1  -5   -0.03    0.09
  10   0  -5    0.03    0.08
 -10   0   5    0.05    0.08
   9   0  -5    0.10    0.07
   9   0  -5    0.00    0.04
  -9   0   5    0.01    0.05
  -9   0   5    0.10    0.07
   8   0  -5    1.74    0.14
   8   0  -5    1.87    0.11
  -8   0   5    1.89    0.11
  -8   0   5    2.05    0.14
  -8   0   5    1.87    0.11
   7   0  -5    9.75    0.31
   7   0  -5    9.77    0.31
   7   0  -5    9.63    0.30
  -7   0   5    9.60    0.29
  -7   0   5    9.77    0.31
  -7   0   5    9.84    0.31
   6   0  -5    0.45    0.06
   6   0  -5    0.45    0.06
   6   0  -5    0.45    0.06
   6   0  -5    0.35    0.05
  -6   0   5    0.52    0.07
  -6   0   5    0.37    0.06
  -6   0   5    0.45    0.06
  -6   0   5    0.45    0.06
   5   0  -5   77.64    1.87
   5   0  -5   75.45    2.05
   5   0  -5   75.89    1.97
   5   0  -5   78.69    2.05
   5   0  -5   76.17    1.86
   5   0  -5   80.51    1.89
  -5   0   5   78.28    2.05
  -5   0   5   75.41    2.00
  -5   0   5   75.93    1.90
  -5   0   5   76.88    1.96
  -5   0   5   79.03    2.06
   4   0  -5   14.47    0.41
   4   0  -5   14.01    0.43
   4   0  -5   14.71    0.40
   4   0  -5   14.62    0.43
  -4   0   5   14.33    0.40
  -4   0   5   14.90    0.43
  -4   0   5   14.31    0.43
  -4   0   5   14.33    0.42
  -4   0   5   14.38    0.41
   3   0  -5   57.47    1.47
   3   0  -5   53.86    1.36
   3   0  -5   54.79    1.34
   3   0  -5   55.47    1.40
   3   0  -5   52.33    1.47
  -3   0   5   54.35    1.47
  -3   0   5   54.58    1.42
  -3   0   5   56.25    1.47
  -3   0   5   54.60    1.36
  -3   0   5   54.71    1.40
   2   0  -5   29.52    0.77
   2   0  -5   29.44    0.81
   2   0  -5   29.37    0.82
   2   0  -5   29.09    0.74
   2   0  -5   29.02    0.75
  -2   0   5   29.13    0.77
  -2   0   5   28.80    0.77
  -2   0   5   29.42    0.81
  -2   0   5   29.09    0.75
  -2   0   5   30.04    0.81
   1   0  -5    0.37    0.04
   1   0  -5    0.35    0.04
   1   0  -5    0.36    0.05
   1   0  -5    0.27    0.04
   1   0  -5    0.29    0.05
  -1   0   5    0.29    0.05
  -1   0   5    0.28    0.04
  -1   0   5    0.31    0.05
  -1   0   5    0.45    0.06
   0   0  -5   48.66    1.41
   0   0  -5   53.63    1.41
   0   0  -5   54.87    1.30
   0   0  -5   53.32    1.33
   0   0  -5   52.32    1.31
   0   0   5   50.73    1.41
   0   0   5   53.26    1.41
   0   0   5   52.73    1.33
   0   0   5   50.87    1.30
  -1   0  -5    7.51    0.25
  -1   0  -5    8.38    0.24
  -1   0  -5    8.26    0.27
  -1   0  -5    7.63    0.27
  -1   0  -5    8.22    0.24
   1   0   5    8.33    0.25
   1   0   5    8.06    0.27
   1   0   5    8.61    0.27
  -2   0  -5    0.06    0.04
  -2   0  -5    0.03    0.05
  -2   0  -5    0.02    0.03
  -2   0  -5    0.00    0.04
  -2   0  -5    0.02    0.03
   2   0   5    0.01    0.04
   2   0   5    0.02    0.04
   2   0   5    0.00    0.05
   2   0   5    0.05    0.04
   2   0   5    0.00    0.03
  -3   0  -5   15.45    0.46
  -3   0  -5   15.31    0.43
  -3   0  -5   15.13    0.45
  -3   0  -5   15.83    0.42
   3   0   5   15.61    0.44
   3   0   5   15.16    0.41
   3   0   5   14.92    0.46
   3   0   5   15.74    0.42
   3   0   5   15.65    0.46
  -4   0  -5    7.22    0.25
  -4   0  -5    7.17    0.22
  -4   0  -5    7.25    0.20
  -4   0  -5    7.05    0.23
  -4   0  -5    7.28    0.27
   4   0   5    7.43    0.24
   4   0   5    7.25    0.25
   4   0   5    7.30    0.25
  -5   0  -5    0.30    0.09
  -5   0  -5    0.57    0.07
   5   0   5    0.53    0.07
   5   0   5    0.37    0.08
   5   0   5    0.57    0.06
  -6   0  -5    0.00    0.08
   6   0   5    0.04    0.07
   6   0   5    0.07    0.05
  -7   0  -5    0.49    0.11
  11  -1  -5    2.02    0.19
 -11   1   5    2.21    0.18
  10  -1  -5    1.49    0.08
  10  -1  -5    1.58    0.14
 -10   1   5    1.79    0.16
   9  -1  -5    0.57    0.07
   9  -1  -5    0.63    0.09
  -9   1   5    0.77    0.07
  -9   1   5    0.58    0.09
   8  -1  -5    5.38    0.22
   8  -1  -5    5.41    0.19
   8  -1  -5    5.41    0.20
   8  -1  -5    5.63    0.20
  -8   1   5    5.43    0.21
  -8   1   5    5.38    0.20
  -8   1   5    5.88    0.22
   7  -1  -5    0.59    0.07
   7  -1  -5    0.56    0.07
   7  -1  -5    0.81    0.03
   7  -1  -5    0.55    0.07
   7  -1  -5    0.70    0.06
  -7   1   5    0.50    0.07
  -7   1   5    0.59    0.07
   6  -1  -5    2.26    0.12
   6  -1  -5    2.15    0.12
   6  -1  -5    1.92    0.12
   6  -1  -5    2.03    0.08
   6  -1  -5    2.25    0.11
  -6   1   5    2.16    0.13
  -6   1   5    2.15    0.12
  -6   1   5    2.04    0.12
  -6   1   5    2.26    0.12
   5  -1  -5    2.61    0.12
   5  -1  -5    2.59    0.12
   5  -1  -5    2.56    0.13
   5  -1  -5    2.65    0.09
   5  -1  -5    2.77    0.13
  -5   1   5    2.62    0.14
  -5   1   5    2.49    0.13
  -5   1   5    2.85    0.13
  -5   1   5    2.51    0.13
  -5   1   5    2.69    0.13
   4  -1  -5   65.98    1.68
   4  -1  -5   63.99    1.62
   4  -1  -5   67.64    1.63
   4  -1  -5   68.44    1.76
   4  -1  -5   63.32    1.76
  -4   1   5   66.23    1.71
  -4   1   5   64.65    1.68
  -4   1   5   68.20    1.76
  -4   1   5   65.27    1.76
  -4   1   5   64.60    1.63
   3  -1  -5   56.39    1.43
   3  -1  -5   58.56    1.39
   3  -1  -5   58.01    1.38
   3  -1  -5   54.89    1.51
   3  -1  -5   54.96    1.50
  -3   1   5   55.14    1.45
  -3   1   5   54.91    1.40
  -3   1   5   54.68    1.50
  -3   1   5   54.68    1.51
  -3   1   5   56.97    1.43
   2  -1  -5    1.88    0.11
   2  -1  -5    1.96    0.10
   2  -1  -5    1.97    0.11
   2  -1  -5    1.96    0.09
   2  -1  -5    1.79    0.08
  -2   1   5    1.94    0.11
  -2   1   5    1.89    0.08
  -2   1   5    1.80    0.10
  -2   1   5    1.70    0.11
   1  -1  -5   48.86    1.32
   1  -1  -5   48.26    1.32
   1  -1  -5   50.41    1.22
   1  -1  -5   48.61    1.22
   1  -1  -5   49.02    1.24
  -1   1   5   47.15    1.22
  -1   1   5   49.31    1.25
  -1   1   5   49.19    1.32
  -1   1   5   48.94    1.32
  -1   1   5   46.73    1.24
   0  -1  -5    9.18    0.31
   0  -1  -5    9.47    0.27
   0  -1  -5    9.47    0.31
   0  -1  -5    9.42    0.28
   0  -1  -5    9.47    0.28
   0   1   5    9.28    0.29
   0   1   5    9.22    0.28
   0   1   5    9.75    0.31
   0   1   5    9.34    0.31
  -1  -1  -5    0.19    0.05
  -1  -1  -5    0.24    0.06
  -1  -1  -5    0.28    0.04
  -1  -1  -5    0.21    0.05
   1   1   5    0.24    0.05
   1   1   5    0.23    0.04
   1   1   5    0.25    0.06
  -2  -1  -5   19.37    0.55
  -2  -1  -5   20.11    0.53
  -2  -1  -5   19.35    0.58
  -2  -1  -5   20.05    0.53
   2   1   5   19.96    0.54
   2   1   5   19.68    0.58
   2   1   5   19.87    0.58
   2   1   5   19.78    0.52
  -3  -1  -5    1.78    0.10
  -3  -1  -5    1.75    0.14
  -3  -1  -5    1.94    0.10
  -3  -1  -5    1.82    0.12
   3   1   5    1.89    0.13
   3   1   5    1.91    0.12
   3   1   5    1.84    0.13
  -4  -1  -5    2.45    0.14
  -4  -1  -5    2.47    0.11
  -4  -1  -5    2.40    0.16
  -4  -1  -5    2.41    0.11
   4   1   5    2.36    0.14
   4   1   5    2.53    0.13
   4   1   5    2.39    0.14
  -5  -1  -5    2.66    0.19
   5   1   5    2.71    0.17
   5   1   5    2.53    0.14
  -6  -1  -5    0.00    0.08
   6   1   5    0.04    0.05
   6   1   5    0.03    0.07
  -7  -1  -5    0.34    0.11
  11  -2  -5    0.01    0.08
 -11   2   5   -0.03    0.09
  10  -2  -5    0.25    0.08
  10  -2  -5    0.24    0.05
 -10   2   5    0.23    0.09
   9  -2  -5    1.31    0.11
   9  -2  -5    1.42    0.12
  -9   2   5    1.56    0.15
   8  -2  -5   -0.04    0.05
   8  -2  -5   -0.01    0.02
   8  -2  -5    0.04    0.05
   8  -2  -5    0.03    0.04
   8  -2  -5    0.00    0.05
  -8   2   5    0.00    0.06
  -8   2   5   -0.03    0.05
  -8   2   5    0.00    0.05
   7  -2  -5   26.48    0.68
   7  -2  -5   25.73    0.74
   7  -2  -5   26.51    0.68
   7  -2  -5   25.91    0.73
   7  -2  -5   25.18    0.65
  -7   2   5   26.26    0.74
  -7   2   5   25.93    0.72
  -7   2   5   24.97    0.69
   6  -2  -5   27.28    0.71
   6  -2  -5   28.11    0.76
   6  -2  -5   26.62    0.77
   6  -2  -5   26.44    0.68
   6  -2  -5   27.20    0.69
  -6   2   5   25.86    0.77
  -6   2   5   26.81    0.71
  -6   2   5   27.16    0.74
   5  -2  -5    5.48    0.21
   5  -2  -5    5.32    0.17
   5  -2  -5    5.15    0.15
   5  -2  -5    5.14    0.21
   5  -2  -5    5.43    0.17
   5  -2  -5    5.60    0.19
  -5   2   5    5.17    0.20
  -5   2   5    5.39    0.21
  -5   2   5    5.42    0.20
  -5   2   5    5.07    0.20
  -5   2   5    5.51    0.21
   4  -2  -5    1.54    0.10
   4  -2  -5    1.62    0.07
   4  -2  -5    1.39    0.11
   4  -2  -5    1.60    0.10
   4  -2  -5    1.63    0.11
   4  -2  -5    1.64    0.08
  -4   2   5    1.23    0.11
  -4   2   5    1.45    0.11
  -4   2   5    1.51    0.11
  -4   2   5    1.59    0.10
  -4   2   5    1.50    0.10
   3  -2  -5    2.58    0.10
   3  -2  -5    2.65    0.12
   3  -2  -5    2.48    0.14
   3  -2  -5    2.42    0.11
   3  -2  -5    2.02    0.14
  -3   2   5    2.48    0.11
  -3   2   5    2.15    0.14
  -3   2   5    2.50    0.11
  -3   2   5    2.30    0.13
  -3   2   5    2.20    0.13
   2  -2  -5    0.44    0.06
   2  -2  -5    0.33    0.05
   2  -2  -5    0.27    0.06
   2  -2  -5    0.42    0.05
   2  -2  -5    0.24    0.06
  -2   2   5    0.28    0.04
  -2   2   5    0.37    0.05
  -2   2   5    0.25    0.06
  -2   2   5    0.33    0.07
  -2   2   5    0.35    0.06
   1  -2  -5   13.19    0.40
   1  -2  -5   12.49    0.36
   1  -2  -5   12.07    0.40
   1  -2  -5   12.73    0.36
   1  -2  -5   12.96    0.37
  -1   2   5   13.44    0.41
  -1   2   5   12.72    0.33
  -1   2   5   12.59    0.37
  -1   2   5   13.17    0.36
  -1   2   5   12.22    0.40
   0  -2  -5    1.31    0.10
   0  -2  -5    1.30    0.09
   0  -2  -5    1.14    0.07
   0  -2  -5    1.27    0.11
   0  -2  -5    1.32    0.12
   0   2   5    1.24    0.08
   0   2   5    0.93    0.09
   0   2   5    1.15    0.10
   0   2   5    0.89    0.08
  -1  -2  -5    6.55    0.25
  -1  -2  -5    6.66    0.23
  -1  -2  -5    6.66    0.22
  -1  -2  -5    6.51    0.20
   1   2   5    6.60    0.23
   1   2   5    6.37    0.25
   1   2   5    6.31    0.24
  -2  -2  -5   10.41    0.35
  -2  -2  -5   10.09    0.34
  -2  -2  -5   10.37    0.32
  -2  -2  -5   10.39    0.30
   2   2   5   10.79    0.35
   2   2   5   10.64    0.33
   2   2   5   10.07    0.34
  -3  -2  -5    2.00    0.15
  -3  -2  -5    2.00    0.13
  -3  -2  -5    1.92    0.10
  -3  -2  -5    1.98    0.12
   3   2   5    1.99    0.14
   3   2   5    1.96    0.13
   3   2   5    1.93    0.13
  -4  -2  -5   -0.03    0.07
   4   2   5   -0.02    0.06
   4   2   5   -0.02    0.06
  -5  -2  -5    2.41    0.18
   5   2   5    2.18    0.14
   5   2   5    2.26    0.17
  -6  -2  -5    2.44    0.19
   6   2   5    2.34    0.13
   6   2   5    2.76    0.19
  11  -3  -5    0.06    0.05
  11  -3  -5    0.12    0.08
 -11   3   5    0.26    0.10
  10  -3  -5    2.24    0.14
  10  -3  -5    2.66    0.17
 -10   3   5    2.57    0.18
   9  -3  -5    0.06    0.06
   9  -3  -5    0.19    0.07
  -9   3   5    0.06    0.08
  -9   3   5    0.11    0.07
   8  -3  -5    0.13    0.04
   8  -3  -5    0.12    0.06
   8  -3  -5    0.10    0.06
   8  -3  -5    0.16    0.06
  -8   3   5    0.03    0.07
  -8   3   5    0.14    0.07
   7  -3  -5   14.83    0.40
   7  -3  -5   14.17    0.39
   7  -3  -5   13.97    0.45
   7  -3  -5   14.45    0.45
  -7   3   5   14.26    0.45
  -7   3   5   14.51    0.43
  -7   3   5   14.43    0.37
  -7   3   5   14.88    0.44
   6  -3  -5    1.74    0.09
   6  -3  -5    1.51    0.12
   6  -3  -5    1.60    0.13
   6  -3  -5    1.68    0.10
  -6   3   5    1.61    0.07
  -6   3   5    1.54    0.13
  -6   3   5    1.83    0.12
  -6   3   5    1.50    0.12
   5  -3  -5    2.14    0.13
   5  -3  -5    2.13    0.08
   5  -3  -5    2.02    0.10
   5  -3  -5    1.73    0.14
   5  -3  -5    1.44    0.13
  -5   3   5    2.05    0.09
  -5   3   5    2.10    0.14
  -5   3   5    2.18    0.12
  -5   3   5    2.19    0.12
  -5   3   5    2.11    0.13
   4  -3  -5   10.70    0.32
   4  -3  -5   10.46    0.29
   4  -3  -5   10.61    0.31
   4  -3  -5   10.21    0.32
   4  -3  -5   10.72    0.35
   4  -3  -5   10.46    0.36
  -4   3   5   10.62    0.33
  -4   3   5   10.75    0.35
  -4   3   5   10.63    0.32
  -4   3   5   10.48    0.32
  -4   3   5   10.61    0.30
  -4   3   5   10.69    0.36
   3  -3  -5    2.79    0.12
   3  -3  -5    3.07    0.15
   3  -3  -5    2.55    0.12
   3  -3  -5    2.75    0.16
  -3   3   5    2.79    0.12
  -3   3   5    2.55    0.16
  -3   3   5    2.68    0.12
  -3   3   5    2.97    0.12
  -3   3   5    2.89    0.15
  -3   3   5    2.71    0.14
   2  -3  -5    7.26    0.23
   2  -3  -5    7.44    0.28
   2  -3  -5    7.15    0.27
   2  -3  -5    7.18    0.23
  -2   3   5    7.49    0.24
  -2   3   5    7.62    0.27
  -2   3   5    6.91    0.21
  -2   3   5    7.20    0.23
  -2   3   5    7.47    0.28
   1  -3  -5   30.33    0.80
   1  -3  -5   29.93    0.80
   1  -3  -5   29.60    0.87
  -1   3   5   32.35    0.88
  -1   3   5   30.61    0.80
  -1   3   5   30.78    0.88
   0  -3  -5    0.49    0.07
   0  -3  -5    0.72    0.06
   0  -3  -5    0.66    0.09
   0   3   5    0.55    0.05
   0   3   5    0.61    0.09
   0   3   5    0.58    0.08
  -1  -3  -5    0.79    0.09
  -1  -3  -5    0.87    0.10
  -1  -3  -5    0.81    0.07
   1   3   5    0.76    0.10
   1   3   5    0.92    0.10
   1   3   5    0.94    0.09
  -2  -3  -5    4.78    0.22
  -2  -3  -5    4.69    0.16
  -2  -3  -5    4.55    0.21
   2   3   5    5.11    0.21
   2   3   5    4.88    0.22
   2   3   5    5.06    0.22
  -3  -3  -5    2.26    0.16
   3   3   5    2.25    0.15
   3   3   5    1.96    0.15
  -4  -3  -5    0.06    0.09
   4   3   5    0.02    0.07
   4   3   5    0.09    0.07
  -5  -3  -5    0.58    0.12
   5   3   5    0.78    0.09
   5   3   5    0.96    0.12
  11  -4  -5    6.63    0.28
  11  -4  -5    6.10    0.24
 -11   4   5    6.85    0.29
  10  -4  -5    2.10    0.15
  10  -4  -5    1.71    0.14
 -10   4   5    2.10    0.17
   9  -4  -5    5.98    0.23
   9  -4  -5    5.69    0.24
  -9   4   5    5.69    0.24
  -9   4   5    6.00    0.25
   8  -4  -5    1.06    0.11
   8  -4  -5    1.17    0.08
   8  -4  -5    1.16    0.11
   8  -4  -5    1.22    0.11
  -8   4   5    1.11    0.07
  -8   4   5    1.10    0.11
  -8   4   5    1.10    0.11
   7  -4  -5    4.03    0.19
   7  -4  -5    3.80    0.19
   7  -4  -5    4.05    0.15
   7  -4  -5    3.79    0.15
   7  -4  -5    3.59    0.20
  -7   4   5    3.94    0.19
  -7   4   5    3.95    0.19
  -7   4   5    4.04    0.13
   6  -4  -5   15.44    0.42
   6  -4  -5   15.51    0.50
   6  -4  -5   16.16    0.41
   6  -4  -5   15.47    0.43
   6  -4  -5   15.46    0.48
   6  -4  -5   15.74    0.50
  -6   4   5   15.30    0.50
  -6   4   5   15.61    0.42
  -6   4   5   15.88    0.46
   5  -4  -5   18.62    0.55
   5  -4  -5   19.27    0.59
   5  -4  -5   19.28    0.51
   5  -4  -5   19.84    0.54
   5  -4  -5   19.82    0.60
  -5   4   5   18.93    0.51
  -5   4   5   19.28    0.54
  -5   4   5   18.95    0.59
  -5   4   5   19.27    0.55
   4  -4  -5    3.18    0.18
   4  -4  -5    3.40    0.15
   4  -4  -5    3.47    0.13
   4  -4  -5    3.12    0.18
   4  -4  -5    3.35    0.16
  -4   4   5    2.92    0.13
  -4   4   5    3.19    0.14
  -4   4   5    2.56    0.17
  -4   4   5    3.11    0.14
   3  -4  -5    9.32    0.28
   3  -4  -5    9.28    0.33
   3  -4  -5    8.63    0.28
   3  -4  -5    8.82    0.27
  -3   4   5    8.89    0.27
  -3   4   5    8.83    0.28
  -3   4   5    9.33    0.28
  -3   4   5    8.92    0.33
   2  -4  -5   10.64    0.33
   2  -4  -5   10.71    0.32
   2  -4  -5   11.17    0.38
  -2   4   5   10.49    0.30
  -2   4   5   10.94    0.38
  -2   4   5   10.85    0.32
  -2   4   5   10.88    0.37
   1  -4  -5    1.30    0.11
   1  -4  -5    1.37    0.14
   1  -4  -5    1.52    0.09
  -1   4   5    1.59    0.14
  -1   4   5    1.61    0.14
  -1   4   5    1.58    0.09
   0  -4  -5    8.28    0.29
   0  -4  -5    8.44    0.31
   0  -4  -5    8.06    0.25
   0   4   5    8.10    0.31
   0   4   5    8.30    0.31
  -1  -4  -5    9.08    0.32
  -1  -4  -5    9.18    0.33
   1   4   5    8.76    0.33
   1   4   5    9.13    0.31
   1   4   5    9.15    0.33
  -2  -4  -5   -0.06    0.07
  -2  -4  -5   -0.02    0.08
   2   4   5   -0.10    0.07
   2   4   5    0.06    0.07
  -3  -4  -5    3.51    0.20
   3   4   5    3.20    0.18
   3   4   5    3.61    0.20
  -4  -4  -5    4.89    0.26
   4   4   5    4.94    0.25
   4   4   5    4.81    0.22
  11  -5  -5    0.38    0.09
  11  -5  -5    0.46    0.08
 -11   5   5    0.30    0.11
  10  -5  -5   -0.05    0.06
  10  -5  -5    0.04    0.06
 -10   5   5    0.04    0.08
   9  -5  -5    0.21    0.06
   9  -5  -5    0.09    0.08
   9  -5  -5    0.21    0.08
  -9   5   5    0.03    0.08
  -9   5   5    0.09    0.08
   8  -5  -5    0.49    0.09
   8  -5  -5    0.55    0.10
   8  -5  -5    0.59    0.09
   8  -5  -5    0.51    0.06
  -8   5   5    0.61    0.09
  -8   5   5    0.50    0.09
   7  -5  -5    2.08    0.17
   7  -5  -5    2.34    0.16
   7  -5  -5    2.34    0.11
   7  -5  -5    2.30    0.16
  -7   5   5    2.23    0.15
  -7   5   5    1.98    0.11
  -7   5   5    2.29    0.17
   6  -5  -5    3.13    0.18
   6  -5  -5    3.10    0.13
   6  -5  -5    3.22    0.13
   6  -5  -5    3.02    0.20
  -6   5   5    3.54    0.17
  -6   5   5    3.27    0.14
  -6   5   5    3.05    0.20
   5  -5  -5   41.63    1.11
   5  -5  -5   41.22    1.06
   5  -5  -5   41.50    1.18
   5  -5  -5   41.56    1.01
  -5   5   5   42.57    1.10
  -5   5   5   42.67    1.18
  -5   5   5   41.46    1.07
  -5   5   5   39.53    1.10
   4  -5  -5    0.99    0.10
   4  -5  -5    1.11    0.10
   4  -5  -5    0.98    0.12
  -4   5   5    1.06    0.09
  -4   5   5    1.11    0.12
  -4   5   5    1.03    0.10
   3  -5  -5    6.11    0.22
   3  -5  -5    5.70    0.25
   3  -5  -5    5.80    0.21
   3  -5  -5    5.85    0.20
  -3   5   5    6.03    0.21
  -3   5   5    6.08    0.19
  -3   5   5    5.74    0.25
   2  -5  -5   -0.05    0.06
   2  -5  -5    0.10    0.06
   2  -5  -5    0.12    0.03
   2  -5  -5    0.09    0.05
  -2   5   5    0.00    0.04
  -2   5   5    0.01    0.07
   1  -5  -5    2.56    0.12
   1  -5  -5    2.45    0.17
   1  -5  -5    2.58    0.15
   1  -5  -5    2.61    0.12
  -1   5   5    2.54    0.11
  -1   5   5    2.43    0.17
   0  -5  -5    0.09    0.07
   0  -5  -5    0.02    0.09
   0   5   5    0.03    0.07
   0   5   5   -0.14    0.09
   0   5   5    0.03    0.08
  -1  -5  -5    6.53    0.29
  -1  -5  -5    6.76    0.28
   1   5   5    7.36    0.27
   1   5   5    6.51    0.29
  -2  -5  -5    1.34    0.14
   2   5   5    1.24    0.13
   2   5   5    1.36    0.13
  -3  -5  -5    0.37    0.11
   3   5   5    0.30    0.09
   3   5   5    0.31    0.10
  11  -6  -5    0.98    0.11
 -11   6   5    1.02    0.14
  10  -6  -5    0.39    0.10
  10  -6  -5    0.35    0.07
  10  -6  -5    0.23    0.09
 -10   6   5    0.36    0.10
   9  -6  -5    1.12    0.13
   9  -6  -5    1.13    0.13
   9  -6  -5    1.30    0.10
  -9   6   5    1.09    0.12
  -9   6   5    1.28    0.13
   8  -6  -5    0.43    0.10
   8  -6  -5    0.48    0.06
   8  -6  -5    0.40    0.09
  -8   6   5    0.55    0.09
  -8   6   5    0.24    0.09
   7  -6  -5    0.11    0.04
   7  -6  -5    0.12    0.04
   7  -6  -5    0.02    0.07
   7  -6  -5    0.06    0.09
  -7   6   5    0.06    0.05
  -7   6   5    0.08    0.09
  -7   6   5    0.15    0.07
   6  -6  -5    2.18    0.15
   6  -6  -5    2.27    0.18
   6  -6  -5    2.06    0.12
   6  -6  -5    2.15    0.09
  -6   6   5    2.16    0.15
  -6   6   5    2.26    0.19
   5  -6  -5    3.58    0.17
   5  -6  -5    3.08    0.11
   5  -6  -5    3.61    0.21
   5  -6  -5    3.37    0.16
  -5   6   5    3.75    0.22
  -5   6   5    3.16    0.16
  -5   6   5    3.47    0.17
   4  -6  -5    4.13    0.18
   4  -6  -5    3.79    0.21
   4  -6  -5    4.38    0.18
  -4   6   5    4.11    0.17
  -4   6   5    4.22    0.16
  -4   6   5    4.37    0.22
   3  -6  -5    2.12    0.12
   3  -6  -5    2.54    0.13
   3  -6  -5    2.33    0.17
   3  -6  -5    2.36    0.15
  -3   6   5    2.31    0.19
  -3   6   5    2.46    0.12
   2  -6  -5   -0.07    0.08
   2  -6  -5    0.13    0.07
   2  -6  -5   -0.04    0.03
  -2   6   5   -0.06    0.08
  -2   6   5    0.03    0.04
   1  -6  -5    1.18    0.11
   1  -6  -5    1.15    0.13
  -1   6   5    0.93    0.13
   0  -6  -5    0.52    0.12
   0  -6  -5    0.53    0.10
   0   6   5    0.42    0.09
   0   6   5    0.40    0.12
  -1  -6  -5    0.99    0.13
   1   6   5    0.94    0.11
   1   6   5    0.82    0.12
  -2  -6  -5    1.28    0.14
   2   6   5    1.03    0.13
   2   6   5    0.99    0.12
  11  -7  -5    0.34    0.11
  11  -7  -5    0.31    0.10
 -11   7   5    0.41    0.12
  10  -7  -5    0.15    0.09
  10  -7  -5    0.18    0.09
 -10   7   5    0.04    0.09
   9  -7  -5    0.61    0.11
   9  -7  -5    0.82    0.12
  -9   7   5    0.53    0.11
  -9   7   5    0.88    0.11
   8  -7  -5    0.15    0.10
   8  -7  -5    0.13    0.09
  -8   7   5    0.17    0.10
  -8   7   5    0.27    0.09
   7  -7  -5   23.79    0.70
   7  -7  -5   23.71    0.74
   7  -7  -5   22.37    0.64
  -7   7   5   24.36    0.75
  -7   7   5   24.28    0.68
   6  -7  -5    2.64    0.15
   6  -7  -5    2.69    0.17
   6  -7  -5    2.93    0.21
  -6   7   5    2.86    0.21
  -6   7   5    2.83    0.16
   5  -7  -5    1.04    0.13
   5  -7  -5    1.07    0.10
   5  -7  -5    1.02    0.10
  -5   7   5    1.24    0.11
  -5   7   5    1.17    0.14
   4  -7  -5    0.12    0.06
   4  -7  -5    0.18    0.10
   4  -7  -5    0.06    0.07
  -4   7   5    0.05    0.05
  -4   7   5    0.02    0.10
   3  -7  -5    0.23    0.10
   3  -7  -5    0.26    0.08
  -3   7   5    0.21    0.11
  -3   7   5    0.31    0.05
   2  -7  -5   -0.01    0.07
   2  -7  -5   -0.13    0.09
  -2   7   5   -0.01    0.10
   1  -7  -5    2.48    0.21
   1  -7  -5    2.74    0.19
  -1   7   5    2.90    0.21
  -1   7   5    2.71    0.18
   0  -7  -5    0.26    0.10
   0   7   5    0.27    0.09
   0   7   5    0.29    0.11
  10  -8  -5    0.32    0.11
  10  -8  -5    0.24    0.11
 -10   8   5    0.27    0.10
   9  -8  -5    0.21    0.10
   9  -8  -5    0.34    0.11
  -9   8   5    0.34    0.10
  -9   8   5    0.51    0.12
   8  -8  -5    0.50    0.13
   8  -8  -5    0.68    0.11
   8  -8  -5    0.44    0.07
  -8   8   5    0.44    0.13
  -8   8   5    0.54    0.10
   7  -8  -5    0.78    0.14
   7  -8  -5    0.61    0.08
   7  -8  -5    0.78    0.11
  -7   8   5    0.63    0.13
  -7   8   5    0.61    0.10
   6  -8  -5   -0.07    0.07
   6  -8  -5   -0.01    0.09
   6  -8  -5   -0.05    0.05
  -6   8   5    0.00    0.10
  -6   8   5    0.05    0.06
   5  -8  -5    0.58    0.08
   5  -8  -5    0.58    0.12
   5  -8  -5    0.67    0.09
  -5   8   5    0.60    0.13
  -5   8   5    0.58    0.08
   4  -8  -5    0.10    0.10
   4  -8  -5    0.00    0.07
  -4   8   5    0.06    0.05
  -4   8   5   -0.06    0.10
   3  -8  -5   -0.01    0.08
   3  -8  -5    0.01    0.10
  -3   8   5    0.02    0.10
   2  -8  -5    1.23    0.13
   2  -8  -5    1.36    0.16
  -2   8   5    1.18    0.15
  -2   8   5    1.07    0.12
   1  -8  -5    7.93    0.33
   9  -9  -5    0.68    0.12
  -9   9   5    0.84    0.12
  -9   9   5    0.84    0.15
   8  -9  -5    0.04    0.09
   8  -9  -5    0.11    0.06
   8  -9  -5   -0.04    0.11
  -8   9   5    0.08    0.08
  -8   9   5    0.13    0.12
   7  -9  -5   -0.03    0.08
   7  -9  -5    0.09    0.11
   7  -9  -5    0.03    0.06
  -7   9   5   -0.03    0.11
  -7   9   5    0.07    0.07
   6  -9  -5    0.10    0.11
   6  -9  -5    0.19    0.07
  -6   9   5    0.14    0.07
  -6   9   5    0.13    0.12
   5  -9  -5    1.16    0.16
   5  -9  -5    1.47    0.13
  -5   9   5    1.23    0.16
   4  -9  -5    0.07    0.08
   4  -9  -5   -0.09    0.10
  -4   9   5   -0.19    0.10
  -5  13  -6    1.13    0.14
   5 -13   6    1.06    0.15
  -1  12  -6    1.11    0.14
   1 -12   6    1.05    0.14
   1 -12   6    1.12    0.13
  -2  12  -6    1.11    0.12
  -2  12  -6    0.88    0.13
   2 -12   6    0.81    0.13
   2 -12   6    0.89    0.12
  -3  12  -6    0.39    0.10
  -3  12  -6    0.40    0.09
   3 -12   6    0.35    0.10
   3 -12   6    0.26    0.10
  -4  12  -6    0.82    0.12
  -4  12  -6    0.97    0.13
   4 -12   6    0.86    0.13
   4 -12   6    0.79    0.12
  -5  12  -6   -0.03    0.08
  -5  12  -6   -0.03    0.08
   5 -12   6   -0.05    0.08
   5 -12   6    0.00    0.08
  -6  12  -6    0.46    0.10
  -6  12  -6    0.39    0.10
   6 -12   6    0.21    0.10
   6 -12   6    0.22    0.10
  -7  12  -6    0.11    0.08
  -7  12  -6    0.11    0.09
   7 -12   6    0.04    0.10
   7 -12   6    0.10    0.08
  -8  12  -6   -0.08    0.08
   8 -12   6    0.03    0.08
   8 -12   6   -0.25    0.08
   1  11  -6    0.14    0.09
  -1 -11   6    0.24    0.09
  -1 -11   6    0.05    0.08
   0  11  -6    0.00    0.08
   0 -11   6    0.17    0.08
   0 -11   6    0.14    0.09
   0 -11   6    0.28    0.08
  -1  11  -6   -0.02    0.06
  -1  11  -6    0.04    0.07
  -1  11  -6   -0.01    0.05
   1 -11   6   -0.01    0.07
   1 -11   6    0.06    0.08
  -2  11  -6    0.05    0.04
  -2  11  -6    0.02    0.06
  -2  11  -6    0.03    0.07
   2 -11   6    0.06    0.07
   2 -11   6    0.04    0.08
  -3  11  -6    0.68    0.11
  -3  11  -6    1.07    0.11
   3 -11   6    0.68    0.11
   3 -11   6    0.94    0.12
  -4  11  -6    0.05    0.07
  -4  11  -6    0.18    0.08
   4 -11   6    0.10    0.08
   4 -11   6    0.07    0.08
  -5  11  -6    0.73    0.11
  -5  11  -6    1.13    0.12
   5 -11   6    0.94    0.12
   5 -11   6    0.89    0.12
  -6  11  -6    0.80    0.11
  -6  11  -6    0.62    0.11
   6 -11   6    0.76    0.12
   6 -11   6    0.69    0.11
  -7  11  -6   -0.13    0.07
  -7  11  -6    0.01    0.07
   7 -11   6   -0.01    0.09
   7 -11   6    0.04    0.07
  -8  11  -6   -0.04    0.07
   8 -11   6    0.14    0.10
   8 -11   6   -0.01    0.07
  -9  11  -6    0.45    0.10
   9 -11   6    0.42    0.12
   9 -11   6    0.59    0.11
   2  10  -6    2.53    0.16
   2  10  -6    2.25    0.18
  -2 -10   6    2.66    0.19
  -2 -10   6    2.69    0.18
   1  10  -6    1.48    0.15
   1  10  -6    1.50    0.12
  -1 -10   6    1.34    0.14
  -1 -10   6    1.37    0.12
  -1 -10   6    1.65    0.15
   0  10  -6    4.84    0.25
   0  10  -6    5.47    0.21
   0  10  -6    5.02    0.20
   0 -10   6    5.19    0.24
   0 -10   6    5.20    0.23
   0 -10   6    4.82    0.24
  -1  10  -6    1.11    0.10
  -1  10  -6    0.82    0.09
  -1  10  -6    0.74    0.10
   1 -10   6    0.94    0.11
   1 -10   6    0.64    0.10
  -2  10  -6    0.10    0.07
  -2  10  -6    0.01    0.07
   2 -10   6    0.05    0.07
   2 -10   6    0.07    0.07
  -3  10  -6    5.65    0.23
  -3  10  -6    5.45    0.25
   3 -10   6    5.55    0.25
   3 -10   6    5.57    0.26
  -4  10  -6   10.30    0.39
  -4  10  -6   10.46    0.35
   4 -10   6   10.82    0.39
   4 -10   6   10.79    0.38
  -5  10  -6    0.24    0.08
  -5  10  -6    0.12    0.07
   5 -10   6    0.18    0.08
   5 -10   6    0.18    0.09
  -6  10  -6    0.05    0.07
  -6  10  -6    0.03    0.07
   6 -10   6   -0.07    0.08
   6 -10   6    0.04    0.07
  -7  10  -6    0.65    0.10
  -7  10  -6    0.52    0.09
   7 -10   6    0.40    0.11
   7 -10   6    0.52    0.10
  -8  10  -6    0.26    0.09
   8 -10   6    0.10    0.10
   8 -10   6    0.09    0.08
  -9  10  -6    0.01    0.08
   9 -10   6   -0.01    0.10
   9 -10   6   -0.01    0.07
   4   9  -6    0.98    0.11
   4   9  -6    0.86    0.11
  -4  -9   6    0.92    0.11
  -4  -9   6    0.88    0.12
   3   9  -6   -0.04    0.07
   3   9  -6    0.00    0.06
  -3  -9   6    0.03    0.07
  -3  -9   6   -0.11    0.07
   2   9  -6    1.57    0.14
   2   9  -6    1.49    0.13
  -2  -9   6    1.66    0.14
  -2  -9   6    1.48    0.14
  -2  -9   6    1.47    0.13
   1   9  -6    1.90    0.13
   1   9  -6    2.16    0.12
   1   9  -6    2.06    0.16
  -1  -9   6    2.12    0.15
  -1  -9   6    2.36    0.17
  -1  -9   6    2.10    0.14
  -1  -9   6    2.04    0.16
   0   9  -6    0.52    0.06
   0   9  -6    0.44    0.07
   0   9  -6    0.30    0.08
   0   9  -6    0.42    0.05
   0  -9   6    0.42    0.09
   0  -9   6    0.34    0.08
   0  -9   6    0.39    0.07
   0  -9   6    0.44    0.08
  -1   9  -6    0.54    0.09
  -1   9  -6    0.52    0.08
   1  -9   6    0.55    0.09
   1  -9   6    0.53    0.09
  -2   9  -6    6.38    0.27
  -2   9  -6    6.14    0.23
   2  -9   6    6.49    0.27
   2  -9   6    6.21    0.25
  -3   9  -6   -0.02    0.06
  -3   9  -6    0.05    0.07
   3  -9   6    0.01    0.07
   3  -9   6    0.01    0.06
  -4   9  -6   14.07    0.47
  -4   9  -6   14.52    0.43
   4  -9   6   14.24    0.46
   4  -9   6   13.80    0.47
  -5   9  -6    0.93    0.10
  -5   9  -6    0.90    0.10
   5  -9   6    0.85    0.11
   5  -9   6    0.78    0.10
  -6   9  -6    0.08    0.06
  -6   9  -6    0.11    0.06
   6  -9   6    0.06    0.06
   6  -9   6   -0.14    0.07
  -7   9  -6    0.00    0.07
  -7   9  -6    0.03    0.06
   7  -9   6    0.08    0.07
   7  -9   6   -0.20    0.08
  -8   9  -6    0.12    0.08
   8  -9   6   -0.02    0.09
   8  -9   6    0.05    0.07
  -9   9  -6    0.23    0.09
   9  -9   6    0.08    0.07
   9  -9   6    0.09    0.10
   5   8  -6    5.03    0.25
   5   8  -6    4.93    0.23
  -5  -8   6    5.13    0.25
  -5  -8   6    5.46    0.23
  -5  -8   6    5.07    0.23
   4   8  -6    9.93    0.36
   4   8  -6   10.13    0.35
  -4  -8   6    9.77    0.35
  -4  -8   6   10.39    0.34
   3   8  -6    4.52    0.21
   3   8  -6    4.55    0.22
  -3  -8   6    5.09    0.21
  -3  -8   6    4.34    0.20
  -3  -8   6    4.72    0.22
   2   8  -6   18.87    0.51
   2   8  -6   17.26    0.56
   2   8  -6   17.62    0.57
  -2  -8   6   18.11    0.51
  -2  -8   6   18.28    0.57
  -2  -8   6   18.01    0.52
   1   8  -6    0.49    0.09
   1   8  -6    0.62    0.06
   1   8  -6    0.59    0.07
   1   8  -6    0.66    0.07
  -1  -8   6    0.53    0.09
  -1  -8   6    0.59    0.07
  -1  -8   6    0.69    0.08
   0   8  -6    8.59    0.32
   0   8  -6    8.78    0.27
   0   8  -6    9.14    0.28
   0  -8   6    8.86    0.31
   0  -8   6    8.59    0.27
   0  -8   6    8.58    0.32
  -1   8  -6    8.52    0.28
  -1   8  -6    8.55    0.32
  -1   8  -6    8.46    0.28
   1  -8   6    8.84    0.31
   1  -8   6    8.63    0.32
  -2   8  -6   -0.01    0.06
  -2   8  -6   -0.05    0.05
   2  -8   6    0.01    0.06
   2  -8   6    0.04    0.06
  -3   8  -6   30.02    0.86
  -3   8  -6   28.98    0.78
   3  -8   6   29.37    0.85
   3  -8   6   29.02    0.82
  -4   8  -6    6.87    0.25
  -4   8  -6    6.73    0.27
   4  -8   6    7.08    0.27
   4  -8   6    6.97    0.27
  -5   8  -6    7.20    0.26
  -5   8  -6    6.95    0.27
   5  -8   6    7.40    0.28
   5  -8   6    6.90    0.28
   5  -8   6    7.12    0.28
  -6   8  -6    4.87    0.21
  -6   8  -6    4.88    0.22
   6  -8   6    4.38    0.23
   6  -8   6    4.82    0.21
   6  -8   6    4.67    0.21
  -7   8  -6    0.08    0.07
  -7   8  -6    0.01    0.06
   7  -8   6    0.03    0.08
   7  -8   6    0.02    0.06
  -8   8  -6   -0.02    0.07
   8  -8   6    0.00    0.06
   8  -8   6    0.07    0.05
   8  -8   6    0.11    0.08
  -9   8  -6    0.11    0.08
   9  -8   6    0.23    0.10
   9  -8   6    0.02    0.07
 -10   8  -6    0.12    0.09
  10  -8   6    0.24    0.08
  10  -8   6    0.02    0.09
   6   7  -6    0.45    0.08
   6   7  -6    0.30    0.09
  -6  -7   6    0.44    0.08
  -6  -7   6    0.46    0.10
   5   7  -6    0.14    0.07
   5   7  -6    0.17    0.07
  -5  -7   6    0.13    0.06
  -5  -7   6    0.09    0.07
  -5  -7   6    0.18    0.06
   4   7  -6    1.66    0.13
   4   7  -6    1.26    0.12
  -4  -7   6    1.72    0.13
  -4  -7   6    1.56    0.13
  -4  -7   6    1.82    0.14
   3   7  -6    0.40    0.08
   3   7  -6    0.30    0.05
   3   7  -6    0.47    0.09
   3   7  -6    0.46    0.07
  -3  -7   6    0.49    0.08
  -3  -7   6    0.39    0.05
  -3  -7   6    0.37    0.07
  -3  -7   6    0.46    0.07
   2   7  -6   -0.02    0.04
   2   7  -6    0.00    0.03
   2   7  -6    0.06    0.05
   2   7  -6    0.01    0.05
   2   7  -6    0.04    0.05
  -2  -7   6   -0.04    0.05
  -2  -7   6    0.01    0.03
  -2  -7   6   -0.02    0.05
  -2  -7   6    0.03    0.05
  -2  -7   6    0.01    0.04
   1   7  -6   39.72    0.99
   1   7  -6   39.54    1.02
   1   7  -6   38.35    1.10
   1   7  -6   39.64    1.11
  -1  -7   6   40.37    0.98
  -1  -7   6   38.35    1.10
  -1  -7   6   38.89    0.99
  -1  -7   6   39.17    1.02
  -1  -7   6   39.83    0.95
   0   7  -6   72.56    1.98
   0   7  -6   73.47    1.80
   0   7  -6   74.69    1.86
   0   7  -6   73.57    1.98
   0  -7   6   73.56    1.76
   0  -7   6   74.72    1.91
   0  -7   6   69.83    1.97
   0  -7   6   72.98    1.81
  -1   7  -6   22.24    0.61
  -1   7  -6   21.90    0.66
  -1   7  -6   22.15    0.59
   1  -7   6   22.24    0.66
   1  -7   6   22.85    0.56
   1  -7   6   22.01    0.63
  -2   7  -6    1.61    0.10
  -2   7  -6    1.66    0.12
   2  -7   6    1.36    0.12
   2  -7   6    1.90    0.13
   2  -7   6    1.77    0.12
  -3   7  -6    3.21    0.17
  -3   7  -6    2.80    0.15
   3  -7   6    3.04    0.16
   3  -7   6    3.26    0.17
   3  -7   6    3.02    0.16
  -4   7  -6    9.66    0.31
  -4   7  -6    9.55    0.34
   4  -7   6   10.31    0.34
   4  -7   6    9.93    0.34
   4  -7   6    9.86    0.33
  -5   7  -6   12.58    0.41
  -5   7  -6   12.26    0.39
   5  -7   6   12.32    0.41
   5  -7   6   12.78    0.41
   5  -7   6   12.48    0.41
  -6   7  -6    5.03    0.23
  -6   7  -6    5.35    0.23
   6  -7   6    5.25    0.20
   6  -7   6    5.13    0.23
   6  -7   6    5.27    0.22
   6  -7   6    5.52    0.25
  -7   7  -6    0.84    0.11
  -7   7  -6    0.84    0.09
   7  -7   6    0.81    0.08
   7  -7   6    0.86    0.10
   7  -7   6    1.05    0.11
  -8   7  -6    0.45    0.09
   8  -7   6    0.68    0.09
   8  -7   6    0.64    0.10
   8  -7   6    0.68    0.07
  -9   7  -6    0.18    0.09
   9  -7   6    0.24    0.07
   9  -7   6    0.31    0.10
  10  -7   6    0.16    0.09
   7   6  -6    2.77    0.15
   7   6  -6    2.74    0.20
  -7  -6   6    3.09    0.20
   6   6  -6    5.22    0.22
   6   6  -6    5.48    0.25
  -6  -6   6    5.09    0.22
  -6  -6   6    5.78    0.25
  -6  -6   6    5.74    0.21
   5   6  -6    0.51    0.08
   5   6  -6    0.46    0.09
  -5  -6   6    0.32    0.08
  -5  -6   6    0.42    0.07
  -5  -6   6    0.55    0.08
  -5  -6   6    0.33    0.06
   4   6  -6    2.85    0.14
   4   6  -6    2.59    0.15
   4   6  -6    2.71    0.13
   4   6  -6    2.68    0.15
   4   6  -6    2.93    0.15
  -4  -6   6    2.70    0.15
  -4  -6   6    2.64    0.15
  -4  -6   6    2.76    0.13
  -4  -6   6    2.75    0.13
  -4  -6   6    3.02    0.16
   3   6  -6    6.66    0.23
   3   6  -6    6.49    0.22
   3   6  -6    6.89    0.25
   3   6  -6    6.74    0.25
   3   6  -6    6.52    0.21
   3   6  -6    6.46    0.20
  -3  -6   6    6.31    0.20
  -3  -6   6    6.47    0.22
  -3  -6   6    6.94    0.25
  -3  -6   6    6.58    0.20
  -3  -6   6    6.73    0.23
  -3  -6   6    6.62    0.22
   2   6  -6    1.01    0.10
   2   6  -6    1.27    0.10
   2   6  -6    1.17    0.08
   2   6  -6    0.96    0.08
   2   6  -6    1.14    0.07
   2   6  -6    1.10    0.11
  -2  -6   6    1.23    0.09
  -2  -6   6    1.14    0.09
  -2  -6   6    1.10    0.10
  -2  -6   6    1.31    0.07
  -2  -6   6    1.22    0.08
   1   6  -6   15.40    0.44
   1   6  -6   15.56    0.43
   1   6  -6   15.81    0.43
   1   6  -6   16.29    0.49
   1   6  -6   15.22    0.49
  -1  -6   6   15.38    0.49
  -1  -6   6   16.07    0.40
  -1  -6   6   15.85    0.43
  -1  -6   6   15.95    0.43
   0   6  -6    0.01    0.05
   0   6  -6    0.03    0.03
   0   6  -6    0.04    0.04
   0   6  -6    0.02    0.03
   0   6  -6    0.06    0.04
   0  -6   6    0.02    0.03
   0  -6   6    0.04    0.04
   0  -6   6    0.03    0.04
  -1   6  -6    0.95    0.07
  -1   6  -6    1.03    0.08
  -1   6  -6    0.99    0.09
  -1   6  -6    1.04    0.08
  -1   6  -6    1.02    0.09
   1  -6   6    0.95    0.09
   1  -6   6    1.09    0.09
   1  -6   6    1.34    0.06
   1  -6   6    1.05    0.09
   1  -6   6    0.91    0.08
  -2   6  -6    1.43    0.10
  -2   6  -6    1.47    0.11
  -2   6  -6    1.50    0.11
  -2   6  -6    1.42    0.10
  -2   6  -6    1.35    0.10
   2  -6   6    1.33    0.10
   2  -6   6    1.19    0.10
   2  -6   6    1.37    0.09
   2  -6   6    1.43    0.05
   2  -6   6    1.40    0.11
  -3   6  -6    0.45    0.07
  -3   6  -6    0.49    0.07
   3  -6   6    0.62    0.07
   3  -6   6    0.47    0.07
   3  -6   6    0.51    0.07
  -4   6  -6    1.86    0.12
  -4   6  -6    1.97    0.12
   4  -6   6    1.73    0.13
   4  -6   6    2.12    0.13
   4  -6   6    2.11    0.12
   4  -6   6    1.83    0.11
  -5   6  -6   16.01    0.47
  -5   6  -6   15.67    0.49
   5  -6   6   15.28    0.49
   5  -6   6   16.40    0.49
   5  -6   6   15.96    0.49
   5  -6   6   15.47    0.45
  -6   6  -6    3.48    0.20
  -6   6  -6    3.74    0.18
   6  -6   6    3.66    0.18
   6  -6   6    4.36    0.20
   6  -6   6    3.69    0.16
   6  -6   6    3.84    0.19
  -7   6  -6    1.54    0.14
  -7   6  -6    2.04    0.13
   7  -6   6    1.61    0.12
   7  -6   6    1.74    0.15
   7  -6   6    1.80    0.10
  -8   6  -6    0.22    0.08
   8  -6   6    0.18    0.08
   8  -6   6    0.22    0.07
  -9   6  -6    0.04    0.08
   9  -6   6   -0.02    0.05
   9  -6   6   -0.01    0.08
   8   5  -6    2.94    0.22
  -8  -5   6    2.80    0.20
   7   5  -6   -0.06    0.07
   7   5  -6    0.08    0.06
  -7  -5   6    0.14    0.08
  -7  -5   6    0.04    0.05
   6   5  -6   19.83    0.57
   6   5  -6   18.91    0.58
  -6  -5   6   19.77    0.52
  -6  -5   6   18.41    0.54
  -6  -5   6   19.73    0.57
  -6  -5   6   19.65    0.54
   5   5  -6    0.15    0.05
   5   5  -6    0.18    0.05
   5   5  -6    0.12    0.06
   5   5  -6    0.14    0.06
   5   5  -6    0.10    0.05
  -5  -5   6    0.12    0.06
  -5  -5   6    0.13    0.05
  -5  -5   6    0.15    0.05
  -5  -5   6    0.08    0.05
   4   5  -6    1.91    0.11
   4   5  -6    1.77    0.12
   4   5  -6    1.89    0.10
   4   5  -6    1.87    0.13
   4   5  -6    1.95    0.12
  -4  -5   6    1.85    0.10
  -4  -5   6    1.78    0.10
  -4  -5   6    1.83    0.12
  -4  -5   6    1.71    0.10
  -4  -5   6    1.67    0.12
   3   5  -6    7.37    0.27
   3   5  -6    7.64    0.25
   3   5  -6    7.51    0.21
   3   5  -6    7.46    0.23
   3   5  -6    8.09    0.27
   3   5  -6    7.14    0.24
  -3  -5   6    7.77    0.25
  -3  -5   6    7.46    0.27
  -3  -5   6    7.58    0.24
  -3  -5   6    7.34    0.23
   2   5  -6   39.40    1.04
   2   5  -6   39.51    1.11
   2   5  -6   39.51    1.02
   2   5  -6   39.97    1.00
   2   5  -6   42.19    1.11
  -2  -5   6   41.06    1.03
  -2  -5   6   39.83    1.05
  -2  -5   6   40.22    1.11
  -2  -5   6   40.64    1.00
   1   5  -6   14.43    0.39
   1   5  -6   14.29    0.44
   1   5  -6   14.27    0.39
   1   5  -6   14.99    0.44
   1   5  -6   14.47    0.41
  -1  -5   6   14.23    0.39
  -1  -5   6   14.62    0.44
  -1  -5   6   14.08    0.44
   0   5  -6   41.63    1.13
   0   5  -6   40.39    1.04
   0   5  -6   41.16    1.03
   0   5  -6   42.28    1.13
   0   5  -6   40.62    1.06
   0  -5   6   40.34    1.13
   0  -5   6   40.80    1.13
  -1   5  -6   19.37    0.52
  -1   5  -6   20.69    0.57
  -1   5  -6   19.65    0.54
  -1   5  -6   19.04    0.57
  -1   5  -6   19.40    0.52
   1  -5   6   18.93    0.54
   1  -5   6   20.35    0.57
   1  -5   6   18.76    0.53
   1  -5   6   19.33    0.57
  -2   5  -6    6.69    0.22
  -2   5  -6    6.10    0.24
  -2   5  -6    6.69    0.22
  -2   5  -6    7.00    0.24
   2  -5   6    7.07    0.24
   2  -5   6    6.55    0.22
   2  -5   6    6.63    0.18
   2  -5   6    6.27    0.24
   2  -5   6    6.61    0.22
  -3   5  -6    0.37    0.06
  -3   5  -6    0.52    0.07
   3  -5   6    0.77    0.06
   3  -5   6    0.49    0.06
   3  -5   6    0.55    0.07
   3  -5   6    0.54    0.06
   3  -5   6    0.47    0.06
  -4   5  -6   31.05    0.82
  -4   5  -6   30.37    0.87
   4  -5   6   31.16    0.80
   4  -5   6   30.47    0.78
   4  -5   6   31.09    0.88
   4  -5   6   32.12    0.88
   4  -5   6   31.39    0.85
  -5   5  -6   23.93    0.66
  -5   5  -6   24.24    0.69
  -5   5  -6   23.26    0.65
   5  -5   6   23.46    0.69
   5  -5   6   24.60    0.68
   5  -5   6   23.64    0.69
   5  -5   6   23.81    0.63
   5  -5   6   23.12    0.62
  -6   5  -6   -0.14    0.06
  -6   5  -6    0.13    0.06
   6  -5   6    0.03    0.06
   6  -5   6    0.08    0.04
   6  -5   6    0.17    0.06
   6  -5   6    0.12    0.05
  -7   5  -6    0.54    0.09
   7  -5   6    0.55    0.07
   7  -5   6    0.55    0.09
   7  -5   6    0.57    0.06
  -8   5  -6    0.00    0.07
   8  -5   6   -0.02    0.05
   8  -5   6   -0.08    0.06
  -9   5  -6   -0.05    0.07
   9  -5   6    0.02    0.07
   9  -5   6    0.04    0.05
   8   4  -6    2.94    0.20
   8   4  -6    2.86    0.14
  -8  -4   6    2.77    0.18
   7   4  -6    0.25    0.06
   7   4  -6    0.23    0.08
  -7  -4   6    0.28    0.07
  -7  -4   6    0.22    0.06
   6   4  -6    1.03    0.10
   6   4  -6    1.10    0.10
  -6  -4   6    1.12    0.10
  -6  -4   6    1.15    0.10
  -6  -4   6    1.07    0.10
  -6  -4   6    1.05    0.08
   5   4  -6    6.59    0.24
   5   4  -6    6.64    0.24
   5   4  -6    6.57    0.20
   5   4  -6    6.74    0.23
   5   4  -6    6.67    0.25
  -5  -4   6    6.67    0.23
  -5  -4   6    6.63    0.20
  -5  -4   6    6.32    0.23
  -5  -4   6    6.42    0.24
   4   4  -6   -0.03    0.03
   4   4  -6    0.01    0.05
   4   4  -6    0.04    0.05
   4   4  -6   -0.04    0.04
   4   4  -6    0.05    0.05
  -4  -4   6   -0.02    0.05
  -4  -4   6    0.01    0.04
  -4  -4   6    0.00    0.04
   3   4  -6    0.86    0.09
   3   4  -6    0.87    0.08
   3   4  -6    1.06    0.05
   3   4  -6    1.03    0.06
   3   4  -6    0.94    0.09
  -3  -4   6    0.80    0.08
  -3  -4   6    0.93    0.09
  -3  -4   6    0.67    0.07
   2   4  -6    2.46    0.11
   2   4  -6    2.79    0.13
   2   4  -6    2.41    0.12
   2   4  -6    2.32    0.09
   2   4  -6    2.35    0.09
  -2  -4   6    2.50    0.12
  -2  -4   6    2.23    0.12
  -2  -4   6    2.15    0.11
  -2  -4   6    2.78    0.13
   1   4  -6   25.13    0.64
   1   4  -6   26.08    0.72
   1   4  -6   24.99    0.72
   1   4  -6   25.31    0.67
   1   4  -6   25.06    0.65
  -1  -4   6   25.06    0.72
  -1  -4   6   25.07    0.71
  -1  -4   6   24.93    0.66
  -1  -4   6   24.91    0.68
   0   4  -6    3.75    0.14
   0   4  -6    3.97    0.16
   0   4  -6    4.09    0.17
   0   4  -6    3.84    0.14
   0  -4   6    3.98    0.16
   0  -4   6    3.93    0.17
   0  -4   6    3.84    0.15
  -1   4  -6   22.08    0.59
  -1   4  -6   21.28    0.57
  -1   4  -6   22.45    0.62
  -1   4  -6   20.39    0.62
   1  -4   6   21.24    0.59
   1  -4   6   20.77    0.57
   1  -4   6   22.59    0.62
   1  -4   6   21.42    0.62
  -2   4  -6   65.32    1.68
  -2   4  -6   59.31    1.75
  -2   4  -6   67.70    1.76
  -2   4  -6   65.38    1.62
   2  -4   6   66.84    1.69
   2  -4   6   67.87    1.76
   2  -4   6   65.82    1.58
   2  -4   6   66.13    1.62
   2  -4   6   65.27    1.76
  -3   4  -6    5.14    0.20
  -3   4  -6    5.08    0.20
  -3   4  -6    5.33    0.19
   3  -4   6    5.12    0.21
   3  -4   6    5.28    0.17
   3  -4   6    5.00    0.20
   3  -4   6    5.46    0.19
   3  -4   6    5.20    0.18
  -4   4  -6   77.41    1.89
  -4   4  -6   75.65    2.04
   4  -4   6   77.72    2.04
   4  -4   6   78.03    1.97
   4  -4   6   75.61    1.87
   4  -4   6   75.86    2.03
   4  -4   6   72.90    1.85
  -5   4  -6    2.68    0.14
  -5   4  -6    2.49    0.15
  -5   4  -6    2.80    0.13
   5  -4   6    2.80    0.14
   5  -4   6    2.41    0.14
   5  -4   6    2.77    0.13
   5  -4   6    2.93    0.15
   5  -4   6    2.82    0.15
  -6   4  -6    0.28    0.07
  -6   4  -6    0.44    0.06
  -6   4  -6    0.37    0.07
   6  -4   6    0.44    0.07
   6  -4   6    0.45    0.05
   6  -4   6    0.38    0.07
   6  -4   6    0.44    0.07
   6  -4   6    0.40    0.06
  -7   4  -6    2.75    0.17
   7  -4   6    2.68    0.11
   7  -4   6    2.30    0.15
   7  -4   6    2.41    0.14
  -8   4  -6    0.07    0.07
   8  -4   6   -0.05    0.06
   8  -4   6   -0.02    0.05
  -9   4  -6    1.08    0.12
   9   3  -6   -0.07    0.08
  -9  -3   6    0.08    0.07
   8   3  -6    2.91    0.14
   8   3  -6    2.78    0.20
  -8  -3   6    3.12    0.17
  -8  -3   6    3.13    0.15
   7   3  -6    0.81    0.10
   7   3  -6    1.04    0.10
  -7  -3   6    0.80    0.09
  -7  -3   6    0.95    0.08
  -7  -3   6    1.02    0.07
   6   3  -6   32.00    0.89
   6   3  -6   32.16    0.85
   6   3  -6   31.21    0.89
  -6  -3   6   31.81    0.83
  -6  -3   6   32.41    0.80
  -6  -3   6   31.67    0.89
  -6  -3   6   32.45    0.86
   5   3  -6    7.57    0.26
   5   3  -6    7.32    0.26
   5   3  -6    7.38    0.26
   5   3  -6    7.54    0.21
  -5  -3   6    7.37    0.25
  -5  -3   6    7.76    0.26
  -5  -3   6    7.29    0.25
   4   3  -6   32.43    0.80
   4   3  -6   32.87    0.89
   4   3  -6   31.87    0.78
   4   3  -6   32.27    0.90
   4   3  -6   31.88    0.85
   4   3  -6   32.22    0.82
  -4  -3   6   32.47    0.84
  -4  -3   6   32.28    0.90
  -4  -3   6   31.94    0.85
   3   3  -6   19.86    0.50
   3   3  -6   19.66    0.54
   3   3  -6   19.40    0.50
   3   3  -6   20.66    0.58
   3   3  -6   20.14    0.58
  -3  -3   6   19.57    0.58
  -3  -3   6   19.83    0.54
  -3  -3   6   19.93    0.54
  -3  -3   6   20.06    0.57
   2   3  -6   59.75    1.61
   2   3  -6   60.95    1.47
   2   3  -6   58.77    1.45
   2   3  -6   59.35    1.52
   2   3  -6   59.93    1.60
  -2  -3   6   59.19    1.60
  -2  -3   6   61.99    1.60
  -2  -3   6   58.30    1.48
  -2  -3   6   58.37    1.52
   1   3  -6   24.22    0.64
   1   3  -6   24.91    0.69
   1   3  -6   23.71    0.61
   1   3  -6   23.52    0.68
  -1  -3   6   24.63    0.68
  -1  -3   6   23.63    0.64
  -1  -3   6   23.38    0.68
  -1  -3   6   24.04    0.63
   0   3  -6   18.14    0.52
   0   3  -6   17.95    0.47
   0   3  -6   17.87    0.49
   0   3  -6   17.20    0.52
   0  -3   6   17.45    0.48
   0  -3   6   17.94    0.53
   0  -3   6   17.88    0.50
   0  -3   6   18.70    0.52
  -1   3  -6    5.05    0.18
  -1   3  -6    4.84    0.17
  -1   3  -6    4.78    0.18
  -1   3  -6    4.46    0.19
   1  -3   6    4.67    0.16
   1  -3   6    4.98    0.18
   1  -3   6    4.90    0.19
   1  -3   6    4.39    0.19
  -2   3  -6   13.01    0.39
  -2   3  -6   12.86    0.38
  -2   3  -6   12.84    0.37
  -2   3  -6   13.09    0.40
   2  -3   6   12.94    0.35
   2  -3   6   13.18    0.37
   2  -3   6   12.98    0.40
   2  -3   6   13.27    0.37
   2  -3   6   12.50    0.39
  -3   3  -6   17.08    0.49
  -3   3  -6   15.79    0.50
  -3   3  -6   17.05    0.47
   3  -3   6   16.24    0.41
   3  -3   6   16.50    0.50
   3  -3   6   16.88    0.46
   3  -3   6   16.39    0.45
   3  -3   6   16.84    0.46
   3  -3   6   17.21    0.50
  -4   3  -6   22.44    0.62
  -4   3  -6   22.41    0.65
   4  -3   6   22.92    0.65
   4  -3   6   23.02    0.65
   4  -3   6   22.05    0.59
   4  -3   6   23.06    0.62
   4  -3   6   22.02    0.60
  -5   3  -6    1.60    0.09
  -5   3  -6    1.36    0.12
  -5   3  -6    1.51    0.11
   5  -3   6    1.40    0.11
   5  -3   6    1.23    0.11
   5  -3   6    1.56    0.11
   5  -3   6    1.51    0.10
   5  -3   6    1.68    0.10
  -6   3  -6    1.90    0.13
  -6   3  -6    2.30    0.15
   6  -3   6    1.97    0.10
   6  -3   6    1.82    0.12
   6  -3   6    1.85    0.14
   6  -3   6    1.74    0.12
  -7   3  -6    0.27    0.08
   7  -3   6    0.30    0.07
   7  -3   6    0.31    0.07
  -8   3  -6    0.45    0.10
  -8   3  -6    0.40    0.09
   8  -3   6    0.38    0.05
  10   2  -6    1.30    0.15
 -10  -2   6    1.80    0.16
   9   2  -6    0.36    0.06
   9   2  -6    0.35    0.09
  -9  -2   6    0.36    0.08
   8   2  -6    4.26    0.21
   8   2  -6    3.99    0.17
  -8  -2   6    4.39    0.19
  -8  -2   6    4.28    0.17
   7   2  -6    2.25    0.15
   7   2  -6    2.07    0.13
   7   2  -6    2.22    0.12
  -7  -2   6    2.20    0.14
  -7  -2   6    2.07    0.12
  -7  -2   6    2.34    0.13
   6   2  -6    1.71    0.13
   6   2  -6    1.99    0.11
   6   2  -6    1.93    0.12
  -6  -2   6    1.96    0.12
  -6  -2   6    1.62    0.12
  -6  -2   6    1.82    0.12
   5   2  -6    7.57    0.26
   5   2  -6    7.39    0.25
   5   2  -6    7.40    0.25
  -5  -2   6    7.81    0.26
  -5  -2   6    7.26    0.24
  -5  -2   6    7.55    0.25
   4   2  -6    2.40    0.07
   4   2  -6    2.40    0.13
   4   2  -6    2.27    0.12
   4   2  -6    2.64    0.12
   4   2  -6    2.37    0.08
  -4  -2   6    2.26    0.12
  -4  -2   6    2.30    0.12
  -4  -2   6    2.19    0.12
  -4  -2   6    2.33    0.13
   3   2  -6   -0.03    0.03
   3   2  -6   -0.04    0.02
   3   2  -6    0.00    0.05
   3   2  -6   -0.01    0.04
  -3  -2   6    0.06    0.04
  -3  -2   6    0.02    0.05
  -3  -2   6    0.01    0.04
  -3  -2   6   -0.01    0.04
   2   2  -6   17.80    0.53
   2   2  -6   18.13    0.50
   2   2  -6   18.76    0.49
   2   2  -6   18.04    0.52
  -2  -2   6   17.06    0.49
  -2  -2   6   18.69    0.53
  -2  -2   6   18.40    0.53
  -2  -2   6   17.61    0.50
   1   2  -6    3.38    0.14
   1   2  -6    3.32    0.13
   1   2  -6    3.32    0.13
   1   2  -6    3.48    0.15
  -1  -2   6    3.08    0.13
  -1  -2   6    3.24    0.14
  -1  -2   6    3.34    0.13
  -1  -2   6    3.70    0.14
   0   2  -6  176.01    4.51
   0   2  -6  181.71    4.30
   0   2  -6  155.31    4.50
   0   2  -6  182.37    4.16
   0  -2   6  172.59    4.51
   0  -2   6  152.22    4.50
   0  -2   6  179.71    4.30
   0  -2   6  176.14    4.16
  -1   2  -6   45.54    1.11
  -1   2  -6   43.46    1.14
  -1   2  -6   44.47    1.20
  -1   2  -6   44.45    1.21
   1  -2   6   43.90    1.20
   1  -2   6   43.04    1.20
   1  -2   6   45.00    1.14
   1  -2   6   43.22    1.11
  -2   2  -6   19.86    0.56
  -2   2  -6   19.53    0.54
  -2   2  -6   20.13    0.52
  -2   2  -6   19.50    0.57
   2  -2   6   18.73    0.52
   2  -2   6   19.71    0.57
   2  -2   6   19.48    0.52
   2  -2   6   19.95    0.57
   2  -2   6   19.33    0.49
   2  -2   6   19.13    0.52
  -3   2  -6    0.00    0.05
  -3   2  -6    0.07    0.04
  -3   2  -6    0.15    0.04
   3  -2   6    0.04    0.05
   3  -2   6    0.05    0.03
   3  -2   6   -0.13    0.05
   3  -2   6    0.05    0.05
   3  -2   6    0.06    0.04
   3  -2   6    0.10    0.06
  -4   2  -6   10.17    0.34
   4  -2   6   10.35    0.33
   4  -2   6   10.46    0.34
   4  -2   6   11.17    0.34
   4  -2   6   10.45    0.31
   4  -2   6   10.93    0.31
  -5   2  -6    7.42    0.26
  -5   2  -6    7.22    0.22
   5  -2   6    7.30    0.23
   5  -2   6    7.12    0.26
   5  -2   6    7.27    0.23
   5  -2   6    7.44    0.26
   5  -2   6    7.51    0.25
  -6   2  -6    1.84    0.17
  -6   2  -6    2.10    0.15
   6  -2   6    1.89    0.13
   6  -2   6    1.82    0.15
  -7   2  -6    0.06    0.07
  -7   2  -6    0.09    0.08
   7  -2   6    0.08    0.05
  -8   2  -6    0.59    0.10
  -8   2  -6    0.58    0.12
  10   1  -6    0.65    0.11
 -10  -1   6    0.56    0.10
   9   1  -6    2.40    0.12
   9   1  -6    2.44    0.18
  -9  -1   6    2.45    0.17
   8   1  -6    0.97    0.10
   8   1  -6    0.93    0.10
  -8  -1   6    1.08    0.10
  -8  -1   6    1.09    0.10
   7   1  -6    0.33    0.07
   7   1  -6    0.21    0.07
   7   1  -6    0.34    0.06
  -7  -1   6    0.25    0.07
  -7  -1   6    0.38    0.07
  -7  -1   6    0.29    0.06
   6   1  -6    7.58    0.27
   6   1  -6    7.62    0.26
   6   1  -6    7.74    0.26
  -6  -1   6    7.49    0.26
  -6  -1   6    7.45    0.25
  -6  -1   6    7.81    0.27
   5   1  -6    2.23    0.11
   5   1  -6    2.20    0.13
   5   1  -6    2.28    0.12
   5   1  -6    2.32    0.07
   5   1  -6    2.31    0.07
   5   1  -6    2.28    0.12
  -5  -1   6    2.29    0.13
  -5  -1   6    2.13    0.12
  -5  -1   6    1.94    0.12
   4   1  -6    0.66    0.07
   4   1  -6    0.55    0.06
   4   1  -6    0.52    0.07
   4   1  -6    0.56    0.07
  -4  -1   6    0.60    0.07
  -4  -1   6    0.54    0.07
  -4  -1   6    0.53    0.06
  -4  -1   6    0.44    0.07
   3   1  -6    0.39    0.05
   3   1  -6    0.33    0.06
   3   1  -6    0.51    0.06
   3   1  -6    0.45    0.05
  -3  -1   6    0.36    0.06
  -3  -1   6    0.36    0.05
  -3  -1   6    0.37    0.06
  -3  -1   6    0.38    0.06
   2   1  -6    2.34    0.11
   2   1  -6    2.16    0.12
   2   1  -6    2.48    0.11
  -2  -1   6    2.08    0.11
  -2  -1   6    2.32    0.12
  -2  -1   6    2.21    0.12
   1   1  -6   14.70    0.43
   1   1  -6   15.11    0.46
   1   1  -6   15.88    0.42
   1   1  -6   15.55    0.45
  -1  -1   6   14.28    0.43
  -1  -1   6   15.23    0.45
  -1  -1   6   15.56    0.46
  -1  -1   6   15.23    0.42
   0   1  -6    1.80    0.11
   0   1  -6    1.61    0.10
   0   1  -6    1.58    0.11
   0   1  -6    1.78    0.09
   0  -1   6    1.50    0.11
   0  -1   6    1.86    0.11
   0  -1   6    1.75    0.12
   0  -1   6    2.01    0.10
  -1   1  -6    1.13    0.09
  -1   1  -6    1.01    0.08
  -1   1  -6    0.81    0.07
  -1   1  -6    1.05    0.09
   1  -1   6    1.04    0.09
   1  -1   6    1.07    0.05
   1  -1   6    0.82    0.07
   1  -1   6    1.06    0.09
  -2   1  -6    0.02    0.05
  -2   1  -6   -0.05    0.04
  -2   1  -6   -0.01    0.03
   2  -1   6    0.05    0.02
   2  -1   6    0.07    0.05
   2  -1   6    0.03    0.04
   2  -1   6    0.03    0.05
   2  -1   6   -0.06    0.05
   2  -1   6    0.05    0.03
  -3   1  -6    1.63    0.12
  -3   1  -6    1.45    0.09
  -3   1  -6    1.63    0.10
   3  -1   6    1.45    0.12
   3  -1   6    1.32    0.10
   3  -1   6    1.55    0.09
   3  -1   6    1.57    0.11
   3  -1   6    1.59    0.07
   3  -1   6    1.48    0.10
  -4   1  -6    5.95    0.24
  -4   1  -6    5.77    0.19
  -4   1  -6    6.08    0.23
   4  -1   6    6.12    0.21
   4  -1   6    6.15    0.22
   4  -1   6    5.82    0.23
   4  -1   6    6.30    0.23
  -5   1  -6    1.63    0.15
  -5   1  -6    1.50    0.12
   5  -1   6    1.45    0.13
   5  -1   6    1.44    0.12
  -6   1  -6    3.11    0.20
   6  -1   6    3.23    0.16
   6  -1   6    3.19    0.19
  -7   1  -6    0.38    0.09
  -7   1  -6    0.56    0.11
   7  -1   6    0.44    0.10
   7  -1   6    0.54    0.06
  10   0  -6    0.41    0.09
  10   0  -6    0.38    0.05
 -10   0   6    0.45    0.10
   9   0  -6    1.09    0.11
   9   0  -6    0.94    0.10
  -9   0   6    1.05    0.11
  -9   0   6    1.18    0.11
   8   0  -6    0.58    0.09
   8   0  -6    0.69    0.08
  -8   0   6    0.72    0.09
  -8   0   6    0.83    0.08
  -8   0   6    0.76    0.08
   7   0  -6    1.13    0.09
   7   0  -6    0.94    0.09
   7   0  -6    1.01    0.10
   7   0  -6    1.04    0.09
  -7   0   6    0.84    0.09
  -7   0   6    1.14    0.11
  -7   0   6    0.89    0.08
   6   0  -6   16.88    0.42
   6   0  -6   17.53    0.52
   6   0  -6   17.49    0.48
   6   0  -6   17.31    0.47
   6   0  -6   17.18    0.50
  -6   0   6   17.04    0.51
  -6   0   6   16.80    0.48
  -6   0   6   16.57    0.49
   5   0  -6    0.58    0.06
   5   0  -6    0.67    0.08
   5   0  -6    0.65    0.07
   5   0  -6    0.70    0.05
   5   0  -6    0.80    0.08
  -5   0   6    0.72    0.08
  -5   0   6    0.57    0.07
  -5   0   6    0.46    0.07
   4   0  -6    3.14    0.14
   4   0  -6    3.09    0.08
   4   0  -6    3.24    0.14
   4   0  -6    3.20    0.15
   4   0  -6    3.17    0.15
  -4   0   6    3.11    0.14
  -4   0   6    3.31    0.15
  -4   0   6    3.04    0.14
  -4   0   6    3.23    0.15
  -4   0   6    3.20    0.16
   3   0  -6   24.03    0.67
   3   0  -6   23.04    0.59
   3   0  -6   23.24    0.63
   3   0  -6   24.07    0.62
   3   0  -6   22.56    0.67
  -3   0   6   22.94    0.62
  -3   0   6   23.28    0.63
  -3   0   6   22.86    0.63
  -3   0   6   22.31    0.67
  -3   0   6   23.73    0.67
   2   0  -6   39.32    1.11
   2   0  -6   41.45    1.02
   2   0  -6   39.82    1.04
   2   0  -6   40.49    1.01
   2   0  -6   41.92    1.11
  -2   0   6   38.88    1.11
  -2   0   6   38.63    1.02
  -2   0   6   42.21    1.11
  -2   0   6   39.92    1.05
  -2   0   6   39.52    1.05
   1   0  -6    1.22    0.11
   1   0  -6    1.08    0.09
   1   0  -6    1.22    0.10
   1   0  -6    1.13    0.08
   1   0  -6    1.13    0.08
  -1   0   6    1.28    0.10
  -1   0   6    1.05    0.10
  -1   0   6    1.24    0.08
  -1   0   6    1.01    0.10
  -1   0   6    1.10    0.06
   0   0  -6   48.64    1.27
   0   0  -6   52.60    1.26
   0   0  -6   51.60    1.29
   0   0  -6   51.60    1.36
   0   0  -6   46.67    1.36
   0   0   6   51.82    1.27
   0   0   6   46.54    1.36
   0   0   6   49.18    1.26
   0   0   6   50.34    1.29
   0   0   6   49.99    1.27
   0   0   6   52.13    1.36
  -1   0  -6   24.90    0.64
  -1   0  -6   24.64    0.70
  -1   0  -6   23.47    0.65
  -1   0  -6   24.14    0.65
   1   0   6   23.76    0.70
   1   0   6   23.45    0.64
   1   0   6   24.69    0.69
  -2   0  -6    0.00    0.04
  -2   0  -6    0.00    0.05
  -2   0  -6   -0.03    0.05
  -2   0  -6   -0.02    0.04
   2   0   6   -0.11    0.05
   2   0   6   -0.08    0.05
   2   0   6    0.02    0.05
   2   0   6   -0.05    0.05
   2   0   6   -0.02    0.03
  -3   0  -6    1.08    0.08
  -3   0  -6    0.55    0.09
  -3   0  -6    0.67    0.08
  -3   0  -6    0.94    0.08
   3   0   6    0.74    0.09
   3   0   6    0.77    0.08
   3   0   6    0.76    0.09
   3   0   6    0.85    0.08
   3   0   6    0.78    0.08
  -4   0  -6   13.69    0.42
  -4   0  -6   12.85    0.42
  -4   0  -6   12.97    0.37
   4   0   6   13.40    0.41
   4   0   6   13.46    0.42
   4   0   6   13.18    0.41
  -5   0  -6    1.50    0.14
   5   0   6    1.34    0.13
   5   0   6    1.59    0.13
  -6   0  -6    0.71    0.12
   6   0   6    0.62    0.10
   6   0   6    0.72    0.08
  -7   0  -6    0.83    0.14
   7   0   6    0.86    0.12
  11  -1  -6    0.85    0.13
 -11   1   6    0.95    0.13
  10  -1  -6    0.24    0.08
  10  -1  -6    0.19    0.06
 -10   1   6    0.24    0.09
   9  -1  -6    2.71    0.14
   9  -1  -6    2.72    0.17
  -9   1   6    2.52    0.17
  -9   1   6    2.72    0.15
   8  -1  -6    1.75    0.14
   8  -1  -6    1.82    0.12
   8  -1  -6    1.75    0.13
  -8   1   6    1.85    0.14
  -8   1   6    1.88    0.13
  -8   1   6    1.90    0.13
   7  -1  -6    1.54    0.11
   7  -1  -6    1.29    0.11
   7  -1  -6    1.21    0.12
   7  -1  -6    1.53    0.06
  -7   1   6    1.43    0.12
  -7   1   6    1.28    0.12
  -7   1   6    1.46    0.12
   6  -1  -6    4.82    0.20
   6  -1  -6    4.52    0.14
   6  -1  -6    4.61    0.19
   6  -1  -6    4.61    0.18
  -6   1   6    4.38    0.19
  -6   1   6    4.59    0.20
  -6   1   6    4.61    0.19
   5  -1  -6    3.72    0.15
   5  -1  -6    3.46    0.16
   5  -1  -6    3.42    0.12
   5  -1  -6    3.45    0.16
  -5   1   6    3.31    0.15
  -5   1   6    3.17    0.16
  -5   1   6    3.22    0.16
  -5   1   6    3.45    0.17
   4  -1  -6    0.84    0.09
   4  -1  -6    0.94    0.09
   4  -1  -6    0.96    0.09
   4  -1  -6    0.90    0.05
  -4   1   6    0.88    0.09
  -4   1   6    0.95    0.09
  -4   1   6    0.97    0.09
  -4   1   6    0.98    0.09
  -4   1   6    0.90    0.08
   3  -1  -6    8.20    0.26
   3  -1  -6    8.25    0.23
   3  -1  -6    8.10    0.29
   3  -1  -6    8.32    0.26
   3  -1  -6    8.32    0.28
  -3   1   6    7.95    0.29
  -3   1   6    8.36    0.28
  -3   1   6    8.24    0.26
  -3   1   6    8.13    0.26
  -3   1   6    8.28    0.27
   2  -1  -6    0.73    0.09
   2  -1  -6    0.94    0.09
   2  -1  -6    0.84    0.09
   2  -1  -6    0.74    0.07
   2  -1  -6    0.76    0.07
  -2   1   6    0.57    0.07
  -2   1   6    0.60    0.06
  -2   1   6    0.67    0.08
  -2   1   6    0.72    0.09
  -2   1   6    0.75    0.06
   1  -1  -6    2.71    0.13
   1  -1  -6    2.66    0.12
   1  -1  -6    2.64    0.12
   1  -1  -6    2.30    0.14
   1  -1  -6    2.68    0.14
  -1   1   6    2.51    0.14
  -1   1   6    2.48    0.15
  -1   1   6    2.61    0.09
  -1   1   6    2.71    0.14
  -1   1   6    2.67    0.12
   0  -1  -6    0.06    0.05
   0  -1  -6    0.04    0.06
   0  -1  -6    0.01    0.05
   0  -1  -6    0.09    0.04
   0   1   6    0.09    0.06
   0   1   6    0.01    0.05
   0   1   6   -0.02    0.05
   0   1   6    0.03    0.04
  -1  -1  -6    3.77    0.18
  -1  -1  -6    4.00    0.16
  -1  -1  -6    3.98    0.15
  -1  -1  -6    3.93    0.17
   1   1   6    4.00    0.18
   1   1   6    3.95    0.16
   1   1   6    3.82    0.17
   1   1   6    3.97    0.18
  -2  -1  -6    3.08    0.13
  -2  -1  -6    3.01    0.16
  -2  -1  -6    2.85    0.16
  -2  -1  -6    3.11    0.14
   2   1   6    2.95    0.16
   2   1   6    2.86    0.15
   2   1   6    2.91    0.15
   2   1   6    2.68    0.16
  -3  -1  -6    0.02    0.04
  -3  -1  -6   -0.03    0.06
  -3  -1  -6   -0.03    0.06
   3   1   6    0.00    0.06
   3   1   6   -0.10    0.06
   3   1   6    0.02    0.05
  -4  -1  -6   10.50    0.37
   4   1   6   10.56    0.36
   4   1   6   10.42    0.36
  -5  -1  -6   -0.06    0.08
   5   1   6   -0.03    0.06
   5   1   6    0.01    0.07
  -6  -1  -6    0.73    0.12
   6   1   6    0.56    0.11
   6   1   6    0.83    0.09
  11  -2  -6    1.06    0.10
  11  -2  -6    0.85    0.11
 -11   2   6    1.06    0.13
  10  -2  -6    2.50    0.17
  10  -2  -6    1.93    0.13
 -10   2   6    2.36    0.18
   9  -2  -6    0.09    0.06
   9  -2  -6   -0.05    0.06
  -9   2   6    0.07    0.06
  -9   2   6   -0.05    0.07
   8  -2  -6    0.09    0.06
   8  -2  -6    0.26    0.07
   8  -2  -6    0.28    0.03
   8  -2  -6    0.25    0.07
  -8   2   6    0.10    0.07
  -8   2   6    0.22    0.07
  -8   2   6    0.15    0.07
   7  -2  -6   20.17    0.55
   7  -2  -6   19.12    0.52
   7  -2  -6   20.91    0.60
   7  -2  -6   19.82    0.61
  -7   2   6   20.79    0.59
  -7   2   6   20.13    0.57
  -7   2   6   20.25    0.61
   6  -2  -6   -0.02    0.06
   6  -2  -6    0.07    0.06
   6  -2  -6    0.20    0.04
   6  -2  -6    0.04    0.04
  -6   2   6    0.08    0.06
  -6   2   6   -0.05    0.06
  -6   2   6    0.06    0.06
   5  -2  -6    1.74    0.07
   5  -2  -6    1.76    0.13
   5  -2  -6    1.74    0.09
   5  -2  -6    1.81    0.14
  -5   2   6    1.90    0.12
  -5   2   6    1.93    0.12
  -5   2   6    1.73    0.13
  -5   2   6    1.92    0.14
   4  -2  -6   16.03    0.50
   4  -2  -6   16.16    0.42
   4  -2  -6   16.63    0.49
  -4   2   6   15.63    0.46
  -4   2   6   15.48    0.46
  -4   2   6   15.83    0.46
  -4   2   6   15.51    0.50
   3  -2  -6   -0.03    0.04
   3  -2  -6    0.04    0.06
   3  -2  -6    0.02    0.03
   3  -2  -6   -0.02    0.06
  -3   2   6    0.00    0.06
  -3   2   6    0.11    0.05
  -3   2   6   -0.01    0.05
  -3   2   6    0.03    0.03
  -3   2   6    0.03    0.06
   2  -2  -6   25.41    0.67
   2  -2  -6   25.57    0.68
   2  -2  -6   25.84    0.75
  -2   2   6   25.51    0.74
  -2   2   6   25.45    0.69
  -2   2   6   24.84    0.67
  -2   2   6   25.38    0.75
  -2   2   6   25.75    0.69
   1  -2  -6    4.69    0.21
   1  -2  -6    4.83    0.17
   1  -2  -6    4.79    0.18
  -1   2   6    4.73    0.21
  -1   2   6    4.71    0.21
  -1   2   6    4.90    0.18
  -1   2   6    4.58    0.19
   0  -2  -6    0.75    0.08
   0  -2  -6    0.71    0.06
   0  -2  -6    0.78    0.09
   0   2   6    0.76    0.07
   0   2   6    0.92    0.10
   0   2   6    0.77    0.09
   0   2   6    0.70    0.09
  -1  -2  -6    0.12    0.07
  -1  -2  -6    0.15    0.07
  -1  -2  -6    0.13    0.04
   1   2   6    0.14    0.06
   1   2   6    0.13    0.08
   1   2   6    0.18    0.07
  -2  -2  -6    0.01    0.07
  -2  -2  -6    0.11    0.04
  -2  -2  -6    0.06    0.07
   2   2   6    0.04    0.06
   2   2   6    0.12    0.06
   2   2   6   -0.03    0.07
  -3  -2  -6    0.20    0.09
  -3  -2  -6    0.30    0.08
   3   2   6    0.15    0.08
   3   2   6    0.19    0.08
  -4  -2  -6   -0.09    0.08
   4   2   6    0.11    0.08
   4   2   6    0.02    0.07
  -5  -2  -6    0.63    0.11
   5   2   6    0.59    0.11
   5   2   6    0.51    0.09
  11  -3  -6   -0.06    0.06
  11  -3  -6    0.05    0.08
 -11   3   6    0.11    0.10
  10  -3  -6    0.94    0.10
  10  -3  -6    0.98    0.11
 -10   3   6    1.03    0.12
   9  -3  -6    0.35    0.07
   9  -3  -6    0.40    0.08
  -9   3   6    0.27    0.08
   8  -3  -6    0.19    0.04
   8  -3  -6    0.15    0.07
   8  -3  -6    0.17    0.06
   8  -3  -6    0.23    0.07
  -8   3   6    0.21    0.08
  -8   3   6    0.17    0.07
  -8   3   6    0.13    0.07
   7  -3  -6    2.08    0.16
   7  -3  -6    1.98    0.10
   7  -3  -6    1.99    0.15
   7  -3  -6    2.08    0.12
  -7   3   6    2.24    0.16
  -7   3   6    1.94    0.14
  -7   3   6    2.04    0.14
   6  -3  -6   -0.02    0.07
   6  -3  -6    0.10    0.04
   6  -3  -6   -0.17    0.07
   6  -3  -6    0.01    0.04
   6  -3  -6    0.12    0.03
  -6   3   6   -0.05    0.07
  -6   3   6    0.11    0.07
  -6   3   6    0.04    0.06
   5  -3  -6    0.03    0.03
   5  -3  -6   -0.03    0.04
   5  -3  -6   -0.17    0.07
  -5   3   6   -0.08    0.06
  -5   3   6   -0.04    0.05
  -5   3   6   -0.06    0.05
   4  -3  -6    1.40    0.08
   4  -3  -6    1.51    0.13
   4  -3  -6    1.31    0.12
  -4   3   6    1.58    0.11
  -4   3   6    1.54    0.13
  -4   3   6    1.10    0.11
  -4   3   6    1.48    0.10
   3  -3  -6    4.95    0.23
   3  -3  -6    5.29    0.21
   3  -3  -6    5.06    0.18
  -3   3   6    4.68    0.23
  -3   3   6    4.81    0.17
  -3   3   6    4.90    0.21
  -3   3   6    5.00    0.18
   2  -3  -6    1.87    0.11
   2  -3  -6    1.56    0.15
   2  -3  -6    1.91    0.11
  -2   3   6    1.88    0.08
  -2   3   6    1.97    0.16
  -2   3   6    1.82    0.15
  -2   3   6    1.79    0.11
   1  -3  -6   14.11    0.47
   1  -3  -6   13.68    0.41
   1  -3  -6   14.03    0.41
  -1   3   6   14.65    0.46
  -1   3   6   14.40    0.47
  -1   3   6   14.22    0.41
   0  -3  -6    8.83    0.33
   0  -3  -6    8.83    0.30
   0  -3  -6    8.22    0.27
   0   3   6    9.06    0.32
   0   3   6    8.44    0.33
  -1  -3  -6    1.03    0.10
  -1  -3  -6    0.94    0.11
  -1  -3  -6    0.98    0.08
   1   3   6    0.80    0.11
   1   3   6    1.00    0.10
   1   3   6    1.14    0.12
  -2  -3  -6    4.47    0.23
  -2  -3  -6    4.74    0.23
   2   3   6    5.03    0.23
   2   3   6    5.07    0.22
  -3  -3  -6    0.06    0.08
   3   3   6    0.00    0.07
   3   3   6    0.11    0.08
  -4  -3  -6    1.05    0.13
   4   3   6    0.97    0.11
   4   3   6    1.05    0.13
  11  -4  -6    0.55    0.09
  11  -4  -6    0.51    0.10
 -11   4   6    0.55    0.11
  10  -4  -6    0.31    0.08
  10  -4  -6    0.38    0.08
 -10   4   6    0.38    0.10
   9  -4  -6    2.09    0.14
   9  -4  -6    1.67    0.15
  -9   4   6    1.97    0.16
  -9   4   6    2.02    0.16
   8  -4  -6    3.45    0.19
   8  -4  -6    3.62    0.19
   8  -4  -6    3.83    0.16
   8  -4  -6    3.39    0.14
  -8   4   6    3.48    0.19
  -8   4   6    3.76    0.19
   7  -4  -6    0.80    0.07
   7  -4  -6    0.84    0.11
   7  -4  -6    0.68    0.10
  -7   4   6    0.69    0.09
  -7   4   6    0.83    0.07
  -7   4   6    0.81    0.11
   6  -4  -6    0.45    0.10
   6  -4  -6    0.66    0.06
   6  -4  -6    0.61    0.06
  -6   4   6    0.43    0.08
  -6   4   6    0.66    0.06
  -6   4   6    0.40    0.10
   5  -4  -6    0.53    0.06
   5  -4  -6    0.27    0.11
  -5   4   6    0.53    0.07
  -5   4   6    0.47    0.07
  -5   4   6    0.53    0.06
  -5   4   6    0.08    0.10
   4  -4  -6    2.34    0.12
   4  -4  -6    2.22    0.17
  -4   4   6    1.56    0.12
  -4   4   6    1.99    0.17
  -4   4   6    2.11    0.11
  -4   4   6    2.30    0.13
   3  -4  -6    2.66    0.18
   3  -4  -6    2.82    0.14
  -3   4   6    2.70    0.18
  -3   4   6    2.66    0.11
  -3   4   6    2.84    0.13
   2  -4  -6    4.92    0.20
   2  -4  -6    5.11    0.24
   2  -4  -6    5.04    0.19
  -2   4   6    4.77    0.23
  -2   4   6    4.86    0.18
   1  -4  -6   -0.01    0.08
   1  -4  -6   -0.05    0.04
   1  -4  -6    0.05    0.06
  -1   4   6    0.02    0.04
  -1   4   6   -0.04    0.08
   0  -4  -6    0.78    0.10
   0  -4  -6    0.96    0.12
   0   4   6    0.83    0.12
   0   4   6    0.79    0.11
  -1  -4  -6    0.21    0.10
  -1  -4  -6    0.29    0.09
   1   4   6    0.39    0.09
   1   4   6    0.10    0.09
  -2  -4  -6    0.56    0.11
   2   4   6    0.53    0.10
   2   4   6    0.64    0.10
  -3  -4  -6    2.06    0.18
   3   4   6    2.37    0.19
   3   4   6    2.27    0.18
  11  -5  -6   -0.03    0.07
  11  -5  -6    0.02    0.07
 -11   5   6    0.00    0.10
  10  -5  -6    0.04    0.07
  10  -5  -6    0.00    0.06
 -10   5   6   -0.04    0.09
   9  -5  -6    4.97    0.20
   9  -5  -6    5.18    0.24
  -9   5   6    5.48    0.25
  -9   5   6    5.20    0.25
   8  -5  -6    0.77    0.11
   8  -5  -6    0.89    0.08
  -8   5   6    0.73    0.10
  -8   5   6    0.79    0.11
   7  -5  -6    1.52    0.14
   7  -5  -6    1.48    0.14
   7  -5  -6    1.54    0.10
   7  -5  -6    1.61    0.09
  -7   5   6    1.53    0.16
  -7   5   6    1.45    0.14
   6  -5  -6    3.21    0.18
   6  -5  -6    2.93    0.14
   6  -5  -6    3.38    0.21
   6  -5  -6    3.41    0.13
  -6   5   6    3.76    0.18
  -6   5   6    3.17    0.21
  -6   5   6    3.65    0.15
   5  -5  -6    0.16    0.09
   5  -5  -6    0.23    0.06
   5  -5  -6    0.18    0.06
  -5   5   6    0.20    0.06
  -5   5   6    0.17    0.09
  -5   5   6    0.26    0.07
   4  -5  -6    0.09    0.09
   4  -5  -6    0.02    0.05
  -4   5   6   -0.01    0.04
  -4   5   6    0.03    0.05
  -4   5   6    0.08    0.09
   3  -5  -6   14.34    0.49
   3  -5  -6   14.49    0.42
  -3   5   6   13.85    0.41
  -3   5   6   13.89    0.48
  -3   5   6   13.55    0.39
   2  -5  -6    0.03    0.06
   2  -5  -6    0.07    0.05
   2  -5  -6   -0.02    0.09
  -2   5   6   -0.02    0.09
  -2   5   6    0.03    0.04
   1  -5  -6    0.61    0.11
   1  -5  -6    0.78    0.10
  -1   5   6    0.66    0.11
  -1   5   6    0.82    0.08
   0  -5  -6    1.30    0.12
   0  -5  -6    1.24    0.14
   0   5   6    1.20    0.14
   0   5   6    1.32    0.13
  -1  -5  -6    0.30    0.09
   1   5   6    0.38    0.09
   1   5   6    0.22    0.09
  -2  -5  -6   -0.08    0.09
   2   5   6   -0.03    0.08
   2   5   6   -0.02    0.08
  11  -6  -6    0.13    0.09
 -11   6   6    0.11    0.11
  10  -6  -6    0.46    0.11
 -10   6   6    0.46    0.11
   9  -6  -6   -0.06    0.08
   9  -6  -6   -0.08    0.05
   9  -6  -6    0.02    0.08
  -9   6   6    0.12    0.09
  -9   6   6   -0.10    0.08
   8  -6  -6    0.13    0.09
   8  -6  -6   -0.12    0.07
   8  -6  -6   -0.07    0.04
  -8   6   6    0.02    0.08
  -8   6   6   -0.06    0.09
   7  -6  -6    3.85    0.14
   7  -6  -6    3.43    0.23
   7  -6  -6    3.53    0.15
   7  -6  -6    3.38    0.20
  -7   6   6    3.33    0.23
  -7   6   6    3.44    0.19
   6  -6  -6    5.42    0.22
   6  -6  -6    4.99    0.16
   6  -6  -6    5.09    0.19
   6  -6  -6    5.01    0.27
  -6   6   6    5.46    0.27
  -6   6   6    5.21    0.22
   5  -6  -6    3.26    0.16
   5  -6  -6    3.41    0.16
   5  -6  -6    3.04    0.20
  -5   6   6    3.05    0.16
  -5   6   6    3.34    0.22
   4  -6  -6    0.24    0.09
   4  -6  -6    0.17    0.07
   4  -6  -6    0.21    0.05
  -4   6   6    0.23    0.09
  -4   6   6    0.22    0.06
   3  -6  -6    5.35    0.27
   3  -6  -6    5.08    0.22
  -3   6   6    5.10    0.20
  -3   6   6    5.09    0.27
   2  -6  -6    3.67    0.23
   2  -6  -6    3.66    0.19
  -2   6   6    3.50    0.23
  -2   6   6    3.07    0.14
   1  -6  -6    0.78    0.11
   1  -6  -6    0.66    0.13
  -1   6   6    0.71    0.10
  -1   6   6    0.53    0.12
   0  -6  -6    0.95    0.12
   0   6   6    0.88    0.12
   0   6   6    0.80    0.13
  -1  -6  -6    0.67    0.12
   1   6   6    0.90    0.12
   1   6   6    0.88    0.13
  10  -7  -6    1.59    0.16
  10  -7  -6    1.94    0.19
 -10   7   6    1.87    0.17
   9  -7  -6   -0.07    0.09
   9  -7  -6   -0.07    0.08
  -9   7   6   -0.03    0.08
  -9   7   6   -0.09    0.09
   8  -7  -6    0.38    0.06
   8  -7  -6    0.33    0.09
   8  -7  -6    0.33    0.11
  -8   7   6    0.36    0.10
  -8   7   6    0.39    0.12
   7  -7  -6    4.50    0.22
   7  -7  -6    4.07    0.18
   7  -7  -6    4.41    0.26
  -7   7   6    4.29    0.21
  -7   7   6    4.25    0.26
   6  -7  -6    0.59    0.09
   6  -7  -6    0.55    0.12
   6  -7  -6    0.61    0.08
  -6   7   6    0.52    0.08
  -6   7   6    0.75    0.13
   5  -7  -6    0.28    0.07
   5  -7  -6    0.34    0.11
   5  -7  -6    0.29    0.07
  -5   7   6    0.18    0.11
  -5   7   6    0.28    0.07
   4  -7  -6    0.17    0.07
   4  -7  -6    0.17    0.10
  -4   7   6    0.23    0.06
  -4   7   6    0.17    0.11
   3  -7  -6    1.34    0.15
   3  -7  -6    1.16    0.12
  -3   7   6    1.25    0.15
   2  -7  -6    0.01    0.08
   2  -7  -6   -0.07    0.10
  -2   7   6   -0.14    0.10
   1  -7  -6    3.87    0.23
  -1   7   6    3.65    0.22
  -1   7   6    3.67    0.26
   9  -8  -6    0.03    0.09
   9  -8  -6    0.03    0.10
  -9   8   6   -0.06    0.10
  -9   8   6    0.09    0.09
   8  -8  -6    0.18    0.11
   8  -8  -6    0.11    0.08
   8  -8  -6    0.06    0.05
  -8   8   6    0.01    0.12
  -8   8   6    0.19    0.09
   7  -8  -6    0.06    0.11
   7  -8  -6    0.11    0.08
   7  -8  -6   -0.03    0.05
  -7   8   6    0.12    0.12
  -7   8   6    0.01    0.07
   6  -8  -6    0.20    0.07
   6  -8  -6    0.15    0.11
  -6   8   6    0.19    0.07
  -6   8   6    0.32    0.12
   5  -8  -6    0.20    0.12
   5  -8  -6    0.12    0.08
  -5   8   6    0.16    0.12
  -5   8   6    0.16    0.06
   4  -8  -6    0.51    0.13
   4  -8  -6    0.41    0.09
  -4   8   6    0.33    0.13
   3  -8  -6    0.29    0.12
   3  -8  -6    0.30    0.09
  -3   8   6    0.42    0.15
  -1  12  -7   -0.06    0.08
  -1  12  -7    0.08    0.07
   1 -12   7   -0.06    0.07
   1 -12   7    0.07    0.09
  -2  12  -7    0.15    0.09
  -2  12  -7    0.03    0.07
   2 -12   7    0.01    0.09
   2 -12   7    0.01    0.08
  -3  12  -7    0.90    0.13
  -3  12  -7    0.83    0.11
   3 -12   7    0.71    0.12
   3 -12   7    0.63    0.12
  -4  12  -7    1.12    0.12
  -4  12  -7    1.14    0.14
   4 -12   7    0.85    0.13
   4 -12   7    1.23    0.14
  -5  12  -7    0.32    0.10
  -5  12  -7    0.40    0.10
   5 -12   7    0.26    0.10
   5 -12   7    0.49    0.11
  -6  12  -7    0.49    0.11
   6 -12   7    0.50    0.11
   6 -12   7    0.66    0.12
  -7  12  -7    0.07    0.08
  -7  12  -7    0.08    0.08
   7 -12   7   -0.04    0.08
   7 -12   7   -0.06    0.09
   1  11  -7    3.83    0.20
   1  11  -7    3.85    0.24
  -1 -11   7    3.90    0.23
   0  11  -7    0.13    0.08
   0  11  -7    0.18    0.07
   0  11  -7    0.03    0.06
   0 -11   7    0.05    0.08
   0 -11   7    0.17    0.08
  -1  11  -7    0.36    0.10
  -1  11  -7    0.22    0.06
  -1  11  -7    0.31    0.08
   1 -11   7    0.33    0.09
   1 -11   7    0.33    0.09
  -2  11  -7    0.96    0.11
  -2  11  -7    0.95    0.08
  -2  11  -7    1.16    0.13
   2 -11   7    1.00    0.12
   2 -11   7    1.54    0.16
  -3  11  -7    0.59    0.09
  -3  11  -7    0.60    0.11
   3 -11   7    0.61    0.11
   3 -11   7    0.64    0.11
  -4  11  -7    1.22    0.12
  -4  11  -7    1.06    0.13
   4 -11   7    1.46    0.14
   4 -11   7    1.17    0.13
  -5  11  -7    0.35    0.09
  -5  11  -7    0.26    0.09
   5 -11   7    0.39    0.10
   5 -11   7    0.35    0.09
  -6  11  -7    0.05    0.07
  -6  11  -7   -0.05    0.07
   6 -11   7   -0.02    0.08
   6 -11   7    0.13    0.08
  -7  11  -7    0.05    0.07
  -7  11  -7   -0.09    0.07
   7 -11   7    0.02    0.07
   7 -11   7   -0.13    0.08
  -8  11  -7    0.02    0.08
   8 -11   7   -0.06    0.07
   8 -11   7   -0.11    0.09
   2  10  -7    4.61    0.21
   2  10  -7    3.93    0.24
  -2 -10   7    4.70    0.24
  -2 -10   7    4.33    0.21
  -2 -10   7    4.06    0.21
   1  10  -7    2.88    0.16
   1  10  -7    2.76    0.15
   1  10  -7    2.90    0.19
  -1 -10   7    3.09    0.19
  -1 -10   7    2.60    0.16
  -1 -10   7    2.78    0.19
   0  10  -7    0.06    0.05
   0  10  -7    0.04    0.07
   0  10  -7    0.05    0.06
   0 -10   7    0.08    0.07
   0 -10   7    0.12    0.08
  -1  10  -7    0.52    0.10
  -1  10  -7    0.53    0.08
   1 -10   7    0.65    0.11
   1 -10   7    0.78    0.10
  -2  10  -7    1.18    0.13
  -2  10  -7    1.35    0.12
   2 -10   7    1.07    0.11
   2 -10   7    1.05    0.12
  -3  10  -7    1.36    0.13
  -3  10  -7    1.23    0.13
   3 -10   7    1.00    0.12
   3 -10   7    1.25    0.13
  -4  10  -7    0.04    0.07
  -4  10  -7   -0.01    0.06
   4 -10   7   -0.04    0.07
   4 -10   7    0.09    0.07
  -5  10  -7    6.45    0.26
  -5  10  -7    6.57    0.29
   5 -10   7    6.70    0.29
   5 -10   7    6.32    0.29
  -6  10  -7    0.07    0.07
  -6  10  -7   -0.05    0.06
   6 -10   7   -0.04    0.08
   6 -10   7    0.03    0.07
  -7  10  -7    0.52    0.10
  -7  10  -7    0.32    0.09
   7 -10   7    0.26    0.10
   7 -10   7    0.51    0.10
  -8  10  -7    0.79    0.11
   8 -10   7    0.72    0.11
   8 -10   7    0.62    0.12
   8 -10   7    0.69    0.09
  -9  10  -7    0.02    0.08
   9 -10   7    0.06    0.08
   9 -10   7   -0.03    0.09
   4   9  -7    1.55    0.15
   4   9  -7    1.30    0.13
  -4  -9   7    1.66    0.15
  -4  -9   7    1.58    0.14
   3   9  -7    1.28    0.13
   3   9  -7    1.10    0.12
  -3  -9   7    1.34    0.12
  -3  -9   7    1.24    0.12
   2   9  -7    1.74    0.13
   2   9  -7    1.53    0.14
  -2  -9   7    1.61    0.13
  -2  -9   7    1.63    0.15
  -2  -9   7    1.60    0.14
   1   9  -7    0.73    0.10
   1   9  -7    1.04    0.10
   1   9  -7    0.86    0.09
  -1  -9   7    0.92    0.11
  -1  -9   7    0.93    0.09
  -1  -9   7    0.83    0.10
   0   9  -7    5.89    0.26
   0   9  -7    5.89    0.22
   0  -9   7    6.17    0.21
   0  -9   7    6.01    0.26
   0  -9   7    6.26    0.25
  -1   9  -7    3.20    0.19
  -1   9  -7    3.01    0.15
   1  -9   7    3.04    0.18
   1  -9   7    3.14    0.18
  -2   9  -7    4.88    0.23
  -2   9  -7    4.71    0.20
   2  -9   7    4.88    0.22
   2  -9   7    4.87    0.23
  -3   9  -7    0.90    0.10
  -3   9  -7    0.93    0.11
   3  -9   7    1.01    0.11
   3  -9   7    0.97    0.11
  -4   9  -7    4.47    0.23
  -4   9  -7    4.68    0.21
   4  -9   7    4.62    0.23
   4  -9   7    4.33    0.22
  -5   9  -7    1.95    0.15
  -5   9  -7    1.90    0.15
   5  -9   7    2.10    0.15
   5  -9   7    1.91    0.16
  -6   9  -7    1.32    0.13
  -6   9  -7    1.53    0.14
   6  -9   7    1.40    0.13
   6  -9   7    1.11    0.13
  -7   9  -7    4.10    0.21
  -7   9  -7    4.21    0.21
   7  -9   7    3.95    0.23
   7  -9   7    4.14    0.19
   7  -9   7    3.97    0.21
  -8   9  -7   -0.08    0.07
   8  -9   7   -0.03    0.05
   8  -9   7    0.00    0.09
   8  -9   7    0.01    0.07
  -9   9  -7    0.10    0.09
   9  -9   7    0.01    0.10
   9  -9   7    0.02    0.08
   5   8  -7    9.08    0.34
   5   8  -7    9.30    0.34
  -5  -8   7    8.76    0.33
  -5  -8   7    9.06    0.34
   4   8  -7   -0.01    0.07
   4   8  -7    0.12    0.07
  -4  -8   7    0.07    0.07
  -4  -8   7    0.11    0.07
  -4  -8   7    0.17    0.08
   3   8  -7    7.73    0.28
   3   8  -7    7.82    0.31
  -3  -8   7    7.73    0.28
  -3  -8   7    8.01    0.27
  -3  -8   7    7.99    0.31
   2   8  -7    4.54    0.22
   2   8  -7    4.33    0.19
   2   8  -7    4.21    0.17
  -2  -8   7    4.14    0.21
  -2  -8   7    4.20    0.19
   1   8  -7    2.10    0.12
   1   8  -7    2.22    0.16
   1   8  -7    2.16    0.13
  -1  -8   7    2.26    0.15
  -1  -8   7    2.26    0.12
   0   8  -7    7.04    0.28
   0   8  -7    7.47    0.24
   0  -8   7    7.39    0.27
   0  -8   7    6.91    0.28
   0  -8   7    7.39    0.23
  -1   8  -7    5.47    0.24
  -1   8  -7    5.46    0.21
   1  -8   7    5.51    0.24
   1  -8   7    5.98    0.18
   1  -8   7    5.60    0.23
  -2   8  -7   14.47    0.47
  -2   8  -7   14.31    0.42
   2  -8   7   14.03    0.45
   2  -8   7   14.25    0.47
  -3   8  -7   12.94    0.43
  -3   8  -7   12.45    0.39
   3  -8   7   12.77    0.43
   3  -8   7   12.16    0.41
  -4   8  -7    7.20    0.27
  -4   8  -7    7.60    0.30
   4  -8   7    7.92    0.30
   4  -8   7    7.49    0.29
  -5   8  -7    1.37    0.12
  -5   8  -7    1.19    0.12
   5  -8   7    1.06    0.12
   5  -8   7    1.35    0.13
   5  -8   7    1.27    0.13
  -6   8  -7    4.41    0.21
  -6   8  -7    4.73    0.21
   6  -8   7    4.32    0.21
   6  -8   7    4.23    0.23
   6  -8   7    4.21    0.19
  -7   8  -7    0.94    0.11
  -7   8  -7    0.90    0.11
   7  -8   7    0.92    0.09
   7  -8   7    0.91    0.12
   7  -8   7    0.87    0.10
  -8   8  -7    0.30    0.09
   8  -8   7    0.24    0.06
   8  -8   7    0.17    0.08
   8  -8   7    0.24    0.09
  -9   8  -7    0.01    0.08
   9  -8   7    0.08    0.09
   9  -8   7    0.10    0.08
   6   7  -7    0.58    0.11
   6   7  -7    0.69    0.10
  -6  -7   7    0.69    0.10
  -6  -7   7    0.56    0.11
   5   7  -7    0.91    0.10
   5   7  -7    1.00    0.11
  -5  -7   7    1.02    0.10
  -5  -7   7    1.02    0.09
  -5  -7   7    0.72    0.10
   4   7  -7   12.73    0.43
   4   7  -7   12.81    0.41
  -4  -7   7   13.19    0.43
  -4  -7   7   12.95    0.40
  -4  -7   7   12.97    0.38
  -4  -7   7   12.94    0.41
   3   7  -7    3.73    0.17
   3   7  -7    3.96    0.19
   3   7  -7    3.53    0.18
   3   7  -7    3.95    0.20
   3   7  -7    3.59    0.14
  -3  -7   7    3.92    0.19
  -3  -7   7    3.77    0.19
  -3  -7   7    3.57    0.18
   2   7  -7   28.18    0.72
   2   7  -7   27.93    0.82
   2   7  -7   29.02    0.74
   2   7  -7   27.39    0.82
   2   7  -7   28.20    0.77
  -2  -7   7   28.27    0.82
  -2  -7   7   28.12    0.70
  -2  -7   7   28.13    0.73
  -2  -7   7   27.86    0.73
   1   7  -7    1.69    0.14
   1   7  -7    1.69    0.10
   1   7  -7    1.54    0.13
  -1  -7   7    1.81    0.14
  -1  -7   7    1.79    0.11
  -1  -7   7    1.62    0.10
  -1  -7   7    1.77    0.07
   0   7  -7    0.94    0.08
   0   7  -7    0.83    0.10
   0  -7   7    1.42    0.12
   0  -7   7    0.97    0.11
   0  -7   7    0.93    0.08
  -1   7  -7    3.93    0.18
  -1   7  -7    3.60    0.16
   1  -7   7    3.71    0.13
   1  -7   7    3.66    0.18
   1  -7   7    3.97    0.18
  -2   7  -7    0.00    0.05
  -2   7  -7    0.01    0.06
   2  -7   7    0.02    0.06
   2  -7   7    0.02    0.05
  -3   7  -7    0.26    0.07
  -3   7  -7    0.45    0.08
   3  -7   7    0.52    0.08
   3  -7   7    0.33    0.07
   3  -7   7    0.49    0.08
  -4   7  -7    0.22    0.07
  -4   7  -7    0.30    0.07
   4  -7   7    0.27    0.07
   4  -7   7    0.23    0.07
   4  -7   7    0.29    0.06
   4  -7   7    0.07    0.06
  -5   7  -7    2.94    0.18
  -5   7  -7    3.34    0.17
   5  -7   7    3.13    0.18
   5  -7   7    3.37    0.17
   5  -7   7    3.10    0.18
   5  -7   7    3.31    0.16
  -6   7  -7    4.30    0.21
  -6   7  -7    4.54    0.22
   6  -7   7    4.74    0.23
   6  -7   7    4.58    0.19
   6  -7   7    4.19    0.21
  -7   7  -7   -0.01    0.07
   7  -7   7    0.00    0.07
   7  -7   7   -0.06    0.06
   7  -7   7    0.04    0.05
  -8   7  -7    3.73    0.21
   8  -7   7    4.04    0.20
   8  -7   7    4.31    0.23
  -9   7  -7    1.16    0.13
   9  -7   7    1.24    0.13
   9  -7   7    1.04    0.13
   7   6  -7    7.17    0.28
   7   6  -7    7.52    0.32
  -7  -6   7    7.41    0.31
   6   6  -7    1.40    0.13
   6   6  -7    1.36    0.13
  -6  -6   7    1.53    0.13
  -6  -6   7    1.35    0.13
   5   6  -7    0.18    0.07
   5   6  -7    0.25    0.07
  -5  -6   7    0.23    0.07
  -5  -6   7    0.19    0.06
  -5  -6   7    0.30    0.08
  -5  -6   7    0.15    0.05
   4   6  -7   16.24    0.46
   4   6  -7   16.46    0.49
   4   6  -7   16.13    0.52
   4   6  -7   16.61    0.52
  -4  -6   7   16.65    0.48
  -4  -6   7   16.99    0.52
  -4  -6   7   17.00    0.47
  -4  -6   7   16.23    0.49
  -4  -6   7   16.97    0.48
   3   6  -7    0.44    0.07
   3   6  -7    0.47    0.05
   3   6  -7    0.53    0.06
   3   6  -7    0.51    0.07
   3   6  -7    0.34    0.07
  -3  -6   7    0.29    0.07
  -3  -6   7    0.39    0.07
  -3  -6   7    0.38    0.06
  -3  -6   7    0.45    0.05
   2   6  -7   25.20    0.73
   2   6  -7   25.56    0.69
   2   6  -7   24.22    0.73
   2   6  -7   24.95    0.65
   2   6  -7   24.53    0.64
  -2  -6   7   24.70    0.73
  -2  -6   7   24.84    0.68
   1   6  -7   65.19    1.62
   1   6  -7   65.33    1.64
   1   6  -7   66.50    1.78
   1   6  -7   66.80    1.78
  -1  -6   7   64.30    1.78
  -1  -6   7   65.12    1.65
   0   6  -7    5.25    0.22
   0   6  -7    5.79    0.23
   0   6  -7    5.65    0.19
   0   6  -7    5.20    0.19
   0  -6   7    5.25    0.22
   0  -6   7    5.76    0.21
  -1   6  -7    2.07    0.13
  -1   6  -7    2.02    0.11
   1  -6   7    2.23    0.13
   1  -6   7    2.12    0.07
   1  -6   7    2.32    0.08
   1  -6   7    1.98    0.12
   1  -6   7    2.13    0.13
  -2   6  -7   14.85    0.47
  -2   6  -7   15.54    0.43
   2  -6   7   15.17    0.48
   2  -6   7   15.25    0.38
   2  -6   7   14.42    0.43
   2  -6   7   15.50    0.47
   2  -6   7   14.81    0.45
  -3   6  -7    4.42    0.19
  -3   6  -7    4.73    0.20
   3  -6   7    4.69    0.19
   3  -6   7    4.79    0.20
   3  -6   7    4.48    0.19
   3  -6   7    4.90    0.21
   3  -6   7    4.68    0.15
  -4   6  -7    1.10    0.10
  -4   6  -7    1.08    0.10
   4  -6   7    1.33    0.08
   4  -6   7    1.25    0.10
   4  -6   7    1.00    0.10
   4  -6   7    0.86    0.09
   4  -6   7    1.04    0.10
  -5   6  -7    1.23    0.12
  -5   6  -7    1.20    0.12
   5  -6   7    1.24    0.11
   5  -6   7    1.25    0.12
   5  -6   7    1.28    0.11
   5  -6   7    1.23    0.11
  -6   6  -7    2.24    0.14
  -6   6  -7    1.92    0.16
   6  -6   7    2.07    0.14
   6  -6   7    1.96    0.12
   6  -6   7    2.27    0.15
  -7   6  -7    0.77    0.11
   7  -6   7    0.82    0.10
   7  -6   7    0.85    0.08
   7  -6   7    0.76    0.10
  -8   6  -7    0.33    0.10
   8  -6   7    0.33    0.09
   8  -6   7    0.25    0.08
  -9   6  -7   -0.17    0.07
   9  -6   7   -0.16    0.07
   9  -6   7    0.00    0.05
   8   5  -7    0.48    0.11
   8   5  -7    0.66    0.09
  -8  -5   7    0.62    0.11
   7   5  -7    0.15    0.08
   7   5  -7    0.29    0.07
  -7  -5   7    0.23    0.07
  -7  -5   7    0.27    0.07
  -7  -5   7    0.14    0.08
   6   5  -7    0.06    0.07
   6   5  -7    0.03    0.06
  -6  -5   7   -0.01    0.05
  -6  -5   7    0.11    0.06
   5   5  -7    0.02    0.06
   5   5  -7    0.10    0.06
  -5  -5   7   -0.02    0.05
  -5  -5   7    0.15    0.06
  -5  -5   7    0.09    0.06
   4   5  -7    0.44    0.04
   4   5  -7    0.53    0.07
   4   5  -7    0.39    0.07
   4   5  -7    0.38    0.07
   4   5  -7    0.47    0.05
  -4  -5   7    0.45    0.07
  -4  -5   7    0.46    0.08
  -4  -5   7    0.35    0.06
   3   5  -7   20.14    0.54
   3   5  -7   20.36    0.52
   3   5  -7   20.94    0.61
   3   5  -7   20.84    0.61
  -3  -5   7   19.68    0.61
  -3  -5   7   20.92    0.57
  -3  -5   7   20.67    0.57
   2   5  -7   52.96    1.47
   2   5  -7   55.08    1.34
   2   5  -7   53.83    1.32
   2   5  -7   53.29    1.39
   2   5  -7   53.53    1.46
  -2  -5   7   51.77    1.47
  -2  -5   7   54.62    1.39
  -2  -5   7   54.04    1.36
   1   5  -7   17.29    0.54
   1   5  -7   17.92    0.50
   1   5  -7   17.76    0.47
   1   5  -7   18.47    0.54
   1   5  -7   18.08    0.48
  -1  -5   7   17.68    0.50
  -1  -5   7   17.27    0.54
   0   5  -7    7.85    0.24
   0   5  -7    7.90    0.27
   0   5  -7    7.72    0.24
   0   5  -7    7.56    0.28
   0  -5   7    7.84    0.28
   0  -5   7    8.14    0.26
   0  -5   7    7.90    0.28
  -1   5  -7    1.78    0.13
  -1   5  -7    1.84    0.11
  -1   5  -7    1.88    0.13
   1  -5   7    1.84    0.11
   1  -5   7    1.92    0.13
   1  -5   7    2.39    0.12
   1  -5   7    1.93    0.12
  -2   5  -7   30.00    0.80
  -2   5  -7   30.75    0.87
   2  -5   7   30.87    0.87
   2  -5   7   30.69    0.83
   2  -5   7   30.56    0.80
   2  -5   7   30.08    0.76
   2  -5   7   31.70    0.87
  -3   5  -7    9.57    0.31
  -3   5  -7    9.35    0.33
   3  -5   7    9.60    0.33
   3  -5   7    9.35    0.33
   3  -5   7   10.35    0.28
   3  -5   7    9.45    0.30
   3  -5   7    9.37    0.31
  -4   5  -7   29.58    0.85
  -4   5  -7   30.12    0.80
   4  -5   7   30.10    0.85
   4  -5   7   29.84    0.78
   4  -5   7   29.29    0.85
   4  -5   7   30.05    0.82
   4  -5   7   29.52    0.76
  -5   5  -7   25.15    0.73
  -5   5  -7   25.28    0.70
   5  -5   7   24.84    0.66
   5  -5   7   25.06    0.73
   5  -5   7   26.18    0.71
   5  -5   7   24.23    0.73
   5  -5   7   24.54    0.67
  -6   5  -7    1.29    0.12
  -6   5  -7    1.18    0.12
   6  -5   7    1.30    0.12
   6  -5   7    1.22    0.10
   6  -5   7    1.20    0.10
  -7   5  -7    0.05    0.07
   7  -5   7    0.05    0.07
   7  -5   7   -0.02    0.05
   7  -5   7    0.06    0.07
  -8   5  -7    0.15    0.08
   8  -5   7    0.10    0.07
   8  -5   7    0.14    0.06
   8   4  -7    2.75    0.20
   8   4  -7    2.85    0.15
  -8  -4   7    3.03    0.17
   7   4  -7    6.46    0.25
   7   4  -7    6.98    0.28
  -7  -4   7    6.83    0.25
  -7  -4   7    6.18    0.24
   6   4  -7    5.81    0.24
   6   4  -7    5.95    0.24
  -6  -4   7    5.96    0.23
  -6  -4   7    5.97    0.22
  -6  -4   7    6.19    0.24
   5   4  -7    9.84    0.33
   5   4  -7    9.58    0.32
   5   4  -7    9.80    0.27
  -5  -4   7    9.55    0.31
  -5  -4   7    9.39    0.33
  -5  -4   7   10.11    0.31
   4   4  -7    1.74    0.13
   4   4  -7    1.76    0.12
   4   4  -7    1.74    0.12
   4   4  -7    1.71    0.06
   4   4  -7    1.60    0.08
  -4  -4   7    1.74    0.12
  -4  -4   7    1.75    0.13
  -4  -4   7    1.38    0.11
   3   4  -7   35.03    0.91
   3   4  -7   37.16    0.90
   3   4  -7   37.22    1.01
   3   4  -7   36.01    1.02
  -3  -4   7   36.09    0.94
  -3  -4   7   35.46    0.96
  -3  -4   7   35.98    1.01
   2   4  -7   16.23    0.51
   2   4  -7   17.21    0.45
   2   4  -7   17.14    0.48
   2   4  -7   17.00    0.52
   2   4  -7   17.18    0.45
  -2  -4   7   16.95    0.48
  -2  -4   7   17.00    0.48
  -2  -4   7   16.85    0.52
   1   4  -7    0.84    0.06
   1   4  -7    0.87    0.09
   1   4  -7    0.95    0.07
   1   4  -7    0.84    0.08
   1   4  -7    0.86    0.08
  -1  -4   7    0.83    0.09
  -1  -4   7    0.86    0.08
  -1  -4   7    0.88    0.09
  -1  -4   7    1.06    0.09
   0   4  -7   12.71    0.37
   0   4  -7   13.44    0.39
   0   4  -7   13.20    0.42
   0   4  -7   13.62    0.41
   0  -4   7   12.68    0.38
   0  -4   7   12.79    0.42
   0  -4   7   13.65    0.41
  -1   4  -7    7.58    0.25
  -1   4  -7    7.64    0.27
  -1   4  -7    7.76    0.28
   1  -4   7    7.67    0.25
   1  -4   7    7.51    0.25
   1  -4   7    7.99    0.27
   1  -4   7    7.85    0.28
  -2   4  -7    7.35    0.25
  -2   4  -7    7.64    0.27
   2  -4   7    7.55    0.24
   2  -4   7    7.34    0.27
   2  -4   7    7.32    0.23
   2  -4   7    7.97    0.27
   2  -4   7    7.54    0.25
  -3   4  -7    3.75    0.17
  -3   4  -7    3.24    0.18
   3  -4   7    3.74    0.17
   3  -4   7    3.63    0.18
   3  -4   7    3.67    0.17
   3  -4   7    3.39    0.16
   3  -4   7    3.54    0.15
  -4   4  -7   16.72    0.52
  -4   4  -7   16.47    0.50
   4  -4   7   17.93    0.49
   4  -4   7   16.78    0.52
   4  -4   7   17.21    0.48
   4  -4   7   17.10    0.52
   4  -4   7   17.08    0.47
  -5   4  -7    0.12    0.06
  -5   4  -7   -0.01    0.07
   5  -4   7   -0.03    0.05
   5  -4   7    0.05    0.05
   5  -4   7    0.02    0.05
   5  -4   7    0.11    0.07
   5  -4   7    0.08    0.05
  -6   4  -7    0.70    0.10
   6  -4   7    0.79    0.09
   6  -4   7    0.66    0.08
   6  -4   7    0.75    0.07
   6  -4   7    0.78    0.09
  -7   4  -7    0.88    0.11
   7  -4   7    0.92    0.09
   7  -4   7    0.85    0.09
  -8   4  -7   -0.01    0.07
   8  -4   7    0.00    0.06
   9   3  -7    0.01    0.05
   9   3  -7    0.08    0.08
  -9  -3   7   -0.03    0.07
   8   3  -7   10.03    0.34
   8   3  -7   10.28    0.37
  -8  -3   7   10.58    0.35
  -8  -3   7   10.55    0.34
   7   3  -7   -0.01    0.06
   7   3  -7    0.10    0.06
  -7  -3   7   -0.05    0.05
  -7  -3   7   -0.07    0.06
   6   3  -7    0.33    0.07
   6   3  -7    0.04    0.06
   6   3  -7    0.36    0.07
  -6  -3   7    0.32    0.06
  -6  -3   7    0.23    0.07
  -6  -3   7    0.30    0.07
   5   3  -7   27.91    0.69
   5   3  -7   27.74    0.80
   5   3  -7   28.41    0.79
   5   3  -7   27.54    0.74
  -5  -3   7   27.67    0.74
  -5  -3   7   28.13    0.76
  -5  -3   7   27.52    0.80
   4   3  -7    0.44    0.07
   4   3  -7    0.50    0.04
   4   3  -7    0.43    0.08
   4   3  -7    0.47    0.04
  -4  -3   7    0.20    0.07
  -4  -3   7    0.54    0.08
  -4  -3   7    0.46    0.07
   3   3  -7   33.71    0.82
   3   3  -7   33.35    0.93
   3   3  -7   31.96    0.93
   3   3  -7   33.26    0.83
  -3  -3   7   33.50    0.88
  -3  -3   7   33.21    0.86
  -3  -3   7   32.56    0.93
   2   3  -7   12.92    0.39
   2   3  -7   12.55    0.34
   2   3  -7   12.72    0.34
   2   3  -7   12.26    0.37
   2   3  -7   12.42    0.40
  -2  -3   7   12.27    0.39
  -2  -3   7   12.24    0.37
  -2  -3   7   12.49    0.40
  -2  -3   7   12.75    0.37
   1   3  -7   13.34    0.36
   1   3  -7   12.77    0.40
   1   3  -7   12.97    0.41
   1   3  -7   13.06    0.38
  -1  -3   7   12.79    0.38
  -1  -3   7   12.89    0.41
  -1  -3   7   13.06    0.38
  -1  -3   7   12.98    0.41
   0   3  -7    0.31    0.07
   0   3  -7    0.25    0.05
   0   3  -7    0.29    0.06
   0   3  -7    0.23    0.05
   0  -3   7    0.20    0.06
   0  -3   7    0.28    0.06
   0  -3   7    0.28    0.07
   0  -3   7    0.19    0.05
  -1   3  -7   13.68    0.42
  -1   3  -7   13.19    0.42
   1  -3   7   13.02    0.38
   1  -3   7   13.45    0.42
   1  -3   7   13.58    0.39
   1  -3   7   13.41    0.42
  -2   3  -7   53.11    1.44
   2  -3   7   52.27    1.32
   2  -3   7   54.59    1.43
   2  -3   7   51.70    1.43
   2  -3   7   52.74    1.36
   2  -3   7   50.75    1.30
  -3   3  -7   71.66    1.78
  -3   3  -7   72.01    1.92
   3  -3   7   72.77    1.83
   3  -3   7   72.99    1.91
   3  -3   7   69.14    1.75
   3  -3   7   70.48    1.77
   3  -3   7   71.10    1.92
   3  -3   7   69.52    1.69
  -4   3  -7   10.89    0.36
  -4   3  -7   11.26    0.37
   4  -3   7   11.79    0.34
   4  -3   7   11.47    0.38
   4  -3   7   10.43    0.34
   4  -3   7   10.80    0.34
   4  -3   7   11.85    0.37
  -5   3  -7    2.97    0.16
  -5   3  -7    3.13    0.17
   5  -3   7    3.03    0.16
   5  -3   7    2.95    0.16
   5  -3   7    2.90    0.14
   5  -3   7    2.90    0.14
  -6   3  -7    2.21    0.17
   6  -3   7    2.09    0.12
   6  -3   7    2.20    0.15
   6  -3   7    2.19    0.15
   6  -3   7    2.12    0.12
  -7   3  -7    0.40    0.09
   7  -3   7    0.37    0.08
   7  -3   7    0.35    0.07
  -8   3  -7    0.05    0.10
  -8   3  -7    0.12    0.09
   9   2  -7    0.15    0.06
   9   2  -7    0.11    0.08
  -9  -2   7    0.19    0.08
   8   2  -7    0.72    0.10
   8   2  -7    0.76    0.09
  -8  -2   7    0.85    0.09
  -8  -2   7    0.75    0.09
   7   2  -7    4.68    0.20
   7   2  -7    4.94    0.22
  -7  -2   7    4.73    0.20
  -7  -2   7    4.76    0.20
  -7  -2   7    4.73    0.20
   6   2  -7    4.98    0.20
   6   2  -7    4.91    0.21
   6   2  -7    4.84    0.20
  -6  -2   7    4.76    0.20
  -6  -2   7    5.06    0.21
  -6  -2   7    4.50    0.20
   5   2  -7    0.43    0.07
   5   2  -7    0.49    0.07
   5   2  -7    0.45    0.03
   5   2  -7    0.31    0.06
  -5  -2   7    0.48    0.07
  -5  -2   7    0.40    0.07
  -5  -2   7    0.17    0.06
   4   2  -7   58.75    1.60
   4   2  -7   59.37    1.45
   4   2  -7   59.04    1.61
   4   2  -7   60.42    1.44
  -4  -2   7   59.52    1.53
  -4  -2   7   59.84    1.49
  -4  -2   7   58.31    1.61
   3   2  -7   60.29    1.48
   3   2  -7   58.15    1.63
   3   2  -7   63.80    1.62
  -3  -2   7   60.13    1.51
  -3  -2   7   59.62    1.54
  -3  -2   7   58.48    1.63
   2   2  -7   41.42    1.17
   2   2  -7   42.57    1.11
   2   2  -7   43.94    1.09
   2   2  -7   44.01    1.18
  -2  -2   7   42.06    1.17
  -2  -2   7   42.33    1.11
  -2  -2   7   41.97    1.09
  -2  -2   7   42.52    1.18
   1   2  -7   18.12    0.53
   1   2  -7   17.84    0.48
   1   2  -7   17.48    0.53
   1   2  -7   17.24    0.49
  -1  -2   7   18.27    0.53
  -1  -2   7   17.22    0.50
  -1  -2   7   17.86    0.53
  -1  -2   7   16.91    0.49
   0   2  -7    9.83    0.31
   0   2  -7   10.47    0.33
   0   2  -7   10.34    0.30
   0   2  -7    9.67    0.34
   0  -2   7   10.14    0.33
   0  -2   7    9.79    0.31
   0  -2   7   10.25    0.34
   0  -2   7    9.88    0.31
  -1   2  -7    0.33    0.07
  -1   2  -7    0.35    0.05
   1  -2   7    0.30    0.04
   1  -2   7    0.33    0.07
   1  -2   7    0.32    0.06
  -2   2  -7   17.39    0.52
  -2   2  -7   17.24    0.47
   2  -2   7   17.20    0.52
   2  -2   7   17.14    0.46
   2  -2   7   17.05    0.48
   2  -2   7   16.79    0.47
   2  -2   7   16.54    0.44
   2  -2   7   16.91    0.51
  -3   2  -7    1.23    0.09
  -3   2  -7    0.82    0.09
   3  -2   7    0.80    0.10
   3  -2   7    0.73    0.06
   3  -2   7    0.92    0.09
   3  -2   7    0.89    0.07
   3  -2   7    0.58    0.08
   3  -2   7    0.67    0.08
  -4   2  -7    1.20    0.12
   4  -2   7    0.87    0.09
   4  -2   7    0.99    0.07
   4  -2   7    0.88    0.09
   4  -2   7    0.74    0.08
   4  -2   7    0.92    0.10
   5  -2   7    4.34    0.17
   5  -2   7    4.56    0.15
   5  -2   7    4.27    0.20
   5  -2   7    4.42    0.20
  -6   2  -7    2.19    0.16
  -6   2  -7    2.62    0.19
   6  -2   7    2.24    0.16
   6  -2   7    2.31    0.15
  -7   2  -7    0.15    0.08
  -7   2  -7    0.08    0.09
   7  -2   7    0.27    0.08
   7  -2   7    0.14    0.06
  10   1  -7    1.76    0.16
  10   1  -7    1.68    0.11
 -10  -1   7    1.83    0.17
   9   1  -7    0.21    0.07
   9   1  -7    0.16    0.08
  -9  -1   7    0.08    0.06
  -9  -1   7    0.06    0.08
   8   1  -7    1.67    0.14
   8   1  -7    1.96    0.13
  -8  -1   7    1.67    0.14
  -8  -1   7    1.97    0.13
   7   1  -7    8.83    0.30
   7   1  -7    8.85    0.31
   7   1  -7    9.03    0.30
  -7  -1   7    8.74    0.30
  -7  -1   7    8.78    0.31
  -7  -1   7    8.69    0.30
   6   1  -7    4.14    0.18
   6   1  -7    4.20    0.19
   6   1  -7    4.20    0.18
  -6  -1   7    3.98    0.18
  -6  -1   7    4.25    0.19
  -6  -1   7    4.01    0.18
   5   1  -7    0.00    0.05
   5   1  -7    0.02    0.06
  -5  -1   7    0.01    0.05
  -5  -1   7   -0.10    0.05
  -5  -1   7   -0.01    0.05
   4   1  -7   13.42    0.34
   4   1  -7   14.06    0.42
   4   1  -7   13.33    0.34
   4   1  -7   13.16    0.43
  -4  -1   7   13.43    0.40
  -4  -1   7   13.27    0.43
  -4  -1   7   14.28    0.42
  -4  -1   7   12.94    0.40
   3   1  -7    0.23    0.03
   3   1  -7    0.32    0.07
   3   1  -7    0.24    0.06
  -3  -1   7    0.25    0.07
  -3  -1   7    0.24    0.06
  -3  -1   7    0.15    0.06
  -3  -1   7    0.20    0.06
   2   1  -7   60.20    1.50
   2   1  -7   58.23    1.56
   2   1  -7   57.76    1.57
  -2  -1   7   56.38    1.57
  -2  -1   7   56.54    1.45
  -2  -1   7   57.41    1.49
  -2  -1   7   58.05    1.57
   1   1  -7   13.89    0.45
   1   1  -7   14.22    0.41
   1   1  -7   14.04    0.43
   1   1  -7   14.76    0.42
  -1  -1   7   14.00    0.45
  -1  -1   7   13.81    0.44
  -1  -1   7   14.26    0.41
  -1  -1   7   14.26    0.41
   0   1  -7    4.85    0.21
   0   1  -7    4.96    0.19
   0   1  -7    5.44    0.19
   0  -1   7    4.80    0.19
   0  -1   7    4.64    0.21
   0  -1   7    4.97    0.15
   0  -1   7    4.90    0.19
   0  -1   7    5.19    0.20
  -1   1  -7    0.85    0.08
  -1   1  -7    0.79    0.09
   1  -1   7    0.83    0.09
   1  -1   7    0.72    0.08
   1  -1   7    0.79    0.09
   1  -1   7    0.79    0.05
  -2   1  -7    4.59    0.20
  -2   1  -7    4.25    0.19
  -2   1  -7    4.14    0.17
   2  -1   7    3.54    0.18
   2  -1   7    4.37    0.20
   2  -1   7    4.47    0.13
   2  -1   7    4.19    0.15
   2  -1   7    4.30    0.18
   2  -1   7    4.40    0.19
  -3   1  -7    5.39    0.19
  -3   1  -7    5.31    0.22
  -3   1  -7    5.44    0.23
   3  -1   7    5.55    0.22
   3  -1   7    5.33    0.22
   3  -1   7    5.15    0.18
   3  -1   7    5.31    0.21
   3  -1   7    5.50    0.22
  -4   1  -7    1.09    0.09
  -4   1  -7    1.09    0.11
  -4   1  -7    0.93    0.11
   4  -1   7    1.29    0.11
   4  -1   7    1.11    0.11
   4  -1   7    1.16    0.11
  -5   1  -7    0.16    0.09
   5  -1   7    0.20    0.07
   5  -1   7    0.20    0.08
  -6   1  -7    1.25    0.14
   6  -1   7    1.33    0.13
   6  -1   7    1.52    0.13
  -7   1  -7    1.69    0.17
  10   0  -7    0.84    0.09
  10   0  -7    0.83    0.11
 -10   0   7    1.00    0.12
   9   0  -7    1.49    0.12
   9   0  -7    1.83    0.16
  -9   0   7    1.81    0.15
  -9   0   7    1.47    0.13
   8   0  -7    0.12    0.07
   8   0  -7    0.18    0.07
  -8   0   7    0.18    0.07
  -8   0   7    0.15    0.07
  -8   0   7    0.05    0.07
   7   0  -7    2.21    0.14
   7   0  -7    2.23    0.13
   7   0  -7    2.09    0.13
  -7   0   7    1.97    0.14
  -7   0   7    1.98    0.14
  -7   0   7    2.39    0.15
   6   0  -7    0.09    0.06
   6   0  -7    0.13    0.03
   6   0  -7    0.02    0.06
   6   0  -7    0.03    0.05
  -6   0   7   -0.01    0.06
  -6   0   7    0.00    0.06
  -6   0   7    0.09    0.06
   5   0  -7    0.02    0.05
   5   0  -7    0.01    0.06
  -5   0   7   -0.06    0.05
  -5   0   7   -0.09    0.05
  -5   0   7   -0.06    0.05
   4   0  -7    3.65    0.18
   4   0  -7    3.51    0.17
   4   0  -7    3.30    0.10
  -4   0   7    3.83    0.18
  -4   0   7    3.25    0.16
  -4   0   7    3.27    0.16
  -4   0   7    3.32    0.15
   3   0  -7    3.16    0.11
   3   0  -7    3.02    0.17
   3   0  -7    3.47    0.16
  -3   0   7    3.20    0.17
  -3   0   7    3.01    0.15
  -3   0   7    3.35    0.14
  -3   0   7    2.97    0.14
   2   0  -7   20.11    0.53
   2   0  -7   20.58    0.59
   2   0  -7   19.00    0.59
  -2   0   7   19.59    0.55
  -2   0   7   19.59    0.60
  -2   0   7   19.44    0.54
  -2   0   7   20.10    0.55
  -2   0   7   19.90    0.59
   1   0  -7   10.14    0.31
   1   0  -7    9.33    0.29
   1   0  -7    9.42    0.33
  -1   0   7    9.47    0.27
  -1   0   7    9.75    0.30
  -1   0   7    9.01    0.30
  -1   0   7    9.78    0.34
  -1   0   7    9.88    0.33
   0   0  -7    0.10    0.05
   0   0  -7    0.13    0.06
   0   0   7    0.21    0.06
   0   0   7    0.18    0.05
   0   0   7    0.07    0.06
   0   0   7    0.13    0.02
   0   0   7    0.09    0.02
   0   0   7    0.17    0.06
  -1   0  -7   -0.02    0.06
  -1   0  -7    0.10    0.07
   1   0   7    0.16    0.06
   1   0   7    0.12    0.07
   1   0   7   -0.01    0.06
  -2   0  -7    4.54    0.20
  -2   0  -7    3.73    0.19
   2   0   7    4.18    0.18
   2   0   7    3.86    0.18
   2   0   7    4.10    0.20
   2   0   7    4.13    0.19
  -3   0  -7    0.78    0.10
  -3   0  -7    0.81    0.10
   3   0   7    0.87    0.09
   3   0   7    0.65    0.08
   3   0   7    0.77    0.09
   3   0   7    0.84    0.10
  -4   0  -7    8.58    0.33
   4   0   7    8.23    0.31
   4   0   7    8.94    0.32
  -5   0  -7    0.67    0.11
   5   0   7    0.69    0.09
   5   0   7    0.63    0.10
  -6   0  -7    0.36    0.11
   6   0   7    0.48    0.08
   6   0   7    0.45    0.10
  11  -1  -7    0.37    0.10
  11  -1  -7    0.22    0.06
 -11   1   7    0.35    0.10
  10  -1  -7    0.49    0.08
  10  -1  -7    0.51    0.09
 -10   1   7    0.35    0.10
 -10   1   7    0.55    0.09
   9  -1  -7    0.66    0.09
   9  -1  -7    0.74    0.10
  -9   1   7    0.78    0.09
  -9   1   7    0.68    0.10
   8  -1  -7    4.63    0.21
   8  -1  -7    4.90    0.21
  -8   1   7    5.23    0.22
  -8   1   7    4.71    0.22
  -8   1   7    4.94    0.21
   7  -1  -7    0.45    0.07
   7  -1  -7    0.51    0.08
   7  -1  -7    0.49    0.05
   7  -1  -7    0.44    0.08
  -7   1   7    0.23    0.08
  -7   1   7    0.39    0.08
  -7   1   7    0.53    0.09
   6  -1  -7   10.18    0.33
   6  -1  -7    9.52    0.34
   6  -1  -7    9.25    0.27
   6  -1  -7    9.64    0.30
  -6   1   7    9.61    0.34
  -6   1   7    9.85    0.33
  -6   1   7    9.74    0.32
   5  -1  -7   11.65    0.37
   5  -1  -7   10.60    0.28
   5  -1  -7   10.55    0.37
  -5   1   7   10.72    0.35
  -5   1   7   10.48    0.37
  -5   1   7   11.22    0.35
   4  -1  -7    0.44    0.08
   4  -1  -7    0.40    0.04
   4  -1  -7    0.32    0.08
  -4   1   7    0.36    0.06
  -4   1   7    0.18    0.07
  -4   1   7    0.42    0.08
  -4   1   7    0.43    0.06
   3  -1  -7    4.49    0.16
   3  -1  -7    4.78    0.21
   3  -1  -7    4.76    0.20
  -3   1   7    4.52    0.17
  -3   1   7    4.58    0.18
  -3   1   7    4.74    0.21
  -3   1   7    4.25    0.19
   2  -1  -7    3.07    0.13
   2  -1  -7    2.91    0.17
  -2   1   7    3.24    0.17
  -2   1   7    3.03    0.16
  -2   1   7    3.02    0.12
  -2   1   7    3.36    0.14
  -2   1   7    3.05    0.18
   1  -1  -7    0.08    0.05
   1  -1  -7    0.12    0.07
  -1   1   7    0.04    0.04
  -1   1   7    0.02    0.06
  -1   1   7    0.07    0.02
  -1   1   7    0.10    0.06
  -1   1   7    0.00    0.06
   0  -1  -7    3.47    0.18
   0  -1  -7    3.41    0.16
   0   1   7    3.55    0.15
   0   1   7    3.28    0.18
   0   1   7    3.27    0.17
   0   1   7    3.70    0.18
  -1  -1  -7    2.06    0.15
  -1  -1  -7    1.80    0.13
   1   1   7    1.61    0.14
   1   1   7    1.75    0.15
   1   1   7    1.93    0.14
  -2  -1  -7    1.93    0.14
  -2  -1  -7    2.09    0.15
   2   1   7    1.73    0.14
   2   1   7    1.79    0.13
   2   1   7    2.16    0.15
  -3  -1  -7    0.16    0.08
  -3  -1  -7    0.19    0.09
   3   1   7    0.12    0.07
   3   1   7    0.08    0.08
  -4  -1  -7    1.53    0.14
   4   1   7    1.77    0.16
   4   1   7    1.71    0.15
  -5  -1  -7   -0.02    0.09
   5   1   7   -0.06    0.07
   5   1   7   -0.03    0.07
  11  -2  -7   -0.09    0.06
  11  -2  -7   -0.01    0.08
 -11   2   7   -0.06    0.09
  10  -2  -7   -0.01    0.07
  10  -2  -7    0.03    0.07
 -10   2   7    0.02    0.06
 -10   2   7   -0.12    0.08
   9  -2  -7    0.18    0.07
   9  -2  -7    0.09    0.07
  -9   2   7    0.13    0.08
  -9   2   7    0.24    0.08
   8  -2  -7    0.81    0.10
   8  -2  -7    0.82    0.09
  -8   2   7    0.73    0.10
  -8   2   7    0.72    0.09
  -8   2   7    0.85    0.10
   7  -2  -7    0.77    0.07
   7  -2  -7    0.70    0.10
   7  -2  -7    0.87    0.10
   7  -2  -7    0.78    0.08
  -7   2   7    0.72    0.09
  -7   2   7    0.71    0.09
  -7   2   7    0.80    0.10
   6  -2  -7    3.53    0.15
   6  -2  -7    3.88    0.19
   6  -2  -7    3.64    0.14
   6  -2  -7    3.71    0.20
  -6   2   7    3.40    0.17
  -6   2   7    3.80    0.19
  -6   2   7    3.62    0.19
   5  -2  -7   14.27    0.47
   5  -2  -7   14.16    0.40
   5  -2  -7   14.06    0.46
   5  -2  -7   14.11    0.37
  -5   2   7   14.76    0.43
  -5   2   7   14.34    0.44
  -5   2   7   14.14    0.44
  -5   2   7   13.99    0.47
   4  -2  -7    4.62    0.15
   4  -2  -7    4.42    0.21
  -4   2   7    4.53    0.20
  -4   2   7    4.67    0.19
  -4   2   7    4.45    0.18
  -4   2   7    4.51    0.21
   3  -2  -7    3.97    0.15
   3  -2  -7    3.84    0.20
  -3   2   7    3.83    0.15
  -3   2   7    3.88    0.17
  -3   2   7    3.81    0.19
  -3   2   7    4.00    0.21
   2  -2  -7    8.65    0.32
   2  -2  -7    8.34    0.27
  -2   2   7    8.35    0.30
  -2   2   7    8.63    0.32
  -2   2   7    8.27    0.24
  -2   2   7    8.69    0.28
   1  -2  -7    2.18    0.13
   1  -2  -7    2.31    0.16
  -1   2   7    2.33    0.12
  -1   2   7    2.52    0.17
  -1   2   7    2.39    0.15
  -1   2   7    2.04    0.16
   0  -2  -7   -0.03    0.06
   0  -2  -7   -0.02    0.07
   0   2   7    0.01    0.07
   0   2   7   -0.14    0.06
   0   2   7   -0.02    0.06
  -1  -2  -7    7.37    0.28
  -1  -2  -7    7.57    0.31
   1   2   7    7.59    0.28
   1   2   7    7.53    0.29
   1   2   7    7.88    0.31
  -2  -2  -7   15.18    0.48
  -2  -2  -7   15.58    0.51
   2   2   7   15.80    0.51
   2   2   7   15.35    0.47
  -3  -2  -7    2.15    0.19
   3   2   7    1.89    0.16
   3   2   7    1.63    0.15
  -4  -2  -7    2.18    0.19
   4   2   7    2.31    0.18
   4   2   7    2.23    0.17
  11  -3  -7    0.39    0.08
  11  -3  -7    0.49    0.10
 -11   3   7    0.43    0.11
  10  -3  -7    1.10    0.12
  10  -3  -7    0.98    0.11
 -10   3   7    1.12    0.13
   9  -3  -7    0.10    0.07
   9  -3  -7    0.16    0.08
  -9   3   7    0.02    0.08
   8  -3  -7    2.25    0.16
   8  -3  -7    2.28    0.14
  -8   3   7    2.16    0.16
  -8   3   7    2.42    0.16
  -8   3   7    2.41    0.16
   7  -3  -7   -0.05    0.07
   7  -3  -7    0.01    0.05
   7  -3  -7   -0.03    0.07
   7  -3  -7    0.04    0.04
  -7   3   7   -0.01    0.07
  -7   3   7   -0.10    0.06
  -7   3   7    0.07    0.07
   6  -3  -7    2.38    0.17
   6  -3  -7    2.44    0.09
  -6   3   7    2.72    0.17
  -6   3   7    2.29    0.18
  -6   3   7    2.14    0.15
   5  -3  -7    0.45    0.10
   5  -3  -7    0.62    0.05
  -5   3   7    0.42    0.08
  -5   3   7    0.66    0.10
  -5   3   7    0.56    0.07
  -5   3   7    0.41    0.10
   4  -3  -7    4.39    0.16
   4  -3  -7    4.20    0.23
  -4   3   7    4.45    0.23
  -4   3   7    4.58    0.19
  -4   3   7    4.37    0.21
  -4   3   7    4.34    0.17
   3  -3  -7    5.57    0.20
   3  -3  -7    5.67    0.26
  -3   3   7    5.50    0.24
  -3   3   7    5.39    0.18
  -3   3   7    5.65    0.21
  -3   3   7    5.59    0.26
   2  -3  -7    0.50    0.07
   2  -3  -7    0.57    0.10
  -2   3   7    0.73    0.07
  -2   3   7    0.73    0.04
  -2   3   7    0.50    0.10
   1  -3  -7    0.58    0.10
   1  -3  -7    0.68    0.09
  -1   3   7    0.69    0.07
  -1   3   7    0.51    0.10
   0  -3  -7    0.15    0.09
   0  -3  -7    0.04    0.07
   0   3   7    0.06    0.08
  -1  -3  -7    0.18    0.08
  -1  -3  -7    0.10    0.09
   1   3   7    0.06    0.09
   1   3   7    0.12    0.08
  -2  -3  -7    2.18    0.18
   2   3   7    2.27    0.17
   2   3   7    2.43    0.19
  -3  -3  -7    0.40    0.11
   3   3   7    0.35    0.10
   3   3   7    0.52    0.11
  11  -4  -7   -0.06    0.07
  11  -4  -7   -0.01    0.08
 -11   4   7   -0.12    0.09
  10  -4  -7   -0.02    0.08
  10  -4  -7   -0.07    0.06
 -10   4   7    0.05    0.08
   9  -4  -7    4.84    0.24
   9  -4  -7    4.93    0.21
  -9   4   7    4.58    0.23
  -9   4   7    4.38    0.25
   8  -4  -7    1.86    0.12
   8  -4  -7    1.45    0.14
  -8   4   7    1.73    0.17
  -8   4   7    1.35    0.13
   7  -4  -7    3.18    0.14
   7  -4  -7    3.03    0.11
   7  -4  -7    3.11    0.20
  -7   4   7    3.04    0.18
  -7   4   7    3.09    0.20
   6  -4  -7    3.82    0.14
   6  -4  -7    4.13    0.15
   6  -4  -7    4.03    0.23
  -6   4   7    3.92    0.19
  -6   4   7    3.95    0.23
   5  -4  -7    0.21    0.10
   5  -4  -7    0.13    0.05
  -5   4   7    0.15    0.10
  -5   4   7    0.14    0.07
  -5   4   7    0.13    0.06
   4  -4  -7    0.79    0.08
   4  -4  -7    0.79    0.12
  -4   4   7    0.63    0.08
  -4   4   7    0.74    0.07
  -4   4   7    0.85    0.13
   3  -4  -7    2.44    0.20
   3  -4  -7    2.89    0.15
  -3   4   7    2.75    0.20
  -3   4   7    2.91    0.15
   2  -4  -7   -0.07    0.06
   2  -4  -7   -0.07    0.08
  -2   4   7   -0.03    0.08
  -2   4   7    0.04    0.05
   1  -4  -7    0.06    0.07
   1  -4  -7    0.11    0.09
  -1   4   7    0.16    0.05
  -1   4   7    0.13    0.09
   0  -4  -7    1.42    0.15
   0  -4  -7    1.47    0.14
   0   4   7    1.47    0.15
   0   4   7    1.87    0.15
  -1  -4  -7   -0.05    0.08
   1   4   7    0.08    0.09
   1   4   7    0.12    0.08
  -2  -4  -7    0.15    0.09
   2   4   7    0.20    0.10
   2   4   7    0.14    0.09
  11  -5  -7    0.32    0.10
 -11   5   7    0.11    0.11
  10  -5  -7    0.02    0.06
  10  -5  -7   -0.01    0.08
 -10   5   7    0.05    0.09
   9  -5  -7    0.13    0.06
   9  -5  -7    0.06    0.09
  -9   5   7   -0.02    0.08
  -9   5   7    0.18    0.09
   8  -5  -7    0.14    0.10
   8  -5  -7    0.13    0.05
  -8   5   7    0.16    0.10
  -8   5   7    0.16    0.08
   7  -5  -7    0.03    0.03
   7  -5  -7    0.05    0.04
   7  -5  -7   -0.21    0.09
  -7   5   7   -0.06    0.10
  -7   5   7    0.15    0.08
   6  -5  -7    0.40    0.05
   6  -5  -7    0.22    0.11
   6  -5  -7    0.26    0.05
  -6   5   7    0.13    0.11
  -6   5   7    0.24    0.07
   5  -5  -7    0.50    0.12
   5  -5  -7    0.61    0.08
  -5   5   7    0.46    0.08
  -5   5   7    0.42    0.11
   4  -5  -7    0.64    0.12
   4  -5  -7    0.44    0.08
  -4   5   7    0.34    0.11
  -4   5   7    0.45    0.08
   3  -5  -7    1.36    0.16
   3  -5  -7    1.75    0.14
  -3   5   7    1.87    0.19
  -3   5   7    1.79    0.12
   2  -5  -7    0.06    0.10
   2  -5  -7    0.07    0.07
  -2   5   7    0.01    0.10
  -2   5   7    0.06    0.05
   1  -5  -7    0.50    0.09
   1  -5  -7    0.58    0.12
  -1   5   7    0.25    0.11
   0  -5  -7    1.51    0.16
   0  -5  -7    1.45    0.14
   0   5   7    1.45    0.14
   0   5   7    1.58    0.16
  -1  -5  -7   -0.01    0.09
   1   5   7    0.01    0.08
   1   5   7   -0.01    0.09
  10  -6  -7    0.00    0.10
 -10   6   7    0.01    0.09
   9  -6  -7    0.06    0.10
  -9   6   7    0.06    0.08
  -9   6   7    0.00    0.10
   8  -6  -7    0.36    0.11
  -8   6   7    0.11    0.10
  -8   6   7    0.42    0.09
   7  -6  -7    0.76    0.14
   7  -6  -7    1.07    0.09
  -7   6   7    0.67    0.14
  -7   6   7    0.92    0.11
   6  -6  -7    1.71    0.12
   6  -6  -7    2.03    0.20
  -6   6   7    1.76    0.15
  -6   6   7    1.89    0.19
   5  -6  -7    0.60    0.08
  -5   6   7    0.44    0.08
  -5   6   7    0.44    0.11
   4  -6  -7    0.39    0.08
   4  -6  -7    0.53    0.12
  -4   6   7    0.47    0.12
  -4   6   7    0.46    0.07
   3  -6  -7    0.50    0.09
   3  -6  -7    0.50    0.12
  -3   6   7    0.36    0.06
  -3   6   7    0.34    0.12
   2  -6  -7    0.10    0.08
   2  -6  -7   -0.05    0.10
  -2   6   7    0.17    0.11
   1  -6  -7    0.10    0.12
   1  -6  -7    0.33    0.10
  -1   6   7    0.15    0.08
  -1   6   7    0.05    0.12
   9  -7  -7    0.80    0.14
  -9   7   7    0.79    0.12
  -9   7   7    0.81    0.14
   8  -7  -7   -0.06    0.10
  -8   7   7   -0.01    0.08
  -8   7   7    0.11    0.11
   7  -7  -7    0.27    0.12
   7  -7  -7    0.19    0.06
  -7   7   7    0.29    0.08
  -7   7   7    0.27    0.12
   6  -7  -7    0.05    0.10
   6  -7  -7    0.07    0.06
  -6   7   7    0.07    0.11
  -6   7   7    0.00    0.06
   5  -7  -7    2.21    0.15
   5  -7  -7    1.77    0.18
  -5   7   7    2.08    0.21
  -5   7   7    2.12    0.14
   4  -7  -7    0.20    0.11
   4  -7  -7    0.12    0.08
  -4   7   7    0.04    0.11
  -4   7   7    0.12    0.06
   3  -7  -7   -0.05    0.10
   3  -7  -7   -0.13    0.07
  -3   7   7   -0.08    0.10
   7  -8  -7    0.02    0.13
   6  -8  -7    0.15    0.12
   1 -12   8    0.16    0.09
  -2  12  -8    0.00    0.07
  -2  12  -8    0.03    0.08
   2 -12   8   -0.01    0.08
   2 -12   8    0.05    0.08
  -3  12  -8    0.52    0.10
  -3  12  -8    0.47    0.11
   3 -12   8    0.52    0.11
   3 -12   8    0.36    0.11
  -4  12  -8    1.08    0.13
  -4  12  -8    0.99    0.14
   4 -12   8    1.05    0.14
   4 -12   8    1.12    0.14
  -5  12  -8    0.06    0.08
  -5  12  -8   -0.04    0.09
   5 -12   8   -0.02    0.08
   5 -12   8    0.00    0.09
  -6  12  -8    0.43    0.11
  -6  12  -8    0.40    0.10
   6 -12   8    0.35    0.11
   6 -12   8    0.48    0.12
   1  11  -8    4.55    0.21
  -1 -11   8    4.70    0.25
   0  11  -8    0.10    0.06
   0  11  -8    0.15    0.07
   0  11  -8    0.22    0.09
   0 -11   8    0.33    0.09
   0 -11   8    0.27    0.09
  -1  11  -8    0.35    0.10
  -1  11  -8    0.23    0.06
  -1  11  -8    0.33    0.08
   1 -11   8    0.35    0.09
   1 -11   8    0.29    0.09
  -2  11  -8    1.90    0.17
  -2  11  -8    1.97    0.14
   2 -11   8    2.05    0.17
   2 -11   8    1.70    0.17
  -3  11  -8    1.57    0.16
  -3  11  -8    1.91    0.15
   3 -11   8    1.62    0.16
   3 -11   8    1.52    0.15
  -4  11  -8   -0.07    0.07
  -4  11  -8   -0.08    0.07
   4 -11   8    0.05    0.08
   4 -11   8    0.03    0.08
  -5  11  -8    0.65    0.11
  -5  11  -8    0.69    0.10
   5 -11   8    0.61    0.11
   5 -11   8    0.68    0.11
  -6  11  -8    0.41    0.10
  -6  11  -8    0.28    0.09
   6 -11   8    0.42    0.10
   6 -11   8    0.41    0.11
  -7  11  -8    0.18    0.09
   7 -11   8    0.06    0.09
   7 -11   8    0.08    0.08
   2  10  -8    1.57    0.14
   2  10  -8    1.36    0.15
  -2 -10   8    1.31    0.13
  -2 -10   8    1.27    0.13
   1  10  -8    0.09    0.08
   1  10  -8   -0.03    0.05
   1  10  -8    0.00    0.06
  -1 -10   8    0.08    0.06
  -1 -10   8    0.06    0.07
  -1 -10   8    0.02    0.07
   0  10  -8    0.19    0.06
   0  10  -8    0.10    0.08
   0  10  -8    0.22    0.07
   0 -10   8    0.18    0.08
   0 -10   8    0.14    0.07
   0 -10   8    0.10    0.06
  -1  10  -8    1.63    0.16
  -1  10  -8    1.89    0.13
   1 -10   8    1.84    0.16
   1 -10   8    1.95    0.15
  -2  10  -8   -0.04    0.06
  -2  10  -8    0.00    0.07
   2 -10   8    0.02    0.07
   2 -10   8   -0.02    0.07
  -3  10  -8    2.42    0.15
  -3  10  -8    2.30    0.17
   3 -10   8    2.03    0.17
   3 -10   8    2.38    0.17
  -4  10  -8    4.86    0.22
  -4  10  -8    5.18    0.25
   4 -10   8    4.90    0.24
   4 -10   8    4.92    0.25
  -5  10  -8    0.42    0.09
  -5  10  -8    0.55    0.10
   5 -10   8    0.51    0.10
   5 -10   8    0.44    0.10
  -6  10  -8    1.34    0.14
  -6  10  -8    1.30    0.13
   6 -10   8    1.57    0.15
   6 -10   8    1.43    0.14
  -7  10  -8    0.84    0.11
   7 -10   8    0.79    0.12
   7 -10   8    0.66    0.09
   7 -10   8    0.65    0.11
  -8  10  -8    0.16    0.09
   8 -10   8    0.22    0.07
   8 -10   8    0.19    0.09
   8 -10   8    0.08    0.10
   4   9  -8    0.92    0.11
   4   9  -8    0.96    0.12
  -4  -9   8    1.02    0.11
  -4  -9   8    0.76    0.11
   3   9  -8    3.92    0.21
   3   9  -8    3.48    0.21
  -3  -9   8    3.56    0.19
  -3  -9   8    3.63    0.22
   2   9  -8    0.85    0.08
   2   9  -8    0.55    0.10
   2   9  -8    0.66    0.09
  -2  -9   8    0.64    0.09
  -2  -9   8    0.61    0.10
   1   9  -8    0.23    0.06
   1   9  -8    0.16    0.07
   1   9  -8    0.22    0.06
  -1  -9   8    0.14    0.07
  -1  -9   8    0.24    0.08
  -1  -9   8    0.22    0.06
   0   9  -8    0.28    0.06
   0   9  -8    0.27    0.08
   0  -9   8    0.29    0.06
   0  -9   8    0.32    0.08
   0  -9   8    0.33    0.08
  -1   9  -8    2.96    0.15
  -1   9  -8    2.52    0.18
   1  -9   8    2.80    0.17
   1  -9   8    2.74    0.18
  -2   9  -8    0.21    0.06
  -2   9  -8    0.20    0.08
   2  -9   8    0.27    0.08
   2  -9   8    0.17    0.07
  -3   9  -8    0.66    0.09
  -3   9  -8    0.58    0.10
   3  -9   8    0.59    0.10
   3  -9   8    0.66    0.10
  -4   9  -8    0.37    0.09
  -4   9  -8    0.33    0.08
   4  -9   8    0.36    0.08
   4  -9   8    0.33    0.08
  -5   9  -8    0.88    0.11
  -5   9  -8    0.82    0.11
   5  -9   8    0.97    0.12
   5  -9   8    1.03    0.11
   5  -9   8    0.84    0.11
  -6   9  -8    2.06    0.17
  -6   9  -8    2.13    0.16
   6  -9   8    1.97    0.14
   6  -9   8    2.12    0.18
   6  -9   8    2.11    0.16
  -7   9  -8    0.15    0.08
   7  -9   8    0.18    0.08
   7  -9   8    0.01    0.08
   7  -9   8    0.10    0.06
  -8   9  -8    0.17    0.09
   8  -9   8    0.03    0.08
   8  -9   8   -0.05    0.09
   5   8  -8    0.08    0.07
   5   8  -8   -0.23    0.06
  -5  -8   8    0.03    0.07
  -5  -8   8   -0.02    0.07
   4   8  -8    4.11    0.22
   4   8  -8    4.19    0.22
  -4  -8   8    3.81    0.20
  -4  -8   8    4.06    0.22
   3   8  -8    0.33    0.08
   3   8  -8    0.41    0.05
   3   8  -8    0.40    0.09
  -3  -8   8    0.38    0.08
  -3  -8   8    0.32    0.08
  -3  -8   8    0.41    0.08
   2   8  -8    0.15    0.07
   2   8  -8    0.13    0.06
   2   8  -8    0.10    0.05
  -2  -8   8    0.15    0.07
  -2  -8   8    0.17    0.07
   1   8  -8    6.31    0.27
   1   8  -8    6.00    0.21
  -1  -8   8    6.14    0.21
  -1  -8   8    5.81    0.26
   0   8  -8    2.26    0.12
   0   8  -8    2.37    0.16
   0  -8   8    2.19    0.11
   0  -8   8    2.27    0.15
   0  -8   8    2.18    0.16
  -1   8  -8    0.16    0.07
  -1   8  -8    0.26    0.06
   1  -8   8    0.21    0.06
   1  -8   8    0.24    0.04
   1  -8   8    0.15    0.07
  -2   8  -8    5.34    0.22
  -2   8  -8    5.63    0.25
   2  -8   8    5.42    0.25
   2  -8   8    5.47    0.23
  -3   8  -8   11.55    0.37
  -3   8  -8   12.08    0.42
   3  -8   8   11.65    0.40
   3  -8   8   11.95    0.41
   3  -8   8   11.89    0.38
  -4   8  -8    5.37    0.24
  -4   8  -8    5.29    0.22
   4  -8   8    5.66    0.24
   4  -8   8    5.37    0.24
   4  -8   8    5.30    0.22
  -5   8  -8    0.42    0.09
  -5   8  -8    0.52    0.09
   5  -8   8    0.43    0.09
   5  -8   8    0.39    0.08
   5  -8   8    0.45    0.08
  -6   8  -8    0.21    0.08
  -6   8  -8    0.04    0.07
   6  -8   8    0.03    0.07
   6  -8   8    0.04    0.06
   6  -8   8    0.03    0.07
  -7   8  -8    1.72    0.16
   7  -8   8    1.94    0.13
   7  -8   8    1.74    0.15
   7  -8   8    1.72    0.15
  -8   8  -8    0.49    0.10
   8  -8   8    0.60    0.10
   8  -8   8    0.46    0.11
   6   7  -8    1.04    0.12
   6   7  -8    0.84    0.12
  -6  -7   8    1.01    0.12
  -6  -7   8    0.97    0.12
   5   7  -8    3.38    0.20
   5   7  -8    3.63    0.20
  -5  -7   8    3.64    0.19
  -5  -7   8    3.80    0.20
   4   7  -8   -0.06    0.06
   4   7  -8    0.04    0.07
  -4  -7   8    0.15    0.07
  -4  -7   8    0.09    0.07
  -4  -7   8   -0.07    0.06
   3   7  -8   12.46    0.39
   3   7  -8   12.89    0.43
   3   7  -8   13.45    0.46
   3   7  -8   12.49    0.35
  -3  -7   8   12.67    0.38
  -3  -7   8   12.77    0.43
  -3  -7   8   12.25    0.40
   2   7  -8    1.52    0.14
   2   7  -8    1.37    0.09
  -2  -7   8    1.76    0.15
  -2  -7   8    1.62    0.14
  -2  -7   8    1.54    0.11
  -2  -7   8    1.49    0.08
   1   7  -8    3.59    0.19
   1   7  -8    4.08    0.16
  -1  -7   8    3.93    0.15
  -1  -7   8    4.04    0.19
  -1  -7   8    3.71    0.20
   0   7  -8    6.16    0.26
   0   7  -8    6.10    0.21
   0  -7   8    5.58    0.23
   0  -7   8    6.07    0.19
   0  -7   8    5.63    0.23
   0  -7   8    6.07    0.25
  -1   7  -8    0.28    0.07
  -1   7  -8    0.39    0.07
   1  -7   8    0.38    0.07
   1  -7   8    0.59    0.04
   1  -7   8    0.38    0.08
   1  -7   8    0.50    0.05
   1  -7   8    0.37    0.07
  -2   7  -8   16.89    0.49
  -2   7  -8   17.37    0.55
   2  -7   8   17.02    0.51
   2  -7   8   17.15    0.50
   2  -7   8   16.47    0.54
   2  -7   8   17.01    0.42
  -3   7  -8    1.48    0.12
  -3   7  -8    1.82    0.14
   3  -7   8    1.66    0.14
   3  -7   8    1.72    0.08
   3  -7   8    1.65    0.13
   3  -7   8    1.58    0.13
  -4   7  -8    4.03    0.19
  -4   7  -8    3.91    0.20
   4  -7   8    3.82    0.18
   4  -7   8    3.82    0.19
   4  -7   8    4.08    0.20
  -5   7  -8    3.90    0.19
  -5   7  -8    3.73    0.20
   5  -7   8    3.60    0.18
   5  -7   8    3.71    0.20
   5  -7   8    3.89    0.20
   5  -7   8    3.95    0.20
  -6   7  -8    4.19    0.21
  -6   7  -8    4.18    0.21
   6  -7   8    4.28    0.21
   6  -7   8    4.17    0.18
   6  -7   8    4.07    0.21
  -7   7  -8    0.38    0.09
   7  -7   8    0.43    0.07
   7  -7   8    0.35    0.09
   7  -7   8    0.28    0.09
  -8   7  -8    1.63    0.16
   8  -7   8    1.56    0.15
   8  -7   8    1.95    0.18
   7   6  -8    4.40    0.21
   7   6  -8    4.65    0.25
  -7  -6   8    4.50    0.22
  -7  -6   8    4.21    0.24
   6   6  -8    0.25    0.07
   6   6  -8    0.21    0.08
  -6  -6   8    0.21    0.07
  -6  -6   8    0.10    0.07
  -6  -6   8    0.29    0.07
   5   6  -8    0.02    0.06
   5   6  -8    0.07    0.06
  -5  -6   8   -0.01    0.06
  -5  -6   8    0.05    0.05
   4   6  -8    8.51    0.24
   4   6  -8    8.91    0.33
   4   6  -8    8.51    0.30
  -4  -6   8    8.88    0.32
  -4  -6   8    8.31    0.31
  -4  -6   8    8.90    0.29
   3   6  -8    0.13    0.07
   3   6  -8    0.21    0.04
   3   6  -8    0.12    0.04
   3   6  -8    0.07    0.06
  -3  -6   8    0.08    0.06
  -3  -6   8    0.11    0.06
  -3  -6   8    0.13    0.07
   2   6  -8   14.37    0.40
   2   6  -8   14.75    0.40
   2   6  -8   14.49    0.47
   2   6  -8   15.41    0.48
  -2  -6   8   14.13    0.44
  -2  -6   8   14.03    0.47
   1   6  -8   28.85    0.75
   1   6  -8   28.88    0.74
   1   6  -8   28.97    0.84
  -1  -6   8   28.10    0.78
  -1  -6   8   28.95    0.84
   0   6  -8    1.18    0.10
   0   6  -8    1.51    0.12
   0  -6   8    1.43    0.12
   0  -6   8    1.26    0.11
  -1   6  -8    6.13    0.22
  -1   6  -8    6.20    0.25
   1  -6   8    6.29    0.23
   1  -6   8    5.96    0.23
   1  -6   8    6.04    0.25
  -2   6  -8    0.36    0.07
  -2   6  -8    0.29    0.07
   2  -6   8    0.40    0.04
   2  -6   8    0.38    0.08
   2  -6   8    0.30    0.06
   2  -6   8    0.36    0.06
  -3   6  -8    1.62    0.13
  -3   6  -8    1.59    0.13
   3  -6   8    1.52    0.12
   3  -6   8    1.72    0.13
   3  -6   8    1.60    0.09
   3  -6   8    1.68    0.12
   3  -6   8    1.56    0.13
  -4   6  -8    0.05    0.06
  -4   6  -8    0.08    0.07
   4  -6   8    0.08    0.05
   4  -6   8    0.04    0.06
   4  -6   8    0.13    0.04
   4  -6   8    0.02    0.05
   4  -6   8    0.10    0.07
  -5   6  -8    0.16    0.07
  -5   6  -8    0.24    0.08
   5  -6   8    0.20    0.05
   5  -6   8    0.19    0.06
   5  -6   8    0.19    0.06
   5  -6   8    0.25    0.08
   5  -6   8    0.22    0.07
  -6   6  -8    0.12    0.08
  -6   6  -8    0.06    0.07
   6  -6   8    0.09    0.07
   6  -6   8    0.04    0.07
   6  -6   8    0.13    0.06
  -7   6  -8    0.50    0.10
   7  -6   8    0.60    0.10
   7  -6   8    0.68    0.10
  -8   6  -8    0.36    0.10
   8  -6   8    0.40    0.09
   7   5  -8    3.77    0.22
   7   5  -8    3.63    0.19
  -7  -5   8    3.69    0.19
  -7  -5   8    3.55    0.19
   6   5  -8    2.84    0.17
   6   5  -8    2.60    0.17
  -6  -5   8    2.72    0.16
  -6  -5   8    2.75    0.15
   5   5  -8    0.41    0.08
   5   5  -8    0.43    0.08
  -5  -5   8    0.45    0.09
  -5  -5   8    0.31    0.08
  -5  -5   8    0.35    0.07
   4   5  -8   17.13    0.52
   4   5  -8   16.23    0.52
   4   5  -8   16.46    0.48
   4   5  -8   16.60    0.42
   4   5  -8   16.24    0.44
  -4  -5   8   17.10    0.49
  -4  -5   8   16.43    0.52
  -4  -5   8   16.37    0.49
   3   5  -8    2.14    0.15
   3   5  -8    2.34    0.10
   3   5  -8    2.61    0.10
   3   5  -8    2.36    0.15
  -3  -5   8    2.24    0.15
  -3  -5   8    2.41    0.14
  -3  -5   8    2.50    0.14
   2   5  -8    1.55    0.10
   2   5  -8    1.62    0.15
   2   5  -8    1.61    0.09
   2   5  -8    1.59    0.13
  -2  -5   8    1.34    0.13
  -2  -5   8    1.43    0.14
  -2  -5   8    1.71    0.15
   1   5  -8   15.39    0.43
   1   5  -8   15.96    0.43
   1   5  -8   15.89    0.50
  -1  -5   8   15.67    0.49
  -1  -5   8   15.12    0.46
   0   5  -8    2.10    0.10
   0   5  -8    2.05    0.12
   0   5  -8    2.19    0.14
   0  -5   8    2.17    0.13
   0  -5   8    2.30    0.14
  -1   5  -8    3.35    0.18
  -1   5  -8    3.53    0.15
   1  -5   8    3.47    0.15
   1  -5   8    3.53    0.18
   1  -5   8    3.36    0.16
  -2   5  -8    2.56    0.14
  -2   5  -8    2.59    0.15
   2  -5   8    2.75    0.15
   2  -5   8    2.50    0.13
   2  -5   8    2.70    0.15
   2  -5   8    2.74    0.14
   2  -5   8    2.77    0.11
  -3   5  -8    0.22    0.07
  -3   5  -8    0.18    0.07
   3  -5   8    0.23    0.07
   3  -5   8    0.14    0.07
   3  -5   8    0.26    0.05
   3  -5   8    0.14    0.06
   3  -5   8    0.38    0.06
  -4   5  -8   10.59    0.35
  -4   5  -8   10.19    0.37
   4  -5   8   10.55    0.32
   4  -5   8   10.79    0.34
   4  -5   8   10.24    0.37
   4  -5   8   10.83    0.34
   4  -5   8   10.28    0.36
  -5   5  -8    0.24    0.08
  -5   5  -8    0.13    0.07
   5  -5   8    0.23    0.07
   5  -5   8    0.05    0.05
   5  -5   8    0.11    0.05
   5  -5   8    0.04    0.07
  -6   5  -8    4.89    0.23
   6  -5   8    4.42    0.22
   6  -5   8    4.54    0.19
   6  -5   8    4.76    0.20
   6  -5   8    4.83    0.21
  -7   5  -8    1.39    0.14
   7  -5   8    1.42    0.14
   7  -5   8    1.62    0.14
  -8   5  -8    0.16    0.09
   8  -5   8    0.33    0.08
   8   4  -8    1.39    0.14
   8   4  -8    1.07    0.11
  -8  -4   8    1.17    0.11
  -8  -4   8    0.93    0.11
   7   4  -8   -0.03    0.07
   7   4  -8    0.08    0.06
  -7  -4   8    0.06    0.07
  -7  -4   8    0.02    0.06
   6   4  -8    2.96    0.18
   6   4  -8    3.01    0.17
  -6  -4   8    3.22    0.17
  -6  -4   8    3.32    0.18
  -6  -4   8    3.55    0.17
   5   4  -8    1.18    0.11
   5   4  -8    1.19    0.11
   5   4  -8    1.26    0.06
   5   4  -8    1.02    0.10
  -5  -4   8    1.11    0.10
  -5  -4   8    1.24    0.13
  -5  -4   8    0.96    0.09
   4   4  -8   16.21    0.43
   4   4  -8   16.62    0.52
   4   4  -8   16.74    0.42
   4   4  -8   16.84    0.53
  -4  -4   8   16.43    0.52
  -4  -4   8   16.59    0.49
  -4  -4   8   16.97    0.49
   3   4  -8   60.25    1.44
   3   4  -8   58.58    1.45
   3   4  -8   55.75    1.61
   3   4  -8   60.64    1.60
  -3  -4   8   56.89    1.61
  -3  -4   8   58.63    1.49
  -3  -4   8   59.71    1.52
   2   4  -8    3.63    0.18
   2   4  -8    3.55    0.19
   2   4  -8    3.74    0.15
   2   4  -8    3.89    0.13
  -2  -4   8    3.64    0.17
  -2  -4   8    4.10    0.19
  -2  -4   8    3.90    0.17
   1   4  -8    3.22    0.14
   1   4  -8    3.72    0.18
   1   4  -8    3.26    0.17
  -1  -4   8    3.17    0.17
  -1  -4   8    3.37    0.16
  -1  -4   8    3.14    0.15
   0   4  -8    7.64    0.25
   0   4  -8    8.11    0.29
   0  -4   8    7.65    0.29
   0  -4   8    7.50    0.26
  -1   4  -8    3.42    0.16
  -1   4  -8    3.42    0.18
   1  -4   8    3.40    0.16
   1  -4   8    3.15    0.14
   1  -4   8    3.34    0.17
   1  -4   8    3.13    0.16
  -2   4  -8    0.08    0.06
  -2   4  -8   -0.04    0.06
   2  -4   8    0.03    0.05
   2  -4   8    0.14    0.06
   2  -4   8   -0.07    0.04
   2  -4   8    0.00    0.06
   2  -4   8   -0.10    0.04
  -3   4  -8    1.05    0.11
  -3   4  -8    0.93    0.11
   3  -4   8    0.80    0.08
   3  -4   8    0.77    0.11
   3  -4   8    1.12    0.06
   3  -4   8    1.36    0.12
   3  -4   8    0.91    0.08
   3  -4   8    0.78    0.10
  -4   4  -8    0.67    0.10
  -4   4  -8    0.51    0.09
   4  -4   8    0.45    0.09
   4  -4   8    0.53    0.08
   4  -4   8    0.43    0.07
   4  -4   8    0.52    0.08
   4  -4   8    0.61    0.08
  -5   4  -8    0.34    0.08
  -5   4  -8    0.26    0.08
   5  -4   8    0.20    0.08
   5  -4   8    0.34    0.07
   5  -4   8    0.30    0.06
   5  -4   8    0.32    0.07
  -6   4  -8    0.00    0.07
   6  -4   8    0.06    0.07
   6  -4   8    0.03    0.06
   6  -4   8    0.11    0.07
   6  -4   8    0.04    0.06
  -7   4  -8   -0.15    0.07
   7  -4   8    0.00    0.07
   9   3  -8    1.27    0.14
   9   3  -8    1.24    0.11
  -9  -3   8    1.37    0.12
   8   3  -8    1.10    0.12
   8   3  -8    1.17    0.11
  -8  -3   8    1.05    0.11
  -8  -3   8    1.28    0.11
   7   3  -8    1.88    0.14
   7   3  -8    1.90    0.15
  -7  -3   8    2.17    0.15
  -7  -3   8    1.85    0.14
   6   3  -8    0.20    0.07
   6   3  -8    0.18    0.06
  -6  -3   8    0.21    0.07
  -6  -3   8    0.16    0.07
  -6  -3   8    0.34    0.08
   5   3  -8   16.26    0.51
   5   3  -8   15.67    0.46
   5   3  -8   15.86    0.40
   5   3  -8   16.25    0.50
  -5  -3   8   16.08    0.47
  -5  -3   8   16.12    0.47
  -5  -3   8   15.72    0.51
   4   3  -8   22.02    0.67
   4   3  -8   22.33    0.56
   4   3  -8   23.29    0.66
   4   3  -8   22.58    0.57
  -4  -3   8   22.30    0.63
  -4  -3   8   22.67    0.63
  -4  -3   8   21.49    0.67
   3   3  -8    0.16    0.07
   3   3  -8    0.08    0.04
   3   3  -8    0.04    0.06
   3   3  -8    0.13    0.03
  -3  -3   8    0.11    0.07
  -3  -3   8   -0.02    0.06
  -3  -3   8    0.14    0.06
   2   3  -8    0.02    0.06
   2   3  -8    0.01    0.04
   2   3  -8    0.00    0.05
  -2  -3   8    0.05    0.06
  -2  -3   8   -0.10    0.05
  -2  -3   8    0.15    0.07
   1   3  -8   22.19    0.58
   1   3  -8   20.96    0.65
  -1  -3   8   22.14    0.61
  -1  -3   8   21.62    0.65
  -1  -3   8   21.46    0.60
   0   3  -8   25.52    0.75
   0  -3   8   25.82    0.75
   0  -3   8   26.12    0.70
   0  -3   8   25.10    0.75
  -1   3  -8   -0.04    0.06
   1  -3   8    0.05    0.06
   1  -3   8    0.00    0.05
   1  -3   8   -0.08    0.03
   1  -3   8    0.04    0.05
  -2   3  -8   33.35    0.97
   2  -3   8   33.92    0.89
   2  -3   8   32.31    0.82
   2  -3   8   34.98    0.96
   2  -3   8   33.38    0.87
   2  -3   8   34.00    0.97
   2  -3   8   34.34    0.89
  -3   3  -8   50.25    1.43
   3  -3   8   51.94    1.42
   3  -3   8   53.50    1.34
   3  -3   8   50.90    1.43
   3  -3   8   51.20    1.30
   3  -3   8   52.94    1.31
   3  -3   8   49.85    1.24
  -4   3  -8    3.25    0.18
  -4   3  -8    3.20    0.18
   4  -3   8    3.20    0.17
   4  -3   8    3.17    0.18
   4  -3   8    2.98    0.16
   4  -3   8    2.81    0.16
   4  -3   8    2.95    0.13
  -5   3  -8    1.69    0.15
   5  -3   8    1.18    0.11
   5  -3   8    1.49    0.14
   5  -3   8    1.49    0.11
   5  -3   8    1.39    0.12
  -6   3  -8    0.40    0.10
   6  -3   8    0.39    0.09
   6  -3   8    0.44    0.09
  -7   3  -8   -0.06    0.08
  -7   3  -8    0.04    0.10
   7  -3   8   -0.02    0.06
   7  -3   8    0.00    0.07
   9   2  -8    1.69    0.14
   9   2  -8    1.63    0.15
  -9  -2   8    1.82    0.15
  -9  -2   8    1.66    0.16
   8   2  -8    0.10    0.07
   8   2  -8    0.20    0.07
  -8  -2   8    0.13    0.07
  -8  -2   8    0.11    0.08
   7   2  -8    9.85    0.34
   7   2  -8    9.84    0.35
  -7  -2   8   10.01    0.34
  -7  -2   8   10.47    0.36
  -7  -2   8    9.86    0.34
   6   2  -8    5.35    0.23
   6   2  -8    5.10    0.22
   6   2  -8    5.26    0.22
  -6  -2   8    5.23    0.22
  -6  -2   8    5.38    0.22
  -6  -2   8    5.46    0.23
   5   2  -8   39.54    0.99
   5   2  -8   40.25    1.12
   5   2  -8   40.18    1.14
  -5  -2   8   40.82    1.06
  -5  -2   8   40.42    1.08
  -5  -2   8   41.02    1.14
   4   2  -8    0.99    0.05
   4   2  -8    0.84    0.07
   4   2  -8    1.05    0.11
   4   2  -8    0.89    0.10
   4   2  -8    0.85    0.04
  -4  -2   8    0.99    0.11
  -4  -2   8    0.90    0.09
  -4  -2   8    0.73    0.10
   3   2  -8   42.69    1.19
   3   2  -8   42.60    1.20
  -3  -2   8   43.21    1.20
  -3  -2   8   43.18    1.11
  -3  -2   8   42.53    1.13
   2   2  -8    3.39    0.17
   2   2  -8    3.09    0.17
  -2  -2   8    3.05    0.15
  -2  -2   8    3.12    0.17
  -2  -2   8    3.10    0.16
   1   2  -8    3.83    0.19
  -1  -2   8    4.23    0.20
  -1  -2   8    4.00    0.17
  -1  -2   8    3.85    0.19
  -1  -2   8    3.67    0.18
   0   2  -8    0.17    0.07
   0  -2   8   -0.01    0.06
   0  -2   8    0.08    0.06
   0  -2   8    0.06    0.03
   0  -2   8   -0.05    0.05
   0  -2   8    0.08    0.06
  -1   2  -8    5.13    0.24
   1  -2   8    5.20    0.18
   1  -2   8    5.49    0.24
   1  -2   8    5.90    0.23
   1  -2   8    5.54    0.22
  -2   2  -8   21.86    0.67
   2  -2   8   21.80    0.57
   2  -2   8   22.57    0.62
   2  -2   8   21.54    0.60
   2  -2   8   22.80    0.66
   2  -2   8   22.04    0.67
   2  -2   8   22.55    0.59
  -3   2  -8    0.05    0.07
   3  -2   8   -0.06    0.04
   3  -2   8    0.07    0.07
   3  -2   8   -0.06    0.06
   3  -2   8   -0.05    0.05
   3  -2   8    0.07    0.04
   3  -2   8    0.01    0.06
  -4   2  -8    1.14    0.12
  -4   2  -8    1.29    0.12
   4  -2   8    1.18    0.12
   4  -2   8    1.31    0.11
   4  -2   8    1.23    0.11
  -5   2  -8    2.61    0.19
   5  -2   8    2.38    0.16
   5  -2   8    2.35    0.15
   5  -2   8    2.53    0.17
  -6   2  -8    1.34    0.15
  -6   2  -8    1.09    0.13
   6  -2   8    1.21    0.13
   6  -2   8    1.50    0.14
  10   1  -8    3.53    0.19
  10   1  -8    3.94    0.24
 -10  -1   8    3.95    0.22
   9   1  -8    1.56    0.14
   9   1  -8    1.43    0.14
  -9  -1   8    1.24    0.13
  -9  -1   8    1.44    0.12
   8   1  -8    0.04    0.07
   8   1  -8    0.02    0.06
  -8  -1   8    0.05    0.07
  -8  -1   8   -0.02    0.07
   7   1  -8    1.98    0.14
   7   1  -8    2.01    0.15
  -7  -1   8    2.10    0.15
  -7  -1   8    2.04    0.15
  -7  -1   8    2.13    0.15
   6   1  -8    0.44    0.04
   6   1  -8    0.44    0.09
   6   1  -8    0.65    0.09
   6   1  -8    0.46    0.04
   6   1  -8    0.42    0.07
  -6  -1   8    0.44    0.08
  -6  -1   8    0.53    0.09
  -6  -1   8    0.27    0.08
   5   1  -8    0.29    0.08
   5   1  -8    0.17    0.07
  -5  -1   8    0.30    0.08
  -5  -1   8    0.09    0.07
  -5  -1   8    0.06    0.07
   4   1  -8   10.49    0.27
   4   1  -8   10.02    0.36
   4   1  -8   10.58    0.35
  -4  -1   8   10.48    0.34
  -4  -1   8   10.06    0.34
  -4  -1   8   10.62    0.37
   3   1  -8    5.12    0.22
   3   1  -8    5.22    0.17
   3   1  -8    5.17    0.22
  -3  -1   8    5.03    0.22
  -3  -1   8    4.99    0.20
  -3  -1   8    4.98    0.22
   2   1  -8    0.93    0.08
   2   1  -8    0.88    0.11
  -2  -1   8    0.89    0.08
  -2  -1   8    1.00    0.11
  -2  -1   8    0.88    0.10
   1   1  -8   33.03    0.87
   1   1  -8   33.19    0.96
  -1  -1   8   33.09    0.90
  -1  -1   8   32.73    0.88
  -1  -1   8   33.14    0.95
  -1  -1   8   34.13    0.97
   0   1  -8    0.76    0.10
   0   1  -8    0.62    0.08
   0  -1   8    0.70    0.09
   0  -1   8    0.57    0.05
   0  -1   8    0.51    0.07
   0  -1   8    0.61    0.10
   0  -1   8    0.59    0.08
  -1   1  -8   46.86    1.33
  -1   1  -8   49.25    1.25
   1  -1   8   48.00    1.23
   1  -1   8   48.02    1.32
   1  -1   8   46.19    1.33
   1  -1   8   48.15    1.22
  -2   1  -8    0.87    0.10
  -2   1  -8    1.05    0.11
   2  -1   8    0.93    0.08
   2  -1   8    0.83    0.11
   2  -1   8    0.79    0.10
   2  -1   8    0.79    0.09
   2  -1   8    1.11    0.11
  -3   1  -8    0.55    0.09
  -3   1  -8    0.59    0.09
   3  -1   8    0.62    0.09
   3  -1   8    0.61    0.08
   3  -1   8    0.63    0.10
  -4   1  -8    0.31    0.10
   4  -1   8    0.28    0.09
   4  -1   8    0.41    0.09
   4  -1   8    0.37    0.08
  -5   1  -8    0.19    0.09
   5  -1   8    0.25    0.08
   5  -1   8    0.21    0.08
  -6   1  -8    0.23    0.11
   6  -1   8    0.28    0.08
   6  -1   8    0.48    0.10
  10   0  -8    2.08    0.18
  10   0  -8    1.87    0.15
 -10   0   8    1.84    0.17
   9   0  -8    2.60    0.17
   9   0  -8    2.50    0.18
  -9   0   8    2.60    0.18
  -9   0   8    2.65    0.17
   8   0  -8    0.17    0.07
   8   0  -8    0.17    0.08
  -8   0   8    0.06    0.07
  -8   0   8    0.15    0.08
   7   0  -8    5.54    0.23
   7   0  -8    5.57    0.24
   7   0  -8    5.04    0.22
  -7   0   8    5.63    0.23
  -7   0   8    5.59    0.25
  -7   0   8    4.96    0.23
   6   0  -8   11.58    0.40
   6   0  -8   11.39    0.31
   6   0  -8   11.62    0.35
   6   0  -8   11.27    0.38
  -6   0   8   11.35    0.40
  -6   0   8   11.72    0.37
  -6   0   8   11.57    0.38
   5   0  -8    0.81    0.10
   5   0  -8    0.66    0.10
  -5   0   8    0.69    0.09
  -5   0   8    0.59    0.08
  -5   0   8    0.76    0.10
   4   0  -8   17.06    0.55
   4   0  -8   17.71    0.45
   4   0  -8   17.87    0.54
  -4   0   8   16.80    0.51
  -4   0   8   18.36    0.56
  -4   0   8   16.73    0.51
  -4   0   8   17.44    0.51
   3   0  -8    3.61    0.19
   3   0  -8    3.70    0.14
  -3   0   8    3.49    0.16
  -3   0   8    3.77    0.16
  -3   0   8    3.68    0.18
  -3   0   8    3.68    0.20
   2   0  -8    6.63    0.22
   2   0  -8    6.51    0.27
  -2   0   8    6.21    0.26
  -2   0   8    6.20    0.21
  -2   0   8    6.77    0.25
  -2   0   8    6.60    0.24
   1   0  -8    3.22    0.18
   1   0  -8    3.23    0.15
  -1   0   8    3.15    0.17
  -1   0   8    3.08    0.12
  -1   0   8    3.24    0.18
  -1   0   8    3.09    0.15
   0   0  -8   25.63    0.76
   0   0  -8   24.88    0.69
   0   0   8   25.15    0.70
   0   0   8   24.62    0.64
   0   0   8   25.94    0.76
   0   0   8   26.07    0.75
   0   0   8   24.77    0.65
  -1   0  -8    1.80    0.15
  -1   0  -8    1.78    0.15
   1   0   8    1.99    0.16
   1   0   8    1.62    0.14
   1   0   8    1.47    0.13
  -2   0  -8    1.31    0.12
  -2   0  -8    1.49    0.14
   2   0   8    1.44    0.13
   2   0   8    1.55    0.14
   2   0   8    1.42    0.13
  -3   0  -8    0.87    0.12
  -3   0  -8    0.84    0.11
   3   0   8    0.78    0.11
   3   0   8    0.90    0.10
   3   0   8    0.91    0.11
  -4   0  -8    0.21    0.10
   4   0   8    0.21    0.09
   4   0   8    0.41    0.09
  -5   0  -8    0.25    0.10
   5   0   8    0.27    0.09
   5   0   8    0.29    0.09
  10  -1  -8    0.50    0.10
  10  -1  -8    0.60    0.10
 -10   1   8    0.32    0.10
 -10   1   8    0.51    0.10
   9  -1  -8    1.83    0.15
   9  -1  -8    1.71    0.15
  -9   1   8    1.86    0.16
  -9   1   8    1.76    0.17
   8  -1  -8    0.86    0.09
   8  -1  -8    0.76    0.11
  -8   1   8    0.91    0.11
  -8   1   8    0.56    0.10
  -8   1   8    0.74    0.11
   7  -1  -8   -0.01    0.07
   7  -1  -8    0.01    0.07
   7  -1  -8   -0.01    0.05
  -7   1   8   -0.09    0.07
  -7   1   8   -0.09    0.06
  -7   1   8   -0.09    0.06
   6  -1  -8    1.08    0.11
   6  -1  -8    1.07    0.12
   6  -1  -8    1.17    0.08
  -6   1   8    1.06    0.12
  -6   1   8    0.93    0.11
  -6   1   8    0.95    0.10
   5  -1  -8    0.29    0.03
   5  -1  -8    0.20    0.09
  -5   1   8    0.12    0.07
  -5   1   8    0.15    0.08
  -5   1   8    0.26    0.09
   4  -1  -8    2.25    0.10
   4  -1  -8    1.95    0.16
  -4   1   8    1.94    0.12
  -4   1   8    1.96    0.16
  -4   1   8    2.17    0.14
  -4   1   8    2.05    0.16
   3  -1  -8   19.26    0.61
   3  -1  -8   19.42    0.52
  -3   1   8   19.80    0.61
  -3   1   8   19.13    0.54
  -3   1   8   19.10    0.55
  -3   1   8   19.88    0.57
   2  -1  -8    0.14    0.08
   2  -1  -8    0.08    0.05
  -2   1   8    0.07    0.04
  -2   1   8   -0.03    0.05
  -2   1   8    0.09    0.07
  -2   1   8    0.14    0.08
   1  -1  -8    2.56    0.18
   1  -1  -8    2.63    0.15
  -1   1   8    2.71    0.14
  -1   1   8    2.56    0.08
  -1   1   8    2.35    0.09
  -1   1   8    2.80    0.18
  -1   1   8    2.67    0.16
   0  -1  -8    1.60    0.15
   0  -1  -8    1.27    0.11
   0   1   8    1.61    0.15
   0   1   8    1.26    0.12
  -1  -1  -8    0.05    0.09
  -1  -1  -8    0.16    0.07
   1   1   8    0.16    0.07
   1   1   8    0.10    0.09
   1   1   8    0.19    0.08
   1   1   8   -0.06    0.07
  -2  -1  -8    0.08    0.08
  -2  -1  -8    0.00    0.08
   2   1   8    0.06    0.07
   2   1   8    0.02    0.08
  -3  -1  -8    0.98    0.13
   3   1   8    1.18    0.13
   3   1   8    1.12    0.13
  -4  -1  -8    0.60    0.11
   4   1   8    0.53    0.10
   4   1   8    0.57    0.11
  10  -2  -8    0.10    0.08
  10  -2  -8   -0.01    0.07
 -10   2   8    0.07    0.08
 -10   2   8    0.11    0.09
   9  -2  -8    1.65    0.15
   9  -2  -8    1.48    0.14
  -9   2   8    1.37    0.13
  -9   2   8    1.42    0.13
   8  -2  -8    0.81    0.09
   8  -2  -8    0.71    0.11
  -8   2   8    0.59    0.10
  -8   2   8    0.72    0.11
  -8   2   8    0.74    0.11
   7  -2  -8    0.37    0.10
   7  -2  -8    0.44    0.07
  -7   2   8    0.46    0.09
  -7   2   8    0.49    0.10
  -7   2   8    0.36    0.09
   6  -2  -8    0.43    0.10
   6  -2  -8    0.38    0.03
  -6   2   8    0.36    0.09
  -6   2   8    0.37    0.10
  -6   2   8    0.36    0.08
   5  -2  -8    3.96    0.13
   5  -2  -8    3.86    0.22
  -5   2   8    3.98    0.20
  -5   2   8    3.79    0.22
  -5   2   8    3.84    0.18
   4  -2  -8    3.95    0.22
   4  -2  -8    4.09    0.15
  -4   2   8    3.91    0.17
  -4   2   8    3.85    0.18
  -4   2   8    3.68    0.22
  -4   2   8    4.01    0.21
   3  -2  -8    0.09    0.09
   3  -2  -8    0.13    0.05
  -3   2   8    0.05    0.06
  -3   2   8    0.02    0.07
  -3   2   8    0.09    0.04
  -3   2   8    0.05    0.09
   2  -2  -8    3.24    0.20
   2  -2  -8    3.18    0.15
  -2   2   8    2.89    0.20
  -2   2   8    3.19    0.16
  -2   2   8    3.00    0.18
  -2   2   8    3.01    0.11
   1  -2  -8    2.59    0.18
   1  -2  -8    2.22    0.15
  -1   2   8    2.41    0.18
  -1   2   8    2.49    0.14
  -1   2   8    2.47    0.17
   0  -2  -8    1.40    0.14
   0  -2  -8    1.48    0.14
   0   2   8    1.56    0.16
  -1  -2  -8   -0.08    0.08
  -1  -2  -8   -0.12    0.06
   1   2   8   -0.05    0.07
   1   2   8   -0.03    0.08
  -2  -2  -8    1.92    0.18
   2   2   8    1.98    0.16
   2   2   8    2.24    0.19
  -3  -2  -8    3.29    0.22
   3   2   8    2.86    0.20
   3   2   8    2.72    0.19
  10  -3  -8   -0.07    0.07
  10  -3  -8   -0.06    0.08
 -10   3   8   -0.02    0.09
   9  -3  -8    0.13    0.09
   9  -3  -8    0.25    0.07
  -9   3   8    0.13    0.08
  -9   3   8    0.10    0.09
   8  -3  -8    4.01    0.18
   8  -3  -8    3.71    0.22
  -8   3   8    3.70    0.23
  -8   3   8    4.23    0.22
  -8   3   8    3.67    0.21
   7  -3  -8    2.83    0.20
   7  -3  -8    2.84    0.15
  -7   3   8    2.73    0.19
  -7   3   8    2.59    0.17
  -7   3   8    2.59    0.18
   6  -3  -8    2.31    0.18
   6  -3  -8    2.09    0.09
  -6   3   8    2.37    0.19
  -6   3   8    2.33    0.17
  -6   3   8    2.41    0.16
   5  -3  -8   14.36    0.50
   5  -3  -8   13.75    0.39
  -5   3   8   14.63    0.50
  -5   3   8   14.73    0.44
  -5   3   8   13.52    0.45
   4  -3  -8    0.00    0.05
   4  -3  -8    0.04    0.09
  -4   3   8   -0.06    0.05
  -4   3   8   -0.03    0.09
  -4   3   8    0.03    0.08
  -4   3   8    0.01    0.06
   3  -3  -8    8.61    0.36
   3  -3  -8    9.43    0.30
  -3   3   8    9.59    0.31
  -3   3   8    9.12    0.34
  -3   3   8    9.13    0.37
   2  -3  -8    2.65    0.20
   2  -3  -8    2.62    0.16
  -2   3   8    2.59    0.20
  -2   3   8    2.69    0.15
   1  -3  -8   -0.03    0.06
   1  -3  -8   -0.01    0.09
  -1   3   8   -0.03    0.09
  -1   3   8   -0.01    0.05
   0  -3  -8   -0.01    0.07
   0  -3  -8    0.09    0.10
   0   3   8    0.02    0.09
  -1  -3  -8    0.03    0.08
   1   3   8    0.07    0.08
   1   3   8    0.03    0.09
  -2  -3  -8    2.00    0.19
   2   3   8    2.29    0.20
   2   3   8    2.13    0.18
  10  -4  -8    0.40    0.11
  10  -4  -8    0.44    0.09
 -10   4   8    0.38    0.11
   9  -4  -8    0.07    0.09
   9  -4  -8    0.09    0.06
  -9   4   8    0.15    0.09
   8  -4  -8    0.51    0.08
   8  -4  -8    0.56    0.11
  -8   4   8    0.58    0.10
  -8   4   8    0.69    0.12
   7  -4  -8   -0.06    0.09
   7  -4  -8   -0.03    0.05
  -7   4   8   -0.03    0.09
  -7   4   8    0.00    0.07
   6  -4  -8    0.69    0.13
   6  -4  -8    0.64    0.06
  -6   4   8    0.69    0.13
  -6   4   8    0.58    0.09
   5  -4  -8    0.36    0.11
   5  -4  -8    0.32    0.06
  -5   4   8    0.24    0.07
  -5   4   8    0.28    0.11
   4  -4  -8    3.66    0.17
   4  -4  -8    3.81    0.24
  -4   4   8    4.04    0.24
  -4   4   8    3.61    0.18
   3  -4  -8    2.33    0.15
   3  -4  -8    2.39    0.21
  -3   4   8    2.39    0.21
  -3   4   8    2.59    0.15
   2  -4  -8    2.27    0.16
   2  -4  -8    2.57    0.20
  -2   4   8    2.51    0.14
  -2   4   8    2.49    0.21
   1  -4  -8    5.38    0.24
   1  -4  -8    5.08    0.27
  -1   4   8    4.95    0.27
   0  -4  -8    0.78    0.11
   0  -4  -8    0.87    0.14
   0   4   8    0.75    0.13
   0   4   8    0.77    0.11
  -1  -4  -8    3.23    0.22
   1   4   8    2.75    0.22
   1   4   8    3.15    0.20
  10  -5  -8    1.39    0.16
 -10   5   8    1.49    0.15
   9  -5  -8   -0.09    0.10
  -9   5   8   -0.16    0.08
   8  -5  -8    0.15    0.10
   8  -5  -8    0.32    0.07
  -8   5   8    0.18    0.08
  -8   5   8    0.21    0.11
   7  -5  -8    0.03    0.11
   7  -5  -8    0.11    0.05
  -7   5   8   -0.04    0.10
  -7   5   8    0.01    0.07
   6  -5  -8    1.55    0.17
   6  -5  -8    1.24    0.10
  -6   5   8    1.73    0.15
  -6   5   8    1.41    0.17
   5  -5  -8    0.02    0.10
   5  -5  -8    0.00    0.06
  -5   5   8    0.01    0.06
  -5   5   8    0.07    0.11
   4  -5  -8    1.10    0.10
   4  -5  -8    1.10    0.15
  -4   5   8    1.05    0.10
  -4   5   8    1.18    0.16
   3  -5  -8    0.81    0.10
   3  -5  -8    0.96    0.15
  -3   5   8    0.85    0.09
  -3   5   8    0.79    0.14
   2  -5  -8    0.63    0.14
   2  -5  -8    0.74    0.10
  -2   5   8    0.78    0.14
  -2   5   8    0.75    0.08
   1  -5  -8   -0.04    0.10
   1  -5  -8    0.04    0.08
  -1   5   8    0.02    0.10
   9  -6  -8    0.40    0.13
  -9   6   8    0.43    0.11
   8  -6  -8   -0.15    0.10
  -8   6   8    0.06    0.07
  -8   6   8   -0.09    0.10
   7  -6  -8    0.15    0.12
  -7   6   8    0.17    0.08
  -7   6   8    0.33    0.13
   6  -6  -8    0.19    0.12
   6  -6  -8    0.00    0.05
  -6   6   8    0.09    0.07
  -6   6   8    0.03    0.11
   5  -6  -8    0.20    0.12
   5  -6  -8    0.28    0.08
  -5   6   8    0.36    0.08
  -5   6   8    0.29    0.12
   4  -6  -8    1.34    0.17
   4  -6  -8    1.27    0.12
  -4   6   8    1.23    0.11
  -4   6   8    1.31    0.17
   3  -6  -8    0.15    0.08
   3  -6  -8    0.20    0.12
  -3   6   8    0.30    0.13
   2  -6  -8    0.42    0.13
   7  -7  -8   -0.09    0.11
  -7   7   8   -0.05    0.11
   6  -7  -8   -0.04    0.06
   6  -7  -8    0.05    0.12
  -6   7   8   -0.04    0.07
  -6   7   8   -0.17    0.11
  -2  12  -9    0.09    0.09
  -2  12  -9    0.12    0.08
   2 -12   9    0.16    0.09
   2 -12   9    0.16    0.08
  -3  12  -9   -0.07    0.08
  -3  12  -9    0.00    0.07
   3 -12   9   -0.01    0.09
   3 -12   9    0.08    0.09
  -4  12  -9    0.29    0.10
  -4  12  -9    0.32    0.09
   4 -12   9    0.34    0.10
   4 -12   9    0.37    0.10
  -5  12  -9    0.11    0.08
  -5  12  -9    0.03    0.09
   5 -12   9    0.13    0.10
   0  11  -9    0.02    0.08
   0  11  -9    0.08    0.06
   0  11  -9   -0.11    0.05
   0 -11   9    0.02    0.08
   0 -11   9    0.07    0.07
  -1  11  -9    0.16    0.08
  -1  11  -9    0.26    0.07
   1 -11   9    0.26    0.08
   1 -11   9    0.15    0.09
  -2  11  -9    1.68    0.17
  -2  11  -9    1.83    0.15
   2 -11   9    1.58    0.16
   2 -11   9    1.77    0.17
  -3  11  -9    0.12    0.07
  -3  11  -9   -0.05    0.08
   3 -11   9    0.03    0.08
   3 -11   9    0.12    0.08
  -4  11  -9    3.34    0.22
  -4  11  -9    3.91    0.21
   4 -11   9    3.44    0.22
   4 -11   9    3.78    0.23
  -5  11  -9    0.10    0.09
  -5  11  -9    0.06    0.08
   5 -11   9    0.11    0.09
   5 -11   9    0.02    0.08
  -6  11  -9    0.87    0.13
  -6  11  -9    0.94    0.12
   6 -11   9    0.77    0.12
   6 -11   9    0.60    0.10
   6 -11   9    0.67    0.12
   2  10  -9    2.55    0.19
   2  10  -9    2.46    0.17
  -2 -10   9    2.64    0.20
  -2 -10   9    2.72    0.19
  -2 -10   9    2.49    0.16
   1  10  -9    0.83    0.10
   1  10  -9    0.98    0.09
   1  10  -9    0.84    0.12
  -1 -10   9    0.77    0.11
  -1 -10   9    0.89    0.11
  -1 -10   9    0.89    0.09
  -1 -10   9    0.93    0.12
   0  10  -9    0.19    0.06
   0  10  -9    0.19    0.09
   0 -10   9    0.15    0.05
   0 -10   9    0.14    0.08
   0 -10   9    0.17    0.08
  -1  10  -9    1.07    0.10
  -1  10  -9    0.99    0.13
   1 -10   9    0.68    0.11
   1 -10   9    1.09    0.12
  -2  10  -9    0.01    0.06
  -2  10  -9    0.02    0.07
   2 -10   9    0.12    0.07
   2 -10   9    0.04    0.07
  -3  10  -9    0.09    0.08
  -3  10  -9    0.09    0.07
   3 -10   9    0.02    0.07
   3 -10   9    0.06    0.07
  -4  10  -9    2.40    0.18
  -4  10  -9    2.00    0.16
   4 -10   9    2.05    0.17
   4 -10   9    1.97    0.15
   4 -10   9    2.28    0.18
  -5  10  -9    0.65    0.11
  -5  10  -9    0.83    0.11
   5 -10   9    0.76    0.10
   5 -10   9    0.71    0.12
   5 -10   9    0.90    0.12
  -6  10  -9   -0.04    0.07
  -6  10  -9    0.03    0.08
   6 -10   9   -0.08    0.06
   6 -10   9    0.05    0.08
   6 -10   9   -0.05    0.08
  -7  10  -9    0.01    0.08
   7 -10   9   -0.02    0.08
   7 -10   9   -0.23    0.08
   7 -10   9    0.06    0.07
   3   9  -9   16.10    0.50
   3   9  -9   15.60    0.55
  -3  -9   9   15.91    0.48
  -3  -9   9   16.49    0.52
   2   9  -9    0.00    0.06
   2   9  -9    0.03    0.05
   2   9  -9    0.06    0.08
  -2  -9   9    0.10    0.08
  -2  -9   9    0.11    0.06
  -2  -9   9    0.20    0.09
   1   9  -9    4.75    0.19
   1   9  -9    4.90    0.25
  -1  -9   9    4.99    0.19
  -1  -9   9    4.99    0.25
  -1  -9   9    5.23    0.24
  -1  -9   9    5.41    0.24
   0   9  -9   11.63    0.43
   0   9  -9   12.04    0.36
   0  -9   9   12.40    0.43
   0  -9   9   11.40    0.40
   0  -9   9   11.32    0.33
   0  -9   9   11.90    0.41
  -1   9  -9    1.57    0.15
  -1   9  -9    1.43    0.12
   1  -9   9    1.22    0.08
   1  -9   9    1.30    0.13
   1  -9   9    1.18    0.12
   1  -9   9    1.17    0.12
  -2   9  -9    1.88    0.16
  -2   9  -9    2.04    0.14
   2  -9   9    2.32    0.16
   2  -9   9    2.06    0.16
   2  -9   9    2.18    0.15
  -3   9  -9    3.99    0.22
  -3   9  -9    4.09    0.19
   3  -9   9    3.83    0.21
   3  -9   9    4.09    0.20
   3  -9   9    4.01    0.21
  -4   9  -9    0.80    0.10
  -4   9  -9    0.66    0.10
   4  -9   9    0.76    0.10
   4  -9   9    0.64    0.11
   4  -9   9    0.74    0.10
  -5   9  -9    1.46    0.13
  -5   9  -9    1.65    0.16
   5  -9   9    1.48    0.14
   5  -9   9    1.31    0.14
   5  -9   9    1.43    0.14
  -6   9  -9    2.02    0.16
  -6   9  -9    2.05    0.16
   6  -9   9    1.69    0.15
   6  -9   9    2.18    0.16
   6  -9   9    2.07    0.17
  -7   9  -9    0.54    0.10
   7  -9   9    0.58    0.12
   7  -9   9    0.53    0.10
   7  -9   9    0.53    0.09
   5   8  -9    0.10    0.08
   5   8  -9    0.08    0.08
  -5  -8   9    0.12    0.07
  -5  -8   9    0.08    0.07
   4   8  -9    3.39    0.20
   4   8  -9    3.22    0.20
  -4  -8   9    3.14    0.20
  -4  -8   9    2.99    0.18
   3   8  -9    2.74    0.17
   3   8  -9    2.57    0.18
  -3  -8   9    2.76    0.18
  -3  -8   9    2.71    0.16
  -3  -8   9    2.66    0.18
   2   8  -9    2.23    0.12
   2   8  -9    2.30    0.17
  -2  -8   9    2.33    0.13
  -2  -8   9    2.18    0.16
  -2  -8   9    2.44    0.17
   1   8  -9    0.82    0.11
   1   8  -9    1.19    0.10
  -1  -8   9    0.92    0.08
  -1  -8   9    0.79    0.10
  -1  -8   9    1.03    0.12
   0   8  -9    2.09    0.13
   0   8  -9    1.88    0.16
   0  -8   9    1.96    0.10
   0  -8   9    2.26    0.15
   0  -8   9    2.07    0.15
   0  -8   9    2.12    0.16
  -1   8  -9    0.03    0.05
  -1   8  -9    0.02    0.06
   1  -8   9    0.00    0.06
   1  -8   9    0.04    0.07
   1  -8   9   -0.02    0.06
   1  -8   9    0.03    0.03
  -2   8  -9    1.26    0.11
  -2   8  -9    1.23    0.13
   2  -8   9    1.24    0.11
   2  -8   9    1.46    0.14
   2  -8   9    1.11    0.12
  -3   8  -9    1.18    0.12
  -3   8  -9    1.29    0.12
   3  -8   9    1.42    0.13
   3  -8   9    1.22    0.11
   3  -8   9    1.23    0.13
  -4   8  -9    2.73    0.18
  -4   8  -9    2.44    0.16
   4  -8   9    2.43    0.17
   4  -8   9    2.44    0.15
   4  -8   9    2.46    0.17
  -5   8  -9    0.02    0.07
  -5   8  -9    0.07    0.07
   5  -8   9   -0.05    0.07
   5  -8   9    0.00    0.06
   5  -8   9    0.05    0.07
  -6   8  -9    2.27    0.17
   6  -8   9    2.38    0.18
   6  -8   9    2.32    0.17
   6  -8   9    2.15    0.15
  -7   8  -9    1.80    0.17
   7  -8   9    1.73    0.16
   7  -8   9    1.81    0.14
   7  -8   9    2.03    0.17
   6   7  -9    0.87    0.11
   6   7  -9    0.65    0.11
  -6  -7   9    0.79    0.11
  -6  -7   9    0.57    0.10
   5   7  -9    4.48    0.23
   5   7  -9    4.17    0.23
  -5  -7   9    4.06    0.22
  -5  -7   9    4.06    0.21
  -5  -7   9    4.74    0.21
   4   7  -9    2.06    0.16
   4   7  -9    1.99    0.15
  -4  -7   9    1.60    0.15
  -4  -7   9    1.85    0.16
  -4  -7   9    1.81    0.14
   3   7  -9    0.09    0.04
   3   7  -9    0.14    0.08
   3   7  -9    0.08    0.06
  -3  -7   9    0.12    0.06
  -3  -7   9    0.13    0.08
   2   7  -9    2.12    0.16
   2   7  -9    2.16    0.11
  -2  -7   9    1.79    0.15
  -2  -7   9    1.87    0.16
   1   7  -9    3.84    0.16
   1   7  -9    3.67    0.20
  -1  -7   9    3.31    0.20
  -1  -7   9    3.43    0.19
   0   7  -9    0.66    0.08
   0   7  -9    0.66    0.10
   0  -7   9    0.58    0.08
   0  -7   9    0.69    0.10
   0  -7   9    0.54    0.08
   0  -7   9    0.68    0.06
  -1   7  -9    2.01    0.13
  -1   7  -9    1.68    0.15
   1  -7   9    1.62    0.13
   1  -7   9    1.52    0.14
   1  -7   9    1.73    0.08
   1  -7   9    1.72    0.08
   1  -7   9    1.69    0.13
  -2   7  -9    0.08    0.07
  -2   7  -9    0.10    0.07
   2  -7   9    0.12    0.08
   2  -7   9    0.13    0.06
   2  -7   9    0.05    0.03
   2  -7   9    0.05    0.06
  -3   7  -9   -0.02    0.06
  -3   7  -9    0.08    0.06
   3  -7   9    0.08    0.03
   3  -7   9   -0.02    0.05
   3  -7   9   -0.08    0.05
   3  -7   9    0.01    0.06
  -4   7  -9    0.49    0.09
  -4   7  -9    0.44    0.09
   4  -7   9    0.62    0.06
   4  -7   9    0.39    0.09
   4  -7   9    0.66    0.09
   4  -7   9    0.57    0.09
  -5   7  -9    0.51    0.09
  -5   7  -9    0.58    0.10
   5  -7   9    0.56    0.09
   5  -7   9    0.68    0.10
   5  -7   9    0.56    0.10
  -6   7  -9    1.28    0.13
   6  -7   9    1.28    0.11
   6  -7   9    1.23    0.13
   6  -7   9    1.21    0.13
  -7   7  -9    0.19    0.09
   7  -7   9    0.11    0.08
   7  -7   9    0.17    0.08
   6   6  -9    0.87    0.11
   6   6  -9    0.75    0.11
  -6  -6   9    0.86    0.10
  -6  -6   9    0.75    0.10
   5   6  -9    8.07    0.30
   5   6  -9    7.50    0.31
  -5  -6   9    7.57    0.29
  -5  -6   9    7.88    0.28
   4   6  -9    2.02    0.15
   4   6  -9    2.02    0.16
  -4  -6   9    2.04    0.15
  -4  -6   9    2.17    0.16
  -4  -6   9    1.95    0.14
   3   6  -9    1.93    0.10
   3   6  -9    2.05    0.15
   3   6  -9    1.91    0.11
  -3  -6   9    1.86    0.14
  -3  -6   9    1.84    0.14
  -3  -6   9    2.00    0.15
   2   6  -9    2.55    0.12
   2   6  -9    2.72    0.11
   2   6  -9    2.16    0.16
  -2  -6   9    2.35    0.17
  -2  -6   9    2.63    0.16
   1   6  -9    0.34    0.08
   1   6  -9    0.32    0.06
  -1  -6   9    0.30    0.07
  -1  -6   9    0.30    0.08
   0   6  -9    7.96    0.31
   0   6  -9    7.69    0.26
   0  -6   9    7.80    0.28
   0  -6   9    8.00    0.28
   0  -6   9    7.84    0.31
  -1   6  -9   18.01    0.50
  -1   6  -9   17.26    0.56
   1  -6   9   16.78    0.56
   1  -6   9   17.99    0.52
   1  -6   9   17.73    0.52
  -2   6  -9    2.38    0.16
  -2   6  -9    2.18    0.14
   2  -6   9    2.42    0.16
   2  -6   9    2.35    0.15
   2  -6   9    2.52    0.11
   2  -6   9    2.47    0.14
  -3   6  -9   -0.03    0.06
  -3   6  -9   -0.02    0.06
   3  -6   9   -0.03    0.06
   3  -6   9    0.05    0.05
   3  -6   9    0.01    0.04
   3  -6   9   -0.01    0.05
  -4   6  -9    8.14    0.32
  -4   6  -9    7.99    0.30
   4  -6   9    8.11    0.26
   4  -6   9    7.98    0.29
   4  -6   9    7.67    0.31
   4  -6   9    8.12    0.29
  -5   6  -9    0.01    0.07
  -5   6  -9   -0.03    0.06
   5  -6   9   -0.02    0.05
   5  -6   9   -0.02    0.06
   5  -6   9    0.02    0.07
   5  -6   9    0.00    0.06
  -6   6  -9   -0.06    0.07
   6  -6   9   -0.01    0.07
   6  -6   9   -0.01    0.08
   6  -6   9    0.06    0.06
   6  -6   9    0.05    0.06
  -7   6  -9    0.07    0.09
   7  -6   9   -0.01    0.09
   7   5  -9    1.44    0.14
   7   5  -9    1.52    0.15
  -7  -5   9    1.48    0.13
  -7  -5   9    1.16    0.12
   6   5  -9    0.08    0.07
   6   5  -9    0.06    0.07
  -6  -5   9   -0.01    0.07
  -6  -5   9    0.04    0.07
   5   5  -9    4.35    0.20
   5   5  -9    4.06    0.22
  -5  -5   9    4.18    0.21
  -5  -5   9    4.07    0.22
  -5  -5   9    4.33    0.20
   4   5  -9    2.65    0.17
   4   5  -9    2.99    0.17
   4   5  -9    3.02    0.11
  -4  -5   9    2.90    0.16
  -4  -5   9    2.72    0.17
  -4  -5   9    2.81    0.18
   3   5  -9    0.95    0.07
   3   5  -9    0.81    0.11
   3   5  -9    1.04    0.08
  -3  -5   9    0.77    0.11
  -3  -5   9    1.02    0.10
  -3  -5   9    0.79    0.09
   2   5  -9    3.51    0.20
   2   5  -9    3.74    0.14
   2   5  -9    3.76    0.15
  -2  -5   9    3.50    0.20
  -2  -5   9    2.93    0.18
  -2  -5   9    3.68    0.19
   1   5  -9    4.28    0.17
   1   5  -9    4.36    0.16
   1   5  -9    3.87    0.21
  -1  -5   9    4.09    0.19
  -1  -5   9    4.24    0.21
   0   5  -9    3.54    0.19
   0   5  -9    3.80    0.17
   0  -5   9    3.75    0.17
   0  -5   9    3.64    0.18
   0  -5   9    3.44    0.19
  -1   5  -9    5.91    0.23
  -1   5  -9    6.12    0.26
   1  -5   9    5.71    0.23
   1  -5   9    6.36    0.22
   1  -5   9    6.12    0.26
  -2   5  -9    3.24    0.17
  -2   5  -9    3.50    0.19
   2  -5   9    3.54    0.17
   2  -5   9    3.40    0.16
   2  -5   9    3.44    0.14
   2  -5   9    3.52    0.19
  -3   5  -9    2.09    0.15
  -3   5  -9    2.00    0.16
   3  -5   9    1.92    0.16
   3  -5   9    2.15    0.14
   3  -5   9    2.16    0.15
   3  -5   9    2.19    0.12
   3  -5   9    2.06    0.13
  -4   5  -9    2.98    0.18
  -4   5  -9    2.89    0.18
   4  -5   9    3.06    0.17
   4  -5   9    3.12    0.18
   4  -5   9    3.28    0.16
   4  -5   9    3.15    0.15
  -5   5  -9    1.37    0.14
  -5   5  -9    1.18    0.12
   5  -5   9    0.96    0.12
   5  -5   9    1.35    0.12
   5  -5   9    1.12    0.10
   5  -5   9    1.09    0.10
  -6   5  -9    4.28    0.23
   6  -5   9    4.62    0.24
   6  -5   9    4.69    0.20
   6  -5   9    4.69    0.21
  -7   5  -9    2.63    0.20
   7  -5   9    2.91    0.19
   8   4  -9   -0.07    0.07
   8   4  -9    0.05    0.08
  -8  -4   9   -0.03    0.08
  -8  -4   9   -0.08    0.06
   7   4  -9    0.85    0.11
   7   4  -9    0.98    0.11
  -7  -4   9    0.88    0.10
  -7  -4   9    0.98    0.11
   6   4  -9   12.10    0.42
   6   4  -9   12.49    0.40
  -6  -4   9   12.09    0.42
  -6  -4   9   12.39    0.40
  -6  -4   9   12.01    0.40
   5   4  -9    1.30    0.13
   5   4  -9    1.44    0.12
  -5  -4   9    1.54    0.15
  -5  -4   9    1.53    0.13
  -5  -4   9    1.42    0.13
   4   4  -9    5.93    0.27
   4   4  -9    6.09    0.18
   4   4  -9    6.31    0.19
   4   4  -9    6.27    0.25
  -4  -4   9    6.29    0.26
  -4  -4   9    6.11    0.25
  -4  -4   9    6.25    0.24
   3   4  -9   58.89    1.46
   3   4  -9   58.30    1.62
   3   4  -9   59.29    1.45
  -3  -4   9   61.18    1.54
  -3  -4   9   58.92    1.50
  -3  -4   9   55.93    1.62
   2   4  -9    0.56    0.07
   2   4  -9    0.61    0.10
   2   4  -9    0.55    0.05
  -2  -4   9    0.36    0.08
  -2  -4   9    0.59    0.10
  -2  -4   9    0.48    0.08
   1   4  -9    0.39    0.09
   1   4  -9    0.18    0.06
  -1  -4   9    0.28    0.08
  -1  -4   9    0.25    0.07
  -1  -4   9    0.04    0.06
   0   4  -9    0.87    0.09
   0   4  -9    1.06    0.11
   0  -4   9    0.94    0.11
   0  -4   9    1.17    0.11
   0  -4   9    1.31    0.10
  -1   4  -9    3.23    0.18
  -1   4  -9    3.18    0.16
   1  -4   9    3.32    0.16
   1  -4   9    2.97    0.14
   1  -4   9    3.33    0.18
  -2   4  -9   -0.07    0.07
  -2   4  -9    0.00    0.06
   2  -4   9   -0.07    0.04
   2  -4   9   -0.04    0.04
   2  -4   9   -0.17    0.07
   2  -4   9    0.03    0.06
  -3   4  -9    4.25    0.23
  -3   4  -9    4.71    0.22
   3  -4   9    4.88    0.19
   3  -4   9    4.77    0.22
   3  -4   9    4.56    0.24
   3  -4   9    4.77    0.21
   3  -4   9    4.61    0.19
  -4   4  -9    2.87    0.18
  -4   4  -9    3.30    0.18
   4  -4   9    3.18    0.19
   4  -4   9    3.25    0.17
   4  -4   9    3.39    0.17
   4  -4   9    3.05    0.15
  -5   4  -9    0.55    0.11
   5  -4   9    0.46    0.08
   5  -4   9    0.37    0.08
   5  -4   9    0.36    0.09
  -6   4  -9    0.81    0.12
   6  -4   9    0.91    0.11
   6  -4   9    0.84    0.12
   8   3  -9    0.04    0.07
   8   3  -9    0.02    0.08
  -8  -3   9   -0.03    0.08
  -8  -3   9    0.05    0.07
   7   3  -9    0.17    0.08
   7   3  -9    0.30    0.08
  -7  -3   9    0.36    0.09
  -7  -3   9    0.43    0.08
   6   3  -9    1.77    0.14
   6   3  -9    1.83    0.15
  -6  -3   9    1.92    0.15
  -6  -3   9    2.05    0.15
  -6  -3   9    1.91    0.15
   5   3  -9   -0.04    0.06
   5   3  -9   -0.01    0.07
   5   3  -9    0.09    0.03
  -5  -3   9    0.05    0.07
  -5  -3   9   -0.07    0.07
  -5  -3   9    0.06    0.07
   4   3  -9    4.69    0.24
   4   3  -9    4.63    0.22
   4   3  -9    4.72    0.16
   4   3  -9    4.56    0.14
  -4  -3   9    4.62    0.22
  -4  -3   9    4.92    0.24
  -4  -3   9    5.16    0.23
   3   3  -9   24.66    0.64
   3   3  -9   24.28    0.74
   3   3  -9   23.62    0.62
  -3  -3   9   24.33    0.74
  -3  -3   9   24.49    0.68
  -3  -3   9   24.57    0.69
   2   3  -9    4.22    0.17
   2   3  -9    4.43    0.21
  -2  -3   9    4.38    0.20
  -2  -3   9    4.39    0.21
  -2  -3   9    4.29    0.20
   1   3  -9    0.01    0.07
   1   3  -9    0.15    0.06
  -1  -3   9    0.11    0.06
  -1  -3   9    0.13    0.06
  -1  -3   9    0.21    0.08
   0   3  -9   13.16    0.44
   0  -3   9   12.48    0.37
   0  -3   9   13.12    0.44
   0  -3   9   12.52    0.40
  -1   3  -9    4.33    0.22
   1  -3   9    4.91    0.21
   1  -3   9    4.33    0.22
   1  -3   9    4.59    0.17
  -2   3  -9    9.00    0.34
   2  -3   9    8.43    0.25
   2  -3   9    9.21    0.31
   2  -3   9    8.82    0.29
   2  -3   9    8.97    0.28
   2  -3   9    8.49    0.34
   2  -3   9    8.95    0.33
  -3   3  -9    4.40    0.23
   3  -3   9    4.74    0.17
   3  -3   9    4.35    0.20
   3  -3   9    4.63    0.23
   3  -3   9    4.66    0.22
   3  -3   9    4.46    0.20
  -4   3  -9    4.49    0.22
  -4   3  -9    4.10    0.22
   4  -3   9    4.26    0.20
   4  -3   9    4.45    0.21
   4  -3   9    4.23    0.23
  -5   3  -9    0.00    0.08
   5  -3   9    0.04    0.08
   5  -3   9   -0.12    0.06
   5  -3   9    0.08    0.07
  -6   3  -9    0.45    0.11
  -6   3  -9    0.43    0.11
   6  -3   9    0.26    0.09
   6  -3   9    0.40    0.10
   9   2  -9    1.14    0.13
   9   2  -9    1.34    0.13
  -9  -2   9    1.44    0.13
  -9  -2   9    1.11    0.13
   8   2  -9    5.45    0.25
   8   2  -9    5.41    0.25
  -8  -2   9    5.68    0.25
  -8  -2   9    5.67    0.25
   7   2  -9    0.40    0.09
   7   2  -9    0.39    0.08
  -7  -2   9    0.30    0.09
  -7  -2   9    0.38    0.09
  -7  -2   9    0.30    0.08
   6   2  -9    0.10    0.06
   6   2  -9    0.12    0.08
  -6  -2   9    0.04    0.07
  -6  -2   9    0.21    0.08
  -6  -2   9    0.01    0.07
   5   2  -9   19.14    0.60
   5   2  -9   19.02    0.49
   5   2  -9   18.74    0.58
  -5  -2   9   19.05    0.60
  -5  -2   9   19.19    0.56
  -5  -2   9   18.27    0.56
   4   2  -9    3.58    0.12
   4   2  -9    3.53    0.11
   4   2  -9    3.75    0.20
   4   2  -9    3.42    0.15
  -4  -2   9    3.54    0.19
  -4  -2   9    3.62    0.19
  -4  -2   9    3.47    0.20
   3   2  -9    7.62    0.24
   3   2  -9    8.21    0.32
  -3  -2   9    8.22    0.29
  -3  -2   9    8.23    0.29
  -3  -2   9    8.28    0.32
   2   2  -9    0.03    0.07
  -2  -2   9    0.06    0.08
  -2  -2   9    0.00    0.06
  -2  -2   9    0.02    0.06
   1   2  -9    2.29    0.17
  -1  -2   9    2.44    0.17
  -1  -2   9    2.39    0.15
  -1  -2   9    2.76    0.17
   0   2  -9    2.33    0.17
   0  -2   9    2.21    0.11
   0  -2   9    2.55    0.17
   0  -2   9    2.35    0.16
  -1   2  -9    2.79    0.19
   1  -2   9    2.62    0.12
   1  -2   9    3.15    0.18
   1  -2   9    2.92    0.19
  -2   2  -9    0.98    0.12
   2  -2   9    0.89    0.07
   2  -2   9    0.80    0.09
   2  -2   9    0.76    0.10
   2  -2   9    0.85    0.12
   2  -2   9    0.68    0.10
   2  -2   9    0.80    0.07
  -3   2  -9    1.46    0.15
  -3   2  -9    1.04    0.12
   3  -2   9    1.27    0.13
   3  -2   9    1.27    0.12
   3  -2   9    1.07    0.11
  -4   2  -9   -0.02    0.08
   4  -2   9    0.00    0.07
   4  -2   9    0.06    0.07
   4  -2   9   -0.10    0.08
  -5   2  -9    0.15    0.10
   5  -2   9    0.19    0.09
   5  -2   9    0.15    0.08
   9   1  -9    0.01    0.08
   9   1  -9    0.18    0.08
  -9  -1   9    0.15    0.09
  -9  -1   9    0.09    0.08
   8   1  -9    0.26    0.09
   8   1  -9    0.23    0.08
  -8  -1   9    0.21    0.08
  -8  -1   9    0.24    0.09
   7   1  -9    0.12    0.06
   7   1  -9    0.13    0.08
  -7  -1   9    0.03    0.08
  -7  -1   9   -0.02    0.07
  -7  -1   9    0.07    0.07
   6   1  -9    8.75    0.33
   6   1  -9    8.41    0.32
   6   1  -9    8.20    0.24
  -6  -1   9    8.81    0.32
  -6  -1   9    8.08    0.31
  -6  -1   9    8.42    0.33
   5   1  -9   14.41    0.49
  -5  -1   9   14.49    0.45
  -5  -1   9   14.64    0.46
  -5  -1   9   14.93    0.50
   4   1  -9    8.17    0.23
   4   1  -9    8.28    0.33
  -4  -1   9    7.78    0.30
  -4  -1   9    8.12    0.32
  -4  -1   9    8.43    0.29
   3   1  -9    0.62    0.06
   3   1  -9    0.62    0.10
  -3  -1   9    0.51    0.09
  -3  -1   9    0.73    0.08
  -3  -1   9    0.61    0.10
  -3  -1   9    0.47    0.08
   2   1  -9    8.17    0.26
   2   1  -9    8.32    0.33
  -2  -1   9    8.53    0.27
  -2  -1   9    7.88    0.29
  -2  -1   9    7.66    0.32
  -2  -1   9    8.03    0.29
   1   1  -9    1.69    0.16
   1   1  -9    1.77    0.12
  -1  -1   9    1.63    0.10
  -1  -1   9    1.67    0.15
  -1  -1   9    1.83    0.14
  -1  -1   9    1.70    0.16
   0   1  -9   16.61    0.50
   0   1  -9   16.99    0.56
   0  -1   9   17.28    0.46
   0  -1   9   16.83    0.46
   0  -1   9   17.11    0.51
   0  -1   9   17.39    0.56
  -1   1  -9   30.34    0.91
  -1   1  -9   31.16    0.84
   1  -1   9   30.26    0.91
   1  -1   9   31.07    0.84
  -2   1  -9    0.28    0.09
  -2   1  -9    0.12    0.07
   2  -1   9    0.11    0.07
   2  -1   9    0.10    0.08
   2  -1   9    0.09    0.07
  -3   1  -9    0.43    0.11
  -3   1  -9    0.51    0.10
   3  -1   9    0.53    0.09
   3  -1   9    0.55    0.11
   3  -1   9    0.44    0.09
  -4   1  -9    0.73    0.12
   4  -1   9    1.00    0.11
   4  -1   9    0.98    0.13
   4  -1   9    0.95    0.12
  -5   1  -9    0.14    0.10
   5  -1   9    0.18    0.08
   5  -1   9    0.17    0.09
  10   0  -9   -0.01    0.08
  10   0  -9   -0.07    0.08
 -10   0   9    0.22    0.10
   9   0  -9    1.38    0.14
   9   0  -9    1.20    0.12
  -9   0   9    1.07    0.13
  -9   0   9    1.28    0.13
   8   0  -9    1.63    0.16
   8   0  -9    1.76    0.15
  -8   0   9    1.65    0.16
  -8   0   9    1.81    0.16
   7   0  -9    2.12    0.17
   7   0  -9    2.29    0.14
  -7   0   9    2.09    0.17
  -7   0   9    2.00    0.16
  -7   0   9    2.13    0.17
   6   0  -9    0.83    0.12
  -6   0   9    0.86    0.12
  -6   0   9    0.77    0.10
  -6   0   9    0.65    0.11
   5   0  -9    1.39    0.14
   5   0  -9    1.28    0.06
  -5   0   9    1.24    0.13
  -5   0   9    1.51    0.13
  -5   0   9    1.57    0.16
   4   0  -9    0.20    0.09
   4   0  -9    0.11    0.04
  -4   0   9    0.11    0.07
  -4   0   9    0.06    0.06
  -4   0   9    0.16    0.08
   3   0  -9    0.75    0.07
   3   0  -9    0.83    0.12
  -3   0   9    0.70    0.11
  -3   0   9    0.60    0.10
  -3   0   9    0.74    0.07
  -3   0   9    0.73    0.09
   2   0  -9    0.02    0.08
   2   0  -9   -0.04    0.05
  -2   0   9    0.00    0.04
  -2   0   9   -0.04    0.07
  -2   0   9   -0.05    0.05
  -2   0   9   -0.10    0.07
   1   0  -9    0.12    0.06
   1   0  -9    0.16    0.09
  -1   0   9    0.06    0.09
  -1   0   9    0.05    0.04
  -1   0   9    0.11    0.06
  -1   0   9    0.03    0.03
  -1   0   9    0.15    0.08
   0   0  -9    2.12    0.17
   0   0  -9    2.50    0.19
   0   0   9    2.19    0.17
   0   0   9    2.40    0.19
  -1   0  -9    2.17    0.18
  -1   0  -9    2.05    0.17
   1   0   9    2.17    0.18
   1   0   9    2.22    0.17
  -2   0  -9    0.60    0.10
  -2   0  -9    0.71    0.12
   2   0   9    0.66    0.12
   2   0   9    0.62    0.10
   2   0   9    0.79    0.10
  -3   0  -9    0.53    0.11
   3   0   9    0.68    0.10
   3   0   9    0.66    0.12
  -4   0  -9    0.34    0.11
   4   0   9    0.13    0.09
   4   0   9    0.26    0.09
  10  -1  -9    0.06    0.08
  10  -1  -9    0.17    0.09
 -10   1   9    0.14    0.09
 -10   1   9    0.16    0.10
   9  -1  -9    0.97    0.13
   9  -1  -9    1.02    0.11
  -9   1   9    0.85    0.12
  -9   1   9    1.13    0.13
   8  -1  -9    0.00    0.06
   8  -1  -9    0.12    0.09
  -8   1   9    0.03    0.09
  -8   1   9    0.00    0.08
  -8   1   9    0.04    0.08
   7  -1  -9    3.10    0.16
   7  -1  -9    2.93    0.20
  -7   1   9    3.32    0.21
  -7   1   9    3.12    0.20
  -7   1   9    3.54    0.20
   6  -1  -9    6.33    0.29
  -6   1   9    6.73    0.28
  -6   1   9    6.81    0.27
  -6   1   9    7.13    0.30
   5  -1  -9    2.30    0.09
   5  -1  -9    1.99    0.18
  -5   1   9    2.31    0.15
  -5   1   9    1.82    0.18
  -5   1   9    2.27    0.17
   4  -1  -9   -0.07    0.08
   4  -1  -9    0.04    0.04
  -4   1   9   -0.08    0.08
  -4   1   9    0.09    0.05
  -4   1   9    0.03    0.07
  -4   1   9    0.01    0.06
   3  -1  -9    7.65    0.33
   3  -1  -9    8.27    0.26
  -3   1   9    8.04    0.34
  -3   1   9    7.73    0.26
  -3   1   9    8.43    0.29
  -3   1   9    7.87    0.31
   2  -1  -9   -0.11    0.08
   2  -1  -9    0.01    0.06
  -2   1   9    0.08    0.08
  -2   1   9    0.04    0.09
  -2   1   9    0.01    0.06
   1  -1  -9    6.19    0.29
   1  -1  -9    5.92    0.24
  -1   1   9    6.05    0.27
  -1   1   9    6.16    0.29
  -1   1   9    5.98    0.24
   0  -1  -9    0.33    0.11
   0  -1  -9    0.18    0.08
   0   1   9    0.23    0.10
   0   1   9    0.39    0.11
  -1  -1  -9    0.05    0.07
  -1  -1  -9    0.03    0.08
   1   1   9   -0.04    0.08
   1   1   9    0.00    0.07
   1   1   9   -0.07    0.08
  -2  -1  -9    0.07    0.08
   2   1   9    0.13    0.10
   2   1   9    0.10    0.07
  -3  -1  -9    1.11    0.14
   3   1   9    1.04    0.13
   3   1   9    1.16    0.14
  10  -2  -9    0.47    0.10
 -10   2   9    0.29    0.10
 -10   2   9    0.42    0.11
   9  -2  -9    0.16    0.08
   9  -2  -9    0.17    0.09
  -9   2   9    0.21    0.10
  -9   2   9    0.13    0.10
   8  -2  -9    0.25    0.07
   8  -2  -9    0.06    0.10
  -8   2   9    0.10    0.09
  -8   2   9    0.16    0.10
  -8   2   9    0.22    0.09
   7  -2  -9   -0.09    0.08
   7  -2  -9    0.01    0.05
  -7   2   9   -0.10    0.07
  -7   2   9   -0.08    0.09
  -7   2   9   -0.06    0.08
   6  -2  -9    2.34    0.19
  -6   2   9    2.42    0.19
  -6   2   9    2.49    0.17
  -6   2   9    2.24    0.17
   5  -2  -9    3.26    0.22
   5  -2  -9    3.26    0.13
  -5   2   9    3.44    0.18
  -5   2   9    3.33    0.21
  -5   2   9    3.27    0.22
   4  -2  -9    1.89    0.11
   4  -2  -9    1.74    0.18
  -4   2   9    1.71    0.14
  -4   2   9    1.75    0.18
  -4   2   9    1.38    0.14
   3  -2  -9    4.59    0.19
   3  -2  -9    4.28    0.25
  -3   2   9    4.18    0.20
  -3   2   9    4.19    0.25
  -3   2   9    4.49    0.23
   2  -2  -9    5.69    0.23
   2  -2  -9    5.38    0.28
  -2   2   9    5.57    0.28
  -2   2   9    5.64    0.23
  -2   2   9    5.98    0.27
   1  -2  -9    1.67    0.15
   1  -2  -9    1.85    0.18
  -1   2   9    1.49    0.15
  -1   2   9    1.90    0.19
  -1   2   9    1.66    0.14
   0  -2  -9    2.69    0.20
   0  -2  -9    2.58    0.18
   0   2   9    2.60    0.20
  -1  -2  -9    0.00    0.08
   1   2   9   -0.03    0.08
   1   2   9   -0.02    0.09
  -2  -2  -9    0.06    0.09
   2   2   9    0.20    0.11
   2   2   9    0.07    0.09
  10  -3  -9    1.10    0.14
  10  -3  -9    1.08    0.12
 -10   3   9    1.08    0.14
   9  -3  -9    0.11    0.07
   9  -3  -9   -0.10    0.09
  -9   3   9    0.01    0.09
  -9   3   9   -0.03    0.09
   8  -3  -9    1.72    0.14
   8  -3  -9    1.77    0.18
  -8   3   9    2.07    0.17
  -8   3   9    1.85    0.16
  -8   3   9    1.99    0.19
   7  -3  -9    0.25    0.06
   7  -3  -9    0.39    0.11
  -7   3   9    0.23    0.08
  -7   3   9    0.31    0.10
  -7   3   9    0.34    0.11
   6  -3  -9   -0.03    0.10
   6  -3  -9    0.01    0.04
  -6   3   9    0.05    0.07
  -6   3   9   -0.13    0.09
  -6   3   9    0.09    0.09
   5  -3  -9    0.49    0.12
   5  -3  -9    0.47    0.06
  -5   3   9    0.47    0.08
  -5   3   9    0.49    0.11
  -5   3   9    0.51    0.12
   4  -3  -9    0.20    0.10
   4  -3  -9    0.25    0.06
  -4   3   9    0.19    0.07
  -4   3   9    0.21    0.10
  -4   3   9    0.33    0.10
   3  -3  -9    1.20    0.16
   3  -3  -9    1.02    0.10
  -3   3   9    1.21    0.14
  -3   3   9    1.15    0.16
  -3   3   9    1.09    0.11
   2  -3  -9    0.06    0.11
   2  -3  -9   -0.11    0.07
  -2   3   9    0.05    0.06
  -2   3   9    0.24    0.12
   1  -3  -9    0.79    0.14
   1  -3  -9    0.54    0.10
  -1   3   9    0.45    0.12
   0  -3  -9    0.08    0.08
   0  -3  -9   -0.10    0.10
   0   3   9   -0.12    0.07
   0   3   9   -0.05    0.10
  -1  -3  -9    2.20    0.20
   1   3   9    2.62    0.22
   1   3   9    2.18    0.18
   9  -4  -9    0.01    0.07
   9  -4  -9    0.22    0.11
  -9   4   9    0.15    0.10
   8  -4  -9   -0.13    0.06
   8  -4  -9    0.01    0.10
  -8   4   9    0.01    0.08
  -8   4   9   -0.08    0.10
   7  -4  -9    0.13    0.11
   7  -4  -9    0.00    0.05
  -7   4   9   -0.05    0.09
  -7   4   9    0.04    0.08
   6  -4  -9    2.41    0.21
  -6   4   9    2.44    0.21
  -6   4   9    2.46    0.17
   5  -4  -9    1.71    0.12
   5  -4  -9    1.18    0.15
  -5   4   9    1.50    0.17
  -5   4   9    1.18    0.12
   4  -4  -9    1.53    0.13
   4  -4  -9    1.32    0.16
  -4   4   9    1.26    0.12
  -4   4   9    1.70    0.17
   3  -4  -9    0.48    0.13
   3  -4  -9    0.09    0.08
  -3   4   9    0.43    0.13
  -3   4   9    0.42    0.08
   2  -4  -9    0.14    0.08
   2  -4  -9    0.38    0.12
  -2   4   9    0.34    0.12
  -2   4   9    0.33    0.07
   1  -4  -9    0.46    0.10
   1  -4  -9    0.71    0.14
  -1   4   9    0.45    0.13
   8  -5  -9    0.86    0.15
  -8   5   9    1.12    0.16
  -8   5   9    0.80    0.12
   7  -5  -9    0.51    0.14
  -7   5   9    0.55    0.10
  -7   5   9    0.68    0.14
   6  -5  -9    0.51    0.14
  -6   5   9    0.51    0.14
  -6   5   9    0.42    0.09
   5  -5  -9    0.19    0.07
   5  -5  -9    0.17    0.12
  -5   5   9    0.12    0.07
  -5   5   9    0.19    0.12
   4  -5  -9   -0.03    0.07
   4  -5  -9    0.06    0.11
  -4   5   9    0.06    0.06
  -4   5   9   -0.11    0.11
   3  -5  -9   -0.08    0.11
   3  -5  -9   -0.08    0.07
  -3   5   9    0.04    0.06
  -3   5   9    0.18    0.12
   6  -6  -9    0.43    0.14
   0  11 -10    0.38    0.08
   0 -11  10    0.38    0.10
   0 -11  10    0.38    0.09
   0 -11  10    0.40    0.11
  -1  11 -10    0.09    0.09
  -1  11 -10    0.14    0.07
   1 -11  10    0.03    0.08
   1 -11  10    0.09    0.09
   1 -11  10    0.04    0.08
  -2  11 -10    0.33    0.10
  -2  11 -10    0.41    0.09
   2 -11  10    0.31    0.10
   2 -11  10    0.42    0.10
   2 -11  10    0.39    0.10
  -3  11 -10    0.22    0.08
  -3  11 -10    0.26    0.10
   3 -11  10    0.18    0.09
   3 -11  10    0.02    0.07
   3 -11  10    0.27    0.10
  -4  11 -10    0.81    0.13
  -4  11 -10    0.70    0.11
   4 -11  10    0.71    0.13
   4 -11  10    0.76    0.12
   4 -11  10    0.80    0.12
  -5  11 -10    0.13    0.09
  -5  11 -10    0.08    0.10
   5 -11  10    0.00    0.09
   5 -11  10    0.04    0.08
   5 -11  10    0.12    0.10
   2  10 -10   -0.02    0.06
  -2 -10  10    0.01    0.07
  -2 -10  10   -0.06    0.05
   1  10 -10    0.05    0.06
   1  10 -10   -0.07    0.08
  -1 -10  10    0.08    0.07
  -1 -10  10   -0.07    0.07
  -1 -10  10   -0.06    0.07
   0  10 -10    0.31    0.10
   0  10 -10    0.35    0.07
   0 -10  10    0.28    0.09
   0 -10  10    0.35    0.09
   0 -10  10    0.28    0.10
  -1  10 -10    0.34    0.10
  -1  10 -10    0.35    0.08
   1 -10  10    0.26    0.08
   1 -10  10    0.38    0.09
   1 -10  10    0.26    0.10
  -2  10 -10    0.40    0.10
  -2  10 -10    0.32    0.08
   2 -10  10    0.45    0.09
   2 -10  10    0.34    0.10
   2 -10  10    0.35    0.09
  -3  10 -10   -0.05    0.08
  -3  10 -10    0.07    0.07
   3 -10  10    0.00    0.07
   3 -10  10   -0.05    0.06
   3 -10  10    0.03    0.08
  -4  10 -10    0.36    0.10
  -4  10 -10    0.28    0.09
   4 -10  10    0.41    0.11
   4 -10  10    0.45    0.09
   4 -10  10    0.34    0.09
  -5  10 -10    0.06    0.08
  -5  10 -10    0.21    0.09
   5 -10  10    0.06    0.09
   5 -10  10    0.08    0.08
   5 -10  10    0.03    0.07
  -6  10 -10    2.15    0.18
   6 -10  10    1.67    0.16
   6 -10  10    1.69    0.17
   6 -10  10    1.32    0.13
   3   9 -10    0.10    0.07
   3   9 -10    0.15    0.09
  -3  -9  10    0.09    0.08
  -3  -9  10    0.06    0.07
   2   9 -10   -0.10    0.06
   2   9 -10   -0.10    0.07
  -2  -9  10    0.01    0.06
  -2  -9  10    0.04    0.07
  -2  -9  10    0.15    0.09
   1   9 -10    0.05    0.07
   1   9 -10   -0.06    0.05
  -1  -9  10   -0.05    0.08
  -1  -9  10   -0.04    0.07
  -1  -9  10    0.02    0.05
  -1  -9  10   -0.02    0.07
   0   9 -10    0.07    0.06
   0   9 -10    0.04    0.07
   0  -9  10    0.05    0.07
   0  -9  10    0.02    0.07
   0  -9  10    0.03    0.04
   0  -9  10   -0.03    0.07
  -1   9 -10    0.07    0.07
  -1   9 -10    0.05    0.06
   1  -9  10    0.07    0.07
   1  -9  10    0.00    0.07
   1  -9  10   -0.01    0.07
  -2   9 -10    2.62    0.16
  -2   9 -10    2.45    0.19
   2  -9  10    2.32    0.19
   2  -9  10    2.37    0.17
   2  -9  10    2.44    0.17
  -3   9 -10    0.01    0.07
  -3   9 -10    0.10    0.07
   3  -9  10   -0.02    0.06
   3  -9  10   -0.01    0.06
   3  -9  10    0.08    0.08
  -4   9 -10    0.12    0.08
  -4   9 -10    0.08    0.07
   4  -9  10    0.18    0.07
   4  -9  10    0.04    0.07
   4  -9  10    0.08    0.08
  -5   9 -10   -0.03    0.07
  -5   9 -10    0.09    0.08
   5  -9  10   -0.01    0.06
   5  -9  10    0.02    0.07
   5  -9  10    0.04    0.08
  -6   9 -10    0.06    0.08
   6  -9  10   -0.08    0.08
   6  -9  10    0.16    0.07
   6  -9  10   -0.04    0.08
   4   8 -10    4.74    0.24
   4   8 -10    4.81    0.25
  -4  -8  10    4.83    0.25
  -4  -8  10    4.79    0.23
   3   8 -10    0.95    0.12
   3   8 -10    0.70    0.10
  -3  -8  10    0.71    0.09
  -3  -8  10    0.70    0.11
  -3  -8  10    0.89    0.12
   2   8 -10    2.94    0.14
   2   8 -10    2.87    0.20
  -2  -8  10    3.04    0.20
  -2  -8  10    2.97    0.15
  -2  -8  10    3.04    0.18
   1   8 -10    3.75    0.17
   1   8 -10    4.28    0.23
  -1  -8  10    3.85    0.21
  -1  -8  10    3.91    0.16
  -1  -8  10    3.89    0.20
  -1  -8  10    4.28    0.23
   0   8 -10    0.29    0.09
   0   8 -10    0.40    0.07
   0  -8  10    0.40    0.05
   0  -8  10    0.28    0.08
   0  -8  10    0.40    0.08
   0  -8  10    0.36    0.10
  -1   8 -10    0.43    0.10
  -1   8 -10    0.43    0.08
   1  -8  10    0.21    0.08
   1  -8  10    0.38    0.10
   1  -8  10    0.42    0.08
  -2   8 -10    0.87    0.10
  -2   8 -10    0.77    0.11
   2  -8  10    0.79    0.10
   2  -8  10    0.83    0.12
   2  -8  10    0.78    0.10
  -3   8 -10   -0.04    0.07
  -3   8 -10   -0.08    0.06
   3  -8  10    0.01    0.07
   3  -8  10    0.03    0.06
   3  -8  10   -0.05    0.06
  -4   8 -10    0.29    0.09
  -4   8 -10    0.19    0.08
   4  -8  10    0.25    0.09
   4  -8  10    0.32    0.08
   4  -8  10    0.21    0.07
  -5   8 -10   -0.03    0.08
  -5   8 -10    0.05    0.07
   5  -8  10    0.05    0.06
   5  -8  10    0.08    0.08
   5  -8  10   -0.02    0.07
  -6   8 -10    0.31    0.10
   6  -8  10    0.32    0.08
   6  -8  10    0.10    0.09
   6  -8  10    0.16    0.10
   5   7 -10    9.26    0.37
   5   7 -10    9.73    0.35
  -5  -7  10    9.04    0.35
  -5  -7  10    9.62    0.34
   4   7 -10    0.49    0.10
   4   7 -10    0.60    0.09
  -4  -7  10    0.53    0.10
  -4  -7  10    0.42    0.09
   3   7 -10    4.07    0.15
   3   7 -10    3.85    0.22
  -3  -7  10    4.19    0.23
  -3  -7  10    3.68    0.21
   2   7 -10   11.63    0.43
   2   7 -10   11.90    0.34
  -2  -7  10   11.53    0.42
  -2  -7  10   11.28    0.39
   1   7 -10    2.96    0.15
   1   7 -10    2.80    0.19
  -1  -7  10    2.49    0.17
  -1  -7  10    2.82    0.19
   0   7 -10   11.62    0.43
   0   7 -10   12.19    0.37
   0  -7  10   12.08    0.39
   0  -7  10   11.46    0.43
   0  -7  10   11.84    0.40
  -1   7 -10    2.77    0.15
  -1   7 -10    2.74    0.18
   1  -7  10    3.02    0.10
   1  -7  10    3.13    0.17
   1  -7  10    3.05    0.19
   1  -7  10    3.04    0.11
   1  -7  10    3.20    0.18
  -2   7 -10    0.29    0.07
  -2   7 -10    0.33    0.09
   2  -7  10    0.29    0.09
   2  -7  10    0.26    0.08
   2  -7  10    0.32    0.07
   2  -7  10    0.35    0.05
  -3   7 -10    1.87    0.14
  -3   7 -10    1.53    0.15
   3  -7  10    1.38    0.14
   3  -7  10    1.50    0.14
   3  -7  10    1.60    0.09
   3  -7  10    1.57    0.13
  -4   7 -10    0.36    0.09
  -4   7 -10    0.17    0.09
   4  -7  10    0.28    0.05
   4  -7  10    0.26    0.08
   4  -7  10    0.24    0.09
   4  -7  10    0.17    0.07
  -5   7 -10   -0.02    0.08
  -5   7 -10   -0.03    0.07
   5  -7  10   -0.16    0.06
   5  -7  10    0.01    0.05
   5  -7  10    0.03    0.08
   5  -7  10   -0.09    0.06
  -6   7 -10    0.22    0.10
   6  -7  10    0.37    0.10
   6  -7  10    0.26    0.09
   6  -7  10    0.32    0.08
   6   6 -10    0.27    0.08
   6   6 -10    0.21    0.09
  -6  -6  10    0.16    0.08
  -6  -6  10    0.15    0.08
   5   6 -10    0.92    0.12
   5   6 -10    0.77    0.10
  -5  -6  10    0.80    0.10
  -5  -6  10    0.74    0.11
   4   6 -10    0.08    0.08
  -4  -6  10   -0.02    0.07
  -4  -6  10    0.12    0.08
  -4  -6  10   -0.03    0.06
   3   6 -10    2.84    0.12
   3   6 -10    2.54    0.18
  -3  -6  10    2.90    0.17
  -3  -6  10    2.97    0.18
  -3  -6  10    2.59    0.19
   2   6 -10    0.03    0.05
   2   6 -10    0.02    0.07
  -2  -6  10    0.04    0.08
  -2  -6  10    0.07    0.07
   1   6 -10   -0.01    0.05
   1   6 -10    0.00    0.07
  -1  -6  10   -0.03    0.07
  -1  -6  10   -0.01    0.06
   0   6 -10    2.81    0.19
   0   6 -10    2.82    0.15
   0  -6  10    2.80    0.19
   0  -6  10    2.87    0.16
   0  -6  10    2.88    0.17
  -1   6 -10   10.49    0.39
  -1   6 -10   10.50    0.34
   1  -6  10   10.46    0.39
   1  -6  10   10.09    0.35
   1  -6  10   10.91    0.35
  -2   6 -10    0.05    0.07
  -2   6 -10    0.02    0.06
   2  -6  10    0.13    0.06
   2  -6  10    0.10    0.04
   2  -6  10    0.00    0.06
   2  -6  10    0.10    0.08
  -3   6 -10    0.13    0.08
  -3   6 -10    0.27    0.08
   3  -6  10    0.11    0.07
   3  -6  10    0.14    0.05
   3  -6  10    0.04    0.08
   3  -6  10    0.17    0.06
  -4   6 -10    0.48    0.09
  -4   6 -10    0.53    0.10
   4  -6  10    0.51    0.07
   4  -6  10    0.48    0.09
   4  -6  10    0.44    0.08
   4  -6  10    0.56    0.10
  -5   6 -10    0.04    0.08
   5  -6  10    0.06    0.05
   5  -6  10   -0.07    0.07
   5  -6  10    0.00    0.07
   5  -6  10    0.00    0.08
  -6   6 -10    0.34    0.11
   6  -6  10    0.42    0.08
   6  -6  10    0.56    0.11
   7   5 -10    2.43    0.18
   7   5 -10    2.66    0.19
  -7  -5  10    2.52    0.18
  -7  -5  10    2.61    0.18
   6   5 -10    0.81    0.12
   6   5 -10    0.87    0.11
  -6  -5  10    0.62    0.11
  -6  -5  10    0.76    0.10
   5   5 -10    1.57    0.15
   5   5 -10    1.51    0.14
  -5  -5  10    1.60    0.15
  -5  -5  10    1.53    0.14
  -5  -5  10    1.41    0.13
   4   5 -10    1.33    0.14
   4   5 -10    1.48    0.08
  -4  -5  10    1.42    0.14
  -4  -5  10    1.58    0.14
  -4  -5  10    1.36    0.14
   3   5 -10    0.04    0.04
   3   5 -10   -0.07    0.07
  -3  -5  10    0.01    0.07
  -3  -5  10   -0.01    0.07
  -3  -5  10   -0.09    0.07
   2   5 -10    1.37    0.10
   2   5 -10    1.47    0.08
   2   5 -10    1.39    0.14
  -2  -5  10    1.24    0.13
  -2  -5  10    1.03    0.11
  -2  -5  10    1.29    0.12
   1   5 -10    3.14    0.20
   1   5 -10    3.28    0.15
  -1  -5  10    3.18    0.18
  -1  -5  10    2.89    0.19
   0   5 -10    0.05    0.07
   0   5 -10    0.04    0.06
   0  -5  10    0.06    0.07
   0  -5  10    0.09    0.05
   0  -5  10    0.02    0.08
  -1   5 -10   -0.02    0.07
  -1   5 -10   -0.14    0.06
   1  -5  10   -0.10    0.07
   1  -5  10    0.04    0.06
   1  -5  10    0.12    0.05
  -2   5 -10    0.55    0.09
  -2   5 -10    0.65    0.10
   2  -5  10    0.44    0.10
   2  -5  10    0.63    0.07
   2  -5  10    0.53    0.09
   2  -5  10    0.52    0.07
  -3   5 -10    1.55    0.15
  -3   5 -10    1.73    0.15
   3  -5  10    1.54    0.14
   3  -5  10    1.55    0.12
   3  -5  10    1.67    0.12
   3  -5  10    1.62    0.16
  -4   5 -10   -0.01    0.07
  -4   5 -10    0.04    0.08
   4  -5  10    0.14    0.07
   4  -5  10    0.03    0.05
   4  -5  10    0.03    0.06
   4  -5  10    0.00    0.08
  -5   5 -10    0.36    0.10
   5  -5  10    0.19    0.08
   5  -5  10    0.21    0.07
   5  -5  10    0.18    0.09
  -6   5 -10    0.37    0.11
   6  -5  10    0.27    0.10
   6  -5  10    0.32    0.08
   7   4 -10    2.47    0.18
   7   4 -10    2.27    0.18
  -7  -4  10    2.57    0.18
  -7  -4  10    2.37    0.18
   6   4 -10    0.01    0.06
   6   4 -10   -0.03    0.08
  -6  -4  10   -0.02    0.07
  -6  -4  10   -0.05    0.08
  -6  -4  10    0.00    0.07
   5   4 -10    5.47    0.26
  -5  -4  10    5.29    0.26
  -5  -4  10    5.41    0.25
  -5  -4  10    5.43    0.24
   4   4 -10    1.68    0.17
   4   4 -10    1.96    0.10
  -4  -4  10    1.95    0.15
  -4  -4  10    1.84    0.17
  -4  -4  10    2.23    0.16
   3   4 -10    1.51    0.10
   3   4 -10    1.33    0.14
   3   4 -10    1.41    0.09
  -3  -4  10    1.16    0.12
  -3  -4  10    1.42    0.14
  -3  -4  10    1.24    0.12
   2   4 -10    0.09    0.04
   2   4 -10    0.03    0.08
   2   4 -10    0.07    0.05
  -2  -4  10   -0.12    0.06
  -2  -4  10    0.07    0.07
  -2  -4  10    0.09    0.08
   1   4 -10   15.04    0.51
   1   4 -10   15.08    0.44
  -1  -4  10   15.58    0.51
  -1  -4  10   14.41    0.47
   0   4 -10    4.69    0.20
   0   4 -10    4.70    0.24
   0  -4  10    4.80    0.24
   0  -4  10    4.72    0.19
   0  -4  10    4.68    0.22
  -1   4 -10    0.20    0.08
  -1   4 -10    0.18    0.07
   1  -4  10    0.19    0.09
   1  -4  10    0.27    0.05
   1  -4  10    0.27    0.07
  -2   4 -10    4.55    0.25
  -2   4 -10    5.12    0.22
   2  -4  10    4.69    0.25
   2  -4  10    5.20    0.20
   2  -4  10    4.98    0.22
   2  -4  10    5.16    0.19
  -3   4 -10    0.45    0.10
  -3   4 -10    0.87    0.12
   3  -4  10    0.66    0.08
   3  -4  10    0.58    0.07
   3  -4  10    0.53    0.09
   3  -4  10    0.51    0.10
  -4   4 -10    0.46    0.10
   4  -4  10    0.48    0.09
   4  -4  10    0.28    0.07
   4  -4  10    0.41    0.10
  -5   4 -10    3.29    0.21
   5  -4  10    3.07    0.19
   5  -4  10    3.24    0.19
   5  -4  10    3.12    0.21
   8   3 -10    0.25    0.09
   8   3 -10    0.48    0.11
  -8  -3  10    0.25    0.09
  -8  -3  10    0.20    0.09
   7   3 -10    2.23    0.18
   7   3 -10    1.89    0.16
  -7  -3  10    2.10    0.17
  -7  -3  10    2.28    0.17
   6   3 -10    6.72    0.30
   6   3 -10    6.71    0.27
  -6  -3  10    6.79    0.30
  -6  -3  10    7.15    0.29
  -6  -3  10    7.12    0.28
   5   3 -10    2.42    0.19
   5   3 -10    2.23    0.10
  -5  -3  10    2.30    0.16
  -5  -3  10    2.48    0.17
  -5  -3  10    2.13    0.19
   4   3 -10   17.78    0.48
   4   3 -10   17.63    0.59
   4   3 -10   18.00    0.47
  -4  -3  10   18.07    0.59
  -4  -3  10   18.02    0.55
  -4  -3  10   17.60    0.54
   3   3 -10    6.34    0.28
   3   3 -10    6.47    0.22
   3   3 -10    6.04    0.19
  -3  -3  10    5.96    0.28
  -3  -3  10    6.11    0.25
  -3  -3  10    6.48    0.27
   2   3 -10    0.77    0.09
   2   3 -10    0.89    0.12
  -2  -3  10    1.13    0.13
  -2  -3  10    0.91    0.11
  -2  -3  10    0.77    0.10
   1   3 -10    7.23    0.31
  -1  -3  10    6.94    0.28
  -1  -3  10    7.03    0.27
  -1  -3  10    7.19    0.31
   0   3 -10    1.84    0.16
   0  -3  10    1.81    0.16
   0  -3  10    1.87    0.11
   0  -3  10    1.77    0.14
  -1   3 -10    0.42    0.10
   1  -3  10    0.51    0.09
   1  -3  10    0.58    0.06
   1  -3  10    0.47    0.11
  -2   3 -10   -0.18    0.08
   2  -3  10   -0.07    0.08
   2  -3  10    0.02    0.07
   2  -3  10    0.02    0.06
   2  -3  10   -0.03    0.04
  -3   3 -10    0.27    0.09
  -3   3 -10    0.25    0.10
   3  -3  10    0.43    0.09
   3  -3  10    0.29    0.10
   3  -3  10    0.27    0.08
  -4   3 -10    2.55    0.19
  -4   3 -10    2.35    0.19
   4  -3  10    2.51    0.20
   4  -3  10    2.55    0.18
   4  -3  10    2.37    0.17
  -5   3 -10    4.04    0.23
  -5   3 -10    3.73    0.23
   5  -3  10    3.54    0.20
   5  -3  10    3.34    0.22
   8   2 -10    0.10    0.09
   8   2 -10    0.07    0.07
  -8  -2  10    0.07    0.09
  -8  -2  10    0.02    0.08
   7   2 -10    3.50    0.19
   7   2 -10    3.66    0.22
  -7  -2  10    3.87    0.21
  -7  -2  10    3.83    0.21
   6   2 -10   12.82    0.46
  -6  -2  10   12.74    0.43
  -6  -2  10   13.08    0.43
  -6  -2  10   13.14    0.46
   5   2 -10   26.03    0.67
   5   2 -10   25.50    0.79
  -5  -2  10   26.27    0.74
  -5  -2  10   25.84    0.74
  -5  -2  10   25.91    0.80
   4   2 -10    0.08    0.08
   4   2 -10   -0.07    0.03
  -4  -2  10    0.07    0.08
  -4  -2  10    0.02    0.08
  -4  -2  10    0.04    0.07
   3   2 -10    4.96    0.25
   3   2 -10    4.94    0.17
  -3  -2  10    4.76    0.23
  -3  -2  10    4.48    0.21
  -3  -2  10    4.61    0.24
   2   2 -10   14.67    0.43
   2   2 -10   14.98    0.51
  -2  -2  10   15.10    0.47
  -2  -2  10   14.68    0.47
  -2  -2  10   15.18    0.51
   1   2 -10    1.15    0.10
   1   2 -10    1.06    0.13
  -1  -2  10    1.05    0.13
  -1  -2  10    1.14    0.12
  -1  -2  10    1.34    0.13
   0   2 -10    4.16    0.24
   0   2 -10    4.07    0.20
   0  -2  10    4.37    0.16
   0  -2  10    4.45    0.21
   0  -2  10    4.46    0.24
  -1   2 -10    9.01    0.34
  -1   2 -10    9.64    0.38
   1  -2  10    9.41    0.38
   1  -2  10    9.29    0.34
   1  -2  10    9.70    0.28
  -2   2 -10    0.35    0.10
  -2   2 -10    0.46    0.10
   2  -2  10    0.46    0.11
   2  -2  10    0.45    0.08
   2  -2  10    0.42    0.09
  -3   2 -10    1.38    0.14
   3  -2  10    1.35    0.13
   3  -2  10    1.28    0.14
   3  -2  10    1.30    0.13
  -4   2 -10    0.17    0.10
   4  -2  10    0.15    0.08
   4  -2  10    0.10    0.08
   4  -2  10    0.25    0.10
   9   1 -10    0.02    0.08
   9   1 -10    0.14    0.09
  -9  -1  10   -0.05    0.09
  -9  -1  10    0.04    0.08
   8   1 -10    6.02    0.28
   8   1 -10    5.60    0.26
  -8  -1  10    6.07    0.28
  -8  -1  10    6.23    0.28
   7   1 -10   -0.03    0.06
   7   1 -10   -0.09    0.08
  -7  -1  10    0.10    0.08
  -7  -1  10    0.07    0.08
  -7  -1  10   -0.02    0.09
   6   1 -10    0.75    0.12
  -6  -1  10    0.70    0.11
  -6  -1  10    0.60    0.10
  -6  -1  10    0.78    0.13
   5   1 -10    2.62    0.19
  -5  -1  10    2.50    0.19
  -5  -1  10    2.71    0.17
  -5  -1  10    2.26    0.19
   4   1 -10    2.00    0.10
   4   1 -10    2.09    0.18
  -4  -1  10    2.04    0.18
  -4  -1  10    1.96    0.17
  -4  -1  10    1.83    0.15
   3   1 -10    0.02    0.05
   3   1 -10   -0.03    0.07
  -3  -1  10    0.03    0.07
  -3  -1  10    0.03    0.08
  -3  -1  10   -0.08    0.06
   2   1 -10    0.75    0.11
   2   1 -10    0.89    0.09
  -2  -1  10    0.82    0.13
  -2  -1  10    1.04    0.09
  -2  -1  10    0.83    0.11
  -2  -1  10    0.93    0.10
   1   1 -10    0.19    0.06
   1   1 -10    0.13    0.09
  -1  -1  10    0.11    0.08
  -1  -1  10    0.20    0.04
  -1  -1  10   -0.01    0.09
  -1  -1  10    0.28    0.08
   0   1 -10   14.65    0.51
   0   1 -10   14.40    0.45
   0  -1  10   14.57    0.51
   0  -1  10   14.86    0.47
  -1   1 -10   10.63    0.37
  -1   1 -10   10.69    0.42
   1  -1  10   10.63    0.38
   1  -1  10   10.55    0.41
  -2   1 -10    0.95    0.12
  -2   1 -10    0.82    0.13
   2  -1  10    0.84    0.11
   2  -1  10    0.87    0.11
   2  -1  10    0.85    0.13
  -3   1 -10    0.31    0.10
   3  -1  10    0.33    0.09
   3  -1  10    0.35    0.09
   3  -1  10    0.29    0.11
   9   0 -10    0.11    0.08
   9   0 -10    0.12    0.10
  -9   0  10    0.02    0.08
  -9   0  10    0.20    0.09
   8   0 -10    0.09    0.07
   8   0 -10    0.00    0.09
  -8   0  10    0.01    0.09
  -8   0  10    0.01    0.09
   7   0 -10   10.29    0.35
   7   0 -10   10.16    0.40
  -7   0  10   10.48    0.37
  -7   0  10   10.46    0.38
  -7   0  10   10.29    0.40
   6   0 -10    0.21    0.10
  -6   0  10    0.36    0.11
  -6   0  10    0.10    0.08
  -6   0  10    0.04    0.09
   5   0 -10    0.40    0.10
  -5   0  10    0.36    0.11
  -5   0  10    0.47    0.10
  -5   0  10    0.59    0.09
   4   0 -10    1.39    0.15
   4   0 -10    1.58    0.09
  -4   0  10    1.46    0.14
  -4   0  10    1.67    0.14
  -4   0  10    1.77    0.16
   3   0 -10    0.00    0.05
   3   0 -10    0.01    0.09
  -3   0  10   -0.12    0.06
  -3   0  10   -0.07    0.09
  -3   0  10   -0.04    0.08
   2   0 -10    1.01    0.09
   2   0 -10    0.80    0.12
  -2   0  10    0.69    0.11
  -2   0  10    0.92    0.13
  -2   0  10    0.86    0.10
   1   0 -10    3.19    0.22
   1   0 -10    3.27    0.18
  -1   0  10    3.29    0.21
  -1   0  10    2.87    0.22
  -1   0  10    3.42    0.19
   0   0 -10    0.95    0.14
   0   0 -10    0.95    0.11
   0   0  10    0.83    0.14
   0   0  10    0.67    0.11
  -1   0 -10    0.00    0.09
  -1   0 -10    0.02    0.08
   1   0  10    0.05    0.07
   1   0  10    0.03    0.08
   1   0  10   -0.04    0.09
  -2   0 -10   -0.15    0.07
   2   0  10    0.05    0.08
   2   0  10   -0.01    0.09
   2   0  10   -0.03    0.07
  -3   0 -10    0.05    0.09
   3   0  10   -0.06    0.07
   3   0  10   -0.01    0.09
   9  -1 -10    0.07    0.10
   9  -1 -10    0.11    0.08
  -9   1  10   -0.08    0.09
  -9   1  10    0.00    0.09
   8  -1 -10    0.35    0.09
   8  -1 -10    0.54    0.12
  -8   1  10    0.36    0.10
  -8   1  10    0.20    0.10
   7  -1 -10    2.24    0.15
   7  -1 -10    2.36    0.21
  -7   1  10    2.34    0.20
  -7   1  10    2.34    0.17
  -7   1  10    2.62    0.22
   6  -1 -10    0.03    0.09
  -6   1  10    0.05    0.10
  -6   1  10   -0.18    0.07
  -6   1  10   -0.05    0.07
   5  -1 -10    2.15    0.19
   5  -1 -10    2.04    0.10
  -5   1  10    1.95    0.19
  -5   1  10    2.39    0.17
  -5   1  10    2.29    0.18
   4  -1 -10    0.25    0.05
   4  -1 -10    0.33    0.11
  -4   1  10    0.34    0.11
  -4   1  10    0.25    0.09
  -4   1  10    0.38    0.08
   3  -1 -10   -0.01    0.05
   3  -1 -10   -0.10    0.10
  -3   1  10   -0.10    0.08
  -3   1  10   -0.13    0.10
  -3   1  10   -0.02    0.06
   2  -1 -10    3.63    0.18
   2  -1 -10    3.49    0.23
  -2   1  10    3.24    0.19
  -2   1  10    3.50    0.24
  -2   1  10    3.41    0.21
   1  -1 -10   22.79    0.72
   1  -1 -10   21.55    0.63
  -1   1  10   21.61    0.71
  -1   1  10   21.42    0.66
   0  -1 -10    0.04    0.08
   0  -1 -10   -0.01    0.10
   0   1  10    0.07    0.10
   0   1  10   -0.02    0.09
  -1  -1 -10    0.02    0.08
   1   1  10    0.03    0.08
   1   1  10   -0.01    0.10
  -2  -1 -10    1.03    0.13
   2   1  10    1.02    0.13
   2   1  10    0.89    0.15
   9  -2 -10    0.57    0.10
   9  -2 -10    0.65    0.13
  -9   2  10    0.63    0.12
  -9   2  10    0.42    0.11
   8  -2 -10    0.31    0.11
   8  -2 -10    0.38    0.08
  -8   2  10    0.45    0.10
  -8   2  10    0.41    0.12
  -8   2  10    0.38    0.12
   7  -2 -10    0.14    0.06
   7  -2 -10    0.16    0.10
  -7   2  10    0.02    0.10
  -7   2  10    0.15    0.09
  -7   2  10    0.14    0.10
   6  -2 -10    0.49    0.12
  -6   2  10    0.73    0.10
  -6   2  10    0.66    0.13
  -6   2  10    0.83    0.12
   5  -2 -10    0.58    0.13
   5  -2 -10    0.57    0.06
  -5   2  10    0.55    0.12
  -5   2  10    0.57    0.11
  -5   2  10    0.45    0.09
   4  -2 -10    3.05    0.23
   4  -2 -10    2.91    0.15
  -4   2  10    2.98    0.21
  -4   2  10    2.83    0.18
  -4   2  10    2.76    0.22
   3  -2 -10    0.20    0.11
   3  -2 -10    0.06    0.06
  -3   2  10    0.03    0.07
  -3   2  10    0.13    0.11
  -3   2  10    0.19    0.10
   2  -2 -10    0.39    0.13
   2  -2 -10    0.21    0.08
  -2   2  10    0.09    0.10
  -2   2  10    0.39    0.13
  -2   2  10    0.14    0.08
   1  -2 -10   -0.07    0.11
   1  -2 -10    0.14    0.08
  -1   2  10    0.23    0.12
  -1   2  10   -0.11    0.10
   0  -2 -10   -0.04    0.07
   0  -2 -10   -0.04    0.10
   0   2  10   -0.08    0.07
   0   2  10    0.01    0.11
   9  -3 -10    1.71    0.14
  -9   3  10    1.76    0.17
  -9   3  10    1.96    0.18
   8  -3 -10    0.07    0.07
   8  -3 -10   -0.11    0.10
  -8   3  10    0.11    0.09
  -8   3  10   -0.20    0.10
  -8   3  10   -0.24    0.09
   7  -3 -10    1.25    0.10
   7  -3 -10    1.23    0.16
  -7   3  10    1.02    0.12
  -7   3  10    1.31    0.16
  -7   3  10    1.08    0.15
   6  -3 -10    1.37    0.17
  -6   3  10    1.40    0.17
  -6   3  10    1.34    0.15
  -6   3  10    1.57    0.15
   5  -3 -10    3.34    0.25
   5  -3 -10    3.19    0.16
  -5   3  10    3.51    0.20
  -5   3  10    3.37    0.25
  -5   3  10    3.64    0.23
   4  -3 -10    0.40    0.12
   4  -3 -10    0.47    0.08
  -4   3  10    0.52    0.14
  -4   3  10    0.43    0.11
  -4   3  10    0.24    0.08
   3  -3 -10    5.21    0.23
   3  -3 -10    5.40    0.31
  -3   3  10    5.76    0.25
  -3   3  10    5.72    0.31
   2  -3 -10    1.14    0.12
   2  -3 -10    1.27    0.17
  -2   3  10    1.28    0.12
  -2   3  10    1.38    0.18
   1  -3 -10    0.01    0.10
   1  -3 -10    0.08    0.08
  -1   3  10    0.01    0.12
  -8   4  10    2.30    0.19
  -8   4  10    2.39    0.24
   7  -4 -10    0.09    0.12
  -7   4  10    0.03    0.08
  -7   4  10    0.02    0.12
   6  -4 -10    0.73    0.15
  -6   4  10    0.58    0.10
  -6   4  10    0.58    0.14
   5  -4 -10    0.57    0.14
  -5   4  10    0.34    0.09
  -5   4  10    0.23    0.13
   4  -4 -10   -0.08    0.11
   4  -4 -10   -0.05    0.07
  -4   4  10    0.02    0.12
  -4   4  10   -0.14    0.06
   3  -4 -10    0.25    0.09
   3  -4 -10    0.50    0.14
  -3   4  10    0.47    0.14
  -3   4  10    0.20    0.08
  -1 -10  11    0.80    0.11
  -1 -10  11    1.00    0.13
  -1 -10  11    0.86    0.14
   0  10 -11    0.54    0.12
   0  10 -11    0.61    0.09
   0 -10  11    0.68    0.11
   0 -10  11    0.55    0.12
   0 -10  11    0.56    0.11
  -1  10 -11    3.20    0.18
  -1  10 -11    3.18    0.22
   1 -10  11    3.00    0.21
   1 -10  11    2.88    0.20
   1 -10  11    3.25    0.23
  -2  10 -11   -0.06    0.08
  -2  10 -11    0.03    0.07
   2 -10  11   -0.04    0.07
   2 -10  11    0.06    0.09
   2 -10  11    0.07    0.08
  -3  10 -11    0.21    0.08
  -3  10 -11    0.26    0.10
   3 -10  11    0.24    0.09
   3 -10  11    0.23    0.11
   3 -10  11    0.27    0.09
  -4  10 -11    0.11    0.10
  -4  10 -11    0.12    0.09
   4 -10  11    0.05    0.08
   4 -10  11    0.16    0.11
   4 -10  11    0.11    0.09
   2   9 -11    0.09    0.09
  -2  -9  11    0.05    0.08
  -2  -9  11    0.23    0.07
  -2  -9  11    0.05    0.08
   1   9 -11    0.10    0.06
   1   9 -11    0.04    0.08
  -1  -9  11   -0.02    0.08
  -1  -9  11    0.05    0.07
  -1  -9  11    0.04    0.07
   0   9 -11    3.93    0.24
   0   9 -11    4.11    0.19
   0  -9  11    4.04    0.22
   0  -9  11    3.68    0.22
   0  -9  11    3.96    0.24
  -1   9 -11    0.43    0.11
  -1   9 -11    0.47    0.09
   1  -9  11    0.39    0.09
   1  -9  11    0.51    0.11
   1  -9  11    0.46    0.09
  -2   9 -11    0.11    0.09
  -2   9 -11    0.06    0.07
   2  -9  11    0.07    0.09
   2  -9  11    0.03    0.07
   2  -9  11    0.12    0.07
  -3   9 -11    0.50    0.10
  -3   9 -11    0.35    0.10
   3  -9  11    0.53    0.11
   3  -9  11    0.57    0.10
   3  -9  11    0.51    0.10
  -4   9 -11    0.71    0.11
  -4   9 -11    0.44    0.11
   4  -9  11    0.45    0.11
   4  -9  11    0.32    0.09
   4  -9  11    0.68    0.11
  -5   9 -11    1.20    0.14
   5  -9  11    1.30    0.13
   5  -9  11    1.17    0.15
   5  -9  11    1.01    0.13
   4   8 -11    0.75    0.10
  -4  -8  11    0.78    0.12
  -4  -8  11    0.84    0.10
   3   8 -11    0.01    0.08
  -3  -8  11    0.00    0.08
  -3  -8  11    0.04    0.06
  -3  -8  11    0.01    0.07
   2   8 -11    0.52    0.07
   2   8 -11    0.51    0.11
  -2  -8  11    0.55    0.10
  -2  -8  11    0.62    0.12
  -2  -8  11    0.59    0.08
   1   8 -11    0.31    0.07
   1   8 -11    0.47    0.11
  -1  -8  11    0.47    0.09
  -1  -8  11    0.56    0.11
  -1  -8  11    0.40    0.06
  -1  -8  11    0.36    0.08
   0   8 -11   -0.03    0.06
   0   8 -11   -0.01    0.08
   0  -8  11   -0.04    0.06
   0  -8  11    0.00    0.08
   0  -8  11    0.07    0.08
  -1   8 -11    0.08    0.08
  -1   8 -11    0.28    0.08
   1  -8  11    0.23    0.10
   1  -8  11    0.10    0.08
   1  -8  11    0.09    0.07
  -2   8 -11    0.38    0.09
  -2   8 -11    0.67    0.11
   2  -8  11    0.69    0.12
   2  -8  11    0.55    0.10
   2  -8  11    0.54    0.09
  -3   8 -11    0.11    0.07
  -3   8 -11    0.08    0.08
   3  -8  11   -0.02    0.08
   3  -8  11   -0.07    0.06
   3  -8  11    0.06    0.07
  -4   8 -11    1.05    0.14
  -4   8 -11    0.94    0.12
   4  -8  11    1.06    0.12
   4  -8  11    1.08    0.12
   4  -8  11    1.13    0.14
  -5   8 -11   -0.11    0.08
   5  -8  11   -0.02    0.10
   5  -8  11   -0.04    0.07
   5  -8  11    0.03    0.08
   5   7 -11    1.82    0.16
   5   7 -11    1.80    0.17
  -5  -7  11    1.88    0.18
  -5  -7  11    2.03    0.17
   4   7 -11   -0.06    0.06
   4   7 -11   -0.13    0.07
  -4  -7  11   -0.05    0.07
  -4  -7  11    0.04    0.08
   3   7 -11    1.15    0.14
  -3  -7  11    1.30    0.15
  -3  -7  11    1.14    0.13
   2   7 -11    0.93    0.13
   2   7 -11    1.50    0.11
  -2  -7  11    1.13    0.14
  -2  -7  11    0.93    0.12
   1   7 -11    1.28    0.14
   1   7 -11    1.24    0.11
  -1  -7  11    1.22    0.13
  -1  -7  11    1.25    0.14
   0   7 -11    0.83    0.09
   0   7 -11    0.57    0.11
   0  -7  11    0.62    0.12
   0  -7  11    0.83    0.10
   0  -7  11    0.61    0.10
  -1   7 -11   -0.03    0.06
  -1   7 -11    0.03    0.08
   1  -7  11    0.05    0.06
   1  -7  11    0.02    0.08
   1  -7  11   -0.01    0.06
   1  -7  11    0.06    0.04
  -2   7 -11    0.29    0.08
  -2   7 -11    0.19    0.09
   2  -7  11    0.15    0.07
   2  -7  11    0.20    0.09
   2  -7  11    0.25    0.07
   2  -7  11    0.18    0.05
  -3   7 -11    0.65    0.12
  -3   7 -11    0.52    0.10
   3  -7  11    0.65    0.09
   3  -7  11    0.62    0.07
   3  -7  11    0.72    0.12
   3  -7  11    0.60    0.10
  -4   7 -11    0.12    0.09
  -4   7 -11    0.10    0.08
   4  -7  11    0.28    0.10
   4  -7  11    0.07    0.07
   4  -7  11    0.19    0.05
   4  -7  11    0.12    0.07
  -5   7 -11    1.43    0.15
   5  -7  11    1.29    0.16
   5  -7  11    1.37    0.13
   6   6 -11    2.14    0.20
   6   6 -11    2.49    0.19
  -6  -6  11    2.41    0.19
   5   6 -11   -0.05    0.06
   5   6 -11    0.09    0.08
  -5  -6  11    0.07    0.09
  -5  -6  11    0.04    0.08
   4   6 -11    0.82    0.12
  -4  -6  11    0.90    0.13
  -4  -6  11    0.88    0.11
  -4  -6  11    0.80    0.11
   3   6 -11    4.10    0.24
   3   6 -11    4.13    0.16
  -3  -6  11    4.15    0.22
  -3  -6  11    4.16    0.22
  -3  -6  11    4.21    0.24
   2   6 -11    0.59    0.08
   2   6 -11    0.92    0.13
  -2  -6  11    0.68    0.12
  -2  -6  11    0.52    0.10
   1   6 -11    0.82    0.09
   1   6 -11    0.88    0.12
  -1  -6  11    0.85    0.13
  -1  -6  11    0.81    0.11
   0   6 -11    0.77    0.09
   0   6 -11    0.49    0.11
   0  -6  11    0.83    0.12
   0  -6  11    0.78    0.09
   0  -6  11    0.62    0.10
  -1   6 -11    0.13    0.08
  -1   6 -11    0.14    0.07
   1  -6  11    0.11    0.06
   1  -6  11    0.14    0.09
   1  -6  11    0.10    0.05
   1  -6  11    0.16    0.08
  -2   6 -11    0.39    0.09
  -2   6 -11    0.28    0.09
   2  -6  11    0.32    0.07
   2  -6  11    0.16    0.08
   2  -6  11    0.32    0.10
   2  -6  11    0.34    0.06
  -3   6 -11   -0.02    0.08
  -3   6 -11    0.03    0.08
   3  -6  11    0.01    0.05
   3  -6  11   -0.01    0.06
   3  -6  11    0.07    0.07
   3  -6  11   -0.15    0.07
  -4   6 -11    2.43    0.22
  -4   6 -11    2.19    0.18
   4  -6  11    2.26    0.14
   4  -6  11    2.18    0.20
   4  -6  11    2.21    0.18
   4  -6  11    2.42    0.18
  -5   6 -11    2.02    0.18
   5  -6  11    1.83    0.14
   5  -6  11    1.93    0.17
   5  -6  11    2.04    0.20
   6   5 -11    1.91    0.17
   6   5 -11    1.81    0.18
  -6  -5  11    1.60    0.15
  -6  -5  11    1.83    0.17
   5   5 -11    1.40    0.15
  -5  -5  11    1.23    0.12
  -5  -5  11    1.40    0.15
  -5  -5  11    1.43    0.14
   4   5 -11    4.25    0.24
  -4  -5  11    4.30    0.24
  -4  -5  11    4.01    0.22
  -4  -5  11    4.35    0.22
   3   5 -11    0.07    0.08
   3   5 -11    0.15    0.05
  -3  -5  11    0.06    0.07
  -3  -5  11    0.13    0.09
  -3  -5  11    0.13    0.08
   2   5 -11    1.26    0.14
   2   5 -11    1.34    0.11
  -2  -5  11    1.13    0.12
  -2  -5  11    1.20    0.13
  -2  -5  11    1.31    0.15
   1   5 -11    5.35    0.22
   1   5 -11    5.53    0.27
  -1  -5  11    5.15    0.27
  -1  -5  11    5.46    0.25
   0   5 -11    1.34    0.15
   0   5 -11    1.43    0.13
   0  -5  11    1.09    0.12
   0  -5  11    1.23    0.14
   0  -5  11    1.23    0.11
  -1   5 -11    1.04    0.13
  -1   5 -11    0.98    0.11
   1  -5  11    1.07    0.14
   1  -5  11    0.98    0.11
   1  -5  11    0.83    0.09
  -2   5 -11    0.54    0.11
  -2   5 -11    0.53    0.10
   2  -5  11    0.53    0.07
   2  -5  11    0.59    0.12
   2  -5  11    0.46    0.07
   2  -5  11    0.42    0.09
  -3   5 -11    0.82    0.12
  -3   5 -11    0.97    0.13
   3  -5  11    1.03    0.14
   3  -5  11    0.94    0.12
   3  -5  11    1.09    0.10
   3  -5  11    1.01    0.11
  -4   5 -11   -0.12    0.07
   4  -5  11    0.03    0.09
   4  -5  11    0.00    0.08
   4  -5  11    0.14    0.07
  -5   5 -11    0.11    0.10
   5  -5  11    0.15    0.10
   5  -5  11    0.13    0.07
   5  -5  11    0.07    0.08
   7   4 -11    0.99    0.12
   7   4 -11    0.75    0.13
  -7  -4  11    0.77    0.11
  -7  -4  11    0.68    0.12
   6   4 -11    0.06    0.08
   6   4 -11   -0.07    0.06
  -6  -4  11    0.00    0.08
  -6  -4  11   -0.02    0.08
   5   4 -11    0.05    0.09
  -5  -4  11    0.06    0.08
  -5  -4  11    0.17    0.08
  -5  -4  11    0.01    0.09
   4   4 -11    1.49    0.15
   4   4 -11    1.41    0.10
  -4  -4  11    1.30    0.13
  -4  -4  11    1.70    0.17
  -4  -4  11    1.09    0.12
   3   4 -11    0.75    0.12
   3   4 -11    0.70    0.08
  -3  -4  11    0.75    0.12
  -3  -4  11    0.70    0.11
  -3  -4  11    0.73    0.10
   2   4 -11    4.95    0.26
   2   4 -11    4.81    0.20
  -2  -4  11    4.66    0.26
  -2  -4  11    5.19    0.24
  -2  -4  11    4.70    0.24
   1   4 -11    9.76    0.32
   1   4 -11    9.83    0.39
  -1  -4  11    9.32    0.35
  -1  -4  11    9.30    0.38
   0   4 -11    0.11    0.09
   0   4 -11    0.08    0.07
   0  -4  11    0.06    0.09
   0  -4  11    0.07    0.05
   0  -4  11    0.06    0.07
  -1   4 -11    0.00    0.09
  -1   4 -11   -0.02    0.07
   1  -4  11    0.04    0.05
   1  -4  11   -0.06    0.09
   1  -4  11    0.07    0.07
  -2   4 -11    3.21    0.20
  -2   4 -11    2.76    0.21
   2  -4  11    3.08    0.16
   2  -4  11    2.61    0.20
   2  -4  11    3.05    0.19
  -3   4 -11   -0.03    0.09
  -3   4 -11   -0.08    0.08
   3  -4  11   -0.02    0.09
   3  -4  11    0.00    0.07
   3  -4  11   -0.03    0.05
  -4   4 -11    0.12    0.09
   4  -4  11    0.19    0.08
   4  -4  11    0.20    0.09
   4  -4  11    0.13    0.11
   7   3 -11    1.83    0.17
   7   3 -11    1.89    0.17
  -7  -3  11    2.30    0.18
  -7  -3  11    1.77    0.16
   6   3 -11   -0.05    0.06
   6   3 -11    0.02    0.08
  -6  -3  11    0.08    0.08
  -6  -3  11    0.02    0.09
  -6  -3  11    0.19    0.09
   5   3 -11    0.10    0.09
  -5  -3  11    0.22    0.08
  -5  -3  11    0.06    0.09
  -5  -3  11    0.10    0.08
   4   3 -11    1.07    0.10
   4   3 -11    0.91    0.13
  -4  -3  11    0.98    0.11
  -4  -3  11    1.16    0.14
  -4  -3  11    0.94    0.12
   3   3 -11    0.06    0.06
   3   3 -11    0.10    0.05
   3   3 -11    0.26    0.10
  -3  -3  11    0.07    0.08
  -3  -3  11    0.11    0.09
  -3  -3  11    0.05    0.07
   2   3 -11    0.16    0.10
   2   3 -11    0.06    0.07
  -2  -3  11    0.12    0.08
  -2  -3  11    0.05    0.07
  -2  -3  11    0.09    0.09
   1   3 -11    0.78    0.13
  -1  -3  11    0.65    0.11
  -1  -3  11    1.01    0.13
  -1  -3  11    1.23    0.10
   0   3 -11   -0.10    0.08
   0  -3  11    0.04    0.04
   0  -3  11    0.09    0.08
   0  -3  11    0.02    0.09
  -1   3 -11    0.41    0.11
   1  -3  11    0.39    0.09
   1  -3  11    0.31    0.11
  -2   3 -11    0.16    0.08
  -2   3 -11    0.09    0.10
   2  -3  11    0.14    0.08
   2  -3  11    0.05    0.10
   2  -3  11    0.02    0.06
  -3   3 -11    0.03    0.09
  -3   3 -11    0.22    0.10
   3  -3  11    0.12    0.07
   3  -3  11    0.07    0.10
   3  -3  11    0.09    0.08
  -4   3 -11    0.65    0.14
  -4   3 -11    0.53    0.12
   4  -3  11    0.60    0.10
   4  -3  11    0.70    0.11
   4  -3  11    0.70    0.13
   8   2 -11    0.06    0.08
   8   2 -11    0.16    0.10
  -8  -2  11    0.02    0.09
  -8  -2  11    0.06    0.09
   7   2 -11    0.15    0.08
   7   2 -11    0.16    0.10
  -7  -2  11    0.24    0.10
  -7  -2  11    0.12    0.09
   6   2 -11    0.92    0.14
  -6  -2  11    0.78    0.11
  -6  -2  11    0.93    0.14
  -6  -2  11    1.10    0.13
   5   2 -11    3.76    0.16
   5   2 -11    3.83    0.25
  -5  -2  11    3.78    0.22
  -5  -2  11    3.62    0.25
  -5  -2  11    3.69    0.23
   4   2 -11    0.29    0.10
  -4  -2  11    0.41    0.10
  -4  -2  11    0.49    0.11
  -4  -2  11    0.28    0.08
   3   2 -11    6.25    0.30
   3   2 -11    5.76    0.21
  -3  -2  11    5.90    0.27
  -3  -2  11    5.73    0.26
  -3  -2  11    5.88    0.29
   2   2 -11    4.88    0.27
   2   2 -11    4.64    0.19
  -2  -2  11    4.39    0.23
  -2  -2  11    4.54    0.24
  -2  -2  11    4.90    0.27
   1   2 -11    0.37    0.11
   1   2 -11    0.53    0.08
  -1  -2  11    0.47    0.10
  -1  -2  11    0.47    0.06
  -1  -2  11    0.56    0.12
   0   2 -11    0.21    0.11
   0   2 -11    0.08    0.08
   0  -2  11    0.21    0.09
   0  -2  11    0.24    0.12
  -1   2 -11    0.57    0.10
  -1   2 -11    0.65    0.13
   1  -2  11    0.65    0.09
   1  -2  11    0.56    0.11
  -2   2 -11    0.13    0.10
  -2   2 -11    0.05    0.08
   2  -2  11   -0.03    0.07
   2  -2  11   -0.15    0.07
   2  -2  11    0.00    0.10
  -3   2 -11    1.64    0.16
   3  -2  11    1.65    0.17
   3  -2  11    1.53    0.15
   3  -2  11    1.43    0.14
   8   1 -11    0.07    0.08
   8   1 -11    0.15    0.10
  -8  -1  11    0.24    0.10
  -8  -1  11   -0.03    0.09
   7   1 -11    0.41    0.12
   7   1 -11    0.25    0.08
  -7  -1  11    0.30    0.11
  -7  -1  11    0.30    0.10
  -7  -1  11    0.31    0.11
   6   1 -11    6.01    0.30
  -6  -1  11    6.36    0.31
  -6  -1  11    6.05    0.28
  -6  -1  11    5.97    0.27
   5   1 -11    0.38    0.11
  -5  -1  11    0.30    0.10
  -5  -1  11    0.34    0.12
  -5  -1  11    0.29    0.09
   4   1 -11    0.18    0.05
   4   1 -11    0.24    0.10
  -4  -1  11    0.15    0.10
  -4  -1  11    0.14    0.08
  -4  -1  11    0.24    0.09
   3   1 -11    1.21    0.15
   3   1 -11    1.17    0.10
  -3  -1  11    1.19    0.13
  -3  -1  11    1.38    0.16
  -3  -1  11    1.13    0.12
   2   1 -11    2.73    0.15
   2   1 -11    2.75    0.21
  -2  -1  11    2.90    0.18
  -2  -1  11    2.46    0.20
  -2  -1  11    2.70    0.21
   1   1 -11    0.05    0.07
   1   1 -11    0.03    0.10
  -1  -1  11   -0.12    0.09
  -1  -1  11    0.07    0.08
   0   1 -11    0.52    0.10
   0   1 -11    0.55    0.14
   0  -1  11    0.36    0.13
   0  -1  11    0.64    0.12
  -1   1 -11    0.59    0.10
  -1   1 -11    0.54    0.12
   1  -1  11    0.59    0.11
   1  -1  11    0.74    0.13
   1  -1  11    0.37    0.09
  -2   1 -11    0.25    0.10
   2  -1  11    0.34    0.11
   2  -1  11    0.25    0.08
   2  -1  11    0.05    0.09
   8   0 -11    1.79    0.18
   8   0 -11    2.26    0.17
  -8   0  11    1.95    0.18
  -8   0  11    2.31    0.20
   7   0 -11   11.05    0.44
   7   0 -11   10.82    0.37
  -7   0  11   11.33    0.41
  -7   0  11   11.20    0.42
  -7   0  11   10.87    0.44
   6   0 -11    2.32    0.22
  -6   0  11    2.28    0.21
  -6   0  11    1.96    0.18
  -6   0  11    1.62    0.17
   5   0 -11    1.96    0.19
  -5   0  11    1.93    0.17
  -5   0  11    1.90    0.18
  -5   0  11    2.08    0.18
   4   0 -11    0.69    0.13
   4   0 -11    0.47    0.06
  -4   0  11    0.67    0.13
  -4   0  11    0.56    0.10
  -4   0  11    0.58    0.11
   3   0 -11    0.69    0.13
   3   0 -11    0.83    0.09
  -3   0  11    0.88    0.11
  -3   0  11    0.67    0.13
  -3   0  11    0.60    0.12
   2   0 -11    0.14    0.11
   2   0 -11    0.09    0.06
  -2   0  11    0.03    0.11
  -2   0  11    0.20    0.08
  -2   0  11    0.10    0.09
   1   0 -11    4.10    0.21
   1   0 -11    3.76    0.26
  -1   0  11    4.37    0.25
  -1   0  11    4.11    0.27
   0   0 -11    2.78    0.19
   0   0 -11    3.02    0.24
   0   0  11    3.22    0.25
   0   0  11    2.72    0.21
  -1   0 -11    1.06    0.13
   1   0  11    0.87    0.12
   1   0  11    0.91    0.13
   1   0  11    1.06    0.15
   8  -1 -11    0.21    0.08
   8  -1 -11    0.21    0.11
  -8   1  11    0.17    0.11
  -8   1  11    0.11    0.10
   7  -1 -11    0.21    0.11
  -7   1  11    0.21    0.11
  -7   1  11    0.33    0.10
  -7   1  11    0.24    0.12
   6  -1 -11    0.09    0.11
  -6   1  11    0.13    0.08
  -6   1  11    0.02    0.09
  -6   1  11    0.00    0.10
   5  -1 -11    0.21    0.11
  -5   1  11    0.06    0.11
  -5   1  11    0.12    0.08
  -5   1  11    0.13    0.10
   4  -1 -11    0.84    0.14
   4  -1 -11    0.85    0.08
  -4   1  11    0.91    0.11
  -4   1  11    0.82    0.15
  -4   1  11    0.94    0.13
   3  -1 -11    0.06    0.11
   3  -1 -11    0.02    0.06
  -3   1  11    0.01    0.07
  -3   1  11    0.06    0.09
  -3   1  11   -0.12    0.10
   2  -1 -11    4.75    0.22
   2  -1 -11    5.10    0.29
  -2   1  11    4.72    0.24
  -2   1  11    5.10    0.26
  -2   1  11    4.36    0.29
   1  -1 -11    4.29    0.28
   1  -1 -11    4.72    0.24
  -1   1  11    4.72    0.27
  -1   1  11    5.10    0.31
   0  -1 -11   -0.07    0.11
   0  -1 -11   -0.04    0.08
   0   1  11   -0.09    0.12
   0   1  11    0.09    0.10
   8  -2 -11    1.66    0.14
  -8   2  11    1.63    0.17
   7  -2 -11    1.66    0.18
  -7   2  11    1.56    0.17
  -7   2  11    1.48    0.14
  -7   2  11    1.95    0.19
   6  -2 -11    0.10    0.11
  -6   2  11    0.21    0.10
  -6   2  11    0.12    0.12
  -6   2  11    0.22    0.09
   5  -2 -11    0.27    0.13
  -5   2  11    0.17    0.12
  -5   2  11    0.25    0.08
  -5   2  11    0.10    0.10
   4  -2 -11    0.12    0.11
   4  -2 -11    0.03    0.06
  -4   2  11    0.01    0.07
  -4   2  11    0.06    0.11
  -4   2  11    0.01    0.09
   3  -2 -11    0.22    0.12
   3  -2 -11    0.04    0.07
  -3   2  11    0.09    0.13
  -3   2  11   -0.05    0.10
  -3   2  11   -0.06    0.07
   2  -2 -11    0.88    0.11
   2  -2 -11    1.00    0.16
  -2   2  11    1.07    0.17
  -2   2  11    0.55    0.10
  -2   2  11    0.69    0.14
   6  -3 -11    0.22    0.13
  -6   3  11    0.24    0.12
  -6   3  11    0.24    0.13
  -6   3  11    0.34    0.10
   5  -3 -11    0.65    0.15
  -5   3  11    0.47    0.10
  -5   3  11    0.52    0.15
  -5   3  11    0.55    0.12
   4  -3 -11    0.12    0.13
  -4   3  11   -0.01    0.12
  -4   3  11    0.05    0.08
   1   9 -12    0.20    0.10
   1   9 -12    0.18    0.07
  -1  -9  12    0.34    0.10
  -1  -9  12    0.41    0.11
  -1  -9  12    0.31    0.09
   0   9 -12    0.21    0.08
   0   9 -12    0.00    0.09
   0  -9  12    0.12    0.10
   0  -9  12    0.13    0.08
   0  -9  12    0.17    0.08
  -1   9 -12    1.66    0.15
  -1   9 -12    1.70    0.17
   1  -9  12    1.92    0.17
   1  -9  12    1.79    0.18
   1  -9  12    1.55    0.15
  -2   9 -12    0.72    0.13
  -2   9 -12    0.37    0.09
   2  -9  12    0.56    0.11
   2  -9  12    0.87    0.13
   2  -9  12    0.63    0.11
  -3   9 -12    0.06    0.10
  -3   9 -12    0.11    0.09
   3  -9  12   -0.06    0.10
   3  -9  12    0.00    0.08
   3  -9  12    0.03    0.08
  -3  -8  12    0.26    0.11
  -3  -8  12    0.28    0.09
   2   8 -12    0.13    0.09
  -2  -8  12   -0.02    0.07
  -2  -8  12    0.01    0.09
   1   8 -12    4.80    0.20
   1   8 -12    4.16    0.26
  -1  -8  12    4.29    0.24
  -1  -8  12    5.18    0.28
  -1  -8  12    4.50    0.23
   0   8 -12    0.34    0.11
   0   8 -12    0.23    0.07
   0  -8  12    0.36    0.09
   0  -8  12    0.26    0.11
   0  -8  12    0.22    0.08
  -1   8 -12    0.18    0.08
  -1   8 -12    0.09    0.09
   1  -8  12    0.12    0.10
   1  -8  12    0.06    0.07
   1  -8  12    0.16    0.08
  -2   8 -12    0.59    0.10
  -2   8 -12    0.73    0.13
   2  -8  12    0.80    0.11
   2  -8  12    0.82    0.13
   2  -8  12    0.60    0.11
  -3   8 -12    0.74    0.13
  -3   8 -12    0.84    0.12
   3  -8  12    0.87    0.12
   3  -8  12    1.00    0.11
   3  -8  12    0.72    0.14
  -4  -7  12    0.31    0.10
   3   7 -12    0.07    0.09
  -3  -7  12    0.16    0.10
  -3  -7  12    0.19    0.09
   2   7 -12    0.01    0.09
   2   7 -12    0.17    0.06
  -2  -7  12    0.05    0.08
  -2  -7  12    0.02    0.09
   1   7 -12   -0.07    0.06
   1   7 -12   -0.14    0.08
  -1  -7  12   -0.07    0.07
  -1  -7  12    0.01    0.10
  -1  -7  12    0.05    0.06
   0   7 -12    1.09    0.11
   0   7 -12    0.93    0.13
   0  -7  12    0.89    0.10
   0  -7  12    0.98    0.12
   0  -7  12    1.05    0.14
  -1   7 -12    0.12    0.08
  -1   7 -12    0.03    0.09
   1  -7  12    0.04    0.06
   1  -7  12    0.03    0.09
   1  -7  12   -0.05    0.07
  -2   7 -12    1.03    0.14
  -2   7 -12    0.94    0.12
   2  -7  12    1.01    0.11
   2  -7  12    1.19    0.15
   2  -7  12    0.97    0.13
  -3   7 -12    0.65    0.11
  -3   7 -12    0.87    0.14
   3  -7  12    0.71    0.14
   3  -7  12    0.86    0.12
   3  -7  12    0.79    0.10
   4  -7  12    1.20    0.13
   5   6 -12    0.19    0.08
  -5  -6  12    0.07    0.09
  -5  -6  12    0.09    0.09
   4   6 -12    1.66    0.17
  -4  -6  12    1.39    0.17
  -4  -6  12    1.28    0.14
  -4  -6  12    1.48    0.14
   3   6 -12    1.22    0.15
  -3  -6  12    0.91    0.13
  -3  -6  12    1.14    0.15
   2   6 -12    0.99    0.10
   2   6 -12    0.80    0.13
  -2  -6  12    0.93    0.14
  -2  -6  12    0.84    0.12
   1   6 -12    0.92    0.10
   1   6 -12    1.00    0.14
  -1  -6  12    1.11    0.15
  -1  -6  12    1.24    0.13
  -1  -6  12    0.90    0.10
   0   6 -12    0.34    0.11
   0   6 -12    0.33    0.08
   0  -6  12    0.38    0.10
   0  -6  12    0.29    0.07
   0  -6  12    0.39    0.11
  -1   6 -12    0.19    0.10
  -1   6 -12    0.10    0.08
   1  -6  12    0.19    0.10
   1  -6  12    0.14    0.08
   1  -6  12    0.14    0.06
   1  -6  12    0.19    0.07
  -2   6 -12    0.05    0.08
  -2   6 -12    0.10    0.10
   2  -6  12    0.09    0.08
   2  -6  12    0.06    0.06
   2  -6  12    0.10    0.10
   2  -6  12    0.06    0.05
  -3   6 -12    0.22    0.10
  -3   6 -12    0.15    0.11
   3  -6  12    0.17    0.11
   3  -6  12    0.18    0.06
   3  -6  12    0.29    0.09
   5   5 -12    0.97    0.14
  -5  -5  12    0.84    0.12
  -5  -5  12    0.88    0.13
  -5  -5  12    1.13    0.15
   4   5 -12    1.56    0.17
  -4  -5  12    1.73    0.16
  -4  -5  12    1.93    0.18
  -4  -5  12    1.84    0.19
   3   5 -12    0.63    0.08
   3   5 -12    0.68    0.12
  -3  -5  12    0.57    0.12
  -3  -5  12    0.73    0.11
  -3  -5  12    0.55    0.11
   2   5 -12    4.19    0.26
   2   5 -12    4.43    0.20
  -2  -5  12    4.35    0.26
  -2  -5  12    4.27    0.24
   1   5 -12   -0.08    0.08
   1   5 -12   -0.06    0.06
  -1  -5  12    0.11    0.10
  -1  -5  12    0.05    0.08
  -1  -5  12    0.04    0.05
   0   5 -12    1.34    0.15
   0   5 -12    1.08    0.12
   0  -5  12    0.99    0.14
   0  -5  12    1.09    0.10
   0  -5  12    1.15    0.13
  -1   5 -12    1.16    0.13
  -1   5 -12    1.23    0.15
   1  -5  12    1.21    0.15
   1  -5  12    1.43    0.14
   1  -5  12    1.12    0.10
   1  -5  12    1.22    0.12
  -2   5 -12    0.20    0.09
  -2   5 -12    0.16    0.10
   2  -5  12    0.34    0.11
   2  -5  12    0.19    0.07
   2  -5  12    0.16    0.09
  -3   5 -12    0.21    0.10
   3  -5  12    0.23    0.09
   3  -5  12    0.29    0.12
   3  -5  12    0.20    0.07
   6   4 -12    0.69    0.10
   6   4 -12    0.85    0.14
  -6  -4  12    0.97    0.13
  -6  -4  12    0.64    0.11
   5   4 -12    0.71    0.13
  -5  -4  12    0.63    0.11
  -5  -4  12    0.90    0.14
  -5  -4  12    0.86    0.13
   4   4 -12    0.02    0.09
   4   4 -12   -0.06    0.05
  -4  -4  12   -0.07    0.08
  -4  -4  12   -0.01    0.07
  -4  -4  12    0.06    0.09
   3   4 -12    1.33    0.12
   3   4 -12    1.22    0.15
  -3  -4  12    1.23    0.14
  -3  -4  12    1.20    0.13
  -3  -4  12    0.99    0.14
   2   4 -12    0.90    0.10
   2   4 -12    0.76    0.13
  -2  -4  12    1.07    0.14
  -2  -4  12    0.83    0.12
  -2  -4  12    0.80    0.12
   1   4 -12    0.96    0.11
   1   4 -12    0.87    0.14
  -1  -4  12    1.00    0.14
  -1  -4  12    0.91    0.09
  -1  -4  12    1.15    0.13
   0   4 -12    0.08    0.10
   0   4 -12    0.07    0.08
   0  -4  12   -0.05    0.09
   0  -4  12   -0.02    0.08
   0  -4  12    0.02    0.05
  -1   4 -12    1.10    0.13
  -1   4 -12    1.25    0.16
   1  -4  12    1.41    0.16
   1  -4  12    1.48    0.13
   1  -4  12    1.30    0.14
  -2   4 -12    1.22    0.14
  -2   4 -12    1.71    0.18
   2  -4  12    1.37    0.14
   2  -4  12    1.51    0.14
   2  -4  12    1.47    0.16
  -3   4 -12    0.10    0.10
   3  -4  12   -0.01    0.08
   3  -4  12    0.10    0.07
   6   3 -12    0.42    0.12
  -6  -3  12    0.51    0.13
  -6  -3  12    0.54    0.11
  -6  -3  12    0.37    0.11
   5   3 -12    0.07    0.10
  -5  -3  12    0.03    0.09
  -5  -3  12   -0.05    0.09
  -5  -3  12   -0.02    0.08
   4   3 -12    0.27    0.07
   4   3 -12    0.32    0.11
  -4  -3  12    0.17    0.09
  -4  -3  12    0.30    0.11
  -4  -3  12    0.28    0.10
   3   3 -12    4.46    0.27
   3   3 -12    4.39    0.21
  -3  -3  12    4.71    0.27
  -3  -3  12    4.66    0.24
  -3  -3  12    4.73    0.26
   2   3 -12    1.95    0.13
   2   3 -12    1.89    0.18
   2   3 -12    1.82    0.15
  -2  -3  12    1.75    0.16
  -2  -3  12    1.75    0.16
  -2  -3  12    2.14    0.20
   1   3 -12    0.62    0.10
   1   3 -12    0.72    0.09
   1   3 -12    0.59    0.13
  -1  -3  12    0.56    0.11
  -1  -3  12    0.64    0.07
  -1  -3  12    0.57    0.12
   0   3 -12    0.28    0.10
   0   3 -12    0.35    0.12
   0   3 -12    0.32    0.09
   0  -3  12    0.32    0.12
   0  -3  12    0.35    0.10
  -1   3 -12    0.06    0.11
  -1   3 -12    0.08    0.09
  -1   3 -12    0.07    0.08
   1  -3  12    0.12    0.07
   1  -3  12    0.04    0.09
   1  -3  12    0.12    0.11
  -2   3 -12    0.17    0.09
  -2   3 -12    0.03    0.09
   2  -3  12   -0.02    0.08
   2  -3  12   -0.04    0.10
   2  -3  12   -0.04    0.06
   7   2 -12    1.13    0.12
  -7  -2  12    1.23    0.15
  -7  -2  12    1.01    0.13
   6   2 -12    1.05    0.16
  -6  -2  12    1.13    0.14
  -6  -2  12    1.32    0.14
  -6  -2  12    1.34    0.17
   5   2 -12    0.55    0.13
  -5  -2  12    0.51    0.10
  -5  -2  12    0.47    0.11
  -5  -2  12    0.61    0.13
   4   2 -12   -0.09    0.10
  -4  -2  12   -0.06    0.08
  -4  -2  12   -0.02    0.08
  -4  -2  12    0.14    0.11
   3   2 -12    3.74    0.25
  -3  -2  12    3.45    0.23
  -3  -2  12    3.80    0.25
  -3  -2  12    3.45    0.21
   2   2 -12    0.37    0.08
   2   2 -12    0.40    0.12
  -2  -2  12    0.28    0.09
  -2  -2  12    0.49    0.12
  -2  -2  12    0.32    0.10
   1   2 -12    0.13    0.07
   1   2 -12   -0.05    0.10
  -1  -2  12   -0.07    0.10
  -1  -2  12    0.09    0.09
   0   2 -12    3.24    0.20
   0   2 -12    3.19    0.26
   0  -2  12    3.14    0.24
   0  -2  12    3.52    0.23
  -1   2 -12   -0.02    0.08
  -1   2 -12    0.00    0.11
   1  -2  12    0.02    0.11
   1  -2  12   -0.11    0.08
   1  -2  12   -0.05    0.07
   7   1 -12    3.16    0.20
  -7  -1  12    3.41    0.23
  -7  -1  12    2.92    0.23
   6   1 -12    0.89    0.15
  -6  -1  12    0.78    0.12
  -6  -1  12    0.60    0.14
  -6  -1  12    0.59    0.13
   5   1 -12    0.46    0.12
  -5  -1  12    0.74    0.13
  -5  -1  12    0.46    0.11
  -5  -1  12    0.64    0.14
   4   1 -12    0.33    0.12
  -4  -1  12    0.21    0.09
  -4  -1  12    0.11    0.10
  -4  -1  12    0.28    0.12
   3   1 -12    0.19    0.11
  -3  -1  12    0.01    0.08
  -3  -1  12    0.12    0.11
  -3  -1  12    0.07    0.09
   2   1 -12   -0.23    0.09
   2   1 -12   -0.02    0.06
  -2  -1  12   -0.20    0.10
  -2  -1  12    0.06    0.07
  -2  -1  12    0.05    0.09
   1   1 -12   -0.09    0.10
   1   1 -12    0.05    0.07
  -1  -1  12    0.03    0.10
  -1  -1  12   -0.07    0.11
   0   1 -12    0.01    0.08
   0   1 -12   -0.13    0.10
   0  -1  12   -0.07    0.11
   0  -1  12   -0.07    0.09
  -7   0  12    0.43    0.14
  -7   0  12    0.56    0.13
  -7   0  12    0.51    0.13
   6   0 -12    0.48    0.13
  -6   0  12    0.22    0.13
  -6   0  12    0.24    0.10
  -6   0  12    0.23    0.11
   5   0 -12    0.57    0.14
  -5   0  12    0.52    0.10
  -5   0  12    0.62    0.12
  -5   0  12    0.72    0.14
   4   0 -12    0.36    0.13
  -4   0  12    0.40    0.11
  -4   0  12    0.39    0.13
  -4   0  12    0.30    0.09
   3   0 -12    0.40    0.13
  -3   0  12    0.32    0.13
  -3   0  12    0.34    0.09
  -3   0  12    0.30    0.11
   2   0 -12   -0.15    0.11
   2   0 -12   -0.04    0.07
  -2   0  12   -0.16    0.12
  -2   0  12    0.12    0.08
  -2   0  12   -0.06    0.09
   1   0 -12    0.49    0.14
   1   0 -12    0.64    0.10
  -1   0  12    0.62    0.13
  -1   0  12    0.63    0.17
   6  -1 -12    0.08    0.13
  -6   1  12    0.02    0.09
  -6   1  12    0.29    0.12
  -6   1  12    0.04    0.11
   5  -1 -12    1.08    0.16
  -5   1  12    0.81    0.14
  -5   1  12    0.90    0.16
  -5   1  12    1.11    0.13
   4  -1 -12    0.27    0.13
  -4   1  12    0.13    0.11
  -4   1  12    0.16    0.09
  -4   1  12    0.23    0.13
   3  -1 -12    0.52    0.14
  -3   1  12    0.47    0.10
  -3   1  12    0.42    0.14
  -3   1  12    0.43    0.12
   0   8 -13    0.50    0.12
   2   7 -13    0.21    0.11
  -2  -7  13    0.25    0.10
  -2  -7  13    0.17    0.11
   1   7 -13    0.21    0.08
   1   7 -13    0.46    0.12
  -1  -7  13    0.21    0.12
  -1  -7  13    0.44    0.09
  -1  -7  13    0.20    0.11
   0   7 -13    0.05    0.08
   0   7 -13   -0.02    0.10
   0  -7  13   -0.07    0.08
   0  -7  13    0.00    0.10
   0  -7  13   -0.03    0.06
  -1   7 -13   -0.12    0.07
  -1   7 -13    0.01    0.10
   1  -7  13    0.08    0.09
   1  -7  13   -0.04    0.10
   1  -7  13   -0.07    0.06
   3   6 -13    2.81    0.23
  -3  -6  13    2.70    0.21
  -3  -6  13    2.56    0.23
   2   6 -13    1.26    0.17
   2   6 -13    1.08    0.11
  -2  -6  13    0.97    0.16
  -2  -6  13    0.94    0.14
   1   6 -13    0.05    0.08
   1   6 -13    0.10    0.11
  -1  -6  13    0.10    0.11
  -1  -6  13    0.14    0.07
  -1  -6  13    0.11    0.09
   0   6 -13    2.04    0.16
   0   6 -13    1.67    0.18
   0  -6  13    1.64    0.14
   0  -6  13    1.78    0.19
   0  -6  13    1.63    0.16
  -1   6 -13    0.21    0.12
  -1   6 -13    0.11    0.09
   1  -6  13    0.26    0.11
   1  -6  13    0.39    0.13
   4   5 -13    0.03    0.10
  -4  -5  13    0.26    0.11
  -4  -5  13    0.17    0.10
  -4  -5  13    0.13    0.09
   3   5 -13    0.19    0.11
  -3  -5  13    0.24    0.11
  -3  -5  13    0.06    0.09
   2   5 -13    0.33    0.12
   2   5 -13    0.31    0.09
  -2  -5  13    0.21    0.10
  -2  -5  13    0.46    0.12
   1   5 -13    0.00    0.08
   1   5 -13    0.03    0.10
  -1  -5  13    0.04    0.09
  -1  -5  13    0.07    0.06
  -1  -5  13    0.06    0.11
   0   5 -13    0.72    0.11
   0   5 -13    0.68    0.14
   0  -5  13    0.77    0.14
   0  -5  13    1.06    0.14
  -1   5 -13    0.69    0.14
  -1   5 -13    0.35    0.11
   1  -5  13    0.74    0.13
   1  -5  13    0.47    0.08
   1  -5  13    0.66    0.16
   4   4 -13   -0.14    0.09
  -4  -4  13   -0.04    0.09
  -4  -4  13    0.06    0.10
  -4  -4  13   -0.04    0.09
   3   4 -13    0.84    0.15
   3   4 -13    0.79    0.10
  -3  -4  13    0.72    0.13
  -3  -4  13    0.72    0.12
  -3  -4  13    0.76    0.14
   2   4 -13    0.86    0.11
   2   4 -13    0.76    0.14
  -2  -4  13    0.73    0.15
  -2  -4  13    0.69    0.13
   1   4 -13    0.41    0.08
   1   4 -13    0.21    0.09
   1   4 -13    0.39    0.12
  -1  -4  13    0.34    0.11
  -1  -4  13    0.38    0.12
   0   4 -13    0.61    0.10
   0   4 -13    0.63    0.12
   0   4 -13    0.84    0.15
   0  -4  13    0.70    0.14
   0  -4  13    0.63    0.12
  -5  -3  13    0.47    0.14
  -5  -3  13    0.53    0.11
  -5  -3  13    0.47    0.12
   4   3 -13    0.98    0.16
  -4  -3  13    0.57    0.14
  -4  -3  13    0.74    0.13
  -4  -3  13    0.63    0.12
   3   3 -13    0.24    0.12
   3   3 -13    0.12    0.08
  -3  -3  13    0.14    0.10
  -3  -3  13    0.07    0.11
  -3  -3  13    0.08    0.09
   2   3 -13    1.27    0.13
   2   3 -13    1.41    0.18
  -2  -3  13    1.41    0.18
  -2  -3  13    1.45    0.16
   1   3 -13    0.47    0.11
   1   3 -13    0.39    0.09
   1   3 -13    0.40    0.13
  -1  -3  13    0.36    0.11
  -1  -3  13    0.44    0.13
   0   3 -13    0.05    0.09
   0   3 -13    0.12    0.08
   0   3 -13    0.01    0.11
   0  -3  13    0.00    0.10
  -5  -2  13    0.39    0.12
  -5  -2  13    0.33    0.13
   4   2 -13   -0.03    0.11
   4   2 -13   -0.03    0.07
  -4  -2  13   -0.10    0.08
  -4  -2  13   -0.09    0.09
  -4  -2  13    0.00    0.11
   3   2 -13    0.36    0.13
  -3  -2  13    0.27    0.11
  -3  -2  13    0.47    0.14
  -3  -2  13    0.36    0.10
   2   2 -13    0.11    0.11
  -2  -2  13   -0.12    0.09
  -2  -2  13   -0.02    0.11
   1   2 -13   -0.18    0.10
   4   1 -13    2.19    0.23
   0   0   0    0.00    0.00
;
_shelx_hkl_checksum              12400
loop_
_space_group_symop_operation_xyz
'x, y, z'
'-x, -y, -z'
loop_
_atom_site_label
_atom_site_type_symbol
_atom_site_fract_x
_atom_site_fract_y
_atom_site_fract_z
_atom_site_U_iso_or_equiv
_atom_site_adp_type
_atom_site_occupancy
_atom_site_site_symmetry_order
_atom_site_calc_flag
_atom_site_refinement_flags_posn
_atom_site_refinement_flags_adp
_atom_site_refinement_flags_occupancy
_atom_site_disorder_assembly
_atom_site_disorder_group
Cl1 Cl 1.33654(5) 0.60055(5) 0.42854(5) 0.05965(15) Uani 1 1 d . . . . .
N2 N 0.6208(2) -0.0920(2) 0.4135(2) 0.0770(5) Uani 1 1 d . . . . .
C1 C 0.87780(17) 0.15968(17) 0.41556(15) 0.0400(3) Uani 1 1 d . . . . .
F1 F 0.98429(12) 0.40978(11) 0.22124(10) 0.0542(2) Uani 1 1 d . . . . .
N1 N 0.69962(15) 0.14211(16) 0.20337(14) 0.0425(3) Uani 1 1 d D . . . .
H1 H 0.623(2) 0.0389(19) 0.183(2) 0.054(5) Uiso 1 1 d D . . . .
H2 H 0.701(2) 0.158(2) 0.1261(18) 0.053(5) Uiso 1 1 d D . . . .
C2 C 0.85499(16) 0.21379(15) 0.30886(14) 0.0341(3) Uani 1 1 d . . . . .
F2 F 1.05591(15) 0.18896(17) 0.62423(13) 0.0795(4) Uani 1 1 d . . . . .
C3 C 1.00314(17) 0.35424(16) 0.32120(14) 0.0368(3) Uani 1 1 d . . . . .
C4 C 1.16244(18) 0.43288(17) 0.42691(16) 0.0422(3) Uani 1 1 d . . . . .
C5 C 1.18489(19) 0.3775(2) 0.53079(17) 0.0525(4) Uani 1 1 d . . . . .
H5 H 1.292802 0.429259 0.602381 0.063 Uiso 1 1 calc R U . . .
C6 C 1.0412(2) 0.2436(2) 0.52309(17) 0.0499(4) Uani 1 1 d . . . . .
C7 C 0.7345(2) 0.0193(2) 0.41426(17) 0.0505(4) Uani 1 1 d . . . . .
O1 O 0.21918(15) 1.00687(14) 0.08684(12) 0.0499(3) Uani 1 1 d . . . . .
O2 O 0.34646(12) 0.79803(12) 0.07440(12) 0.0435(2) Uani 1 1 d . . . . .
O3 O 0.63372(15) 0.77301(15) 0.04699(14) 0.0571(3) Uani 1 1 d . . . . .
C8 C 0.2383(3) 1.1691(3) 0.1350(3) 0.0723(6) Uani 1 1 d . . . . .
H8A H 0.347027 1.256006 0.218393 0.087 Uiso 1 1 calc R U . . .
H8B H 0.146061 1.167686 0.169576 0.087 Uiso 1 1 calc R U . . .
C9 C 0.2556(2) 0.9765(2) 0.20895(18) 0.0539(4) Uani 1 1 d . . . . .
H9A H 0.179264 0.982719 0.262821 0.065 Uiso 1 1 calc R U . . .
H9B H 0.373567 1.063012 0.277807 0.065 Uiso 1 1 calc R U . . .
C10 C 0.2303(2) 0.8030(2) 0.15001(19) 0.0521(4) Uani 1 1 d . . . . .
H10A H 0.252081 0.779096 0.232041 0.063 Uiso 1 1 calc R U . . .
H10B H 0.112340 0.716448 0.081137 0.063 Uiso 1 1 calc R U . . .
C11 C 0.3428(2) 0.64199(19) 0.0279(2) 0.0544(4) Uani 1 1 d . . . . .
H11A H 0.226770 0.545070 -0.037036 0.065 Uiso 1 1 calc R U . . .
H11B H 0.377994 0.629644 0.114621 0.065 Uiso 1 1 calc R U . . .
C12 C 0.4648(2) 0.6468(2) -0.05506(19) 0.0571(4) Uani 1 1 d . . . . .
H12A H 0.452709 0.535890 -0.100275 0.068 Uiso 1 1 calc R U . . .
H12B H 0.438142 0.673356 -0.134209 0.068 Uiso 1 1 calc R U . . .
C13 C 0.7661(3) 0.7867(3) -0.0111(3) 0.0734(6) Uani 1 1 d . . . . .
H13A H 0.759721 0.678299 -0.046846 0.088 Uiso 1 1 calc R U . . .
H13B H 0.876533 0.873434 0.070299 0.088 Uiso 1 1 calc R U . . .
loop_
_atom_site_aniso_label
_atom_site_aniso_U_11
_atom_site_aniso_U_22
_atom_site_aniso_U_33
_atom_site_aniso_U_23
_atom_site_aniso_U_13
_atom_site_aniso_U_12
Cl1 0.0421(2) 0.0469(2) 0.0594(2) 0.02113(18) 0.01812(17) 0.00445(16)
N2 0.0588(9) 0.0789(11) 0.0707(10) 0.0525(9) 0.0184(8) 0.0083(8)
C1 0.0384(7) 0.0408(7) 0.0375(6) 0.0214(6) 0.0154(5) 0.0161(6)
F1 0.0541(5) 0.0475(5) 0.0546(5) 0.0340(4) 0.0162(4) 0.0159(4)
N1 0.0365(6) 0.0406(6) 0.0424(6) 0.0233(5) 0.0104(5) 0.0132(5)
C2 0.0349(6) 0.0316(6) 0.0326(6) 0.0136(5) 0.0146(5) 0.0162(5)
F2 0.0635(7) 0.1024(9) 0.0677(7) 0.0629(7) 0.0115(5) 0.0271(6)
C3 0.0412(7) 0.0320(6) 0.0347(6) 0.0164(5) 0.0169(5) 0.0165(5)
C4 0.0370(7) 0.0355(6) 0.0397(7) 0.0133(5) 0.0168(5) 0.0114(5)
C5 0.0363(7) 0.0576(9) 0.0413(7) 0.0199(7) 0.0058(6) 0.0139(7)
C6 0.0474(8) 0.0592(9) 0.0412(7) 0.0308(7) 0.0140(6) 0.0224(7)
C7 0.0459(8) 0.0566(9) 0.0438(8) 0.0320(7) 0.0148(6) 0.0177(7)
O1 0.0627(7) 0.0500(6) 0.0524(6) 0.0285(5) 0.0310(5) 0.0355(5)
O2 0.0417(5) 0.0411(5) 0.0548(6) 0.0311(5) 0.0189(4) 0.0208(4)
O3 0.0560(7) 0.0529(6) 0.0676(7) 0.0337(6) 0.0239(6) 0.0289(5)
C8 0.0940(14) 0.0566(10) 0.0931(14) 0.0380(10) 0.0631(13) 0.0499(11)
C9 0.0512(9) 0.0685(10) 0.0451(8) 0.0286(7) 0.0239(7) 0.0312(8)
C10 0.0450(8) 0.0654(10) 0.0582(9) 0.0444(8) 0.0238(7) 0.0256(7)
C11 0.0481(8) 0.0388(7) 0.0707(10) 0.0322(7) 0.0087(7) 0.0182(6)
C12 0.0728(11) 0.0500(8) 0.0541(9) 0.0237(7) 0.0139(8) 0.0409(8)
C13 0.0784(13) 0.0663(11) 0.1171(18) 0.0577(12) 0.0541(13) 0.0534(11)
loop_
_atom_type_symbol
_atom_type_description
_atom_type_scat_dispersion_real
_atom_type_scat_dispersion_imag
_atom_type_scat_source
C C 0.0033 0.0016 'International Tables Vol C Tables 4.2.6.8 and 6.1.1.4'
H H 0.0000 0.0000 'International Tables Vol C Tables 4.2.6.8 and 6.1.1.4'
N N 0.0061 0.0033 'International Tables Vol C Tables 4.2.6.8 and 6.1.1.4'
O O 0.0106 0.0060 'International Tables Vol C Tables 4.2.6.8 and 6.1.1.4'
F F 0.0171 0.0103 'International Tables Vol C Tables 4.2.6.8 and 6.1.1.4'
Cl Cl 0.1484 0.1585 'International Tables Vol C Tables 4.2.6.8 and 6.1.1.4'
loop_
_geom_angle_atom_site_label_1
_geom_angle_atom_site_label_2
_geom_angle_atom_site_label_3
_geom_angle
_geom_angle_site_symmetry_1
_geom_angle_site_symmetry_3
_geom_angle_publ_flag
C6 C1 C2 119.64(12) . . ?
C6 C1 C7 119.88(13) . . ?
C2 C1 C7 120.48(12) . . ?
N1 C2 C3 120.65(12) . . ?
N1 C2 C1 123.25(12) . . ?
C3 C2 C1 116.04(12) . . ?
F1 C3 C4 119.78(12) . . ?
F1 C3 C2 117.18(12) . . ?
C4 C3 C2 123.02(12) . . ?
C3 C4 C5 120.75(13) . . ?
C3 C4 Cl1 119.10(11) . . ?
C5 C4 Cl1 120.14(11) . . ?
C6 C5 C4 117.12(13) . . ?
F2 C6 C5 119.19(14) . . ?
F2 C6 C1 117.42(13) . . ?
C5 C6 C1 123.39(14) . . ?
N2 C7 C1 179.87(15) . . ?
C8 O1 C9 111.82(14) . . ?
C11 O2 C10 112.36(12) . . ?
C12 O3 C13 115.83(15) . . ?
O1 C8 C13 110.96(16) . 2_675 ?
O1 C9 C10 108.88(13) . . ?
O2 C10 C9 108.93(12) . . ?
O2 C11 C12 108.26(12) . . ?
O3 C12 C11 108.56(14) . . ?
O3 C13 C8 115.81(17) . 2_675 ?
loop_
_geom_bond_atom_site_label_1
_geom_bond_atom_site_label_2
_geom_bond_distance
_geom_bond_site_symmetry_2
_geom_bond_publ_flag
Cl1 C4 1.7237(14) . ?
N2 C7 1.137(2) . ?
C1 C6 1.394(2) . ?
C1 C2 1.4086(18) . ?
C1 C7 1.4318(19) . ?
F1 C3 1.3500(15) . ?
N1 C2 1.3562(18) . ?
C2 C3 1.4051(17) . ?
F2 C6 1.3475(17) . ?
C3 C4 1.369(2) . ?
C4 C5 1.391(2) . ?
C5 C6 1.369(2) . ?
O1 C8 1.414(2) . ?
O1 C9 1.4184(19) . ?
O2 C11 1.4235(18) . ?
O2 C10 1.4256(18) . ?
O3 C12 1.401(2) . ?
O3 C13 1.418(2) . ?
C8 C13 1.486(3) 2_675 ?
C9 C10 1.489(2) . ?
C11 C12 1.509(3) . ?
