#------------------------------------------------------------------------------
#$Date: 2022-05-14 01:35:42 +0300 (Sat, 14 May 2022) $
#$Revision: 275418 $
#$URL: file:///home/coder/svn-repositories/cod/cif/7/24/49/7244922.cif $
#------------------------------------------------------------------------------
#
# This file is available in the Crystallography Open Database (COD),
# http://www.crystallography.net/
#
# All data on this site have been placed in the public domain by the
# contributors.
#
data_7244922
loop_
_publ_author_name
'Lopes, Gon\,calo'
'Gama, Vasco Pires Silva da'
'Santos, Isabel Cordeiro'
'Branco Lopes, Elsa'
'Brotas, Gra\,ca'
'Pereira, Laura C. J.'
'Cerdeira, Ana C.'
'Paix\~ao, Jos\'e Ant\'onio'
'Raba\,ca, Sandra'
'Almeida, Manuel'
_publ_section_title
;
 Bilayer conducting salts with polymeric anions
;
_journal_name_full               CrystEngComm
_journal_paper_doi               10.1039/D2CE00515H
_journal_year                    2022
_chemical_formula_sum            'C29 H14 Hg N5 S15'
_chemical_formula_weight         1113.94
_space_group_crystal_system      triclinic
_space_group_IT_number           2
_space_group_name_Hall           '-P 1'
_space_group_name_H-M_alt        'P -1'
_atom_sites_solution_hydrogens   geom
_audit_creation_method           SHELXL-2014/7
_audit_update_record
;
2022-03-28 deposited with the CCDC.	2022-05-13 downloaded from the CCDC.
;
_cell_angle_alpha                94.893(4)
_cell_angle_beta                 90.969(5)
_cell_angle_gamma                94.432(5)
_cell_formula_units_Z            1
_cell_length_a                   4.9082(5)
_cell_length_b                   5.8283(4)
_cell_length_c                   30.957(2)
_cell_measurement_reflns_used    1837
_cell_measurement_temperature    296(2)
_cell_measurement_theta_max      21.41
_cell_measurement_theta_min      2.64
_cell_volume                     879.46(12)
_computing_cell_refinement       'Bruker SAINT'
_computing_data_collection       'Bruker APEX2'
_computing_data_reduction        'Bruker SAINT'
_computing_structure_refinement  'SHELXL-2014/7 (Sheldrick, 2014)'
_computing_structure_solution    'SHELXS-97 (Sheldrick 2008)'
_diffrn_ambient_temperature      296(2)
_diffrn_measured_fraction_theta_full 0.991
_diffrn_measured_fraction_theta_max 0.990
_diffrn_measurement_device_type  'Bruker APEX-II CCD'
_diffrn_measurement_method       '\f and \w scans'
_diffrn_radiation_type           MoK\a
_diffrn_radiation_wavelength     0.71073
_diffrn_reflns_av_R_equivalents  0.0755
_diffrn_reflns_av_unetI/netI     0.1054
_diffrn_reflns_Laue_measured_fraction_full 0.991
_diffrn_reflns_Laue_measured_fraction_max 0.990
_diffrn_reflns_limit_h_max       5
_diffrn_reflns_limit_h_min       -5
_diffrn_reflns_limit_k_max       7
_diffrn_reflns_limit_k_min       -7
_diffrn_reflns_limit_l_max       37
_diffrn_reflns_limit_l_min       -37
_diffrn_reflns_number            8709
_diffrn_reflns_point_group_measured_fraction_full 0.991
_diffrn_reflns_point_group_measured_fraction_max 0.990
_diffrn_reflns_theta_full        25.242
_diffrn_reflns_theta_max         25.681
_diffrn_reflns_theta_min         3.303
_exptl_absorpt_coefficient_mu    5.301
_exptl_absorpt_correction_T_max  0.901
_exptl_absorpt_correction_T_min  0.177
_exptl_absorpt_correction_type   multi-scan
_exptl_absorpt_process_details   sadabs
_exptl_crystal_colour            brown
_exptl_crystal_density_diffrn    2.103
_exptl_crystal_description       needle
_exptl_crystal_F_000             543
_exptl_crystal_size_max          0.500
_exptl_crystal_size_mid          0.030
_exptl_crystal_size_min          0.020
_refine_diff_density_max         2.088
_refine_diff_density_min         -1.407
_refine_diff_density_rms         0.161
_refine_ls_extinction_method     none
_refine_ls_goodness_of_fit_ref   1.066
_refine_ls_hydrogen_treatment    constr
_refine_ls_matrix_type           full
_refine_ls_number_parameters     223
_refine_ls_number_reflns         3281
_refine_ls_number_restraints     6
_refine_ls_restrained_S_all      1.067
_refine_ls_R_factor_all          0.1335
_refine_ls_R_factor_gt           0.0783
_refine_ls_shift/su_max          0.000
_refine_ls_shift/su_mean         0.000
_refine_ls_structure_factor_coef Fsqd
_refine_ls_weighting_details
'w=1/[\s^2^(Fo^2^)+(0.1076P)^2^+0.4223P] where P=(Fo^2^+2Fc^2^)/3'
_refine_ls_weighting_scheme      calc
_refine_ls_wR_factor_gt          0.1948
_refine_ls_wR_factor_ref         0.2135
_reflns_Friedel_coverage         0.000
_reflns_number_gt                1966
_reflns_number_total             3281
_reflns_threshold_expression     'I > 2\s(I)'
_cod_data_source_file            d2ce00515h2.cif
_cod_data_source_block           Comp5_S174Hg2SCN3
_cod_original_cell_volume        879.46(13)
_cod_database_code               7244922
_shelx_shelxl_version_number     2014/7
_shelx_space_group_comment
;
The symmetry employed for this shelxl refinement is uniquely defined
by the following loop, which should always be used as a source of
symmetry information in preference to the above space-group names.
They are only intended as comments.
;
_shelx_estimated_absorpt_t_min   0.177
_shelx_estimated_absorpt_t_max   0.901
_shelx_res_file
;

    shelx.res created by SHELXL-2014/7

TITL 190712_S174HgSCN_0m_a.res in P-1
CELL  0.71073   4.9082   5.8283  30.9569   94.893   90.969   94.432
ZERR     1.00   0.0005   0.0004   0.0023    0.004    0.005    0.005
LATT   1
SFAC  C    H    N    S    HG
UNIT  29 14 5 15 1
MERG   2
OMIT     0.00 180.00
SHEL 7 0.82
DFIX  1.700 0.020 C15 S8
DFIX  2.500 0.020 C15 C14
DFIX  2.500 0.020 N3 N2
DFIX  1.150 0.020 N3 C15
DFIX  3.00 0.020 S7 S8
DFIX  2.800 0.02 S8 N3
EADP  C14 C15
EADP  N2 N3
EADP  HG1 S8
FMAP   2
PLAN   10
SIZE     0.020   0.030   0.500
ACTA
BOND   $H
L.S.  50
TEMP    23.00
WGHT    0.107600    0.422300
FVAR       0.50983
HG1   5    0.500000    0.000000    0.500000    10.50000    0.21685    0.04821 =
         0.05054    0.00806    0.00434    0.01746
S7    4    0.413212    0.132642    0.432733    10.85000    0.78954    0.06170 =
         0.06658   -0.00634   -0.06167    0.08430
C14   1    0.475955    0.418950    0.441949    10.85000    0.26755    0.05439 =
         0.06776    0.01457   -0.00545   -0.00483
N2    3    0.504888    0.606083    0.445720    10.85000    0.28530    0.04819 =
         0.08087    0.02059   -0.01008   -0.01427
S8    4    0.984897    0.139802    0.462396    10.40000    0.21685    0.04821 =
         0.05054    0.00806    0.00434    0.01746
C15   1    0.956205    0.426574    0.471054    10.40000    0.26755    0.05439 =
         0.06776    0.01457   -0.00545   -0.00483
N3    3    0.971157    0.620587    0.480597    10.40000    0.28530    0.04819 =
         0.08087    0.02059   -0.01008   -0.01427
S1    4    1.146681    0.158570    0.711853    11.00000    0.05370    0.05017 =
         0.05278    0.00269    0.01427    0.01833
S2    4    0.923446    0.607399    0.656105    11.00000    0.07364    0.05246 =
         0.03526    0.00844    0.01884    0.00490
S3    4    0.802000    0.337805    0.781514    11.00000    0.03860    0.04318 =
         0.03497    0.00761    0.00920    0.00830
S4    4    0.614367    0.718155    0.735206    11.00000    0.04557    0.04252 =
         0.03647    0.00879    0.01063    0.01248
S5    4    0.435707    0.493878    0.863238    11.00000    0.04111    0.03907 =
         0.03233    0.00570    0.01015    0.00898
S6    4    0.262238    0.881433    0.816404    11.00000    0.04622    0.03955 =
         0.03525    0.01020    0.01421    0.00928
N1    3   -0.496775    1.225149    0.962673    11.00000    0.06748    0.06395 =
         0.06253    0.00857    0.00440    0.03107
C1    1    1.211254    0.223884    0.657231    11.00000    0.07472    0.04548 =
         0.06457   -0.00333    0.02557    0.01621
AFIX  23
H1A   2    1.374125    0.329609    0.657701    11.00000   -1.20000
H1B   2    1.252350    0.082297    0.640693    11.00000   -1.20000
AFIX   0
C2    1    0.999605    0.322223    0.634408    11.00000    0.06507    0.07638 =
         0.04352   -0.00390    0.01087    0.02594
AFIX  23
H2A   2    0.834257    0.219746    0.634520    11.00000   -1.20000
H2B   2    1.051927    0.329784    0.604456    11.00000   -1.20000
AFIX   0
C3    1    0.933521    0.368598    0.729499    11.00000    0.03035    0.03391 =
         0.03345    0.00347    0.01021    0.00019
C4    1    0.847068    0.545611    0.708453    11.00000    0.03498    0.03375 =
         0.03178    0.00179    0.00452   -0.00483
C5    1    0.606629    0.573218    0.782017    11.00000    0.02904    0.03936 =
         0.03200    0.00708   -0.00352   -0.01030
C6    1    0.450401    0.642542    0.816198    11.00000    0.01920    0.03807 =
         0.02608   -0.00125    0.00713   -0.00927
C7    1    0.209344    0.670478    0.889467    11.00000    0.02901    0.03435 =
         0.03188    0.00011    0.00146   -0.00253
C8    1    0.121750    0.852878    0.867455    11.00000    0.02354    0.03768 =
         0.02937    0.00559    0.00849   -0.00650
C9    1    0.108455    0.635425    0.930835    11.00000    0.03729    0.04325 =
         0.03492    0.01485    0.01028    0.00256
AFIX  43
H9    2    0.165108    0.514786    0.945711    11.00000   -1.20000
AFIX   0
C10   1   -0.058570    0.998835    0.886156    11.00000    0.03001    0.03003 =
         0.03769    0.00748   -0.00039   -0.00515
AFIX  43
H10   2   -0.114411    1.121008    0.871632    11.00000   -1.20000
AFIX   0
C11   1   -0.071672    0.778044    0.948969    11.00000    0.04836    0.05627 =
         0.03128    0.01290   -0.00054    0.00489
AFIX  43
H11   2   -0.139745    0.754023    0.976211    11.00000   -1.20000
AFIX   0
C12   1   -0.155822    0.961430    0.926888    11.00000    0.03468    0.04091 =
         0.03715   -0.00761    0.00375    0.00646
C13   1   -0.346350    1.105466    0.946666    11.00000    0.05838    0.05571 =
         0.03656    0.01215    0.00435    0.01330
HKLF    4

REM  190712_S174HgSCN_0m_a.res in P-1
REM R1 =  0.0783 for    1966 Fo > 4sig(Fo)  and  0.1335 for all    3281 data
REM    223 parameters refined using      6 restraints

END

WGHT      0.1071      0.4521

REM Highest difference peak  2.088,  deepest hole -1.407,  1-sigma level  0.161
Q1    1   0.7562  0.1916  0.4489  11.00000  0.05    2.09
Q2    1   0.5904 -0.1372  0.4890  11.00000  0.05    1.26
Q3    1   1.1544  0.1518  0.4482  11.00000  0.05    0.90
Q4    1   0.3876  0.0393  0.4888  11.00000  0.05    0.63
Q5    1   0.6598  0.0560  0.4904  11.00000  0.05    0.60
Q6    1   0.3456  0.6191  0.8742  11.00000  0.05    0.57
Q7    1   1.0078  0.2771  0.7131  11.00000  0.05    0.52
Q8    1   0.7012  0.4480  0.4584  11.00000  0.05    0.52
Q9    1   0.7423  0.6986  0.4628  11.00000  0.05    0.52
Q10   1   0.3196  0.6085  0.4614  11.00000  0.05    0.52
;
_shelx_res_checksum              40103
_shelx_hkl_file
;
  -1   0   0  351.46   30.80
  -1   0   0  341.77   30.80
   1   0   0  367.86   30.70
   1   0   0  347.07   30.60
  -2   0   0  417.76   38.40
   2   0   0  414.96   37.60
   2   0   0  454.65   38.10
  -3   0   0  413.66   39.00
   3   0   0  436.56   38.90
  -4   0   0   18.40   11.80
   4   0   0   48.30   13.20
  -5   0   0   27.00   14.00
   5   0   0   48.90   15.90
  -6   0   0    6.70   15.60
   5  -1   0   88.59   20.40
  -5   1   0   77.29   17.30
   4  -1   0   19.90   12.90
  -4   1   0    8.20   12.20
   3  -1   0  203.38   20.40
   3  -1   0  178.58   21.50
   2  -1   0   19.10    9.80
   1  -1   0  331.87   31.40
   1  -1   0  327.27   29.70
   1  -1   0  357.56   29.50
  -1   1   0  330.77   30.60
  -1   1   0  338.37   29.30
   0  -1   0  177.08   16.00
   0  -1   0  198.28   16.40
   0  -1   0  169.88   15.80
   0  -1   0  160.48   17.80
   0   1   0  174.88   16.00
   0   1   0  162.88   18.50
   0   1   0  161.08   16.00
   0   1   0  171.78   16.30
  -1  -1   0  233.78   23.30
  -1  -1   0  245.08   21.50
   1   1   0  217.28   21.80
   1   1   0  232.38   22.70
   1   1   0  216.18   21.10
   1   1   0  262.57   26.30
  -2  -1   0   18.70    9.00
  -2  -1   0  -18.80    9.80
   2   1   0    3.40    5.30
   2   1   0   15.10   18.00
   2   1   0   15.00    8.60
   2   1   0   12.00    6.60
  -3  -1   0  244.98   28.30
  -3  -1   0  284.07   27.40
   3   1   0  265.27   36.70
  -4  -1   0   23.20   11.60
  -4  -1   0    3.70   12.30
   4   1   0   -4.30   27.60
  -5  -1   0   11.00   13.30
   5   1   0   -8.40   33.30
  -6  -1   0   13.10   15.30
   5  -2   0   12.00   24.90
   4  -2   0   90.99   24.40
   3  -2   0   55.19   16.40
   3  -2   0   58.09   10.00
   3  -2   0   51.59    9.80
   2  -2   0 1690.83  129.99
   2  -2   0 1547.35  129.79
   2  -2   0 1393.66  131.59
   1  -2   0  933.61   74.19
   1  -2   0  893.01   73.89
   1  -2   0  768.02   75.19
   1  -2   0  953.50   77.19
  -1   2   0  912.01   77.69
  -1   2   0  838.32   74.39
  -1   2   0  801.92   73.79
   0  -2   0  364.36   40.80
   0  -2   0  464.05   38.60
   0   2   0  504.05   43.70
   0   2   0  429.36   37.80
   0   2   0  451.95   38.60
   0   2   0  440.16   38.80
  -1  -2   0  664.83   70.59
  -1  -2   0  817.32   68.19
  -1  -2   0  830.82   67.29
   1   2   0  830.32   67.49
   1   2   0  844.12   67.69
   1   2   0  766.32   67.49
  -2  -2   0   27.90   11.60
  -2  -2   0   55.99   12.40
  -2  -2   0   59.59    9.00
   2   2   0   46.00    7.80
   2   2   0   47.90   21.80
   2   2   0   44.20    8.40
  -3  -2   0   -4.50   10.90
  -3  -2   0    5.20   11.20
   3   2   0    0.60    7.70
   3   2   0    8.90    6.50
   3   2   0   -1.30   23.10
  -4  -2   0   70.59   15.60
  -4  -2   0   45.50   14.30
   4   2   0   81.59   34.50
   4   2   0   61.29   10.40
  -5  -2   0   24.00   15.50
  -5  -2   0    0.50   14.60
   5   2   0   -9.00   37.70
   5   2   0    7.10   10.10
   5  -3   0   13.80   33.50
   4  -3   0   14.20   25.00
   4  -3   0   21.30   12.60
   3  -3   0    2.30   19.60
   3  -3   0   -9.40   18.80
   3  -3   0   18.00   10.10
   3  -3   0   13.10   10.30
   2  -3   0  351.96   44.20
   2  -3   0  459.15   38.80
   2  -3   0  434.86   45.50
  -2   3   0  431.86   37.80
   1  -3   0  374.06   32.00
   1  -3   0  343.07   35.00
  -1   3   0  312.07   41.60
  -1   3   0  348.67   31.90
   0  -3   0  339.27   31.20
   0  -3   0  317.57   30.90
   0   3   0  324.97   42.50
   0   3   0  358.56   31.60
  -1  -3   0   23.30   11.00
  -1  -3   0   18.80   13.40
  -1  -3   0    8.40    8.90
   1   3   0   29.60    8.90
   1   3   0   14.00    8.70
   1   3   0   53.69   23.20
  -2  -3   0   33.40   13.10
  -2  -3   0   12.70    9.10
   2   3   0   50.49   24.80
   2   3   0   17.00    9.70
  -3  -3   0    8.00   13.90
  -3  -3   0   27.20   11.20
  -3  -3   0   13.50   12.80
   3   3   0    0.50   25.70
   3   3   0   23.70    9.80
  -4  -3   0   17.70   15.80
  -4  -3   0   13.10   14.10
   4   3   0    7.50   34.30
   4   3   0    9.00   10.00
  -5  -3   0   20.70   16.70
   5   3   0   33.20   12.30
   5  -4   0  -11.20   18.80
   5  -4   0    5.10   35.50
   4  -4   0   10.80   33.80
   4  -4   0    6.90   15.90
   3  -4   0   26.30   25.20
   3  -4   0  -20.90   11.40
   2  -4   0   76.39   13.60
   2  -4   0   87.79   21.00
   2  -4   0   82.89   18.30
  -2   4   0   68.49   12.30
   1  -4   0 1268.67  118.29
   1  -4   0 1421.86  114.69
  -1   4   0 1377.46  114.79
  -1   4   0 1342.37  125.99
   0  -4   0   12.30    9.60
   0  -4   0    8.00   15.20
   0   4   0   -1.90   10.30
   0   4   0  -12.20   30.50
  -1  -4   0  282.97   26.40
  -1  -4   0  264.27   26.20
   1   4   0  172.48   23.70
   1   4   0  303.37   45.50
  -2  -4   0  447.36   40.70
  -2  -4   0  381.36   37.90
   2   4   0  324.97   37.90
   2   4   0  484.05   58.19
  -3  -4   0  -10.70   15.40
  -3  -4   0  -17.40   15.10
   3   4   0    1.70   11.70
   3   4   0   -9.00   27.90
  -4  -4   0   -4.90   17.10
  -4  -4   0   19.20   18.10
   4   4   0   24.60   42.60
   4   4   0    8.80   12.20
   5   4   0    3.00   12.60
   4  -5   0   40.20   19.70
   3  -5   0   34.50   16.60
   2  -5   0  131.39   19.40
  -2   5   0  126.69   17.50
   1  -5   0   99.99   17.60
  -1   5   0  296.57   68.19
  -1   5   0  134.39   19.10
   0  -5   0   61.79   14.00
   0   5   0   33.40   56.19
   0   5   0   82.19   15.40
  -1  -5   0   91.19   16.70
  -1  -5   0   96.59   19.40
   1   5   0  143.79   43.00
   1   5   0   85.69   17.00
  -2  -5   0   64.69   21.80
  -2  -5   0   85.79   17.00
   2   5   0   58.79   16.10
  -3  -5   0   -8.10   18.70
  -3  -5   0   27.00   18.50
   3   5   0    4.60   14.40
   3   5   0   16.70   47.40
  -4  -5   0  -13.30   20.10
   4   5   0  -11.20   15.50
   4  -6   0   29.30   23.70
   3  -6   0  197.08   30.10
   2  -6   0   60.49   20.70
   1  -6   0   25.10   15.40
  -1   6   0   73.09   18.40
   0  -6   0  166.58   24.90
   0   6   0  227.58   27.50
  -1  -6   0   18.90   17.20
  -1  -6   0    3.30   18.70
   1   6   0   -3.40   16.90
  -2  -6   0    8.30   23.40
   2   6   0   -0.10   17.00
  -3  -6   0    3.90   26.00
   3   6   0    3.40   16.90
   2  -7   0   38.90   19.50
   1  -7   0   -0.30   17.70
   0  -7   0   53.39   20.20
   0   7   0  117.09   24.40
  -1  -7   0  -15.70   19.20
   1   7   0  -27.20   19.70
   1   7  -1   14.80   24.00
  -1  -7   1   10.70   18.80
   0   7  -1  193.78   30.00
   0  -7   1  144.09   25.70
   1  -7   1   76.49   20.40
   2  -7   1   29.10   19.30
   3   6  -1   21.30   19.20
  -3  -6   1   36.40   28.00
   2   6  -1   -4.80   16.00
   1   6  -1   26.70   18.10
  -1  -6   1   17.60   18.70
  -1  -6   1   16.30   16.20
   0   6  -1  115.99   22.60
   0  -6   1   97.69   19.50
  -1   6  -1  272.87   31.40
  -1   6  -1  296.57   75.99
   1  -6   1  184.88   26.60
   2  -6   1   12.40   16.00
   3  -6   1   57.19   18.80
   4  -6   1   30.10   21.60
   4   5  -1   -3.10   15.00
  -4  -5   1   -0.40   20.60
   3   5  -1  -33.10   41.30
   3   5  -1  -12.00   14.70
  -3  -5   1    2.10   17.20
  -3  -5   1   -4.80   18.50
   2   5  -1   25.20   14.70
  -2  -5   1   31.50   19.80
  -2  -5   1   63.69   15.40
   1   5  -1  163.88   45.20
   1   5  -1   78.59   16.80
  -1  -5   1  106.19   17.10
  -1  -5   1  117.99   19.50
   0   5  -1  130.59   60.79
   0   5  -1  151.48   19.60
   0  -5   1  125.39   18.10
  -1   5  -1  639.14   94.29
  -1   5  -1  555.74   48.60
   1  -5   1  446.86   47.30
  -2   5  -1   81.79   14.00
   2  -5   1   33.30   14.50
   3  -5   1    0.50   14.90
   4  -5   1   73.69   23.50
   5   4  -1   16.20   14.00
   4   4  -1   18.10   11.90
   4   4  -1   19.80   43.40
  -4  -4   1   23.60   17.00
  -4  -4   1   -4.90   17.40
   3   4  -1   14.60   12.00
   3   4  -1  -17.80   36.10
  -3  -4   1   -8.70   14.70
  -3  -4   1    1.20   15.40
   2   4  -1    0.10    9.20
   2   4  -1    6.20   30.00
  -2  -4   1   13.20   13.20
  -2  -4   1   -6.30   11.20
   1   4  -1  134.09   20.50
   1   4  -1  260.97   43.10
  -1  -4   1  189.58   22.50
  -1  -4   1  225.98   21.80
   0   4  -1  122.49   32.00
   0   4  -1   50.89   12.50
   0  -4   1   45.70   11.40
   0  -4   1   51.99   17.00
  -1   4  -1  115.89   34.10
  -1   4  -1   23.30   10.60
   1  -4   1   15.10   13.20
   1  -4   1   20.30   10.40
  -2   4  -1   22.20   10.30
   2  -4   1   45.10   11.80
   2  -4   1   44.70   16.40
   3  -4   1   38.20   13.00
   3  -4   1   40.60   22.00
   4  -4   1   48.30   17.40
   4  -4   1   73.19   34.30
   5  -4   1   -0.20   20.30
   5  -4   1   37.10   37.20
   5   3  -1   15.70   10.60
  -5  -3   1   -8.80   16.30
   4   3  -1   -2.30    9.50
   4   3  -1  -23.90   33.90
  -4  -3   1   -4.20   14.20
  -4  -3   1  -12.00   14.30
   3   3  -1   12.70   10.00
   3   3  -1   30.30   26.10
  -3  -3   1   20.00   14.10
  -3  -3   1    1.40   12.40
  -3  -3   1   37.70   11.60
   2   3  -1   84.69   27.70
   2   3  -1   81.49   12.10
  -2  -3   1   84.99   15.30
  -2  -3   1  110.69   13.30
   1   3  -1 3812.92  304.47
   1   3  -1 3820.22  311.97
   1   3  -1 3434.76  304.37
  -1  -3   1 3677.33  304.67
  -1  -3   1 3617.84  304.27
  -1  -3   1 3540.45  308.97
   0   3  -1  151.78   15.60
   0   3  -1  104.49   29.60
   0   3  -1  146.99   16.30
   0  -3   1  145.19   16.00
   0  -3   1  149.19   22.10
  -1   3  -1   36.60   18.40
  -1   3  -1   30.80    9.30
   1  -3   1   25.10   11.70
   1  -3   1   28.20    9.10
  -2   3  -1  903.81   72.79
   2  -3   1  900.71   73.39
   2  -3   1  816.82   78.89
   2  -3   1  771.42   76.89
   3  -3   1   52.89   22.10
   3  -3   1   65.39   12.50
   3  -3   1   57.99   21.40
   3  -3   1   79.69   13.10
   4  -3   1   33.70   13.80
   4  -3   1   54.29   27.60
   5  -3   1   36.50   17.20
   5  -3   1   37.00   31.50
   5   2  -1    9.20    9.70
   5   2  -1  -19.80   31.90
  -5  -2   1    8.10   14.20
  -5  -2   1   -2.20   13.70
   4   2  -1  159.88   38.60
   4   2  -1  110.59   14.30
  -4  -2   1  120.79   18.50
  -4  -2   1   93.99   17.70
   3   2  -1   12.50   24.70
   3   2  -1   -4.20    6.00
   3   2  -1   -7.60    7.70
  -3  -2   1   19.20   11.10
  -3  -2   1    3.60   10.90
   2   2  -1  234.98   24.10
   2   2  -1  340.27   37.00
   2   2  -1  237.18   23.40
  -2  -2   1  239.98   23.80
  -2  -2   1  251.67   26.20
  -2  -2   1  265.27   27.80
   1   2  -1  669.13   57.29
   1   2  -1  547.15   50.49
   1   2  -1  579.74   50.99
   1   2  -1  527.35   50.79
  -1  -2   1  679.43   55.69
  -1  -2   1  566.54   51.39
  -1  -2   1  550.04   50.39
   0   2  -1  817.12   70.69
   0   2  -1  783.32   66.89
   0  -2   1  712.03   69.19
   0  -2   1  827.92   66.69
  -1   2  -1  706.13   60.39
  -1   2  -1  695.23   64.09
  -1   2  -1  632.24   59.69
   1  -2   1  723.73   59.79
   1  -2   1  609.64   61.09
   1  -2   1  752.82   60.29
   1  -2   1  784.82   63.69
   2  -2   1 1269.27  104.59
   2  -2   1 1327.27  104.89
   2  -2   1 1121.29  106.39
   3  -2   1  269.57   29.20
   3  -2   1  251.97   24.50
   3  -2   1  237.58   24.60
   4  -2   1  -15.90   16.20
   5  -2   1   16.70   25.10
  -6  -1   1   22.80   17.70
   5   1  -1   12.60   31.90
   5   1  -1   14.20   17.20
  -5  -1   1  -10.80   12.70
   4   1  -1   36.40   28.40
  -4  -1   1   30.20   13.30
  -4  -1   1   40.30   12.80
   3   1  -1  521.45   52.69
  -3  -1   1  435.66   42.70
  -3  -1   1  428.86   42.50
   2   1  -1  501.05   40.40
   2   1  -1  461.05   38.60
   2   1  -1  382.06   38.20
  -2  -1   1  449.46   40.70
  -2  -1   1  490.15   40.70
   1   1  -1  510.45   40.70
   1   1  -1  414.16   35.60
   1   1  -1  343.97   35.10
   1   1  -1  416.46   36.40
  -1  -1   1  424.56   36.80
  -1  -1   1  389.66   35.20
   0   1  -1  226.88   21.70
   0   1  -1  242.48   21.60
   0   1  -1  251.77   23.90
   0   1  -1  227.78   21.30
   0  -1   1  237.38   21.80
   0  -1   1  239.38   23.40
   0  -1   1  235.98   21.30
  -1   1  -1  821.92   75.29
  -1   1  -1  926.81   75.39
  -1   1  -1  898.21   75.99
   1  -1   1  947.31   75.39
   1  -1   1  907.61   75.59
   1  -1   1  893.61   76.39
  -3   1  -1  203.08   22.30
   3  -1   1  250.37   24.30
   3  -1   1  214.88   24.60
  -4   1  -1  -11.10   11.80
   4  -1   1    1.70   13.50
  -5   1  -1   54.89   17.30
  -6   0   1   32.10   15.40
   5   0  -1   19.80   16.70
   5   0  -1   17.80   32.80
  -5   0   1   23.80   13.90
   4   0  -1   33.50   13.00
  -4   0   1   33.10   13.30
   3   0  -1  116.69   14.20
   3   0  -1  110.29   15.20
  -3   0   1  104.09   15.00
   2   0  -1  405.16   33.00
   2   0  -1  352.16   32.50
  -2   0   1  336.87   33.20
   1   0  -1  637.74   54.79
   1   0  -1  666.93   54.79
  -1   0   1  644.64   54.99
  -1   0   1  635.84   54.99
   0   0  -1   -0.10    0.20
   0   0  -1    0.00    0.10
   0   0   1    0.10    0.20
   0   0   1    0.00    0.10
  -1   0  -1  456.95   39.00
  -1   0  -1  448.46   39.00
   1   0   1  443.66   38.70
   1   0   1  465.55   38.90
  -2   0  -1  445.06   40.50
   2   0   1  448.96   39.80
   2   0   1  475.35   40.30
  -3   0  -1  100.19   15.60
   3   0   1  137.39   15.10
   3   0   1  114.89   14.80
  -4   0  -1    3.20   11.40
   4   0   1   19.40   11.40
  -5   0  -1   -5.90   13.60
   5   0   1   21.40   15.10
  -6   0  -1   13.60   16.00
   5  -1  -1    1.60   16.10
  -5   1   1   22.80   14.40
   4  -1  -1  -18.20   12.00
  -4   1   1   -7.60   11.70
   3  -1  -1   11.80    9.10
   3  -1  -1  -18.40   10.90
  -3   1   1  -29.00   10.30
   2  -1  -1 1517.05  127.99
   1  -1  -1  429.96   37.30
   1  -1  -1  430.06   35.60
   1  -1  -1  404.76   35.80
  -1   1   1  399.56   36.60
   0  -1  -1 1407.66  120.19
   0  -1  -1 1439.46  120.39
   0  -1  -1 1213.08  121.19
   0  -1  -1 1527.25  120.59
   0  -1  -1 1569.24  120.49
   0   1   1 1426.56  120.49
   0   1   1 1392.16  120.39
   0   1   1 1560.84  120.39
   0   1   1 1410.96  121.79
   0   1   1 1487.25  120.19
  -1  -1  -1 9765.52  780.12
  -1  -1  -1 9742.83  780.42
   1   1   1 9798.52  780.32
   1   1   1 9069.49  780.02
   1   1   1 8602.24  780.02
  -2  -1  -1   -1.80    9.60
  -2  -1  -1   10.30    9.10
   2   1   1   14.40    6.40
   2   1   1   12.00    5.90
   2   1   1   15.60    8.10
  -3  -1  -1   29.00   12.30
  -3  -1  -1   40.40   11.70
   3   1   1   26.50    6.50
   3   1   1   23.10    7.00
  -4  -1  -1    2.30   11.50
  -4  -1  -1   15.80   11.70
   4   1   1   14.40   29.70
  -5  -1  -1    6.60   13.40
   5   1   1   13.70   33.60
  -6  -1  -1   20.00   16.10
   4  -2  -1  108.09   23.60
   3  -2  -1   34.80   15.20
   3  -2  -1   21.80    8.70
   2  -2  -1  521.55   41.90
   2  -2  -1  425.46   44.60
   2  -2  -1  473.55   41.60
   1  -2  -1  390.46   42.60
   1  -2  -1  458.75   40.50
   1  -2  -1  524.75   43.50
   1  -2  -1  472.15   41.10
  -1   2   1  412.26   40.30
  -1   2   1  487.65   45.40
  -1   2   1  477.65   41.20
   0  -2  -1  428.76   44.40
   0  -2  -1  505.45   41.80
   0   2   1  479.45   41.10
   0   2   1  506.25   47.30
   0   2   1  487.45   41.80
   0   2   1  472.75   41.90
  -1  -2  -1  487.25   42.50
  -1  -2  -1  476.95   41.40
  -1  -2  -1  488.25   46.30
   1   2   1  471.15   41.40
   1   2   1  408.06   45.90
   1   2   1  503.25   41.70
  -2  -2  -1  557.74   49.70
  -2  -2  -1  600.84   52.19
  -2  -2  -1  497.65   51.29
   2   2   1  562.54   49.50
   2   2   1  670.33   59.09
   2   2   1  577.94   49.99
  -3  -2  -1    4.80   11.60
  -3  -2  -1    5.00   11.80
   3   2   1   26.10   21.20
   3   2   1   19.70    7.80
   3   2   1   19.50    7.10
  -4  -2  -1   98.39   18.40
  -4  -2  -1  101.69   18.00
   4   2   1  155.38   34.70
   4   2   1  127.89   14.80
  -5  -2  -1   29.60   15.70
  -5  -2  -1    6.10   14.00
   5   2   1  -15.90   39.00
   5   2   1    3.40   10.30
   5  -3  -1   25.90   33.30
   4  -3  -1  264.77   28.60
   4  -3  -1  321.37   44.60
   3  -3  -1   24.20   20.50
   3  -3  -1   61.79   12.20
   3  -3  -1   49.99   21.30
   3  -3  -1   54.19   11.70
   2  -3  -1  137.99   16.40
   2  -3  -1  168.18   24.80
   2  -3  -1  136.89   21.50
   2  -3  -1  130.19   22.10
  -2   3   1  150.18   15.30
   1  -3  -1 1139.59  101.59
   1  -3  -1 1194.08  102.19
  -1   3   1 1076.59  105.09
  -1   3   1 1276.77   99.39
   0  -3  -1  910.51   82.99
   0  -3  -1 1019.10   79.49
   0   3   1  832.42   86.39
   0   3   1  957.60   79.59
  -1  -3  -1   39.90   16.00
  -1  -3  -1   33.70    9.70
  -1  -3  -1   31.70   11.80
   1   3   1   31.90   21.60
   1   3   1   26.50    9.20
   1   3   1   44.10    9.70
  -2  -3  -1  226.68   24.50
  -2  -3  -1  208.48   25.50
   2   3   1  242.88   24.80
   2   3   1  270.47   38.50
  -3  -3  -1  -17.70   13.20
  -3  -3  -1    3.40   10.80
  -3  -3  -1    1.70   12.50
   3   3   1  -17.90   27.50
   3   3   1    9.40    9.50
  -4  -3  -1   25.50   15.90
  -4  -3  -1  -11.00   13.40
   4   3   1    4.60   36.90
   4   3   1   -7.10    9.00
  -5  -3  -1  -15.70   15.70
   5   3   1   11.50   11.30
   5  -4  -1   -0.80   18.50
   4  -4  -1   24.70   30.80
   4  -4  -1   18.90   15.60
   3  -4  -1   40.90   27.30
   3  -4  -1   25.40   23.50
   3  -4  -1   13.50   13.00
   2  -4  -1   40.90   12.00
   2  -4  -1   43.00   19.00
   2  -4  -1   48.30   15.10
   1  -4  -1  396.86   47.80
   1  -4  -1  540.75   44.90
  -1   4   1  549.85   45.20
  -1   4   1  582.84   63.49
   0  -4  -1   37.80   10.90
   0  -4  -1   44.70   17.40
   0   4   1   42.50   11.50
   0   4   1   61.79   30.60
  -1  -4  -1  248.38   27.00
  -1  -4  -1  243.98   25.90
   1   4   1  280.47   51.49
   1   4   1  252.77   26.30
  -2  -4  -1  -20.60   12.50
  -2  -4  -1   27.10   11.90
   2   4   1   14.80   29.40
   2   4   1   -3.90   10.70
  -3  -4  -1   11.70   16.60
  -3  -4  -1   20.30   16.80
   3   4   1   11.10   11.60
   3   4   1   -2.20   33.70
  -4  -4  -1   23.70   18.40
  -4  -4  -1   13.30   16.50
   4   4   1   13.90   42.30
   4   4   1  -20.90   13.00
   4  -5  -1   11.00   32.60
   4  -5  -1   31.40   17.70
   3  -5  -1  102.09   19.10
   2  -5  -1  -12.90   13.30
  -2   5   1   14.40   12.40
   1  -5  -1  260.47   29.40
  -1   5   1  393.06   74.39
  -1   5   1  307.87   31.20
   0  -5  -1  465.55   43.60
   0   5   1  493.95   87.89
   0   5   1  447.86   44.80
  -1  -5  -1  -13.80   14.70
  -1  -5  -1  -18.10   12.30
   1   5   1   33.90   37.70
   1   5   1   31.00   14.00
  -2  -5  -1   21.60   15.30
  -2  -5  -1   28.10   18.70
   2   5   1   23.60   13.90
  -3  -5  -1  -11.90   20.70
  -3  -5  -1  -11.80   17.60
   3   5   1   11.10   39.40
   3   5   1   -6.80   13.40
  -4  -5  -1  -12.60   19.10
   4   5   1   11.20   16.30
   4  -6  -1    9.30   22.30
   3  -6  -1   38.30   19.20
   2  -6  -1   50.09   16.60
   1  -6  -1   56.39   17.70
  -1   6   1   42.40   18.30
  -1   6   1   66.49   59.39
   0  -6  -1   21.00   16.60
   0   6   1   67.19   17.90
   0   6   1   92.59   55.59
  -1  -6  -1   -4.80   19.30
  -1  -6  -1   -3.20   16.20
   1   6   1   -3.80   15.80
  -2  -6  -1   56.69   24.30
   2   6   1   67.19   19.60
  -3  -6  -1   23.80   27.40
   3   6   1   25.60   16.30
   2  -7  -1  237.88   32.20
   1  -7  -1   40.60   19.90
   0  -7  -1  -11.40   17.60
   0   7   1   48.70   23.40
  -1  -7  -1  -14.10   18.70
   1   7   1    6.70   21.50
   1   7  -2   22.00   20.80
  -1  -7   2  -18.40   20.50
   0   7  -2   94.19   23.30
   0  -7   2   13.60   19.10
   1  -7   2   -3.80   16.80
   2  -7   2   46.90   20.10
   3   6  -2    3.80   16.60
  -3  -6   2   30.80   28.00
   2   6  -2   97.99   20.90
  -2  -6   2   85.49   25.80
   1   6  -2   88.99   21.90
  -1  -6   2   94.39   19.60
  -1  -6   2   83.69   18.30
   0   6  -2   15.10   17.70
   0  -6   2   58.19   16.20
  -1   6  -2  187.18   23.20
   1  -6   2  104.49   20.40
   2  -6   2    0.20   15.80
   3  -6   2   86.19   22.40
   4  -6   2   39.20   24.80
   4   5  -2    1.50   14.80
  -4  -5   2    1.40   20.70
   3   5  -2   11.30   14.60
   3   5  -2    9.40   44.20
  -3  -5   2   10.80   17.50
  -3  -5   2   -8.00   20.20
   2   5  -2   18.80   14.50
  -2  -5   2   -4.30   17.60
  -2  -5   2   31.70   14.50
   1   5  -2    5.50   11.60
  -1  -5   2   -7.10   12.30
  -1  -5   2   11.60   13.90
   0   5  -2  237.18   26.00
   0   5  -2  233.88   56.59
   0  -5   2  210.18   24.20
  -1   5  -2  679.73   55.49
  -1   5  -2  677.63   99.89
   1  -5   2  506.35   53.89
  -2   5  -2  229.28   25.20
   2  -5   2  208.48   25.70
   3  -5   2   -8.30   14.60
   4  -5   2   76.59   22.30
   5   4  -2   15.20   14.20
   4   4  -2  121.59   18.40
   4   4  -2  196.78   54.59
  -4  -4   2  200.38   25.90
  -4  -4   2   96.09   22.90
   3   4  -2   36.70   35.30
   3   4  -2   23.40   13.20
  -3  -4   2   19.90   15.70
  -3  -4   2   26.80   16.00
   2   4  -2   29.90   26.80
   2   4  -2    9.90    9.90
  -2  -4   2   41.00   14.60
  -2  -4   2   23.90   11.60
   1   4  -2   41.60   26.40
   1   4  -2   43.30   11.00
  -1  -4   2   43.90   12.00
  -1  -4   2   29.40   13.40
   0   4  -2  596.44   73.59
   0   4  -2  608.04   53.69
   0  -4   2  625.64   52.89
   0  -4   2  561.74   57.49
  -1   4  -2   22.30   11.20
  -1   4  -2   55.09   32.80
   1  -4   2   21.00   10.70
   1  -4   2   29.20   15.30
   2  -4   2   93.99   14.60
   3  -4   2   79.39   21.90
   3  -4   2   59.99   15.40
   4  -4   2   19.30   15.50
   4  -4   2   -4.60   25.30
   5  -4   2   32.60   34.10
   5  -4   2   -0.30   20.30
   5   3  -2    3.10   11.00
  -5  -3   2   13.20   16.80
   4   3  -2   -0.40   33.60
   4   3  -2    4.30    9.90
  -4  -3   2   -5.90   13.70
  -4  -3   2   11.50   14.80
   3   3  -2    0.10    9.80
   3   3  -2   13.90   28.30
  -3  -3   2   12.80   12.70
  -3  -3   2    4.60   10.20
  -3  -3   2    5.30   13.20
   2   3  -2   19.50    8.50
   2   3  -2    9.80   23.60
  -2  -3   2   18.20   12.10
  -2  -3   2   24.50    8.80
   1   3  -2  464.25   46.40
   1   3  -2  548.55   46.90
   1   3  -2  517.45   58.39
  -1  -3   2  612.54   53.19
  -1  -3   2  479.35   46.10
  -1  -3   2  522.85   47.10
   0   3  -2  164.38   33.10
   0   3  -2  211.08   21.70
   0  -3   2  172.08   24.80
   0  -3   2  237.08   21.30
  -1   3  -2  436.46   48.50
  -1   3  -2  497.55   41.10
   1  -3   2  409.16   44.10
   1  -3   2  496.05   40.90
  -2   3  -2   14.30    8.30
   2  -3   2   17.90   14.40
   2  -3   2   38.60   18.30
   2  -3   2   20.10    9.20
   3  -3   2  109.49   28.40
   3  -3   2  166.38   24.60
   3  -3   2  153.28   18.10
   3  -3   2  151.38   18.20
   4  -3   2    6.60   24.40
   4  -3   2   -4.20   13.50
   5  -3   2   50.99   19.00
   5   2  -2   12.30   37.20
   5   2  -2   -5.80    9.00
  -5  -2   2    1.00   14.20
  -5  -2   2  -16.70   13.90
   4   2  -2   25.90   31.10
   4   2  -2    6.20    8.00
  -4  -2   2    8.10   12.60
  -4  -2   2    5.40   12.50
   3   2  -2  114.99   13.90
   3   2  -2  121.19   15.10
   3   2  -2  164.18   30.90
  -3  -2   2  158.88   18.60
  -3  -2   2  140.59   18.60
   2   2  -2  117.09   14.30
   2   2  -2  135.09   24.80
   2   2  -2  127.59   13.40
  -2  -2   2  150.98   16.90
  -2  -2   2   99.29   16.20
  -2  -2   2  139.89   13.80
   1   2  -2  351.96   35.60
   1   2  -2  253.67   27.50
   1   2  -2  248.38   26.80
   1   2  -2  306.97   28.00
  -1  -2   2  269.67   28.20
  -1  -2   2  265.57   27.00
  -1  -2   2  367.26   33.90
   0   2  -2 2467.65  219.88
   0   2  -2 2642.74  219.58
   0   2  -2 2705.03  222.98
   0  -2   2 2580.44  219.88
   0  -2   2 2708.53  219.68
   0  -2   2 2708.73  222.78
  -1   2  -2   79.49   17.50
  -1   2  -2   81.59   11.90
  -1   2  -2   70.69   10.90
   1  -2   2   93.09   16.70
   1  -2   2   87.39   10.70
   1  -2   2   71.99   12.00
   1  -2   2   75.19   13.20
  -2   2  -2  143.19   16.50
   2  -2   2  164.28   20.80
   2  -2   2  179.78   18.10
   2  -2   2  201.98   18.90
   3  -2   2   35.20    9.50
   3  -2   2   44.00   15.60
   3  -2   2   25.10    9.30
   4  -2   2   27.60   11.20
   4  -2   2   19.00   21.20
   5  -2   2   83.59   30.70
  -6  -1   2    9.30   16.10
   5   1  -2    8.90   33.20
  -5  -1   2   -8.90   12.70
   4   1  -2   27.20   26.10
  -4  -1   2   10.40   12.50
  -4  -1   2   11.40   11.20
   3   1  -2  353.96   41.30
  -3  -1   2  326.27   34.40
  -3  -1   2  365.06   34.20
   2   1  -2  200.88   21.40
   2   1  -2  190.08   27.60
  -2  -1   2  159.78   20.20
  -2  -1   2  226.28   20.40
   1   1  -2   41.40   14.80
   1   1  -2   25.40    9.10
  -1  -1   2   49.80    8.50
  -1  -1   2   29.60    8.70
  -1  -1   2   29.30   13.40
   0   1  -2 5819.62  459.75
   0   1  -2 5181.58  458.25
   0   1  -2 5609.34  458.15
   0   1  -2 5461.45  458.25
   0  -1   2 5281.07  458.25
   0  -1   2 5981.50  459.85
   0  -1   2 5441.46  458.15
   0  -1   2 5344.27  458.25
  -1   1  -2 1215.48  100.59
  -1   1  -2 1128.49  100.19
  -1   1  -2 1222.88  100.09
   1  -1   2 1276.07  100.39
   1  -1   2 1240.28  100.19
   1  -1   2 1096.49  100.69
  -2   1  -2  263.37   26.40
   2  -1   2  263.47   27.30
   2  -1   2  304.97   25.80
   2  -1   2  305.67   26.00
  -3   1  -2 1259.17  104.19
   3  -1   2 1224.58  104.99
   3  -1   2 1203.48  104.49
  -4   1  -2  -23.70   10.50
   4  -1   2    8.80   12.30
  -5   1  -2   15.50   15.80
   5  -1   2   61.29   19.00
  -6   0   2   26.70   15.80
   5   0  -2  167.38   24.60
   5   0  -2  157.08   39.80
  -5   0   2   99.89   19.20
   4   0  -2   63.29   15.60
  -4   0   2   35.30   14.30
   3   0  -2  105.69   13.60
  -3   0   2   88.69   14.30
   2   0  -2 1565.34  126.09
   2   0  -2 1493.55  126.19
  -2   0   2 1449.15  126.29
   1   0  -2 2581.34  214.88
   1   0  -2 2543.45  214.88
  -1   0   2 2621.34  214.98
   0   0  -2   -1.60    1.30
   0   0  -2   -2.20    1.80
   0   0   2   -1.60    1.50
   0   0   2   -2.40    1.50
   0   0   2   -1.60    1.90
  -1   0  -2  567.34   48.10
  -1   0  -2  595.54   48.70
  -1   0  -2  530.65   48.80
   1   0   2  568.54   48.70
   1   0   2  599.54   48.40
   1   0   2  576.54   48.30
  -2   0  -2  594.64   52.09
  -2   0  -2  541.35   51.89
   2   0   2  625.94   51.39
   2   0   2  627.84   51.79
  -3   0  -2   49.80   12.40
   3   0   2   68.79   11.20
   3   0   2   64.19   11.20
  -4   0  -2    1.60   12.00
   4   0   2   27.00   11.30
  -5   0  -2    2.60   13.30
   5   0   2    6.90   13.70
  -6   0  -2  -17.60   13.90
   6  -1  -2    4.20   37.20
   5  -1  -2  164.98   28.10
  -5   1   2  144.99   22.00
   4  -1  -2   23.80   13.90
  -4   1   2   33.20   13.70
   3  -1  -2   31.00    9.50
   3  -1  -2  -20.80   11.20
   2  -1  -2 1716.23  144.69
   1  -1  -2 1041.20   89.49
   1  -1  -2 1012.70   88.39
   1  -1  -2 1134.99   88.39
  -1   1   2 1034.10   89.09
   0  -1  -2 1512.95  130.19
   0  -1  -2 1568.94  130.29
   0  -1  -2 1649.23  130.49
   0   1   2 1532.75  130.19
   0   1   2 1558.24  130.29
   0   1   2 1529.25  130.19
  -1  -1  -2 2306.27  189.28
  -1  -1  -2 2351.86  188.98
   1   1   2 2344.57  189.18
   1   1   2 2108.59  188.88
   1   1   2 2274.37  188.88
   1   1   2 2215.08  191.88
  -2  -1  -2  177.58   19.20
  -2  -1  -2  179.88   18.80
   2   1   2  184.38   19.30
   2   1   2  150.88   17.30
   2   1   2  175.98   16.70
  -3  -1  -2   54.99   12.30
  -3  -1  -2   33.00   13.00
   3   1   2   60.19    8.80
   3   1   2   47.80    8.00
  -4  -1  -2   26.50   12.20
  -4  -1  -2   13.80   12.70
   4   1   2    6.70    8.20
   4   1   2  -13.50   29.00
  -5  -1  -2   -0.50   13.20
   5   1   2  -26.50   33.90
   5   1   2   -2.40    9.70
  -6  -1  -2    2.20   18.10
   5  -2  -2   13.60   24.00
   4  -2  -2   36.80   24.00
   3  -2  -2    5.30   14.70
   2  -2  -2  118.49   13.00
   2  -2  -2  109.09   17.80
   2  -2  -2  124.69   13.40
   1  -2  -2 2555.74  198.38
   1  -2  -2 2456.45  199.88
   1  -2  -2 2199.28  199.48
   1  -2  -2 2576.74  198.28
  -1   2   2 2413.66  200.88
  -1   2   2 2157.58  197.98
  -1   2   2 2270.97  198.68
   0  -2  -2  646.44   68.09
   0  -2  -2  784.32   66.19
   0  -2  -2  820.72   66.09
   0   2   2  763.52   70.09
   0   2   2  837.62   66.29
   0   2   2  827.12   66.29
  -1  -2  -2 1037.70   88.49
  -1  -2  -2 1097.49   89.09
  -1  -2  -2 1033.90   92.89
   1   2   2  960.40   88.39
   1   2   2 1072.19   88.59
   1   2   2 1083.79   93.19
  -2  -2  -2  402.56   37.10
  -2  -2  -2  493.95   40.00
  -2  -2  -2  388.26   38.70
   2   2   2  396.96   36.50
   2   2   2  375.06   36.80
   2   2   2  453.95   44.80
  -3  -2  -2   10.30   11.90
  -3  -2  -2   -5.60   11.30
   3   2   2   -2.80    6.70
   3   2   2    0.90    7.70
   3   2   2   12.10   23.90
  -4  -2  -2   79.79   17.20
  -4  -2  -2   76.49   16.40
   4   2   2  115.79   36.40
   4   2   2   97.59   13.20
  -5  -2  -2   36.20   16.30
  -5  -2  -2   31.60   15.40
   5   2   2   46.90   11.80
   5   2   2   14.90   36.80
   5  -3  -2    9.40   33.50
   4  -3  -2   52.29   27.50
   3  -3  -2   73.49   23.30
   3  -3  -2  110.19   14.10
   3  -3  -2  101.49   25.80
   3  -3  -2   98.89   14.30
   2  -3  -2   12.10   15.30
   2  -3  -2   28.40   15.50
   2  -3  -2   16.20    9.60
   2  -3  -2    9.30    9.00
  -2   3   2   14.50    7.30
   1  -3  -2   18.80   10.90
   1  -3  -2    9.60    8.80
   1  -3  -2   31.40   14.00
  -1   3   2   28.50    8.20
  -1   3   2   10.80   18.60
   0  -3  -2  311.27   28.40
   0  -3  -2  220.68   30.70
   0  -3  -2  345.07   28.30
   0   3   2  302.37   28.40
   0   3   2  367.86   39.30
  -1  -3  -2  263.27   24.60
  -1  -3  -2  249.48   26.20
  -1  -3  -2  194.08   29.30
   1   3   2  231.88   24.50
   1   3   2  240.68   23.60
   1   3   2  267.57   25.70
   1   3   2  252.27   35.20
  -2  -3  -2  397.36   36.10
  -2  -3  -2  355.06   38.30
   2   3   2  363.76   35.90
   2   3   2  446.86   48.50
  -3  -3  -2   15.90   11.70
  -3  -3  -2   15.80   13.50
  -3  -3  -2    9.20   14.70
   3   3   2   20.90   30.10
   3   3   2    7.40    8.70
  -4  -3  -2    1.70   13.80
  -4  -3  -2   28.20   16.10
   4   3   2   -9.30   34.80
   4   3   2    2.70    9.90
  -5  -3  -2   20.10   17.20
   5   3   2   17.10   11.90
   5  -4  -2    5.00   19.20
   5  -4  -2    1.70   41.90
   4  -4  -2   16.30   16.00
   4  -4  -2   66.89   37.10
   3  -4  -2  275.47   37.00
   3  -4  -2  250.97   36.00
   3  -4  -2  234.98   27.20
   2  -4  -2  408.96   36.20
   2  -4  -2  446.26   45.00
   2  -4  -2  327.57   38.90
  -2   4   2  402.66   35.50
   1  -4  -2   58.69   16.80
   1  -4  -2   47.40   11.90
  -1   4   2   57.49   11.80
  -1   4   2   64.59   33.60
   0  -4  -2  328.67   30.70
   0  -4  -2  301.97   35.70
   0   4   2  355.56   50.49
   0   4   2  292.17   30.90
  -1  -4  -2  374.46   36.60
  -1  -4  -2  381.46   35.40
   1   4   2  309.37   35.40
   1   4   2  398.66   56.29
  -2  -4  -2  245.08   23.40
  -2  -4  -2  184.98   25.40
   2   4   2  163.18   21.60
   2   4   2  204.38   40.00
  -3  -4  -2   20.20   17.00
  -3  -4  -2    3.30   14.70
   3   4   2    2.00   10.40
   3   4   2  -20.80   31.00
  -4  -4  -2   13.00   16.50
  -4  -4  -2  -14.10   18.00
   4   4   2    0.60   42.40
   4   4   2   -1.00   13.40
   4  -5  -2   12.40   19.40
   4  -5  -2   14.30   28.10
   3  -5  -2    8.80   16.10
   3  -5  -2   17.70   28.70
   2  -5  -2   44.90   15.90
  -2   5   2   47.10   12.20
   1  -5  -2  171.48   22.20
  -1   5   2  227.98   24.00
   0  -5  -2  400.36   42.30
   0   5   2  444.96   42.70
   0   5   2  523.35   78.09
  -1  -5  -2  161.18   21.80
  -1  -5  -2  150.38   24.80
   1   5   2  178.88   22.10
   1   5   2  190.48   50.09
  -2  -5  -2    8.90   18.20
  -2  -5  -2   40.20   16.20
   2   5   2   23.60   14.00
   2   5   2   13.50   43.90
  -3  -5  -2    5.50   18.60
   3   5   2   -6.40   35.80
   3   5   2    9.40   13.30
  -4  -5  -2    3.10   20.20
   4   5   2    5.40   14.50
   3  -6  -2   37.60   21.50
   2  -6  -2   58.39   18.90
   1  -6  -2   19.20   15.70
  -1   6   2   24.30   15.30
   0  -6  -2   40.80   16.70
   0   6   2   41.50   17.30
  -1  -6  -2   14.70   17.20
  -1  -6  -2   39.80   20.10
   1   6   2   39.90   18.60
  -2  -6  -2   26.00   23.00
   2   6   2    9.70   17.50
  -3  -6  -2   14.60   26.70
   3   6   2    8.50   18.50
   2  -7  -2   28.30   20.20
   1  -7  -2   37.20   20.40
   0  -7  -2   14.70   19.10
   0   7   2   46.30   22.60
  -1  -7  -2   50.99   21.00
   1   7   2   55.89   22.90
   1   7  -3    6.90   22.00
  -1  -7   3   -1.70   24.00
   0   7  -3   42.10   22.40
   0  -7   3   21.50   18.30
  -1   7  -3   71.39   22.90
   1  -7   3   12.40   16.80
   2  -7   3   63.39   21.50
   3   6  -3    8.90   19.20
  -3  -6   3    3.30   25.40
   2   6  -3   97.19   55.49
   2   6  -3   47.50   20.20
  -2  -6   3   40.00   23.70
   1   6  -3   40.70   19.00
   1   6  -3   46.50   54.69
  -1  -6   3   33.60   15.70
  -1  -6   3   37.60   18.70
   0   6  -3   78.39   20.30
   0  -6   3   82.79   18.00
  -1   6  -3  151.78   22.90
   1  -6   3  105.09   20.20
   2  -6   3   61.29   18.60
   3  -6   3   92.69   23.20
   4  -6   3   41.10   23.80
   4   5  -3  -10.10   14.70
  -4  -5   3   12.10   20.40
   3   5  -3   37.90   16.70
   3   5  -3   71.69   48.60
  -3  -5   3   28.00   18.90
  -3  -5   3   20.40   18.50
   2   5  -3   46.50   46.60
   2   5  -3    0.00   11.20
  -2  -5   3  -27.50   16.10
  -2  -5   3   -2.30   13.10
   1   5  -3  375.26   61.29
   1   5  -3  253.97   31.30
  -1  -5   3  353.86   34.00
  -1  -5   3  307.97   32.80
   0   5  -3  262.17   27.90
   0   5  -3  322.87   65.89
   0  -5   3  219.88   26.00
  -1   5  -3   45.20   14.20
  -1   5  -3  154.48   65.39
   1  -5   3   17.50   12.40
  -2   5  -3  107.69   17.60
   2  -5   3   80.59   17.50
   3  -5   3   17.80   15.50
   4  -5   3  146.29   25.60
   5   4  -3    4.30   13.70
   4   4  -3  177.38   60.69
   4   4  -3  110.69   19.70
  -4  -4   3   84.69   20.90
  -4  -4   3   84.79   21.30
   3   4  -3  -27.70   33.50
   3   4  -3   -0.50   12.00
  -3  -4   3   -2.20   14.90
  -3  -4   3    7.00   14.80
   2   4  -3   12.70   31.60
   2   4  -3    6.90    9.70
  -2  -4   3   15.30   10.80
  -2  -4   3    9.10   13.90
   1   4  -3   80.59   33.80
   1   4  -3   84.19   14.00
  -1  -4   3   85.09   15.50
  -1  -4   3   91.49   13.60
   0   4  -3  268.97   26.40
   0   4  -3  376.76   51.09
   0  -4   3  235.68   25.30
   0  -4   3  220.88   29.80
   0  -4   3  195.58   23.80
  -1   4  -3  299.97   48.30
  -1   4  -3  321.77   29.60
   1  -4   3  241.38   32.00
   1  -4   3  306.87   28.50
  -2   4  -3 1480.75  113.99
   2  -4   3 1380.46  113.79
   2  -4   3 1160.98  118.99
   3  -4   3   11.30   12.60
   4  -4   3   22.20   15.20
   4  -4   3   25.00   26.80
   5  -4   3  -20.10   18.00
   5   3  -3   21.90   11.90
  -5  -3   3   -6.00   15.60
   4   3  -3  -18.10   33.70
   4   3  -3   16.50   11.40
  -4  -3   3   -4.90   14.40
  -4  -3   3   18.00   14.70
   3   3  -3  253.07   43.00
   3   3  -3  147.49   18.50
  -3  -3   3  183.08   23.30
  -3  -3   3  186.98   23.20
   2   3  -3  166.58   20.50
   2   3  -3  212.28   34.50
  -2  -3   3  229.58   20.70
  -2  -3   3  189.88   23.50
   1   3  -3   31.90   10.60
   1   3  -3   11.60   24.80
   1   3  -3   14.70    8.90
  -1  -3   3    3.30   10.60
  -1  -3   3   24.00    8.20
  -1  -3   3    4.90   15.10
   0   3  -3   55.09   28.00
   0   3  -3   97.39   11.60
   0   3  -3   89.79   12.90
   0  -3   3   66.49   11.60
   0  -3   3  101.89   18.90
  -1   3  -3 1015.90  102.29
  -1   3  -3 1235.48   96.09
   1  -3   3 1289.07   96.09
   1  -3   3  995.60   98.79
  -2   3  -3  139.29   14.50
   2  -3   3   82.69   18.80
   2  -3   3  125.39   24.10
   2  -3   3  115.69   14.70
   3  -3   3   53.79   12.50
   3  -3   3   39.10   19.90
   3  -3   3   60.89   13.10
   4  -3   3   31.00   24.00
   4  -3   3   14.60   13.90
   5  -3   3   48.40   18.20
   5  -3   3   34.50   36.30
   5   2  -3  -10.00   34.90
  -5  -2   3   11.40   14.50
  -5  -2   3  -14.90   12.90
   4   2  -3   66.89   33.10
   4   2  -3   34.30   10.00
  -4  -2   3   51.49   14.10
  -4  -2   3   49.50   15.40
   3   2  -3   57.89    8.50
   3   2  -3   43.50    9.10
   3   2  -3   72.89   27.80
  -3  -2   3   58.09   13.10
  -3  -2   3   60.29   14.00
   2   2  -3  188.58   22.00
   2   2  -3  269.17   34.10
   2   2  -3  192.08   21.00
  -2  -2   3  206.88   20.70
  -2  -2   3  231.68   23.50
  -2  -2   3  284.47   24.00
   1   2  -3  991.20   89.49
   1   2  -3 1217.08   95.79
   1   2  -3 1105.59   90.19
   1   2  -3  985.50   89.89
  -1  -2   3 1219.58   94.59
  -1  -2   3  996.90   90.19
  -1  -2   3  959.10   89.29
   0   2  -3 1847.82  160.68
   0   2  -3 1805.42  164.48
   0   2  -3 1984.70  160.38
   0  -2   3 1879.11  160.48
   0  -2   3 1978.70  160.38
   0  -2   3 2015.00  163.28
  -1   2  -3  793.72   74.69
  -1   2  -3  800.92   69.69
  -1   2  -3  811.02   70.19
   1  -2   3  857.81   69.99
   1  -2   3  788.12   69.49
   1  -2   3  857.51   73.39
  -2   2  -3  166.88   17.90
   2  -2   3  159.28   20.80
   2  -2   3  200.18   19.70
   2  -2   3  184.78   19.00
   2  -2   3  191.58   31.90
   3  -2   3   -1.60    8.60
   3  -2   3   -1.30    8.80
   3  -2   3    9.50   15.50
   4  -2   3   47.60   13.20
   4  -2   3   83.19   24.20
   5  -2   3  -30.30   25.70
  -6  -1   3  -11.90   14.20
   5   1  -3  -25.40   30.50
  -5  -1   3    0.50   12.80
   4   1  -3   18.90   25.50
  -4  -1   3    7.50   12.90
   3   1  -3   66.69   24.00
  -3  -1   3   82.39   14.50
  -3  -1   3   90.09   13.60
   2   1  -3  784.12   68.99
   2   1  -3  732.63   63.59
   2   1  -3  758.52   64.19
  -2  -1   3  703.53   64.29
  -2  -1   3  733.23   64.39
   1   1  -3  864.61   81.89
   1   1  -3  933.91   82.89
   1   1  -3 1103.79   86.19
  -1  -1   3  962.70   82.29
  -1  -1   3 1111.59   85.89
  -1  -1   3  958.10   82.89
  -1  -1   3  945.41   82.79
   0   1  -3  393.86   34.60
   0   1  -3  360.56   34.90
   0   1  -3  397.06   34.60
   0   1  -3  427.76   37.10
   0  -1   3  419.26   34.60
   0  -1   3  357.76   34.90
   0  -1   3  431.26   36.60
  -1   1  -3 1246.58  103.59
  -1   1  -3 1241.58  103.19
   1  -1   3 1294.97  103.19
   1  -1   3 1251.87  103.29
   1  -1   3 1129.19  103.49
  -2   1  -3  128.99   14.20
   2  -1   3   82.49   14.70
   2  -1   3  153.98   13.90
   2  -1   3  148.59   13.80
  -3   1  -3  430.86   40.30
   3  -1   3  509.95   39.40
   3  -1   3  357.66   41.10
   3  -1   3  450.15   39.40
   3  -1   3  472.25   40.80
  -4   1  -3   -0.80   11.60
   4  -1   3    2.10   12.60
  -5   1  -3   11.10   15.60
   5  -1   3   12.00   18.50
  -6   0   3    7.10   15.80
   5   0  -3    7.60   28.80
   5   0  -3   44.70   17.00
  -5   0   3   20.90   13.80
  -4   0   3   -9.20   11.70
   3   0  -3    5.50    8.60
  -3   0   3   -2.50   10.60
   2   0  -3   10.60    6.30
   2   0  -3   24.60    7.30
  -2   0   3   14.00    9.10
   1   0  -3 2318.77  198.28
   1   0  -3 2316.47  196.78
   1   0  -3 2415.56  196.78
  -1   0   3 2396.86  196.88
   0   0  -3   -2.20    3.00
   0   0  -3   -5.20    2.30
   0   0   3   -1.50    2.40
   0   0   3    0.30    3.10
   0   0   3   -1.30    2.70
  -1   0  -3 5733.13  456.85
  -1   0  -3 5594.24  456.95
  -1   0  -3 5282.07  457.05
  -1   0  -3 5169.48  456.75
   1   0   3 5684.43  456.95
   1   0   3 5548.04  456.95
   1   0   3 5498.95  456.85
  -2   0  -3  344.37   31.40
  -2   0  -3  290.77   31.20
   2   0   3  298.97   30.10
   2   0   3  327.97   30.80
   2   0   3  402.96   29.80
  -3   0  -3  153.18   18.50
   3   0   3  165.78   17.80
  -4   0  -3  204.48   23.50
  -5   0  -3    4.50   12.50
  -6   0  -3    4.60   16.70
   6  -1  -3   20.80   33.80
   5  -1  -3   33.00   17.20
   4  -1  -3   88.29   19.00
  -4   1   3  115.09   17.40
   3  -1  -3  265.67   33.60
   3  -1  -3  304.17   33.40
   3  -1  -3  384.06   30.60
   2  -1  -3  263.87   27.60
   1  -1  -3 1153.78   97.99
   1  -1  -3 1250.27   97.99
   1  -1  -3 1135.79   99.19
  -1   1   3 1145.99   98.69
   0  -1  -3 2522.35  216.58
   0  -1  -3 2627.64  216.68
   0  -1  -3 2815.12  216.88
   0   1   3 2516.45  216.58
   0   1   3 2674.53  216.68
   0   1   3 2459.55  216.58
  -1  -1  -3 8760.02  697.63
  -1  -1  -3 8159.68  697.73
   1   1   3 8357.16  697.53
   1   1   3 8299.37  697.53
  -2  -1  -3  374.66   35.90
  -2  -1  -3  455.95   37.80
  -2  -1  -3  419.56   37.80
   2   1   3  361.26   35.80
   2   1   3  458.55   37.10
   2   1   3  423.26   35.90
  -3  -1  -3   20.00   10.70
  -3  -1  -3   10.00   11.80
   3   1   3    6.30    7.00
   3   1   3    7.80    6.40
  -4  -1  -3   17.40   12.70
  -4  -1  -3   26.30   12.10
   4   1   3   26.90    9.30
  -5  -1  -3   13.80   13.80
   5   1   3    6.70   10.10
   5   1   3   18.20   38.30
  -6  -1  -3  -18.30   16.90
   6  -2  -3  -27.40   29.70
   4  -2  -3   58.99   21.40
   3  -2  -3   18.40   15.40
   2  -2  -3  889.81   94.09
   2  -2  -3 1201.18   92.09
   2  -2  -3 1150.68   92.09
   1  -2  -3 3425.56  274.57
   1  -2  -3 2981.50  275.67
   1  -2  -3 3436.76  274.67
   1  -2  -3 3287.47  275.87
  -1   2   3 3097.19  274.27
  -1   2   3 3596.54  277.07
  -1   2   3 3244.38  274.97
   0  -2  -3 2868.31  246.08
   0  -2  -3 3029.20  247.08
   0  -2  -3 3215.28  245.98
   0   2   3 2817.32  245.98
   0   2   3 3030.70  246.18
   0   2   3 2746.63  249.08
  -1  -2  -3  755.42   62.49
  -1  -2  -3  762.72   62.99
   1   2   3  707.43   62.29
   1   2   3  677.23   67.09
   1   2   3  738.73   62.49
  -2  -2  -3  707.73   62.69
  -2  -2  -3  711.13   61.59
   2   2   3  797.52   69.59
   2   2   3  656.43   61.09
  -3  -2  -3   60.79   15.20
  -3  -2  -3   68.89   15.00
   3   2   3   70.29   10.70
   3   2   3   83.59   11.10
   3   2   3  106.89   29.50
  -4  -2  -3   20.80   13.30
  -4  -2  -3   -7.80   13.20
   4   2   3   14.60    8.70
   4   2   3    5.30   27.40
  -5  -2  -3   -9.10   13.60
  -5  -2  -3    9.50   15.60
   5   2   3  -16.30   10.20
   5   2   3   -5.60   36.20
   5  -3  -3   33.20   32.10
   4  -3  -3  106.89   27.40
   4  -3  -3   92.59   16.20
   3  -3  -3  188.18   20.30
   3  -3  -3  206.08   20.40
   3  -3  -3  241.08   30.40
   3  -3  -3  153.88   29.20
   2  -3  -3   84.19   12.40
   2  -3  -3   87.49   13.00
   2  -3  -3   84.69   18.10
   2  -3  -3   89.39   19.60
  -2   3   3   91.79   10.90
   1  -3  -3   78.89   17.40
   1  -3  -3   98.39   12.50
   1  -3  -3   84.69   15.90
  -1   3   3   86.49   23.90
   0  -3  -3  653.13   52.39
   0  -3  -3  504.45   55.09
   0   3   3  645.24   52.49
   0   3   3  630.74   59.29
  -1  -3  -3  328.57   40.40
  -1  -3  -3  370.66   36.60
  -1  -3  -3  406.76   35.40
   1   3   3  416.26   44.80
   1   3   3  408.06   34.60
   1   3   3  366.96   35.30
  -2  -3  -3   50.79   14.70
  -2  -3  -3   96.99   13.80
   2   3   3  100.89   13.10
   2   3   3   95.89   27.80
  -3  -3  -3   33.90   15.00
  -3  -3  -3   41.80   16.10
  -3  -3  -3   58.99   13.70
   3   3   3   57.79   31.00
   3   3   3   49.10   11.10
  -4  -3  -3   -3.10   13.80
  -4  -3  -3   -5.20   15.80
   4   3   3   11.30    9.80
   4   3   3  -27.70   34.70
  -5  -3  -3   28.30   16.90
   5   3   3   15.50   12.50
   5  -4  -3    8.80   17.20
   4  -4  -3   10.70   15.50
   4  -4  -3   -7.10   34.50
   3  -4  -3   38.40   19.20
   3  -4  -3   38.40   23.50
   3  -4  -3   23.00   13.70
   2  -4  -3  187.98   23.90
   2  -4  -3  143.49   27.20
   2  -4  -3  153.38   20.10
  -2   4   3  187.08   19.10
   1  -4  -3   54.99   11.70
   1  -4  -3   47.70   15.00
  -1   4   3   33.40   30.00
  -1   4   3   58.09   11.60
   0  -4  -3  123.69   15.70
   0  -4  -3   84.89   19.90
   0   4   3  110.99   15.20
   0   4   3  116.59   32.80
  -1  -4  -3  192.88   20.60
  -1  -4  -3  170.88   21.90
   1   4   3  209.38   41.90
   1   4   3  150.68   20.00
  -2  -4  -3  145.79   25.30
  -2  -4  -3  260.57   24.80
   2   4   3  254.47   47.10
   2   4   3  215.78   23.50
  -3  -4  -3   63.19   19.60
  -3  -4  -3   52.49   17.70
   3   4   3   59.19   35.60
   3   4   3   49.10   12.60
  -4  -4  -3   -4.70   18.60
  -4  -4  -3   -0.20   16.00
   4   4   3    5.50   13.60
   4   4   3  -26.50   46.60
   4  -5  -3   27.40   18.90
   3  -5  -3   -3.60   27.90
   3  -5  -3    9.40   15.30
   2  -5  -3  143.69   20.90
  -2   5   3  174.48   21.20
   1  -5  -3  115.29   18.50
   1  -5  -3  121.29   23.70
  -1   5   3  161.58   19.40
  -1   5   3  182.98   48.30
   0  -5  -3  144.49   21.00
   0   5   3  110.69   61.59
   0   5   3  189.48   21.10
  -1  -5  -3  214.88   24.10
  -1  -5  -3  184.28   24.70
   1   5   3  195.78   24.20
  -2  -5  -3   -6.40   18.50
  -2  -5  -3    8.80   15.70
   2   5   3   24.10   13.40
   2   5   3   66.19   41.50
  -3  -5  -3   22.70   19.40
   3   5   3   30.10   40.00
   3   5   3   43.80   15.80
  -4  -5  -3   -3.80   20.10
   4   5   3    8.90   15.90
   3  -6  -3    8.80   20.20
   2  -6  -3   36.10   16.80
   1  -6  -3   18.20   16.30
  -1   6   3   70.19   57.89
  -1   6   3   52.09   15.90
   0  -6  -3  255.77   32.00
   0   6   3  315.47   33.10
  -1  -6  -3  118.19   21.20
  -1  -6  -3   78.59   23.80
   1   6   3   88.39   19.90
  -2  -6  -3   24.80   24.50
   2   6   3   36.40   17.40
  -3  -6  -3   30.40   28.60
   3   6   3   -6.40   16.30
   2  -7  -3   41.60   21.20
   1  -7  -3   18.80   20.50
   0  -7  -3   35.00   20.30
   0   7   3   81.29   24.10
  -1  -7  -3   23.00   22.10
   1   7   3   36.10   21.80
   1   7  -4   53.79   24.30
   0   7  -4  143.39   27.10
   0  -7   4   79.29   21.70
  -1   7  -4  159.08   29.60
   1  -7   4  115.89   22.90
   2  -7   4   12.20   20.30
   3   6  -4  -12.60   17.40
  -3  -6   4  -11.20   21.40
   2   6  -4   10.10   17.90
  -2  -6   4    6.70   20.80
   1   6  -4   -4.70   15.00
  -1  -6   4   22.20   14.90
  -1  -6   4    5.50   17.60
   0   6  -4  184.88   25.80
   0  -6   4  139.09   21.00
  -1   6  -4    4.90   19.70
  -1   6  -4  154.08   67.19
   1  -6   4    8.50   14.80
   2  -6   4   12.50   17.20
   3  -6   4   59.69   21.40
   4  -6   4  -10.40   21.40
   4   5  -4  -40.60   17.20
  -4  -5   4  -15.10   19.30
   3   5  -4    6.00   14.00
   3   5  -4   29.30   48.00
  -3  -5   4   -3.60   16.60
  -3  -5   4    7.10   18.20
   2   5  -4  222.48   48.80
   2   5  -4  130.39   20.60
  -2  -5   4  190.58   24.50
  -2  -5   4  169.08   21.80
   1   5  -4  214.98   27.10
  -1  -5   4  263.87   26.80
  -1  -5   4  260.37   28.20
   0   5  -4  314.27   74.09
   0   5  -4  385.66   36.60
   0  -5   4  314.87   33.80
  -1   5  -4  222.58   66.69
  -1   5  -4  137.99   21.50
   1  -5   4  122.59   18.70
  -2   5  -4   12.50   13.90
   2  -5   4    2.70   12.90
   3  -5   4   58.49   16.70
   4  -5   4   26.50   18.40
   5   4  -4   -4.30   15.60
   4   4  -4   74.79   45.40
   4   4  -4   64.69   14.90
  -4  -4   4   76.29   19.60
  -4  -4   4   34.10   17.90
   3   4  -4   -3.10   33.20
   3   4  -4    1.10    9.90
  -3  -4   4    2.30   14.80
  -3  -4   4  -13.50   14.60
   2   4  -4   95.99   15.00
   2   4  -4  142.49   42.60
  -2  -4   4  106.59   18.90
  -2  -4   4  106.79   15.30
   1   4  -4  126.79   17.20
   1   4  -4  241.28   44.20
  -1  -4   4  119.99   16.30
  -1  -4   4  117.79   18.30
   0   4  -4  507.85   48.60
   0   4  -4  573.64   66.39
   0  -4   4  498.35   54.09
   0  -4   4  562.44   47.80
  -1   4  -4  357.16   50.79
  -1   4  -4  327.07   31.20
   1  -4   4  290.97   29.50
   1  -4   4  259.47   34.00
  -2   4  -4   65.59   13.00
   3  -4   4   85.09   16.00
   4  -4   4   24.80   15.80
   5  -4   4   34.10   20.50
   5   3  -4   13.20   12.20
  -5  -3   4  -13.10   15.00
   4   3  -4  -31.00   28.90
   4   3  -4   -0.50   10.60
  -4  -3   4  -16.00   13.30
  -4  -3   4  -14.30   13.60
   3   3  -4   29.90   29.50
   3   3  -4   10.00    8.70
  -3  -3   4   31.00   13.80
  -3  -3   4   16.90   12.90
   2   3  -4  262.57   38.20
   2   3  -4  174.48   21.00
  -2  -3   4  166.78   23.10
  -2  -3   4  237.58   21.00
   1   3  -4  734.33   65.19
   1   3  -4  755.22   74.79
   1   3  -4  657.83   63.59
  -1  -3   4  686.33   62.99
  -1  -3   4  733.93   64.19
  -1  -3   4  858.41   70.39
   0   3  -4  457.65   57.49
   0   3  -4  486.75   44.20
   0   3  -4  488.45   43.30
   0  -3   4  497.35   43.40
   0  -3   4  492.55   48.20
   0  -3   4  509.25   43.70
  -1   3  -4  802.92   64.09
  -1   3  -4  662.03   71.19
   1  -3   4  675.93   66.99
   1  -3   4  816.32   63.79
  -2   3  -4  278.87   26.50
   2  -3   4  290.97   27.00
   2  -3   4  240.58   35.60
   3  -3   4  553.14   56.29
   3  -3   4  575.94   51.09
   4  -3   4   37.10   23.70
   4  -3   4    2.30   13.80
   5  -3   4  121.09   34.20
   5  -3   4   44.90   19.10
   5   2  -4   -7.80   35.90
  -5  -2   4   13.10   14.20
  -5  -2   4    5.80   14.10
   4   2  -4  -37.60   28.60
   4   2  -4    9.90    8.60
  -4  -2   4   -3.80   11.30
  -4  -2   4  -13.50   12.00
   3   2  -4   18.70    7.80
   3   2  -4   22.50   25.30
   3   2  -4    7.20    6.10
  -3  -2   4    7.60   10.80
  -3  -2   4   -2.00   11.90
   2   2  -4  131.59   14.60
   2   2  -4  146.79   27.40
   2   2  -4  119.29   13.40
  -2  -2   4  112.69   12.80
  -2  -2   4  128.59   16.70
  -2  -2   4  139.29   17.70
  -2  -2   4  152.68   25.00
   1   2  -4  614.94   53.09
   1   2  -4  534.85   53.29
   1   2  -4  666.53   59.29
   1   2  -4  639.74   54.19
  -1  -2   4  730.13   58.79
  -1  -2   4  553.94   52.69
  -1  -2   4  602.04   53.99
   0   2  -4 1910.81  178.28
   0   2  -4 2023.90  174.18
   0   2  -4 2049.59  173.78
   0  -2   4 2336.27  177.08
   0  -2   4 2071.89  173.98
  -1   2  -4  629.94   56.89
  -1   2  -4  628.04   62.39
  -1   2  -4  662.53   57.29
   1  -2   4  680.93   56.59
   1  -2   4  648.34   56.69
   1  -2   4  700.63   57.19
   1  -2   4  671.23   61.19
  -2   2  -4  765.12   65.69
   2  -2   4  659.63   67.69
   2  -2   4  749.13   73.99
   2  -2   4  866.01   66.49
   2  -2   4  819.02   66.19
   3  -2   4   46.70   10.50
   3  -2   4   44.40   10.60
   3  -2   4   52.99   16.80
   4  -2   4  132.49   24.40
   4  -2   4   74.49   15.10
   5  -2   4   14.40   30.10
   5  -2   4   20.40   14.80
  -6  -1   4   -4.50   16.10
   5   1  -4   29.30   32.10
  -5  -1   4   19.80   13.90
   4   1  -4   27.00   26.20
  -4  -1   4   -6.90   12.10
   3   1  -4  499.85   51.89
  -3  -1   4  452.15   43.40
  -3  -1   4  453.75   43.80
   2   1  -4 1104.09   89.69
   2   1  -4 1046.40   88.99
   2   1  -4 1129.09   94.09
  -2  -1   4  993.00   89.59
  -2  -1   4  976.80   89.29
   1   1  -4  410.56   36.30
   1   1  -4  411.06   40.20
   1   1  -4  396.66   34.80
   1   1  -4  393.86   35.20
  -1  -1   4  385.86   36.10
  -1  -1   4  379.36   36.30
  -1  -1   4  436.66   40.10
   0   1  -4  498.65   44.70
   0   1  -4  494.35   41.80
   0   1  -4  461.55   41.20
   0  -1   4  513.65   43.40
   0  -1   4  460.95   41.20
   0  -1   4  457.45   41.20
   0  -1   4  489.75   41.70
  -1   1  -4  636.34   56.99
  -1   1  -4  657.73   57.09
   1  -1   4  678.23   56.89
   1  -1   4  704.63   57.09
  -2   1  -4  451.95   41.70
   2  -1   4  525.15   41.70
   2  -1   4  493.05   41.60
   2  -1   4  441.56   42.40
  -3   1  -4  120.39   14.50
   3  -1   4  136.89   13.90
   3  -1   4   77.09   14.90
   3  -1   4  117.79   13.50
   3  -1   4  112.99   14.30
  -4   1  -4   33.70   12.40
   4  -1   4   16.20   12.80
  -5   1  -4    2.20   14.40
   5  -1   4    6.20   16.20
   5   0  -4   85.09   22.20
   5   0  -4   60.29   33.10
  -5   0   4   79.29   17.50
   4   0  -4  -15.40   23.50
  -4   0   4  -19.00   12.00
   3   0  -4    0.20    8.50
  -3   0   4  -11.30   10.10
   2   0  -4    6.40    6.30
   2   0  -4   33.00    7.80
  -2   0   4   18.10    9.60
   1   0  -4 1011.80   83.69
   1   0  -4  982.00   83.79
   0   0  -4 1546.45  132.79
   0   0  -4 1512.15  132.89
   0   0   4 1530.85  132.79
   0   0   4 1757.62  133.49
   0   0   4 1627.34  132.79
  -1   0  -4 2108.79  193.88
  -1   0  -4 2392.76  193.98
  -1   0  -4 2430.16  193.98
   1   0   4 2407.56  194.08
   1   0   4 2252.17  193.98
   1   0   4 2379.46  193.88
  -2   0  -4  170.08   19.00
  -2   0  -4  174.68   18.40
   2   0   4  216.88   19.70
   2   0   4  172.88   18.90
   2   0   4  197.38   18.60
  -3   0  -4  111.49   16.80
   3   0   4  144.89   15.70
   3   0   4  141.49   14.80
   3   0   4  129.99   14.60
  -4   0  -4  172.38   21.80
  -5   0  -4   -2.00   13.00
  -6   0  -4   -6.60   14.20
   6  -1  -4  -12.70   29.60
   5  -1  -4   17.50   20.50
   4  -1  -4  -11.20   14.90
   3  -1  -4  158.38   21.30
   2  -1  -4  130.89   17.50
   1  -1  -4 1048.70   86.09
   1  -1  -4  969.10   85.99
   1  -1  -4 1077.29   87.49
   0  -1  -4 2590.14  224.68
   0  -1  -4 2916.81  224.98
   0  -1  -4 2675.93  224.78
   0   1   4 2660.13  224.78
   0   1   4 2669.03  224.78
   0   1   4 2685.23  224.78
  -1  -1  -4 4082.59  328.87
  -1  -1  -4 3926.01  329.07
   1   1   4 3916.61  328.77
   1   1   4 3887.71  328.77
  -2  -1  -4  797.82   69.29
  -2  -1  -4  846.22   68.49
  -2  -1  -4  843.52   69.29
   2   1   4  766.22   68.19
   2   1   4  777.82   68.19
  -3  -1  -4  -14.30   11.20
  -3  -1  -4    9.00   10.70
   3   1   4  -11.20    7.40
   3   1   4   -3.40    6.70
  -4  -1  -4   21.60   12.50
  -4  -1  -4    3.10   13.90
   4   1   4   19.60    9.20
  -5  -1  -4    8.00   12.80
   5   1   4    0.40   37.90
   5   1   4   19.90   10.80
  -6  -1  -4   -0.80   16.20
   4  -2  -4   -0.20   20.00
   3  -2  -4   66.19   18.00
   2  -2  -4  342.67   37.20
   2  -2  -4  374.26   33.60
   2  -2  -4  399.26   33.30
   1  -2  -4  246.58   28.60
   1  -2  -4  277.07   25.40
   1  -2  -4  275.77   25.70
   1  -2  -4  284.87   26.40
  -1   2   4  245.08   24.80
  -1   2   4  266.57   25.90
   0  -2  -4 2551.44  206.18
   0  -2  -4 2480.75  205.08
   0  -2  -4 2557.94  204.98
   0   2   4 2595.84  205.18
   0   2   4 2145.39  207.58
   0   2   4 2411.06  204.98
  -1  -2  -4  362.36   31.20
  -1  -2  -4  380.06   32.10
   1   2   4  317.97   30.60
   1   2   4  327.07   29.70
   1   2   4  310.17   36.90
  -2  -2  -4  848.32   78.69
  -2  -2  -4  918.81   77.99
   2   2   4 1027.30   85.59
   2   2   4  872.41   77.49
  -3  -2  -4   24.90   13.30
  -3  -2  -4   57.39   14.20
   3   2   4   46.30    9.50
   3   2   4   39.60   23.10
  -4  -2  -4   17.50   14.10
  -4  -2  -4   12.50   13.50
   4   2   4   54.79   31.60
   4   2   4   31.80    9.70
  -5  -2  -4   15.80   14.30
  -5  -2  -4    7.00   15.80
   5   2   4    1.60   38.50
   5   2   4    2.20   10.90
   4  -3  -4   -3.10   22.50
   4  -3  -4   -7.40   10.90
   3  -3  -4   26.60   20.30
   3  -3  -4    8.80    9.80
   3  -3  -4    1.80   16.90
   3  -3  -4   18.40    9.50
   2  -3  -4  153.08   17.40
   2  -3  -4  178.48   18.00
   2  -3  -4  146.09   25.50
   2  -3  -4  159.28   22.60
  -2   3   4  155.58   15.90
   1  -3  -4 2170.58  199.98
   1  -3  -4 2404.76  200.18
   1  -3  -4 2603.84  198.18
  -1   3   4 2662.93  197.98
  -1   3   4 2006.20  202.08
   0  -3  -4 1184.78  100.19
   0  -3  -4 1217.28  100.29
   0   3   4 1148.79  100.09
   0   3   4 1182.38  107.29
  -1  -3  -4  849.61   67.29
  -1  -3  -4  648.04   71.79
  -1  -3  -4  837.02   68.19
   1   3   4  800.22   67.29
   1   3   4  812.32   66.59
   1   3   4  723.43   74.19
  -2  -3  -4   18.60   10.40
  -2  -3  -4   20.20   12.00
   2   3   4    0.40    8.30
   2   3   4    9.90   22.80
  -3  -3  -4  -20.00   12.30
  -3  -3  -4  -15.00   14.10
  -3  -3  -4   -4.40   13.40
   3   3   4  -12.10    8.10
   3   3   4  -14.70   27.80
  -4  -3  -4    8.00   14.30
  -4  -3  -4    1.50   16.40
   4   3   4   -3.80   10.30
   4   3   4    6.20   36.70
  -5  -3  -4   26.00   17.70
   5   3   4   -1.60   12.60
   5  -4  -4   36.80   18.30
   4  -4  -4   11.10   15.30
   4  -4  -4   47.10   40.00
   3  -4  -4  226.28   33.60
   3  -4  -4  184.88   30.30
   3  -4  -4  206.98   23.50
   2  -4  -4   91.89   21.90
   2  -4  -4   84.19   14.60
   2  -4  -4  102.29   17.50
  -2   4   4   79.39   12.90
   1  -4  -4  239.98   22.00
   1  -4  -4  219.68   27.40
   1  -4  -4  154.08   23.80
  -1   4   4  218.68   21.40
  -1   4   4  129.49   34.00
   0  -4  -4   25.40   15.40
   0  -4  -4   34.10   11.70
   0   4   4   32.60   10.80
   0   4   4   17.40   31.30
  -1  -4  -4  132.49   18.00
  -1  -4  -4  119.49   18.90
   1   4   4  176.48   37.00
   1   4   4  129.09   17.50
  -2  -4  -4  137.49   23.10
  -2  -4  -4  139.59   19.10
   2   4   4  122.79   17.10
   2   4   4  161.08   42.00
  -3  -4  -4   -2.40   17.00
  -3  -4  -4  -12.10   15.30
   3   4   4   11.20   11.00
   3   4   4   15.30   40.00
  -4  -4  -4   -5.60   19.00
  -4  -4  -4   -5.70   16.20
   4   4   4   -1.00   13.00
   4   4   4    7.40   40.00
   4  -5  -4   42.90   39.60
   4  -5  -4   16.80   19.90
   3  -5  -4   20.40   18.20
   3  -5  -4  -10.60   26.40
   2  -5  -4  151.58   22.60
  -2   5   4  232.08   24.50
   1  -5  -4  231.98   32.40
   1  -5  -4  270.97   28.40
  -1   5   4  332.47   29.40
  -1   5   4  249.08   53.29
   0  -5  -4   32.10   13.80
   0   5   4   72.09   50.49
   0   5   4   45.60   14.10
  -1  -5  -4  134.79   21.00
  -1  -5  -4  109.29   19.10
   1   5   4  156.58   48.90
   1   5   4  120.59   19.00
  -2  -5  -4   29.70   16.30
  -2  -5  -4   -6.00   18.60
   2   5   4   12.70   12.80
   2   5   4   18.90   47.10
  -3  -5  -4    4.00   20.00
   3   5   4   18.10   14.50
  -4  -5  -4  -18.20   19.60
   4   5   4    7.40   15.10
   3  -6  -4   32.10   20.60
   2  -6  -4    4.50   15.80
   1  -6  -4  163.18   24.40
  -1   6   4  179.98   25.40
  -1   6   4  166.48   62.09
   0  -6  -4   13.90   16.60
   0   6   4  101.29   19.00
   0   6   4   53.29   50.39
  -1  -6  -4   -0.30   20.50
  -1  -6  -4    3.70   17.40
   1   6   4   18.00   17.90
  -2  -6  -4   49.30   25.90
   2   6   4   25.90   19.00
   3   6   4   -2.70   15.80
   2  -7  -4   80.19   24.10
   1  -7  -4   28.10   20.10
   0  -7  -4   66.09   22.30
   0   7   4   39.10   22.80
  -1  -7  -4   49.00   22.00
   1   7   4   50.89   24.00
   1   7  -5   -0.80   20.50
   0   7  -5   77.59   27.20
   0  -7   5   12.40   17.00
  -1   7  -5   67.99   25.30
   1  -7   5   15.80   16.70
   2  -7   5   13.90   18.30
   3   6  -5  -25.70   16.60
  -3  -6   5   -8.30   20.90
   2   6  -5   53.79   16.20
  -2  -6   5   67.69   23.50
   1   6  -5   60.79   58.09
   1   6  -5   20.60   16.70
  -1  -6   5   32.50   15.70
   0   6  -5  285.47   32.30
   0  -6   5  223.28   27.60
  -1   6  -5  235.18   30.10
   1  -6   5  140.09   23.10
   2  -6   5  166.78   25.10
   3  -6   5   12.70   19.40
   4  -6   5   18.10   22.80
   4   5  -5   22.30   15.80
  -4  -5   5   -9.80   18.30
   3   5  -5   15.60   48.50
   3   5  -5   33.10   16.80
  -3  -5   5  -11.20   16.10
  -3  -5   5   14.30   20.80
   2   5  -5    2.80   34.40
   2   5  -5   12.50   12.30
  -2  -5   5   -9.20   16.30
  -2  -5   5  -20.50   12.60
   1   5  -5   78.19   16.40
   1   5  -5  131.29   43.40
  -1  -5   5   72.99   14.80
  -1  -5   5   70.59   16.80
   0   5  -5   46.20   15.30
   0  -5   5   27.70   12.40
  -1   5  -5  587.54   84.09
  -1   5  -5  364.76   39.00
   1  -5   5  320.07   36.10
  -2   5  -5   79.09   17.40
   2  -5   5   68.89   16.20
   3  -5   5    8.60   15.30
   4  -5   5   72.89   21.70
   5   4  -5    3.70   12.80
   4   4  -5   94.89   46.80
   4   4  -5   55.59   18.40
  -4  -4   5   91.79   19.90
  -4  -4   5   36.90   18.00
   3   4  -5   94.09   16.30
   3   4  -5  218.28   44.60
  -3  -4   5  108.29   20.50
  -3  -4   5  148.99   21.60
   2   4  -5   21.00   11.20
   2   4  -5   45.00   34.10
  -2  -4   5   27.40   14.80
  -2  -4   5   41.50   11.40
   1   4  -5  716.53   75.79
   1   4  -5  570.44   54.49
  -1  -4   5  612.14   55.49
  -1  -4   5  594.04   53.69
   0   4  -5  672.53   80.89
   0   4  -5  698.93   60.59
   0   4  -5  657.43   61.29
   0  -4   5  725.83   60.69
  -1   4  -5  550.04   66.29
  -1   4  -5  489.75   42.20
   1  -4   5  360.36   44.10
   1  -4   5  471.55   40.50
  -2   4  -5   31.80   11.80
   2  -4   5    9.20   11.70
   3  -4   5   45.70   13.70
   4  -4   5    5.40   16.30
   5  -4   5   50.59   21.00
   5   3  -5   12.70   11.70
  -5  -3   5   -8.50   15.00
   4   3  -5   18.90   12.20
   4   3  -5   -2.40   35.30
  -4  -3   5   20.00   14.50
  -4  -3   5    9.30   14.80
   3   3  -5  379.96   36.60
   3   3  -5  438.76   52.59
  -3  -3   5  375.86   39.90
  -3  -3   5  386.56   40.50
   2   3  -5   -1.30   23.70
   2   3  -5   12.30    8.80
  -2  -3   5   14.80    8.00
  -2  -3   5   -2.10   11.80
   1   3  -5  368.26   38.90
   1   3  -5  431.86   47.60
  -1  -3   5  391.16   37.90
  -1  -3   5  528.95   46.00
  -1  -3   5  409.16   39.50
   0   3  -5 1009.30  102.69
   0   3  -5 1069.79   92.59
   0   3  -5 1092.99   92.99
   0  -3   5 1127.39   97.29
   0  -3   5 1140.89   92.69
  -1   3  -5  209.98   31.70
  -1   3  -5  223.18   21.40
   1  -3   5  155.88   24.50
   1  -3   5  170.98   18.90
  -2   3  -5  326.07   29.10
   2  -3   5  305.77   29.30
   2  -3   5  261.27   36.40
   3  -3   5   26.90   11.80
   3  -3   5   42.50   16.40
   4  -3   5   -3.70   19.40
   4  -3   5  -13.50   13.40
   5  -3   5   20.40   18.40
   5  -3   5   64.09   27.80
   5   2  -5   32.80   37.70
  -5  -2   5   -0.40   13.40
  -5  -2   5    7.60   13.90
   4   2  -5   20.00    9.70
   4   2  -5  -13.50   29.30
  -4  -2   5   -0.20   12.40
  -4  -2   5   -0.20   11.70
   3   2  -5    2.70   23.80
   3   2  -5    1.90    7.90
   3   2  -5   -2.90    6.10
  -3  -2   5    8.00   10.80
  -3  -2   5   -1.10   11.60
   2   2  -5  148.19   26.80
   2   2  -5  137.29   15.00
   2   2  -5  161.28   16.80
  -2  -2   5  153.68   18.90
  -2  -2   5  166.58   25.80
  -2  -2   5  150.58   18.40
   1   2  -5 1362.76  114.09
   1   2  -5 1208.68  114.29
   1   2  -5 1483.45  120.59
   1   2  -5 1384.76  114.79
  -1  -2   5 1217.88  113.79
  -1  -2   5 1592.34  119.19
  -1  -2   5 1297.17  114.59
   0   2  -5  799.72   69.29
   0   2  -5  870.01   74.79
   0   2  -5  770.82   69.69
   0  -2   5  807.82   69.29
   0  -2   5  833.12   72.09
  -1   2  -5  907.01   73.99
  -1   2  -5  877.21   79.39
  -1   2  -5  844.32   73.59
   1  -2   5  874.51   73.39
   1  -2   5  811.02   77.49
  -2   2  -5  163.68   18.90
   2  -2   5  186.48   29.30
   2  -2   5  179.38   20.70
   2  -2   5  193.28   19.80
   2  -2   5  205.78   20.60
   3  -2   5   85.69   15.80
   3  -2   5   58.79   11.60
   3  -2   5   52.09   11.80
   4  -2   5   35.40   19.50
   4  -2   5    4.70   11.90
   5  -2   5   -3.40   14.50
   5  -2   5   13.70   27.50
  -6  -1   5  -15.20   14.60
   5   1  -5   -3.60   30.90
  -5  -1   5    7.70   12.90
   4   1  -5   19.50   24.80
  -4  -1   5   -2.90   12.10
   3   1  -5   63.39   23.60
  -3  -1   5   85.09   13.50
  -3  -1   5   73.29   14.40
   2   1  -5    3.30   16.10
   2   1  -5    3.90    9.80
   2   1  -5    0.50    7.60
  -2  -1   5   11.20    9.20
  -2  -1   5   12.20    9.90
   1   1  -5 1750.52  140.79
   1   1  -5 1654.43  137.79
   1   1  -5 1552.74  136.99
   1   1  -5 1516.35  137.19
  -1  -1   5 1588.34  137.79
  -1  -1   5 1916.61  140.89
  -1  -1   5 1549.05  137.59
   0   1  -5 1192.38   99.39
   0   1  -5 1096.89   96.79
   0   1  -5 1105.49   96.49
   0  -1   5 1085.59   96.59
   0  -1   5 1232.28   98.79
   0  -1   5 1198.28   96.79
  -1   1  -5   53.09    9.90
  -1   1  -5   55.49    9.20
   1  -1   5   53.59    8.90
   1  -1   5   65.79   10.00
  -2   1  -5  844.32   72.59
  -2   1  -5  817.02   72.69
   2  -1   5  859.71   72.89
   2  -1   5  887.31   72.69
   2  -1   5  875.51   72.69
  -3   1  -5  545.85   48.80
   3  -1   5  544.35   48.00
   3  -1   5  565.54   49.10
   3  -1   5  559.54   48.60
  -4   1  -5   17.80   11.90
   4  -1   5    5.30   12.80
   4  -1   5   27.90   10.90
  -5   1  -5    2.80   13.50
   5  -1   5  -11.90   22.10
   5   0  -5   33.20   21.70
   5   0  -5   -6.30   26.00
  -5   0   5   11.50   14.30
   4   0  -5  -22.70   21.70
  -4   0   5   -7.70   12.50
   3   0  -5  177.28   27.40
  -3   0   5  175.08   20.40
   2   0  -5 2302.27  194.58
   2   0  -5 2654.53  194.68
   2   0  -5 1985.30  196.68
  -2   0   5 2378.36  194.68
   1   0  -5 1229.58  113.09
   1   0  -5 1452.55  111.89
  -1   0   5 1331.97  113.39
   0   0  -5 2904.41  235.08
   0   0  -5 2752.52  235.18
   0   0   5 3190.18  236.08
   0   0   5 2550.04  235.08
   0   0   5 2741.33  235.08
  -1   0  -5 1031.70   87.79
  -1   0  -5 1052.69   87.49
   1   0   5 1043.80   87.69
   1   0   5 1045.70   87.59
  -2   0  -5   26.70    8.20
  -2   0  -5   20.50    9.40
  -2   0  -5   22.80    6.70
   2   0   5   42.60    7.70
   2   0   5   35.50    8.30
   2   0   5   24.30    7.20
  -3   0  -5   18.80   10.60
   3   0   5   42.50    8.60
   3   0   5   33.40    9.90
   3   0   5   32.60    8.80
  -4   0  -5  442.76   42.20
   4   0   5  426.66   39.60
  -5   0  -5    7.00   13.80
   5   0   5  -27.90   11.70
  -6   0  -5   10.80   17.20
   6  -1  -5  -24.80   25.50
   6  -1  -5  -40.70   28.50
   5  -1  -5   39.50   25.50
   5  -1  -5  -16.00   21.00
   4  -1  -5  401.46   44.40
   3  -1  -5   -7.30   13.10
   3  -1  -5   13.50    8.30
   2  -1  -5  202.18   22.70
   1  -1  -5   73.69    8.40
   1  -1  -5   54.79    7.90
   1  -1  -5   84.39   12.30
   0  -1  -5 1133.09   95.79
   0  -1  -5 1262.87   96.19
   0  -1  -5 1116.09   95.89
   0   1   5 1151.78   95.79
   0   1   5 1087.39   95.79
   0   1   5 1102.99   95.79
  -1  -1  -5 1630.24  138.59
  -1  -1  -5 1675.23  138.29
   1   1   5 1670.03  138.19
   1   1   5 1633.94  138.19
  -2  -1  -5  776.32   61.49
  -2  -1  -5  802.82   62.29
  -2  -1  -5  671.43   62.09
   2   1   5  690.83   61.09
   2   1   5  658.03   60.99
  -3  -1  -5   -7.50   11.50
  -3  -1  -5  -12.20    9.90
   3   1   5    8.30    7.90
   3   1   5    0.80    7.20
  -4  -1  -5   13.20   13.60
  -4  -1  -5   33.80   12.60
   4   1   5   23.80    9.50
  -5  -1  -5   14.30   15.20
   5   1   5    4.40   10.70
   5   1   5   42.60   39.40
  -6  -1  -5    6.60   16.50
   6   1   5   -2.20   13.40
   5  -2  -5  -21.30   25.30
   4  -2  -5  172.88   31.00
   3  -2  -5  244.48   29.00
   2  -2  -5 1003.20   82.49
   2  -2  -5 1003.30   82.39
   2  -2  -5  904.91   85.09
   1  -2  -5   16.30   11.70
   1  -2  -5   22.10    8.20
   1  -2  -5   12.70    7.40
   1  -2  -5   23.60    8.00
  -1   2   5   14.60    7.10
  -1   2   5   22.60    8.60
   0  -2  -5 1733.13  150.08
   0  -2  -5 1901.11  151.38
   0   2   5 1855.21  150.18
   0   2   5 1800.72  150.08
   0   2   5 1682.73  152.68
  -1  -2  -5  410.66   35.40
  -1  -2  -5  414.36   34.80
   1   2   5  388.36   34.20
   1   2   5  301.67   39.10
   1   2   5  387.56   33.20
  -2  -2  -5  217.18   20.90
  -2  -2  -5  145.49   20.00
   2   2   5  223.78   30.90
   2   2   5  173.68   19.30
  -3  -2  -5   51.19   11.60
  -3  -2  -5   43.40   13.50
  -3  -2  -5   33.80   13.90
   3   2   5   39.40    9.60
   3   2   5   24.10   26.10
  -4  -2  -5   23.70   14.10
  -4  -2  -5   -0.30   14.50
   4   2   5   -9.80   32.10
   4   2   5   -7.00    9.20
  -5  -2  -5   11.80   14.30
  -5  -2  -5  -18.90   15.40
   5   2   5  -16.00   41.70
   5   2   5   -3.60   11.00
   5  -3  -5    4.50   32.30
   4  -3  -5   62.09   14.50
   4  -3  -5   92.59   26.00
   3  -3  -5   10.60   16.60
   3  -3  -5  -14.70    9.50
   3  -3  -5   -6.20   10.00
   3  -3  -5    4.70   18.00
   2  -3  -5  283.77   33.10
   2  -3  -5  290.97   27.80
   2  -3  -5  276.27   31.30
   2  -3  -5  294.57   27.70
  -2   3   5  270.27   26.00
   1  -3  -5  429.46   48.30
   1  -3  -5  505.35   51.09
   1  -3  -5  605.24   46.90
  -1   3   5  552.24   53.89
  -1   3   5  604.94   46.60
   0  -3  -5   30.50    9.60
   0  -3  -5   36.00    9.90
   0  -3  -5   14.70   12.60
   0   3   5   50.19   20.90
   0   3   5   19.40    8.70
  -1  -3  -5  747.33   61.39
  -1  -3  -5  715.33   62.09
   1   3   5  667.13   60.89
   1   3   5  730.33   60.59
   1   3   5  646.54   68.59
  -2  -3  -5   36.00   11.50
  -2  -3  -5   44.20   13.40
   2   3   5   33.20   24.80
   2   3   5   26.60    9.90
   2   3   5   37.30    7.90
  -3  -3  -5   -3.90   13.80
  -3  -3  -5    2.20   12.70
  -3  -3  -5   10.80   14.60
   3   3   5  -15.30   32.50
   3   3   5    2.50    8.80
  -4  -3  -5  -15.50   16.60
  -4  -3  -5   19.80   15.60
   4   3   5  -24.80   38.10
   4   3   5   -1.00   10.30
  -5  -3  -5  -12.50   17.80
   5   3   5   17.30   13.20
   4  -4  -5    0.50   14.50
   4  -4  -5   14.50   32.80
   3  -4  -5  152.28   33.20
   3  -4  -5  191.18   22.10
   2  -4  -5   58.69   14.70
   2  -4  -5   55.59   13.20
   2  -4  -5   55.49   20.90
  -2   4   5   47.30   10.80
   1  -4  -5  448.36   45.60
   1  -4  -5  461.45   37.40
   1  -4  -5  374.16   40.30
  -1   4   5  446.76   37.30
  -1   4   5  284.47   47.00
   0  -4  -5  483.25   53.29
   0  -4  -5  563.34   49.60
   0  -4  -5  616.84   49.70
   0   4   5  612.44   67.89
   0   4   5  522.25   49.40
  -1  -4  -5  370.86   34.70
  -1  -4  -5  338.27   36.90
   1   4   5  376.66   55.09
   1   4   5  329.67   34.00
  -2  -4  -5  102.99   16.80
  -2  -4  -5   76.19   19.70
   2   4   5  120.69   34.70
   2   4   5   83.29   14.40
  -3  -4  -5   47.00   17.50
  -3  -4  -5   44.00   19.00
   3   4   5   71.49   49.99
   3   4   5   35.40   12.10
  -4  -4  -5   -4.80   16.20
  -4  -4  -5   -0.10   18.50
   4   4   5   -2.40   34.00
   4   4   5   -7.10   12.60
   4  -5  -5   20.30   40.20
   4  -5  -5    2.80   19.50
   3  -5  -5   12.00   33.10
   3  -5  -5    0.10   14.90
   2  -5  -5   56.59   15.20
   2  -5  -5   29.40   24.40
   1  -5  -5   15.40   16.10
   1  -5  -5   15.50   12.80
  -1   5   5   43.70   13.40
  -1   5   5   79.79   41.20
   0  -5  -5  476.05   47.10
   0   5   5  505.85   47.90
   0   5   5  532.45   72.39
  -1  -5  -5   48.60   15.50
  -1  -5  -5    8.30   17.50
   1   5   5   57.49   14.60
   1   5   5   54.49   42.80
  -2  -5  -5   11.90   17.20
  -2  -5  -5   14.20   16.50
   2   5   5   13.20   14.10
  -3  -5  -5   64.79   22.60
   3   5   5   45.30   15.00
   3   5   5   85.59   54.39
  -4  -5  -5   16.60   24.20
   4   5   5   -6.10   14.70
   3  -6  -5   16.40   20.10
   2  -6  -5   13.70   18.10
   1  -6  -5   53.79   19.10
  -1   6   5   96.99   60.79
  -1   6   5  122.39   21.10
   0  -6  -5   22.90   17.00
   0   6   5   64.99   18.00
  -1  -6  -5   19.20   18.80
  -1  -6  -5   49.70   22.70
   1   6   5   61.09   19.00
  -2  -6  -5   17.20   23.20
   2   6   5   14.70   17.20
  -3  -6  -5   -3.90   25.40
   3   6   5    4.00   18.20
   2  -7  -5   63.69   24.90
   1  -7  -5   18.80   20.80
   0  -7  -5  104.89   23.20
   0   7   5   60.69   25.50
  -1  -7  -5  -26.70   21.00
   1   7   5   69.59   27.30
   1   7  -6   50.49   24.20
   0   7  -6   14.80   23.60
   0  -7   6    4.40   17.80
  -1   7  -6   28.00   22.40
   1  -7   6   25.00   16.60
   2  -7   6   28.90   19.40
   3   6  -6    7.40   17.70
  -3  -6   6  -36.30   24.00
   2   6  -6   77.29   18.10
  -2  -6   6   88.09   26.20
   1   6  -6   80.29   60.29
   1   6  -6   77.29   19.10
  -1  -6   6   63.79   17.30
   0   6  -6   99.19   22.00
   0  -6   6  101.09   17.70
  -1   6  -6  179.08   25.90
   1  -6   6  103.89   20.20
   2  -6   6   73.19   19.20
   3  -6   6  -14.50   17.20
   4  -6   6   25.80   22.60
   4   5  -6   -2.90   15.40
  -4  -5   6   20.60   19.60
   3   5  -6  -10.50   11.50
   3   5  -6   19.70   44.90
  -3  -5   6   12.30   16.50
  -3  -5   6    4.50   17.40
   2   5  -6   44.80   14.20
   2   5  -6  111.79   45.60
  -2  -5   6   58.89   18.70
  -2  -5   6   87.79   16.90
   1   5  -6   76.79   45.50
   1   5  -6   31.70   13.70
  -1  -5   6   12.30   15.00
  -1  -5   6   30.00   12.40
   0   5  -6  173.38   23.40
   0   5  -6  196.08   75.89
   0  -5   6  162.98   20.70
  -1   5  -6  313.27   74.09
  -1   5  -6  162.88   25.20
   1  -5   6  188.08   22.90
  -2   5  -6   53.69   16.50
   2  -5   6   36.90   13.90
   3  -5   6    3.70   14.70
   4  -5   6   47.40   22.20
   4   4  -6  -23.10   15.00
   4   4  -6   41.50   46.20
  -4  -4   6   -0.40   15.60
  -4  -4   6  -17.80   15.20
   3   4  -6   -3.20   10.10
   3   4  -6   -2.40   33.00
  -3  -4   6    5.00   14.90
  -3  -4   6   20.50   15.10
   2   4  -6   -3.00   10.40
   2   4  -6    9.10   27.20
  -2  -4   6  -21.20   13.30
  -2  -4   6    0.00    9.70
   1   4  -6  417.96   48.20
   1   4  -6  337.67   35.60
  -1  -4   6  381.56   36.70
  -1  -4   6  336.77   34.10
   0   4  -6   36.50   12.20
   0   4  -6   29.50   11.10
   0   4  -6   14.00   31.60
   0  -4   6   16.10    9.70
  -1   4  -6  456.55   61.29
  -1   4  -6  448.26   40.80
   1  -4   6  382.86   38.60
  -2   4  -6  606.64   52.09
   2  -4   6  539.05   51.79
   3  -4   6  110.99   17.60
   4  -4   6    4.30   15.40
   5  -4   6   73.89   22.90
   5   3  -6    7.40   11.20
  -5  -3   6  -14.50   15.50
   4   3  -6    6.50   35.30
   4   3  -6    0.70   12.40
  -4  -3   6    5.10   13.40
  -4  -3   6    2.90   13.90
   3   3  -6  768.12   76.49
   3   3  -6  646.14   59.29
  -3  -3   6  708.03   61.69
  -3  -3   6  597.24   60.99
   2   3  -6  386.56   35.00
   2   3  -6  410.16   49.70
  -2  -3   6  403.86   37.70
  -2  -3   6  384.06   36.90
  -2  -3   6  322.07   33.80
   1   3  -6  571.04   64.49
   1   3  -6  586.84   54.19
  -1  -3   6  602.34   54.59
  -1  -3   6  563.14   53.39
  -1  -3   6  756.92   61.39
   0   3  -6  436.36   52.19
   0   3  -6  426.96   41.00
   0   3  -6  479.95   41.80
   0  -3   6  449.66   44.80
   0  -3   6  510.05   41.10
  -1   3  -6  579.44   66.39
  -1   3  -6  746.93   57.49
   1  -3   6  709.73   56.99
   1  -3   6  581.84   61.39
  -2   3  -6  264.47   25.20
   2  -3   6  214.38   32.50
   2  -3   6  242.68   25.50
   2  -3   6  261.07   25.70
  -3   3  -6  462.05   41.20
   3  -3   6  451.05   43.10
   4  -3   6   26.90   14.30
   5  -3   6   -0.30   17.10
   5   2  -6  137.69   42.00
  -5  -2   6   70.49   17.80
   4   2  -6   -1.50   29.40
  -4  -2   6    7.70   12.70
  -4  -2   6   -8.40   11.10
   3   2  -6   10.20    5.70
   3   2  -6   14.40   21.20
   3   2  -6   17.00    8.70
  -3  -2   6   21.20   11.00
  -3  -2   6   12.30   12.00
   2   2  -6   29.40   21.60
   2   2  -6   41.40    9.70
   2   2  -6   29.50    7.30
  -2  -2   6   41.70   18.70
  -2  -2   6   42.70   11.60
  -2  -2   6   36.10   10.90
   1   2  -6  141.29   16.30
   1   2  -6  119.09   15.20
   1   2  -6  149.19   25.40
   1   2  -6  105.99   14.20
  -1  -2   6  164.38   23.70
  -1  -2   6  139.59   16.20
  -1  -2   6  124.49   13.90
   0   2  -6 1905.11  162.68
   0   2  -6 1906.51  162.98
   0   2  -6 1972.70  166.68
   0  -2   6 1969.70  162.68
   0  -2   6 1975.10  165.58
  -1   2  -6 1275.97  105.49
  -1   2  -6 1242.68  105.19
  -1   2  -6 1217.08  110.39
   1  -2   6 1262.27  104.99
   1  -2   6 1225.08  109.19
  -2   2  -6   20.70    8.70
  -2   2  -6   47.40   11.80
   2  -2   6    3.90   17.30
   2  -2   6   22.00    9.70
   2  -2   6   38.30    9.20
   3  -2   6  217.48   24.00
   3  -2   6  237.48   24.40
   4  -2   6    4.70   12.40
   5  -2   6   -7.30   15.30
   5   1  -6  156.28   40.00
  -5  -1   6  113.59   19.70
   4   1  -6   17.90   26.30
  -4  -1   6    4.50   12.90
   3   1  -6   -7.40   20.00
  -3  -1   6  -10.70    9.20
  -3  -1   6   -7.50   11.50
   2   1  -6   11.80    9.90
   2   1  -6   -3.70   15.10
   2   1  -6    9.90    8.60
  -2  -1   6    4.80    9.80
  -2  -1   6    6.80    9.00
   1   1  -6  680.53   59.19
   1   1  -6  647.44   55.69
   1   1  -6  620.84   54.89
   1   1  -6  636.64   54.49
  -1  -1   6  585.04   55.19
  -1  -1   6  686.93   58.59
   0   1  -6  219.38   26.10
   0   1  -6  223.38   21.80
   0   1  -6  262.17   23.30
   0  -1   6  212.68   21.60
   0  -1   6  241.38   25.40
   0  -1   6  251.27   22.80
  -1   1  -6  343.27   32.00
   1  -1   6  356.86   31.90
   1  -1   6  346.17   31.40
  -2   1  -6  177.08   16.20
  -2   1  -6  135.29   15.80
   2  -1   6  152.68   16.20
   2  -1   6  153.68   16.30
  -3   1  -6   47.10   10.80
   3  -1   6   47.40    9.40
   3  -1   6   35.00    9.70
   3  -1   6   40.30   10.30
  -4   1  -6   -0.80   11.70
   4  -1   6    4.40   10.70
  -5   1  -6    1.70   14.20
   5  -1   6   11.00   13.10
   6   0  -6  -22.80   42.60
   5   0  -6   39.00   27.10
   5   0  -6   81.29   24.90
   4   0  -6   -3.60   19.90
  -4   0   6    6.20   13.00
   3   0  -6  -13.80   13.70
  -3   0   6    4.40   11.00
   2   0  -6  684.93   73.19
   2   0  -6  849.52   71.09
   2   0  -6  976.80   70.89
   1   0  -6   27.60    7.20
   1   0  -6   35.10   10.40
  -1   0   6   14.00    9.90
   0   0  -6  817.32   69.89
   0   0  -6  807.32   70.09
   0   0   6  884.71   70.79
   0   0   6  816.42   70.09
   0   0   6  830.72   69.99
  -1   0  -6 1685.23  137.29
   1   0   6 1603.94  137.19
   1   0   6 1633.74  137.09
  -2   0  -6   44.50    9.60
  -2   0  -6   22.40    8.30
  -2   0  -6   29.30   10.40
   2   0   6   33.00    8.30
   2   0   6   23.60    8.60
   2   0   6   39.70    8.00
  -3   0  -6   65.29   14.10
   3   0   6   83.29   13.20
   3   0   6   96.79   12.50
   3   0   6  120.99   12.70
  -4   0  -6  307.97   33.00
   4   0   6  298.87   30.00
  -5   0  -6   20.00   14.80
   5   0   6   -4.50   12.40
  -6   0  -6  -11.00   14.40
   6  -1  -6  -41.50   21.70
   6  -1  -6  -47.40   26.60
   5  -1  -6   11.70   24.70
   5  -1  -6  -46.90   19.20
   4  -1  -6  119.99   24.00
   3  -1  -6   39.60   16.70
   3  -1  -6   48.50    9.80
   2  -1  -6  638.64   56.99
   1  -1  -6 2031.00  169.28
   1  -1  -6 2077.79  168.08
   1  -1  -6 1945.11  167.98
   0  -1  -6 1467.55  123.99
   0  -1  -6 1407.26  124.09
   0  -1  -6 1568.84  124.29
   0   1   6 1483.15  124.09
  -1  -1  -6  901.81   73.59
   1   1   6  855.91   73.39
   1   1   6  842.32   73.29
  -2  -1  -6  610.94   51.09
  -2  -1  -6  648.64   51.79
  -2  -1  -6  583.34   51.99
   2   1   6  565.34   50.59
   2   1   6  533.85   50.59
  -3  -1  -6   14.10   11.70
  -3  -1  -6   -6.80    9.90
   3   1   6    8.70    7.90
   3   1   6    4.60    7.90
  -4  -1  -6    0.20   13.40
  -4  -1  -6   -6.00   11.30
   4   1   6   -2.40    8.90
  -5  -1  -6   77.89   17.80
   5   1   6  117.19   15.80
  -6  -1  -6   16.30   16.70
   6   1   6    2.60   14.00
   6  -2  -6   13.20   33.00
   5  -2  -6   18.40   27.10
   4  -2  -6  122.49   24.90
   3  -2  -6  201.38   26.10
   2  -2  -6   19.00   13.50
   2  -2  -6   10.10    7.00
   2  -2  -6   16.60    7.10
   1  -2  -6 3474.55  322.47
   1  -2  -6 3798.42  321.27
   1  -2  -6 4175.48  321.47
  -1   2   6 3934.21  321.97
  -1   2   6 3908.81  321.17
   0  -2  -6  973.30   81.09
   0  -2  -6 1014.80   82.99
   0   2   6  788.62   83.89
   0   2   6 1030.40   81.09
   0   2   6  995.60   80.99
  -1  -2  -6  226.38   22.30
  -1  -2  -6  232.78   23.90
   1   2   6  217.38   19.80
   1   2   6  170.48   26.90
   1   2   6  222.08   21.50
  -2  -2  -6 3435.76  275.67
  -2  -2  -6 3081.09  276.17
   2   2   6 3040.40  275.47
   2   2   6 3684.63  282.57
  -3  -2  -6   13.40   12.30
  -3  -2  -6    9.50   11.30
  -3  -2  -6   -8.50   12.30
   3   2   6    2.30    8.10
   3   2   6   13.60   25.80
  -4  -2  -6   -4.30   14.40
  -4  -2  -6   -8.60   13.40
   4   2   6    4.70   31.80
   4   2   6    1.20   10.00
  -5  -2  -6   -2.00   14.50
  -5  -2  -6   10.40   15.80
   5   2   6    7.90   10.70
   5   2   6   -6.20   39.20
   5  -3  -6  -10.50   31.90
   4  -3  -6   36.00   29.30
   3  -3  -6   59.59   20.30
   3  -3  -6   75.29   14.90
   3  -3  -6   63.99   22.30
   3  -3  -6   57.59   12.00
   2  -3  -6  315.47   39.30
   2  -3  -6  414.56   33.40
   2  -3  -6  349.07   35.80
   2  -3  -6  387.96   33.70
  -2   3   6  330.87   32.10
   1  -3  -6  264.07   30.20
   1  -3  -6  289.97   25.20
   1  -3  -6  209.38   27.00
  -1   3   6  253.17   32.10
  -1   3   6  305.87   25.00
   0  -3  -6   32.70    9.90
   0  -3  -6    0.70   11.70
   0  -3  -6   27.90   15.10
   0   3   6   30.60   21.20
   0   3   6   17.40    8.70
  -1  -3  -6   95.79   13.70
  -1  -3  -6   99.09   14.80
   1   3   6   83.49   24.00
   1   3   6   84.99   11.10
   1   3   6   75.49   12.60
  -2  -3  -6   44.90   14.70
  -2  -3  -6   69.09   13.10
   2   3   6   59.29   25.70
   2   3   6   47.60   10.20
  -3  -3  -6    4.10   14.00
  -3  -3  -6   22.80   15.40
  -3  -3  -6   28.40   14.10
   3   3   6   22.40    9.90
   3   3   6   50.09   31.00
  -4  -3  -6    4.10   15.50
  -4  -3  -6   -6.30   16.60
   4   3   6    0.00   10.90
   4   3   6   24.70   36.70
  -5  -3  -6    3.90   16.20
   5   3   6   -3.30   13.40
   5  -4  -6  167.08   24.50
   4  -4  -6   -9.60   15.30
   4  -4  -6   39.50   34.60
   3  -4  -6  171.08   22.30
   3  -4  -6  209.48   37.40
   2  -4  -6    1.20   10.80
   2  -4  -6   29.30   13.10
   2  -4  -6    7.60   18.80
  -2   4   6   41.30   10.20
   1  -4  -6  346.37   41.40
   1  -4  -6  491.75   46.80
   1  -4  -6  484.15   39.60
  -1   4   6  382.36   52.09
  -1   4   6  487.55   39.40
   0  -4  -6  412.96   42.00
   0  -4  -6  490.15   41.40
   0   4   6  424.66   56.79
   0   4   6  429.76   41.00
  -1  -4  -6  111.49   16.10
  -1  -4  -6   88.49   18.60
   1   4   6   83.49   14.40
   1   4   6  134.39   38.60
  -2  -4  -6   60.19   18.50
  -2  -4  -6  108.09   16.50
   2   4   6   67.09   13.90
   2   4   6   64.99   34.60
  -3  -4  -6   25.40   18.70
  -3  -4  -6   21.10   16.70
   3   4   6   11.80   46.90
   3   4   6   13.00   12.10
  -4  -4  -6   -1.00   17.30
  -4  -4  -6   16.70   20.00
   4   4   6  -12.00   12.40
   4   4   6   -0.90   42.30
   4  -5  -6    8.90   18.30
   3  -5  -6   42.90   35.10
   3  -5  -6   64.69   17.60
   2  -5  -6   69.09   15.10
   2  -5  -6   94.59   31.30
   1  -5  -6  108.39   18.00
   1  -5  -6   96.59   24.90
  -1   5   6  112.99   17.50
   0  -5  -6  156.98   23.50
   0   5   6  215.08   49.80
   0   5   6  227.08   23.40
  -1  -5  -6   49.60   18.00
  -1  -5  -6   46.70   16.70
   1   5   6   76.59   15.70
   1   5   6   66.19   43.50
  -2  -5  -6   34.70   22.00
  -2  -5  -6   64.69   17.90
   2   5   6   14.30   14.70
  -3  -5  -6   -4.10   20.20
   3   5   6   16.50   48.50
   3   5   6    6.50   15.20
   4   5   6   17.80   15.70
   3  -6  -6    4.90   19.60
   2  -6  -6   57.99   19.40
   1  -6  -6   22.60   17.40
  -1   6   6   36.60   16.90
   0  -6  -6   -7.80   16.90
   0   6   6   20.50   16.50
  -1  -6  -6  379.76   45.90
  -1  -6  -6  406.76   43.80
   1   6   6  394.16   42.30
  -2  -6  -6    2.00   23.10
   2   6   6    2.10   17.10
  -3  -6  -6   -0.40   23.60
   3   6   6   10.80   17.10
   2  -7  -6   15.20   24.80
   1  -7  -6   17.90   20.80
   0  -7  -6   43.90   20.90
   0   7   6   41.10   22.30
  -1  -7  -6   -4.80   21.60
   1   7   6   22.90   24.60
   1   7  -7    4.80   20.60
   0   7  -7  -16.00   82.89
   0   7  -7   26.80   24.30
   0  -7   7   10.90   16.90
  -1   7  -7  137.69   28.00
   1  -7   7   47.50   18.30
   2  -7   7   28.40   19.10
   3   6  -7   20.70   19.20
  -3  -6   7   -4.20   25.20
   2   6  -7   86.79   57.69
   2   6  -7   34.50   16.20
   1   6  -7   92.99   20.70
  -1  -6   7   70.79   17.60
   0   6  -7   19.10   19.60
   0  -6   7   11.60   13.30
  -1   6  -7   17.90   19.10
  -1   6  -7   73.69   65.29
   1  -6   7   20.70   14.70
   2  -6   7   37.90   16.90
   3  -6   7    0.90   18.30
   4  -6   7   13.20   22.10
   4   5  -7    2.60   17.70
  -4  -5   7   10.40   19.90
   3   5  -7   -1.80   12.40
   3   5  -7   34.90   44.40
  -3  -5   7   12.10   16.50
  -3  -5   7   32.80   21.80
   2   5  -7   32.60   14.80
   2   5  -7   97.19   56.29
  -2  -5   7   50.09   19.10
  -2  -5   7   65.39   19.00
   1   5  -7  499.05   72.49
   1   5  -7  390.96   44.50
  -1  -5   7  482.55   42.70
   0   5  -7  617.74   57.59
   0   5  -7  724.33   98.19
   0  -5   7  580.44   55.29
  -1   5  -7   40.00   16.30
  -1   5  -7   79.89   58.59
   1  -5   7   43.20   13.20
  -2   5  -7  334.67   34.40
   2  -5   7  284.77   32.00
   3  -5   7   11.10   15.50
   4  -5   7   45.20   20.40
   4   4  -7  -11.30   14.50
   4   4  -7   -6.00   39.70
  -4  -4   7    6.30   16.10
  -4  -4   7  -11.10   15.40
   3   4  -7   20.10   12.20
   3   4  -7    3.10   36.10
  -3  -4   7   -9.40   14.30
  -3  -4   7    4.90   14.80
   2   4  -7   23.30   31.20
   2   4  -7   17.00   10.90
  -2  -4   7    9.90    9.80
  -2  -4   7  -22.20   13.40
   1   4  -7   61.69   13.50
   1   4  -7   86.59   31.80
  -1  -4   7   50.79   11.30
   0   4  -7  247.68   24.50
   0   4  -7  211.98   23.40
   0  -4   7  178.98   21.60
  -1   4  -7  308.07   47.50
  -1   4  -7  232.08   26.80
   1  -4   7  237.68   25.90
  -2   4  -7  150.08   19.20
   2  -4   7  129.79   17.90
   3  -4   7   90.39   17.00
   4  -4   7   18.30   17.50
   5  -4   7   16.70   21.30
   5   3  -7   -1.00   11.10
  -5  -3   7    9.80   16.20
   4   3  -7   29.50   35.50
   4   3  -7   44.20   11.40
  -4  -3   7   41.00   15.60
  -4  -3   7   77.99   16.50
   3   3  -7  152.98   19.60
   3   3  -7  216.98   41.60
  -3  -3   7  149.19   22.20
  -3  -3   7  203.38   22.90
   2   3  -7   67.29   13.20
   2   3  -7   70.09   29.00
  -2  -3   7   89.09   14.90
  -2  -3   7   83.29   11.00
  -2  -3   7   40.70   13.60
   1   3  -7  174.58   33.60
   1   3  -7  132.89   17.90
  -1  -3   7  190.38   27.90
  -1  -3   7  148.69   17.00
  -1  -3   7  156.98   19.00
   0   3  -7 1104.29   99.79
   0   3  -7 1184.18  100.49
   0   3  -7 1182.88  107.49
   0  -3   7 1214.28   99.89
   0  -3   7 1217.68  104.29
  -1   3  -7  201.18   36.10
  -1   3  -7  146.59   17.00
   1  -3   7  145.69   15.90
   1  -3   7  106.29   21.90
  -2   3  -7  272.47   25.60
   2  -3   7  226.08   34.00
   2  -3   7  245.68   25.20
  -3   3  -7  489.75   44.80
   3  -3   7  517.05   46.30
   4  -3   7   -4.30   14.10
   5  -3   7    3.60   17.60
   5   2  -7   -7.00   33.10
  -5  -2   7   14.30   15.00
   4   2  -7  -10.30   26.80
  -4  -2   7   -8.50   11.00
  -4  -2   7   -6.00   12.50
   3   2  -7    8.40   21.70
   3   2  -7    0.00    8.80
   3   2  -7    4.00    5.70
  -3  -2   7    9.50   10.90
  -3  -2   7    7.80   12.30
   2   2  -7  859.51   74.89
   2   2  -7  934.31   84.09
  -2  -2   7  870.11   76.59
  -2  -2   7  807.62   76.29
  -2  -2   7  967.70   83.19
   1   2  -7  437.76   40.10
   1   2  -7  400.86   40.50
   1   2  -7  477.15   41.30
   1   2  -7  452.85   46.90
  -1  -2   7  522.25   46.40
  -1  -2   7  441.66   39.60
   0   2  -7  421.66   37.70
   0   2  -7  366.76   43.20
   0   2  -7  408.36   37.00
   0  -2   7  437.96   40.10
   0  -2   7  418.06   36.50
  -1   2  -7  170.68   28.00
  -1   2  -7  179.18   18.80
   1  -2   7  175.38   17.90
   1  -2   7  168.68   24.40
  -2   2  -7  180.08   17.90
  -2   2  -7  163.18   20.30
   2  -2   7  184.38   18.10
   2  -2   7  146.89   28.20
   3  -2   7   41.90   11.10
   3  -2   7   26.50   11.20
   4  -2   7  300.47   30.60
   5  -2   7   83.09   23.20
   5  -2   7    2.10   15.90
   6  -2   7    5.10   18.50
   5   1  -7   30.70   31.50
  -5  -1   7   40.20   14.70
   4   1  -7   61.99   28.00
  -4  -1   7   71.99   15.90
   3   1  -7   88.39   25.10
  -3  -1   7  102.79   14.30
  -3  -1   7  102.29   16.40
   2   1  -7  479.95   46.40
   2   1  -7  534.95   51.69
   2   1  -7  572.64   47.10
  -2  -1   7  562.24   53.09
  -2  -1   7  530.75   46.90
  -2  -1   7  447.06   46.40
   1   1  -7 2353.26  171.98
   1   1  -7 1870.11  168.38
   1   1  -7 1877.71  167.88
   1   1  -7 1995.60  167.68
  -1  -1   7 2281.67  171.58
  -1  -1   7 1848.22  167.48
  -1  -1   7 1904.91  168.08
   0   1  -7  502.95   44.70
   0   1  -7  553.94   45.60
   0   1  -7  497.35   49.20
   0  -1   7  485.35   44.50
   0  -1   7  547.55   47.70
  -1   1  -7 9451.25  808.72
   1  -1   7 9753.02  808.82
   1  -1   7 9999.00  808.82
  -2   1  -7  194.68   22.20
  -2   1  -7  216.68   21.80
   2  -1   7  240.18   22.70
   2  -1   7  244.78   22.70
  -3   1  -7    1.00    9.30
   3  -1   7  -40.90    9.20
   3  -1   7  -13.40    9.70
   3  -1   7   -4.90    8.10
   3  -1   7    9.10    7.40
  -4   1  -7   21.00   12.30
   4  -1   7   27.90   11.50
  -5   1  -7    2.60   15.20
   5  -1   7   33.50   13.60
   6  -1   7  -22.10   14.50
   6   0  -7  -14.70   36.90
   5   0  -7   34.90   27.10
   5   0  -7   35.70   19.90
   4   0  -7   41.10   22.70
   3   0  -7   23.40   15.50
   2   0  -7   39.50    9.40
   2   0  -7   44.00    8.90
   2   0  -7   46.20   13.60
   1   0  -7  237.88   23.00
   1   0  -7  262.77   21.50
  -1   0   7  176.88   22.80
   0   0  -7  824.12   69.89
   0   0  -7  841.42   69.49
   0   0   7  736.33   69.49
   0   0   7  806.62   69.49
   0   0   7  882.01   70.49
  -1   0  -7  236.28   23.60
   1   0   7  250.07   23.20
   1   0   7  239.58   23.50
  -2   0  -7  208.48   20.70
  -2   0  -7  164.58   19.80
  -2   0  -7  190.58   20.00
   2   0   7  208.78   19.20
   2   0   7  185.28   19.70
   2   0   7  172.68   19.30
  -3   0  -7   10.00   11.20
   3   0   7   14.90    8.60
   3   0   7   11.20    8.60
   3   0   7    9.10    8.40
  -4   0  -7   37.20   14.50
   4   0   7   45.30   11.70
  -5   0  -7  -28.30   13.50
   5   0   7  -16.00   12.80
  -6   0  -7   -6.80   15.80
   6   0   7   19.40   14.70
   6  -1  -7   17.60   26.70
   5  -1  -7   70.19   26.70
   5  -1  -7   -3.90   24.10
   4  -1  -7  356.66   40.60
   3  -1  -7   19.70    9.00
   3  -1  -7   32.00   14.90
   2  -1  -7  686.13   58.69
   1  -1  -7 1156.68  101.19
   1  -1  -7 1263.37  101.29
   0  -1  -7  885.61   75.89
   0  -1  -7  890.31   75.69
   0  -1  -7  939.41   76.19
   0   1   7  872.81   75.69
  -1  -1  -7  480.25   43.70
   1   1   7  504.65   43.20
  -2  -1  -7   72.09   13.40
  -2  -1  -7  120.99   14.30
  -2  -1  -7  102.89   15.10
   2   1   7  102.59   12.90
   2   1   7  111.99   12.70
  -3  -1  -7   10.20   10.60
  -3  -1  -7   20.90    7.60
  -3  -1  -7   -1.10   11.10
   3   1   7    6.30    8.40
   3   1   7   -6.60    8.20
  -4  -1  -7  -11.50   11.40
  -4  -1  -7   10.50   13.80
   4   1   7   11.20    9.50
  -5  -1  -7   52.39   16.60
   5   1   7   63.19   13.20
  -6  -1  -7  -13.70   17.50
   5  -2  -7   12.10   28.60
   4  -2  -7   -8.60   20.90
   3  -2  -7   62.59   17.90
   2  -2  -7   44.40   14.70
   2  -2  -7   29.90    8.00
   2  -2  -7   33.00    7.60
   1  -2  -7  789.52   80.29
   1  -2  -7  962.80   78.29
   1  -2  -7  992.40   78.39
  -1   2   7  915.71   77.99
  -1   2   7  941.51   79.29
   0  -2  -7  623.94   55.29
   0  -2  -7  611.24   53.19
   0   2   7  601.14   52.69
   0   2   7  618.24   52.89
  -1  -2  -7  274.17   27.90
  -1  -2  -7  308.07   27.30
   1   2   7  307.57   26.50
   1   2   7  222.78   32.10
  -2  -2  -7  129.79   17.50
  -2  -2  -7  148.39   17.30
   2   2   7  127.59   28.30
   2   2   7  136.99   15.40
  -3  -2  -7   88.89   16.00
  -3  -2  -7   62.99   16.10
  -3  -2  -7  109.69   15.70
   3   2   7  102.19   32.10
   3   2   7   92.49   13.00
  -4  -2  -7   -3.70   13.80
  -4  -2  -7   14.50   16.10
   4   2   7    4.60   10.10
   4   2   7   32.10   39.70
  -5  -2  -7    8.20   16.70
  -5  -2  -7    3.10   15.20
   5   2   7   21.70   11.70
   5   2   7  -32.00   41.80
   5  -3  -7   22.60   38.00
   4  -3  -7   -7.80   10.80
   4  -3  -7   23.20   26.60
   3  -3  -7   11.80   19.80
   3  -3  -7   24.60   18.40
   3  -3  -7   15.20   10.50
   2  -3  -7   23.60   10.50
   2  -3  -7   47.10   11.70
   2  -3  -7   47.50   10.10
   2  -3  -7   30.80   17.20
  -2   3   7   42.10    8.20
   1  -3  -7  314.47   28.60
   1  -3  -7  270.27   33.50
  -1   3   7  306.37   28.30
  -1   3   7  289.17   33.50
   0  -3  -7 4057.69  334.77
   0  -3  -7 3939.01  336.77
   0  -3  -7 3986.30  334.87
   0   3   7 3971.70  334.57
   0   3   7 4115.59  340.47
  -1  -3  -7  142.39   17.20
  -1  -3  -7  122.89   17.30
   1   3   7  126.69   14.40
   1   3   7  155.98   16.20
   1   3   7  120.89   28.40
  -2  -3  -7  140.69   16.80
  -2  -3  -7   85.09   16.50
   2   3   7   96.79   13.90
   2   3   7  117.89   32.80
  -3  -3  -7  628.24   53.59
  -3  -3  -7  607.74   50.19
  -3  -3  -7  533.55   52.69
   3   3   7  464.05   48.10
   3   3   7  489.85   61.29
  -4  -3  -7    0.20   17.10
  -4  -3  -7    2.70   15.40
   4   3   7  -16.40   37.00
   4   3   7   10.70   11.00
  -5  -3  -7    5.00   17.00
   5   3   7   -3.90   13.00
   4  -4  -7   18.10   37.70
   4  -4  -7   36.10   16.80
   3  -4  -7    3.40   12.20
   3  -4  -7   26.40   26.60
   2  -4  -7  107.99   17.70
   2  -4  -7  107.19   24.10
   2  -4  -7   83.59   15.00
  -2   4   7  112.79   14.40
   1  -4  -7  252.07   25.80
   1  -4  -7  305.67   34.30
   1  -4  -7  190.78   28.10
  -1   4   7  280.67   25.60
  -1   4   7  247.08   37.10
   0  -4  -7   43.50   13.10
   0  -4  -7   21.70   11.80
   0  -4  -7    6.70   14.00
   0   4   7   83.89   27.40
   0   4   7   27.80   11.20
  -1  -4  -7   21.80   13.90
  -1  -4  -7   28.00   13.00
   1   4   7   40.30   31.10
   1   4   7   17.50   10.90
  -2  -4  -7    6.00   13.60
  -2  -4  -7  -13.50   15.90
   2   4   7  -17.80   31.70
   2   4   7    5.60   10.00
  -3  -4  -7   10.90   16.60
  -3  -4  -7   58.29   19.80
   3   4   7   38.40   39.20
   3   4   7   32.30   12.30
  -4  -4  -7    2.10   19.90
  -4  -4  -7  -13.70   18.10
   4   4   7   -2.50   41.00
   4   4   7  -24.50   11.90
   4  -5  -7   79.69   22.00
   3  -5  -7   34.90   32.00
   3  -5  -7   30.40   18.70
   2  -5  -7  313.57   34.10
   2  -5  -7  346.77   44.50
   1  -5  -7  111.19   19.80
  -1   5   7  122.69   18.30
  -1   5   7   84.19   43.40
   0  -5  -7  131.69   19.80
   0   5   7  109.29   45.50
   0   5   7  149.19   19.50
  -1  -5  -7  127.89   22.80
  -1  -5  -7  160.38   22.00
   1   5   7  153.18   50.29
   1   5   7  143.39   21.20
  -2  -5  -7   15.50   18.10
  -2  -5  -7   -7.30   16.70
   2   5   7    4.00   13.60
  -3  -5  -7  -15.20   20.60
   3   5   7   15.60   14.30
   3   5   7  -34.20   48.30
   4   5   7  -12.10   16.00
   3  -6  -7   24.20   20.80
   2  -6  -7   37.40   18.50
   1  -6  -7   24.20   17.70
  -1   6   7   61.09   16.20
   0  -6  -7   13.10   18.50
   0   6   7   62.79   17.80
  -1  -6  -7   75.79   22.90
  -1  -6  -7  106.29   27.10
   1   6   7   85.19   21.30
  -2  -6  -7   15.30   24.00
   2   6   7   16.50   18.50
   1  -7  -7  103.49   25.50
   0  -7  -7   23.50   21.30
   0   7   7    1.30   21.20
  -1  -7  -7   49.60   24.20
   1   7  -8   13.00   22.20
   0   7  -8   18.70   24.20
   0  -7   8   42.20   17.20
  -1   7  -8   63.29   26.90
   1  -7   8   17.50   17.00
   2  -7   8   22.10   20.00
   3   6  -8   -7.30   14.60
   2   6  -8   -2.20   15.00
   1   6  -8  183.98   72.29
   1   6  -8   58.89   19.80
  -1  -6   8   72.29   17.00
   0   6  -8  104.99   23.20
   0   6  -8   88.99   64.59
   0  -6   8   80.99   17.10
  -1   6  -8  150.08   64.79
  -1   6  -8  112.99   27.00
   1  -6   8  106.69   19.60
   2  -6   8   99.49   20.20
   3  -6   8   12.30   18.70
   4  -6   8   25.40   22.30
   4   5  -8    2.10   17.20
  -4  -5   8   23.50   20.40
   3   5  -8   36.00   14.30
   3   5  -8   57.69   46.40
  -3  -5   8   37.20   19.20
  -3  -5   8   30.50   17.70
   2   5  -8   26.70   40.10
   2   5  -8    2.40   12.90
  -2  -5   8  -17.10   15.50
   1   5  -8    9.90   13.80
   1   5  -8   91.69   49.20
  -1  -5   8   -5.20   10.80
   0   5  -8  109.69   65.59
   0   5  -8  114.79   19.60
   0  -5   8  107.69   16.50
  -1   5  -8    3.50   15.00
  -1   5  -8   25.10   50.39
   1  -5   8   14.10   12.30
  -2   5  -8   19.90   16.50
   2  -5   8   40.40   14.20
   3  -5   8   41.70   17.30
   4  -5   8  -16.00   18.80
   4   4  -8   21.80   45.60
   4   4  -8    8.90   10.90
  -4  -4   8   -2.30   16.00
  -4  -4   8   -3.50   16.50
   3   4  -8   33.80   12.70
   3   4  -8   44.90   38.80
  -3  -4   8   34.00   16.20
  -3  -4   8   44.10   16.10
   2   4  -8  288.27   47.20
   2   4  -8  171.78   23.60
  -2  -4   8  249.48   26.70
  -2  -4   8  211.18   23.00
   1   4  -8  332.27   33.60
   1   4  -8  384.76   54.29
  -1  -4   8  299.37   31.50
   0   4  -8 2227.88  213.48
   0   4  -8 2444.66  199.78
   0   4  -8 2439.76  199.58
   0  -4   8 2339.37  198.78
  -1   4  -8 1038.90   84.29
  -1   4  -8  938.01  100.19
   1  -4   8  923.21   83.19
  -2   4  -8    6.60   12.60
   2  -4   8   12.30   11.40
   3  -4   8   18.70   13.90
   4  -4   8   -6.60   16.60
   5  -4   8  -15.00   21.80
   5   3  -8   13.40   12.90
  -5  -3   8   15.50   16.80
   4   3  -8    3.60    9.80
   4   3  -8   40.00   35.70
  -4  -3   8    3.60   14.10
  -4  -3   8    8.40   13.50
   3   3  -8   96.59   35.10
   3   3  -8   69.19   13.30
  -3  -3   8   68.69   15.20
  -3  -3   8   85.49   17.60
   2   3  -8  106.19   29.00
   2   3  -8   75.19   14.90
  -2  -3   8   99.29   16.20
  -2  -3   8   78.39   15.50
  -2  -3   8   93.69   12.10
   1   3  -8  423.86   51.49
   1   3  -8  382.56   38.80
  -1  -3   8  465.15   45.10
  -1  -3   8  394.26   37.50
   0   3  -8  324.27   31.90
   0   3  -8  285.67   40.30
   0   3  -8  349.27   31.10
   0  -3   8  311.27   34.80
   0  -3   8  336.47   30.10
  -1   3  -8  376.96   33.70
  -1   3  -8  435.96   50.59
   1  -3   8  360.26   32.30
   1  -3   8  268.57   37.40
  -2   3  -8  102.09   13.40
   2  -3   8   60.19   12.80
   2  -3   8   65.39   22.70
  -3   3  -8  226.68   23.20
   3  -3   8  231.68   25.10
   4  -3   8  118.19   19.00
   5  -3   8   28.80   18.80
   5   2  -8  112.69   40.20
  -5  -2   8   87.39   19.00
   4   2  -8  -34.40   28.80
  -4  -2   8   -2.30   11.40
  -4  -2   8   13.00   13.00
   3   2  -8   22.10    6.90
   3   2  -8   17.90   23.00
   3   2  -8   30.40   10.50
  -3  -2   8   38.90   13.60
  -3  -2   8   46.00   12.60
   2   2  -8 2162.78  164.58
   2   2  -8 1733.33  156.38
   2   2  -8 1719.73  156.08
  -2  -2   8 2188.88  164.38
  -2  -2   8 1787.52  157.48
  -2  -2   8 1699.73  156.98
   1   2  -8  930.51   83.59
   1   2  -8  992.60   89.79
   1   2  -8  933.31   83.29
   1   2  -8  993.50   84.19
  -1  -2   8 1142.49   88.79
  -1  -2   8  927.11   82.89
   0   2  -8  527.15   53.89
   0   2  -8  576.44   49.40
   0  -2   8  542.25   48.20
   0  -2   8  582.54   51.69
  -1   2  -8  245.78   35.90
  -1   2  -8  251.87   25.50
   1  -2   8  274.37   24.40
   1  -2   8  220.08   28.80
  -2   2  -8  256.87   28.50
  -2   2  -8  238.78   24.70
   2  -2   8  219.28   36.40
   2  -2   8  259.47   25.00
  -3   2  -8    2.50    7.40
   3  -2   8   11.70   11.00
   3  -2   8    8.40   10.70
   4  -2   8   91.39   16.20
   6  -2   8   20.40   18.30
   5   1  -8   35.40   33.20
   4   1  -8   -4.50   24.10
  -4  -1   8   -2.70   12.50
   3   1  -8  -22.10   17.90
  -3  -1   8   10.10   11.80
  -3  -1   8    2.80    9.20
   2   1  -8  360.46   33.70
   2   1  -8  325.57   39.20
   2   1  -8  339.57   33.60
  -2  -1   8  322.37   33.40
  -2  -1   8  424.66   40.80
   1   1  -8 1307.27  109.89
   1   1  -8 1146.39  106.09
   1   1  -8 1266.57  105.79
   1   1  -8 1241.68  106.79
  -1  -1   8 1224.78  106.19
  -1  -1   8 1431.06  110.09
  -1  -1   8 1237.58  105.59
   0   1  -8  163.08   21.60
   0   1  -8  117.19   15.90
   0   1  -8  127.69   14.30
   0  -1   8  141.59   19.20
   0  -1   8  135.89   14.10
  -1   1  -8  675.83   57.79
   1  -1   8  693.23   57.59
   1  -1   8  629.74   60.79
   1  -1   8  669.33   57.19
  -2   1  -8   22.90    7.80
  -2   1  -8   32.50    9.70
   2  -1   8    9.70    9.00
   2  -1   8    3.70    8.30
   2  -1   8    4.80    5.80
  -3   1  -8   91.49   13.50
   3  -1   8   76.99   11.70
   3  -1   8   87.29   12.80
   3  -1   8   94.99   13.70
  -4   1  -8  -17.70   11.80
   4  -1   8   19.90   11.40
  -5   1  -8   14.70   14.70
   5  -1   8    1.00   13.20
   6  -1   8   -6.10   15.10
   6   0  -8    6.00   32.80
   5   0  -8   -0.30   26.20
   5   0  -8   36.70   19.10
   4   0  -8   -5.00   19.00
   3   0  -8   25.50   15.40
   2   0  -8  191.98   19.70
   2   0  -8  197.78   19.90
   2   0  -8  193.08   25.70
   1   0  -8 1457.15  117.69
   1   0  -8 1458.65  117.49
   1   0  -8 1269.07  119.19
   1   0  -8 1453.85  118.09
   0   0  -8  214.78   22.40
   0   0  -8  196.68   23.40
   0   0   8  210.48   23.80
   0   0   8  270.67   24.10
   0   0   8  217.98   22.40
  -1   0  -8  105.89   13.60
   1   0   8  100.49   13.20
   1   0   8  108.69   12.50
  -2   0  -8 1442.46  131.19
  -2   0  -8 1684.03  131.59
   2   0   8 1588.74  131.19
   2   0   8 1591.74  131.39
   2   0   8 1526.15  131.49
  -3   0  -8   17.30   11.10
   3   0   8   19.50    9.60
   3   0   8   33.90    8.90
   3   0   8    7.00    8.80
  -4   0  -8   54.09   16.00
   4   0   8   79.99   13.60
  -5   0  -8   17.90   18.00
   5   0   8   14.20   13.70
  -6   0  -8   22.70   18.40
   6   0   8    5.80   14.60
   6  -1  -8  -64.89   24.50
   6  -1  -8   28.90   29.30
   5  -1  -8   41.40   24.20
   5  -1  -8  -28.60   21.00
   4  -1  -8   57.79   23.30
   4  -1  -8   26.90   19.20
   3  -1  -8   39.50   16.40
   3  -1  -8   46.10   18.70
   3  -1  -8   62.69   10.60
   2  -1  -8   27.20   12.70
   2  -1  -8   62.89    9.00
   1  -1  -8    7.90    6.60
   1  -1  -8    9.30    6.60
  -1   1   8   13.10    4.50
   0  -1  -8  184.68   18.80
   0  -1  -8  155.48   16.30
   0  -1  -8  158.28   16.60
   0   1   8  143.39   15.50
  -1  -1  -8  251.57   25.80
   1   1   8  252.87   24.40
  -2  -1  -8 2439.36  198.78
  -2  -1  -8 2285.67  199.28
  -2  -1  -8 2506.45  198.78
   2   1   8 2265.17  198.38
  -3  -1  -8   47.70   14.20
  -3  -1  -8   92.09   12.60
  -3  -1  -8   59.59   13.20
   3   1   8   81.49   11.50
  -4  -1  -8   12.80   11.80
  -4  -1  -8    3.10   15.00
   4   1   8    6.10    9.80
  -5  -1  -8   51.09   19.80
   5   1   8   82.39   14.70
   5  -2  -8   10.70   27.60
   5  -2  -8   -6.10   28.70
   4  -2  -8   56.69   25.60
   3  -2  -8 1215.48  106.89
   2  -2  -8  257.77   29.60
   2  -2  -8  308.27   23.60
   2  -2  -8  194.48   26.60
   2  -2  -8  274.57   23.80
   1  -2  -8  856.71   70.29
   1  -2  -8  770.82   72.59
   1  -2  -8  812.62   70.09
  -1   2   8  845.42   69.89
   0  -2  -8  959.30   82.99
   0  -2  -8  956.50   81.79
   0   2   8  963.50   81.49
   0   2   8  969.70   81.59
  -1  -2  -8  399.56   33.90
  -1  -2  -8  410.76   35.10
   1   2   8  275.87   37.70
   1   2   8  398.06   33.40
  -2  -2  -8   37.00   11.80
  -2  -2  -8   42.30   12.30
   2   2   8   34.70    9.20
   2   2   8   24.30   22.50
  -3  -2  -8   34.70   13.30
  -3  -2  -8   40.80   13.40
  -3  -2  -8   36.70   13.50
   3   2   8   21.50   10.10
   3   2   8   34.40   27.80
  -4  -2  -8    5.60   14.70
  -4  -2  -8   18.10   14.60
   4   2   8   -7.60   32.50
   4   2   8   -1.50   10.40
  -5  -2  -8    4.60   16.80
  -5  -2  -8    7.20   16.00
   5   2   8    6.70   11.70
   5  -3  -8   24.30   35.60
   5  -3  -8   22.00   12.50
   4  -3  -8   12.80   11.70
   4  -3  -8  -13.70   30.20
   3  -3  -8   30.10   11.10
   3  -3  -8   32.20   20.50
   3  -3  -8   28.10   16.60
   2  -3  -8   13.50    8.90
   2  -3  -8   33.70   10.10
   2  -3  -8   25.90   16.40
   2  -3  -8   19.30   10.50
  -2   3   8   19.10    7.60
   1  -3  -8   41.20   16.10
   1  -3  -8   23.40    9.70
   1  -3  -8   20.30   10.00
  -1   3   8   26.50   13.80
  -1   3   8   40.10    9.00
   0  -3  -8 1827.82  155.68
   0  -3  -8 1748.53  153.58
   0  -3  -8 1813.12  153.38
   0   3   8 1830.92  153.28
   0   3   8 1908.31  160.98
  -1  -3  -8   55.39   13.30
  -1  -3  -8   31.80   11.40
   1   3   8   19.00   10.70
   1   3   8    9.40   19.70
   1   3   8   30.40    7.50
  -2  -3  -8  120.89   16.20
  -2  -3  -8   87.29   16.50
   2   3   8   85.59   13.50
   2   3   8   82.09   27.70
  -3  -3  -8   54.09   15.90
  -3  -3  -8   44.00   15.90
  -3  -3  -8   29.80   16.30
   3   3   8   57.79   31.70
   3   3   8   45.40   11.50
  -4  -3  -8    1.40   15.50
  -4  -3  -8    2.40   17.00
   4   3   8  -29.10   36.50
   4   3   8   13.10   12.00
  -5  -3  -8    0.70   17.50
   5   3   8   -7.70   14.00
   5  -4  -8   41.30   16.50
   4  -4  -8    9.10   15.10
   4  -4  -8   60.19   31.80
   3  -4  -8   10.00   12.30
   3  -4  -8   21.10   28.80
   2  -4  -8  245.08   35.60
   2  -4  -8  243.18   28.00
   2  -4  -8  233.78   25.40
  -2   4   8  233.18   24.70
   1  -4  -8  165.88   19.70
   1  -4  -8  223.88   27.80
   1  -4  -8  121.09   21.50
  -1   4   8  185.08   32.40
  -1   4   8  216.98   19.70
   0  -4  -8  281.77   38.60
   0  -4  -8  432.96   36.60
   0  -4  -8  380.86   37.80
   0   4   8  373.16   35.50
   0   4   8  510.35   54.89
  -1  -4  -8  856.01   75.39
  -1  -4  -8  877.41   74.09
   1   4   8  899.61   92.59
   1   4   8  773.92   73.49
  -2  -4  -8  -11.40   14.30
  -2  -4  -8   26.90   14.10
   2   4   8    3.30   11.40
   2   4   8  -14.20   29.90
  -3  -4  -8   26.20   18.70
  -3  -4  -8    3.00   17.20
   3   4   8   -4.90   34.50
   3   4   8   -8.30   11.90
  -4  -4  -8   -1.30   17.60
  -4  -4  -8   -3.30   20.10
   4   4   8  -10.70   13.10
   4   4   8   17.70   50.29
   3  -5  -8   -0.40   15.20
   3  -5  -8   -1.10   28.80
   2  -5  -8   38.50   28.90
   2  -5  -8   -6.90   13.80
   1  -5  -8   93.79   19.70
  -1   5   8  159.58   20.70
  -1   5   8  163.48   53.09
   0  -5  -8    9.00   14.90
   0  -5  -8   55.39   15.80
   0  -5  -8   22.30   18.80
   0   5   8   21.10   13.50
   0   5   8    4.70   39.10
  -1  -5  -8   43.60   16.80
  -1  -5  -8   40.80   19.80
   1   5   8   44.40   15.00
   1   5   8   69.19   43.30
  -2  -5  -8   22.40   21.60
  -2  -5  -8    1.90   16.70
   2   5   8  -19.80   14.60
  -3  -5  -8    9.40   20.30
   3   5   8  -28.20   13.30
   3   5   8   17.70   48.50
   3  -6  -8   10.70   21.50
   2  -6  -8   65.29   23.10
   1  -6  -8  236.78   30.10
  -1   6   8  241.78   30.70
   0  -6  -8  207.08   27.80
   0   6   8  187.88   26.60
  -1  -6  -8   11.90   20.70
  -1  -6  -8  -13.70   21.80
   1   6   8    0.10   17.10
  -2  -6  -8   22.70   25.00
   2   6   8   41.60   20.00
   1  -7  -8   71.79   23.90
   0  -7  -8  -23.20   22.80
   0   7   8  -14.90   21.20
   1   7  -9  156.58   29.90
   0   7  -9   44.30   24.90
   0  -7   9   23.40   16.00
  -1   7  -9   48.00   28.50
   1  -7   9    0.90   16.10
   2  -7   9   34.20   19.30
   3   6  -9  -30.80   14.60
   2   6  -9   43.30   17.60
   1   6  -9    4.20   17.30
   1   6  -9   26.50   56.29
  -1  -6   9    5.70   14.30
   0   6  -9   10.00   19.50
   0  -6   9   46.40   14.70
  -1   6  -9   92.89   23.10
   1  -6   9   64.99   16.70
   2  -6   9  145.19   22.80
   3  -6   9   70.69   19.40
   4   5  -9   21.90   20.80
  -4  -5   9   23.60   21.40
   3   5  -9  221.48   28.50
   3   5  -9  366.16   71.99
  -3  -5   9  218.68   31.00
  -3  -5   9  304.17   33.50
   2   5  -9   10.90   13.60
   2   5  -9   34.50   44.20
   1   5  -9   11.10   13.60
   1   5  -9   41.20   46.70
  -1  -5   9    4.70   10.90
   0   5  -9   76.29   58.19
   0   5  -9   51.89   16.20
   0  -5   9   46.00   13.00
  -1   5  -9   72.79   18.30
  -1   5  -9  133.29   54.29
   1  -5   9   67.79   15.40
  -2   5  -9   33.80   16.50
   2  -5   9   37.10   14.40
   3  -5   9   43.80   17.50
   4  -5   9   -8.30   19.40
   4   4  -9   -5.10   40.30
   4   4  -9    9.10   12.80
  -4  -4   9    2.00   16.30
  -4  -4   9   -3.80   16.00
   3   4  -9   18.40   34.20
   3   4  -9    0.50   12.90
  -3  -4   9   10.70   15.00
  -3  -4   9   16.60   15.50
   2   4  -9  126.89   20.90
   2   4  -9  280.77   46.90
  -2  -4   9  197.08   24.00
  -2  -4   9  196.28   20.70
   1   4  -9   28.60   35.20
   1   4  -9   30.40   12.70
  -1  -4   9   20.40    9.60
   0   4  -9  606.24   52.89
   0   4  -9  504.25   68.49
   0  -4   9  584.44   50.99
  -1   4  -9  190.48   38.80
  -1   4  -9  225.08   23.80
   1  -4   9  183.28   21.80
  -2   4  -9   92.19   15.80
   2  -4   9   54.89   14.00
   3  -4   9   49.00   15.60
   4  -4   9   10.20   16.80
   5  -4   9   11.30   21.20
   5   3  -9    3.50   13.10
  -5  -3   9  -18.00   15.80
   4   3  -9   21.60   34.90
   4   3  -9   -3.90   10.30
  -4  -3   9   15.30   14.20
  -4  -3   9   15.40   14.80
   3   3  -9    3.10   25.50
   3   3  -9   13.90   10.60
  -3  -3   9    4.30   12.20
  -3  -3   9    2.40   13.40
   2   3  -9  302.67   43.10
   2   3  -9  230.58   24.00
  -2  -3   9  199.78   24.20
  -2  -3   9  243.78   25.70
  -2  -3   9  205.08   22.50
   1   3  -9  671.63   71.19
   1   3  -9  703.43   63.09
  -1  -3   9  675.73   61.99
  -1  -3   9  834.32   69.69
   0   3  -9  302.57   48.40
   0   3  -9  406.96   37.10
   0   3  -9  435.16   37.80
   0  -3   9  388.36   41.20
   0  -3   9  447.06   36.50
  -1   3  -9 2076.39  160.68
  -1   3  -9 1838.72  168.78
   1  -3   9 1633.24  163.98
   1  -3   9 2089.79  160.38
  -2   3  -9  222.28   23.00
   2  -3   9  207.28   22.80
  -3   3  -9   95.39   14.30
   3  -3   9  102.29   16.20
   4  -3   9   86.89   18.10
   5  -3   9   10.90   17.90
   5   2  -9  -13.20   34.20
   4   2  -9   -2.20   29.00
  -4  -2   9   -7.30   10.90
  -4  -2   9   14.30   13.30
   3   2  -9  117.89   14.20
   3   2  -9  144.79   17.20
   3   2  -9  148.49   32.80
  -3  -2   9  143.09   20.00
  -3  -2   9  164.88   19.00
   2   2  -9  784.72   70.39
   2   2  -9  906.51   78.79
   2   2  -9  729.43   70.89
  -2  -2   9  996.10   78.99
  -2  -2   9  779.12   71.79
   1   2  -9   81.69   13.90
   1   2  -9   70.19   22.20
   1   2  -9   89.39   11.50
   1   2  -9   92.99   13.10
  -1  -2   9   99.29   10.90
  -1  -2   9   92.69   19.40
   0   2  -9  365.46   43.00
   0   2  -9  434.06   37.50
   0  -2   9  413.86   39.60
   0  -2   9  405.86   36.00
  -1   2  -9 1985.50  155.48
   1  -2   9 1922.01  155.08
   1  -2   9 1647.44  158.98
  -2   2  -9  127.39   15.80
   2  -2   9  131.99   15.50
   2  -2   9  114.69   28.20
  -3   2  -9    1.90    8.70
   3  -2   9   14.30   11.20
   4  -2   9  317.47   33.60
   5  -2   9    2.40   15.60
   5   1  -9   25.90   31.40
   4   1  -9  518.15   61.39
   3   1  -9    6.20   20.80
  -3  -1   9   19.80   10.10
   2   1  -9   72.99   13.20
   2   1  -9   89.39   20.70
  -2  -1   9  114.59   21.30
  -2  -1   9   85.59   12.80
   1   1  -9 3342.47  284.87
   1   1  -9 3371.16  284.57
   1   1  -9 3640.34  288.27
  -1  -1   9 3781.12  288.47
  -1  -1   9 3141.29  284.47
  -1  -1   9 3278.97  284.87
   0   1  -9 2855.51  251.97
   0   1  -9 3003.60  254.67
   0   1  -9 3051.09  252.27
   0  -1   9 3162.08  254.47
   0  -1   9 3057.79  251.97
  -1   1  -9  611.04   52.19
   1  -1   9  570.24   54.89
   1  -1   9  599.94   51.39
  -2   1  -9   31.80    8.70
  -2   1  -9   31.30   10.50
   2  -1   9   39.50   10.10
   2  -1   9   38.00    9.80
  -3   1  -9   76.19   12.30
  -3   1  -9  119.89   15.10
   3  -1   9  116.09   14.80
   3  -1   9   98.19   12.50
   3  -1   9  116.79   14.40
  -4   1  -9   18.00   13.10
   4  -1   9   22.10   12.30
  -5   1  -9   20.60   17.40
   5  -1   9    7.80   13.40
   6  -1   9   -9.10   15.40
   6   0  -9  -14.20   32.40
   5   0  -9   -0.60   26.60
   5   0  -9   30.30   19.20
   4   0  -9  193.08   31.90
   3   0  -9   45.30   18.40
   2   0  -9  171.18   24.80
   2   0  -9  186.38   19.20
   2   0  -9  197.98   19.30
   1   0  -9 1224.38  103.59
   1   0  -9 1267.87  102.39
   1   0  -9 1253.57  102.09
   1   0  -9 1260.07  101.79
  -1   0   9 1086.99  103.99
   0   0  -9  655.03   59.69
   0   0  -9  670.33   58.99
   0   0   9  696.93   58.99
   0   0   9  730.53   60.49
  -1   0  -9  352.46   33.70
   1   0   9  378.46   33.40
  -2   0  -9  323.37   31.40
  -2   0  -9  330.57   30.50
   2   0   9  348.37   31.00
   2   0   9  321.97   31.00
  -3   0  -9   15.90    9.00
  -3   0  -9    7.00   11.60
   3   0   9    3.60    9.30
   3   0   9   -2.70    8.60
   3   0   9    2.50    9.10
  -4   0  -9   -9.10   13.80
   4   0   9    1.90   11.10
  -5   0  -9    8.30   17.80
   5   0   9    8.60   14.00
  -6   0  -9   18.20   20.00
   6   0   9    9.80   15.10
   6  -1  -9  -70.69   25.70
   5  -1  -9   52.79   26.20
   5  -1  -9  -42.00   21.60
   4  -1  -9  135.49   25.40
   4  -1  -9  134.49   26.80
   3  -1  -9   75.29   11.00
   3  -1  -9   32.40   16.90
   2  -1  -9  252.47   27.10
   1  -1  -9  297.27   25.90
   1  -1  -9  272.17   25.80
  -1   1   9  278.07   25.20
   0  -1  -9 1866.51  161.88
   0  -1  -9 1931.21  162.28
   0  -1  -9 2026.50  162.28
   0   1   9 1918.11  161.78
  -1  -1  -9  432.16   40.80
   1   1   9  468.95   40.00
  -2  -1  -9   39.00   12.60
  -2  -1  -9   36.60   11.00
  -2  -1  -9   71.89   12.70
   2   1   9   66.09    9.90
  -3  -1  -9   49.90   12.60
  -3  -1  -9   77.49   12.50
  -3  -1  -9   44.20   13.30
   3   1   9   60.89   10.90
  -4  -1  -9   -2.20   14.30
  -4  -1  -9   22.50   12.40
   4   1   9   16.10   10.30
  -5  -1  -9   81.39   19.30
   5   1   9   56.49   13.90
   5  -2  -9   27.70   29.30
   5  -2  -9    5.10   25.40
   4  -2  -9   11.00   22.00
   3  -2  -9  114.79   22.80
   2  -2  -9  139.39   18.60
   2  -2  -9  116.09   12.10
   2  -2  -9   79.89   13.90
   2  -2  -9  119.79   12.30
   1  -2  -9   43.00    9.20
   1  -2  -9   46.30    9.70
   1  -2  -9   45.10   13.80
  -1   2   9   61.49    8.80
   0  -2  -9  203.98   22.20
   0  -2  -9  248.88   24.00
   0   2   9  157.48   25.20
   0   2   9  235.88   20.90
   0   2   9  235.98   21.80
  -1  -2  -9  138.69   16.10
   1   2   9  106.59   22.20
   1   2   9  141.09   15.10
  -2  -2  -9   11.10   11.70
  -2  -2  -9   13.50   11.60
   2   2   9   13.50    8.80
  -3  -2  -9  979.20   75.09
  -3  -2  -9  871.71   73.79
  -3  -2  -9  742.23   74.39
   3   2   9  799.52   72.69
  -4  -2  -9    7.90   15.50
  -4  -2  -9    6.00   14.70
   4   2   9   15.80   10.90
   4   2   9   28.00   36.30
  -5  -2  -9  -32.70   15.40
  -5  -2  -9    2.90   16.70
   5   2   9   20.90   12.30
   5  -3  -9   71.29   13.50
   5  -3  -9   84.09   38.00
   4  -3  -9   22.70   27.40
   4  -3  -9   -1.20   11.40
   3  -3  -9  269.77   33.80
   3  -3  -9  265.87   25.30
   3  -3  -9  214.38   30.20
   2  -3  -9 1253.67   99.59
   2  -3  -9 1295.07   98.49
   2  -3  -9 1028.90   98.49
   2  -3  -9 1085.69  102.19
  -2   3   9 1170.28   97.59
   1  -3  -9  962.90   81.39
   1  -3  -9  907.21   84.59
  -1   3   9  928.11   83.59
  -1   3   9 1001.20   80.99
   0  -3  -9   20.10   15.20
   0  -3  -9   25.00   11.00
   0   3   9   37.40   10.10
   0   3   9   52.99   21.90
  -1  -3  -9   67.79   14.30
  -1  -3  -9   87.39   13.50
   1   3   9   62.59    9.30
   1   3   9   52.89   26.20
   1   3   9   60.79   11.60
  -2  -3  -9   71.39   15.20
  -2  -3  -9   69.89   16.00
   2   3   9   58.19   28.40
   2   3   9   77.69   12.70
  -3  -3  -9  299.37   32.40
  -3  -3  -9  252.67   31.60
  -3  -3  -9  360.76   32.10
   3   3   9  253.97   43.50
   3   3   9  270.97   29.20
  -4  -3  -9   -3.40   17.20
  -4  -3  -9  -28.90   16.00
   4   3   9  -11.30   38.00
   4   3   9    8.10   12.20
  -5  -3  -9   -0.40   17.40
   5   3   9   -9.20   12.70
   5  -4  -9   96.29   18.70
   4  -4  -9   45.20   15.50
   4  -4  -9   67.19   33.70
   3  -4  -9    7.80   28.90
   3  -4  -9    7.40   12.30
   2  -4  -9  142.99   18.30
   2  -4  -9  145.09   27.20
   2  -4  -9  123.79   18.80
  -2   4   9  152.88   17.00
   1  -4  -9  137.49   25.00
   1  -4  -9   96.89   18.40
   1  -4  -9  139.69   17.70
  -1   4   9  145.09   30.90
  -1   4   9  192.68   17.60
   0  -4  -9  305.77   32.40
   0  -4  -9  262.67   31.10
   0   4   9  350.16   46.80
   0   4   9  320.17   31.30
  -1  -4  -9  752.22   65.89
  -1  -4  -9  716.33   67.49
   1   4   9  706.73   65.39
   1   4   9  817.92   86.89
  -2  -4  -9   32.20   17.50
  -2  -4  -9   26.30   15.10
   2   4   9   39.80   28.60
   2   4   9   40.40   12.80
  -3  -4  -9   30.00   18.70
  -3  -4  -9    9.90   18.70
   3   4   9    8.90   12.30
   3   4   9    6.70   46.60
  -4  -4  -9   -3.90   17.70
  -4  -4  -9   18.90   22.00
   4   4   9    2.20   44.20
   4   4   9   26.80   15.10
   4  -5  -9   64.19   20.30
   3  -5  -9   39.60   30.20
   3  -5  -9   13.80   16.80
   2  -5  -9   23.80   29.20
   2  -5  -9   13.10   15.90
   1  -5  -9  180.08   25.70
  -1   5   9  198.48   25.90
  -1   5   9  365.06   63.69
   0  -5  -9   42.30   20.30
   0  -5  -9   26.60   15.30
   0   5   9  -87.99   40.00
   0   5   9   37.10   13.50
  -1  -5  -9   70.39   18.30
  -1  -5  -9   53.99   18.70
   1   5   9   76.19   16.90
  -2  -5  -9   30.70   22.30
  -2  -5  -9   15.10   17.80
   2   5   9   32.10   15.70
   2   5   9   30.80   44.10
  -3  -5  -9    7.00   20.00
   3   5   9   13.90   49.30
   3   5   9  -20.60   14.10
   3  -6  -9   22.40   22.40
   3  -6  -9   42.30   43.30
   2  -6  -9   28.30   21.20
   1  -6  -9   26.00   18.60
   0  -6  -9   36.60   19.70
   0   6   9   99.39   19.80
  -1  -6  -9   49.30   26.90
  -1  -6  -9   42.00   23.00
   1   6   9   49.70   20.90
  -2  -6  -9   42.30   26.10
   2   6   9    5.00   19.40
   1  -7  -9  -18.10   22.10
   0  -7  -9   14.70   22.60
   0   7   9   53.29   23.80
   1   7 -10   23.70   22.20
   0   7 -10   30.10   24.60
   0  -7  10   19.30   16.10
  -1   7 -10   25.00   28.10
   1  -7  10  -20.10   15.70
   2  -7  10   10.10   18.10
   3   6 -10  -14.40   15.90
   2   6 -10   55.79   18.90
   1   6 -10    1.30   17.00
   1   6 -10  -24.40   51.89
  -1  -6  10    5.00   13.40
   0   6 -10  210.18   29.80
   0  -6  10  170.98   23.30
  -1   6 -10   94.69   66.99
  -1   6 -10   60.69   24.30
   1  -6  10   64.79   16.70
   2  -6  10   42.90   17.20
   3  -6  10   31.90   19.10
   4   5 -10   -3.80   13.40
   3   5 -10  152.18   55.69
   3   5 -10   52.39   17.60
  -3  -5  10  117.79   22.00
   2   5 -10   11.90   13.30
   2   5 -10    8.60   41.20
   1   5 -10  270.97   68.39
   1   5 -10  202.58   27.00
  -1  -5  10  251.07   25.40
   0   5 -10   58.59   48.70
   0   5 -10   63.29   17.20
   0  -5  10   65.59   14.30
  -1   5 -10  307.47   31.40
  -1   5 -10  243.28   58.59
   1  -5  10  241.08   27.90
  -2   5 -10   91.69   20.50
   2  -5  10   84.09   17.10
   3  -5  10  169.08   25.40
   4  -5  10    8.10   18.80
   4   4 -10   23.80   45.00
   4   4 -10   -1.70   12.50
  -4  -4  10    3.80   17.40
  -4  -4  10   12.30   16.60
   3   4 -10    0.20   11.90
   3   4 -10   -3.00   39.10
  -3  -4  10   -5.70   14.80
  -3  -4  10   -4.70   14.20
   2   4 -10  284.37   30.20
   2   4 -10  389.36   58.89
  -2  -4  10  270.67   30.30
  -2  -4  10  256.37   27.90
   1   4 -10  187.58   44.60
   1   4 -10  149.99   21.50
  -1  -4  10  171.78   19.10
   0   4 -10   31.10   38.10
   0   4 -10    4.40   12.60
   0  -4  10   12.40    9.80
  -1   4 -10   25.20   31.80
  -1   4 -10   17.40   13.50
   1  -4  10   29.30   11.60
  -2   4 -10  210.58   24.40
   2  -4  10  194.98   23.00
   3  -4  10   43.80   15.20
   4  -4  10   -6.70   17.90
   5  -4  10   -6.90   20.80
   5   3 -10   62.59   17.80
   4   3 -10    2.00   11.90
   4   3 -10   11.50   34.80
  -4  -3  10   29.20   15.40
  -4  -3  10   22.90   14.30
   3   3 -10  -13.70   29.80
   3   3 -10  -10.80   10.90
  -3  -3  10   18.40   11.90
  -3  -3  10   -9.50   13.20
   2   3 -10  508.05   44.40
   2   3 -10  575.64   60.29
  -2  -3  10  457.15   44.90
  -2  -3  10  433.56   42.00
   1   3 -10  869.21   85.69
   1   3 -10  889.31   75.49
  -1  -3  10  856.01   74.39
   0   3 -10  930.71   75.39
   0   3 -10  782.92   84.99
   0   3 -10  875.41   75.39
   0  -3  10  934.21   74.79
   0  -3  10  825.72   78.89
  -1   3 -10  789.22   80.09
  -1   3 -10  862.61   68.29
   1  -3  10  859.91   67.39
   1  -3  10  637.54   71.39
  -2   3 -10  288.47   29.50
   2  -3  10  272.07   27.70
  -3   3 -10   12.00   10.90
   3  -3  10   23.60   12.80
   4  -3  10    8.10   14.30
   5  -3  10   46.70   19.70
   5   2 -10   17.70   34.40
   4   2 -10  -24.70   29.20
  -4  -2  10   -2.80   11.30
   3   2 -10  300.57   27.70
   3   2 -10  305.57   42.40
   3   2 -10  226.48   23.70
  -3  -2  10  234.98   26.60
   2   2 -10   16.10   22.10
   2   2 -10    0.60    9.30
   2   2 -10    2.50    6.60
  -2  -2  10    2.00   15.50
  -2  -2  10   -4.70    9.30
   1   2 -10 1270.67  103.69
   1   2 -10 1121.99  102.69
   1   2 -10 1173.08  102.89
  -1  -2  10 1159.58  102.09
  -1  -2  10 1181.78  102.79
  -1  -2  10 1412.56  107.89
   0   2 -10 1214.48  114.99
   0   2 -10 1361.96  109.39
   0  -2  10 1294.97  112.19
   0  -2  10 1284.47  108.69
   0  -2  10 1300.57  108.89
  -1   2 -10  249.68   25.50
   1  -2  10  222.58   30.50
   1  -2  10  225.98   23.70
  -2   2 -10  660.93   54.09
   2  -2  10  505.45   59.19
   2  -2  10  678.13   53.99
  -3   2 -10   12.90   10.00
   3  -2  10   20.10   11.70
   4  -2  10  228.48   25.90
   5  -2  10   22.80   16.50
   5   1 -10   28.90   32.40
   4   1 -10   15.90   25.10
   3   1 -10  -17.90   19.30
  -3  -1  10    3.40    9.60
   2   1 -10  476.65   48.50
   2   1 -10  454.95   43.10
  -2  -1  10  425.86   42.60
  -2  -1  10  536.75   48.60
   1   1 -10   47.40   10.30
   1   1 -10   40.20    7.50
   1   1 -10   33.40   15.00
  -1  -1  10   31.60    8.80
  -1  -1  10   54.39    6.70
  -1  -1  10   55.79   15.00
   0   1 -10 1293.87  113.69
   0   1 -10 1261.37  110.59
   0  -1  10 1300.97  110.09
   0  -1  10 1384.16  113.09
  -1   1 -10  799.92   71.19
   1  -1  10  868.61   70.79
   1  -1  10  813.72   75.09
  -2   1 -10 1527.05  125.79
   2  -1  10 1457.25  125.69
  -3   1 -10   28.10    9.70
  -3   1 -10    1.90   11.40
   3  -1  10   26.70    8.50
   3  -1  10   21.00   10.70
  -4   1 -10    0.60   12.60
   4  -1  10   -7.40   11.80
  -5   1 -10   85.29   21.50
   5  -1  10  101.59   17.70
   6  -1  10    8.50   15.70
   6   0 -10    2.20   32.40
   5   0 -10   -1.20   26.60
   4   0 -10   20.20   20.30
   3   0 -10  436.26   45.70
   2   0 -10  111.79   12.60
   2   0 -10   84.49   18.00
   2   0 -10   72.39   12.10
   1   0 -10    5.30    8.60
   1   0 -10   11.90    5.40
   1   0 -10   13.00    8.10
   1   0 -10    6.70    7.20
  -1   0  10    2.00    2.50
  -1   0  10   12.50   11.00
   0   0 -10   27.70   10.00
   0   0 -10   22.90    7.80
   0   0  10   20.80    9.10
   0   0  10   27.70    7.40
  -1   0 -10  794.12   69.29
   1   0  10  813.82   68.89
  -2   0 -10  306.37   29.30
   2   0  10  288.77   28.70
  -3   0 -10   13.30   10.40
  -3   0 -10    0.30   12.10
   3   0  10   14.80    9.80
  -4   0 -10  -18.10   14.00
   4   0  10    9.90   11.60
  -5   0 -10    7.30   19.50
   5   0  10    2.90   14.20
  -6   0 -10    0.80   20.60
   6   0  10    2.50   14.80
   6  -1 -10    7.10   31.70
   5  -1 -10   46.80   24.90
   5  -1 -10  -15.30   23.40
   4  -1 -10    7.50   19.60
   4  -1 -10   17.50   19.10
   3  -1 -10   24.60   16.00
   3  -1 -10   41.50   10.90
   2  -1 -10   83.09   15.00
   1  -1 -10 1594.84  139.09
   1  -1 -10 1712.23  139.19
  -1   1  10 1683.13  138.89
   0  -1 -10 2678.13  233.78
   0   1  10 2925.11  233.68
  -1  -1 -10  826.32   68.99
   1   1  10  775.42   68.19
  -2  -1 -10  253.17   26.70
  -2  -1 -10  264.07   28.40
  -2  -1 -10  249.08   27.50
   2   1  10  267.17   25.40
  -3  -1 -10   20.30   12.40
  -3  -1 -10   25.40   11.50
  -3  -1 -10   22.70   11.30
   3   1  10   20.40    9.40
  -4  -1 -10   -4.20   15.10
  -4  -1 -10    5.60   12.10
   4   1  10  -10.50   10.70
  -5  -1 -10   16.60   20.00
   5   1  10   -3.70   12.80
   5  -2 -10   53.49   34.90
   4  -2 -10  109.19   29.00
   4  -2 -10  116.09   26.00
   3  -2 -10  338.27   37.90
   2  -2 -10  126.59   16.80
   2  -2 -10  182.48   16.50
   2  -2 -10  173.18   16.80
   2  -2 -10  152.68   21.60
   1  -2 -10   18.20    8.70
   1  -2 -10   38.60    9.10
   1  -2 -10   53.79   14.00
  -1   2  10   33.70    7.70
   0  -2 -10  429.86   39.50
   0  -2 -10  449.16   41.80
   0   2  10  436.86   39.20
  -1  -2 -10  239.08   25.00
   1   2  10  194.88   30.20
   1   2  10  276.77   24.20
  -2  -2 -10  138.49   17.40
  -2  -2 -10  110.79   18.20
   2   2  10  124.19   15.80
  -3  -2 -10   21.40   14.40
  -3  -2 -10   11.80   12.90
  -3  -2 -10   19.50   13.70
   3   2  10   20.90   10.00
  -4  -2 -10   17.90   16.10
  -4  -2 -10   -1.50   14.60
   4   2  10   -2.20   35.40
   4   2  10    6.50   11.10
  -5  -2 -10   -7.20   16.60
  -5  -2 -10    0.40   17.20
   5   2  10   17.70   12.40
   5  -3 -10   -1.00   10.60
   5  -3 -10   10.20   34.20
   4  -3 -10   22.20   26.50
   4  -3 -10    7.70   11.50
   3  -3 -10   13.40   10.00
   3  -3 -10   33.20   21.20
   3  -3 -10   32.00   14.70
   2  -3 -10   12.80    9.70
   2  -3 -10   18.50    8.90
   2  -3 -10   32.70   19.60
   1  -3 -10  328.57   35.70
   1  -3 -10  314.47   31.60
  -1   3  10  353.96   31.00
  -1   3  10  327.07   33.90
   0  -3 -10  339.37   34.20
   0  -3 -10  299.67   30.50
   0   3  10  323.57   41.90
   0   3  10  296.37   30.20
  -1  -3 -10  233.28   23.30
  -1  -3 -10  194.08   24.40
   1   3  10  212.88   34.60
   1   3  10  207.08   20.80
   1   3  10  211.38   22.20
  -2  -3 -10   24.40   13.10
  -2  -3 -10   24.40   13.50
   2   3  10    9.50   22.40
   2   3  10   11.90    9.80
  -3  -3 -10  146.39   20.30
  -3  -3 -10   66.29   19.00
  -3  -3 -10   76.49   19.40
   3   3  10   92.39   15.30
   3   3  10   98.89   34.20
  -4  -3 -10   31.60   18.30
  -4  -3 -10   87.69   21.00
   4   3  10   78.29   15.30
   4   3  10   90.19   40.00
  -5  -3 -10    0.90   18.50
   5   3  10    9.30   12.60
   4  -4 -10   44.80   36.10
   4  -4 -10   49.99   16.20
   3  -4 -10   17.20   24.60
   3  -4 -10   11.70   12.70
   2  -4 -10   97.59   30.00
   2  -4 -10   93.39   17.40
  -2   4  10  126.09   15.20
   1  -4 -10  650.93   69.29
   1  -4 -10  763.22   64.19
  -1   4  10  786.32   75.89
  -1   4  10  683.33   63.19
   0  -4 -10  394.16   40.20
   0  -4 -10  399.86   42.00
   0   4  10  425.76   39.40
   0   4  10  436.76   55.89
  -1  -4 -10  123.59   21.60
  -1  -4 -10  175.08   20.60
   1   4  10  151.88   40.30
   1   4  10  137.79   18.70
  -2  -4 -10   21.20   15.40
  -2  -4 -10   18.10   15.20
   2   4  10   26.00   36.30
   2   4  10    9.80   12.00
  -3  -4 -10  -29.90   18.00
  -3  -4 -10    8.60   17.00
   3   4  10   -2.60   12.20
   3   4  10  -18.80   38.20
  -4  -4 -10   60.09   21.60
  -4  -4 -10  128.49   26.10
   4   4  10  112.79   19.30
   4  -5 -10   97.89   23.20
   4  -5 -10   80.09   45.90
   3  -5 -10   23.20   17.30
   3  -5 -10  -11.20   30.30
   2  -5 -10   78.79   33.20
   2  -5 -10   97.09   18.80
   1  -5 -10  267.67   36.90
   1  -5 -10  192.48   26.80
  -1   5  10  231.88   26.90
  -1   5  10  262.97   51.39
   0  -5 -10  161.68   21.30
   0  -5 -10  156.48   24.70
   0   5  10  109.99   21.50
   0   5  10   60.69   47.80
  -1  -5 -10  132.39   23.90
  -1  -5 -10  137.79   21.80
   1   5  10  100.09   19.60
  -2  -5 -10   92.39   21.00
  -2  -5 -10   76.49   24.20
   2   5  10   71.69   18.20
  -3  -5 -10   33.70   24.50
   3   5  10   18.40   16.10
   3   5  10   27.50   49.10
   3  -6 -10  122.79   43.70
   3  -6 -10  127.69   27.30
   2  -6 -10   22.40   21.40
   1  -6 -10    9.10   18.20
   0  -6 -10   46.80   20.40
   0   6  10   76.59   19.30
  -1  -6 -10   -0.90   22.10
   1   6  10   48.40   19.30
  -2  -6 -10   10.20   26.10
   2   6  10    5.80   20.00
   1  -7 -10   14.50   22.70
   0  -7 -10   10.20   23.50
   1   7 -11   -0.50   22.60
   0   7 -11   -1.90   27.90
   0  -7  11   17.40   15.90
  -1   7 -11   62.49   27.90
   1  -7  11   42.80   17.60
   2  -7  11    5.80   17.80
   3   6 -11   53.89   18.70
   2   6 -11    0.20   17.30
   1   6 -11   26.10   19.90
  -1  -6  11   37.40   14.60
   0   6 -11  190.18   28.70
   0  -6  11  160.38   22.30
  -1   6 -11   52.39   22.10
   1  -6  11   39.40   15.50
   2  -6  11   20.90   17.00
   3  -6  11    2.50   18.00
   4   5 -11    4.10   14.30
   3   5 -11   64.29   39.90
   3   5 -11    0.90   14.00
  -3  -5  11   -2.00   16.90
   2   5 -11   20.60   14.30
   2   5 -11   37.60   44.70
   1   5 -11  107.39   49.99
   1   5 -11  145.19   21.40
  -1  -5  11  171.08   19.90
   0   5 -11   52.59   52.19
   0   5 -11   15.60   17.10
   0  -5  11   19.30   12.10
  -1   5 -11  130.39   22.00
  -1   5 -11  145.89   51.39
   1  -5  11  108.89   17.90
  -2   5 -11   16.00   18.10
   2  -5  11   38.70   16.00
   3  -5  11   52.69   18.00
   4  -5  11  -24.80   19.50
   4   4 -11   -1.00   46.90
   4   4 -11   -4.60   13.00
  -4  -4  11    7.90   15.80
   3   4 -11   32.20   40.20
   3   4 -11   14.60   13.10
  -3  -4  11   35.90   14.80
   2   4 -11    3.20   12.80
   2   4 -11  -64.59   32.50
  -2  -4  11    6.80   13.10
  -2  -4  11   -5.70    9.20
   1   4 -11  294.67   30.00
   1   4 -11  347.67   52.49
  -1  -4  11  252.97   28.30
   0   4 -11  785.22   89.99
   0   4 -11  819.02   71.39
   0  -4  11  796.62   69.59
  -1   4 -11  360.86   37.70
  -1   4 -11  380.46   57.99
   1  -4  11  362.76   35.60
  -2   4 -11  429.06   41.30
   2  -4  11  398.86   40.30
   3  -4  11   10.00   14.80
   3  -4  11   15.10   14.60
   4  -4  11   94.69   21.30
   5  -4  11   11.20   21.90
   5   3 -11    7.00   14.40
   4   3 -11    8.10   13.00
   4   3 -11   58.09   36.80
  -4  -3  11   53.29   15.50
   3   3 -11   60.19   14.90
   3   3 -11   62.29   35.30
  -3  -3  11   93.69   15.80
   2   3 -11   10.30   12.00
   2   3 -11   29.50   27.50
  -2  -3  11   20.30    7.40
  -2  -3  11   -0.20   11.00
   1   3 -11   66.09   26.50
   1   3 -11   45.80   11.80
  -1  -3  11   39.20    8.80
   0   3 -11  342.07   33.90
   0   3 -11  339.57   48.90
   0   3 -11  341.57   33.60
   0  -3  11  381.06   32.50
   0  -3  11  330.67   36.80
  -1   3 -11  131.69   29.90
  -1   3 -11  186.78   19.70
   1  -3  11  136.29   17.30
   1  -3  11  127.49   23.80
   1  -3  11  163.68   17.80
  -2   3 -11   68.89   14.80
   2  -3  11   79.59   13.70
  -3   3 -11  138.79   18.40
   3  -3  11  134.09   18.90
   4  -3  11   15.00   15.10
   5  -3  11    7.70   18.40
   5   2 -11   23.30   36.20
   4   2 -11    3.10   29.00
  -4  -2  11   22.40   11.80
   3   2 -11   -1.00   10.90
   3   2 -11   -1.30    6.20
   3   2 -11   17.10   25.30
  -3  -2  11    5.30   10.60
   2   2 -11  289.47   30.20
   2   2 -11  269.77   28.70
   2   2 -11  361.06   43.40
  -2  -2  11  296.97   31.10
  -2  -2  11  401.16   40.30
   1   2 -11 2649.93  225.68
   1   2 -11 2917.21  227.28
   1   2 -11 2469.55  232.18
  -1  -2  11 2673.13  225.28
  -1  -2  11 2799.92  225.68
   0   2 -11 1096.69   95.09
   0   2 -11 1106.59  100.49
   0  -2  11 1106.19   98.19
   0  -2  11 1159.38   94.59
  -1   2 -11 1176.18   96.29
   1  -2  11 1130.49   95.79
   1  -2  11 1075.79  103.09
  -2   2 -11  241.98   22.90
   2  -2  11  161.98   31.40
   2  -2  11  232.18   22.70
  -3   2 -11  111.59   15.40
   3  -2  11  101.49   16.60
   4  -2  11   37.80   14.70
   5  -2  11   33.20   17.50
   5   1 -11  202.48   40.60
   4   1 -11  329.37   45.90
   3   1 -11    5.00   20.50
   2   1 -11  783.72   73.99
   2   1 -11  869.31   74.69
   2   1 -11  887.91   75.79
   2   1 -11  964.00   81.49
  -2  -1  11  821.72   75.29
  -2  -1  11 1016.40   82.59
   1   1 -11   60.29   10.60
   1   1 -11   33.10    7.30
   1   1 -11   47.90   16.40
  -1  -1  11   31.20    8.80
  -1  -1  11   39.20    6.50
  -1  -1  11   54.09   15.40
   0   1 -11 1810.12  160.48
   0   1 -11 1788.42  157.48
   0  -1  11 2002.20  160.28
   0  -1  11 1904.81  157.08
  -1   1 -11 1061.79   92.19
   1  -1  11 1072.69   95.69
   1  -1  11 1110.69   91.79
  -2   1 -11  540.75   48.20
   2  -1  11  535.25   47.80
  -3   1 -11   49.60   11.60
  -3   1 -11   37.00   12.60
   3  -1  11   19.30    8.00
   3  -1  11   31.70   11.50
  -4   1 -11   23.50   13.20
   4  -1  11    3.80   12.50
  -5   1 -11   63.29   20.10
   5  -1  11   75.79   16.40
   6   0 -11  -22.40   30.20
   6   0 -11   -7.30   25.90
   5   0 -11  -32.80   22.30
   4   0 -11   -9.80   18.60
   3   0 -11   31.80   17.30
   2   0 -11  633.04   56.39
   2   0 -11  684.13   56.19
   2   0 -11  619.84   59.49
   1   0 -11  526.75   45.00
   1   0 -11  573.04   45.90
   1   0 -11  565.04   47.70
   1   0 -11  539.95   45.80
  -1   0  11  466.55   48.00
  -1   0  11  503.75   44.70
   0   0 -11  186.58   19.10
   0   0 -11  188.68   20.00
   0   0  11  191.38   19.50
   0   0  11  191.58   21.40
  -1   0 -11 1753.32  154.78
   1   0  11 1934.21  154.68
  -2   0 -11  298.47   28.20
   2   0  11  265.77   27.80
  -3   0 -11  250.47   27.80
  -3   0 -11  274.37   27.30
   3   0  11  265.37   27.40
  -4   0 -11   -4.90   14.30
   4   0  11   16.30   12.00
  -5   0 -11   12.10   19.50
   5   0  11   11.90   14.60
   6  -1 -11  -11.80   32.40
   5  -1 -11   -3.80   24.80
   5  -1 -11   14.50   25.20
   4  -1 -11  -24.40   19.50
   4  -1 -11   18.00   19.80
   3  -1 -11    5.50   15.20
   2  -1 -11  210.28   24.60
   1  -1 -11  410.86   35.20
   1  -1 -11  377.96   35.40
  -1   1  11  404.26   34.80
   0  -1 -11   60.39   11.30
   0   1  11   74.09   10.40
  -1  -1 -11  541.95   47.20
   1   1  11  507.95   46.10
  -2  -1 -11  234.58   23.10
  -2  -1 -11  170.18   20.90
   2   1  11  223.28   21.00
  -3  -1 -11   69.89   13.60
  -3  -1 -11   45.80   14.70
  -3  -1 -11   43.30   12.30
   3   1  11   54.59   11.40
  -4  -1 -11   19.90   15.60
  -4  -1 -11   11.20   12.70
   4   1  11   -7.00   10.20
  -5  -1 -11  -21.20   19.40
   5   1  11    4.80   13.80
   5  -2 -11   85.29   34.20
   4  -2 -11   13.90   18.50
   4  -2 -11   10.50   26.90
   3  -2 -11  153.18   23.80
   3  -2 -11  101.99   19.20
   2  -2 -11  351.36   40.80
   2  -2 -11  378.36   34.40
   2  -2 -11  399.16   34.20
   1  -2 -11  328.57   31.40
   1  -2 -11  400.46   33.90
   1  -2 -11  339.87   35.50
  -1   2  11  322.37   30.80
   0  -2 -11 1136.29  102.19
   0  -2 -11 1212.18  103.69
   0   2  11 1276.07  102.19
  -1  -2 -11  597.74   54.09
   1   2  11  621.44   53.59
  -2  -2 -11  303.37   27.20
  -2  -2 -11  228.58   27.40
   2   2  11  233.78   26.20
  -3  -2 -11  212.78   30.30
  -3  -2 -11  363.86   30.60
  -3  -2 -11  277.57   29.00
   3   2  11  257.07   28.10
  -4  -2 -11  -19.60   14.50
  -4  -2 -11    3.30   16.00
   4   2  11    6.30   35.70
   4   2  11    1.70   10.60
  -5  -2 -11   -5.10   17.10
  -5  -2 -11   -4.90   17.20
   5   2  11  -18.50   11.90
   5  -3 -11   29.80   12.20
   4  -3 -11   -5.10   11.70
   4  -3 -11   15.40   28.90
   3  -3 -11   16.50   10.70
   3  -3 -11    4.10   21.10
   2  -3 -11  428.26   47.70
   2  -3 -11  519.45   41.50
  -2   3  11  421.26   39.90
   1  -3 -11  158.48   23.90
   1  -3 -11  154.68   18.70
  -1   3  11  165.98   20.90
  -1   3  11  186.58   18.30
   0  -3 -11  101.99   15.10
   0  -3 -11   99.19   20.20
   0   3  11  111.19   14.00
   0   3  11   80.69   23.50
  -1  -3 -11  144.79   19.80
  -1  -3 -11  163.98   18.40
   1   3  11  133.89   15.60
   1   3  11  136.89   16.80
   1   3  11  113.89   26.90
  -2  -3 -11    8.90   13.30
  -2  -3 -11   12.60   13.00
   2   3  11   23.00   10.60
   2   3  11   11.00   22.40
  -3  -3 -11   14.70   16.00
  -3  -3 -11   -3.70   16.90
  -3  -3 -11   -2.10   15.10
   3   3  11   -4.10   11.50
   3   3  11  -15.40   27.30
  -4  -3 -11   12.30   17.90
  -4  -3 -11    1.90   16.20
   4   3  11   13.80   12.80
   4   3  11   12.40   36.60
  -5  -3 -11   -0.60   18.70
   5   3  11    1.80   13.30
   5  -4 -11   48.90   17.60
   4  -4 -11   76.59   38.00
   4  -4 -11   64.59   17.60
   3  -4 -11   80.99   28.10
   3  -4 -11   95.89   17.80
   2  -4 -11  161.58   21.10
   2  -4 -11  168.98   33.90
  -2   4  11  183.48   20.20
   1  -4 -11  469.75   44.00
   1  -4 -11  411.76   50.19
  -1   4  11  509.65   43.50
  -1   4  11  475.65   55.89
   0  -4 -11  515.85   48.60
   0  -4 -11  569.04   57.79
   0  -4 -11  502.65   50.99
   0   4  11  535.75   64.69
   0   4  11  533.95   48.80
  -1  -4 -11    3.00   13.60
  -1  -4 -11   30.20   15.50
   1   4  11    9.60   29.60
   1   4  11    1.10   11.70
  -2  -4 -11   59.99   20.10
  -2  -4 -11   99.39   18.80
   2   4  11   79.19   43.10
   2   4  11   92.19   15.80
  -3  -4 -11   -2.60   17.50
   3   4  11    1.10   13.60
   3   4  11  -14.60   32.90
  -4  -4 -11   -5.90   18.20
  -4  -4 -11   18.90   21.80
   4   4  11    1.20   14.90
   4  -5 -11   51.29   21.00
   4  -5 -11   60.39   44.80
   3  -5 -11    7.50   19.00
   3  -5 -11   43.90   34.60
   2  -5 -11  103.39   21.40
   2  -5 -11   93.69   34.50
   1  -5 -11   40.60   30.80
   1  -5 -11   44.40   16.30
  -1   5  11   60.79   40.20
  -1   5  11   67.89   13.90
   0  -5 -11  224.98   27.50
   0  -5 -11  198.48   26.30
   0   5  11  184.08   49.40
   0   5  11  216.78   25.00
  -1  -5 -11   29.60   20.40
  -1  -5 -11   -8.40   16.70
   1   5  11   22.00   16.00
  -2  -5 -11   51.59   23.90
  -2  -5 -11   30.20   19.30
   2   5  11   34.10   45.80
   2   5  11   39.00   16.40
  -3  -5 -11   82.29   24.00
   3   5  11    6.30   16.30
   3   5  11  -44.30   46.30
   3  -6 -11   29.30   21.60
   3  -6 -11   32.20   40.10
   2  -6 -11   33.10   19.00
   1  -6 -11  207.98   32.40
   0  -6 -11  105.49   24.00
   0   6  11  100.19   20.50
  -1  -6 -11  101.29   25.50
   1   6  11  107.79   23.70
   2   6  11  -10.70   19.20
   1   7 -12   52.79   24.90
   0   7 -12  -24.10   26.00
   0  -7  12   16.80   15.80
  -1   7 -12  113.99   28.80
   1  -7  12   58.29   19.10
   2  -7  12   27.50   20.20
   3   6 -12   -1.50   15.70
   2   6 -12   22.80   16.50
   1   6 -12   83.69   21.80
  -1  -6  12   62.29   15.70
   0   6 -12   31.10   68.19
   0   6 -12   36.70   21.10
   0  -6  12   49.99   15.40
  -1   6 -12   28.50   20.10
   1  -6  12   -1.30   14.40
   2  -6  12  124.49   21.60
   3  -6  12   38.50   19.50
   4   5 -12   41.30   17.40
   3   5 -12   53.59   49.40
   3   5 -12   20.30   14.80
  -3  -5  12   -6.20   16.50
   2   5 -12  275.87   33.90
   2   5 -12  441.96   65.69
   1   5 -12  -10.90   50.59
   1   5 -12   27.20   15.20
  -1  -5  12   32.50   12.20
   0   5 -12   89.79   19.30
   0   5 -12  107.39   57.19
   0  -5  12   62.49   14.30
  -1   5 -12  142.19   23.70
  -1   5 -12  155.98   64.29
   1  -5  12   88.39   17.10
  -2   5 -12   34.00   19.50
   2  -5  12   36.00   15.80
   3  -5  12   40.80   18.60
   4  -5  12   40.40   22.00
   4   4 -12   27.30   14.40
  -4  -4  12    6.00   17.90
   3   4 -12   74.39   17.40
   3   4 -12  125.19   44.10
  -3  -4  12   96.59   18.30
   2   4 -12  207.78   47.10
   2   4 -12  202.18   24.90
  -2  -4  12  182.38   23.80
  -2  -4  12  213.78   21.70
   1   4 -12  155.58   19.60
   1   4 -12   99.09   37.10
  -1  -4  12  137.89   16.60
   0   4 -12  514.65   47.10
   0   4 -12  454.35   63.39
   0  -4  12  487.25   44.30
  -1   4 -12  235.08   53.49
  -1   4 -12  215.08   26.30
   1  -4  12  224.08   24.00
  -2   4 -12   94.89   17.70
   2  -4  12   78.19   16.20
   3  -4  12  -20.70   13.60
   4  -4  12   12.10   17.30
   5  -4  12  -23.10   19.90
   5   3 -12   17.90   11.80
   4   3 -12   18.00   13.70
   4   3 -12   45.40   35.80
  -4  -3  12   32.60   14.80
   3   3 -12   52.69   15.60
   3   3 -12  119.19   37.60
  -3  -3  12   77.29   15.40
   2   3 -12  103.69   31.60
   2   3 -12   86.49   16.10
  -2  -3  12   95.19   11.90
  -2  -3  12   94.19   15.70
   1   3 -12   75.89   14.70
   1   3 -12   80.99   27.30
  -1  -3  12   90.49   11.60
   0   3 -12 1560.54  128.09
   0   3 -12 1479.55  136.19
   0   3 -12 1509.95  127.79
   0  -3  12 1578.54  127.29
   0  -3  12 1417.16  131.29
  -1   3 -12  346.17   35.80
  -1   3 -12  402.36   53.09
   1  -3  12  346.77   34.50
  -2   3 -12  363.76   36.10
   2  -3  12  353.46   34.80
  -3   3 -12   73.29   15.00
   3  -3  12   48.10   14.50
   4  -3  12   44.10   16.40
   5  -3  12    8.60   17.90
   5   2 -12   19.50   34.50
   4   2 -12   11.80   28.60
  -4  -2  12    7.50   12.10
   3   2 -12   -1.90    6.50
   3   2 -12   13.70   23.80
   3   2 -12   -3.00    9.70
  -3  -2  12    8.90   10.90
   2   2 -12  326.07   34.20
   2   2 -12  434.96   47.50
   2   2 -12  327.77   32.60
  -2  -2  12  321.17   35.20
  -2  -2  12  475.85   45.00
   1   2 -12   36.80   10.00
   1   2 -12   34.30   21.50
  -1  -2  12   34.70    8.90
  -1  -2  12   21.30    6.80
  -1  -2  12   21.10   14.70
   0   2 -12  443.26   39.90
   0   2 -12  382.56   54.49
   0  -2  12  440.56   38.50
  -1   2 -12  791.32   67.39
   1  -2  12  749.62   71.79
   1  -2  12  783.22   66.79
  -2   2 -12   66.99   14.00
   2  -2  12   50.89   12.50
   2  -2  12   51.39   24.00
  -3   2 -12    9.00   11.40
   3  -2  12  -10.30   11.80
   3  -2  12    9.60    7.90
   4  -2  12   72.19   17.00
   5  -2  12   49.40   18.70
   5   1 -12   37.90   31.60
   4   1 -12    1.30   26.50
   3   1 -12  111.29   27.30
   2   1 -12  -12.70   17.20
   2   1 -12   18.60   10.10
   2   1 -12   14.50    5.60
   2   1 -12   12.20    9.20
  -2  -1  12    5.00   15.40
  -2  -1  12    4.90    8.50
   1   1 -12 4678.33  429.26
   1   1 -12 4937.31  429.56
   1   1 -12 5519.25  432.96
  -1  -1  12 5622.64  433.46
  -1  -1  12 5081.99  429.36
   0   1 -12 3314.17  276.27
   0  -1  12 3326.47  275.87
   0  -1  12 3288.47  278.77
  -1   1 -12 1261.57  106.59
   1  -1  12 1230.28  110.39
   1  -1  12 1277.47  106.19
  -2   1 -12   30.40   11.90
   2  -1  12   31.70   10.20
  -3   1 -12   19.70   12.60
  -3   1 -12    4.40   10.90
   3  -1  12   29.40   11.40
   3  -1  12   10.10    7.60
  -4   1 -12   25.80   14.40
   4  -1  12   12.80   12.70
  -5   1 -12  119.49   23.90
   5  -1  12   92.99   18.60
   6   0 -12  -24.10   42.80
   5   0 -12  -30.10   23.40
   4   0 -12   80.19   24.60
   3   0 -12  918.81   84.09
   2   0 -12   84.19   12.70
   2   0 -12   99.69   17.40
   2   0 -12   77.59   12.30
   1   0 -12 1454.55  120.89
   1   0 -12 1678.83  123.19
   1   0 -12 1414.26  120.49
   1   0 -12 1438.26  120.69
  -1   0  12 1204.58  122.59
  -1   0  12 1451.05  120.29
   0   0 -12   38.20   11.70
   0   0  12   47.60   11.10
   0   0  12   47.60    9.10
  -1   0 -12  369.26   35.70
   1   0  12  376.86   34.60
  -2   0 -12  249.88   25.30
   2   0  12  254.07   26.00
  -3   0 -12  151.38   22.20
  -3   0 -12  213.58   21.20
   3   0  12  182.08   20.50
  -4   0 -12    8.70   15.00
   4   0  12   -7.50   12.50
  -5   0 -12   27.70   20.40
   5   0  12    5.50   14.80
   5  -1 -12   -7.20   27.00
   5  -1 -12   31.90   27.10
   4  -1 -12   -3.00   20.10
   4  -1 -12   -8.40   20.30
   3  -1 -12  206.58   28.00
   2  -1 -12  162.08   20.70
   1  -1 -12  840.02   69.79
   1  -1 -12  805.22   69.89
  -1   1  12  818.52   69.49
   0  -1 -12  140.39   16.00
   0   1  12  142.19   15.20
  -1  -1 -12  390.56   36.00
   1   1  12  359.16   34.30
  -2  -1 -12  211.08   24.90
  -2  -1 -12  322.37   27.40
   2   1  12  262.47   25.90
  -3  -1 -12  -13.40   10.30
  -3  -1 -12   10.20   13.00
  -3  -1 -12    1.80   12.10
   3   1  12   17.20    9.70
  -4  -1 -12    5.20   12.60
  -4  -1 -12   -4.10   15.30
   4   1  12   23.50   11.60
  -5  -1 -12    6.50   20.50
   5   1  12    3.80   13.90
   5  -2 -12   68.19   31.30
   4  -2 -12   -0.60   25.40
   4  -2 -12   18.80   19.10
   3  -2 -12  254.17   29.50
   3  -2 -12  181.18   24.00
   2  -2 -12   80.99   18.40
   2  -2 -12   78.59   11.40
   2  -2 -12   88.09   11.80
   1  -2 -12   85.89   18.10
   1  -2 -12   92.39   12.50
  -1   2  12   94.49   11.70
   0  -2 -12  511.45   49.20
   0  -2 -12  566.24   51.19
   0   2  12  593.94   48.90
  -1  -2 -12   23.40   11.30
   1   2  12   26.10   10.00
  -2  -2 -12  158.88   19.00
  -2  -2 -12  115.99   18.30
   2   2  12  120.19   16.40
  -3  -2 -12  241.98   24.30
  -3  -2 -12  114.19   21.80
  -3  -2 -12  148.19   21.40
   3   2  12  201.48   20.20
  -4  -2 -12   13.00   16.50
  -4  -2 -12   11.80   15.60
   4   2  12    4.10   11.30
  -5  -2 -12   10.70   25.60
  -5  -2 -12   -3.00   17.10
   5   2  12   -9.40   13.30
   5  -3 -12   -3.80   11.10
   5  -3 -12  -36.60   32.30
   4  -3 -12    2.30   12.10
   4  -3 -12    1.70   31.60
   3  -3 -12   46.70   13.20
   3  -3 -12   31.90   22.60
   2  -3 -12  597.94   48.20
   2  -3 -12  445.06   53.59
  -2   3  12  517.35   46.00
   1  -3 -12  340.77   37.80
   1  -3 -12  353.86   33.10
  -1   3  12  343.37   32.50
   0  -3 -12  516.85   46.00
   0  -3 -12  536.65   51.39
   0   3  12  458.95   52.19
   0   3  12  523.65   45.80
  -1  -3 -12  155.58   18.50
  -1  -3 -12  133.39   19.00
   1   3  12  121.19   14.20
   1   3  12  127.89   31.70
   1   3  12  134.09   17.10
  -2  -3 -12  117.49   17.00
  -2  -3 -12   69.89   17.80
   2   3  12   64.49   14.00
   2   3  12   81.59   29.00
  -3  -3 -12   32.40   18.20
  -3  -3 -12   15.60   16.80
  -3  -3 -12   28.40   16.80
   3   3  12   37.90   12.60
   3   3  12   12.40   28.60
  -4  -3 -12  269.07   31.30
  -4  -3 -12  194.28   31.80
   4   3  12  301.87   54.09
   4   3  12  232.38   27.40
   5   3  12  -14.00   13.80
   5  -4 -12   11.60   44.10
   5  -4 -12    3.60   15.90
   4  -4 -12  141.99   44.00
   4  -4 -12  135.79   22.70
   3  -4 -12   29.40   14.60
   3  -4 -12   13.50   29.90
   2  -4 -12    4.50   14.30
   2  -4 -12   18.30   22.20
   1  -4 -12   57.09   14.50
   1  -4 -12   74.69   23.20
  -1   4  12  107.69   14.30
  -1   4  12   67.19   22.50
   0  -4 -12   23.60   15.40
   0  -4 -12   55.39   23.10
   0  -4 -12   30.90   13.90
   0   4  12   58.59   13.30
   0   4  12   40.60   26.20
  -1  -4 -12  320.97   30.20
  -1  -4 -12  234.58   30.80
   1   4  12  268.27   46.50
   1   4  12  274.47   28.70
  -2  -4 -12   39.90   19.50
  -2  -4 -12   60.69   18.20
   2   4  12   58.69   14.80
   2   4  12   41.60   29.90
  -3  -4 -12    0.70   17.10
   3   4  12  -23.90   38.50
   3   4  12   -1.50   13.60
  -4  -4 -12   50.99   22.80
  -4  -4 -12    6.40   19.20
   4   4  12   20.80   16.60
   4  -5 -12  101.69   23.70
   4  -5 -12   95.79   47.20
   3  -5 -12  126.89   42.20
   3  -5 -12  136.89   25.50
   2  -5 -12   92.59   35.00
   2  -5 -12  125.29   20.30
   1  -5 -12   42.70   17.10
   1  -5 -12   63.89   29.40
  -1   5  12   47.70   15.50
   0  -5 -12  229.78   28.30
   0  -5 -12  243.58   29.80
   0   5  12  157.58   48.90
   0   5  12  215.78   26.30
  -1  -5 -12   33.70   18.60
  -1  -5 -12   39.90   20.80
   1   5  12   27.10   15.40
  -2  -5 -12   -2.20   22.10
  -2  -5 -12   61.39   19.50
   2   5  12   19.80   15.80
  -3  -5 -12   -1.80   22.80
   3   5  12  -31.50   41.70
   3   5  12  -11.70   17.00
   3  -6 -12   56.39   41.20
   3  -6 -12   27.80   23.00
   2  -6 -12  -15.30   37.30
   2  -6 -12   30.00   20.20
   1  -6 -12  113.59   23.80
   0  -6 -12    1.30   20.50
   0   6  12   34.60   18.80
  -1  -6 -12   81.39   23.70
  -1  -6 -12   55.79   27.50
   1   6  12   71.59   22.20
  -2  -6 -12    3.30   26.70
   2   6  12  -12.20   19.70
   1   7 -13   24.80   22.90
   0   7 -13   62.79   26.80
   0  -7  13   24.20   16.60
  -1   7 -13   18.20   25.30
   1  -7  13   17.10   16.70
   2   6 -13   -5.40   17.40
   1   6 -13   98.89   22.20
  -1  -6  13  112.29   19.40
   0   6 -13   58.39   21.60
   0  -6  13   40.90   14.90
  -1   6 -13   36.30   21.40
   1  -6  13   36.70   15.50
   2  -6  13   50.19   18.00
   3  -6  13   26.50   19.00
   4   5 -13   -0.20   14.70
   3   5 -13   29.80   15.80
  -3  -5  13   -4.10   16.60
   2   5 -13    3.90   14.30
   2   5 -13   56.29   47.80
  -2  -5  13   23.80   16.10
   1   5 -13   -9.80   59.99
   1   5 -13   10.80   16.00
  -1  -5  13   13.50   11.70
   0   5 -13  334.77   77.49
   0   5 -13  358.16   36.50
   0  -5  13  277.87   30.90
  -1   5 -13   46.50   18.50
  -1   5 -13   82.29   65.39
   1  -5  13   19.70   13.20
  -2   5 -13   85.09   21.60
   2  -5  13   99.59   19.10
   3  -5  13  215.68   29.00
   4  -5  13   28.70   22.30
   4   4 -13   16.50   14.00
   3   4 -13    4.60   13.20
   3   4 -13    2.50   39.00
  -3  -4  13   12.00   14.60
   2   4 -13  603.44   76.29
   2   4 -13  672.73   54.59
  -2  -4  13  481.75   53.89
   1   4 -13  335.47   61.39
   1   4 -13  364.16   37.70
  -1  -4  13  366.46   34.20
   0   4 -13   20.40   14.30
   0   4 -13    8.10   36.40
   0  -4  13   25.70   10.50
  -1   4 -13   18.10   15.60
  -1   4 -13  126.89   45.40
   1  -4  13   51.79   12.60
  -2   4 -13   15.60   15.30
   2  -4  13   22.80   13.30
   3  -4  13   -6.50   14.60
   4  -4  13   76.19   20.50
   5  -4  13   36.70   21.90
   4   3 -13  243.78   28.50
   4   3 -13  311.27   54.19
  -4  -3  13  245.98   29.70
   3   3 -13   -3.20   31.00
   3   3 -13   -9.00   13.40
  -3  -3  13    3.20   12.30
   2   3 -13  321.97   44.90
   2   3 -13  247.68   27.10
  -2  -3  13  246.38   24.10
  -2  -3  13  231.38   26.20
   1   3 -13   47.80   29.00
   1   3 -13  -15.60   10.70
  -1  -3  13    9.00    7.40
   0   3 -13  331.77   35.40
   0   3 -13  392.26   51.29
   0  -3  13  360.66   33.60
  -1   3 -13  996.90  105.49
  -1   3 -13 1142.19   94.89
   1  -3  13 1143.09   94.19
  -2   3 -13  631.94   52.39
   2  -3  13  509.45   51.09
  -3   3 -13   31.10   13.20
   3  -3  13    7.40   13.60
   4  -3  13    9.00   15.50
   5  -3  13    1.30   18.30
   5   2 -13   46.60   35.20
   4   2 -13  151.88   38.50
  -4  -2  13  135.09   20.40
   3   2 -13   66.79   12.70
   3   2 -13   65.39   27.90
  -3  -2  13   44.90   12.80
   2   2 -13  518.95   54.39
   2   2 -13  390.56   42.90
   2   2 -13  445.96   41.40
  -2  -2  13  455.75   43.80
  -2  -2  13  623.24   55.19
   1   2 -13   34.70   11.00
   1   2 -13   23.40   22.40
  -1  -2  13   16.40    9.00
  -1  -2  13   28.20    6.80
  -1  -2  13   30.40   15.50
   0   2 -13  189.48   20.30
   0   2 -13  191.78   33.80
   0  -2  13  184.78   19.90
   0  -2  13  175.18   22.70
  -1   2 -13  519.35   44.60
   1  -2  13  469.85   43.70
   1  -2  13  473.35   50.29
  -2   2 -13   82.69   14.80
   2  -2  13  100.79   14.90
  -3   2 -13   29.80   12.10
   3  -2  13   24.60   12.70
  -4   2 -13   -2.60   13.60
   4  -2  13  -14.10   14.40
   5  -2  13    8.50   17.10
   5   1 -13    3.60   28.40
   4   1 -13    6.20   24.60
   3   1 -13   28.60   22.20
   2   1 -13    5.50   10.20
   2   1 -13    7.00    9.40
   2   1 -13    9.70    5.50
   2   1 -13   -9.30   18.40
  -2  -1  13   15.20    8.90
  -2  -1  13    1.90   15.20
   1   1 -13 1821.72  144.59
   1   1 -13 1626.74  139.59
   1   1 -13 1650.03  140.19
   1   1 -13 1665.23  139.89
  -1  -1  13 1639.54  139.49
  -1  -1  13 1667.13  144.09
  -1  -1  13 1615.74  139.59
   0   1 -13  238.48   23.60
   0   1 -13  201.28   28.60
   0  -1  13  218.88   22.70
   0  -1  13  237.78   26.70
  -1   1 -13  729.73   62.79
   1  -1  13  701.63   61.89
  -2   1 -13  592.64   53.19
   2  -1  13  592.04   52.49
  -3   1 -13   -1.70   11.60
   3  -1  13   19.60   11.50
  -4   1 -13  -13.40   14.00
   4  -1  13  -24.40   12.50
  -5   1 -13   35.60   20.70
   5  -1  13   79.89   17.10
   5   0 -13  -23.40   22.70
   4   0 -13   40.60   21.80
   3   0 -13  220.58   33.10
   2   0 -13  409.76   39.80
   2   0 -13  393.96   35.90
  -2   0  13  344.37   40.90
   1   0 -13  326.77   31.40
   1   0 -13  347.77   32.10
   1   0 -13  326.57   30.90
   1   0 -13  389.36   35.10
  -1   0  13  311.77   33.70
  -1   0  13  368.66   30.60
   0   0 -13 3761.22  310.07
   0   0  13 3517.95  309.57
   0   0  13 3870.71  311.57
  -1   0 -13 1278.87  109.89
   1   0  13 1306.87  109.39
  -2   0 -13  294.07   30.90
   2   0  13  328.37   30.70
  -3   0 -13  262.47   24.10
  -3   0 -13  174.18   25.00
   3   0  13  198.98   22.90
  -4   0 -13   -0.10   15.40
   4   0  13  -24.10   12.30
  -5   0 -13   17.70   20.50
   5   0  13   13.10   15.50
   5  -1 -13   69.29   29.40
   5  -1 -13   85.29   28.50
   4  -1 -13   27.80   21.70
   4  -1 -13   23.70   23.10
   3  -1 -13   -4.40   15.00
   2  -1 -13  139.39   18.20
   2  -1 -13  138.19   14.40
   2  -1 -13  128.29   13.90
   1  -1 -13  417.86   36.70
   1  -1 -13  394.36   36.10
  -1   1  13  407.36   35.60
   0  -1 -13 1978.40  173.68
   0   1  13 2165.18  173.48
  -1  -1 -13 1004.20   83.99
   1   1  13  952.20   83.19
  -2  -1 -13   88.19   16.00
  -2  -1 -13   44.60   12.50
   2   1  13   94.99   12.50
  -3  -1 -13  174.28   20.10
  -3  -1 -13  125.09   17.80
  -3  -1 -13  148.09   22.00
   3   1  13  160.18   18.10
  -4  -1 -13  -10.80   12.90
  -4  -1 -13    3.60   15.70
   4   1  13    4.00   11.30
  -5  -1 -13    9.20   20.60
   5   1  13    7.20   14.20
   5  -2 -13  103.99   41.20
   4  -2 -13   -3.80   23.20
   4  -2 -13  -10.70   17.90
   3  -2 -13   15.40   19.60
   3  -2 -13   25.70   13.40
   2  -2 -13   18.20    9.40
   2  -2 -13   22.90   16.40
   2  -2 -13   30.80    8.80
   1  -2 -13  300.07   27.90
   1  -2 -13  282.27   31.90
  -1   2  13  280.17   26.90
   0  -2 -13   96.79   15.80
   0  -2 -13   77.09   12.70
   0   2  13   80.29   11.00
   0   2  13   50.99   13.50
  -1  -2 -13   18.30   11.70
   1   2  13    6.20    9.40
  -2  -2 -13   13.70   13.40
  -2  -2 -13   55.59   15.30
   2   2  13   47.00   11.10
  -3  -2 -13   11.20   13.10
  -3  -2 -13    2.20   16.10
  -3  -2 -13    6.20   13.90
   3   2  13   -3.00    9.80
  -4  -2 -13  -20.30   16.80
  -4  -2 -13  -17.10   15.10
   4   2  13  -12.30   11.50
  -5  -2 -13   -8.10   19.70
  -5  -2 -13   15.90   18.40
   5   2  13  -17.60   12.90
   5  -3 -13   -7.80   37.10
   5  -3 -13   -8.90   11.80
   4  -3 -13   48.90   13.90
   4  -3 -13   50.19   30.70
   3  -3 -13   59.39   12.60
   3  -3 -13   46.30   23.80
   2  -3 -13  715.63   55.79
   2  -3 -13  547.85   61.29
  -2   3  13  595.74   54.09
   1  -3 -13  128.19   16.90
   1  -3 -13  125.49   23.50
  -1   3  13  146.79   16.20
   0  -3 -13  399.56   36.50
   0  -3 -13  412.06   42.20
   0   3  13  319.87   44.00
   0   3  13  410.36   36.40
  -1  -3 -13   99.89   18.40
  -1  -3 -13  141.79   17.90
   1   3  13  127.19   16.70
   1   3  13   85.29   27.70
  -2  -3 -13    2.70   14.10
  -2  -3 -13   21.90   15.40
   2   3  13   15.00   27.80
   2   3  13   24.50   12.10
  -3  -3 -13   12.10   16.30
  -3  -3 -13   10.70   18.60
  -3  -3 -13    8.10   15.80
   3   3  13  -19.10   32.50
   3   3  13   10.80   12.30
  -4  -3 -13   35.30   18.80
  -4  -3 -13   25.70   19.70
   4   3  13   58.39   41.10
   4   3  13   19.90   13.70
   5   3  13   18.60   15.20
   4  -4 -13   33.60   32.70
   4  -4 -13   23.90   15.60
   3  -4 -13  -17.20   29.90
   3  -4 -13   -3.40   14.10
   2  -4 -13  128.89   19.00
   2  -4 -13  113.19   29.50
   1  -4 -13  360.36   37.30
   1  -4 -13  377.16   44.60
  -1   4  13  367.96   44.70
  -1   4  13  352.66   35.70
   0  -4 -13  265.67   28.30
   0  -4 -13  269.57   29.70
   0  -4 -13  313.97   36.50
   0   4  13  230.58   41.10
   0   4  13  231.98   26.90
  -1  -4 -13   36.00   15.20
  -1  -4 -13   26.70   17.70
   1   4  13   46.20   14.00
   1   4  13   15.80   31.80
  -2  -4 -13  -14.90   16.10
  -2  -4 -13   -4.90   17.00
   2   4  13  -15.30   12.60
   2   4  13  -13.00   35.30
  -3  -4 -13   -2.70   17.30
   3   4  13   -4.60   35.90
   3   4  13    3.80   14.50
  -4  -4 -13    1.70   18.90
  -4  -4 -13   28.90   21.90
   4   4  13  -16.40   14.40
   4  -5 -13   17.90   40.50
   4  -5 -13   21.70   19.80
   3  -5 -13   64.09   34.20
   3  -5 -13   41.70   18.50
   2  -5 -13   67.69   20.50
   2  -5 -13   41.50   34.80
   1  -5 -13   85.09   35.70
   1  -5 -13   90.49   20.80
  -1   5  13   50.89   16.60
   0  -5 -13   -4.00   16.40
   0  -5 -13   24.00   19.00
   0   5  13   -5.70   37.90
   0   5  13   34.10   14.70
  -1  -5 -13   24.50   18.40
  -1  -5 -13  -14.70   19.60
   1   5  13    3.40   15.60
  -2  -5 -13  202.68   26.30
  -2  -5 -13  113.49   25.30
   2   5  13  147.79   23.40
  -3  -5 -13   29.00   22.10
   3   5  13   -2.60   51.39
   3   5  13   17.10   17.80
   3  -6 -13  123.39   27.90
   3  -6 -13   57.09   46.60
   2  -6 -13  138.69   42.70
   2  -6 -13  127.79   28.60
   1  -6 -13   59.19   24.70
   0  -6 -13   16.50   21.60
   0   6  13   30.80   18.50
  -1  -6 -13   34.60   23.10
  -1  -6 -13   27.40   26.00
   1   6  13    2.90   19.20
   2   6  13   -7.20   19.70
   0   7 -14   24.20   26.20
   0  -7  14  -11.70   15.90
  -1   7 -14    6.60   29.70
   1  -7  14   12.40   16.70
   2   6 -14   -5.00   18.70
   1   6 -14  -87.09   75.49
   1   6 -14  -10.10   18.60
   0   6 -14  185.18   28.80
   0   6 -14  172.88   83.69
   0  -6  14  159.18   22.80
  -1   6 -14  261.77   33.20
  -1   6 -14  253.27   78.19
   1  -6  14  199.78   27.20
   2  -6  14   21.80   17.20
   3  -6  14   50.99   21.10
   3   5 -14   24.30   16.80
  -3  -5  14   37.60   17.40
   2   5 -14   49.40   16.60
   2   5 -14  123.49   48.50
  -2  -5  14   40.00   17.00
   1   5 -14   19.00   17.00
   1   5 -14   44.60   48.10
  -1  -5  14   49.90   13.10
   0   5 -14  127.89   80.19
   0   5 -14  218.28   27.40
   0  -5  14  188.08   22.60
  -1   5 -14    0.40   17.10
   1  -5  14   28.30   13.30
  -2   5 -14   68.29   21.90
   2  -5  14   85.99   18.30
   3  -5  14   66.49   19.50
   4  -5  14    0.80   21.20
   4   4 -14   23.60   15.40
   3   4 -14    0.10   16.90
   3   4 -14   48.10   39.10
  -3  -4  14   29.80   15.00
   2   4 -14  132.89   20.70
   2   4 -14  237.88   47.10
  -2  -4  14  119.29   19.10
  -2  -4  14  141.79   21.40
   1   4 -14  102.69   18.20
   1   4 -14   97.99   42.60
  -1  -4  14  102.69   14.50
   0   4 -14   51.39   15.90
   0   4 -14   14.70   40.90
   0  -4  14   68.69   12.70
  -1   4 -14  312.07   34.60
  -1   4 -14  511.45   71.39
   1  -4  14  291.77   32.90
  -2   4 -14   42.20   16.70
   2  -4  14    6.40   13.30
   3  -4  14   68.39   17.30
   4  -4  14   50.29   20.40
   5  -4  14   10.30   22.30
   4   3 -14    5.10   34.90
   4   3 -14   16.10   12.80
  -4  -3  14    9.80   13.70
   3   3 -14   55.49   34.00
   3   3 -14   38.50   15.50
  -3  -3  14   32.60   13.70
   2   3 -14   58.09   28.70
   2   3 -14   29.70   12.50
  -2  -3  14   40.50    8.50
  -2  -3  14   49.90   11.90
   1   3 -14  715.63   81.79
   1   3 -14  757.32   65.29
  -1  -3  14  739.83   63.69
   0   3 -14  258.57   43.80
   0   3 -14  247.88   26.70
   0  -3  14  246.08   25.30
  -1   3 -14   17.60   28.30
  -1   3 -14   24.00   13.20
   1  -3  14   -7.80   10.20
  -2   3 -14   29.00   13.60
   2  -3  14    7.70   12.10
  -3   3 -14   69.69   16.10
   3  -3  14   62.99   15.70
   4  -3  14   16.40   16.00
   5  -3  14   40.00   19.80
   5   2 -14   26.20   35.60
   4   2 -14   12.00   29.40
  -4  -2  14   16.30   12.80
   3   2 -14   91.19   15.60
   3   2 -14  114.99   32.80
  -3  -2  14   91.09   15.10
   2   2 -14   14.50    7.40
   2   2 -14   17.90   10.30
   2   2 -14   50.79   22.80
  -2  -2  14   13.60   10.30
   1   2 -14 1887.61  166.48
   1   2 -14 1730.43  158.18
  -1  -2  14 1791.32  157.68
  -1  -2  14 1911.21  157.48
  -1  -2  14 2103.89  163.98
   0   2 -14 1649.54  155.28
   0   2 -14 1865.61  149.09
   0  -2  14 1875.81  148.49
   0  -2  14 1676.33  152.08
  -1   2 -14  527.95   48.00
   1  -2  14  565.84   47.10
   1  -2  14  486.65   52.99
  -2   2 -14 1325.07  110.29
   2  -2  14 1259.77  110.29
  -3   2 -14  350.26   33.60
   3  -2  14  320.07   33.60
   4  -2  14   10.70   15.40
   5  -2  14   -9.40   17.00
   5   1 -14   23.50   30.10
   4   1 -14   22.80   27.00
   3   1 -14   35.20   23.00
   2   1 -14  157.78   26.90
   2   1 -14  134.39   15.50
   2   1 -14  146.19   17.90
   2   1 -14  152.98   17.20
  -2  -1  14  172.08   27.20
   1   1 -14  935.51   80.99
   1   1 -14  817.32   91.79
   1   1 -14  929.31   80.09
   1   1 -14  959.40   80.49
  -1  -1  14  950.90   80.09
  -1  -1  14 1014.40   84.79
  -1  -1  14  974.90   79.99
   0   1 -14  144.99   19.60
   0   1 -14  156.98   26.00
   0  -1  14  151.28   17.80
   0  -1  14  210.48   25.90
  -1   1 -14  260.87   30.20
   1  -1  14  329.97   37.20
   1  -1  14  280.87   28.50
  -2   1 -14   37.10   13.30
   2  -1  14   11.60   10.10
  -3   1 -14   41.80   13.20
   3  -1  14   35.40   12.70
  -4   1 -14   26.50   15.50
   4  -1  14    2.80   13.50
  -5   1 -14   32.40   20.80
   5  -1  14    5.10   15.60
   5   0 -14  -18.60   24.50
   4   0 -14  397.26   48.00
   3   0 -14  844.12   77.99
   2   0 -14  201.98   22.50
   2   0 -14  240.88   24.30
   2   0 -14  239.28   27.70
   2   0 -14  227.68   20.70
  -2   0  14  212.28   29.40
   1   0 -14  165.98   22.70
   1   0 -14  183.28   18.40
   1   0 -14  164.98   16.70
   1   0 -14  159.68   16.70
  -1   0  14  162.48   17.00
   0   0 -14 2690.73  226.88
   0   0  14 2627.94  226.38
   0   0  14 2812.72  228.58
  -1   0 -14  299.27   30.50
   1   0  14  299.07   29.30
  -2   0 -14  199.38   21.80
   2   0  14  185.58   20.90
  -3   0 -14   40.70   14.90
  -3   0 -14   23.10   14.00
   3   0  14   53.59   12.80
  -4   0 -14  -12.80   15.40
   4   0  14   -2.00   13.20
  -5   0 -14   -6.60   20.80
   5   0  14   12.00   15.50
   5  -1 -14   23.50   29.90
   4  -1 -14   -9.70   20.60
   4  -1 -14    1.70   19.90
   3  -1 -14   25.40   16.60
   2  -1 -14  371.56   32.60
   2  -1 -14  377.96   34.50
   2  -1 -14  346.17   32.90
   1  -1 -14  104.69   12.50
   1  -1 -14   86.39   11.50
  -1   1  14   70.09   11.60
  -1   1  14  132.09   11.40
   0  -1 -14  593.74   54.89
   0   1  14  653.93   54.29
  -1  -1 -14  516.65   45.70
   1   1  14  481.45   44.30
  -2  -1 -14   37.10   14.30
  -2  -1 -14    7.60   10.30
   2   1  14   45.10   10.70
  -3  -1 -14    8.90   13.70
  -3  -1 -14    3.70   10.80
  -3  -1 -14    6.60   14.70
   3   1  14   16.90   10.30
  -4  -1 -14   51.29   18.50
  -4  -1 -14   63.39   15.20
   4   1  14   79.99   15.20
  -5  -1 -14  -17.20   21.50
   5   1  14   -8.80   14.80
   5  -2 -14    1.50   29.30
   4  -2 -14   28.30   24.00
   3  -2 -14   59.39   14.60
   3  -2 -14   56.89   21.10
   2  -2 -14  166.98   26.20
   2  -2 -14  209.88   20.00
   2  -2 -14  184.08   19.70
   1  -2 -14  119.59   14.90
   1  -2 -14  125.19   19.90
  -1   2  14  124.39   14.10
   0  -2 -14  281.57   30.00
   0  -2 -14  294.77   27.40
   0   2  14  298.07   26.50
   0   2  14  230.58   28.20
  -1  -2 -14 1598.94  133.29
   1   2  14 1548.35  132.79
  -2  -2 -14  168.88   21.30
  -2  -2 -14  124.69   19.90
   2   2  14  153.18   17.80
  -3  -2 -14   30.00   17.20
  -3  -2 -14  -11.70   14.30
  -3  -2 -14  -12.80   12.90
   3   2  14    0.00   10.70
  -4  -2 -14    2.10   15.50
  -4  -2 -14  -14.70   16.60
   4   2  14  -14.90   11.80
  -5  -2 -14  -12.10   18.00
  -5  -2 -14   17.90   20.80
   5   2  14   11.40   13.60
   5  -3 -14   24.20   36.10
   4  -3 -14  112.59   18.00
   4  -3 -14  114.79   33.30
   3  -3 -14   62.99   26.20
   3  -3 -14   80.69   14.60
   2  -3 -14    9.70   19.60
   2  -3 -14   -5.70   10.90
   1  -3 -14   45.50   12.10
   1  -3 -14    5.30   18.40
  -1   3  14   53.79   10.50
   0  -3 -14  101.19   15.30
   0  -3 -14  104.09   20.60
   0   3  14   65.79   22.30
   0   3  14   93.89   14.50
  -1  -3 -14   14.90   13.10
  -1  -3 -14   24.70   14.20
   1   3  14   20.00   22.10
   1   3  14    9.00   11.60
  -2  -3 -14   -3.00   14.60
  -2  -3 -14   17.20   15.30
   2   3  14   10.90   24.00
   2   3  14   15.50   11.70
  -3  -3 -14   11.70   19.70
  -3  -3 -14   -0.20   16.60
  -3  -3 -14   10.20   15.90
   3   3  14  -15.70   28.20
   3   3  14    6.70   12.60
  -4  -3 -14   67.99   20.40
  -4  -3 -14   34.20   19.10
   4   3  14   28.40   45.00
   4   3  14   30.80   13.80
   4  -4 -14  114.09   20.40
   4  -4 -14   78.39   40.70
   3  -4 -14  -14.30   13.90
   3  -4 -14   34.40   31.20
   2  -4 -14    8.70   13.70
   2  -4 -14   -6.50   23.70
   1  -4 -14  892.21   78.69
   1  -4 -14  818.82   86.39
  -1   4  14  976.20   83.49
  -1   4  14  819.02   77.19
   0  -4 -14  190.88   25.30
   0  -4 -14  221.08   24.10
   0  -4 -14  256.57   33.50
   0   4  14  111.99   36.10
   0   4  14  202.48   22.70
  -1  -4 -14   80.89   20.80
  -1  -4 -14  129.09   19.60
   1   4  14  113.59   18.30
   1   4  14  123.79   40.10
  -2  -4 -14    1.50   16.70
  -2  -4 -14   19.10   17.50
   2   4  14   -0.50   36.70
   2   4  14   -0.20   13.90
  -3  -4 -14    0.00   18.00
   3   4  14   -3.40   46.20
   3   4  14    6.20   14.60
  -4  -4 -14   19.20   19.60
  -4  -4 -14   -2.00   21.30
   4   4  14    5.90   16.50
   4  -5 -14   28.70   19.80
   3  -5 -14   31.60   37.10
   3  -5 -14   21.50   19.80
   2  -5 -14    6.60   17.60
   2  -5 -14    7.70   32.30
   1  -5 -14  126.59   36.50
   1  -5 -14   76.19   22.00
  -1   5  14  108.99   18.60
   0  -5 -14   29.10   18.50
   0   5  14   58.09   15.90
  -1  -5 -14   14.80   21.40
  -1  -5 -14   -6.00   17.90
   1   5  14   -6.90   15.40
  -2  -5 -14    3.00   21.10
  -2  -5 -14   24.30   22.10
   2   5  14   33.10   18.00
  -3  -5 -14   -2.30   21.10
   3   5  14   27.30   51.59
   3   5  14   18.90   19.10
   3  -6 -14    8.60   43.20
   3  -6 -14   -0.90   22.90
   2  -6 -14   38.70   24.60
   2  -6 -14   18.80   38.70
   1  -6 -14   49.90   21.80
   0  -6 -14   99.89   25.50
   0   6  14   76.79   22.40
  -1  -6 -14   49.10   23.20
   1   6  14   42.60   21.20
  -2  -6 -14    0.70   27.20
   2   6  14    1.80   21.00
   0   7 -15   59.29   27.90
   0  -7  15   37.10   17.60
  -1   7 -15   81.99   27.90
   1  -7  15   23.90   17.70
   2   6 -15    2.20   17.30
   1   6 -15   -3.80   18.10
   1   6 -15  -51.69   76.89
   0   6 -15   -4.90   69.69
   0   6 -15   -1.90   20.10
   0  -6  15    9.40   13.90
  -1   6 -15   17.40   22.30
   1  -6  15   26.20   15.40
   2  -6  15    4.80   16.80
   3  -6  15  -20.30   20.70
   3   5 -15   16.20   15.90
  -3  -5  15   14.10   17.60
   2   5 -15  270.47   59.39
   2   5 -15  145.19   25.50
  -2  -5  15  139.89   23.20
   1   5 -15  196.88   59.09
   1   5 -15  122.29   22.20
  -1  -5  15  132.09   18.70
   0   5 -15   35.30   17.80
   0   5 -15  -56.79   64.29
   0  -5  15   17.90   12.10
  -1   5 -15  648.74   65.09
  -1   5 -15  815.92  104.99
   1  -5  15  624.34   60.09
  -2   5 -15  142.39   27.20
   2  -5  15  173.08   23.90
   3  -5  15    5.10   18.10
   4  -5  15   21.50   22.70
   4   4 -15  -11.30   15.40
   3   4 -15   10.70   17.70
   3   4 -15   20.80   36.50
  -3  -4  15  -11.80   13.50
   2   4 -15   64.79   38.40
   2   4 -15   52.59   16.00
  -2  -4  15   55.29   14.40
   1   4 -15  196.18   25.80
   1   4 -15  237.58   51.99
  -1  -4  15  225.88   23.20
   0   4 -15  183.48   22.10
   0   4 -15   46.80   48.30
   0  -4  15  188.88   20.00
  -1   4 -15  233.98   53.29
  -1   4 -15  238.58   27.70
   1  -4  15  236.68   26.00
  -2   4 -15   61.59   17.80
   2  -4  15   53.89   15.40
   2  -4  15   39.70   15.10
   3  -4  15   14.40   15.80
   4  -4  15    5.90   19.20
   5  -4  15   46.70   23.00
   5   3 -15    1.10   12.90
   4   3 -15  289.17   31.50
   4   3 -15  344.77   53.89
  -4  -3  15  236.98   30.50
   3   3 -15  185.58   40.50
   3   3 -15  133.99   20.10
  -3  -3  15  120.79   19.20
   2   3 -15    6.30   26.10
   2   3 -15    8.10   11.50
  -2  -3  15    4.10    7.20
  -2  -3  15   -3.40   10.20
   1   3 -15 1123.79  108.49
   1   3 -15 1055.09   93.89
  -1  -3  15 1021.40   93.09
  -1  -3  15 1163.08   92.69
   0   3 -15  123.59   33.50
   0   3 -15  148.19   20.20
   0  -3  15  179.58   18.30
  -1   3 -15   44.30   15.30
  -1   3 -15  130.49   35.90
   1  -3  15   49.50   12.80
  -2   3 -15   96.49   17.80
   2  -3  15   97.59   16.40
  -3   3 -15  -12.00   14.40
   3  -3  15   -6.20   13.50
   4  -3  15  -14.70   15.70
   5  -3  15   20.70   19.30
   5   2 -15   37.30   34.60
   4   2 -15   34.40   29.70
   3   2 -15   22.70   12.10
   3   2 -15    0.80   25.80
  -3  -2  15    4.50   10.70
   2   2 -15    3.70    6.90
   2   2 -15   -0.90   21.70
   2   2 -15    0.60   10.00
  -2  -2  15   14.70   10.20
   1   2 -15  247.58   28.50
   1   2 -15  336.67   41.90
  -1  -2  15  260.47   26.00
  -1  -2  15  308.77   33.60
  -1  -2  15  274.47   27.30
   0   2 -15  832.52   68.29
   0   2 -15  750.92   77.59
   0  -2  15  712.43   70.89
   0  -2  15  832.12   67.19
  -1   2 -15    1.50   12.30
   1  -2  15    6.90    9.70
   1  -2  15    2.90   14.00
  -2   2 -15   89.09   16.20
   2  -2  15   92.49   15.50
  -3   2 -15   64.19   15.40
   3  -2  15   69.59   15.80
   4  -2  15   16.90   16.20
   5  -2  15   24.20   18.40
   5   1 -15   16.90   30.40
   4   1 -15  -19.90   24.60
   3   1 -15  -26.20   20.00
   2   1 -15   29.50   11.70
   2   1 -15   72.39   20.70
   2   1 -15   46.90    8.20
   2   1 -15   45.00   11.70
  -2  -1  15   57.29   20.00
   1   1 -15   89.59   12.50
   1   1 -15  122.79   16.00
   1   1 -15  115.99   23.80
  -1  -1  15  115.79   20.30
  -1  -1  15  139.09   13.00
   0   1 -15 3905.61  306.97
   0   1 -15 3525.05  301.07
   0  -1  15 3434.46  304.97
   0  -1  15 3573.14  300.77
  -1   1 -15 1131.99   92.79
   1  -1  15  996.70   95.79
   1  -1  15 1119.09   91.89
  -2   1 -15   59.99   14.20
   2  -1  15   39.70   11.90
  -3   1 -15  304.87   29.10
   3  -1  15  253.17   28.60
  -4   1 -15  -17.20   15.20
   4  -1  15   16.80   13.70
  -5   1 -15   31.60   21.20
   5  -1  15  -10.00   15.10
   5   0 -15   24.30   25.50
   4   0 -15  143.69   28.50
   3   0 -15   64.29   19.10
   2   0 -15   11.40    9.70
   2   0 -15    7.60    9.20
   2   0 -15  -16.40   12.10
   2   0 -15    3.60    6.00
  -2   0  15   -2.20   13.20
   1   0 -15 1251.27  108.39
   1   0 -15 1467.45  112.79
   1   0 -15 1217.88  107.79
   1   0 -15 1313.77  107.79
  -1   0  15 1281.27  107.59
  -1   0  15 1171.78  110.79
   0   0 -15   88.19   15.00
   0   0  15   92.39   12.10
  -1   0 -15  102.69   15.70
   1   0  15   80.69   13.10
  -2   0 -15   82.29   14.80
   2   0  15   58.49   13.20
  -3   0 -15  158.68   24.00
  -3   0 -15  250.87   24.30
   3   0  15  187.58   22.50
  -4   0 -15   -7.60   16.10
   4   0  15   25.80   14.40
  -5   0 -15   17.30   22.80
   5   0  15   27.50   16.50
   5  -1 -15   29.80   31.70
   4  -1 -15   11.60   20.60
   3  -1 -15  110.99   20.80
   2  -1 -15 2709.63  221.38
   2  -1 -15 2555.04  221.38
   2  -1 -15 2692.93  222.28
   1  -1 -15  687.93   58.99
   1  -1 -15  725.13   58.89
  -1   1  15  758.92   58.49
  -1   1  15  597.54   59.29
   0  -1 -15  228.58   24.30
   0   1  15  209.08   23.00
   0   1  15  234.48   24.80
  -1  -1 -15 1102.29   92.59
   1   1  15 1055.69   91.69
  -2  -1 -15  124.39   18.40
   2   1  15  100.89   14.80
  -3  -1 -15    7.20   13.80
  -3  -1 -15   -0.20   14.30
  -3  -1 -15   11.40   10.80
   3   1  15   19.60   10.70
  -4  -1 -15   24.80   13.30
  -4  -1 -15    0.20   17.50
   4   1  15   26.10   13.60
  -5  -1 -15   -3.30   20.80
   5   1  15   -1.40   15.40
   5  -2 -15   30.70   39.50
   4  -2 -15   32.90   26.00
   3  -2 -15   18.60   20.80
   3  -2 -15    9.00   11.20
   2  -2 -15   40.80   10.30
   2  -2 -15   27.40   10.10
   2  -2 -15   48.90   18.50
   1  -2 -15  335.87   31.90
   1  -2 -15  317.77   36.90
  -1   2  15  343.57   30.80
   0  -2 -15   31.00   14.10
   0  -2 -15   31.80   11.80
   0   2  15   40.60   10.50
   0   2  15   23.00   14.50
  -1  -2 -15  686.73   57.49
   1   2  15  602.24   56.49
  -2  -2 -15   66.49   16.00
  -2  -2 -15   51.29   15.00
   2   2  15   21.70   11.00
  -3  -2 -15   -0.50   14.60
  -3  -2 -15  -11.90   17.20
  -3  -2 -15  -12.80   12.60
   3   2  15   -5.90   11.10
  -4  -2 -15    6.00   15.50
  -4  -2 -15   13.00   18.00
   4   2  15    1.50   12.80
  -5  -2 -15    5.90   18.60
  -5  -2 -15   -5.40   21.50
   5   2  15    9.50   14.50
   5  -3 -15  -13.70   38.50
   4  -3 -15   66.09   31.30
   4  -3 -15   33.80   14.30
   3  -3 -15   24.30   12.80
   3  -3 -15    5.40   23.00
   2  -3 -15    1.90   19.40
   2  -3 -15   17.80   11.80
  -2   3  15   11.00    7.90
   1  -3 -15  223.78   24.00
   1  -3 -15  210.58   29.00
  -1   3  15  236.28   23.20
   0  -3 -15  312.47   32.30
   0  -3 -15  294.17   29.00
   0   3  15  259.57   28.70
   0   3  15  242.98   36.00
  -1  -3 -15   71.79   15.90
   1   3  15   71.79   26.20
   1   3  15   83.19   14.50
  -2  -3 -15  346.17   38.60
  -2  -3 -15  374.96   38.60
   2   3  15  363.56   53.89
   2   3  15  338.97   35.80
  -3  -3 -15    4.60   15.70
  -3  -3 -15   24.70   16.70
  -3  -3 -15    1.40   20.80
   3   3  15    6.20   12.60
   3   3  15  -20.30   32.00
  -4  -3 -15   19.30   18.70
  -4  -3 -15   32.40   19.00
   4   3  15   33.60   14.70
   4   3  15  -15.40   39.00
   4  -4 -15    2.80   16.70
   4  -4 -15   22.40   34.00
   3  -4 -15   36.90   32.60
   3  -4 -15   26.20   16.80
   2  -4 -15   36.70   26.00
   2  -4 -15   48.80   16.10
   1  -4 -15   29.50   14.30
   1  -4 -15   22.60   25.10
   0  -4 -15   30.10   18.60
   0  -4 -15   30.50   22.90
   0  -4 -15   15.60   14.90
   0   4  15  -25.50   24.80
   0   4  15   36.60   13.10
  -1  -4 -15   15.70   15.90
  -1  -4 -15  -15.70   16.20
   1   4  15    2.30   13.90
   1   4  15   15.80   32.90
  -2  -4 -15   48.50   17.90
  -2  -4 -15   35.40   20.10
   2   4  15   43.90   15.70
   2   4  15   21.50   34.60
  -3  -4 -15   -1.50   19.40
  -3  -4 -15   -2.20   18.00
   3   4  15   -0.50   41.70
   3   4  15  -16.00   14.80
  -4  -4 -15    5.60   22.20
  -4  -4 -15   -5.50   19.60
   4   4  15    8.10   16.00
   4  -5 -15   -1.80   42.00
   4  -5 -15    0.80   20.40
   3  -5 -15  358.86   40.60
   3  -5 -15  303.27   52.69
   2  -5 -15   40.80   34.00
   2  -5 -15   28.80   16.90
   1  -5 -15  155.68   38.20
   1  -5 -15  181.08   27.50
  -1   5  15  178.08   24.60
   0  -5 -15  355.76   39.70
   0  -5 -15  326.47   39.00
   0   5  15  316.77   35.30
  -1  -5 -15   81.99   21.50
  -1  -5 -15   71.09   24.40
   1   5  15   86.89   19.40
  -2  -5 -15    8.80   19.30
  -2  -5 -15  -11.80   20.50
   2   5  15  -19.10   17.30
  -3  -5 -15   -4.80   21.80
   3   5  15   19.60   52.19
   3   5  15   -2.70   18.60
   2  -6 -15   19.10   24.30
   1  -6 -15   -8.00   23.40
   0  -6 -15   43.00   23.80
   0   6  15   66.99   20.90
  -1  -6 -15  -16.80   22.30
  -1  -6 -15  -24.70   22.30
   1   6  15   -1.40   20.60
   2   6  15    8.60   23.20
   0   7 -16   78.19   31.70
   0  -7  16   29.80   17.50
  -1   7 -16   -3.70   29.50
   1  -7  16   18.60   17.50
   2   6 -16   60.49   20.60
   1   6 -16   48.40   21.40
   0   6 -16   30.60   23.30
   0  -6  16   -1.20   14.10
  -1   6 -16  197.18   96.79
  -1   6 -16   56.69   24.90
   1  -6  16   19.70   15.90
   2  -6  16   37.30   17.60
   3  -6  16   17.80   21.00
   3   5 -16    3.30   15.20
  -3  -5  16   -9.50   16.60
   2   5 -16   34.50   47.10
   2   5 -16   48.40   18.50
  -2  -5  16   15.40   15.00
   1   5 -16  211.78   81.99
   1   5 -16  213.78   27.40
  -1  -5  16  200.38   23.70
   0   5 -16    5.80   17.60
   0   5 -16    6.80   54.39
   0  -5  16    9.90   12.10
  -1   5 -16  132.19   25.10
  -1   5 -16  156.58   59.89
   1  -5  16  126.19   20.50
  -2   5 -16   56.29   22.10
   2  -5  16   90.09   19.10
   3  -5  16   22.70   19.10
   4  -5  16   26.80   22.60
   4   4 -16   -3.20   16.60
   3   4 -16   59.59   36.40
   3   4 -16   25.90   16.60
  -3  -4  16   18.20   14.60
   2   4 -16   26.00   15.70
   2   4 -16   32.70   45.20
  -2  -4  16   11.70   13.00
   1   4 -16  204.08   25.40
   1   4 -16  248.68   54.19
  -1  -4  16  227.88   23.50
   0   4 -16  277.07   30.50
   0   4 -16  259.57   58.59
   0  -4  16  290.57   29.40
  -1   4 -16   27.20   15.90
  -1   4 -16   15.00   44.90
   1  -4  16   26.00   12.80
  -2   4 -16  484.65   46.10
   2  -4  16  401.76   43.00
   3  -4  16   36.40   17.00
   4  -4  16   89.09   21.50
   4   3 -16   30.20   36.40
   4   3 -16   25.30   16.20
  -4  -3  16    2.90   13.50
   3   3 -16   -0.90   32.40
   3   3 -16   -6.90   14.20
  -3  -3  16   22.50   12.90
   2   3 -16  126.49   34.40
   2   3 -16   63.49   14.90
  -2  -3  16   90.79   11.30
  -2  -3  16   62.09   13.80
   1   3 -16  102.39   33.10
   1   3 -16   60.59   14.40
  -1  -3  16   53.89   10.10
  -1  -3  16   44.20   11.40
   0   3 -16   16.00   13.00
   0   3 -16    7.70   28.70
   0  -3  16   15.30    9.00
  -1   3 -16  353.66   36.30
  -1   3 -16  440.96   55.09
   1  -3  16  298.47   34.20
  -2   3 -16  454.85   40.80
   2  -3  16  352.16   39.10
  -3   3 -16  201.58   23.90
   3  -3  16  146.69   22.40
   4  -3  16   11.60   17.00
   5  -3  16   52.19   20.80
   5   2 -16   42.90   35.70
   4   2 -16   18.50   29.80
   3   2 -16 1330.87  113.49
   3   2 -16 1138.69  102.09
  -3  -2  16 1139.49  102.59
   2   2 -16  304.97   42.40
   2   2 -16  308.37   28.20
   2   2 -16  297.27   30.60
  -2  -2  16  299.07   30.70
   1   2 -16  142.49   18.40
   1   2 -16  147.89   29.60
  -1  -2  16  146.49   24.50
  -1  -2  16  129.39   15.70
  -1  -2  16  150.88   15.30
   0   2 -16 1143.09   95.49
   0   2 -16 1076.39  103.69
   0  -2  16 1252.47   94.79
   0  -2  16  991.60   98.09
  -1   2 -16  355.06   35.40
   1  -2  16  330.87   40.80
   1  -2  16  368.16   34.10
  -2   2 -16   28.00   13.80
   2  -2  16   -4.20   12.00
  -3   2 -16   14.50   14.20
   3  -2  16   44.30   14.60
  -4   2 -16   -6.80   16.30
   4  -2  16   17.60   16.30
   5  -2  16   18.70   18.60
   5   1 -16   26.00   28.70
   4   1 -16   33.40   25.50
   3   1 -16   -3.80   22.40
   2   1 -16   88.79   14.50
   2   1 -16   78.59   13.90
   2   1 -16   95.79   22.00
   2   1 -16   68.59   10.50
  -2  -1  16   96.29   23.10
   1   1 -16    7.50    8.40
   1   1 -16  -24.20   18.80
   1   1 -16    5.20   11.10
  -1  -1  16   19.90   14.00
  -1  -1  16   23.20    6.90
   0   1 -16 2474.95  212.18
   0   1 -16 2384.16  207.38
   0  -1  16 2482.65  210.28
   0  -1  16 2541.25  206.88
  -1   1 -16  698.43   58.29
   1  -1  16  643.34   57.09
   1  -1  16  621.54   62.39
  -2   1 -16   49.40   13.90
   2  -1  16    1.10   10.90
  -3   1 -16   42.90   14.40
   3  -1  16   26.10   13.10
  -4   1 -16  -20.10   16.30
   4  -1  16   -6.70   14.00
  -5   1 -16   25.80   21.80
   5  -1  16  -19.10   16.20
   5   0 -16   42.30   27.20
   4   0 -16   38.70   22.10
   3   0 -16   38.40   18.90
   2   0 -16  173.68   17.80
   2   0 -16  176.78   19.00
   2   0 -16  156.38   23.00
   2   0 -16  192.48   19.10
  -2   0  16  165.18   25.10
   1   0 -16  982.10   80.69
   1   0 -16 1109.89   84.49
   1   0 -16  928.11   80.69
   1   0 -16  936.81   81.49
  -1   0  16  796.62   83.89
  -1   0  16  960.00   80.49
   0   0 -16  414.96   40.80
   0   0  16  438.56   42.40
   0   0  16  454.15   39.40
  -1   0 -16 1819.82  154.68
   1   0  16 1845.82  154.28
  -2   0 -16  155.58   19.80
   2   0  16  151.88   19.00
  -3   0 -16   43.20   15.90
   3   0  16   40.10   13.70
  -4   0 -16   22.00   17.30
   4   0  16   -3.40   14.10
  -5   0 -16   15.90   22.60
   5   0  16   13.20   15.70
   5  -1 -16   14.60   31.50
   4  -1 -16   14.40   20.20
   3  -1 -16    4.20   15.50
   2  -1 -16   28.30    7.90
   2  -1 -16   17.90    9.00
   1  -1 -16  159.38   17.00
  -1   1  16  130.79   18.10
  -1   1  16  173.68   15.90
   0  -1 -16  740.53   67.09
   0   1  16  765.32   69.09
   0   1  16  803.22   66.49
  -1  -1 -16   43.50   13.80
   1   1  16   45.50   11.10
  -2  -1 -16   -5.40   14.50
   2   1  16    2.30   10.00
  -3  -1 -16   -6.10   15.10
  -3  -1 -16  -19.50   10.40
  -3  -1 -16   -0.50   14.00
   3   1  16   -6.90   11.10
  -4  -1 -16   62.19   19.60
   4   1  16   78.39   16.10
  -5  -1 -16  -11.40   22.50
   5   1  16   16.40   15.60
   5  -2 -16  -26.80   38.40
   4  -2 -16  214.08   36.50
   3  -2 -16   21.20   20.50
   3  -2 -16   21.70   10.90
   3  -2 -16   25.20   10.50
   2  -2 -16  183.58   27.70
   2  -2 -16  210.38   21.90
   2  -2 -16  197.18   21.30
   1  -2 -16 1600.34  137.59
   1  -2 -16 1647.24  135.09
  -1   2  16 1560.24  134.59
   0  -2 -16  363.56   36.20
   0  -2 -16  400.46   39.80
   0   2  16  366.66   35.20
  -1  -2 -16   36.70   14.30
   1   2  16   41.40   11.20
  -2  -2 -16    2.60   15.00
   2   2  16  -10.00   10.20
  -3  -2 -16    2.80   13.10
  -3  -2 -16    2.80   15.60
  -3  -2 -16   17.30   18.30
   3   2  16    6.10   11.70
  -4  -2 -16   -2.50   17.20
  -4  -2 -16   14.30   15.90
   4   2  16   26.10   13.60
  -5  -2 -16    3.40   19.70
  -5  -2 -16    7.30   24.20
   5   2  16   -8.20   15.00
   4  -3 -16  124.49   19.40
   4  -3 -16  136.79   39.60
   3  -3 -16    7.40   25.80
   3  -3 -16   -8.30   13.10
   2  -3 -16   48.00   22.80
   2  -3 -16   35.70   12.60
  -2   3  16   39.40    9.90
   1  -3 -16  371.86   40.40
   1  -3 -16  385.06   35.10
  -1   3  16  324.37   33.70
   0  -3 -16  182.78   20.70
   0  -3 -16  167.78   26.10
   0   3  16  180.68   19.50
   0   3  16  130.09   27.60
  -1  -3 -16  191.28   23.10
  -1  -3 -16  257.27   30.10
   1   3  16  134.69   32.20
   1   3  16  200.68   22.30
  -2  -3 -16  320.27   29.20
  -2  -3 -16  205.58   29.10
   2   3  16  186.08   41.90
   2   3  16  225.78   25.90
  -3  -3 -16  -18.60   23.70
  -3  -3 -16   -1.20   16.60
  -3  -3 -16   42.10   18.20
   3   3  16  -26.40   12.30
   3   3  16   -4.60   31.00
  -4  -3 -16   13.90   19.20
  -4  -3 -16   13.80   20.30
   4   3  16   -1.70   43.00
   4   3  16    9.50   14.20
   4  -4 -16  -10.70   16.30
   4  -4 -16    3.70   34.00
   3  -4 -16   82.09   33.00
   3  -4 -16   70.39   18.50
   2  -4 -16  117.69   19.70
   2  -4 -16   91.49   30.30
   1  -4 -16   22.70   24.10
   1  -4 -16   12.20   14.90
  -1   4  16   29.40   12.00
   0  -4 -16  116.39   26.80
   0  -4 -16   68.09   18.30
   0   4  16   88.29   29.30
   0   4  16   95.39   16.40
  -1  -4 -16    2.80   17.80
  -1  -4 -16  -20.90   15.70
   1   4  16   27.80   14.60
   1   4  16    7.00   32.10
  -2  -4 -16    6.50   17.90
  -2  -4 -16   -6.10   17.00
   2   4  16   10.10   32.90
   2   4  16   -5.50   14.90
  -3  -4 -16   -6.50   19.00
  -3  -4 -16   -3.60   18.60
   3   4  16   16.70   38.70
   3   4  16  -18.20   15.10
  -4  -4 -16   17.70   21.70
   4   4  16    1.40   15.70
   4  -5 -16   45.90   21.20
   4  -5 -16   14.70   40.60
   3  -5 -16   10.00   20.30
   3  -5 -16    3.50   39.50
   2  -5 -16   28.60   34.60
   2  -5 -16    8.20   20.50
   1  -5 -16   38.00   19.10
   1  -5 -16   -8.80   29.70
   0  -5 -16    8.50   19.20
   0  -5 -16  -20.30   19.80
   0   5  16    7.20   16.20
  -1  -5 -16  -16.40   18.90
  -1  -5 -16   39.10   24.20
   1   5  16    7.00   16.40
  -2  -5 -16   11.20   22.90
  -2  -5 -16    6.60   20.50
   2   5  16   65.39   48.80
   2   5  16    7.80   18.10
  -3  -5 -16   20.30   22.90
   3   5  16   21.80   54.99
   3   5  16    6.90   19.20
   2  -6 -16  186.08   45.80
   2  -6 -16  183.18   28.80
   1  -6 -16   20.00   22.90
   0  -6 -16   34.80   24.30
   0   6  16   30.50   19.90
  -1  -6 -16   57.29   25.10
  -1  -6 -16  -13.90   25.40
   1   6  16   58.89   20.90
   2   6 -17  -29.90   18.40
   1   6 -17  -14.40   18.90
   0   6 -17   42.90   24.00
   0   6 -17  -28.70   82.29
   0  -6  17   27.30   14.90
  -1   6 -17  144.59   29.20
   1  -6  17  111.09   20.60
   2  -6  17   18.00   17.60
   3  -6  17   -2.90   23.90
   3   5 -17   21.40   16.30
  -3  -5  17  -15.70   16.70
   2   5 -17    0.10   17.30
   2   5 -17   47.90   47.40
  -2  -5  17   -1.00   14.40
   1   5 -17   73.89   55.49
   1   5 -17  141.89   22.60
  -1  -5  17  108.49   17.40
   0   5 -17  219.48   29.10
   0   5 -17  195.18   66.99
   0  -5  17  196.38   23.60
  -1   5 -17   19.30   20.00
  -1   5 -17  108.09   64.49
   1  -5  17   46.70   15.80
  -2   5 -17   13.90   20.60
   2  -5  17   44.70   17.40
   3  -5  17   37.50   19.80
   4  -5  17   21.10   23.10
   4   4 -17   10.70   15.80
   3   4 -17   83.69   40.00
   3   4 -17    1.40   17.00
  -3  -4  17   -0.20   14.30
   2   4 -17   44.00   41.20
   2   4 -17  -29.10   14.90
  -2  -4  17   17.70   12.60
   1   4 -17  659.93   60.59
   1   4 -17  617.84   93.59
  -1  -4  17  683.13   58.69
   0   4 -17  297.87   32.30
   0   4 -17  338.17   60.09
   0  -4  17  286.07   31.00
  -1   4 -17   -1.10   16.20
   1  -4  17   32.30   13.50
  -2   4 -17  182.28   25.80
   2  -4  17  181.58   23.70
   3  -4  17   24.00   17.30
   4  -4  17   27.00   19.50
   5   3 -17   23.80   14.80
   4   3 -17   49.10   37.20
   4   3 -17   12.30   16.90
  -4  -3  17    6.40   13.60
   3   3 -17   18.60   30.20
   3   3 -17  -12.80   11.70
  -3  -3  17   21.00   12.90
   2   3 -17  281.27   29.30
   2   3 -17  389.36   49.40
  -2  -3  17  239.98   26.10
  -2  -3  17  270.67   29.40
   1   3 -17   51.49   33.40
   1   3 -17   66.19   14.60
  -1  -3  17   47.40   11.10
  -1  -3  17   49.00   10.00
   0   3 -17  375.56   38.90
   0   3 -17  407.86   57.29
   0  -3  17  395.06   36.70
  -1   3 -17  200.28   42.40
  -1   3 -17  179.38   23.40
   1  -3  17  166.28   21.00
  -2   3 -17   -5.70   14.40
   2  -3  17   22.70   13.30
  -3   3 -17   35.90   17.40
   3  -3  17   57.29   16.40
   4  -3  17   15.10   17.00
   5  -3  17   -6.00   19.30
   5   2 -17   12.20   33.80
   4   2 -17   14.20   31.50
   3   2 -17   13.60   12.50
   3   2 -17  -54.09   27.90
  -3  -2  17    5.90   11.10
   2   2 -17    9.90   12.00
   2   2 -17   61.39   25.70
   2   2 -17   21.30    8.30
  -2  -2  17   20.80   10.60
   1   2 -17  287.47   44.10
   1   2 -17  304.37   31.50
  -1  -2  17  303.67   29.50
  -1  -2  17  293.07   28.30
  -1  -2  17  341.47   36.40
   0   2 -17    4.80   21.70
   0   2 -17   17.30   12.70
   0  -2  17   20.30   12.40
   0  -2  17   20.70    9.60
  -1   2 -17  284.87   29.10
   1  -2  17  259.57   28.60
  -2   2 -17  321.67   33.80
   2  -2  17  302.97   31.70
  -3   2 -17  285.37   32.00
   3  -2  17  329.67   32.80
  -4   2 -17   82.39   20.00
   4  -2  17   54.59   18.50
   5  -2  17    7.30   18.80
   5   1 -17   12.90   27.70
   4   1 -17   44.30   26.80
   3   1 -17   33.40   22.90
   2   1 -17  975.70   86.09
   2   1 -17 1041.60   91.39
   2   1 -17 1067.09   86.59
   2   1 -17  935.41   84.89
  -2  -1  17 1026.30   93.09
   1   1 -17  456.85   44.70
   1   1 -17  517.45   52.09
  -1  -1  17  490.05   43.00
  -1  -1  17  498.95   49.50
   0   1 -17   48.40   13.10
   0   1 -17   46.10   20.60
   0  -1  17   -9.40   16.20
   0  -1  17   34.30    9.80
  -1   1 -17   34.40   14.40
   1  -1  17   27.30   10.90
   1  -1  17   33.30   15.30
  -2   1 -17   48.50   15.10
   2  -1  17   47.50   12.80
  -3   1 -17  137.79   19.40
   3  -1  17  110.59   18.60
  -4   1 -17   26.20   18.60
   4  -1  17   55.69   15.90
  -5   1 -17   42.70   23.90
   5  -1  17    3.70   16.90
   5   0 -17  112.49   38.50
   4   0 -17   26.80   20.50
   3   0 -17   73.09   21.90
   2   0 -17  359.56   35.80
   2   0 -17  314.67   31.20
   2   0 -17  341.97   31.60
   2   0 -17  312.57   29.20
  -2   0  17  279.17   35.70
   1   0 -17  822.22   66.19
   1   0 -17  723.33   66.59
   1   0 -17  860.81   70.89
   1   0 -17  778.72   67.19
  -1   0  17  778.62   65.99
  -1   0  17  678.53   69.89
   0   0 -17  239.58   24.80
   0   0  17  257.47   29.10
   0   0  17  199.38   23.60
  -1   0 -17 3242.08  267.27
   1   0  17 3142.99  266.77
  -2   0 -17  255.87   29.10
   2   0  17  301.57   28.80
  -3   0 -17   67.29   17.70
   3   0  17   78.49   15.60
  -4   0 -17   -1.50   18.70
   4   0  17   28.10   15.10
  -5   0 -17   20.90   23.10
   5   0  17   17.50   16.60
   5  -1 -17  -25.40   29.00
   4  -1 -17   59.89   22.30
   3  -1 -17  614.24   57.69
   2  -1 -17  237.58   25.00
   2  -1 -17  222.18   24.00
   2  -1 -17  239.68   23.00
   1  -1 -17  483.85   42.70
  -1   1  17  500.85   41.70
  -1   1  17  447.96   43.50
   0  -1 -17  612.34   55.09
   0   1  17  614.24   54.19
   0   1  17  624.14   55.59
  -1  -1 -17  178.78   21.00
   1   1  17  128.19   17.40
  -2  -1 -17  244.58   26.20
   2   1  17  193.48   23.00
  -3  -1 -17   17.50   15.20
  -3  -1 -17  -12.00   15.50
   3   1  17   -4.40   11.60
  -4  -1 -17   17.50   18.30
   4   1  17   47.60   15.50
  -5  -1 -17   17.40   25.10
   5   1  17    0.90   16.60
   5  -2 -17   36.10   41.00
   4  -2 -17   41.30   27.10
   3  -2 -17   24.70   21.20
   3  -2 -17   43.50   12.20
   2  -2 -17   73.59   12.60
   2  -2 -17   62.19   12.80
   2  -2 -17   59.09   20.50
   1  -2 -17   63.49   18.20
   1  -2 -17   47.50   12.60
  -1   2  17   88.59   11.30
   0  -2 -17  614.14   56.49
   0  -2 -17  557.54   53.69
   0   2  17  634.54   53.29
  -1  -2 -17  269.87   28.80
   1   2  17  271.97   28.60
  -2  -2 -17   96.09   18.90
   2   2  17   69.09   14.30
  -3  -2 -17    1.00   15.50
  -3  -2 -17   14.90   13.40
  -3  -2 -17    9.70   19.30
   3   2  17    5.60   12.20
  -4  -2 -17   19.60   18.20
  -4  -2 -17   -4.00   15.50
   4   2  17   -8.50   13.10
  -5  -2 -17   18.00   22.90
   5   2  17   21.10   16.80
   5  -3 -17  -34.10   37.70
   4  -3 -17    9.40   14.60
   4  -3 -17  -13.80   34.10
   3  -3 -17  191.48   21.80
   3  -3 -17   85.89   29.20
   2  -3 -17   28.50   12.90
   2  -3 -17   28.40   21.00
   1  -3 -17   34.60   19.60
   1  -3 -17   54.79   13.70
  -1   3  17   62.29   12.10
   0  -3 -17  385.36   35.70
   0  -3 -17  406.96   42.30
   0   3  17  274.17   41.20
   0   3  17  370.56   34.20
  -1  -3 -17  123.49   17.70
   1   3  17   90.59   16.10
   1   3  17   72.09   28.70
  -2  -3 -17   48.60   18.10
  -2  -3 -17   22.60   16.20
   2   3  17   19.50   29.90
   2   3  17   30.30   13.40
  -3  -3 -17   -4.00   16.40
  -3  -3 -17   25.50   17.00
  -3  -3 -17   18.30   28.00
   3   3  17    1.30   33.50
   3   3  17   14.80   13.80
  -4  -3 -17  -13.70   20.30
  -4  -3 -17    9.00   19.40
   4   3  17   -5.30   14.30
   4   3  17   -6.70   43.70
   4  -4 -17   43.20   42.30
   4  -4 -17   36.20   18.30
   3  -4 -17   24.40   18.40
   3  -4 -17   25.10   28.30
   2  -4 -17   -2.50   14.90
   2  -4 -17    2.50   27.90
   1  -4 -17  172.28   34.30
   1  -4 -17  141.49   22.10
  -1   4  17  170.68   20.20
   0  -4 -17  526.15   47.90
   0  -4 -17  564.74   56.89
   0   4  17  498.25   46.70
   0   4  17  410.36   57.99
  -1  -4 -17  130.99   21.60
  -1  -4 -17   96.49   24.00
   1   4  17   66.19   37.70
   1   4  17  123.79   19.30
  -2  -4 -17   44.70   20.00
  -2  -4 -17   34.70   18.40
   2   4  17   29.90   17.50
   2   4  17   11.10   36.60
  -3  -4 -17    9.30   19.30
  -3  -4 -17   17.10   19.70
   3   4  17    7.50   16.80
   3   4  17   -3.50   42.40
  -4  -4 -17  -17.80   21.50
   4   4  17    3.10   16.20
   3  -5 -17   35.70   21.70
   3  -5 -17   31.20   38.40
   2  -5 -17   42.10   22.20
   2  -5 -17   59.59   37.20
   1  -5 -17   56.89   20.50
   1  -5 -17   38.70   34.80
   0  -5 -17   11.20   20.20
   0  -5 -17   11.50   21.70
   0   5  17   32.80   16.90
  -1  -5 -17   -2.40   20.70
  -1  -5 -17   -3.10   21.50
   1   5  17    5.90   17.60
  -2  -5 -17  -45.30   22.40
  -2  -5 -17  -13.30   21.00
   2   5  17   12.50   19.40
  -3  -5 -17   20.10   22.70
   3   5  17  -11.60   19.50
   3   5  17   36.30   42.90
   2  -6 -17   41.00   26.10
   2  -6 -17   84.19   45.40
   1  -6 -17  107.29   29.70
   0  -6 -17    4.20   23.50
  -1  -6 -17  -16.50   26.50
  -1  -6 -17  -23.80   23.70
   1   6  17   -7.40   18.60
   2   6 -18  -32.50   17.10
   1   6 -18   40.90   22.40
   0   6 -18   81.19   26.20
   0   6 -18  209.58   85.39
   0  -6  18   76.99   18.20
  -1   6 -18   14.90   23.00
   1  -6  18   22.80   16.00
   2  -6  18   58.09   19.60
   3  -6  18   16.00   21.90
   3   5 -18   -5.90   16.30
   2   5 -18   58.59   50.29
   2   5 -18   29.90   17.90
  -2  -5  18   29.00   16.50
   1   5 -18   49.90   56.09
   1   5 -18   12.90   17.80
  -1  -5  18    1.80   12.20
   0   5 -18  127.89   23.70
   0   5 -18   50.59   73.09
   0  -5  18  104.29   17.30
  -1   5 -18  305.97   86.59
  -1   5 -18  274.27   33.20
   1  -5  18  216.98   28.50
  -2   5 -18  235.28   33.40
   2  -5  18  246.78   30.00
   3  -5  18   86.09   22.60
   4  -5  18  -17.40   21.00
   4   4 -18   14.90   17.20
   3   4 -18  128.49   40.20
   3   4 -18   43.60   18.20
  -3  -4  18   27.10   16.40
   2   4 -18  180.08   47.40
   2   4 -18   82.19   18.90
  -2  -4  18   73.89   16.20
   1   4 -18   62.29   38.70
   1   4 -18   64.49   16.30
  -1  -4  18   74.39   14.30
  -1  -4  18   64.29   12.90
   0   4 -18  -33.60   42.10
   0   4 -18   11.10   15.60
   0  -4  18   48.00   12.30
  -1   4 -18  466.35   88.99
  -1   4 -18  305.07   35.50
   1  -4  18  318.17   33.30
  -2   4 -18   42.70   18.90
   2  -4  18   38.00   16.00
   3  -4  18   25.10   17.70
   4  -4  18   54.89   21.20
   4   3 -18    5.40   18.10
   4   3 -18   38.70   37.60
  -4  -3  18   -0.30   14.20
   3   3 -18   41.90   14.50
   3   3 -18   81.09   34.40
  -3  -3  18   23.20   13.50
   2   3 -18   86.89   17.00
   2   3 -18  106.39   33.30
  -2  -3  18  131.09   15.70
  -2  -3  18   70.49   15.10
   1   3 -18   16.90   29.70
   1   3 -18   23.60   13.50
  -1  -3  18   42.90   10.70
  -1  -3  18   30.10    9.30
   0   3 -18 1575.54  168.68
   0   3 -18 1929.91  156.18
   0  -3  18 1955.70  155.08
  -1   3 -18  233.98   26.90
   1  -3  18  219.78   25.00
  -2   3 -18   25.30   15.70
   2  -3  18   12.70   13.90
  -3   3 -18   25.10   17.00
   3  -3  18   31.90   16.00
   4  -3  18   10.00   17.20
   5  -3  18   38.10   20.60
   5   2 -18   63.39   37.20
   4   2 -18   94.49   34.30
   3   2 -18  287.07   42.90
   3   2 -18  240.78   27.70
  -3  -2  18  263.97   27.60
   2   2 -18   57.09   25.70
   2   2 -18   20.60   12.10
  -2  -2  18    9.80   10.10
   1   2 -18  501.55   55.79
   1   2 -18  441.46   43.30
  -1  -2  18  467.65   41.90
  -1  -2  18  513.75   48.70
  -1  -2  18  423.06   41.00
   0   2 -18    7.10   22.70
   0   2 -18   17.40   14.00
   0  -2  18    7.00    9.10
   0  -2  18   16.60   11.90
  -1   2 -18  581.14   53.59
   1  -2  18  586.84   52.69
  -2   2 -18  125.59   19.20
   2  -2  18  113.19   18.70
  -3   2 -18   33.50   15.60
   3  -2  18    0.60   15.00
  -4   2 -18    4.00   18.30
   4  -2  18   19.40   17.50
   5  -2  18   -3.70   19.20
   5   1 -18   40.00   30.60
   4   1 -18    0.60   26.40
   3   1 -18   73.09   25.30
   2   1 -18   81.59   15.00
   2   1 -18  115.99   14.60
   2   1 -18   82.59   11.20
   2   1 -18   81.19   25.30
  -2  -1  18   84.29   23.40
   1   1 -18  426.06   45.20
   1   1 -18  346.27   36.90
  -1  -1  18  359.66   34.20
  -1  -1  18  397.56   41.80
   0   1 -18  534.05   59.89
   0   1 -18  562.04   51.09
   0  -1  18  560.54   53.69
   0  -1  18  582.44   49.90
  -1   1 -18   99.39   17.00
   1  -1  18   75.69   19.10
   1  -1  18   69.09   13.50
  -2   1 -18  475.15   44.30
   2  -1  18  433.06   42.70
  -3   1 -18   -1.50   15.40
   3  -1  18   -9.40   13.10
  -4   1 -18   73.89   21.30
   4  -1  18   94.39   18.10
  -5   1 -18  -30.60   22.10
   5  -1  18    0.80   17.20
   4   0 -18   22.30   21.40
   3   0 -18   46.00   19.30
   2   0 -18  115.99   20.80
   2   0 -18  105.19   12.80
   2   0 -18  101.39   15.50
   2   0 -18  119.39   15.30
  -2   0  18  103.19   21.30
   1   0 -18  924.31   74.09
   1   0 -18  790.42   71.09
  -1   0  18  810.32   69.99
  -1   0  18  744.23   74.69
   0   0 -18 1212.58  102.59
   0   0  18 1149.89  101.59
   0   0  18 1233.78  104.69
  -1   0 -18  125.19   19.10
   1   0  18  133.79   16.70
  -2   0 -18   12.10   14.20
   2   0  18   14.90   11.90
  -3   0 -18  -26.80   16.10
   3   0  18   13.10   13.40
  -4   0 -18   34.70   19.70
   4   0  18   35.60   16.00
  -5   0 -18    8.40   24.50
   5   0  18    6.70   16.60
   5  -1 -18   45.80   33.80
   3  -1 -18  106.99   18.40
   2  -1 -18  124.09   17.10
   2  -1 -18   98.19   13.40
   2  -1 -18  111.19   15.00
   1  -1 -18 1426.66  118.19
  -1   1  18 1432.66  117.59
  -1   1  18 1342.17  119.29
   0  -1 -18  263.67   26.60
   0   1  18  249.68   25.10
   0   1  18  221.08   26.50
  -1  -1 -18  546.45   50.09
   1   1  18  526.25   48.30
  -2  -1 -18  359.36   36.90
   2   1  18  313.47   33.30
  -3  -1 -18   38.40   17.30
  -3  -1 -18   17.50   15.60
   3   1  18   17.80   12.90
  -4  -1 -18   24.70   19.40
   4   1  18   14.10   15.00
  -5  -1 -18   12.30   26.90
   5   1  18   10.70   17.70
   5  -2 -18   56.29   37.90
   4  -2 -18   71.59   31.70
   3  -2 -18   10.00   11.90
   3  -2 -18   30.60   22.90
   2  -2 -18  885.81   76.49
   2  -2 -18  974.40   79.29
   2  -2 -18  798.02   81.59
   1  -2 -18  296.47   29.30
   1  -2 -18  266.67   32.80
  -1   2  18  291.77   28.00
   0  -2 -18  249.88   29.30
   0  -2 -18  289.37   32.50
   0   2  18  315.07   28.80
  -1  -2 -18  345.17   36.70
   1   2  18  350.76   34.60
  -2  -2 -18   18.80   17.20
   2   2  18   24.90   12.10
  -3  -2 -18   -2.90   15.30
  -3  -2 -18   10.00   13.60
  -3  -2 -18  -18.20   19.70
   3   2  18   -2.00   12.50
  -4  -2 -18   37.30   19.10
  -4  -2 -18    9.60   16.00
   4   2  18   -0.60   13.90
  -5  -2 -18  -28.70   24.30
   5   2  18  -15.80   17.30
   5  -3 -18  -23.30   44.80
   4  -3 -18    8.80   33.60
   4  -3 -18   37.10   15.90
   3  -3 -18  127.99   20.10
   3  -3 -18  107.49   31.10
   2  -3 -18  279.97   38.70
   2  -3 -18  333.47   33.10
   1  -3 -18  205.48   22.50
   1  -3 -18  152.18   29.80
  -1   3  18  186.18   21.40
   0  -3 -18  132.99   24.40
   0  -3 -18  122.69   18.40
   0   3  18   89.89   25.10
   0   3  18  121.69   17.00
  -1  -3 -18  387.66   37.10
   1   3  18  366.86   35.60
   1   3  18  301.97   46.70
  -2  -3 -18   17.90   15.80
  -2  -3 -18   34.60   18.50
   2   3  18   -2.60   27.30
   2   3  18   -8.20   12.70
  -3  -3 -18   -2.90   33.10
  -3  -3 -18   16.30   17.80
  -3  -3 -18    1.60   16.70
   3   3  18   -1.10   34.00
   3   3  18    4.90   14.60
  -4  -3 -18    6.50   19.40
  -4  -3 -18   -7.10   18.90
   4   3  18    2.30   43.90
   4   3  18   -7.10   15.20
   4  -4 -18    6.00   43.20
   3  -4 -18  -13.30   17.70
   3  -4 -18   27.70   30.20
   2  -4 -18   71.99   31.20
   2  -4 -18   48.90   17.50
   1  -4 -18   83.59   30.50
   1  -4 -18   70.49   18.10
  -1   4  18   82.79   15.60
   0  -4 -18   -6.20   15.10
   0  -4 -18   28.60   22.90
   0   4  18  -27.60   24.20
   0   4  18   13.70   13.10
  -1  -4 -18   17.20   18.00
  -1  -4 -18   33.50   18.80
   1   4  18   21.80   33.90
   1   4  18   11.60   14.90
  -2  -4 -18   16.40   20.20
  -2  -4 -18   12.30   18.70
   2   4  18   48.90   16.70
   2   4  18   28.10   35.90
  -3  -4 -18   16.00   20.10
  -3  -4 -18   -4.60   19.50
   3   4  18    8.80   38.50
   3   4  18   45.90   17.30
   3  -5 -18   -8.40   38.00
   3  -5 -18   -1.40   20.80
   2  -5 -18    7.60   33.70
   2  -5 -18   62.39   20.60
   1  -5 -18   12.60   18.60
   1  -5 -18   61.69   34.10
   0  -5 -18  174.68   29.20
   0  -5 -18  225.08   33.10
   0   5  18  214.18   27.90
  -1  -5 -18  141.49   28.00
  -1  -5 -18   96.09   27.70
   1   5  18  141.79   23.60
  -2  -5 -18   47.70   24.20
  -2  -5 -18   44.40   26.70
   2   5  18   35.70   20.20
   2  -6 -18  133.49   47.40
   2  -6 -18  122.49   30.10
   1  -6 -18   -7.30   23.10
   0  -6 -18   -4.60   23.50
  -1  -6 -18   17.40   26.80
  -1  -6 -18   32.30   25.70
   1   6  18   -3.40   20.50
   2   6 -19   13.10   19.50
   1   6 -19  204.58   31.50
   0   6 -19  105.29   25.50
   0  -6  19   61.59   18.00
  -1   6 -19   -7.60   22.60
   1  -6  19   17.20   15.80
   2  -6  19   28.90   21.80
   3  -6  19    7.90   20.60
   3   5 -19   -8.10   20.80
   2   5 -19   67.69   57.09
   2   5 -19   59.59   19.80
  -2  -5  19    6.30   16.40
   1   5 -19  -16.40   51.49
   1   5 -19    8.30   20.30
  -1  -5  19    8.40   12.50
   0   5 -19   23.60   62.49
   0   5 -19   76.89   21.60
   0  -5  19   39.00   14.40
  -1   5 -19  173.28   27.70
   1  -5  19  150.98   23.40
  -2   5 -19   80.49   23.50
   2  -5  19   54.49   19.50
   3  -5  19   18.10   19.90
   4  -5  19    3.10   22.50
   4   4 -19   32.10   20.80
   3   4 -19  122.39   42.20
   3   4 -19   29.00   18.10
  -3  -4  19   16.40   15.00
   2   4 -19   40.50   15.20
   2   4 -19   68.79   46.80
  -2  -4  19   23.30   13.30
   1   4 -19  274.17   55.19
   1   4 -19  184.18   25.10
  -1  -4  19  189.58   22.60
  -1  -4  19  209.68   22.50
   0   4 -19  -41.60   51.49
   0   4 -19   24.40   16.00
   0  -4  19   16.00   11.50
  -1   4 -19  440.86   76.99
  -1   4 -19  409.06   41.20
   1  -4  19  358.96   39.40
  -2   4 -19   87.79   21.30
   2  -4  19   92.29   19.20
   3  -4  19   17.40   18.30
   4  -4  19   19.80   20.30
   4   3 -19   31.30   36.00
   4   3 -19   -3.50   16.00
  -4  -3  19    4.40   14.40
   3   3 -19   24.00   15.60
   3   3 -19   86.49   33.80
  -3  -3  19   35.20   14.10
   2   3 -19   78.69   41.90
   2   3 -19   40.90   15.10
  -2  -3  19   42.50   12.70
   1   3 -19  260.37   26.60
   1   3 -19  311.47   50.29
  -1  -3  19  212.48   23.20
  -1  -3  19  213.38   24.10
   0   3 -19   33.20   14.40
   0   3 -19   10.30   31.60
   0  -3  19   56.99   12.40
   0  -3  19   29.00   10.60
  -1   3 -19   44.30   16.70
   1  -3  19   54.99   13.70
  -2   3 -19  486.35   46.50
   2  -3  19  435.66   44.60
  -3   3 -19   40.90   19.00
   3  -3  19   54.69   17.10
   4  -3  19    6.20   17.70
   5  -3  19   44.30   21.70
   5   2 -19  119.29   40.90
   4   2 -19   34.10   29.50
   3   2 -19  112.29   30.60
   3   2 -19   78.79   15.80
   2   2 -19  708.73   68.69
   2   2 -19  570.04   55.59
  -2  -2  19  598.44   54.79
   1   2 -19  277.27   40.30
   1   2 -19  212.28   24.20
  -1  -2  19  195.08   22.20
  -1  -2  19  232.18   23.40
   0   2 -19  733.53   65.99
   0   2 -19  705.43   76.39
   0  -2  19  775.72   64.69
  -1   2 -19  818.72   69.29
   1  -2  19  741.43   68.29
  -2   2 -19   80.59   17.00
   2  -2  19   52.69   15.90
  -3   2 -19   67.49   17.70
   3  -2  19   53.29   17.30
  -4   2 -19   45.60   19.50
   4  -2  19   18.40   18.40
   5  -2  19    7.70   19.30
   5   1 -19   46.40   31.30
   4   1 -19    7.70   26.70
   3   1 -19  -17.60   23.70
   2   1 -19 1047.40   85.19
   2   1 -19  991.90   78.59
   2   1 -19  733.93   76.69
   2   1 -19  806.12   78.19
  -2  -1  19 1016.40   86.39
   1   1 -19   26.00   21.10
   1   1 -19  -13.40   12.50
  -1  -1  19   13.00   15.30
  -1  -1  19    3.50    7.30
   0   1 -19  315.67   33.40
   0  -1  19  300.57   34.60
   0  -1  19  349.57   31.40
  -1   1 -19    7.30   14.90
   1  -1  19    7.20   14.60
   1  -1  19   17.90   11.10
  -2   1 -19  133.39   20.40
   2  -1  19  127.59   18.40
  -3   1 -19   51.89   18.00
   3  -1  19   86.99   16.50
  -4   1 -19    1.10   18.60
   4  -1  19   -1.60   15.10
  -5   1 -19  -12.30   22.80
   5  -1  19  -27.00   16.90
   4   0 -19   49.10   23.80
   3   0 -19  256.57   33.50
   2   0 -19  110.39   14.60
   2   0 -19  148.49   16.70
   2   0 -19  128.29   17.30
   2   0 -19  155.48   24.60
  -2   0  19  122.19   23.00
   1   0 -19  388.36   39.60
   1   0 -19  469.85   44.30
  -1   0  19  373.66   43.00
  -1   0  19  449.46   37.80
   0   0 -19 1387.86  120.89
   0   0  19 1400.16  120.09
   0   0  19 1466.25  123.09
  -1   0 -19   34.70   14.80
   1   0  19   55.29   12.50
   1   0  19   36.70   17.20
  -2   0 -19   28.30   14.90
   2   0  19   23.60   12.90
  -3   0 -19   94.19   20.20
   3   0  19   75.99   16.80
  -4   0 -19    3.10   18.90
   4   0  19    6.50   15.20
  -5   0 -19    8.20   25.20
   5   0  19   34.60   18.50
   5  -1 -19   16.60   30.50
   3  -1 -19   16.90   10.70
   2  -1 -19   82.19   13.50
   2  -1 -19   77.69   11.90
   2  -1 -19   89.59   14.40
   1  -1 -19  217.78   21.50
  -1   1  19  204.18   20.30
  -1   1  19  175.68   22.50
   0  -1 -19  338.97   37.90
   0   1  19  405.56   38.60
   0   1  19  395.76   36.30
  -1  -1 -19  408.16   41.40
   1   1  19  413.66   39.00
  -2  -1 -19   88.99   19.10
   2   1  19   62.99   14.50
  -3  -1 -19    4.20   15.10
  -3  -1 -19    3.30   17.30
   3   1  19    2.60   13.20
  -4  -1 -19   11.90   19.30
   4   1  19   18.40   15.50
  -5  -1 -19   22.60   26.30
   5   1  19  -15.30   18.00
   5  -2 -19  -24.80   37.30
   4  -2 -19   -9.70   26.10
   3  -2 -19   18.90   24.70
   3  -2 -19   10.80   12.30
   2  -2 -19   68.69   22.60
   2  -2 -19   44.20   13.20
   1  -2 -19  583.54   61.99
   1  -2 -19  652.73   56.89
  -1   2  19  664.43   56.29
   0  -2 -19  957.40   85.09
   0  -2 -19  898.31   81.89
   0   2  19  980.20   81.59
  -1  -2 -19  122.29   19.30
   1   2  19  114.19   16.70
  -2  -2 -19  164.48   22.50
   2   2  19   84.49   17.30
  -3  -2 -19    1.00   16.20
  -3  -2 -19    5.10   13.70
  -3  -2 -19   10.00   20.80
   3   2  19    4.90   13.10
  -4  -2 -19   30.40   18.90
  -4  -2 -19   -7.60   15.70
   4   2  19   -4.30   14.20
   4  -3 -19    5.40   32.60
   4  -3 -19    4.30   15.60
   3  -3 -19  237.28   28.20
   3  -3 -19  214.78   36.40
   2  -3 -19   91.79   17.90
   2  -3 -19   54.39   25.30
   1  -3 -19  226.48   31.80
   1  -3 -19  229.38   26.30
  -1   3  19  249.18   24.80
   0  -3 -19   17.40   19.50
   0  -3 -19    2.20   14.00
   0   3  19   14.90   12.40
   0   3  19   -3.90   19.00
  -1  -3 -19  139.09   20.60
   1   3  19  142.49   18.80
   1   3  19   87.49   30.10
  -2  -3 -19  114.19   21.90
  -2  -3 -19   52.39   18.80
   2   3  19   92.99   17.40
   2   3  19   55.99   36.40
  -3  -3 -19   -1.20   16.80
  -3  -3 -19   -2.30   17.10
   3   3  19  -10.10   34.30
   3   3  19   20.30   15.20
  -4  -3 -19  -15.30   19.50
  -4  -3 -19    4.60   19.40
   4   3  19   19.00   17.70
   4  -4 -19   -6.40   37.50
   3  -4 -19   81.49   37.40
   3  -4 -19   78.59   20.70
   2  -4 -19   87.89   32.90
   2  -4 -19  126.29   21.80
   1  -4 -19  181.08   26.90
   1  -4 -19  152.68   37.30
  -1   4  19  220.08   23.90
   0  -4 -19   21.20   24.10
   0  -4 -19   -4.90   17.10
   0   4  19    9.10   13.20
  -1  -4 -19   47.10   19.60
  -1  -4 -19   43.10   19.40
   1   4  19   36.50   15.90
  -2  -4 -19   10.30   20.10
  -2  -4 -19    7.20   18.40
   2   4  19   20.40   41.30
   2   4  19    3.50   15.70
  -3  -4 -19  -17.50   19.80
  -3  -4 -19  -11.80   19.20
   3   4  19   14.80   42.00
   3   4  19  -18.00   16.20
   3  -5 -19   66.69   23.50
   3  -5 -19   15.60   38.80
   2  -5 -19   -4.80   17.70
   2  -5 -19   19.00   37.50
   1  -5 -19   25.80   20.30
   1  -5 -19   48.20   34.80
   0  -5 -19   97.09   28.60
   0  -5 -19  162.18   26.70
   0   5  19  105.89   21.60
  -1  -5 -19  -13.60   23.40
  -1  -5 -19   19.40   23.40
   1   5  19   10.00   18.50
  -2  -5 -19   28.30   27.00
  -2  -5 -19   19.50   23.20
   2   5  19   61.59   21.80
   1  -6 -19   -5.90   23.30
   0  -6 -19   10.60   24.60
  -1  -6 -19   40.70   30.90
   2   6 -20   -2.60   19.30
   1   6 -20    5.90   22.20
   0   6 -20   10.90   22.40
   0  -6  20   10.50   15.60
  -1   6 -20   71.79   28.40
   1  -6  20   60.89   18.30
   2  -6  20   20.50   20.80
   3   5 -20   12.50   18.50
   2   5 -20   89.49   62.09
   2   5 -20   53.49   22.00
  -2  -5  20   88.69   19.10
   1   5 -20  132.09   57.09
   1   5 -20  123.39   23.70
  -1  -5  20   92.39   19.30
   0   5 -20  538.15   90.79
   0   5 -20  451.65   45.50
   0  -5  20  352.06   40.50
  -1   5 -20  120.49   59.89
  -1   5 -20  159.98   27.10
   1  -5  20  130.29   21.90
  -2   5 -20  -22.30   20.80
   2  -5  20   17.40   17.90
   3  -5  20   17.10   19.80
   4   4 -20   12.90   18.60
   3   4 -20  159.78   46.80
   3   4 -20   89.49   21.80
  -3  -4  20   40.20   17.20
   2   4 -20   -0.90   14.20
   2   4 -20   16.50   54.99
  -2  -4  20    4.40   12.60
   1   4 -20   89.59   57.29
   1   4 -20   89.89   19.60
  -1  -4  20  118.99   16.00
  -1  -4  20  125.89   16.80
   0   4 -20  104.09   55.29
   0   4 -20  133.39   22.00
   0  -4  20  122.09   17.50
  -1   4 -20   95.59   20.60
  -1   4 -20  115.09   46.40
   1  -4  20   83.69   17.30
  -2   4 -20  112.29   23.10
   2  -4  20  103.49   20.30
   3  -4  20  105.39   22.40
   4  -4  20   -4.80   20.10
   4   3 -20   75.89   36.70
   4   3 -20   -1.00   18.10
  -4  -3  20   41.80   16.10
   3   3 -20   80.19   34.30
   3   3 -20    9.30   15.30
  -3  -3  20   18.70   13.50
   2   3 -20   31.40   15.60
   2   3 -20  113.39   37.50
  -2  -3  20   65.19   13.50
   1   3 -20  359.96   38.50
   1   3 -20  473.25   59.69
  -1  -3  20  388.66   36.60
  -1  -3  20  376.16   36.20
   0   3 -20  -11.90   34.20
   0   3 -20   30.50   14.70
   0  -3  20   19.70   11.40
   0  -3  20   35.30   11.00
  -1   3 -20   71.39   17.70
   1  -3  20   43.50   14.30
  -2   3 -20  274.77   31.40
   2  -3  20  257.67   29.50
  -3   3 -20    3.20   17.50
   3  -3  20   27.20   16.60
   4  -3  20   10.10   18.10
   5  -3  20   35.40   21.20
   5   2 -20   96.09   36.80
   4   2 -20   47.30   30.00
   3   2 -20   20.80   13.20
   3   2 -20   55.19   28.90
   2   2 -20  323.97   46.60
   2   2 -20  244.88   28.90
  -2  -2  20  277.37   28.50
   1   2 -20   51.09   13.90
   1   2 -20   55.99   28.50
  -1  -2  20   36.40    9.50
  -1  -2  20   19.90    8.20
   0   2 -20  446.06   59.09
   0   2 -20  519.65   46.50
   0  -2  20  482.05   43.90
  -1   2 -20   24.50   15.60
   1  -2  20   49.40   13.40
  -2   2 -20  142.89   21.50
   2  -2  20  139.89   20.80
  -3   2 -20  195.08   24.40
   3  -2  20  132.79   23.00
  -4   2 -20   -1.70   19.20
   4  -2  20  -32.20   17.10
   5  -2  20   -4.00   20.10
   5   1 -20   56.39   36.70
   4   1 -20    7.60   25.50
   3   1 -20   96.59   26.70
   3   1 -20   76.19   15.30
   2   1 -20  240.68   23.40
   2   1 -20  230.68   24.60
   2   1 -20  278.47   36.50
   2   1 -20  164.58   20.80
  -2  -1  20  228.08   34.40
   1   1 -20  735.83   65.49
   1   1 -20  595.94   57.89
  -1  -1  20  661.53   55.79
  -1  -1  20  588.64   62.69
   0   1 -20  275.37   28.00
   0  -1  20  280.87   26.80
   0  -1  20  231.58   29.90
  -1   1 -20  411.56   40.00
   1  -1  20  429.16   37.90
   1  -1  20  349.47   43.30
  -2   1 -20   86.69   19.00
   2  -1  20  118.89   17.50
  -3   1 -20    0.60   17.00
   3  -1  20  -12.90   13.70
  -4   1 -20   65.09   22.30
   4  -1  20  102.19   19.30
  -5   1 -20   44.70   25.80
   5  -1  20   49.10   20.20
   4   0 -20   51.09   24.40
   3   0 -20   13.60   11.90
   2   0 -20   34.10   11.10
   2   0 -20   23.40   12.70
   2   0 -20   18.60    9.10
   2   0 -20   46.10   17.50
  -2   0  20   34.10   17.20
   1   0 -20   69.79   19.70
   1   0 -20   83.69   15.40
  -1   0  20   88.69   12.00
  -1   0  20   90.19   19.20
   0   0 -20  130.59   19.20
   0   0  20  150.98   16.30
   0   0  20  123.19   19.90
  -1   0 -20  945.21   78.29
   1   0  20  901.91   77.09
   1   0  20  837.42   81.69
  -2   0 -20  339.07   35.20
   2   0  20  300.67   33.20
  -3   0 -20    4.70   18.10
   3   0  20   21.90   14.30
  -4   0 -20    8.30   19.30
   4   0  20   37.50   16.80
  -5   0 -20   35.80   26.40
   5   0  20   11.10   17.40
   5  -1 -20   -0.90   33.00
   3  -1 -20   56.79   15.20
   3  -1 -20   29.70   12.30
   2  -1 -20  775.02   66.29
   2  -1 -20  767.12   65.59
   2  -1 -20  746.93   66.29
   1  -1 -20    6.20   11.20
  -1   1  20    9.60    7.90
  -1   1  20    3.30   12.10
   0  -1 -20  202.38   24.90
   0   1  20  247.68   23.80
   0   1  20  225.38   27.00
  -1  -1 -20  539.05   49.80
   1   1  20  498.65   47.40
  -2  -1 -20  257.27   28.20
   2   1  20  194.68   24.50
  -3  -1 -20   10.30   18.20
   3   1  20  -12.50   13.60
  -4  -1 -20   26.10   19.30
   4   1  20   11.40   16.30
  -5  -1 -20   18.00   24.50
   5   1  20   40.60   19.40
   5  -2 -20  -12.20   35.00
   4  -2 -20  -12.10   28.10
   3  -2 -20  -11.10   23.00
   3  -2 -20    5.40   12.90
   2  -2 -20   60.59   14.00
   2  -2 -20   53.09   21.80
   1  -2 -20  940.61   94.29
   1  -2 -20 1066.69   90.69
  -1   2  20 1128.29   90.29
   0  -2 -20  180.58   23.30
   0  -2 -20  195.08   27.40
   0   2  20  217.48   22.00
  -1  -2 -20  215.08   25.80
   1   2  20  195.78   23.00
  -2  -2 -20   48.50   19.90
   2   2  20   48.80   14.10
  -3  -2 -20   24.50   22.30
  -3  -2 -20   14.40   16.50
   3   2  20    7.00   13.90
  -4  -2 -20   15.70   19.40
   4   2  20   -2.40   16.10
   4  -3 -20   31.50   33.90
   4  -3 -20   58.69   18.20
   3  -3 -20   -7.10   16.30
   3  -3 -20  -36.20   27.70
   2  -3 -20   67.99   24.40
   2  -3 -20   64.99   17.20
   1  -3 -20  336.67   34.40
   1  -3 -20  286.97   37.50
  -1   3  20  307.77   31.00
   0  -3 -20  365.26   35.20
   0  -3 -20  357.96   39.40
   0   3  20  341.47   33.90
   0   3  20  273.17   40.30
  -1  -3 -20  149.49   24.80
  -1  -3 -20  154.08   22.00
   1   3  20   90.19   32.50
   1   3  20  125.79   19.30
  -2  -3 -20    5.90   20.30
  -2  -3 -20   -3.10   17.00
   2   3  20   29.50   15.20
   2   3  20   26.10   36.00
  -3  -3 -20    1.00   16.90
  -3  -3 -20   -9.50   16.50
   3   3  20  -10.10   14.70
   3   3  20  -10.80   33.40
  -4  -3 -20   10.80   19.40
   4   3  20  -23.60   15.70
   4  -4 -20  -22.40   35.40
   3  -4 -20   27.90   37.60
   3  -4 -20  -14.50   18.10
   2  -4 -20   27.80   28.70
   2  -4 -20   26.50   18.40
   1  -4 -20   65.19   30.00
   1  -4 -20   68.59   20.20
  -1   4  20   70.99   18.60
   0  -4 -20  175.68   25.90
   0  -4 -20  225.98   36.40
   0   4  20  165.58   24.30
  -1  -4 -20   -7.70   18.00
  -1  -4 -20   30.90   19.70
   1   4  20    3.20   15.00
  -2  -4 -20   44.10   22.10
  -2  -4 -20    0.60   19.70
   2   4  20   -6.10   16.50
   2   4  20    6.50   35.40
  -3  -4 -20   19.70   21.50
  -3  -4 -20    0.00   20.70
   3   4  20    0.20   40.60
   3   4  20   26.70   18.90
   3  -5 -20   81.19   24.80
   3  -5 -20   59.59   41.20
   2  -5 -20   15.60   37.80
   2  -5 -20    9.90   18.50
   1  -5 -20   48.60   33.50
   1  -5 -20   96.19   26.40
   0  -5 -20   13.40   21.60
   0  -5 -20   36.50   30.20
   0  -5 -20   18.00   24.10
   0   5  20   19.50   17.10
  -1  -5 -20   28.10   23.10
  -1  -5 -20   24.20   25.10
   1   5  20    4.70   17.10
  -2  -5 -20   -7.10   24.40
  -2  -5 -20  -12.40   25.10
   2   5  20   17.80   19.80
   1  -6 -20  -12.30   25.10
   0  -6 -20   18.30   27.30
   2   6 -21    8.50   21.70
   1   6 -21   14.70   22.40
   0   6 -21   55.39   24.70
   0  -6  21   21.20   15.60
  -1   6 -21   44.30   25.10
   1  -6  21   43.80   18.20
   2  -6  21   13.60   20.20
   3   5 -21   16.00   22.10
   2   5 -21   -7.00   20.10
  -2  -5  21   17.10   15.30
   1   5 -21  115.09   23.10
   1   5 -21   71.59   78.69
  -1  -5  21   75.69   17.10
   0   5 -21   91.49   24.00
   0   5 -21   83.39   65.49
   0  -5  21   81.79   16.70
  -1   5 -21   21.90   21.30
   1  -5  21   21.90   16.40
  -2   5 -21  132.19   28.20
   2  -5  21  143.29   24.60
   3  -5  21  -26.60   20.40
   4   4 -21  -29.50   20.40
   3   4 -21   -7.40   19.00
   3   4 -21   71.39   44.50
  -3  -4  21   21.90   15.80
   2   4 -21   77.69   49.60
   2   4 -21   51.39   17.90
  -2  -4  21   55.89   14.20
   1   4 -21  115.39   20.20
   1   4 -21   42.10   61.39
  -1  -4  21   84.09   14.80
  -1  -4  21  101.39   15.20
   0   4 -21  283.57   31.20
   0   4 -21  192.48   53.89
   0  -4  21  268.37   27.90
  -1   4 -21  421.96   71.49
  -1   4 -21  232.38   31.60
   1  -4  21  245.88   29.00
  -2   4 -21   45.50   20.30
   2  -4  21   34.80   17.50
   3  -4  21   43.50   19.60
   4  -4  21  -23.90   20.90
   4   3 -21  118.09   37.60
   4   3 -21   26.50   20.60
   3   3 -21   19.80   16.90
   3   3 -21  124.99   37.90
  -3  -3  21   12.70   13.80
   2   3 -21   29.40   34.40
   2   3 -21  -10.10   14.20
  -2  -3  21   13.20   11.60
   1   3 -21   43.20   34.50
   1   3 -21   35.70   14.50
  -1  -3  21   35.60   10.00
  -1  -3  21   46.40   10.80
   0   3 -21 1093.79   97.89
   0   3 -21  997.10  112.59
   0  -3  21 1249.47   97.19
  -1   3 -21  595.24   52.69
   1  -3  21  507.35   50.59
  -2   3 -21   -4.60   17.00
   2  -3  21   21.70   15.40
  -3   3 -21  119.99   23.70
   3  -3  21  128.19   21.90
   4  -3  21   41.50   20.30
   5   2 -21  122.99   43.20
   4   2 -21  120.49   33.40
   3   2 -21   56.89   27.30
   3   2 -21   24.70   14.20
   2   2 -21  -15.90   13.80
   2   2 -21   59.29   30.20
  -2  -2  21   11.60   10.30
   1   2 -21   65.29   15.50
   1   2 -21   86.49   31.10
  -1  -2  21   35.10    9.30
   0   2 -21  776.52   80.39
   0   2 -21  751.92   69.09
   0  -2  21  785.42   67.49
  -1   2 -21  368.46   38.70
   1  -2  21  367.86   36.80
  -2   2 -21   56.59   18.20
   2  -2  21   55.79   16.80
  -3   2 -21   48.80   19.20
   3  -2  21   56.69   17.80
  -4   2 -21    7.00   19.80
   4  -2  21   -2.00   18.40
   5  -2  21   16.40   20.40
   4   1 -21   82.19   28.10
   3   1 -21   16.90   13.30
   3   1 -21   78.19   24.00
   2   1 -21  646.14   65.79
   2   1 -21  785.02   73.99
   2   1 -21  823.62   65.89
  -2  -1  21  721.83   73.69
   1   1 -21  561.94   54.99
   1   1 -21  452.05   45.30
  -1  -1  21  437.26   49.70
  -1  -1  21  486.75   42.80
   0   1 -21   65.19   16.70
   0  -1  21   96.59   14.10
   0  -1  21   85.09   19.60
  -1   1 -21  422.86   41.90
   1  -1  21  404.76   40.00
  -2   1 -21   -7.80   15.80
   2  -1  21   20.60   13.70
  -3   1 -21   36.50   18.60
   3  -1  21    7.60   15.30
  -4   1 -21    4.40   20.30
   4  -1  21   15.10   16.50
  -5   1 -21    4.80   23.90
   5  -1  21    5.20   19.10
   4   0 -21   53.39   25.50
   3   0 -21   54.79   14.10
   3   0 -21   76.89   20.30
   2   0 -21   63.59   19.10
   2   0 -21   31.60   13.60
   2   0 -21   43.10   12.10
   2   0 -21   53.99   10.60
  -2   0  21   40.90   18.80
   1   0 -21  263.27   31.90
   1   0 -21  249.28   25.60
  -1   0  21  279.67   24.20
  -1   0  21  168.28   29.60
   0   0 -21  280.77   27.90
   0   0  21  258.87   29.90
   0   0  21  230.98   26.20
  -1   0 -21   72.19   16.80
   1   0  21   73.29   14.10
   1   0  21   53.89   21.20
  -2   0 -21   22.80   16.20
   2   0  21   24.80   13.10
  -3   0 -21   15.00   19.40
   3   0  21   18.80   14.60
  -4   0 -21  -18.00   18.30
   4   0  21   12.90   16.10
  -5   0 -21   21.10   26.20
   5   0  21   16.10   18.30
   5  -1 -21    1.30   30.70
   3  -1 -21    8.70   12.30
   3  -1 -21    9.10   17.00
   2  -1 -21   41.00   13.00
   1  -1 -21  221.38   22.10
  -1   1  21  171.38   24.50
  -1   1  21  198.68   20.80
   0  -1 -21  144.99   20.10
   0   1  21  180.48   18.20
   0   1  21  127.59   20.90
  -1  -1 -21   25.70   16.40
   1   1  21   20.30   12.00
  -2  -1 -21  751.72   66.59
   2   1  21  684.43   64.09
  -3  -1 -21  131.49   23.00
   3   1  21   91.09   18.80
  -4  -1 -21   -1.30   19.40
   4   1  21   13.30   16.40
  -5  -1 -21   -1.20   23.80
   5   1  21   30.30   19.70
   5  -2 -21   24.40   39.30
   4  -2 -21   57.39   31.00
   3  -2 -21  103.19   28.40
   3  -2 -21  127.69   18.60
   2  -2 -21  261.77   35.00
   2  -2 -21  287.17   29.90
   1  -2 -21  410.46   37.80
   1  -2 -21  390.86   44.50
  -1   2  21  378.26   36.70
   0  -2 -21   56.09   14.60
   0  -2 -21   61.79   17.90
   0   2  21   13.70   15.10
   0   2  21   74.89   12.50
  -1  -2 -21  157.78   23.80
   1   2  21  175.28   20.90
  -2  -2 -21   13.80   19.30
   2   2  21   24.00   14.00
  -3  -2 -21    2.10   22.10
  -3  -2 -21   24.00   14.30
  -3  -2 -21   30.50   16.90
   3   2  21   25.50   15.10
  -4  -2 -21    3.10   18.60
   4   2  21    6.10   16.20
   4  -3 -21   81.69   20.60
   4  -3 -21   82.29   35.30
   3  -3 -21  206.28   27.30
   3  -3 -21  174.98   35.70
   2  -3 -21   26.50   24.80
   2  -3 -21   44.60   15.70
   1  -3 -21  -21.70   13.20
   1  -3 -21   21.30   22.30
  -1   3  21   17.60   11.00
   0  -3 -21  952.30   82.89
   0  -3 -21  988.10   78.09
   0   3  21  944.01   77.09
   0   3  21  697.63   82.09
  -1  -3 -21  123.19   20.80
   1   3  21  115.99   18.80
   1   3  21   64.79   28.30
  -2  -3 -21    7.80   16.50
  -2  -3 -21   -7.00   20.70
   2   3  21   -5.30   30.20
   2   3  21   -5.90   14.40
  -3  -3 -21   18.60   18.30
  -3  -3 -21   11.50   17.60
   3   3  21  -15.10   16.50
   3   3  21    9.50   36.10
  -4  -3 -21   20.60   22.10
   4   3  21    5.50   17.00
   4  -4 -21   -3.70   37.00
   4  -4 -21   -0.50   19.00
   3  -4 -21   -7.50   18.70
   3  -4 -21  -32.20   32.80
   2  -4 -21   12.80   17.70
   2  -4 -21   23.80   29.50
   1  -4 -21   14.60   19.20
   1  -4 -21   -8.90   26.30
   0  -4 -21   85.59   30.70
   0  -4 -21  131.89   23.20
   0   4  21  105.69   20.90
  -1  -4 -21   26.10   20.90
  -1  -4 -21   73.89   20.50
   1   4  21   65.99   17.80
  -2  -4 -21  -10.50   21.30
  -2  -4 -21   -6.90   21.30
   2   4  21   -8.90   43.00
   2   4  21  -13.20   16.60
  -3  -4 -21   -0.10   20.20
  -3  -4 -21   -9.30   19.90
   3   4  21   -6.70   44.40
   3   4  21   -3.10   18.40
   3  -5 -21   48.90   24.10
   3  -5 -21   31.10   42.40
   2  -5 -21   69.99   20.40
   2  -5 -21   11.10   41.60
   1  -5 -21    4.70   21.00
   0  -5 -21   57.49   23.70
   0  -5 -21   42.90   26.40
   0   5  21   69.49   19.40
  -1  -5 -21   97.99   31.10
  -1  -5 -21  156.18   31.10
   1   5  21  106.39   23.10
  -2  -5 -21   12.30   24.90
  -2  -5 -21    7.60   24.60
   2   5  21   35.10   21.00
   1   6 -22  145.09   28.70
  -1  -6  22   84.79   21.20
   0   6 -22   84.69   26.70
   0  -6  22   68.59   18.60
  -1   6 -22   40.80   24.70
   1  -6  22   -7.90   16.20
   2  -6  22   58.59   22.80
   3   5 -22  -11.10   19.90
   2   5 -22   48.70   21.70
  -2  -5  22    3.70   14.80
   1   5 -22    2.10   60.39
   1   5 -22   33.00   20.80
  -1  -5  22   22.80   13.80
   0   5 -22   58.59   21.60
   0   5 -22   28.20   67.49
   0  -5  22   30.90   14.30
  -1   5 -22   50.99   68.29
  -1   5 -22   25.00   22.00
   1  -5  22   28.50   16.90
  -2   5 -22   49.50   23.80
   2  -5  22   51.29   20.00
   3  -5  22  -29.30   19.30
   4   4 -22    6.10   21.50
   3   4 -22  180.78   50.59
   3   4 -22   63.79   21.50
  -3  -4  22   93.09   19.30
   2   4 -22  154.98   24.20
   2   4 -22  264.37   59.99
  -2  -4  22  160.68   21.90
   1   4 -22   -2.00   50.49
   1   4 -22   50.39   17.80
  -1  -4  22   42.20   12.60
  -1  -4  22   27.80   11.70
   0   4 -22  232.78   29.90
   0   4 -22  276.87   69.29
   0  -4  22  234.88   26.60
  -1   4 -22  153.98   25.40
   1  -4  22  141.49   21.20
  -2   4 -22   43.40   21.40
   2  -4  22   24.10   17.20
   3  -4  22   53.39   20.50
   4  -4  22   -5.30   21.40
   4   3 -22  134.69   38.40
   4   3 -22   34.60   20.30
   3   3 -22  -13.10   15.90
   3   3 -22   67.39   36.20
  -3  -3  22    4.70   13.30
   2   3 -22   32.10   41.90
   2   3 -22   13.80   15.40
  -2  -3  22   24.70   12.40
   1   3 -22   79.79   16.90
   1   3 -22   95.89   48.80
  -1  -3  22   86.29   13.50
  -1  -3  22   88.79   13.70
   0   3 -22   39.50   16.90
   0   3 -22   48.90   36.10
   0  -3  22   88.69   14.60
  -1   3 -22  305.57   34.00
   1  -3  22  311.37   32.30
  -2   3 -22   27.50   17.70
   2  -3  22   -0.30   15.10
  -3   3 -22   -8.50   20.00
   3  -3  22   27.70   18.00
   4  -3  22   51.69   20.90
   4   2 -22   33.30   17.20
   4   2 -22   71.99   31.60
   3   2 -22   86.59   30.10
   3   2 -22   20.10   15.00
   2   2 -22   59.69   15.70
   2   2 -22   59.19   36.00
   1   2 -22  161.88   36.40
   1   2 -22  109.69   19.70
  -1  -2  22  137.99   16.70
   0   2 -22  105.69   34.10
   0   2 -22  145.89   20.70
   0  -2  22  118.69   16.30
  -1   2 -22 1312.37  114.19
   1  -2  22 1325.37  113.19
  -2   2 -22  340.77   37.60
   2  -2  22  372.46   37.30
  -3   2 -22   49.99   19.40
   3  -2  22    7.90   17.10
   4  -2  22   15.80   19.20
   5  -2  22  -11.60   20.70
   4   1 -22  165.38   32.80
   3   1 -22   62.19   25.90
   3   1 -22   35.70   14.70
   2   1 -22   27.50   12.60
   2   1 -22    3.30   13.40
   2   1 -22   36.90   25.20
  -2  -1  22    1.80   20.40
   1   1 -22  153.98   29.00
   1   1 -22  150.78   19.50
  -1  -1  22  100.09   22.70
  -1  -1  22  131.09   15.20
   0   1 -22   96.09   18.00
   0  -1  22  159.28   16.50
   0  -1  22   79.59   20.40
  -1   1 -22  190.48   24.40
   1  -1  22  170.88   21.40
  -2   1 -22   -2.30   16.60
   2  -1  22   16.00   13.90
  -3   1 -22   38.90   19.50
   3  -1  22   29.30   15.90
  -4   1 -22   50.09   21.50
   4  -1  22   37.20   18.30
  -5   1 -22   15.90   25.20
   5  -1  22   23.50   19.30
   3   0 -22   -1.90   12.70
   3   0 -22   45.20   19.60
   2   0 -22   44.30   13.80
   2   0 -22   26.80   12.40
   2   0 -22   62.89   22.10
  -2   0  22   13.00   17.80
   1   0 -22 1764.02  152.58
  -1   0  22 1837.92  151.68
   0   0 -22  588.84   53.59
   0   0  22  602.04   51.59
   0   0  22  549.95   55.49
  -1   0 -22  143.99   21.70
   1   0  22  190.88   20.40
   1   0  22  133.39   24.10
  -2   0 -22   88.39   19.40
   2   0  22   80.89   16.80
  -3   0 -22   14.50   20.60
   3   0  22   -1.10   14.50
  -4   0 -22    0.90   19.90
   4   0  22  -14.20   15.80
  -5   0 -22   11.30   25.70
   5   0  22   32.10   19.00
   5  -1 -22   44.20   34.50
   3  -1 -22   60.39   15.10
   2  -1 -22   64.09   14.90
   1  -1 -22  176.98   20.50
  -1   1  22  176.88   18.00
  -1   1  22  138.89   22.40
   0  -1 -22  228.18   24.70
   0   1  22  180.78   25.00
   0   1  22  220.58   22.20
  -1  -1 -22   21.20   16.20
   1   1  22   -0.80   12.00
  -2  -1 -22   55.19   20.10
   2   1  22   68.79   16.30
  -3  -1 -22   23.40   19.90
   3   1  22   -4.10   15.10
  -4  -1 -22   24.10   20.90
   4   1  22   -4.30   16.70
   5  -2 -22  -31.10   34.70
   4  -2 -22  -23.40   29.00
   3  -2 -22   28.40   14.00
   3  -2 -22    5.90   25.40
   2  -2 -22   -1.40   13.20
   2  -2 -22   22.20   21.40
   1  -2 -22  285.37   33.30
   1  -2 -22  249.97   28.10
  -1   2  22  270.27   27.70
   0  -2 -22  256.07   28.80
   0  -2 -22  248.38   26.80
   0   2  22  207.08   28.00
   0   2  22  275.17   26.60
  -1  -2 -22  145.49   21.90
   1   2  22  107.89   17.90
  -2  -2 -22    0.30   19.70
   2   2  22   -4.50   13.40
  -3  -2 -22   87.79   25.50
  -3  -2 -22  103.19   22.30
   3   2  22  103.59   20.00
  -4  -2 -22    6.70   19.90
   4   2  22   21.10   17.00
   4  -3 -22  -29.80   31.90
   3  -3 -22   31.40   27.80
   3  -3 -22   44.40   18.60
   2  -3 -22   26.80   24.30
   2  -3 -22   22.70   15.90
   1  -3 -22  310.17   33.50
   1  -3 -22  348.07   40.10
  -1   3  22  321.57   33.20
   0  -3 -22   31.10   16.00
   0  -3 -22   63.69   24.10
   0   3  22   50.79   21.70
   0   3  22   58.69   14.30
  -1  -3 -22    3.30   17.90
   1   3  22   15.50   26.80
   1   3  22   17.80   14.80
  -2  -3 -22   11.30   18.50
  -2  -3 -22   11.40   21.80
   2   3  22   11.80   30.80
   2   3  22   -0.20   16.60
  -3  -3 -22   -6.60   17.60
  -3  -3 -22  -16.80   17.40
   3   3  22    2.70   36.50
   3   3  22   -4.40   16.60
   4   3  22   17.70   18.60
   4  -4 -22   -3.00   41.50
   4  -4 -22   43.00   21.00
   3  -4 -22  -14.50   20.10
   3  -4 -22   31.80   32.70
   2  -4 -22  611.74   56.99
   2  -4 -22  475.95   62.89
   1  -4 -22   69.19   29.80
   1  -4 -22   63.29   20.30
   0  -4 -22   74.09   30.00
   0  -4 -22   81.39   21.70
   0   4  22   66.09   18.10
  -1  -4 -22  131.59   26.10
  -1  -4 -22  171.78   27.30
   1   4  22  191.78   25.40
  -2  -4 -22   -8.40   19.80
  -2  -4 -22   15.50   23.90
   2   4  22   30.50   19.50
   2   4  22   -6.30   32.90
  -3  -4 -22   -3.60   21.20
   3   4  22  -28.50   41.80
   3   4  22  -25.30   18.40
   3  -5 -22  -24.60   21.60
   3  -5 -22   -1.40   42.00
   2  -5 -22    3.80   19.90
   2  -5 -22   29.80   45.10
   1  -5 -22   43.50   23.10
   0  -5 -22   23.80   23.40
   0  -5 -22   -8.20   31.60
   0  -5 -22  -10.70   22.80
   0   5  22    2.30   21.20
  -1  -5 -22   70.79   27.90
  -1  -5 -22  132.19   28.10
   1   5  22   80.69   22.40
  -2  -5 -22   14.00   25.70
  -2  -5 -22   18.40   26.10
   2   5  22    5.30   20.20
   1   6 -23   66.89   24.50
   0   6 -23  106.29   27.60
  -1   6 -23   45.10   27.40
   1  -6  23    3.90   16.80
   2  -6  23  -23.30   20.50
   3   5 -23    6.10   21.50
   2   5 -23   32.20   20.50
  -2  -5  23   25.60   16.50
   1   5 -23   49.20   21.60
   1   5 -23  -32.50   75.19
  -1  -5  23   35.50   15.50
   0   5 -23  173.18   26.90
   0   5 -23  195.48   90.29
   0  -5  23  128.39   21.20
  -1   5 -23  302.17   78.19
  -1   5 -23  206.58   30.60
   1  -5  23  156.98   25.80
  -2   5 -23   14.20   24.10
   2  -5  23  -12.70   18.20
   3  -5  23   40.30   22.00
   3   4 -23   60.39   48.80
   3   4 -23   -8.00   19.50
  -3  -4  23  -15.50   14.60
   2   4 -23   52.59   52.89
   2   4 -23   -6.40   16.50
  -2  -4  23    1.50   13.10
   1   4 -23    3.40   17.30
   1   4 -23   -2.80   48.60
  -1  -4  23   12.80   11.70
  -1  -4  23   10.40   11.90
   0   4 -23   93.99   55.29
   0   4 -23  114.59   22.80
   0  -4  23  122.79   18.20
  -1   4 -23   14.40   19.20
   1  -4  23    0.60   14.90
   1  -4  23   -1.70   14.70
  -2   4 -23   -4.70   20.00
   2  -4  23   12.60   17.70
   3  -4  23   73.99   22.00
   4  -4  23  -19.20   22.20
   4   3 -23  133.59   38.40
   4   3 -23   29.00   19.30
   3   3 -23   60.19   34.30
   3   3 -23    7.90   16.50
  -3  -3  23    2.70   13.60
   2   3 -23  455.35   49.40
   2   3 -23  573.24   70.19
  -2  -3  23  524.95   48.10
   1   3 -23  418.46   62.69
   1   3 -23  283.07   30.90
  -1  -3  23  245.68   28.40
   0   3 -23  281.17   59.59
   0   3 -23  254.27   31.60
   0  -3  23  316.07   30.90
  -1   3 -23   71.79   19.80
   1  -3  23   82.79   16.70
  -2   3 -23   93.99   21.00
   2  -3  23   63.99   18.50
  -3   3 -23  -26.60   22.40
   3  -3  23  -16.10   17.60
   4  -3  23   33.00   21.10
   4   2 -23  170.28   35.30
   4   2 -23   56.69   19.70
   3   2 -23   60.79   32.20
   3   2 -23  -25.70   14.80
   2   2 -23   33.90   15.80
   2   2 -23  127.19   34.30
   1   2 -23  304.27   48.20
   1   2 -23  285.77   32.30
  -1  -2  23  322.97   30.30
   0   2 -23   27.40   32.00
   0   2 -23   24.20   16.10
   0  -2  23   19.50   11.10
  -1   2 -23  690.93   61.79
   1  -2  23  634.24   59.89
  -2   2 -23  145.39   22.70
   2  -2  23  106.19   20.60
  -3   2 -23   17.70   19.40
   3  -2  23   -6.80   17.00
   4  -2  23   22.60   19.90
   4   1 -23  137.89   30.40
   3   1 -23   50.79   16.00
   3   1 -23   93.99   27.30
   2   1 -23   86.49   19.40
   2   1 -23  133.69   29.10
   2   1 -23  109.69   18.50
  -2  -1  23  126.29   28.90
   1   1 -23   33.70   23.80
   1   1 -23   55.39   15.30
  -1  -1  23   30.10   18.00
  -1  -1  23   40.80    9.80
   0   1 -23  398.56   41.70
   0  -1  23  407.76   39.20
   0  -1  23  418.66   44.40
  -1   1 -23   64.79   18.70
   1  -1  23   70.29   15.10
  -2   1 -23  489.15   45.50
   2  -1  23  387.86   42.80
  -3   1 -23  -19.80   18.70
   3  -1  23   26.00   15.80
  -4   1 -23   43.30   22.40
   4  -1  23   34.50   18.80
  -5   1 -23   -0.40   25.80
   5  -1  23   -9.80   18.70
   3   0 -23   29.90   13.80
   3   0 -23   47.40   23.10
   2   0 -23   -1.50   18.70
   2   0 -23    3.90   13.40
  -2   0  23   -0.40   17.50
   1   0 -23   27.40   14.10
  -1   0  23    9.10    9.00
  -1   0  23   15.60   16.30
   0   0 -23   27.10   15.60
   0   0  23   37.80   11.10
   0   0  23   23.40   14.90
  -1   0 -23   31.70   16.20
   1   0  23   40.60   13.20
   1   0  23   10.50   18.30
  -2   0 -23   38.70   18.30
   2   0  23   36.90   15.00
  -3   0 -23  -14.30   20.30
   3   0  23    0.20   15.20
  -4   0 -23   25.70   20.90
   4   0  23  -14.30   16.40
  -5   0 -23   30.50   26.30
   5   0  23   23.40   19.70
   5  -1 -23   -1.00   31.40
   3  -1 -23  418.96   42.20
   2  -1 -23  167.18   21.30
   1  -1 -23  186.38   22.70
  -1   1  23  178.58   25.80
  -1   1  23  203.68   20.90
   0  -1 -23  831.72   71.69
   0   1  23  810.32   70.19
   0   1  23  783.12   72.79
  -1  -1 -23  256.17   30.90
   1   1  23  266.97   28.20
  -2  -1 -23   10.40   19.00
   2   1  23   10.90   14.40
  -3  -1 -23  -22.20   20.60
   3   1  23   -1.30   15.60
  -4  -1 -23   -7.00   19.60
   4   1  23  -13.30   17.70
   4  -2 -23   -0.50   29.60
   3  -2 -23   76.09   17.80
   3  -2 -23   66.29   28.10
   2  -2 -23   -5.70   21.50
   2  -2 -23   -2.50   12.80
   1  -2 -23   93.99   23.20
   1  -2 -23   85.29   17.00
  -1   2  23  107.09   15.10
   0  -2 -23  553.94   53.79
   0  -2 -23  587.24   52.69
   0   2  23  623.74   51.39
   0   2  23  503.05   53.39
  -1  -2 -23  140.89   22.00
   1   2  23  109.99   18.40
  -2  -2 -23   14.60   20.60
   2   2  23   -5.80   14.10
  -3  -2 -23   71.49   20.10
  -3  -2 -23  116.89   28.90
   3   2  23   82.79   19.70
  -4  -2 -23   20.80   19.90
   4   2  23  -11.50   19.30
   4  -3 -23   12.70   34.40
   3  -3 -23   22.80   28.20
   3  -3 -23   -0.10   18.50
   2  -3 -23   91.09   27.80
   2  -3 -23  100.29   19.80
   1  -3 -23  200.38   25.20
   1  -3 -23  178.58   33.20
  -1   3  23  243.18   24.90
   0  -3 -23   -0.90   21.30
   0  -3 -23   30.20   18.20
   0   3  23   23.30   13.30
  -1  -3 -23  124.59   21.80
   1   3  23   46.70   27.80
   1   3  23   91.19   17.80
  -2  -3 -23   22.80   18.90
  -2  -3 -23   14.10   22.30
   2   3  23  -33.00   15.90
   2   3  23    4.80   30.30
  -3  -3 -23    4.40   18.30
   3   3  23  -23.50   16.50
   3   3  23   41.80   41.00
   3  -4 -23   -2.80   19.90
   3  -4 -23   15.70   33.80
   2  -4 -23   66.19   22.90
   2  -4 -23   66.09   32.60
   1  -4 -23   36.10   19.20
   1  -4 -23   73.99   33.60
   0  -4 -23   60.59   22.60
   0  -4 -23   57.09   31.40
   0   4  23   60.49   17.70
  -1  -4 -23   20.60   21.10
  -1  -4 -23   10.00   21.40
   1   4  23    8.90   17.10
  -2  -4 -23    4.90   22.00
  -2  -4 -23    5.20   24.50
   2   4  23   13.90   19.00
  -3  -4 -23    7.80   23.50
   3   4  23   17.50   20.30
   3   4  23  -13.50   44.20
   2  -5 -23   18.90   23.80
   2  -5 -23   27.50   43.00
   1  -5 -23  224.78   48.80
   1  -5 -23  179.18   31.70
   0  -5 -23   22.10   24.80
   0  -5 -23   52.09   33.40
   0  -5 -23   46.30   28.00
  -1  -5 -23   44.20   24.40
  -1  -5 -23   29.80   30.10
   1   5  23   15.60   20.10
   1   6 -24  -36.90   21.80
   0   6 -24   -6.70   24.40
  -1   6 -24   52.89   26.00
   1  -6  24   34.60   17.70
   2   5 -24   24.40   20.90
  -2  -5  24   30.30   15.40
   1   5 -24  -25.80   68.89
   1   5 -24   38.20   20.20
  -1  -5  24   26.40   16.50
   0   5 -24  130.69   25.70
   0  -5  24  114.09   20.30
  -1   5 -24  149.59   27.20
   1  -5  24  131.69   22.90
  -2   5 -24  -24.50   22.60
   2  -5  24   14.40   19.20
   3  -5  24   34.70   22.00
   3   4 -24   10.70   19.40
  -3  -4  24   -5.80   14.60
   2   4 -24  -13.00   16.50
   2   4 -24   26.80   47.50
  -2  -4  24    9.60   13.40
   1   4 -24  194.18   26.30
   1   4 -24  185.48   64.09
  -1  -4  24  158.68   20.60
   0   4 -24   28.60   48.90
   0   4 -24   63.39   21.00
   0  -4  24   37.40   14.70
  -1   4 -24  142.49   26.00
   1  -4  24  152.18   22.20
   1  -4  24  137.79   22.00
  -2   4 -24   57.49   22.70
   2  -4  24   71.89   20.10
   3  -4  24    5.00   20.10
   4  -4  24   -3.30   22.30
   4   3 -24   -7.50   15.90
   4   3 -24  150.88   44.10
   3   3 -24   66.89   38.60
   3   3 -24   20.30   17.30
  -3  -3  24    0.20   14.50
   2   3 -24   11.70   15.10
   2   3 -24    4.90   37.80
  -2  -3  24   -9.90   11.30
   1   3 -24   28.10   40.10
   1   3 -24   41.10   16.20
  -1  -3  24   32.20   11.30
   0   3 -24   62.69   43.50
   0   3 -24   84.69   19.80
   0  -3  24   99.59   16.10
  -1   3 -24  185.58   27.50
   1  -3  24  203.68   24.90
  -2   3 -24   15.60   19.10
   2  -3  24   14.20   16.40
   3  -3  24  -14.20   18.00
   4  -3  24   67.69   23.20
   4   2 -24   27.20   17.40
   3   2 -24  135.59   34.40
   3   2 -24   44.60   18.20
   2   2 -24   20.50   30.70
   2   2 -24  -28.50   13.80
   1   2 -24  568.14   67.19
   1   2 -24  508.75   50.99
   0   2 -24  318.27   34.70
   0   2 -24  299.27   49.60
   0  -2  24  341.87   32.80
  -1   2 -24    8.00   18.10
   1  -2  24   30.90   14.40
  -2   2 -24   11.80   18.40
   2  -2  24   16.10   16.90
  -3   2 -24   41.40   20.50
   3  -2  24   16.30   18.70
   4  -2  24    0.00   20.40
   4   1 -24  198.88   36.80
   3   1 -24   55.19   27.10
   3   1 -24    6.70   15.00
   2   1 -24   72.79   33.30
   2   1 -24   36.20   15.90
   1   1 -24  475.55   46.30
   1   1 -24  608.74   57.39
  -1  -1  24  377.26   51.09
  -1  -1  24  504.95   43.40
   0   1 -24  647.34   59.79
   0  -1  24  649.83   58.09
  -1   1 -24   15.70   17.80
   1  -1  24  -13.10   12.70
  -2   1 -24 1143.89   94.99
   2  -1  24 1002.60   93.39
  -3   1 -24  -28.40   20.00
   3  -1  24    3.30   16.60
  -4   1 -24    0.30   21.60
   4  -1  24   20.00   18.50
   3   0 -24   23.20   13.80
   3   0 -24   57.89   22.50
   2   0 -24  165.68   23.90
   2   0 -24  239.68   32.40
  -2   0  24  201.48   31.90
   1   0 -24   20.30   14.10
  -1   0  24   -5.90   16.50
  -1   0  24   23.70    9.80
   0   0 -24   31.80   16.20
   0   0  24   47.00   12.20
   0   0  24   60.79   18.00
  -1   0 -24  141.19   21.40
   1   0  24  112.39   18.10
  -2   0 -24   32.90   18.70
   2   0  24   15.00   14.40
  -3   0 -24   73.29   23.80
   3   0  24   44.70   17.20
  -4   0 -24   -6.80   21.40
   4   0  24   35.10   18.20
   3  -1 -24   68.39   17.50
   2  -1 -24  -12.50   13.40
   1  -1 -24  115.39   18.70
  -1   1  24  101.19   21.30
  -1   1  24  121.69   14.90
   0  -1 -24   52.29   16.80
   0   1  24   42.80   12.30
   0   1  24   42.80   16.00
  -1  -1 -24   26.80   18.60
   1   1  24   40.00   13.90
  -2  -1 -24   80.09   21.80
   2   1  24   55.29   16.60
  -3  -1 -24   18.90   22.00
   3   1  24   51.39   18.20
  -4  -1 -24   25.10   22.40
   4   1  24    6.70   18.90
   4  -2 -24  -12.50   29.60
   3  -2 -24  -11.80   14.70
   3  -2 -24    7.10   26.60
   2  -2 -24  206.88   24.20
   2  -2 -24  181.38   32.00
   1  -2 -24  149.79   28.40
   1  -2 -24  205.28   23.80
  -1   2  24  202.88   21.50
   0  -2 -24   53.79   18.80
   0  -2 -24  104.89   18.70
   0   2  24   41.40   18.20
   0   2  24   59.69   14.30
  -1  -2 -24   51.09   19.80
   1   2  24   49.60   14.90
  -2  -2 -24   48.30   23.40
   2   2  24  101.59   18.80
  -3  -2 -24   35.10   18.50
  -3  -2 -24   85.09   34.10
   3   2  24   58.69   18.90
  -4  -2 -24   10.10   19.80
   4   2  24   31.20   19.40
   4  -3 -24   11.50   33.90
   3  -3 -24   -1.30   18.80
   3  -3 -24   -6.10   28.30
   2  -3 -24   23.30   25.90
   2  -3 -24   11.80   18.80
   1  -3 -24   24.40   23.60
   1  -3 -24    6.50   15.30
   0  -3 -24   10.70   23.10
   0  -3 -24   20.20   17.40
   0   3  24    3.90   13.40
  -1  -3 -24  452.35   41.90
   1   3  24  256.37   50.79
   1   3  24  430.56   39.50
  -2  -3 -24  -23.00   22.20
   2   3  24   -4.40   31.10
   2   3  24    7.70   16.80
  -3  -3 -24   -2.70   18.90
   3   3  24   -6.70   17.90
   3   3  24   26.20   41.20
   3  -4 -24  193.58   30.40
   3  -4 -24   87.99   40.00
   2  -4 -24   20.70   21.30
   2  -4 -24   -5.80   29.90
   1  -4 -24   18.00   31.80
   1  -4 -24   58.69   21.40
   0  -4 -24  194.78   28.50
   0  -4 -24  190.68   40.20
   0   4  24  185.48   25.30
  -1  -4 -24   18.30   22.90
   1   4  24   -3.10   18.20
  -2  -4 -24   10.00   22.10
  -2  -4 -24    0.20   27.20
   2   4  24   -1.90   19.10
   3   4  24  -21.50   20.00
   2  -5 -24    4.60   24.30
   2  -5 -24   -3.30   35.20
   1  -5 -24   79.99   41.80
   1  -5 -24  104.89   27.30
   0  -5 -24   58.99   27.40
   0  -5 -24   93.99   27.60
  -1  -5 -24   20.90   25.30
  -1  -5 -24   24.40   26.20
   1   5  24   22.70   20.40
   0   6 -25  -21.20   24.10
  -1   6 -25   50.19   25.90
   1  -6  25   18.60   18.20
   2   5 -25   74.59   23.90
  -2  -5  25   71.49   19.30
   1   5 -25   23.00   19.80
   0   5 -25   34.10   22.10
   0   5 -25   39.00   82.79
   0  -5  25   31.30   16.70
  -1   5 -25   24.90   22.80
   1  -5  25  -22.20   16.90
  -2   5 -25   -7.90   23.20
   2  -5  25   16.00   20.00
   3  -5  25  -26.80   21.20
   3  -5  25  -35.40   21.80
   3   4 -25  -11.50   17.50
  -3  -4  25    7.70   15.20
   2   4 -25   13.10   48.40
   2   4 -25   12.10   18.10
  -2  -4  25   13.90   13.70
   1   4 -25   68.09   57.09
   1   4 -25   28.10   19.30
  -1  -4  25   51.79   13.50
   0   4 -25   96.69   22.40
   0   4 -25   86.29   57.39
   0  -4  25   66.69   17.30
  -1   4 -25  456.15   46.00
   1  -4  25  399.66   44.30
  -2   4 -25  105.69   24.70
   2  -4  25   95.99   22.30
   3  -4  25   14.60   21.20
   4   3 -25   24.50   18.20
   3   3 -25  153.28   46.90
   3   3 -25   81.49   21.30
   2   3 -25   16.00   39.20
   2   3 -25   -5.80   15.50
  -2  -3  25    9.40   12.40
   1   3 -25  -10.30   15.80
   1   3 -25  -44.10   43.60
  -1  -3  25   -2.00   10.20
   0   3 -25  294.97   58.29
   0   3 -25  305.67   33.70
   0  -3  25  287.47   30.80
  -1   3 -25   78.09   21.50
   1  -3  25   90.29   17.80
  -2   3 -25   66.09   21.50
   2  -3  25   47.50   18.30
   3  -3  25  -22.80   18.40
   4  -3  25   -3.70   21.10
   4   2 -25  195.48   38.90
   3   2 -25   61.39   33.60
   3   2 -25  -24.00   15.70
   2   2 -25   68.09   37.50
   2   2 -25   78.69   17.60
   1   2 -25  157.08   44.60
   1   2 -25   75.89   20.40
  -1  -2  25  146.39   17.10
   0   2 -25  207.38   28.40
   0  -2  25  248.28   25.50
  -1   2 -25  432.36   43.40
   1  -2  25  409.16   42.00
  -2   2 -25   27.60   20.00
   2  -2  25   79.19   18.80
  -3   2 -25   49.99   21.00
   3  -2  25   18.60   19.40
   4  -2  25   11.40   20.80
   3   1 -25   80.69   19.00
   3   1 -25  151.68   34.10
   2   1 -25   93.39   19.20
   2   1 -25  115.99   31.10
   1   1 -25   44.80   16.40
   1   1 -25   45.90   26.10
  -1  -1  25   48.50   10.80
  -1  -1  25   36.80   21.30
   0   1 -25  296.57   32.80
   0  -1  25  300.87   31.70
  -1   1 -25  281.17   34.70
   1  -1  25  322.27   32.30
  -2   1 -25   65.39   20.70
   2  -1  25   67.49   16.90
  -3   1 -25  -12.80   21.10
   3  -1  25   15.50   17.40
   4  -1  25   23.60   19.30
   3   0 -25   26.60   14.40
   2   0 -25    2.90   20.60
   2   0 -25   31.40   14.30
  -2   0  25   22.00   19.90
   1   0 -25  150.48   21.30
  -1   0  25  131.19   26.10
  -1   0  25  164.48   18.10
   0   0 -25 1163.48  101.09
   0   0  25 1126.89  104.29
   0   0  25 1204.48   99.89
  -1   0 -25  209.08   28.50
   1   0  25  257.67   26.50
  -2   0 -25   14.30   19.00
   2   0  25   25.40   15.00
  -3   0 -25   87.69   25.20
   3   0  25   41.90   18.00
  -4   0 -25   14.60   21.00
   4   0  25  -11.10   17.90
   3  -1 -25   49.60   17.70
   2  -1 -25   27.10   15.10
   1  -1 -25  138.39   19.50
  -1   1  25  132.39   15.20
  -1   1  25   71.89   22.10
   0  -1 -25  141.19   21.50
   0   1  25  106.49   21.20
   0   1  25  133.09   16.90
  -1  -1 -25   62.29   19.50
   1   1  25   16.70   25.50
   1   1  25   34.70   14.30
  -2  -1 -25   20.30   20.70
   2   1  25   -9.90   15.20
  -3  -1 -25   -0.30   22.20
   3   1  25    2.30   17.60
  -4  -1 -25   -0.70   20.90
   4   1  25   23.10   19.80
   4  -2 -25  -11.80   18.90
   4  -2 -25    4.60   31.20
   3  -2 -25   21.10   17.20
   3  -2 -25    1.40   27.30
   2  -2 -25  239.58   27.50
   2  -2 -25  228.48   35.40
   1  -2 -25  187.58   31.50
   1  -2 -25  228.88   27.30
  -1   2  25  247.98   25.40
   0  -2 -25  116.69   24.60
   0  -2 -25   48.70   19.20
   0   2  25  112.79   16.90
  -1  -2 -25   37.40   19.90
   1   2  25   18.50   14.50
  -2  -2 -25   47.50   23.40
   2   2  25   28.30   16.80
  -3  -2 -25    1.90   17.60
   3   2  25    2.30   17.40
  -4  -2 -25   -9.60   20.30
   4   2  25   13.90   20.10
   4  -3 -25  -14.50   34.00
   4  -3 -25   12.90   18.20
   3  -3 -25  -19.70   28.50
   3  -3 -25   17.60   18.60
   2  -3 -25   -1.30   27.50
   2  -3 -25    8.00   17.40
   1  -3 -25  178.08   32.90
   1  -3 -25  183.28   26.80
   0  -3 -25    6.20   17.40
   0  -3 -25   23.10   25.20
   0   3  25   13.50   13.60
  -1  -3 -25  -39.00   20.00
   1   3  25   -6.70   24.70
   1   3  25   17.80   15.50
  -2  -3 -25   -0.50   23.30
   2   3  25    4.50   35.10
   2   3  25   22.00   18.00
  -3  -3 -25  -22.00   18.80
   3   3  25  -11.00   18.30
   3   3  25    1.10   35.40
   3  -4 -25   -2.70   36.70
   2  -4 -25  -17.00   21.50
   2  -4 -25  -13.60   31.20
   1  -4 -25  131.09   33.50
   1  -4 -25  169.08   29.40
   0  -4 -25  -14.50   19.40
   0  -4 -25   33.90   31.00
   0   4  25   16.90   16.60
  -1  -4 -25   62.19   25.50
   1   4  25   54.19   19.80
  -2  -4 -25   56.39   28.30
  -2  -4 -25   34.50   23.00
   2   4  25   48.20   21.70
   2  -5 -25   18.70   25.80
   2  -5 -25   21.40   43.90
   1  -5 -25   56.79   36.60
   1  -5 -25   79.39   26.90
   0  -5 -25    3.00   28.90
   0  -5 -25   37.80   26.10
  -1  -5 -25   -1.20   26.90
  -1  -5 -25   48.00   29.80
   1   5  25   30.40   21.10
   0   6 -26    6.70   26.20
   2   5 -26   87.09   25.50
   1   5 -26   62.39   21.70
   0   5 -26   72.79   24.20
   0  -5  26   62.99   18.50
  -1   5 -26  -34.90   22.10
   1  -5  26   -3.60   17.20
  -2   5 -26   15.00   24.10
   2  -5  26   42.70   20.80
   3   4 -26   19.00   18.50
  -3  -4  26   11.30   14.70
   2   4 -26    6.50   54.39
   2   4 -26    7.20   18.80
  -2  -4  26   -9.90   13.90
   1   4 -26  124.69   23.90
   1   4 -26  112.79   56.99
  -1  -4  26  115.59   18.40
   0   4 -26   22.90   59.29
   0   4 -26   21.60   21.50
   0  -4  26   33.80   14.90
  -1   4 -26   20.80   21.20
   1  -4  26    3.30   16.10
  -2   4 -26   33.00   22.00
   2  -4  26    0.20   18.70
   3  -4  26   27.50   22.00
   4   3 -26   67.49   20.50
   3   3 -26  -16.00   17.40
   3   3 -26   62.59   42.20
   2   3 -26   73.39   40.50
   2   3 -26   27.80   17.00
  -2  -3  26   42.20   14.10
   1   3 -26  309.57   56.09
   1   3 -26  219.98   29.80
   0   3 -26  313.07   64.09
   0   3 -26  300.27   34.80
   0  -3  26  306.17   33.00
  -1   3 -26   90.29   22.10
   1  -3  26   43.80   16.20
  -2   3 -26  181.48   27.70
   2  -3  26  138.69   24.00
   3  -3  26   27.80   19.90
   4  -3  26    3.90   21.80
   4   2 -26    4.00   18.50
   4   2 -26  127.59   35.30
   3   2 -26   -7.30   15.90
   3   2 -26   54.59   34.30
   2   2 -26  136.89   22.50
   2   2 -26  176.08   39.80
   1   2 -26   47.50   34.00
   1   2 -26   75.29   18.70
  -1  -2  26   47.80   12.80
   0   2 -26   23.50   18.20
   0  -2  26   49.20   13.00
  -1   2 -26   46.70   20.70
   1  -2  26   50.79   15.90
  -2   2 -26  139.99   25.40
   2  -2  26  154.68   24.10
  -3   2 -26  -23.80   20.30
   3  -2  26   -1.50   19.40
   4  -2  26  -15.40   21.50
   3   1 -26  317.07   43.50
   3   1 -26  207.38   29.00
   2   1 -26  188.98   36.80
   2   1 -26  152.18   22.90
   1   1 -26  139.49   21.70
   1   1 -26  142.49   35.60
  -1  -1  26  148.79   17.50
   0   1 -26  148.59   22.80
   0  -1  26  135.69   19.40
  -1   1 -26  406.66   42.30
   1  -1  26  395.06   41.10
  -2   1 -26   45.20   20.90
   2  -1  26   36.20   17.00
  -3   1 -26    5.40   21.50
   3  -1  26   32.00   18.20
   4  -1  26   13.90   19.40
   3   0 -26   -1.60   14.20
   2   0 -26   28.50   22.20
   2   0 -26   43.90   15.30
   1   0 -26   38.70   15.90
  -1   0  26   65.19   12.00
  -1   0  26  -10.60   20.60
   0   0 -26  104.89   19.90
   0   0  26  106.09   23.30
   0   0  26  147.49   17.40
  -1   0 -26   46.80   19.00
   1   0  26   60.59   15.30
  -2   0 -26   90.89   22.50
   2   0  26   68.09   18.00
  -3   0 -26   14.60   23.70
   3   0  26   18.70   17.70
  -4   0 -26  -19.50   21.00
   4   0  26   -5.50   18.80
   3  -1 -26    5.80   17.30
   2  -1 -26   26.30   15.70
   1  -1 -26  154.78   21.90
  -1   1  26  136.29   17.60
   0  -1 -26  325.07   35.40
   0   1  26  322.57   33.10
  -1  -1 -26  541.55   57.19
   1   1  26  615.04   54.89
  -2  -1 -26  107.29   25.00
   2   1  26   97.89   20.10
  -3  -1 -26  -19.70   22.70
   3   1  26   -3.40   17.60
  -4  -1 -26   -6.40   20.70
   4   1  26    4.10   19.90
   4  -2 -26  -14.70   32.20
   4  -2 -26  -12.50   20.30
   3  -2 -26    5.50   27.40
   3  -2 -26   -6.00   16.60
   2  -2 -26  181.48   33.10
   2  -2 -26  203.08   25.80
   1  -2 -26   -5.80   21.30
   1  -2 -26    1.50   15.70
   0  -2 -26   40.30   19.60
   0  -2 -26   18.00   18.10
   0   2  26   47.70   14.30
  -1  -2 -26    8.90   20.10
   1   2  26   36.00   15.70
  -2  -2 -26   21.10   23.20
   2   2  26    7.50   16.70
  -3  -2 -26   -5.20   17.70
   3   2  26    0.90   19.60
   4   2  26  -12.50   21.40
   4  -3 -26  -46.50   33.00
   3  -3 -26   -0.60   19.90
   3  -3 -26    6.20   29.50
   2  -3 -26   28.10   29.70
   2  -3 -26   88.19   20.30
   1  -3 -26  105.89   27.90
   1  -3 -26  134.79   22.30
   0  -3 -26  454.95   53.89
   0  -3 -26  472.65   50.09
   0   3  26  515.15   48.20
  -1  -3 -26   -7.00   21.60
   1   3  26   -2.60   15.50
  -2  -3 -26   13.50   25.10
   2   3  26   17.10   17.90
   2   3  26  -20.00   34.30
  -3  -3 -26    1.00   19.60
   3   3  26   51.49   43.00
   3   3  26   43.50   21.30
   3  -4 -26  -27.90   34.60
   3  -4 -26   -5.60   21.60
   2  -4 -26   -4.50   30.80
   2  -4 -26    7.40   22.80
   1  -4 -26   24.40   31.60
   1  -4 -26   18.70   19.50
   0  -4 -26    5.90   22.40
   0  -4 -26   22.60   34.80
  -1  -4 -26   16.80   25.00
   1   4  26   36.50   20.10
  -2  -4 -26   20.60   22.60
  -2  -4 -26   18.20   30.00
   2   4  26   22.20   20.80
   1  -5 -26   49.99   40.50
   1  -5 -26  -10.90   27.50
   0  -5 -26   37.90   28.10
   0  -5 -26   55.29   26.00
   2   5 -27   90.19   25.90
   1   5 -27   17.20   21.20
   0   5 -27   70.29   24.60
   0  -5  27   48.90   21.50
  -1   5 -27   95.99   26.60
   1  -5  27   24.00   20.10
  -2   5 -27  -14.10   24.70
   2  -5  27  -28.40   20.40
   3   4 -27   -6.40   20.00
  -3  -4  27   15.00   18.40
   2   4 -27   13.10   19.90
   2   4 -27   52.19   53.29
  -2  -4  27   37.20   15.60
   1   4 -27   20.50   52.29
   1   4 -27   46.40   21.00
   0   4 -27   31.60   60.69
   0   4 -27  124.39   24.10
   0  -4  27   44.70   16.50
  -1   4 -27   17.10   22.00
   1  -4  27   16.70   16.20
  -2   4 -27   31.10   22.70
   2  -4  27   25.70   18.60
   3  -4  27    0.50   21.60
   3   3 -27   51.19   41.50
   3   3 -27   27.40   19.40
   2   3 -27   54.79   43.60
   2   3 -27    5.90   17.10
   1   3 -27  114.39   49.40
   1   3 -27  112.89   22.60
   0   3 -27   30.40   19.60
   0   3 -27   70.09   50.39
   0  -3  27   18.40   13.50
  -1   3 -27  173.18   28.90
   1  -3  27  203.88   25.50
  -2   3 -27   -1.40   20.90
   2  -3  27   24.50   17.50
   3  -3  27   -0.80   19.70
   4  -3  27   -2.80   22.30
   4   2 -27   94.69   48.00
   4   2 -27   27.20   19.00
   3   2 -27   -2.60   16.80
   3   2 -27   71.99   34.60
   2   2 -27  151.28   41.30
   2   2 -27   99.09   21.10
   1   2 -27  159.68   23.40
   1   2 -27  150.88   40.10
  -1  -2  27  128.39   17.90
   0   2 -27  429.66   45.50
   0  -2  27  435.26   42.00
  -1   2 -27  303.07   34.40
   1  -2  27  260.67   30.40
  -2   2 -27  -11.00   20.00
   2  -2  27  -10.70   17.40
  -3   2 -27   -3.90   24.00
   3  -2  27  -10.20   19.30
   4  -2  27  -12.50   22.20
   4   1 -27   12.60   17.20
   3   1 -27   72.59   19.60
   3   1 -27  116.29   31.60
   2   1 -27   -1.60   28.60
   2   1 -27   13.70   16.30
   1   1 -27  391.06   42.60
   1   1 -27  429.16   53.59
   0   1 -27   46.60   18.60
   0  -1  27   33.40   13.80
  -1   1 -27  135.39   24.10
   1  -1  27   97.69   19.20
  -2   1 -27  148.89   26.70
   2  -1  27  158.58   23.30
  -3   1 -27  124.49   26.40
   3  -1  27   88.99   21.90
   4  -1  27   -4.10   19.90
   4   0 -27   31.20   17.60
   3   0 -27  114.19   19.80
   2   0 -27  136.09   21.20
   2   0 -27  145.79   28.60
   1   0 -27  243.88   29.20
  -1   0  27  266.37   27.90
  -1   0  27  266.67   37.40
   0   0 -27   24.30   16.30
   0   0  27   21.00   11.90
   0   0  27  -33.80   18.50
  -1   0 -27   23.70   18.70
   1   0  27   13.20   13.30
  -2   0 -27  140.39   25.80
   2   0  27  126.99   21.40
  -3   0 -27  135.69   28.40
   3   0  27   88.59   22.10
  -4   0 -27   18.70   22.30
   4   0  27   20.30   20.40
   4  -1 -27   13.60   18.30
   3  -1 -27   47.90   18.60
   2  -1 -27   69.09   19.70
   1  -1 -27   15.80   15.90
  -1   1  27   10.50   10.80
   0  -1 -27  329.57   34.30
   0   1  27  280.67   37.20
   0   1  27  293.87   30.50
  -1  -1 -27  134.89   25.30
   1   1  27  118.89   19.40
  -2  -1 -27   60.39   23.60
   2   1  27   58.29   18.10
  -3  -1 -27   -1.50   26.40
   3   1  27   46.40   19.40
  -4  -1 -27  -15.10   20.70
   4   1  27   10.50   20.90
   4  -2 -27   44.40   34.20
   3  -2 -27   86.89   22.00
   3  -2 -27   36.60   30.00
   2  -2 -27  -28.10   17.70
   2  -2 -27   -8.20   25.10
   1  -2 -27  115.29   27.20
   1  -2 -27  122.69   22.20
   0  -2 -27   30.40   19.40
   0  -2 -27   51.19   20.40
   0   2  27   45.60   15.10
  -1  -2 -27   90.79   23.90
   1   2  27   73.29   18.50
  -2  -2 -27  124.39   27.40
   2   2  27   64.49   19.80
  -3  -2 -27    0.30   18.50
   3   2  27   30.60   19.80
   3  -3 -27   18.80   31.30
   3  -3 -27   11.00   19.60
   2  -3 -27   21.60   28.80
   2  -3 -27  -24.50   19.20
   1  -3 -27   24.80   24.40
   1  -3 -27   -2.80   19.10
   0  -3 -27  -19.70   19.30
   0  -3 -27    3.30   25.10
   0   3  27    2.20   14.10
  -1  -3 -27    4.40   23.30
   1   3  27   39.30   18.20
  -2  -3 -27  -11.90   25.10
   2   3  27    8.90   17.90
  -3  -3 -27   -6.90   21.80
   3   3  27   -3.30   19.60
   3   3  27   13.10   42.10
   3  -4 -27   -4.60   36.10
   3  -4 -27   24.10   22.60
   2  -4 -27   49.10   34.80
   2  -4 -27   50.89   24.20
   1  -4 -27   12.60   34.40
   1  -4 -27   14.30   23.40
   0  -4 -27  124.69   36.80
   0  -4 -27   51.49   25.40
  -1  -4 -27  104.09   29.70
   1   4  27   37.50   20.90
  -2  -4 -27   18.80   23.10
  -2  -4 -27   29.90   28.90
   2   4  27   43.90   22.30
   0  -5 -27   21.70   27.60
   2   5 -28   12.90   22.40
   1   5 -28   21.80   22.60
   0   5 -28   -7.50   23.90
  -1   5 -28   13.90   24.60
   1  -5  28    3.60   18.50
  -2   5 -28   27.40   26.10
   2  -5  28   16.00   20.80
   3   4 -28   14.00   20.40
   2   4 -28   32.30   50.79
   2   4 -28   42.20   21.00
   1   4 -28    8.40   20.20
   1   4 -28   -7.20   59.09
   0   4 -28   40.60   21.90
   0   4 -28   41.40   64.79
   0  -4  28    6.00   15.10
  -1   4 -28  225.58   33.30
   1  -4  28  240.88   29.50
  -2   4 -28  104.39   26.20
   2  -4  28  103.49   23.70
   3  -4  28   25.30   22.80
   3   3 -28  175.58   28.60
   3   3 -28  235.58   51.59
   2   3 -28   17.60   17.40
   2   3 -28   -6.10   42.70
   1   3 -28   44.40   20.10
   1   3 -28   82.19   45.00
   0   3 -28   73.09   49.20
   0   3 -28    3.20   19.20
   0  -3  28   25.00   14.80
  -1   3 -28   80.39   23.40
   1  -3  28   76.89   18.90
  -2   3 -28   31.80   22.30
   2  -3  28   32.50   18.20
   3  -3  28   32.50   21.90
   4   2 -28  -20.60   17.90
   3   2 -28   31.00   36.50
   3   2 -28   -5.80   17.20
   2   2 -28  -12.60   33.50
   2   2 -28  -12.90   16.90
   1   2 -28  149.79   25.70
   1   2 -28  223.28   45.10
   0   2 -28  370.26   40.50
   0  -2  28  372.06   37.60
  -1   2 -28  -20.10   20.20
   1  -2  28   32.10   15.90
  -2   2 -28  101.29   24.40
   2  -2  28   70.89   21.20
  -3   2 -28   14.00   35.50
   3  -2  28    7.40   20.10
   4  -2  28   14.20   23.40
   4   1 -28   41.10   18.60
   3   1 -28   60.09   40.50
   3   1 -28   17.30   17.10
   2   1 -28   77.89   18.90
   2   1 -28   70.69   31.90
   1   1 -28   98.99   20.90
  -1  -1  28  118.39   15.90
   0   1 -28  213.18   28.90
   0  -1  28  207.48   24.70
  -1   1 -28  237.58   30.20
   1  -1  28  180.78   25.10
  -2   1 -28   27.60   21.60
   2  -1  28   -5.60   15.90
  -3   1 -28    2.60   24.50
   3  -1  28   -8.30   18.40
   4  -1  28  -29.60   19.80
   4   0 -28  -20.00   17.20
   3   0 -28   58.89   17.60
   2   0 -28    0.80   14.90
   1   0 -28   23.30   15.90
  -1   0  28   59.99   13.70
  -1   0  28   30.80   28.80
   0   0 -28  307.27   34.50
   0   0  28  300.17   40.70
   0   0  28  350.76   33.60
  -1   0 -28  136.69   23.90
   1   0  28  127.99   19.90
  -2   0 -28    7.80   22.00
   2   0  28   -5.90   16.00
  -3   0 -28  176.18   31.40
   3   0  28   86.79   23.00
  -4   0 -28   44.60   23.50
   4   0  28   38.60   21.60
   4  -1 -28   27.60   18.60
   3  -1 -28  -23.30   17.50
   2  -1 -28  159.88   24.60
   1  -1 -28   67.99   18.90
   0  -1 -28  150.88   25.00
   0   1  28  161.88   20.70
  -1  -1 -28  123.49   25.00
   1   1  28  106.89   18.90
  -2  -1 -28    3.90   22.60
   2   1  28   35.60   17.40
  -3  -1 -28   38.20   38.70
   3   1  28  -20.40   18.40
  -4  -1 -28   24.50   21.90
   4   1  28   17.80   21.70
   4  -2 -28   82.49   36.40
   3  -2 -28   -6.80   18.80
   3  -2 -28   -1.30   28.90
   2  -2 -28   96.39   31.00
   2  -2 -28  144.09   23.00
   1  -2 -28   71.59   20.80
   1  -2 -28   68.09   25.80
   0  -2 -28   83.29   22.30
   0  -2 -28   73.89   22.00
   0   2  28   83.29   17.10
  -1  -2 -28  261.27   34.20
   1   2  28  243.58   29.60
  -2  -2 -28    1.40   24.50
   2   2  28   39.80   19.40
  -3  -2 -28    9.90   19.40
   3   2  28   10.20   20.80
   3  -3 -28   53.69   21.60
   3  -3 -28    0.50   31.60
   2  -3 -28   30.90   28.10
   2  -3 -28    8.20   19.70
   1  -3 -28   -0.70   24.50
   1  -3 -28  -32.30   18.50
   0  -3 -28  -13.00   25.80
   0  -3 -28    6.40   21.70
   0   3  28    0.80   15.60
  -1  -3 -28   17.50   24.50
   1   3  28   21.60   17.80
  -2  -3 -28  -43.80   25.70
   2   3  28   22.60   20.50
   3   3  28   25.40   23.10
   2  -4 -28   55.49   23.30
   2  -4 -28   22.80   33.90
   1  -4 -28  -23.50   33.10
   1  -4 -28    3.90   22.10
   0  -4 -28   26.20   35.70
   0  -4 -28   19.60   27.50
  -1  -4 -28   32.00   27.90
   1   4  28    0.20   18.70
  -2  -4 -28   15.60   29.60
   2   4  28   -7.80   20.50
   1   5 -29  143.59   29.40
   0   5 -29   -2.20   24.00
  -1   5 -29    8.00   24.60
   1  -5  29   20.60   19.10
  -2   5 -29    8.40   26.00
   2  -5  29   -7.90   20.70
   2   4 -29   31.50   21.60
   1   4 -29   -2.90   61.59
   1   4 -29  -13.20   20.20
   0   4 -29  229.48   74.29
   0   4 -29   20.10   22.20
   0  -4  29   22.00   16.10
  -1   4 -29   17.10   23.00
   1  -4  29   17.90   17.10
  -2   4 -29   52.69   24.60
   2  -4  29   11.80   19.60
   3  -4  29   31.40   23.70
   3   3 -29   50.89   44.00
   3   3 -29   29.00   20.70
   2   3 -29   23.90   18.50
   2   3 -29    5.80   45.00
   1   3 -29   83.99   22.30
   1   3 -29   73.69   45.70
   0   3 -29   12.40   19.80
   0  -3  29    7.50   14.10
  -1   3 -29   99.39   24.80
   1  -3  29   73.49   19.40
  -2   3 -29  153.08   28.10
   2  -3  29  131.59   24.20
   3  -3  29   51.59   23.10
   4   2 -29   -9.70   17.70
   3   2 -29   86.39   22.70
   3   2 -29  149.88   40.80
   2   2 -29   30.00   19.20
   2   2 -29   15.90   36.70
   1   2 -29   58.59   38.90
   1   2 -29   63.39   20.00
   0   2 -29   52.79   20.90
   0  -2  29   35.40   14.20
  -1   2 -29   -3.60   21.40
   1  -2  29    5.20   14.90
  -2   2 -29   36.80   22.70
   2  -2  29   17.20   18.70
   3  -2  29    0.30   21.10
   4  -2  29    5.10   23.70
   4   1 -29   47.30   19.50
   3   1 -29  109.19   21.30
   2   1 -29   90.59   20.80
   2   1 -29   86.29   32.00
   1   1 -29   37.10   18.60
   0   1 -29  554.44   56.39
   0  -1  29  577.64   53.29
  -1   1 -29  275.67   34.10
   1  -1  29  249.18   30.10
  -2   1 -29   82.49   24.50
   2  -1  29   73.29   20.30
  -3   1 -29    4.70   29.50
   3  -1  29   27.90   19.70
   4  -1  29   38.60   22.20
   4   0 -29    9.40   18.20
   3   0 -29  -12.50   15.90
   2   0 -29   41.60   16.60
   1   0 -29   19.30   16.30
   0   0 -29  151.08   23.50
   0   0  29  137.99   20.10
  -1   0 -29  178.28   25.80
   1   0  29  125.69   20.70
  -2   0 -29    9.50   22.80
   2   0  29    5.10   16.90
  -3   0 -29  -41.40   30.60
   3   0  29   15.30   19.40
  -4   0 -29   14.40   24.30
   4   0  29    1.00   21.40
   4  -1 -29   -2.10   18.60
   3  -1 -29  -16.00   18.50
   2  -1 -29   59.19   19.60
   1  -1 -29   37.10   19.20
   0  -1 -29  204.68   28.30
   0   1  29  183.78   23.40
  -1  -1 -29  131.39   26.10
   1   1  29  118.89   19.80
  -2  -1 -29  121.39   27.00
   2   1  29  102.39   21.50
   3   1  29  -20.50   18.70
   3  -2 -29  -21.70   29.40
   3  -2 -29    2.70   21.30
   2  -2 -29    4.80   19.70
   2  -2 -29  -19.00   26.20
   1  -2 -29   58.49   26.20
   1  -2 -29   49.10   21.90
   0  -2 -29    7.00   21.00
   0  -2 -29   11.60   20.30
   0   2  29    0.20   13.90
  -1  -2 -29   16.90   23.20
   1   2  29   -1.50   15.80
  -2  -2 -29   80.99   27.30
   2   2  29   27.40   19.60
   3   2  29   -4.00   21.60
   3  -3 -29  -18.90   31.50
   2  -3 -29  -19.90   19.50
   2  -3 -29   17.20   29.00
   1  -3 -29  316.87   40.80
   1  -3 -29  278.97   36.10
   0  -3 -29   80.79   32.90
   0  -3 -29   94.89   26.40
  -1  -3 -29   43.80   27.00
   1   3  29   32.70   18.80
  -2  -3 -29   66.49   28.80
   2   3  29   25.60   22.20
   2  -4 -29  -18.80   22.90
   2  -4 -29  -10.80   32.00
   1  -4 -29   38.20   24.80
   1  -4 -29   24.80   33.20
   0  -4 -29  -39.80   25.80
  -1  -4 -29   37.00   29.70
   1   4  29   30.50   20.30
   1   5 -30   -5.00   22.60
   0   5 -30  -12.10   24.80
  -1   5 -30   10.80   25.70
   1  -5  30   30.60   20.50
   2   4 -30  -12.80   21.00
   1   4 -30  322.47   74.19
   1   4 -30  320.17   38.60
   0   4 -30  258.07   71.99
   0   4 -30  229.78   34.30
  -1   4 -30   15.70   24.10
   1  -4  30   19.90   17.40
  -2   4 -30   -5.90   24.30
   2  -4  30  -23.40   19.10
   3   3 -30   75.29   22.80
   3   3 -30   87.99   47.20
   2   3 -30   -5.00   18.70
   2   3 -30  -61.89   44.70
   1   3 -30   -4.10   19.00
   1   3 -30   20.40   45.30
   0   3 -30   83.59   24.00
   0  -3  30  106.39   18.70
  -1   3 -30    5.10   22.60
   1  -3  30  -17.70   16.00
  -2   3 -30   15.30   23.40
   2  -3  30   24.40   19.40
   3  -3  30   29.80   22.50
   3   2 -30   98.29   39.60
   3   2 -30   13.60   19.80
   2   2 -30    8.10   36.60
   2   2 -30   29.20   19.50
   1   2 -30   67.19   21.20
   1   2 -30   61.59   40.50
   0   2 -30   55.99   22.30
   0  -2  30   44.80   14.90
  -1   2 -30  127.49   26.80
   1  -2  30  108.19   20.90
  -2   2 -30    7.20   22.90
   2  -2  30    1.80   18.30
   3  -2  30   22.70   22.60
   4   1 -30   -2.00   18.90
   3   1 -30   -0.30   17.60
   2   1 -30   97.59   32.90
   2   1 -30   82.89   21.10
   1   1 -30    0.30   18.00
   0   1 -30   51.09   22.10
   0  -1  30  108.99   17.90
  -1   1 -30   26.30   22.70
   1  -1  30   15.40   15.80
  -2   1 -30  -18.20   22.60
   2  -1  30   -2.30   17.90
   3  -1  30   91.49   23.00
   4  -1  30    0.90   21.80
   4   0 -30    5.50   18.90
   3   0 -30  -10.30   16.30
   2   0 -30  411.26   42.50
   1   0 -30  265.87   31.00
   0   0 -30   67.79   19.70
   0   0  30   41.20   15.30
  -1   0 -30  159.98   26.60
   1   0  30  142.09   21.90
  -2   0 -30   59.29   24.50
   2   0  30   34.10   18.00
   3   0  30  -19.90   19.20
   4  -1 -30   32.40   19.60
   3  -1 -30   66.19   21.70
   2  -1 -30  -13.60   19.30
   1  -1 -30   12.20   19.50
   0  -1 -30   26.90   20.70
   0   1  30   -8.30   13.50
  -1  -1 -30  288.67   34.80
   1   1  30  217.78   28.80
  -2  -1 -30   85.29   25.70
   2   1  30   30.70   18.50
   3   1  30   -7.90   19.30
   3  -2 -30   79.39   34.90
   3  -2 -30  112.69   26.40
   2  -2 -30   23.30   22.40
   2  -2 -30   22.60   27.40
   1  -2 -30    4.20   24.80
   1  -2 -30   28.70   22.10
   0  -2 -30   47.90   22.40
   0  -2 -30   91.69   26.30
   0   2  30   96.29   17.40
  -1  -2 -30   26.40   24.50
   1   2  30   32.10   17.50
  -2  -2 -30   38.30   27.10
   2   2  30   18.70   19.70
   3   2  30  -25.80   20.90
   3  -3 -30   -1.80   32.50
   2  -3 -30    6.30   21.50
   2  -3 -30  -33.80   29.50
   1  -3 -30   -3.50   25.70
   1  -3 -30   27.00   23.20
   0  -3 -30   22.20   23.60
   0  -3 -30   23.20   28.60
  -1  -3 -30   29.90   28.30
   1   3  30   21.90   19.50
  -2  -3 -30   -4.80   30.30
   2   3  30   -5.80   20.40
   2  -4 -30   16.10   27.50
   1  -4 -30  -24.20   29.30
   1  -4 -30   48.90   27.80
   0  -4 -30   90.09   29.20
  -1  -4 -30   99.19   32.50
   1   4  30   78.49   24.30
   0   5 -31   38.90   26.00
  -1   5 -31   34.90   26.00
   1  -5  31    3.60   19.80
   2   4 -31   -3.20   22.00
   1   4 -31   -1.90   21.70
   0   4 -31   28.00   24.50
  -1   4 -31  -53.09   24.10
   1  -4  31    5.80   18.40
  -2   4 -31   17.60   25.30
   2  -4  31   44.40   21.10
   3   3 -31  127.49   50.69
   3   3 -31   66.39   24.20
   2   3 -31  113.99   48.60
   2   3 -31  143.09   24.90
   1   3 -31  -25.00   46.20
   1   3 -31  -24.60   19.90
   0   3 -31  262.17   33.30
   0  -3  31  226.88   28.00
  -1   3 -31   51.89   24.90
   1  -3  31   63.79   18.90
  -2   3 -31  -12.00   23.80
   2  -3  31  -16.80   18.20
   3  -3  31   59.89   24.00
   3   2 -31   -5.20   20.30
   2   2 -31   43.40   40.10
   2   2 -31   98.09   22.50
   1   2 -31   26.00   20.50
   1   2 -31   -7.20   36.40
   0   2 -31   68.89   23.80
   0  -2  31   63.09   15.90
  -1   2 -31  143.39   29.10
   1  -2  31  150.58   22.80
  -2   2 -31   35.40   24.60
   2  -2  31    6.40   19.50
   3  -2  31   27.10   24.20
   3   1 -31    4.30   18.80
   2   1 -31  -35.40   36.20
   2   1 -31   18.70   18.70
   1   1 -31  161.08   26.10
   0   1 -31   21.50   21.80
   0  -1  31   54.69   16.00
  -1   1 -31   36.20   23.90
   1  -1  31   -5.80   16.40
  -2   1 -31   49.20   25.30
   2  -1  31   54.89   20.20
   3  -1  31   15.30   21.50
   4   0 -31   23.10   20.00
   3   0 -31   55.39   19.30
   2   0 -31   90.59   20.30
   1   0 -31   47.50   18.40
   0   0 -31  101.49   23.30
   0   0  31  131.59   20.00
  -1   0 -31   31.70   22.60
   1   0  31   54.99   17.50
  -2   0 -31    6.90   24.40
   2   0  31   24.80   17.40
   3   0  31   21.90   21.20
   3  -1 -31   27.30   21.10
   2  -1 -31   25.20   20.30
   1  -1 -31  443.16   47.20
   0  -1 -31  135.79   26.90
   0   1  31  147.79   20.70
  -1  -1 -31   -6.60   23.20
   1   1  31    7.80   15.60
  -2  -1 -31   20.10   25.20
   2   1  31   37.90   18.30
   3   1  31   -6.10   19.80
   3  -2 -31   10.80   32.40
   3  -2 -31   35.70   24.00
   2  -2 -31    8.50   28.30
   2  -2 -31   18.00   22.70
   1  -2 -31   40.00   23.50
   1  -2 -31   38.90   26.50
   0  -2 -31   67.79   24.50
   0  -2 -31   69.99   23.30
   0   2  31   60.09   19.90
  -1  -2 -31   83.39   26.60
   1   2  31   42.40   19.00
  -2  -2 -31  212.58   36.50
   2   2  31  182.78   29.20
   3   2  31   -0.20   21.90
   2  -3 -31   95.49   27.50
   2  -3 -31  121.39   34.50
   1  -3 -31  -36.50   25.70
   1  -3 -31   -0.50   23.70
   0  -3 -31  -10.00   27.80
   0  -3 -31  -40.30   24.30
  -1  -3 -31   32.40   28.90
   1   3  31   26.30   19.60
  -2  -3 -31   20.40   32.20
   2   3  31    5.30   21.80
   1  -4 -31   61.99   32.10
   1  -4 -31   -6.40   25.90
   0  -4 -31   48.40   29.80
   2   4 -32   23.00   23.20
   1   4 -32   31.30   24.20
   0   4 -32  -26.30   24.80
  -1   4 -32   21.40   25.80
   1  -4  32   57.99   19.80
  -2   4 -32    4.00   25.60
   2  -4  32    4.60   20.20
   2   3 -32   56.29   48.60
   2   3 -32   51.39   21.60
   1   3 -32    3.40   48.40
   1   3 -32   -9.10   19.90
   0   3 -32   58.79   24.40
  -1   3 -32    1.60   23.80
   1  -3  32   11.70   17.30
  -2   3 -32   41.10   26.60
   2  -3  32    1.30   19.10
   3  -3  32   33.70   22.80
   3   2 -32   13.40   20.70
   2   2 -32  141.99   44.80
   2   2 -32  139.39   26.00
   1   2 -32   54.69   39.80
   1   2 -32   68.59   22.40
   0   2 -32  -13.30   21.90
   0  -2  32   -7.80   13.60
  -1   2 -32  109.59   27.60
   1  -2  32   88.29   19.90
  -2   2 -32   -1.90   24.30
   2  -2  32  -23.50   18.80
   3  -2  32  -13.70   22.30
   3   1 -32   37.20   19.60
   2   1 -32   28.20   19.90
   1   1 -32   56.39   21.50
   0   1 -32   34.40   22.60
   0  -1  32   25.60   15.40
  -1   1 -32  242.08   33.10
   1  -1  32  184.68   26.80
  -2   1 -32   39.10   25.60
   2  -1  32   52.79   21.10
   3  -1  32  -22.40   20.90
   3   0 -32  135.29   24.40
   2   0 -32   32.90   17.90
   1   0 -32   15.60   18.20
   0   0 -32  123.29   24.90
   0   0  32  138.89   21.20
  -1   0 -32    7.30   22.20
   1   0  32   -1.50   15.50
  -2   0 -32   33.30   26.30
   2   0  32    1.90   17.40
   3   0  32    2.90   21.10
   3  -1 -32   17.60   23.20
   2  -1 -32    6.40   21.00
   1  -1 -32  276.27   34.20
   0  -1 -32   78.69   25.00
   0   1  32   88.89   17.80
  -1  -1 -32   27.50   25.20
   1   1  32   49.10   17.20
  -2  -1 -32  -39.10   23.80
   2   1  32    0.50   18.20
   3   1  32   12.20   21.00
   3  -2 -32  -41.90   24.10
   3  -2 -32   23.10   34.10
   2  -2 -32   41.40   24.10
   2  -2 -32   37.10   30.20
   1  -2 -32   -5.90   25.80
   1  -2 -32   -5.10   21.40
   0  -2 -32  119.39   29.90
   0  -2 -32  102.09   25.90
  -1  -2 -32   16.80   26.10
   1   2  32   27.60   17.80
  -2  -2 -32  -16.90   28.90
   2   2  32   19.20   20.50
   2  -3 -32   -8.60   24.30
   2  -3 -32   17.10   31.10
   1  -3 -32   28.40   27.10
   1  -3 -32   -4.20   27.20
   0  -3 -32   21.50   27.60
  -1  -3 -32   38.10   33.20
   1   3  32   54.39   21.20
   1   4 -33   49.80   25.70
   0   4 -33  162.98   32.10
  -1   4 -33  136.89   30.50
   1  -4  33   64.29   21.50
  -2   4 -33    5.30   26.00
   2  -4  33    4.50   21.00
   2   3 -33  -23.50   48.30
   2   3 -33   10.70   21.60
   1   3 -33   98.39   54.59
   1   3 -33  108.09   25.30
   0   3 -33   72.99   25.40
  -1   3 -33   22.00   25.30
   1  -3  33   22.10   18.30
  -2   3 -33   12.70   25.80
   2  -3  33  -26.40   19.10
   3   2 -33  -47.40   20.60
   2   2 -33  268.17   55.39
   2   2 -33  312.97   36.60
   1   2 -33  141.49   26.60
   0   2 -33   32.60   23.40
   0  -2  33   47.20   18.20
  -1   2 -33    7.50   25.00
   1  -2  33   30.40   17.10
  -2   2 -33   74.69   27.30
   2  -2  33   30.10   21.40
   3  -2  33   28.00   24.50
   3   1 -33   19.10   19.70
   2   1 -33  -12.00   19.20
   1   1 -33   43.90   21.10
   0   1 -33   38.30   23.20
   0  -1  33   55.89   16.70
  -1   1 -33   35.00   25.20
   1  -1  33   18.80   17.10
  -2   1 -33    5.90   25.50
   2  -1  33  -20.80   19.40
   3  -1  33  -25.10   22.30
   3   0 -33   -4.80   19.50
   2   0 -33   15.20   18.30
   1   0 -33   16.10   19.00
   0   0 -33  118.69   25.10
   0   0  33  136.09   21.50
  -1   0 -33    5.50   23.30
   1   0  33   30.00   17.20
  -2   0 -33   85.89   28.40
   2   0  33   44.80   20.20
   3   0  33   46.20   22.50
   3  -1 -33    3.90   22.00
   2  -1 -33   89.59   24.30
   1  -1 -33   81.09   24.20
   0  -1 -33    5.50   23.60
  -1  -1 -33   52.49   25.40
   1   1  33   44.50   18.10
  -2  -1 -33  -29.90   26.40
   2   1  33   -0.80   18.90
   3   1  33   18.80   21.90
   3  -2 -33  122.79   32.90
   2  -2 -33   -8.40   30.70
   2  -2 -33   49.60   24.90
   1  -2 -33   40.90   27.80
   1  -2 -33   77.89   24.90
   0  -2 -33  161.88   30.70
   0  -2 -33  134.69   28.60
  -1  -2 -33  113.89   30.40
   1   2  33   53.39   20.00
  -2  -2 -33  -42.40   27.50
   2   2  33    6.90   20.70
   2  -3 -33    7.90   26.50
   2  -3 -33   -8.40   31.90
   1  -3 -33   18.40   28.60
   1  -3 -33   16.50   28.60
   0  -3 -33   45.80   29.90
  -1  -3 -33    9.40   30.00
   1   3  33   48.60   22.90
   1   4 -34   39.40   25.20
   0   4 -34   85.49   30.40
  -1   4 -34   37.20   27.40
   1  -4  34   -0.50   18.70
   2   3 -34   45.20   22.60
   2   3 -34  -46.90   49.99
   1   3 -34   69.19   23.90
   1   3 -34   25.50   53.79
   0   3 -34   32.20   24.60
  -1   3 -34  188.58   34.40
   1  -3  34  179.08   26.90
  -2   3 -34   79.89   28.50
   2  -3  34   28.80   20.50
   2   2 -34   53.89   23.10
   1   2 -34   26.30   23.20
   0   2 -34  114.09   27.80
  -1   2 -34   37.40   26.80
   1  -2  34   21.70   17.40
  -2   2 -34   -7.20   26.30
   2  -2  34  -38.80   19.90
   3   1 -34   17.40   19.50
   2   1 -34   29.60   22.00
   1   1 -34  206.78   30.40
   0   1 -34   72.39   25.10
  -1   1 -34  -21.90   25.40
   1  -1  34  -12.00   17.30
  -2   1 -34   26.10   27.70
   2  -1  34   22.00   20.60
   3  -1  34   11.60   23.70
   3   0 -34   38.10   21.90
   2   0 -34   18.70   20.20
   1   0 -34   79.09   21.40
   0   0 -34   28.90   21.50
  -1   0 -34   20.70   24.80
   1   0  34   41.70   17.70
  -2   0 -34   -1.30   28.40
   2   0  34   15.30   19.90
   3   0  34   -5.60   21.60
   3  -1 -34  -29.30   20.90
   2  -1 -34  215.88   34.10
   1  -1 -34   19.80   21.90
   0  -1 -34   79.39   25.60
  -1  -1 -34    4.00   27.40
   1   1  34   13.10   17.30
  -2  -1 -34   30.80   27.30
   2   1  34    3.30   19.10
   2  -2 -34   -7.20   30.00
   2  -2 -34    2.80   25.70
   1  -2 -34   73.59   30.30
   1  -2 -34  109.49   30.40
   0  -2 -34  -12.80   26.90
   0  -2 -34    0.60   24.30
  -1  -2 -34  -35.70   26.80
   1   2  34   -2.50   19.00
  -2  -2 -34   26.70   30.60
   2   2  34    9.30   21.60
   1  -3 -34   29.60   30.70
   1  -3 -34   43.80   29.70
   0  -3 -34  -13.90   29.10
   0   4 -35    9.30   26.80
   2   3 -35    1.20   59.89
   2   3 -35   33.80   23.30
   1   3 -35   49.99   54.59
   1   3 -35   17.50   23.30
   0   3 -35   30.30   25.90
  -1   3 -35  124.09   30.80
   1  -3  35  100.29   23.10
  -2   3 -35   17.70   27.10
   2  -3  35   37.70   20.70
   2   2 -35    0.80   21.10
   1   2 -35   37.00   23.40
   0   2 -35   56.19   26.60
  -1   2 -35   28.60   26.90
   1  -2  35   -8.60   17.70
  -2   2 -35   39.70   28.10
   2  -2  35   54.09   22.60
   3   1 -35  -34.20   19.00
   2   1 -35   27.30   22.00
   1   1 -35   29.30   22.70
   0   1 -35  -25.00   23.50
  -1   1 -35   74.29   28.80
   1  -1  35   71.19   20.90
  -2   1 -35   17.60   27.80
   2  -1  35   -3.90   20.30
   3   0 -35   32.50   22.60
   2   0 -35    3.70   20.30
   1   0 -35   50.09   21.30
   0   0 -35   19.00   22.50
  -1   0 -35   55.59   26.80
   1   0  35   51.39   19.80
  -2   0 -35   37.70   30.00
   2   0  35   10.50   20.00
   2  -1 -35   -5.90   23.00
   1  -1 -35   30.90   25.90
   0  -1 -35  159.18   30.90
  -1  -1 -35  -31.90   25.70
   1   1  35   13.90   18.90
  -2  -1 -35   58.89   29.00
   2   1  35  -17.30   19.00
   2  -2 -35   -5.70   32.30
   1  -2 -35   83.79   30.40
   1  -2 -35   76.59   31.20
   0  -2 -35   -1.70   27.40
  -1  -2 -35   -2.10   29.20
   1   2  35   18.70   21.70
   1   3 -36   -5.80   23.50
   0   3 -36   25.50   26.50
  -1   3 -36    7.80   27.80
   1  -3  36    9.30   19.30
   2   2 -36   15.80   22.90
   1   2 -36  284.47   38.30
   0   2 -36   26.20   25.90
  -1   2 -36  133.69   32.60
   1  -2  36  130.69   24.10
  -2   2 -36   89.99   30.00
   2  -2  36   47.10   22.70
   2   1 -36   -5.80   21.20
   1   1 -36   28.60   22.70
   0   1 -36  -26.30   23.90
  -1   1 -36  -22.50   26.70
   1  -1  36   18.30   19.80
  -2   1 -36  -19.00   28.00
   2  -1  36    3.30   20.70
   2   0 -36   -4.40   20.90
   1   0 -36   43.40   23.10
   0   0 -36   29.20   24.30
  -1   0 -36   13.90   27.20
   1   0  36   17.50   19.30
  -2   0 -36   57.79   32.00
   2   0  36   29.50   21.30
   2  -1 -36   -1.10   22.40
   1  -1 -36   48.80   26.20
   0  -1 -36   43.00   26.50
  -1  -1 -36   -4.50   27.00
   1   1  36    3.70   19.30
  -2  -1 -36    3.40   28.70
   2   1  36   15.80   22.20
   1  -2 -36  -23.30   25.40
   1  -2 -36   18.80   28.70
   0  -2 -36  159.18   34.90
  -1  -2 -36   69.99   32.40
   0   3 -37   67.79   28.40
  -1   3 -37   32.80   28.50
   1   2 -37   31.90   24.90
   0   2 -37  -19.70   26.00
  -1   2 -37   14.40   29.30
   1  -2  37  -11.20   18.30
   2   1 -37   26.70   22.60
   1   1 -37  243.48   35.80
   0   1 -37  195.88   34.60
  -1   1 -37   22.80   28.20
   1  -1  37  -24.80   19.40
  -2   1 -37   24.50   29.90
   2  -1  37   41.70   22.70
   2   0 -37   32.10   24.40
   1   0 -37    0.60   23.30
   0   0 -37   15.70   25.40
  -1   0 -37   18.30   28.30
   1   0  37   -5.10   19.30
  -2   0 -37   15.00   31.50
   2   0  37   21.20   20.50
   2  -1 -37    0.90   23.60
   1  -1 -37   57.99   26.40
   0  -1 -37    7.30   25.90
  -1  -1 -37   36.10   28.10
   0  -2 -37  -13.00   32.00
   1   2 -38   10.80   24.50
   0   2 -38   10.70   27.80
  -1   2 -38    6.70   29.50
   1   1 -38   65.79   26.50
   0   1 -38   18.20   27.20
  -1   1 -38   24.20   28.80
   1   0 -38  -28.50   21.90
   0   0 -38  200.98   34.10
  -1   0 -38   64.09   30.70
   1  -1 -38    5.50   23.80
   0  -1 -38  -19.70   25.80
  -1  -1 -38  -22.20   29.00
   0   2 -39   86.89   30.70
   1   1 -39   34.50   26.00
   0   1 -39   54.29   29.30
  -1   1 -39  -50.69   28.20
   1   0 -39   -1.60   23.70
   0   0 -39   83.49   29.90

_computing_structure_solution     'SHELXT 2014/4 (Sheldrick, 2014)'
;
_shelx_hkl_checksum              35048
loop_
_space_group_symop_operation_xyz
'x, y, z'
'-x, -y, -z'
loop_
_atom_site_label
_atom_site_type_symbol
_atom_site_fract_x
_atom_site_fract_y
_atom_site_fract_z
_atom_site_U_iso_or_equiv
_atom_site_adp_type
_atom_site_occupancy
_atom_site_site_symmetry_order
_atom_site_calc_flag
_atom_site_refinement_flags_posn
_atom_site_refinement_flags_adp
_atom_site_refinement_flags_occupancy
_atom_site_disorder_assembly
_atom_site_disorder_group
Hg1 Hg 0.5000 0.0000 0.5000 0.1046(5) Uani 1 2 d S . P . .
S7 S 0.413(3) 0.1326(12) 0.4327(2) 0.305(10) Uani 0.85 1 d D . P . .
C14 C 0.476(6) 0.419(4) 0.4419(7) 0.130(9) Uani 0.85 1 d D . P . .
N2 N 0.505(5) 0.606(3) 0.4457(6) 0.139(8) Uani 0.85 1 d D . P . .
S8 S 0.985(3) 0.1398(16) 0.4624(3) 0.1046(5) Uani 0.4 1 d D . P . .
C15 C 0.956(7) 0.427(3) 0.4711(13) 0.130(9) Uani 0.4 1 d D . P . .
N3 N 0.971(6) 0.621(3) 0.4806(11) 0.139(8) Uani 0.4 1 d D . P . .
S1 S 1.1467(6) 0.1586(5) 0.71185(10) 0.0514(8) Uani 1 1 d . . . . .
S2 S 0.9234(7) 0.6074(5) 0.65610(9) 0.0533(8) Uani 1 1 d . . . . .
S3 S 0.8020(5) 0.3378(4) 0.78151(8) 0.0383(6) Uani 1 1 d . . . . .
S4 S 0.6144(6) 0.7182(4) 0.73521(8) 0.0406(7) Uani 1 1 d . . . . .
S5 S 0.4357(5) 0.4939(4) 0.86324(8) 0.0369(6) Uani 1 1 d . . . . .
S6 S 0.2622(6) 0.8814(4) 0.81640(8) 0.0395(6) Uani 1 1 d . . . . .
N1 N -0.497(2) 1.2251(19) 0.9627(4) 0.063(3) Uani 1 1 d . . . . .
C1 C 1.211(3) 0.224(2) 0.6572(4) 0.061(3) Uani 1 1 d . . . . .
H1A H 1.3741 0.3296 0.6577 0.073 Uiso 1 1 calc R U . . .
H1B H 1.2523 0.0823 0.6407 0.073 Uiso 1 1 calc R U . . .
C2 C 1.000(3) 0.322(2) 0.6344(4) 0.061(3) Uani 1 1 d . . . . .
H2A H 0.8343 0.2197 0.6345 0.073 Uiso 1 1 calc R U . . .
H2B H 1.0519 0.3298 0.6045 0.073 Uiso 1 1 calc R U . . .
C3 C 0.9335(19) 0.3686(16) 0.7295(3) 0.033(2) Uani 1 1 d . . . . .
C4 C 0.847(2) 0.5456(16) 0.7085(3) 0.034(2) Uani 1 1 d . . . . .
C5 C 0.6066(19) 0.5732(16) 0.7820(3) 0.034(2) Uani 1 1 d . . . . .
C6 C 0.4504(17) 0.6425(15) 0.8162(3) 0.029(2) Uani 1 1 d . . . . .
C7 C 0.2093(19) 0.6705(16) 0.8895(3) 0.032(2) Uani 1 1 d . . . . .
C8 C 0.1217(19) 0.8529(16) 0.8675(3) 0.030(2) Uani 1 1 d . . . . .
C9 C 0.108(2) 0.6354(17) 0.9308(3) 0.038(2) Uani 1 1 d . . . . .
H9 H 0.1651 0.5148 0.9457 0.045 Uiso 1 1 calc R U . . .
C10 C -0.0586(19) 0.9988(16) 0.8862(3) 0.033(2) Uani 1 1 d . . . . .
H10 H -0.1144 1.1210 0.8716 0.039 Uiso 1 1 calc R U . . .
C11 C -0.072(2) 0.7780(19) 0.9490(3) 0.045(3) Uani 1 1 d . . . . .
H11 H -0.1397 0.7540 0.9762 0.054 Uiso 1 1 calc R U . . .
C12 C -0.156(2) 0.9614(17) 0.9269(3) 0.038(2) Uani 1 1 d . . . . .
C13 C -0.346(3) 1.105(2) 0.9467(4) 0.049(3) Uani 1 1 d . . . . .
loop_
_atom_site_aniso_label
_atom_site_aniso_U_11
_atom_site_aniso_U_22
_atom_site_aniso_U_33
_atom_site_aniso_U_23
_atom_site_aniso_U_13
_atom_site_aniso_U_12
Hg1 0.2169(14) 0.0482(5) 0.0505(5) 0.0081(3) 0.0043(6) 0.0175(6)
S7 0.79(3) 0.062(4) 0.067(4) -0.006(3) -0.062(9) 0.084(9)
C14 0.27(3) 0.054(11) 0.068(12) 0.015(9) -0.005(15) -0.005(14)
N2 0.29(3) 0.048(9) 0.081(11) 0.021(7) -0.010(13) -0.014(11)
S8 0.2169(14) 0.0482(5) 0.0505(5) 0.0081(3) 0.0043(6) 0.0175(6)
C15 0.27(3) 0.054(11) 0.068(12) 0.015(9) -0.005(15) -0.005(14)
N3 0.29(3) 0.048(9) 0.081(11) 0.021(7) -0.010(13) -0.014(11)
S1 0.0537(19) 0.0502(16) 0.0528(18) 0.0027(13) 0.0143(15) 0.0183(13)
S2 0.074(2) 0.0525(17) 0.0353(15) 0.0084(12) 0.0188(15) 0.0049(14)
S3 0.0386(16) 0.0432(14) 0.0350(14) 0.0076(11) 0.0092(12) 0.0083(11)
S4 0.0456(17) 0.0425(14) 0.0365(14) 0.0088(11) 0.0106(12) 0.0125(12)
S5 0.0411(16) 0.0391(13) 0.0323(13) 0.0057(10) 0.0102(12) 0.0090(11)
S6 0.0462(17) 0.0396(14) 0.0352(14) 0.0102(11) 0.0142(12) 0.0093(12)
N1 0.067(7) 0.064(7) 0.063(7) 0.009(5) 0.004(6) 0.031(6)
C1 0.075(9) 0.045(7) 0.065(8) -0.003(6) 0.026(7) 0.016(6)
C2 0.065(9) 0.076(9) 0.044(7) -0.004(6) 0.011(6) 0.026(7)
C3 0.030(6) 0.034(5) 0.033(5) 0.003(4) 0.010(4) 0.000(4)
C4 0.035(6) 0.034(5) 0.032(5) 0.002(4) 0.005(5) -0.005(4)
C5 0.029(6) 0.039(5) 0.032(5) 0.007(4) -0.004(5) -0.010(4)
C6 0.019(5) 0.038(5) 0.026(5) -0.001(4) 0.007(4) -0.009(4)
C7 0.029(6) 0.034(5) 0.032(5) 0.000(4) 0.001(4) -0.003(4)
C8 0.024(5) 0.038(5) 0.029(5) 0.006(4) 0.008(4) -0.006(4)
C9 0.037(6) 0.043(6) 0.035(6) 0.015(4) 0.010(5) 0.003(5)
C10 0.030(6) 0.030(5) 0.038(6) 0.007(4) 0.000(5) -0.005(4)
C11 0.048(7) 0.056(7) 0.031(6) 0.013(5) -0.001(5) 0.005(5)
C12 0.035(6) 0.041(6) 0.037(6) -0.008(4) 0.004(5) 0.006(5)
C13 0.058(8) 0.056(7) 0.037(6) 0.012(5) 0.004(6) 0.013(6)
loop_
_atom_type_symbol
_atom_type_description
_atom_type_scat_dispersion_real
_atom_type_scat_dispersion_imag
_atom_type_scat_source
C C 0.0033 0.0016 'International Tables Vol C Tables 4.2.6.8 and 6.1.1.4'
H H 0.0000 0.0000 'International Tables Vol C Tables 4.2.6.8 and 6.1.1.4'
N N 0.0061 0.0033 'International Tables Vol C Tables 4.2.6.8 and 6.1.1.4'
S S 0.1246 0.1234 'International Tables Vol C Tables 4.2.6.8 and 6.1.1.4'
Hg Hg -2.3894 9.2266 'International Tables Vol C Tables 4.2.6.8 and 6.1.1.4'
loop_
_geom_angle_atom_site_label_1
_geom_angle_atom_site_label_2
_geom_angle_atom_site_label_3
_geom_angle
_geom_angle_site_symmetry_1
_geom_angle_site_symmetry_3
_geom_angle_publ_flag
S7 Hg1 S7 180.0(3) 2_656 . ?
S7 Hg1 S8 110.2(4) 2_656 . ?
S7 Hg1 S8 69.8(4) . . ?
S7 Hg1 S8 69.8(4) 2_656 2_656 ?
S7 Hg1 S8 110.2(4) . 2_656 ?
S8 Hg1 S8 180.0 . 2_656 ?
S7 Hg1 S8 50.0(4) 2_656 2_756 ?
S7 Hg1 S8 130.0(4) . 2_756 ?
S8 Hg1 S8 62.1(3) . 2_756 ?
S8 Hg1 S8 117.9(3) 2_656 2_756 ?
S7 Hg1 S8 130.0(4) 2_656 1_455 ?
S7 Hg1 S8 50.0(4) . 1_455 ?
S8 Hg1 S8 117.9(3) . 1_455 ?
S8 Hg1 S8 62.1(3) 2_656 1_455 ?
S8 Hg1 S8 180.0 2_756 1_455 ?
C14 S7 S8 92.6(12) . 1_455 ?
C14 S7 Hg1 103.3(8) . . ?
S8 S7 Hg1 79.5(5) 1_455 . ?
N2 C14 S7 175(2) . . ?
C15 S8 N3 46.8(15) . 2_766 ?
C15 S8 S7 101.3(15) . 1_655 ?
N3 S8 S7 106.3(10) 2_766 1_655 ?
C15 S8 Hg1 96.8(16) . . ?
N3 S8 Hg1 83.0(10) 2_766 . ?
S7 S8 Hg1 161.4(4) 1_655 . ?
C15 S8 Hg1 112.3(12) . 1_655 ?
N3 S8 Hg1 80.0(8) 2_766 1_655 ?
S7 S8 Hg1 50.5(3) 1_655 1_655 ?
Hg1 S8 Hg1 117.9(3) . 1_655 ?
N3 C15 N3 90(3) . 2_766 ?
N3 C15 S8 170(3) . . ?
N3 C15 S8 82.2(16) 2_766 . ?
N3 C15 C15 55(2) . 2_766 ?
N3 C15 C15 35.9(15) 2_766 2_766 ?
S8 C15 C15 118(3) . 2_766 ?
C15 N3 C15 90(3) . 2_766 ?
C15 N3 S8 140(3) . 2_766 ?
C15 N3 S8 51.0(11) 2_766 2_766 ?
C3 S1 C1 102.3(5) . . ?
C4 S2 C2 98.7(6) . . ?
C5 S3 C3 95.5(5) . . ?
C5 S4 C4 95.4(5) . . ?
C7 S5 C6 94.9(5) . . ?
C6 S6 C8 96.0(5) . . ?
C2 C1 S1 117.4(10) . . ?
C2 C1 H1A 107.9 . . ?
S1 C1 H1A 107.9 . . ?
C2 C1 H1B 107.9 . . ?
S1 C1 H1B 107.9 . . ?
H1A C1 H1B 107.2 . . ?
C1 C2 S2 115.0(9) . . ?
C1 C2 H2A 108.5 . . ?
S2 C2 H2A 108.5 . . ?
C1 C2 H2B 108.5 . . ?
S2 C2 H2B 108.5 . . ?
H2A C2 H2B 107.5 . . ?
C4 C3 S1 129.3(8) . . ?
C4 C3 S3 116.3(7) . . ?
S1 C3 S3 114.3(6) . . ?
C3 C4 S2 126.7(8) . . ?
C3 C4 S4 117.1(7) . . ?
S2 C4 S4 116.0(6) . . ?
C6 C5 S3 123.5(8) . . ?
C6 C5 S4 120.8(8) . . ?
S3 C5 S4 115.6(6) . . ?
C5 C6 S6 122.7(7) . . ?
C5 C6 S5 121.2(8) . . ?
S6 C6 S5 116.1(5) . . ?
C8 C7 C9 119.4(9) . . ?
C8 C7 S5 117.5(7) . . ?
C9 C7 S5 123.1(8) . . ?
C10 C8 C7 120.6(9) . . ?
C10 C8 S6 123.9(8) . . ?
C7 C8 S6 115.5(7) . . ?
C11 C9 C7 119.8(10) . . ?
C11 C9 H9 120.1 . . ?
C7 C9 H9 120.1 . . ?
C8 C10 C12 119.1(9) . . ?
C8 C10 H10 120.4 . . ?
C12 C10 H10 120.4 . . ?
C9 C11 C12 120.4(10) . . ?
C9 C11 H11 119.8 . . ?
C12 C11 H11 119.8 . . ?
C10 C12 C11 120.7(9) . . ?
C10 C12 C13 120.5(10) . . ?
C11 C12 C13 118.8(10) . . ?
N1 C13 C12 178.8(13) . . ?
loop_
_geom_bond_atom_site_label_1
_geom_bond_atom_site_label_2
_geom_bond_distance
_geom_bond_site_symmetry_2
_geom_bond_publ_flag
Hg1 S7 2.326(7) 2_656 ?
Hg1 S7 2.326(7) . ?
Hg1 S8 2.764(13) . ?
Hg1 S8 2.764(13) 2_656 ?
Hg1 S8 2.965(13) 2_756 ?
Hg1 S8 2.965(13) 1_455 ?
S7 C14 1.67(2) . ?
S7 S8 2.310(17) 1_455 ?
C14 N2 1.08(2) . ?
S8 C15 1.687(16) . ?
S8 N3 2.15(3) 2_766 ?
S8 S7 2.310(17) 1_655 ?
S8 Hg1 2.965(13) 1_655 ?
C15 N3 1.141(16) . ?
C15 N3 1.58(5) 2_766 ?
C15 C15 1.95(7) 2_766 ?
N3 C15 1.58(5) 2_766 ?
N3 S8 2.15(3) 2_766 ?
S1 C3 1.730(10) . ?
S1 C1 1.793(13) . ?
S2 C4 1.731(10) . ?
S2 C2 1.808(13) . ?
S3 C5 1.733(11) . ?
S3 C3 1.763(10) . ?
S4 C5 1.738(10) . ?
S4 C4 1.752(10) . ?
S5 C7 1.737(10) . ?
S5 C6 1.757(9) . ?
S6 C6 1.729(10) . ?
S6 C8 1.751(9) . ?
N1 C13 1.145(14) . ?
C1 C2 1.429(18) . ?
C1 H1A 0.9700 . ?
C1 H1B 0.9700 . ?
C2 H2A 0.9700 . ?
C2 H2B 0.9700 . ?
C3 C4 1.357(14) . ?
C5 C6 1.369(13) . ?
C7 C8 1.401(14) . ?
C7 C9 1.406(14) . ?
C8 C10 1.375(14) . ?
C9 C11 1.356(15) . ?
C9 H9 0.9300 . ?
C10 C12 1.384(14) . ?
C10 H10 0.9300 . ?
C11 C12 1.401(15) . ?
C11 H11 0.9300 . ?
C12 C13 1.417(16) . ?
