#------------------------------------------------------------------------------
#$Date: 2021-12-21 01:35:35 +0200 (Tue, 21 Dec 2021) $
#$Revision: 271547 $
#$URL: file:///home/coder/svn-repositories/cod/cif/7/24/40/7244089.cif $
#------------------------------------------------------------------------------
#
# This file is available in the Crystallography Open Database (COD),
# http://www.crystallography.net/
#
# All data on this site have been placed in the public domain by the
# contributors.
#
data_7244089
loop_
_publ_author_name
'Panikkattu, Vinu V.'
'Sinha, Abhijeet Shekhar'
'Aaker\"oy, Christer'
_publ_section_title
;
 A family of powerful halogen-bond donors: A structural and theoretical
 analysis of triply activated 3-iodo-1-phenylprop-2-yn-1-ones
;
_journal_name_full               CrystEngComm
_journal_paper_doi               10.1039/D1CE01583D
_journal_year                    2022
_chemical_formula_moiety         'C10 H4 I N O'
_chemical_formula_sum            'C10 H4 I N O'
_chemical_formula_weight         281.04
_chemical_name_systematic        3-(3-iodopropioloyl)benzonitrile
_space_group_crystal_system      triclinic
_space_group_IT_number           2
_space_group_name_Hall           '-P 1'
_space_group_name_H-M_alt        'P -1'
_atom_sites_solution_hydrogens   geom
_atom_sites_solution_primary     dual
_audit_creation_date             2020-09-01
_audit_creation_method
;
APEX2 v2014.11-0
Olex2 1.2
(compiled 2018.05.29 svn.r3508 for OlexSys, GUI svn.r5506)
;
_audit_update_record
;
2021-09-15 deposited with the CCDC.	2021-12-20 downloaded from the CCDC.
;
_cell_angle_alpha                104.330(2)
_cell_angle_beta                 96.117(2)
_cell_angle_gamma                94.399(3)
_cell_formula_units_Z            2
_cell_length_a                   5.6138(3)
_cell_length_b                   7.8625(4)
_cell_length_c                   11.1133(5)
_cell_measurement_reflns_used    5075
_cell_measurement_temperature    200.(2)
_cell_measurement_theta_max      69.49
_cell_measurement_theta_min      4.14
_cell_volume                     469.84(4)
_computing_cell_refinement       'SAINT v8.34A (Bruker, 2013)'
_computing_data_collection       'Bruker MicroStar'
_computing_data_reduction        'SAINT v8.34A (Bruker, 2013)'
_computing_molecular_graphics    'Olex2 (Dolomanov et al., 2009)'
_computing_publication_material  'Olex2 (Dolomanov et al., 2009)'
_computing_structure_refinement  'SHELXL-2014/7 (Sheldrick, 2014)'
_computing_structure_solution    'XT (Sheldrick, 2015)'
_diffrn_ambient_temperature      200.(2)
_diffrn_measured_fraction_theta_full 'ACTA 50'
_diffrn_measured_fraction_theta_max 0.922
_diffrn_measurement_device_type  'Bruker MicroStar'
_diffrn_measurement_method       '\f and \w scans'
_diffrn_radiation_type           CuK\a
_diffrn_radiation_wavelength     1.54178
_diffrn_reflns_av_R_equivalents  0.0491
_diffrn_reflns_av_unetI/netI     0.0443
_diffrn_reflns_limit_h_max       6
_diffrn_reflns_limit_h_min       -6
_diffrn_reflns_limit_k_max       9
_diffrn_reflns_limit_k_min       -9
_diffrn_reflns_limit_l_max       12
_diffrn_reflns_limit_l_min       -13
_diffrn_reflns_number            6165
_diffrn_reflns_theta_full        'ACTA 50'
_diffrn_reflns_theta_max         70.02
_diffrn_reflns_theta_min         4.14
_exptl_absorpt_coefficient_mu    26.425
_exptl_absorpt_correction_T_max  0.50
_exptl_absorpt_correction_T_min  0.13
_exptl_absorpt_correction_type   multi-scan
_exptl_absorpt_process_details
;
SADABS-2014/5 (Bruker,2014/5) was used for absorption correction.
wR2(int) was 0.1270 before and 0.0697 after correction.
The Ratio of minimum to maximum transmission is 0.0803.
The \l/2 correction factor is 0.00150.
;
_exptl_crystal_colour            colourless
_exptl_crystal_density_diffrn    1.987
_exptl_crystal_density_method    'not measured'
_exptl_crystal_description       'Thin plate'
_exptl_crystal_F_000             264
_exptl_crystal_recrystallization_method
'Re-crystallisation from solvent: Dioxane'
_exptl_crystal_size_max          0.135
_exptl_crystal_size_mid          0.080
_exptl_crystal_size_min          0.030
_refine_diff_density_max         1.144
_refine_diff_density_min         -0.992
_refine_ls_extinction_method     none
_refine_ls_goodness_of_fit_ref   1.041
_refine_ls_hydrogen_treatment    constr
_refine_ls_matrix_type           full
_refine_ls_number_parameters     118
_refine_ls_number_reflns         1643
_refine_ls_number_restraints     0
_refine_ls_restrained_S_all      1.041
_refine_ls_R_factor_all          0.0402
_refine_ls_R_factor_gt           0.0392
_refine_ls_shift/su_max          0.000
_refine_ls_shift/su_mean         0.000
_refine_ls_structure_factor_coef Fsqd
_refine_ls_weighting_details
'w=1/[\s^2^(Fo^2^)+(0.0843P)^2^+0.0260P] where P=(Fo^2^+2Fc^2^)/3'
_refine_ls_weighting_scheme      calc
_refine_ls_wR_factor_gt          0.1038
_refine_ls_wR_factor_ref         0.1053
_reflns_number_gt                1566
_reflns_number_total             1643
_reflns_threshold_expression     'I > 2\s(I)'
_cod_data_source_file            d1ce01583d2.cif
_cod_data_source_block           vp-k1-3cn-3-2
_cod_database_code               7244089
_shelx_res_file
;
VP-K1-3CN-3-2.res created by SHELXL-2014/7

TITL vp-k1-3cn-3-2_a.res in P-1
CELL 1.54178 5.6138 7.8625 11.1133 104.33 96.117 94.399
ZERR 2 0.0003 0.0004 0.0005 0.002 0.002 0.003
LATT 1
SFAC C H I N O
UNIT 20 8 2 2 2

L.S. 20
PLAN  20
SIZE 0.03 0.08 0.135
TEMP -73.16
BOND $H
BIND I11 N13_$1
EQIV $1_[1+x, y, -1+z]
list 4
fmap 2
acta
REM <olex2.extras>
REM <HklSrc "%.\\VP-K1-3CN-3-2.hkl">
REM </olex2.extras>

WGHT    0.084300    0.026000
FVAR       0.59505
C1    1    0.445126    0.730157    0.511564    11.00000    0.04134    0.04619 =
         0.04302    0.01319    0.01363    0.00250
C2    1    0.317434    0.714466    0.610188    11.00000    0.04024    0.05224 =
         0.04920    0.01463    0.01720   -0.00016
AFIX  43
H2    2    0.166191    0.644508    0.593891    11.00000   -1.20000
AFIX   0
C3    1    0.412327    0.801039    0.730999    11.00000    0.05292    0.04528 =
         0.04651    0.01284    0.01878    0.00729
C4    1    0.632322    0.903812    0.757517    11.00000    0.05600    0.06378 =
         0.04579    0.00982    0.01391    0.00397
AFIX  43
H4    2    0.692698    0.965773    0.841326    11.00000   -1.20000
AFIX   0
C5    1    0.763537    0.915348    0.660509    11.00000    0.04996    0.07035 =
         0.06322    0.01457    0.01179   -0.00888
AFIX  43
H5    2    0.917380    0.981911    0.677398    11.00000   -1.20000
AFIX   0
C6    1    0.667068    0.828018    0.537633    11.00000    0.04485    0.05752 =
         0.05437    0.01648    0.01912    0.00161
AFIX  43
H6    2    0.756187    0.836312    0.470904    11.00000   -1.20000
AFIX   0
C7    1    0.336612    0.636916    0.380854    11.00000    0.04646    0.06242 =
         0.04554    0.01506    0.01154   -0.00529
O8    5    0.138274    0.555450    0.357211    11.00000    0.06304    0.11415 =
         0.05512    0.01513    0.00964   -0.03426
C9    1    0.477423    0.651937    0.281912    11.00000    0.05315    0.06409 =
         0.04384    0.01320    0.01531    0.00147
C10   1    0.600859    0.667914    0.203225    11.00000    0.05907    0.04925 =
         0.04637    0.00925    0.01225    0.00229
I11   3    0.816117    0.703539    0.078213    11.00000    0.05810    0.05684 =
         0.04270    0.00940    0.01850    0.00084
C12   1    0.277592    0.789288    0.833000    11.00000    0.05939    0.06013 =
         0.04951    0.01363    0.01911    0.00644
N13   4    0.171046    0.782988    0.913075    11.00000    0.08492    0.08486 =
         0.05781    0.02031    0.03113    0.00704
HKLF 4

REM  vp-k1-3cn-3-2_a.res in P-1
REM R1 =  0.0392 for    1566 Fo > 4sig(Fo)  and  0.0402 for all    1643 data
REM    118 parameters refined using      0 restraints

END

WGHT      0.0848      0.0087

REM Highest difference peak  1.144,  deepest hole -0.992,  1-sigma level  0.145
Q1    1   0.8123  0.6781 -0.0184  11.00000  0.05    1.14
Q2    1   0.8208  0.7468  0.1760  11.00000  0.05    1.08
Q3    1   0.7052  0.4929  0.1140  11.00000  0.05    0.46
Q4    1  -0.0869  0.6310  0.9089  11.00000  0.05    0.45
Q5    1   0.6920  0.7835  0.2363  11.00000  0.05    0.44
Q6    1   1.1734  0.5832  0.0985  11.00000  0.05    0.37
Q7    1   0.7086  0.9139  0.6393  11.00000  0.05    0.37
Q8    1   0.3486  0.6487  0.2788  11.00000  0.05    0.37
Q9    1   0.8883  0.5268 -0.0174  11.00000  0.05    0.34
Q10   1   0.8867  0.5742  0.1013  11.00000  0.05    0.34
Q11   1   0.4409  0.6010  0.2385  11.00000  0.05    0.33
Q12   1   0.9255  0.5085 -0.0387  11.00000  0.05    0.33
Q13   1   0.0521  0.6462  0.2723  11.00000  0.05    0.31
Q14   1   0.2571  0.4264  0.5984  11.00000  0.05    0.30
Q15   1   0.5074  0.6406  0.8578  11.00000  0.05    0.30
Q16   1   0.4079  0.5154  0.6199  11.00000  0.05    0.29
Q17   1   0.2062  0.8692  0.5564  11.00000  0.05    0.29
Q18   1   0.6242  0.7502  0.8982  11.00000  0.05    0.28
Q19   1   0.3851  0.8284  0.3169  11.00000  0.05    0.28
Q20   1   0.1896  0.5116  0.4011  11.00000  0.05    0.28
;
_shelx_res_checksum              44911
_shelx_hkl_file
;
  -1   0   0   19.80    1.70
  -1   0   0   21.00    2.00
  -1   0   0   16.40    1.40
  -2   0   0 1766.42  108.89
  -2   0   0 1800.12  108.19
  -2   0   0 1740.83  110.09
  -3   0   0  973.40   61.39
  -3   0   0  964.90   59.99
  -4   0   0   43.60    4.30
  -4   0   0   43.60    4.40
  -4   0   0   38.80    5.70
  -4   0   0   38.10    4.80
  -5   0   0  160.18   10.00
  -5   0   0  161.38   12.40
  -5   0   0  156.88   13.20
  -6   0   0   60.19    6.80
  -6   0   0   68.19    4.70
  -6   0   0   65.09    4.30
   6  -1   0   21.20    2.60
  -6   1   0   19.80    1.90
  -6   1   0   24.60    2.60
  -6   1   0   21.50    4.30
   5  -1   0  116.79    8.90
  -5   1   0  103.99    6.90
  -5   1   0  113.49    9.40
  -5   1   0  108.19   10.60
  -5   1   0   96.99    7.20
  -4   1   0  292.87   19.70
  -4   1   0  285.07   19.40
  -4   1   0  303.57   21.10
   3  -1   0    1.10    1.10
  -2   1   0 1032.30   67.69
  -2   1   0 1139.29   68.69
  -2   1   0 1144.69   68.19
   1  -1   0  791.22   48.40
  -1   1   0  747.33   48.50
  -1   1   0  827.22   48.70
   0  -1   0  345.77   21.70
  -1  -1   0 1483.45   92.89
  -1  -1   0 1540.15   93.49
  -2  -1   0  846.52   51.29
  -2  -1   0  804.82   52.39
  -2  -1   0  860.61   51.69
  -3  -1   0  751.92   48.10
  -3  -1   0  741.33   46.60
  -4  -1   0  516.45   33.00
  -4  -1   0  546.25   33.60
  -4  -1   0  482.45   32.90
  -4  -1   0  499.75   35.10
  -5  -1   0   26.20    4.30
  -5  -1   0   27.00    2.10
  -5  -1   0   29.20    4.30
  -6  -1   0   87.69    8.50
  -6  -1   0  108.39    6.40
   6   1   0  100.39    6.90
   6  -2   0   86.19    6.50
  -6   2   0   82.89    6.20
   5  -2   0   56.69    5.80
   5  -2   0   56.09    4.50
  -5   2   0   57.99    4.40
  -5   2   0   53.39    8.00
  -5   2   0   57.09    4.90
  -5   2   0   57.29    6.50
  -5   2   0   54.09    3.90
   4  -2   0  249.88   16.70
   4  -2   0  251.97   18.10
  -4   2   0  253.47   17.20
  -4   2   0  252.97   19.20
  -4   2   0  280.57   17.90
   3  -2   0  629.34   40.70
  -3   2   0  646.84   39.80
   2  -2   0   11.20    2.00
  -2   2   0   10.40    1.40
  -2   2   0    9.10    1.80
   1  -2   0  154.68   10.10
  -1   2   0  156.48   10.40
   0  -2   0 3934.71  241.88
  -1  -2   0   79.49    6.10
  -1  -2   0   88.49    5.50
  -2  -2   0 1798.92  106.79
  -2  -2   0 1621.34  106.89
  -2  -2   0 1771.82  107.49
  -2  -2   0 1766.92  110.39
  -3  -2   0  261.37   17.20
  -3  -2   0  280.37   18.70
  -3  -2   0  270.37   17.30
  -3  -2   0  212.08   21.00
  -4  -2   0  185.18   11.90
  -4  -2   0  169.08   12.00
  -4  -2   0  150.18   13.90
  -4  -2   0  138.89   11.90
  -5  -2   0  141.79    8.80
  -5  -2   0  137.19   11.00
  -5  -2   0  145.29   11.40
  -6  -2   0    4.90    0.70
   6  -3   0    3.60    1.00
   6  -3   0    4.40    1.60
  -6   3   0    0.50    2.00
   5  -3   0  172.98   11.50
   5  -3   0  172.48   11.90
  -5   3   0  168.38   11.80
   4  -3   0  109.69    7.30
   4  -3   0   93.99    8.60
  -4   3   0  101.39    7.80
  -4   3   0  108.19    7.20
  -4   3   0   95.09    8.50
   3  -3   0  210.98   14.40
  -3   3   0  186.48   13.00
   2  -3   0 1257.67   72.19
  -2   3   0 1052.09   70.69
   1  -3   0   45.60    4.20
   1  -3   0   44.30    3.80
   0  -3   0 1134.69   63.69
   0  -3   0  914.91   63.59
  -1  -3   0  380.86   23.70
  -1  -3   0  362.26   26.70
  -1  -3   0  331.97   24.20
  -1  -3   0  380.86   22.70
  -2  -3   0   97.69   10.30
  -2  -3   0  119.89    8.80
  -2  -3   0  133.89   10.00
  -2  -3   0  106.29    7.90
  -2  -3   0  104.09    8.40
  -3  -3   0  436.96   28.80
  -4  -3   0  135.89   10.20
  -4  -3   0  169.28   13.20
  -5  -3   0    5.30    3.30
   6  -4   0   31.40    2.70
   6  -4   0   29.10    3.70
   5  -4   0    0.70    1.40
   5  -4   0    0.10    1.20
   5  -4   0    0.40    1.00
   4  -4   0  277.67   19.90
   4  -4   0  279.57   17.80
   4  -4   0  270.57   17.70
  -4   4   0  262.17   17.60
  -4   4   0  289.87   18.30
  -4   4   0  261.07   18.80
   3  -4   0  233.38   17.70
   3  -4   0  263.07   16.10
   2  -4   0  189.68   14.00
   1  -4   0 1834.92  114.89
   1  -4   0 1854.21  113.69
   1  -4   0 1894.11  115.59
   0  -4   0  163.78   11.80
   0  -4   0  156.98   10.10
   0  -4   0  144.59   12.00
   0  -4   0  158.18   11.50
  -1  -4   0  657.63   41.00
  -1  -4   0  659.93   42.00
  -1  -4   0  670.83   40.40
  -1  -4   0  613.14   42.00
  -2  -4   0  748.73   50.29
  -2  -4   0  782.42   48.80
  -2  -4   0  800.42   48.90
  -2  -4   0  711.13   50.69
   2   4   0  872.71   51.59
   5  -5   0   50.19    4.40
   5  -5   0   56.49    4.60
   4  -5   0    0.60    1.10
   4  -5   0    1.80    1.50
   4  -5   0    0.30    1.70
  -4   5   0   -0.50    1.90
  -4   5   0    1.00    1.20
   3  -5   0  195.08   12.40
   3  -5   0  187.38   12.90
   3  -5   0  189.08   15.00
   2  -5   0  298.67   18.70
   2  -5   0  274.37   20.60
   1  -5   0   81.79    7.50
   1  -5   0   89.39    5.90
   1  -5   0   83.89    8.50
   1  -5   0   87.39    8.50
  -1   5   0   70.09    7.20
   0  -5   0  703.43   48.30
   0  -5   0  701.33   46.30
   0  -5   0  738.83   46.40
   0  -5   0  705.33   44.20
  -1  -5   0   55.09    6.70
  -1  -5   0   57.79    4.80
  -1  -5   0   58.99    5.90
  -2  -5   0  146.39   10.90
  -2  -5   0  156.68   11.70
   5  -6   0   15.80    1.80
   5  -6   0   15.20    2.00
   5  -6   0   13.50    2.10
   4  -6   0   75.89    6.30
   4  -6   0   82.49    5.70
   4  -6   0   73.49    6.10
  -4   6   0   76.69    6.20
  -4   6   0   90.39    8.80
   3  -6   0    8.50    2.10
   3  -6   0    8.60    1.40
   3  -6   0    5.80    1.70
   3  -6   0    3.70    2.50
   2  -6   0  139.19   12.50
   2  -6   0  130.29    9.80
   2  -6   0  131.99   10.00
   2  -6   0  140.59    8.80
   2  -6   0  135.39    8.90
   1  -6   0  385.76   26.20
   1  -6   0  385.36   24.90
   1  -6   0  412.76   25.40
   1  -6   0  393.56   29.60
   1  -6   0  412.76   29.40
   0  -6   0   15.00    2.40
   0  -6   0   16.20    2.10
   0  -6   0   20.60    4.70
   0  -6   0   16.10    2.10
  -1  -6   0  287.97   20.00
  -1  -6   0  329.17   20.20
  -1  -6   0  316.37   20.90
  -1  -6   0  336.57   23.30
  -2  -6   0   90.29    5.80
  -2  -6   0   81.19    8.70
  -2  -6   0   86.59    6.20
  -2  -6   0   76.39    7.30
  -2  -6   0   88.99    5.80
   4  -7   0   11.00    1.80
   4  -7   0   10.20    1.40
   4  -7   0   11.30    2.00
  -4   7   0   16.70    4.30
  -4   7   0   10.20    2.00
   3  -7   0   76.69    5.90
   3  -7   0   68.49    5.90
   3  -7   0   71.49    4.80
   2  -7   0   12.80    3.00
   2  -7   0   12.00    1.80
   2  -7   0   12.40    1.70
   1  -7   0  142.59    9.10
   1  -7   0  132.29   10.60
   1  -7   0  132.39   14.60
   1  -7   0  128.89    8.80
   1  -7   0  147.19    9.90
   1  -7   0  138.99    9.20
   1  -7   0  132.29    9.10
   0  -7   0  106.59    8.30
   0  -7   0  102.39    7.30
   0  -7   0  108.19    7.40
   0  -7   0  107.09    7.20
   0  -7   0  103.19    7.20
   0  -7   0  110.89   11.80
   0  -7   0  104.69    6.90
  -1  -7   0    0.20    1.60
  -1  -7   0    0.10    0.60
  -1  -7   0   -0.80    2.30
  -1  -7   0    0.00    1.00
  -1  -7   0    0.70    1.10
  -1  -7   0    0.70    0.90
  -2  -7   0   72.49    9.60
  -2  -7   0   88.29    5.80
  -2  -7   0   81.79    6.20
  -2  -7   0   90.69    5.40
   3  -8   0    2.30    1.40
   2  -8   0  100.39    6.30
   2  -8   0   80.49    6.80
   1  -8   0   13.90    1.90
   1  -8   0   12.70    1.80
   1  -8   0   15.10    2.00
   0  -8   0   60.49    4.60
   0  -8   0   56.69    4.40
   0  -8   0   47.80    9.50
   0  -8   0   62.39    4.10
   0  -8   0   60.19    4.60
   0  -8   0   60.59    4.30
  -1  -8   0   66.19    4.70
  -1  -8   0   59.19    5.10
  -1  -8   0   67.79    4.70
  -1  -8   0   69.09    4.40
  -1  -8   0   67.69    5.00
  -2  -8   0    0.00    0.70
  -2  -8   0    0.50    1.00
  -2  -8   0    1.30    0.50
   1  -9   0   33.80    2.60
   1  -9   0   32.00    2.50
   0  -9   0    6.80    1.00
   0  -9   0    4.70    1.00
   0  -9   0    8.60    1.20
   0  -9   0    7.00    1.20
   0  -9   0    6.50    0.90
  -1  -9   1   24.50    2.00
  -1  -9   1   21.40    1.70
  -1  -9   1   21.50    2.80
  -1  -9   1   22.60    1.90
   0  -9   1   -0.10    0.80
   0  -9   1    0.30    0.80
   0  -9   1   -0.20    0.70
   0  -9   1   -0.40    0.50
   0  -9   1    0.40    0.70
   1  -9   1   17.60    1.90
   1  -9   1   23.70    2.00
  -2  -8   1    7.30    0.80
  -2  -8   1    5.70    1.40
  -2  -8   1    5.30    1.00
  -1  -8   1   44.70    3.00
  -1  -8   1   42.00    3.60
  -1  -8   1   42.90    3.30
  -1  -8   1   37.30    3.60
   0  -8   1  103.49    7.10
   0  -8   1   97.49   11.20
   0  -8   1  102.99    6.90
   0  -8   1  104.39    7.00
   0  -8   1  101.09    7.10
   0  -8   1  103.39    6.90
   0  -8   1  103.49    6.70
   1  -8   1    1.90    0.90
   1  -8   1    1.60    1.00
   1  -8   1    1.50    1.00
   1  -8   1    1.30    1.20
   1  -8   1    0.50    2.00
   2  -8   1   89.29    5.50
   2  -8   1   69.89    6.40
   2  -8   1   74.49    6.40
   3  -8   1   17.50    2.60
   3  -8   1   19.00    2.30
   4  -8   1    1.40    1.10
  -2  -7   1  151.28    9.50
  -2  -7   1  147.99    9.90
  -2  -7   1  153.88    9.10
  -2  -7   1  128.79   12.50
  -1  -7   1   40.60    3.10
  -1  -7   1   34.70    3.50
  -1  -7   1   37.60    6.20
  -1  -7   1   36.10    4.50
  -1  -7   1   40.20    3.50
  -1  -7   1   41.20    2.80
   0  -7   1   26.60    2.70
   0  -7   1   26.10    5.80
   0  -7   1   27.40    2.50
   0  -7   1   27.20    3.60
   0  -7   1   27.80    2.50
   0  -7   1   25.80    2.20
   0  -7   1   27.30    2.70
   1  -7   1  217.18   13.50
   1  -7   1  207.48   13.20
   1  -7   1  193.58   14.90
   1  -7   1  214.58   13.40
   1  -7   1  217.18   13.50
   1  -7   1  217.68   13.60
   1  -7   1  226.08   14.30
   1  -7   1  188.98   18.00
   1  -7   1  206.98   13.60
   2  -7   1   11.60    1.50
   2  -7   1    8.90    2.40
   2  -7   1   12.50    1.80
   2  -7   1   15.70    2.80
   3  -7   1   56.99    5.00
   3  -7   1   53.59    4.10
   3  -7   1   67.89    5.30
  -4   7  -1   29.90    3.10
   4  -7   1   23.30    2.20
   4  -7   1   26.50    3.00
   4  -7   1   24.30    2.80
  -2  -6   1   16.20    1.70
  -2  -6   1   14.60    3.50
  -2  -6   1   16.10    2.00
  -2  -6   1   12.90    2.60
  -1  -6   1  433.26   28.20
  -1  -6   1  394.56   26.10
  -1  -6   1  415.76   25.50
  -1  -6   1  381.46   25.30
   0  -6   1  201.18   15.40
   0  -6   1  177.48   17.00
   0  -6   1  178.08   12.60
   0  -6   1  194.88   14.00
   1  -6   1   89.09    6.60
   1  -6   1   87.79    9.50
   1  -6   1   92.29    9.90
   1  -6   1   84.09    7.10
   2  -6   1  303.07   18.70
   2  -6   1  309.47   19.50
   2  -6   1  277.67   19.40
   2  -6   1  298.87   22.10
   3  -6   1   28.90    4.80
   3  -6   1   25.70    3.00
   3  -6   1   28.70    2.60
   3  -6   1   27.70    3.30
  -4   6  -1   47.60    6.70
  -4   6  -1   46.10    4.30
   4  -6   1   50.29    4.50
   4  -6   1   49.50    4.40
   4  -6   1   51.09    3.90
   5  -6   1   36.60    3.80
   5  -6   1   40.80    3.10
   5  -6   1   39.50    3.40
  -2  -5   1  388.86   25.80
  -2  -5   1  406.96   26.00
  -1  -5   1   79.79   10.30
  -1  -5   1   74.79    6.70
  -1  -5   1   73.79    5.70
   0   5  -1  288.67   20.70
   0  -5   1  294.07   21.50
   0  -5   1  289.97   18.60
   0  -5   1  287.07   20.40
   0  -5   1  299.27   20.50
  -1   5  -1  352.66   25.30
   1  -5   1  388.96   23.80
   1  -5   1  372.66   25.50
   1  -5   1  395.96   26.20
   2  -5   1   32.50    4.60
   2  -5   1   31.30    3.20
   3  -5   1  314.97   20.20
   3  -5   1  308.67   22.30
   3  -5   1  318.57   19.80
  -4   5  -1   34.10    5.40
  -4   5  -1   30.30    3.30
   4  -5   1   32.00    3.50
   4  -5   1   30.20    3.20
   4  -5   1   31.90    4.80
   5  -5   1   21.20    2.60
   5  -5   1   21.40    2.60
   2   4  -1  304.27   20.40
  -2  -4   1  288.07   18.50
  -2  -4   1  272.07   19.70
  -2  -4   1  275.27   18.10
   1   4  -1 1301.57   76.99
  -1  -4   1 1206.98   76.19
  -1  -4   1 1246.38   76.59
  -1  -4   1 1215.88   75.09
  -1  -4   1 1141.49   78.49
   0   4  -1   14.70    2.70
   0  -4   1   16.30    3.00
   0  -4   1   15.40    2.50
   0  -4   1   17.00    1.80
  -1   4  -1 2278.87  148.49
   1  -4   1 2480.25  148.69
   1  -4   1 2482.35  149.09
   1  -4   1 2423.96  147.39
   2  -4   1   70.79    6.40
   3  -4   1   22.10    3.50
   3  -4   1   27.40    2.70
  -4   4  -1  157.38   12.40
  -4   4  -1  158.38   11.00
   4  -4   1  164.08   12.70
   4  -4   1  160.28   11.30
   4  -4   1  168.18   10.90
   4  -4   1  171.48   11.00
   5  -4   1   53.99    4.20
   5  -4   1   49.00    4.60
   6  -4   1   13.40    2.40
  -5  -3   1  250.27   19.10
   2   3  -1  573.84   37.70
  -2  -3   1  543.75   37.30
  -2  -3   1  589.24   36.50
  -2  -3   1  656.33   45.00
  -1  -3   1  485.75   36.40
  -1  -3   1  616.84   34.70
  -1  -3   1  553.24   34.90
   0  -3   1 1094.69   63.49
   0  -3   1  949.31   63.49
  -1   3  -1  111.49    8.20
   1  -3   1  111.69    8.40
   1  -3   1  123.39    8.30
   2  -3   1  507.95   32.50
   3  -3   1  400.56   26.80
   3  -3   1  418.76   26.30
  -4   3  -1    6.40    2.40
  -4   3  -1    7.50    1.60
   4  -3   1   11.60    2.30
   4  -3   1    8.70    2.20
  -5   3  -1   84.09    6.50
   5  -3   1  100.59    7.20
   5  -3   1   93.99    6.50
   5  -3   1   88.39    7.90
   6  -3   1   24.10    2.80
  -6  -2   1    1.70    0.60
  -5  -2   1  198.28   12.90
  -5  -2   1  209.28   15.50
  -5  -2   1  220.78   15.60
  -4  -2   1  380.76   25.00
  -4  -2   1  346.27   25.00
  -4  -2   1  422.36   24.80
  -4  -2   1  354.56   26.70
  -3  -2   1  148.29   10.20
  -3  -2   1  142.89   11.10
  -3  -2   1  145.79    9.50
  -3  -2   1  131.19    9.70
   2   2  -1 1477.65   93.39
  -2  -2   1 1629.34   98.59
  -2  -2   1 1601.44   92.99
  -2  -2   1 1501.05   93.59
  -2  -2   1 1374.66   93.19
   1   2  -1 1717.33  103.19
  -1  -2   1 1625.54  103.19
  -1  -2   1 1882.61  103.29
  -1  -2   1 1500.55  102.99
   0   2  -1   78.79    5.80
   0  -2   1   83.59    5.80
  -1   2  -1 9483.35  595.44
  -1   2  -1 9999.00  597.44
  -2   2  -1   19.30    1.80
  -2   2  -1   21.30    2.50
  -2   2  -1   20.10    2.70
   2  -2   1   18.60    2.30
  -3   2  -1  644.14   41.40
  -3   2  -1  605.14   39.30
  -3   2  -1  632.34   40.50
   3  -2   1  665.23   39.60
   3  -2   1  612.64   40.00
  -4   2  -1  268.07   18.30
  -4   2  -1  295.77   19.10
  -4   2  -1  268.17   20.60
   4  -2   1  273.97   18.50
  -5   2  -1    2.60    2.50
  -5   2  -1    1.70    1.10
  -5   2  -1    1.90    0.80
  -5   2  -1   -0.40    2.20
   5  -2   1    2.00    1.70
   5  -2   1    2.50    1.60
  -6   2  -1   36.80    3.40
   6  -2   1   36.60    3.50
  -6  -1   1   44.60    5.50
  -6  -1   1   48.80    3.30
  -5  -1   1   19.40    4.00
  -5  -1   1   21.10    1.70
  -5  -1   1   22.10    4.10
  -4  -1   1  354.36   25.40
  -4  -1   1  339.97   23.40
  -4  -1   1  360.76   23.50
  -4  -1   1  364.56   23.80
  -3  -1   1  585.24   35.90
  -3  -1   1  589.04   37.20
  -3  -1   1  547.45   35.70
  -3  -1   1  560.24   37.90
  -2  -1   1  120.29    8.80
  -2  -1   1  124.09    8.20
   1   1  -1 1803.82  115.39
  -1  -1   1 1775.72  116.19
  -1  -1   1 2072.79  116.09
   0   1  -1  621.24   38.30
  -1   1  -1  360.76   22.40
  -1   1  -1  348.67   22.30
  -2   1  -1 1181.88   73.09
  -2   1  -1 1176.68   72.59
  -2   1  -1 1193.78   73.49
  -3   1  -1  534.25   33.60
  -3   1  -1  514.55   32.80
  -3   1  -1  520.55   34.50
  -4   1  -1  288.37   19.40
  -4   1  -1  282.77   19.10
  -4   1  -1  270.87   21.50
  -4   1  -1  311.47   21.20
  -5   1  -1  172.48   14.60
  -5   1  -1  174.68   13.20
  -5   1  -1  150.58   18.60
  -5   1  -1  162.38   11.00
  -5   1  -1  169.08   10.80
   5  -1   1  192.98   12.80
  -6   1  -1   10.80    3.30
  -6   1  -1    8.90    1.10
  -6   1  -1    9.30    1.50
   6  -1   1   10.20    1.90
  -6   0   1   10.40    1.60
  -6   0   1    8.80    2.90
  -6   0   1   10.10    1.20
  -5   0   1  271.37   17.60
  -5   0   1  296.87   20.20
  -5   0   1  288.37   21.10
  -4   0   1  145.79   10.70
  -4   0   1  156.58   11.50
  -4   0   1  133.39   10.50
   3   0  -1  683.23   46.80
  -3   0   1  753.52   45.60
  -3   0   1  784.02   47.00
  -3   0   1  708.53   45.60
  -2   0   1 1484.45   86.59
  -2   0   1 1317.27   85.69
  -1   0   1   83.49    6.10
   0   0  -1  642.44   41.00
  -1   0  -1 2568.34  153.88
  -1   0  -1 2453.55  154.88
  -2   0  -1  267.87   17.10
  -2   0  -1  263.97   17.80
  -2   0  -1  266.07   16.90
  -3   0  -1 1270.77   77.59
  -3   0  -1 1189.18   77.69
  -3   0  -1 1248.78   79.19
  -3   0  -1 1321.57   78.99
  -4   0  -1  137.99   11.30
  -4   0  -1  146.49   10.40
  -4   0  -1  137.29   12.40
  -4   0  -1  112.19   14.80
  -4   0  -1  146.09   10.30
  -5   0  -1  113.89    7.10
  -5   0  -1  107.69    9.40
  -5   0  -1  113.09   10.40
   5   0   1  108.49    8.80
  -6   0  -1   50.29    3.80
  -6   0  -1   43.70    5.80
  -6   0  -1   49.80    3.40
   6   0   1   49.80    4.00
  -6   1   1   84.19    5.60
  -6   1   1   63.19    7.40
  -6   1   1   68.59    4.90
   5  -1  -1   20.30    2.60
  -5   1   1   25.10    2.60
  -5   1   1   27.20    4.40
  -5   1   1   22.40    5.00
  -5   1   1   20.80    2.10
  -5   1   1   20.40    2.90
   4  -1  -1  585.04   40.60
  -4   1   1  649.83   39.90
  -4   1   1  607.14   39.50
  -4   1   1  651.53   41.10
   3  -1  -1  302.77   20.90
  -3   1   1  309.97   19.70
   2  -1  -1  486.75   31.00
  -2   1   1  479.85   30.00
   1  -1  -1 2409.86  147.99
   0  -1  -1   45.90    3.60
  -1  -1  -1 1542.55   94.99
  -2  -1  -1  250.07   16.90
  -2  -1  -1  254.17   16.00
  -2  -1  -1  270.37   15.90
  -2  -1  -1  209.68   18.90
  -3  -1  -1   20.50    3.50
  -3  -1  -1   23.60    3.80
  -3  -1  -1   23.50    2.30
  -3  -1  -1   23.80    3.00
  -3  -1  -1   26.10    7.60
  -4  -1  -1  309.27   21.60
  -4  -1  -1  353.46   22.70
  -4  -1  -1  318.07   21.60
  -4  -1  -1  309.27   23.80
  -5  -1  -1   44.50    5.30
  -5  -1  -1   43.30    2.90
  -5  -1  -1   39.60    5.30
  -6  -1  -1    6.20    0.90
   6  -2  -1   40.90    3.70
   6  -2  -1   46.30    4.20
  -6   2   1   48.80    4.40
  -6   2   1   52.09    4.30
   5  -2  -1  164.58   12.00
   5  -2  -1  157.48   10.70
   5  -2  -1  163.78   10.90
  -5   2   1  155.98   12.60
  -5   2   1  154.88   11.10
  -5   2   1  152.88   10.50
  -5   2   1  145.79   10.00
   4  -2  -1   17.70    3.40
   4  -2  -1   12.60    2.00
  -4   2   1   17.00    2.80
  -4   2   1   17.40    3.20
  -4   2   1   11.90    4.80
   3  -2  -1 1153.88   70.49
  -3   2   1 1084.69   69.09
   2  -2  -1  835.62   50.79
  -2   2   1  779.62   49.80
   1  -2  -1  464.75   27.30
  -1   2   1  406.96   27.20
  -1  -2  -1  233.68   15.60
  -1  -2  -1  267.97   16.30
  -1  -2  -1  230.68   18.50
  -1  -2  -1  243.98   15.70
   1   2   1  210.68   15.40
  -2  -2  -1  864.91   55.19
  -2  -2  -1  957.50   55.19
  -2  -2  -1  956.90   56.19
  -2  -2  -1  893.81   54.99
  -2  -2  -1  756.32   57.09
  -3  -2  -1  617.74   47.50
  -3  -2  -1  769.42   47.90
  -3  -2  -1  746.23   46.30
  -3  -2  -1  798.32   46.10
  -4  -2  -1   13.00    2.90
  -4  -2  -1    9.10    5.70
  -4  -2  -1   14.00    3.30
  -4  -2  -1   14.00    2.90
  -5  -2  -1  156.18   12.20
  -5  -2  -1  160.18   12.60
  -5  -2  -1  171.68   10.20
  -6  -2  -1   22.10    1.70
   6  -3  -1    3.70    1.60
   6  -3  -1    3.40    1.20
   5  -3  -1   68.49    5.70
   5  -3  -1   71.79    5.40
   5  -3  -1   68.69    5.50
  -5   3   1   57.19    5.20
  -5   3   1   73.69    6.10
   4  -3  -1  233.98   14.80
   4  -3  -1  220.28   16.70
  -4   3   1  230.88   14.50
  -4   3   1  220.18   15.70
  -4   3   1  206.18   15.10
   3  -3  -1    9.00    2.50
  -3   3   1   10.40    1.90
   2  -3  -1  748.73   44.50
  -2   3   1  639.74   43.00
   1  -3  -1  600.34   34.00
   1  -3  -1  491.25   33.10
  -1   3   1  486.75   32.90
   0  -3  -1  314.17   22.90
   0  -3  -1  377.86   21.80
   0  -3  -1  366.96   22.80
   0  -3  -1  335.77   23.20
  -1  -3  -1 1369.46   81.59
  -1  -3  -1 1382.16   79.19
  -1  -3  -1 1319.87   80.39
   1   3   1 1092.09   80.69
  -2  -3  -1  107.79    8.30
  -2  -3  -1   86.39    7.30
  -2  -3  -1   84.49    7.70
  -2  -3  -1  100.69    7.90
  -2  -3  -1   94.89    7.00
  -2  -3  -1   98.29   10.30
   2   3   1   86.49    7.60
  -3  -3  -1  221.38   17.00
  -3  -3  -1  242.48   19.90
  -3  -3  -1  249.28   18.20
   3   3   1  245.88   17.10
  -4  -3  -1  372.76   24.50
  -4  -3  -1  338.17   23.30
  -5  -3  -1    1.60    0.60
   6  -4  -1   32.30    2.90
   5  -4  -1   11.20    1.90
   4  -4  -1  106.69    8.20
   4  -4  -1  133.29   10.80
   4  -4  -1  113.59    8.40
  -4   4   1  112.59    9.00
  -4   4   1  113.99    9.80
  -4   4   1  114.79    8.20
   3  -4  -1  351.06   22.10
   3  -4  -1  339.77   24.10
   2  -4  -1   12.80    3.00
   1  -4  -1  591.04   35.90
   1  -4  -1  556.64   37.30
   1  -4  -1  597.64   38.30
   0  -4  -1  926.11   58.59
   0  -4  -1  902.41   56.39
   0  -4  -1  873.91   59.29
   0  -4  -1  929.51   58.09
   0  -4  -1  955.00   58.29
  -1  -4  -1  104.79    9.00
  -1  -4  -1  112.69    7.60
  -1  -4  -1  102.49    9.80
  -1  -4  -1  109.89    8.50
  -2  -4  -1  585.24   38.90
  -2  -4  -1  554.84   37.80
  -2  -4  -1  659.63   41.40
  -3  -4  -1   44.30    8.80
   5  -5  -1   69.09    5.40
   5  -5  -1   63.19    5.00
   4  -5  -1   19.20    6.00
   4  -5  -1   17.50    2.70
   4  -5  -1   17.00    2.60
  -4   5   1   20.60    2.80
  -4   5   1   13.80    3.40
   3  -5  -1   71.59    6.20
   3  -5  -1   80.99    8.30
   3  -5  -1   71.59    5.90
   3  -5  -1   87.79    5.70
   2  -5  -1  366.06   26.30
   2  -5  -1  374.16   23.90
   1  -5  -1   42.20    6.00
   1  -5  -1   33.20    5.80
   1  -5  -1   28.20    4.30
   1  -5  -1   31.70    3.00
   0  -5  -1  569.54   37.90
   0  -5  -1  550.84   35.40
   0  -5  -1  578.24   38.20
  -1  -5  -1  220.68   14.20
  -1  -5  -1  216.68   16.00
  -1  -5  -1  201.88   18.10
  -1  -5  -1  198.58   16.50
  -2  -5  -1    1.30    1.10
  -2  -5  -1    1.80    3.90
  -2  -5  -1    2.30    2.60
  -2  -5  -1    0.40    1.40
  -2  -5  -1    2.90    1.80
  -3  -5  -1   53.89   10.90
   5  -6  -1    0.10    0.70
   5  -6  -1    0.50    1.40
   5  -6  -1   -0.20    0.90
   4  -6  -1  110.49    7.90
   4  -6  -1  102.09    7.50
   4  -6  -1   96.69    8.00
  -4   6   1  113.29    8.30
  -4   6   1  133.39   11.10
   3  -6  -1   47.90    4.60
   3  -6  -1   50.19    4.40
   3  -6  -1   49.30    3.70
   3  -6  -1   35.10    5.90
   2  -6  -1   21.70    2.60
   2  -6  -1   27.10    5.80
   2  -6  -1   26.80    2.40
   2  -6  -1   27.90    2.40
   2  -6  -1   28.40    4.20
   1  -6  -1  560.44   34.10
   1  -6  -1  512.15   33.50
   1  -6  -1  547.05   33.60
   1  -6  -1  519.45   38.70
   1  -6  -1  566.34   44.30
   0  -6  -1   43.10    3.60
   0  -6  -1   48.60    7.30
   0  -6  -1   41.10    3.60
   0  -6  -1   44.70    4.50
  -1  -6  -1  253.07   15.30
  -1  -6  -1  235.28   16.10
  -1  -6  -1  233.88   18.70
  -1  -6  -1  216.08   15.20
  -1  -6  -1  251.77   19.20
  -1  -6  -1  244.48   14.90
  -1  -6  -1  213.48   14.60
  -2  -6  -1  172.28   10.80
  -2  -6  -1  187.08   11.60
  -2  -6  -1  152.38   12.60
  -2  -6  -1  190.68   11.20
  -2  -6  -1  151.98   15.20
   4  -7  -1    2.10    0.60
   4  -7  -1    2.40    1.00
   4  -7  -1    2.90    1.40
  -4   7   1    1.50    1.50
  -4   7   1    4.50    3.40
   3  -7  -1   68.89    5.70
   2  -7  -1   40.50    4.60
   2  -7  -1   41.50    4.40
   2  -7  -1   42.50    3.50
   1  -7  -1   21.30    2.40
   1  -7  -1   19.20    2.50
   1  -7  -1   21.80    2.50
   0  -7  -1  164.88   11.40
   0  -7  -1  176.08   11.40
   0  -7  -1  183.68   16.70
   0  -7  -1  180.48   11.20
   0  -7  -1  158.08   10.90
   0  -7  -1  184.28   12.40
   0  -7  -1  160.78   11.10
  -1  -7  -1   32.60    2.80
  -1  -7  -1   30.00    6.70
  -1  -7  -1   26.00    3.40
  -1  -7  -1   34.30    3.20
  -1  -7  -1   31.00    2.50
  -2  -7  -1   65.39    4.80
  -2  -7  -1   65.29    5.20
  -2  -7  -1   68.19    4.40
  -3  -7  -1   60.99    3.90
   2  -8  -1   24.30    2.40
   1  -8  -1   76.19    5.60
   1  -8  -1   79.99    5.70
   1  -8  -1   81.69    5.60
   0  -8  -1    6.40    1.60
   0  -8  -1    6.90    1.30
   0  -8  -1    6.50    1.40
   0  -8  -1    4.20    1.10
   0  -8  -1    6.00    1.00
  -1  -8  -1   67.49    5.10
  -1  -8  -1   76.89    4.90
  -1  -8  -1   61.29    4.90
  -1  -8  -1   64.59    4.80
  -1  -8  -1   68.99    4.50
  -2  -8  -1    9.60    1.30
  -2  -8  -1   12.60    1.20
   0  -9  -1    4.50    1.10
  -1  -9   2   37.70    3.20
  -1  -9   2   44.80    3.00
  -1  -9   2   36.70    3.20
  -1  -9   2   39.80    3.00
  -1  -9   2   43.40    2.80
   0  -9   2    3.50    0.90
   0  -9   2    3.40    0.90
   0  -9   2    4.60    0.80
   0  -9   2    3.70    1.00
   0  -9   2    3.80    0.90
  -1   9  -2    6.70    2.40
   1  -9   2    4.90    1.00
   1  -9   2    5.30    1.10
  -2  -8   2   67.29    4.60
  -2  -8   2   64.59    5.00
  -2  -8   2   76.19    4.40
  -2  -8   2   55.89    5.00
  -1  -8   2    7.00    3.60
  -1  -8   2   10.00    1.50
  -1  -8   2    9.40    1.70
  -1  -8   2    7.30    1.50
  -1  -8   2   10.80    1.10
   0  -8   2  143.69   10.60
   0  -8   2  129.79    8.50
   0  -8   2  137.99    8.90
   0  -8   2  131.39    8.70
   0  -8   2  127.89   13.00
   0  -8   2  134.59    8.80
   0  -8   2  129.19    9.00
   1  -8   2   28.70    4.20
   1  -8   2   32.90    3.10
   1  -8   2   28.80    2.80
   1  -8   2   38.40    3.00
   1  -8   2   29.00    4.80
   2  -8   2   23.60    3.20
   2  -8   2   26.80    3.40
   3  -8   2   28.50    3.10
   3  -8   2   25.90    2.90
   4  -8   2    1.10    0.80
  -2  -7   2   98.09    6.60
  -2  -7   2   78.29    6.50
  -2  -7   2   81.49    8.50
  -2  -7   2   98.89    6.20
  -2  -7   2   98.49    5.80
  -1  -7   2  158.78   12.60
  -1  -7   2  180.98   14.80
  -1  -7   2  183.38   11.40
  -1  -7   2  185.18   11.80
  -1  -7   2  180.48   11.70
  -1  -7   2  176.08   11.10
   0  -7   2   28.70    2.50
   0  -7   2   28.20    2.70
   0  -7   2   28.60    2.70
   0  -7   2   25.60    2.10
   0  -7   2   27.50    2.40
   0  -7   2   27.90    4.60
   0  -7   2   30.10    3.70
   0  -7   2   27.70    5.80
   1  -7   2   92.29    7.90
   1  -7   2  102.29    6.80
   1  -7   2   96.69    8.20
   1  -7   2   98.49    6.70
   1  -7   2  105.99    6.90
   1  -7   2  105.79    7.70
   1  -7   2   93.39   10.40
   1  -7   2   98.09    6.50
   2  -7   2   59.49    5.30
   2  -7   2   71.89    5.60
   2  -7   2   58.89    4.60
   3  -7   2    9.30    1.90
   3  -7   2   12.00    2.20
   3  -7   2    6.90    1.20
  -4   7  -2   45.50    4.00
   4  -7   2   40.60    3.20
   4  -7   2   44.10    3.90
   4  -7   2   46.90    3.90
  -2  -6   2   21.60    2.40
  -2  -6   2   19.50    2.50
  -2  -6   2   25.70    3.80
  -2  -6   2   23.30    2.10
  -2  -6   2   21.40    3.70
  -1  -6   2  169.98   10.70
  -1  -6   2  169.48   12.70
  -1  -6   2  160.78   11.40
  -1  -6   2  162.18   16.10
  -1  -6   2  165.38   13.10
  -1  -6   2  155.28   10.60
   0  -6   2  428.06   29.20
   0  -6   2  503.25   31.80
   0  -6   2  443.86   28.70
   0  -6   2  437.76   32.30
   1  -6   2    9.30    3.70
   1  -6   2   10.80    4.30
   1  -6   2    9.40    2.20
   1  -6   2    9.70    1.80
   2  -6   2  715.73   42.80
   2  -6   2  671.43   42.00
   2  -6   2  617.14   42.50
   2  -6   2  698.83   45.30
   2  -6   2  705.73   42.70
   3  -6   2   20.70    2.80
   3  -6   2   15.20    2.00
   3  -6   2   18.10    3.90
   3  -6   2   11.10    1.90
  -4   6  -2    5.00    1.50
  -4   6  -2    7.50    2.90
   4  -6   2    6.30    1.60
   4  -6   2    8.20    1.40
   4  -6   2    7.20    1.70
   5  -6   2   23.80    2.50
   5  -6   2   23.70    2.20
  -2  -5   2  402.26   26.10
  -2  -5   2  405.76   26.30
  -1  -5   2  154.88   14.60
  -1  -5   2  164.98   11.60
  -1  -5   2  197.58   13.20
   0   5  -2  270.17   19.10
   0  -5   2  258.67   19.40
   0  -5   2  253.57   17.10
   0  -5   2  284.67   19.40
  -1   5  -2  379.76   27.70
   1  -5   2  416.56   28.30
   1  -5   2  447.86   29.40
   1  -5   2  424.16   26.20
   2  -5   2   22.40    2.40
   2  -5   2   24.00    3.80
   2  -5   2   18.90    2.50
   3  -5   2  180.38   12.10
   3  -5   2  193.68   12.40
   3  -5   2  171.08   13.80
  -4   5  -2   93.99    7.10
  -4   5  -2   97.79    8.90
   4  -5   2  103.89    7.10
   4  -5   2   84.39    9.00
   4  -5   2  105.39    7.10
   5  -5   2    4.50    1.20
   5  -5   2    4.00    1.80
   2   4  -2  143.89   11.40
  -2  -4   2  139.49   10.10
  -2  -4   2  158.48   18.10
  -2  -4   2  132.69   10.00
   1   4  -2  983.50   58.99
  -1  -4   2  850.51   59.69
  -1  -4   2  942.41   57.19
  -1  -4   2  939.51   58.59
   0   4  -2  517.75   32.00
   0  -4   2  477.55   30.50
   0  -4   2  495.25   31.80
   0  -4   2  478.95   32.00
   1  -4   2   12.20    2.50
   2  -4   2 2200.48  137.19
   2  -4   2 2293.57  138.79
   3  -4   2    4.80    1.90
   3  -4   2    4.20    1.20
  -4   4  -2  136.09   11.40
  -4   4  -2  138.19    9.90
   4  -4   2  151.48   10.30
   4  -4   2  155.28    9.80
   5  -4   2   52.69    4.10
   5  -4   2   50.79    4.60
   6  -4   2   -0.30    1.60
  -6  -3   2   29.30    2.10
  -5  -3   2  128.99   13.90
  -4  -3   2   11.70    2.90
  -3  -3   2  612.24   38.60
   2   3  -2  763.02   46.80
  -2  -3   2  803.52   53.59
  -2  -3   2  650.23   45.40
   1   3  -2  187.18   11.90
  -1  -3   2  145.99   12.50
  -1  -3   2  164.38   11.60
   0   3  -2 1568.34   91.39
   0  -3   2 1390.36   91.29
  -1   3  -2  290.37   19.20
   1  -3   2  294.07   19.10
   2  -3   2  151.28   10.60
   2  -3   2  157.58   10.90
   3  -3   2  387.56   23.20
   3  -3   2  322.27   23.10
  -4   3  -2   96.59    9.00
  -4   3  -2   95.49    7.60
   4  -3   2  125.99    8.10
   4  -3   2  124.29    8.90
  -5   3  -2   58.59    4.80
   5  -3   2   61.39    6.40
   5  -3   2   73.29    5.50
   6  -3   2   29.30    3.00
  -6  -2   2   24.70    2.00
  -5  -2   2   30.90    2.20
  -5  -2   2   29.10    5.10
  -5  -2   2   35.00    5.00
  -4  -2   2  509.05   35.20
  -4  -2   2  573.04   35.20
  -4  -2   2  545.25   35.10
  -3  -2   2  118.39    8.70
  -3  -2   2  125.79   14.30
  -3  -2   2  119.09    9.80
  -3  -2   2  134.29    9.10
   2   2  -2 1368.06   82.49
  -2  -2   2 1345.27   82.29
  -2  -2   2 1480.85   81.79
  -2  -2   2 1314.97   86.99
  -2  -2   2 1141.69   81.49
   1   2  -2 1592.44   99.19
  -1  -2   2 1702.93  100.49
  -1  -2   2 1542.55   98.89
   0   2  -2  194.78   13.00
  -1   2  -2 1922.61  108.89
  -1   2  -2 1614.34  108.59
  -2   2  -2  837.22   51.29
  -2   2  -2  797.22   50.09
  -2   2  -2  858.21   51.39
   2  -2   2  751.02   50.49
   2  -2   2  832.62   50.49
  -3   2  -2  150.18   10.50
  -3   2  -2  162.68   16.20
  -3   2  -2  155.38   12.50
  -3   2  -2  155.78   11.80
   3  -2   2  163.58   10.90
  -4   2  -2  368.86   25.80
  -4   2  -2  431.26   26.90
  -4   2  -2  410.76   29.10
   4  -2   2  398.26   26.20
  -5   2  -2   35.80    7.10
  -5   2  -2   37.40    3.00
  -5   2  -2   39.10    3.50
   5  -2   2   45.00    5.00
   5  -2   2   48.80    4.10
  -6   2  -2   27.80    2.80
   6  -2   2   31.00    3.00
  -6  -1   2   72.19    4.70
  -6  -1   2   67.29    7.20
  -5  -1   2  200.08   13.50
  -5  -1   2  230.38   16.30
  -5  -1   2  226.28   16.90
  -4  -1   2   51.09    5.10
  -4  -1   2   53.79    5.20
  -4  -1   2   46.80    5.10
  -4  -1   2   50.19    4.90
  -3  -1   2 1218.48   78.19
  -3  -1   2 1278.07   74.29
  -3  -1   2 1101.19   73.99
  -3  -1   2 1206.08   75.39
  -3  -1   2 1196.78   74.09
   2   1  -2  428.06   29.20
  -2  -1   2  466.25   29.10
  -2  -1   2  482.25   33.00
  -2  -1   2  448.36   28.30
   1   1  -2  684.83   42.70
   0   1  -2 2320.37  142.29
  -1   1  -2    6.60    1.90
  -1   1  -2    7.50    1.80
  -2   1  -2 1281.57   76.79
  -2   1  -2 1247.88   75.89
  -2   1  -2 1234.48   76.89
   2  -1   2 1183.58   75.89
  -3   1  -2  146.89   12.20
  -3   1  -2  149.69   11.90
  -3   1  -2  151.08   10.90
  -3   1  -2  148.99   10.10
   3  -1   2  138.89   10.00
  -4   1  -2    3.90    2.50
  -4   1  -2    2.40    1.60
  -4   1  -2    4.10    2.90
  -4   1  -2    6.40    2.20
   4  -1   2    3.90    1.50
  -5   1  -2  131.19   16.20
  -5   1  -2  135.29   13.20
  -5   1  -2  141.09   11.60
  -5   1  -2  141.49    9.10
  -5   1  -2  145.09    9.50
   5  -1   2  157.18   10.10
   5  -1   2  153.08   11.10
  -6   1  -2   10.00    1.50
  -6   1  -2    8.50    1.10
   6  -1   2   12.50    2.00
  -6   0   2    2.10    1.30
  -6   0   2    1.30    0.90
  -6   0   2    0.30    2.20
  -5   0   2  211.78   16.80
  -5   0   2  197.18   13.10
  -5   0   2  222.58   15.90
  -5   0   2  209.58   14.40
   4   0  -2  382.46   30.50
  -4   0   2  498.35   30.30
  -4   0   2  447.96   28.90
  -4   0   2  437.16   29.10
  -4   0   2  470.55   29.30
   3   0  -2   69.19    7.40
  -3   0   2   82.19    5.90
  -3   0   2   77.89    5.90
   2   0  -2 2436.96  158.78
  -2   0   2 2621.34  157.58
  -2   0   2 2654.63  159.68
   1   0  -2 1485.35   94.19
   0   0  -2  225.28   19.50
   0   0  -2  290.97   18.40
   0   0  -2  255.27   19.30
  -1   0  -2 5394.26  342.47
  -1   0  -2 6228.48  346.57
  -1   0  -2 5128.49  343.87
  -2   0  -2  152.68   11.60
  -2   0  -2  166.58   11.10
  -2   0  -2  155.68   10.50
  -3   0  -2  648.54   40.80
  -3   0  -2  580.14   38.40
  -3   0  -2  613.34   38.10
  -3   0  -2  579.44   39.80
  -4   0  -2  316.07   22.30
  -4   0  -2  282.47   22.70
  -4   0  -2  279.97   24.50
  -4   0  -2  304.37   20.10
  -4   0  -2  305.07   20.30
   4   0   2  298.77   19.70
  -5   0  -2    0.60    0.60
  -5   0  -2    0.60    5.30
  -5   0  -2    1.90    2.10
  -5   0  -2    0.80    2.20
   5   0   2    0.50    1.30
  -6   0  -2   55.89    3.80
  -6   0  -2   59.49    4.20
   6   0   2   54.89    4.70
   6  -1  -2   67.89    5.30
  -6   1   2   78.49    5.10
  -6   1   2   66.69    7.50
  -6   1   2   82.59    6.40
   5  -1  -2    0.80    1.50
  -5   1   2    0.40    1.20
  -5   1   2    0.30    2.10
  -5   1   2    0.40    2.40
  -5   1   2    2.20    1.00
  -5   1   2   -0.70    2.00
   4  -1  -2  275.47   21.00
  -4   1   2  314.47   21.30
  -4   1   2  313.27   20.00
  -4   1   2  289.17   19.60
  -4   1   2  263.57   19.20
   3  -1  -2  466.15   32.00
  -3   1   2  497.55   30.50
  -3   1   2  479.65   30.50
   2  -1  -2   79.09    7.20
  -2   1   2   92.89    6.20
   1  -1  -2 1633.44  109.09
  -1   1   2 1923.71  109.29
   0  -1  -2  876.31   54.49
  -1  -1  -2  785.72   47.00
  -1  -1  -2  749.92   47.30
  -1  -1  -2  671.73   51.09
  -1  -1  -2  813.72   48.50
  -2  -1  -2 1285.57   81.79
  -2  -1  -2 1205.98   83.69
  -2  -1  -2 1345.97   82.59
  -2  -1  -2 1383.16   81.69
  -2  -1  -2 1362.76   81.19
  -3  -1  -2  108.19   12.60
  -3  -1  -2  122.29   10.60
  -3  -1  -2  119.79    9.00
  -3  -1  -2  123.59    9.00
  -3  -1  -2  128.69    8.70
  -4  -1  -2  148.89   11.80
  -4  -1  -2  178.28   13.80
  -4  -1  -2  153.08   11.60
   4   1   2  149.69   11.00
  -5  -1  -2  155.18   12.90
  -5  -1  -2  164.58    9.80
  -5  -1  -2  147.29   12.10
  -6  -1  -2    1.30    0.60
  -6  -1  -2    1.40    0.90
   6  -2  -2   24.70    3.10
   6  -2  -2   21.90    2.60
  -6   2   2   30.00    3.90
  -6   2   2   23.90    3.50
   5  -2  -2  191.78   13.10
   5  -2  -2  179.78   15.40
   5  -2  -2  206.48   13.40
  -5   2   2  194.58   13.00
  -5   2   2  192.68   15.20
  -5   2   2  209.18   14.00
   4  -2  -2   33.20    4.80
   4  -2  -2   35.20    3.50
  -4   2   2   32.10    3.90
  -4   2   2   35.00    4.60
   3  -2  -2  496.25   32.70
  -3   2   2  486.85   31.20
   2  -2  -2  811.62   52.89
  -2   2   2  859.71   51.99
   1  -2  -2    0.70    0.90
  -1   2   2   -0.60    1.50
   0   2   2 1375.06   85.59
  -1  -2  -2  878.11   61.19
  -1  -2  -2 1106.69   61.49
  -1  -2  -2  881.91   63.89
  -1  -2  -2  948.61   61.99
  -1  -2  -2 1039.80   60.39
  -1  -2  -2 1126.59   62.89
   1   2   2  885.31   60.99
  -2  -2  -2  317.47   21.00
  -2  -2  -2  298.77   19.70
  -2  -2  -2  264.97   19.40
  -2  -2  -2  282.07   19.70
  -2  -2  -2  322.87   19.60
   2   2   2  283.47   19.30
  -3  -2  -2  597.44   39.50
  -3  -2  -2  599.84   41.10
  -3  -2  -2  647.54   39.30
  -4  -2  -2   39.30    8.30
  -4  -2  -2   55.99    3.60
  -4  -2  -2   58.59    6.90
  -4  -2  -2   57.59    5.70
  -4  -2  -2   46.50    6.00
   4   2   2   60.29    5.90
  -5  -2  -2   44.30    5.20
  -5  -2  -2   48.80    3.20
  -5  -2  -2   43.60    5.50
  -6  -2  -2   26.40    2.00
   6  -3  -2   73.39    5.70
   6  -3  -2   78.29    5.60
   5  -3  -2   44.40    4.10
   5  -3  -2   44.20    4.30
  -5   3   2   54.59    5.40
  -5   3   2   38.00    4.00
   4  -3  -2  364.36   24.30
   4  -3  -2  370.66   26.70
  -4   3   2  423.86   24.20
  -4   3   2  399.26   25.50
  -4   3   2  336.97   24.80
   3  -3  -2   45.00    5.40
  -3   3   2   40.00    4.00
   2  -3  -2  312.57   20.90
  -2   3   2  287.67   19.60
   1  -3  -2  918.81   57.29
   1  -3  -2  926.41   56.59
   1  -3  -2  916.81   60.69
  -1   3   2  847.32   56.89
   0  -3  -2   75.79    6.50
   0  -3  -2   81.69    7.80
   0  -3  -2   76.69    9.30
   0  -3  -2   76.19    5.40
  -1  -3  -2 1082.09   65.09
  -1  -3  -2 1012.80   63.89
  -1  -3  -2 1112.89   64.89
  -1  -3  -2 1034.50   62.49
  -1  -3  -2  986.60   66.19
   1   3   2  852.51   63.49
  -2  -3  -2  202.58   16.10
  -2  -3  -2  171.28   15.90
  -2  -3  -2  223.38   13.70
  -2  -3  -2  216.38   15.20
  -2  -3  -2  196.88   13.90
  -2  -3  -2  220.18   15.80
   2   3   2  195.08   14.80
  -3  -3  -2   12.80    3.60
  -3  -3  -2   14.00    6.40
  -3  -3  -2   21.30    4.20
  -3  -3  -2   22.20    4.20
  -3  -3  -2   21.40    4.50
  -3  -3  -2   16.60    5.30
   3   3   2   19.70    3.70
  -4  -3  -2   99.99   11.80
  -4  -3  -2  145.39   10.70
  -4  -3  -2  129.69   10.80
  -5  -3  -2    9.40    1.10
   6  -4  -2   28.60    2.60
   5  -4  -2   61.89    4.90
   5  -4  -2   57.89    5.20
  -5   4   2   60.29    5.90
   4  -4  -2    9.00    1.90
   4  -4  -2    9.00    2.20
   4  -4  -2   10.00    3.50
  -4   4   2    6.90    1.80
  -4   4   2    6.50    2.90
  -4   4   2    8.20    3.00
   3  -4  -2  536.15   34.30
   3  -4  -2  549.65   36.60
   2  -4  -2  186.68   13.80
  -2   4   2  147.99   11.80
   1  -4  -2  118.19    7.80
   1  -4  -2  122.19   10.90
   1  -4  -2  114.79    9.30
  -1   4   2  102.59   10.30
   0  -4  -2 1915.11  113.49
   0  -4  -2 1785.02  112.89
   0  -4  -2 1992.20  113.89
   0  -4  -2 1806.22  110.99
   0   4   2 1544.15  116.99
  -1  -4  -2   85.19    8.10
  -1  -4  -2   83.19    9.80
  -1  -4  -2   93.39    9.30
  -1  -4  -2   85.29    8.10
  -1  -4  -2   82.69    6.40
   1   4   2   82.39    8.90
  -2  -4  -2  379.56   29.10
  -2  -4  -2  397.76   26.50
  -2  -4  -2  444.26   29.20
  -3  -4  -2  226.08   17.00
  -3  -4  -2  250.97   19.00
  -3  -4  -2  222.48   15.40
   5  -5  -2   46.60    4.40
   5  -5  -2   55.99    4.20
   4  -5  -2  130.79    9.40
   4  -5  -2  120.69    9.50
   4  -5  -2  135.29    9.30
  -4   5   2  141.69   12.10
  -4   5   2  131.69    9.60
   3  -5  -2   18.30    2.60
   3  -5  -2   21.60    4.70
   3  -5  -2   22.80    2.10
   3  -5  -2   18.80    3.10
   3  -5  -2   19.80    2.30
   2  -5  -2  398.66   25.90
   2  -5  -2  403.86   26.80
   2  -5  -2  445.26   30.50
   1  -5  -2  103.49    7.40
   0  -5  -2  137.59   12.50
   0  -5  -2  128.39    9.20
   0  -5  -2  126.99   12.00
  -1  -5  -2  399.46   29.10
  -1  -5  -2  436.36   29.50
  -1  -5  -2  386.66   26.30
  -2  -5  -2   73.89    6.30
  -2  -5  -2   78.09    5.30
  -2  -5  -2   73.09    5.00
  -2  -5  -2   87.39    9.50
  -2  -5  -2   77.79    7.10
  -2  -5  -2   65.89    9.70
  -3  -5  -2  142.19    9.10
  -3  -5  -2  142.59    9.90
  -3  -5  -2  113.99   11.00
   5  -6  -2   -0.20    0.60
   5  -6  -2    0.10    0.70
   4  -6  -2   29.70    3.30
   4  -6  -2   27.70    2.80
   4  -6  -2   25.30    2.60
  -4   6   2   26.90    3.70
  -4   6   2   34.00    7.80
   3  -6  -2  135.29    9.20
   3  -6  -2  140.89    9.10
   3  -6  -2  139.59    9.90
   2  -6  -2    2.50    1.70
   2  -6  -2    2.70    1.20
   2  -6  -2    2.40    1.00
   2  -6  -2    3.30    2.70
   2  -6  -2    2.20    1.00
   1  -6  -2  129.99    9.20
   1  -6  -2  140.19    9.30
   1  -6  -2  141.09    9.20
   0  -6  -2  284.37   17.30
   0  -6  -2  293.37   22.90
   0  -6  -2  280.47   18.30
   0  -6  -2  257.07   17.40
   0  -6  -2  245.78   16.90
   0  -6  -2  275.57   17.20
   0  -6  -2  269.37   17.50
  -1  -6  -2   50.29    8.20
  -1  -6  -2   46.10    5.30
  -1  -6  -2   53.89    8.40
  -1  -6  -2   47.30    3.70
  -1  -6  -2   42.10    4.00
  -1  -6  -2   48.50    3.50
  -2  -6  -2  171.88   13.90
  -2  -6  -2  184.78   10.60
  -2  -6  -2  167.48   10.90
  -2  -6  -2  156.18   11.30
  -2  -6  -2  154.58   15.90
  -3  -6  -2   19.60    1.60
  -3  -6  -2   17.50    2.00
  -4   7   2    8.70    3.80
  -4   7   2    6.90    1.90
   3  -7  -2   24.30    2.80
   3  -7  -2   26.50    2.50
   2  -7  -2  131.49    8.80
   1  -7  -2    0.20    1.00
   1  -7  -2   -0.40    1.00
   1  -7  -2    0.30    1.10
   0  -7  -2  201.68   12.30
   0  -7  -2  191.98   18.20
   0  -7  -2  185.58   12.20
   0  -7  -2  180.38   12.00
   0  -7  -2  188.58   12.70
   0  -7  -2  188.78   12.60
  -1  -7  -2   11.30    2.10
  -1  -7  -2   10.20    1.60
  -1  -7  -2    9.50    4.90
  -1  -7  -2   13.90    1.50
  -1  -7  -2   14.80    2.40
  -2  -7  -2    3.50    0.80
  -2  -7  -2   -0.80    1.30
  -2  -7  -2   -1.30    0.80
  -3  -7  -2   27.00    2.40
  -3  -7  -2   32.20    2.10
   2  -8  -2   20.00    2.10
   1  -8  -2   50.39    4.20
   1  -8  -2   54.79    3.90
   1  -8  -2   64.19    4.40
   0  -8  -2   17.10    1.80
   0  -8  -2   13.30    1.90
   0  -8  -2   11.60    1.70
   0  -8  -2   14.70    1.70
   0  -8  -2   16.30    1.60
  -1  -8  -2   55.79    3.80
  -1  -8  -2   57.09    3.70
  -1  -8  -2   57.09    4.00
  -1  -8  -2   47.10    4.30
  -1  -9   3   28.50    2.30
  -1  -9   3   26.50    1.90
  -1  -9   3   26.60    2.40
  -1  -9   3   25.50    2.40
  -1  -9   3   23.50    2.10
   0  -9   3   40.00    3.00
   0  -9   3   38.50    2.70
   0  -9   3   34.80    2.90
   0  -9   3   34.60    3.00
   0  -9   3   38.00    3.00
  -1   9  -3    6.60    2.20
   1  -9   3    5.70    1.10
   1  -9   3    4.60    0.90
   1  -9   3    5.70    1.00
   2  -9   3   15.60    1.80
  -2  -8   3   68.49    4.80
  -2  -8   3   72.29    4.50
  -2  -8   3   71.99    5.20
  -2  -8   3   61.99    5.10
  -1  -8   3    1.80    1.10
  -1  -8   3    3.80    1.00
  -1  -8   3    3.10    1.20
  -1  -8   3    4.20    0.80
  -1  -8   3    3.80    3.10
   0  -8   3   50.89    3.90
   0  -8   3   48.90    7.90
   0  -8   3   57.79    4.20
   0  -8   3   47.00    4.10
   0  -8   3   54.59    5.50
   0  -8   3   53.29    3.60
   0  -8   3   52.59    4.00
   1  -8   3  104.19    6.80
   1  -8   3   96.59    7.60
   1  -8   3   93.49    6.70
   1  -8   3  103.59    6.70
   1  -8   3   90.29    7.50
  -2   8  -3    3.00    2.50
   2  -8   3    2.70    1.30
   2  -8   3    0.50    1.40
   3  -8   3   91.39    6.60
   3  -8   3   95.19    6.80
   4  -8   3    0.60    0.80
  -2  -7   3   28.70    4.70
  -2  -7   3   34.90    3.10
  -2  -7   3   27.10    3.00
  -2  -7   3   33.70    2.60
  -2  -7   3   32.80    2.20
  -1  -7   3  181.98   11.50
  -1  -7   3  173.28   11.70
  -1  -7   3  187.18   11.90
  -1  -7   3  213.88   14.00
  -1  -7   3  175.38   14.90
  -1  -7   3  179.58   17.10
  -1  -7   3  173.38   11.20
  -1  -7   3  158.98   12.90
   0  -7   3   27.90    4.20
   0  -7   3   25.10    5.80
   0  -7   3   26.00    3.70
   0  -7   3   27.50    2.20
   0  -7   3   28.90    2.70
   0  -7   3   28.60    2.50
   0  -7   3   37.70    4.70
   0  -7   3   31.10    6.10
   0  -7   3   27.40    2.60
   0  -7   3   30.20    2.50
   1  -7   3   94.29    7.20
   1  -7   3   83.39    9.40
   1  -7   3   85.09    7.10
   1  -7   3   94.29    6.30
   1  -7   3   93.39    6.20
   1  -7   3   89.49    6.30
   1  -7   3   95.19    6.20
   1  -7   3   85.29    7.20
  -2   7  -3   84.79    7.40
   2  -7   3   79.39    6.30
   2  -7   3   70.79    6.10
   2  -7   3   69.69    6.00
   2  -7   3   88.69    6.70
   3  -7   3    2.20    1.30
   3  -7   3    1.50    0.80
   3  -7   3    3.70    1.50
   4  -7   3   26.40    2.70
   4  -7   3   22.80    2.10
   4  -7   3   28.60    2.80
  -2  -6   3  186.68   13.30
  -2  -6   3  210.68   13.00
  -2  -6   3  210.58   13.40
  -2  -6   3  215.38   15.20
  -1  -6   3   75.29    9.00
  -1  -6   3   78.69    5.50
  -1  -6   3   70.49    6.60
  -1  -6   3   73.29    5.40
  -1  -6   3   85.09    8.30
  -1  -6   3   78.69    6.40
   0  -6   3  359.06   24.20
   0  -6   3  302.47   23.60
   0  -6   3  314.37   20.90
   0  -6   3  312.57   21.00
   1  -6   3   69.39    5.90
   1  -6   3   76.69    6.00
   1  -6   3   76.19    8.10
   2  -6   3   19.30    2.60
   2  -6   3   22.60    2.80
   2  -6   3   18.60    4.10
   2  -6   3   14.80    2.10
   3  -6   3  324.27   19.70
   3  -6   3  315.47   20.00
   3  -6   3  305.17   20.00
   3  -6   3  296.07   22.10
  -4   6  -3    0.00    1.10
  -4   6  -3   -1.00    2.00
   4  -6   3   -0.90    0.80
   4  -6   3   -0.10    1.10
   4  -6   3    0.30    1.10
   5  -6   3   23.20    2.20
   5  -6   3   22.60    2.10
  -2  -5   3  571.34   34.70
  -2  -5   3  477.55   33.90
  -1  -5   3  416.86   27.70
  -1  -5   3  387.66   30.00
  -1  -5   3  503.85   30.10
   0   5  -3   63.29    6.40
   0  -5   3   55.99    6.20
   0  -5   3   58.59    6.70
   0  -5   3   58.09    4.60
  -1   5  -3  568.24   39.50
   1  -5   3  625.04   39.50
   1  -5   3  615.54   37.60
   2  -5   3   83.89    6.20
   2  -5   3   80.29    6.00
   2  -5   3   84.29    7.60
   3  -5   3   55.19    5.90
   3  -5   3   57.09    4.40
   3  -5   3   42.80    4.60
   3  -5   3   60.49    4.50
  -4   5  -3   55.29    4.60
  -4   5  -3   56.79    6.60
   4  -5   3   60.99    4.40
   4  -5   3   45.30    4.90
   5  -5   3   15.90    2.80
   5  -5   3   18.70    2.50
  -3  -4   3  473.65   32.50
  -3  -4   3  472.45   41.40
   2   4  -3   35.20    4.90
  -2  -4   3   39.00    5.20
  -2  -4   3   47.20    8.00
   1   4  -3 1028.40   59.79
  -1  -4   3  866.01   59.39
  -1  -4   3  895.81   59.89
  -1  -4   3  962.30   57.79
   0   4  -3  910.21   56.09
   0  -4   3  883.91   54.49
   0  -4   3  862.71   55.99
  -1   4  -3   43.80    4.80
   1  -4   3   42.60    4.40
   1  -4   3   42.20    3.50
   2  -4   3  871.31   53.79
   2  -4   3  870.61   54.89
   3  -4   3  145.79   11.00
  -4   4  -3   42.30    3.90
  -4   4  -3   37.10    5.60
   4  -4   3   36.30    4.90
   4  -4   3   44.30    4.20
   4  -4   3   52.19    4.30
   5  -4   3   62.99    5.30
  -6  -3   3    0.30    0.50
  -5  -3   3  116.69    7.50
  -4  -3   3  254.67   16.90
  -4  -3   3  223.88   18.00
  -3  -3   3   44.20    5.60
  -3  -3   3   61.49    5.00
  -3  -3   3   73.09   13.70
   2   3  -3 1063.39   67.19
  -2  -3   3  927.31   65.69
  -2  -3   3 1216.68   71.09
   1   3  -3  189.68   13.50
  -1  -3   3  180.88   13.90
  -1  -3   3  198.68   13.20
  -1  -3   3  192.98   12.50
   0   3  -3  534.25   32.80
   0  -3   3  491.95   32.50
   0  -3   3  503.65   31.70
  -1   3  -3  941.41   60.39
   1  -3   3  977.70   59.69
   2  -3   3    1.50    1.20
   2  -3   3    0.60    0.80
   3  -3   3  453.15   29.30
  -4   3  -3   56.59    4.70
  -4   3  -3   52.29    6.20
   4  -3   3   62.99    5.90
   4  -3   3   61.29    4.90
  -5   3  -3    2.30    1.10
   5  -3   3    2.50    1.50
   6  -3   3   31.50    3.00
  -6  -2   3   77.99    5.20
  -5  -2   3    3.90    3.20
  -5  -2   3    4.90    0.90
  -5  -2   3    6.40    2.90
  -4  -2   3  491.05   32.50
  -4  -2   3  449.86   32.20
  -4  -2   3  500.85   33.20
  -4  -2   3  520.55   33.40
  -4  -2   3  529.95   39.60
  -3  -2   3  898.01   62.79
  -3  -2   3  848.62   54.69
   2   2  -3  142.99   10.00
  -2  -2   3  114.79   11.70
  -2  -2   3  113.79    8.50
   1   2  -3 2641.44  160.18
  -1  -2   3 2570.14  160.48
   0   2  -3 1015.90   63.49
  -1   2  -3  150.38   11.60
  -2   2  -3 2156.48  129.39
  -2   2  -3 2147.69  129.29
   2  -2   3 1964.20  127.99
  -3   2  -3   16.10    2.20
  -3   2  -3   15.70    3.20
   3  -2   3   16.40    2.40
  -4   2  -3  209.08   14.50
  -4   2  -3  167.08   15.40
   4  -2   3  202.68   13.00
   4  -2   3  199.98   13.80
  -5   2  -3   61.29    4.60
  -5   2  -3   67.19    5.00
   5  -2   3   70.69    6.60
   5  -2   3   72.89    5.50
  -6   2  -3   -0.20    0.90
   6  -2   3    0.20    1.00
  -6  -1   3   65.49    4.90
  -6  -1   3   60.69    4.20
  -6  -1   3   46.50    6.30
  -5  -1   3  275.17   17.80
  -5  -1   3  291.67   19.50
  -5  -1   3  296.87   20.60
  -5  -1   3  282.57   21.70
   4   1  -3   11.10    4.00
  -4  -1   3   19.90    3.50
  -4  -1   3   13.90    3.00
  -4  -1   3   12.90    3.00
  -4  -1   3   10.60    3.50
  -4  -1   3   11.70    3.20
   3   1  -3  900.11   57.89
  -3  -1   3  753.32   53.99
  -3  -1   3  890.11   54.79
  -3  -1   3  850.31   54.19
  -3  -1   3  963.90   60.39
   2   1  -3  624.54   44.70
  -2  -1   3  799.52   43.00
  -2  -1   3  626.44   45.50
  -2  -1   3  715.73   43.10
   1   1  -3  165.48   12.50
   0   1  -3 1823.42  106.19
   0   1  -3 1569.74  107.09
  -1   1  -3  734.53   48.00
  -1   1  -3  763.92   47.50
  -2   1  -3  513.85   30.80
  -2   1  -3  501.65   32.30
  -2   1  -3  482.35   32.20
   2  -1   3  471.45   30.80
  -3   1  -3  536.65   36.90
  -3   1  -3  512.75   35.50
  -3   1  -3  523.65   33.20
  -3   1  -3  519.85   34.40
   3  -1   3  530.95   33.20
  -4   1  -3   38.00    6.90
  -4   1  -3   50.99    4.70
  -4   1  -3   49.40    5.20
  -4   1  -3   43.60    7.20
  -4   1  -3   39.30    7.90
  -4   1  -3   33.50    6.30
   4  -1   3   44.90    4.40
   4  -1   3   44.90    3.70
  -5   1  -3   48.70    3.40
  -5   1  -3   50.99    3.90
  -5   1  -3   44.50    7.80
  -5   1  -3   46.70    6.10
   5  -1   3   49.90    4.20
   5  -1   3   47.40    5.10
  -6   1  -3   33.60    2.60
  -6   1  -3   35.50    3.00
   6  -1   3   36.30    3.10
   6   0  -3   12.50    1.80
  -6   0   3   15.40    3.10
  -6   0   3   15.50    1.90
  -6   0   3   17.50    2.40
  -6   0   3   15.10    4.10
   5   0  -3   57.69    7.80
  -5   0   3   79.09    7.70
  -5   0   3   71.39    8.70
  -5   0   3   81.39    7.90
  -5   0   3   73.69    5.10
  -5   0   3   76.89    7.20
   4   0  -3  535.55   39.80
  -4   0   3  582.64   37.90
  -4   0   3  595.14   37.90
  -4   0   3  646.94   39.40
  -4   0   3  615.54   38.10
  -4   0   3  546.35   37.90
   3   0  -3   39.20    5.60
  -3   0   3   32.20    3.40
  -3   0   3   31.50    3.50
   2   0  -3 1603.04   98.19
  -2   0   3 1456.95   98.79
  -2   0   3 1653.93   96.59
   0   0  -3   47.50    7.90
   0   0  -3   57.09    6.00
   0   0  -3   40.20    7.00
  -1   0  -3 2771.72  179.08
  -1   0  -3 3091.99  176.98
  -1   0  -3 3094.99  179.28
   1   0   3 2622.94  176.98
  -2   0  -3  648.34   43.90
  -2   0  -3  701.63   43.50
  -2   0  -3  692.13   43.90
  -2   0  -3  707.13   42.00
   2   0   3  612.04   41.60
  -3   0  -3  276.47   17.70
  -3   0  -3  254.17   19.70
  -3   0  -3  261.47   20.50
  -3   0  -3  265.67   18.20
  -3   0  -3  225.78   20.90
  -3   0  -3  283.67   17.50
   3   0   3  261.47   17.10
  -4   0  -3  325.57   21.60
  -4   0  -3  328.67   21.90
  -4   0  -3  315.87   25.10
  -4   0  -3  300.37   25.20
   4   0   3  326.57   21.10
  -5   0  -3   16.20    5.00
  -5   0  -3   22.00    4.50
  -5   0  -3   19.20    1.80
  -5   0  -3   23.30    2.40
  -6   0  -3   20.70    2.20
  -6   0  -3   16.30    1.70
   6  -1  -3   24.80    2.80
  -6   1   3   26.20    2.80
  -6   1   3   36.20    4.60
  -6   1   3   24.30    5.00
  -6   1   3   37.20    4.10
  -5   1   3  324.97   20.60
  -5   1   3  331.17   25.30
  -5   1   3  315.87   23.20
  -5   1   3  333.77   21.10
  -5   1   3  332.27   22.20
   4  -1  -3  136.49   12.60
  -4   1   3  156.18   11.70
  -4   1   3  162.98   11.60
  -4   1   3  134.29   11.00
  -4   1   3  156.68   13.00
   3  -1  -3 1166.08   72.59
  -3   1   3 1064.49   70.59
  -3   1   3 1129.49   70.69
  -3   1   3 1192.08   72.29
   2  -1  -3   58.49    5.90
  -2   1   3   49.60    4.80
   1  -1  -3  583.44   37.90
  -1   1   3  597.14   38.00
   0  -1  -3  875.51   56.69
   0  -1  -3  888.11   58.19
   0   1   3  922.81   55.79
  -1  -1  -3   51.69    6.80
  -1  -1  -3   48.10    4.70
  -1  -1  -3   40.80    7.90
  -1  -1  -3   39.70    5.30
  -1  -1  -3   49.00    5.00
   1   1   3   46.00    4.10
  -2  -1  -3 1035.80   63.39
  -2  -1  -3  917.71   60.79
  -2  -1  -3  893.71   62.69
  -2  -1  -3  991.70   62.59
  -2  -1  -3 1042.20   60.99
  -3  -1  -3  150.58   13.30
  -3  -1  -3  150.88   10.90
  -3  -1  -3  135.79   13.70
  -3  -1  -3  157.08   11.10
  -3  -1  -3  156.98   11.00
   3   1   3  140.69   10.10
  -4  -1  -3   48.40    8.10
  -4  -1  -3   57.39    3.30
  -4  -1  -3   52.29    5.50
  -4  -1  -3   36.80    5.80
  -4  -1  -3   49.50    5.70
  -4  -1  -3   39.60    8.10
   4   1   3   45.10    5.60
  -5  -1  -3   79.29    4.90
  -5  -1  -3   71.59    7.40
  -5  -1  -3   67.59    8.50
  -6  -1  -3    2.90    0.70
  -6  -1  -3    2.50    1.00
   6  -2  -3   10.90    1.80
   6  -2  -3    8.60    1.80
  -6   2   3    4.50    1.90
  -6   2   3    9.10    2.90
   5  -2  -3  144.79   10.00
   5  -2  -3  141.79   10.30
  -5   2   3  129.89   12.20
  -5   2   3  161.38   11.30
  -5   2   3  143.39   10.00
   4  -2  -3  197.28   15.50
  -4   2   3  198.58   14.80
  -4   2   3  191.58   12.60
  -4   2   3  176.58   13.60
  -4   2   3  213.38   14.50
   3  -2  -3   26.80    4.30
  -3   2   3   27.90    3.60
   2  -2  -3 2233.78  139.89
  -2   2   3 2278.67  139.19
   1  -2  -3  427.46   28.70
  -1   2   3  457.95   30.10
   0  -2  -3  135.59   10.50
   0  -2  -3  143.99   10.90
   0   2   3  138.79   10.30
  -1  -2  -3 2432.86  153.98
  -1  -2  -3 2690.33  151.58
  -1  -2  -3 2422.96  151.28
  -1  -2  -3 2402.46  154.08
  -1  -2  -3 2428.36  149.99
   1   2   3 2329.97  150.78
  -2  -2  -3   58.09    8.20
  -2  -2  -3   53.39    7.00
  -2  -2  -3   53.59    6.80
  -2  -2  -3   61.29    6.50
  -2  -2  -3   57.39    5.90
  -2  -2  -3   63.89    7.40
  -2  -2  -3   65.49    5.90
   2   2   3   56.89    5.20
  -3  -2  -3  381.46   22.80
  -3  -2  -3  295.77   24.60
  -3  -2  -3  326.77   25.10
  -3  -2  -3  321.57   23.00
  -3  -2  -3  314.37   22.40
  -3  -2  -3  355.36   21.70
   3   2   3  345.07   22.70
  -4  -2  -3  166.38    9.20
  -4  -2  -3  132.29   11.40
  -4  -2  -3  162.08   11.70
  -4  -2  -3  138.39   14.80
  -4  -2  -3  122.39   13.20
  -5  -2  -3    1.30    1.90
  -5  -2  -3    0.60    1.90
  -5  -2  -3    0.40    0.70
   6  -3  -3    9.80    2.20
   6  -3  -3   14.00    1.90
  -6   3   3   11.00    2.70
   5  -3  -3   24.40    3.10
   5  -3  -3   20.10    2.80
  -5   3   3   21.30    3.80
   4  -3  -3  249.38   16.50
   4  -3  -3  253.67   16.80
   4  -3  -3  249.97   19.20
  -4   3   3  242.18   17.40
  -4   3   3  228.08   17.70
  -4   3   3  270.27   16.60
  -4   3   3  265.07   18.30
   3  -3  -3  437.66   29.30
   3  -3  -3  440.56   26.90
  -3   3   3  382.36   27.60
   2  -3  -3  153.68   12.10
  -2   3   3  134.09   11.20
   1  -3  -3 1438.36   89.69
   1  -3  -3 1345.67   86.39
   1  -3  -3 1377.76   86.09
  -1   3   3 1348.07   87.39
   0  -3  -3   97.69    8.50
   0  -3  -3  113.59    7.10
   0   3   3   88.29    8.40
  -1  -3  -3  315.97   24.40
  -1  -3  -3  329.77   20.50
  -1  -3  -3  318.47   22.20
  -1  -3  -3  320.57   22.00
  -1  -3  -3  322.07   23.10
  -1  -3  -3  312.47   24.00
   1   3   3  301.67   21.30
  -2  -3  -3  387.26   29.00
  -2  -3  -3  397.66   28.50
  -2  -3  -3  365.76   25.50
  -2  -3  -3  383.36   27.10
  -2  -3  -3  431.06   28.60
   2   3   3  366.96   26.30
  -3  -3  -3  105.19   10.40
  -3  -3  -3   95.39    8.10
  -3  -3  -3   72.39   12.10
  -3  -3  -3   77.09    9.20
  -3  -3  -3  106.79    8.70
   3   3   3  101.49    9.00
  -4  -3  -3   98.19   10.90
  -4  -3  -3   89.39    6.10
  -5  -3  -3   40.00    2.80
   6  -4  -3   30.20    2.50
   5  -4  -3  126.29    8.90
   5  -4  -3  126.99    8.60
  -5   4   3  119.19    9.40
   4  -4  -3    1.40    2.30
   4  -4  -3    1.70    1.20
   4  -4  -3    3.70    1.70
  -4   4   3   -0.80    2.20
  -4   4   3    2.80    3.00
  -4   4   3    2.30    1.70
   3  -4  -3  150.78   11.10
   3  -4  -3  176.38   13.80
  -3   4   3  160.78   12.40
   2  -4  -3  462.65   30.70
  -2   4   3  431.06   30.10
   1  -4  -3   43.70    5.20
  -1   4   3   37.90    6.40
   0  -4  -3  422.76   30.60
   0  -4  -3  464.95   31.80
   0  -4  -3  462.35   28.40
  -1  -4  -3  436.16   29.40
  -1  -4  -3  445.36   27.80
  -1  -4  -3  422.96   31.40
  -1  -4  -3  442.86   31.10
   1   4   3  410.06   28.60
  -2  -4  -3  147.59   12.80
  -2  -4  -3  158.48   15.30
  -2  -4  -3  142.89   11.50
   2   4   3  150.28   12.10
  -3  -4  -3  172.88   13.80
  -3  -4  -3  177.88   18.00
  -3  -4  -3  207.28   15.90
  -3  -4  -3  196.98   13.30
  -4  -4  -3    8.80    1.00
  -4  -4  -3    8.70    2.70
  -5  -4  -3   17.00    1.30
   5  -5  -3    7.50    1.30
   5  -5  -3    8.00    1.60
   5  -5  -3    8.60    1.30
   4  -5  -3  151.08   10.70
   4  -5  -3  148.09   10.20
   4  -5  -3  137.39   10.20
  -4   5   3  181.98   14.60
  -4   5   3  158.68   11.30
   3  -5  -3   20.30    2.30
   3  -5  -3   22.90    2.80
   3  -5  -3   18.60    4.10
   3  -5  -3   21.90    2.50
   2  -5  -3  126.39   10.50
   2  -5  -3  112.09    7.70
   2  -5  -3  106.09    7.70
   1  -5  -3  545.15   33.60
   0  -5  -3    2.00    3.60
   0  -5  -3    1.40    1.50
   0  -5  -3    3.20    3.20
  -1  -5  -3  547.45   34.30
  -1  -5  -3  510.25   38.30
  -1  -5  -3  545.75   36.00
  -1  -5  -3  565.54   33.40
  -1  -5  -3  491.05   33.70
  -2  -5  -3    7.90    2.90
  -2  -5  -3   11.10    1.30
  -2  -5  -3   12.70    5.40
  -2  -5  -3    8.30    2.20
  -2  -5  -3   17.70    5.20
  -2  -5  -3   12.60    1.70
  -3  -5  -3    2.00    3.20
  -3  -5  -3    1.40    1.10
  -3  -5  -3    1.70    0.60
  -3  -5  -3   -0.10    1.90
  -4  -5  -3   37.50    2.50
   5  -6  -3   20.60    2.10
   4  -6  -3   19.70    2.10
   4  -6  -3   20.80    2.50
  -4   6   3   21.90    3.30
   3  -6  -3  138.09    9.50
   3  -6  -3  145.09    9.00
   3  -6  -3  125.99    9.00
   2  -6  -3   36.90    3.50
   2  -6  -3   42.30    2.90
   1  -6  -3   81.19    6.20
   1  -6  -3   84.59    5.90
   1  -6  -3   81.39    6.10
   0  -6  -3  240.88   16.70
   0  -6  -3  240.38   21.70
   0  -6  -3  231.18   15.50
   0  -6  -3  245.98   15.90
   0  -6  -3  260.27   16.20
   0  -6  -3  244.78   15.30
   0  -6  -3  243.78   15.40
  -1  -6  -3   32.80    4.70
  -1  -6  -3   41.30    6.50
  -1  -6  -3   36.60    3.80
  -1  -6  -3   34.10    8.30
  -1  -6  -3   38.50    2.80
  -1  -6  -3   39.50    3.30
  -2  -6  -3  139.79   10.30
  -2  -6  -3  144.99    9.50
  -2  -6  -3  151.48    9.00
  -2  -6  -3  131.39   13.10
  -3  -6  -3   62.79    4.00
  -3  -6  -3   61.89    4.60
  -4   7   3   23.70    2.80
  -4   7   3   31.80    5.90
   3  -7  -3   10.50    1.50
   2  -7  -3   74.99    5.50
   1  -7  -3   46.50    4.00
   1  -7  -3   40.30    3.20
   1  -7  -3   39.10    3.70
   0  -7  -3   21.20    2.70
   0  -7  -3   19.50    2.40
   0  -7  -3   20.60    6.90
   0  -7  -3   16.70    1.90
   0  -7  -3   19.60    1.80
   0  -7  -3   18.50    2.20
  -1  -7  -3  182.28   11.20
  -1  -7  -3  173.38   12.10
  -1  -7  -3  176.58   11.30
  -1  -7  -3  180.08   11.60
  -2  -7  -3    0.10    0.80
  -2  -7  -3   -0.80    1.30
  -2  -7  -3    0.50    0.50
  -2  -7  -3   -0.30    1.00
   2  -8  -3    1.10    0.70
   1  -8  -3   35.50    2.80
   1  -8  -3   45.50    3.30
   1  -8  -3   44.50    3.10
   0  -8  -3   18.40    1.90
   0  -8  -3   16.90    1.50
   0  -8  -3   18.10    1.70
   0  -8  -3   16.10    1.40
   0  -8  -3   16.70    1.60
  -1  -8  -3    3.40    0.70
  -1  -8  -3    2.90    0.50
  -1  -8  -3    3.00    0.60
   1   9  -4   12.50    2.20
  -1  -9   4   12.20    1.40
  -1  -9   4   12.30    1.60
  -1  -9   4   12.80    1.60
  -1  -9   4   12.40    1.20
  -1  -9   4   10.80    1.60
   0   9  -4   47.30    4.70
   0  -9   4   37.90    3.20
   0  -9   4   37.80    3.10
   0  -9   4   43.00    3.20
   0  -9   4   42.60    3.20
   0  -9   4   43.40    2.90
  -1   9  -4    2.40    1.90
   1  -9   4    1.20    0.70
   1  -9   4    1.50    0.80
   1  -9   4    1.60    0.80
   1  -9   4    2.00    0.90
   2  -9   4   14.00    1.60
  -2  -8   4   70.29    5.30
  -2  -8   4   70.49    5.40
  -2  -8   4   75.69    5.00
  -2  -8   4   74.49    4.70
  -1  -8   4   61.79    4.70
  -1  -8   4   60.19    4.30
  -1  -8   4   66.19    5.90
  -1  -8   4   58.59    4.60
  -1  -8   4   51.39    7.50
  -1  -8   4   62.29    4.00
  -1  -8   4   62.79    4.40
   0  -8   4   29.70    6.50
   0  -8   4   29.20    2.40
   0  -8   4   35.50    3.00
   0  -8   4   29.70    2.90
   0  -8   4   26.30    3.80
   0  -8   4   32.50    3.60
   0  -8   4   30.80    2.70
   0  -8   4   32.60    2.80
   1  -8   4   73.39    6.10
   1  -8   4   74.99    5.80
   1  -8   4   80.49    5.20
   1  -8   4   67.69    5.30
   1  -8   4   75.09    5.40
  -2   8  -4    5.40    2.50
   2  -8   4    6.00    1.50
   2  -8   4    5.00    1.60
   3  -8   4    5.40    1.40
   3  -8   4    5.70    1.30
  -3  -7   4   92.69    6.20
  -3  -7   4   83.69    5.60
  -2  -7   4    2.70    2.20
  -2  -7   4    0.50    1.00
  -2  -7   4    4.60    2.60
  -2  -7   4    0.70    0.70
  -2  -7   4    1.40    1.10
  -1  -7   4  164.88   16.30
  -1  -7   4  196.38   13.50
  -1  -7   4  185.88   11.80
  -1  -7   4  193.08   12.10
  -1  -7   4  196.28   12.50
  -1  -7   4  217.28   13.50
  -1  -7   4  187.68   16.00
  -1  -7   4  190.18   12.30
  -1  -7   4  166.28   13.70
   0  -7   4  129.79    8.20
   0  -7   4  122.39    8.20
   0  -7   4  129.39    8.40
   0  -7   4  116.09    9.40
   0  -7   4  112.49   11.60
   0  -7   4  125.89   12.60
   0  -7   4  118.89    8.10
   0  -7   4  137.19    9.30
   0  -7   4  122.19    7.90
   0  -7   4  123.19    9.20
   1  -7   4   14.00    2.30
   1  -7   4   16.00    2.20
   1  -7   4   17.40    2.90
   1  -7   4   17.00    1.80
   1  -7   4   13.40    3.70
   1  -7   4   19.00    3.10
   1  -7   4   15.60    1.90
  -2   7  -4  127.19   10.30
   2  -7   4  140.39    9.60
   2  -7   4  125.99    9.40
   2  -7   4  140.89    9.90
   3  -7   4    9.00    1.80
   3  -7   4    7.80    1.60
   3  -7   4    9.30    1.30
  -4   7  -4   13.50    3.00
  -4   7  -4    8.90    1.60
   4  -7   4   11.90    1.40
   4  -7   4   10.20    1.60
  -3  -6   4   48.20    4.00
  -2  -6   4  285.57   19.00
  -2  -6   4  273.07   19.30
  -2  -6   4  320.27   22.10
  -2  -6   4  282.57   18.70
  -2  -6   4  340.87   20.80
  -2  -6   4  353.16   21.40
  -2  -6   4  289.07   19.40
  -2  -6   4  320.77   24.60
  -1  -6   4    8.00    2.00
  -1  -6   4   10.90    3.70
  -1  -6   4    5.30    2.00
  -1  -6   4    9.40    1.50
  -1  -6   4    6.10    3.00
  -1  -6   4   10.60    1.50
   0  -6   4  310.47   21.50
   0  -6   4  349.07   25.10
   0  -6   4  329.57   24.20
   0  -6   4  346.77   21.90
   1  -6   4  264.57   19.70
   1  -6   4  273.77   17.60
   1  -6   4  253.27   17.20
  -2   6  -4    6.80    2.30
   2  -6   4    4.30    2.30
   2  -6   4    4.60    1.10
   2  -6   4    4.60    1.50
   2  -6   4    5.40    1.80
   2  -6   4    3.10    1.30
   3  -6   4  183.48   12.10
   3  -6   4  186.48   12.40
   3  -6   4  188.08   12.40
  -4   6  -4   22.40    2.70
  -4   6  -4   27.10    5.00
   4  -6   4   19.60    2.70
   4  -6   4   21.00    2.40
   4  -6   4   22.30    2.30
   5  -6   4    7.30    1.10
  -3  -5   4   92.29   10.10
  -3  -5   4  140.59   11.20
  -3  -5   4  108.69   14.00
  -3  -5   4  101.89    7.60
  -3  -5   4  114.59    9.70
  -2  -5   4   56.29    7.20
  -2  -5   4   61.39    6.00
  -2  -5   4   78.79    9.30
  -1  -5   4  460.05   32.20
  -1  -5   4  493.25   30.20
  -1  -5   4  505.65   32.90
  -1  -5   4  436.66   30.10
   0   5  -4   34.00    5.10
   0  -5   4   35.30    3.60
   0  -5   4   36.40    4.80
   0  -5   4   44.00    6.10
  -1   5  -4  273.47   21.20
   1  -5   4  254.67   18.70
   1  -5   4  267.87   17.40
   2  -5   4  286.47   20.00
   2  -5   4  299.47   18.80
   2  -5   4  273.57   18.30
   3  -5   4    1.70    1.00
   3  -5   4    0.70    1.50
   3  -5   4    1.90    1.10
  -4   5  -4   87.99    6.50
  -4   5  -4   86.39    8.20
   4  -5   4   93.29    6.20
   4  -5   4   76.39    6.80
  -5   5  -4   20.70    4.20
   5  -5   4   11.10    2.10
  -4  -4   4    5.10    3.90
  -4  -4   4    4.90    3.80
  -3  -4   4  448.36   36.60
  -3  -4   4  473.05   32.10
  -3  -4   4  490.85   35.30
  -3  -4   4  497.05   31.30
   2   4  -4  410.26   31.50
  -2  -4   4  474.15   33.30
  -2  -4   4  529.05   33.80
  -2  -4   4  449.36   29.80
   1   4  -4  147.29   11.20
  -1  -4   4  134.59    9.20
  -1  -4   4  129.59   10.00
  -1  -4   4  122.59   10.70
   0   4  -4  948.11   59.09
   0  -4   4  898.51   58.49
   0  -4   4  936.21   57.19
   0  -4   4  918.41   58.69
  -1   4  -4  168.88   13.50
   1  -4   4  173.08   12.40
   1  -4   4  169.38   12.20
   1  -4   4  180.58   11.60
   2  -4   4  137.89   10.00
   2  -4   4  152.08   10.80
   3  -4   4  337.97   23.40
   3  -4   4  352.36   22.30
  -4   4  -4   -0.30    1.10
  -4   4  -4   -0.20    1.90
   4  -4   4    0.00    1.30
   4  -4   4   -0.30    1.50
  -5   4  -4   56.09    7.00
   5  -4   4   38.90    4.00
  -6  -3   4   18.90    1.60
  -5  -3   4  113.19    7.30
   4   3  -4  583.24   43.30
  -4  -3   4  609.54   39.80
  -4  -3   4  650.33   41.00
  -4  -3   4  585.04   48.10
  -4  -3   4  592.84   39.50
  -3  -3   4   37.60    4.30
  -3  -3   4   31.80    5.00
  -3  -3   4   38.60    8.00
   2   3  -4 1036.60   66.79
  -2  -3   4 1009.40   65.19
  -2  -3   4 1091.29   67.79
   1   3  -4  603.04   38.60
  -1  -3   4  608.64   36.70
  -1  -3   4  565.94   38.00
  -1  -3   4  584.94   38.20
   0   3  -4  100.49    8.50
   0  -3   4  103.09    8.00
   0  -3   4   85.69    7.40
  -1   3  -4  871.81   52.59
   1  -3   4  748.33   50.49
   2  -3   4  216.88   15.00
   3  -3   4  163.28   12.00
  -4   3  -4  103.59    7.20
  -4   3  -4  106.69    7.40
   4  -3   4  108.39    8.90
   4  -3   4  110.19    7.80
  -5   3  -4    3.10    2.80
  -5   3  -4    3.60    1.20
   5  -3   4    5.00    1.70
  -6  -2   4  149.88    9.60
  -5  -2   4   15.00    4.90
  -5  -2   4   11.60    1.60
  -5  -2   4   10.40    4.60
  -5  -2   4   14.60    3.80
  -5  -2   4   13.40    3.80
   4   2  -4  197.28   17.00
  -4  -2   4  189.88   21.20
  -4  -2   4  164.88   12.90
  -4  -2   4  141.39   14.00
  -4  -2   4  156.48   14.00
  -4  -2   4  167.98   13.00
  -3  -2   4  778.12   59.99
  -3  -2   4  995.00   56.79
  -3  -2   4  924.41   57.99
  -3  -2   4  889.61   56.49
   2   2  -4   11.60    3.40
  -2  -2   4   12.30    3.80
  -2  -2   4   12.80    2.60
   1   2  -4 2279.47  144.19
  -1  -2   4 2146.79  143.59
  -1  -2   4 2555.54  143.79
   0   2  -4  913.61   58.49
  -1   2  -4   28.70    5.40
   1  -2   4   33.50    3.50
   2  -2   4 1479.45   91.29
  -3   2  -4  210.88   16.90
   3  -2   4  227.38   15.10
  -4   2  -4   94.49    6.40
  -4   2  -4   81.09    8.80
  -4   2  -4   88.99    8.40
   4  -2   4   93.39    7.70
   4  -2   4   97.29    6.80
  -5   2  -4   89.19    8.20
  -5   2  -4   78.99    6.00
   5  -2   4   86.19    6.40
  -6   2  -4    2.00    0.80
  -6  -1   4    6.10    3.60
  -6  -1   4    6.40    1.50
  -6  -1   4    4.90    2.60
  -6  -1   4    7.90    2.00
  -5  -1   4   67.09    8.20
  -5  -1   4   59.39    7.10
  -5  -1   4   57.59    4.40
  -5  -1   4   60.99    7.00
  -5  -1   4   49.40    8.00
   4   1  -4  739.83   47.90
  -4  -1   4  610.94   44.30
  -4  -1   4  793.12   45.20
  -4  -1   4  670.73   45.90
  -4  -1   4  664.23   44.60
  -4  -1   4  653.73   44.20
   3   1  -4  262.87   19.50
  -3  -1   4  293.77   17.80
  -3  -1   4  261.17   17.70
  -3  -1   4  252.47   18.80
  -3  -1   4  226.68   20.30
   2   1  -4 1281.17   88.69
  -2  -1   4 1585.14   86.29
  -2  -1   4 1300.07   87.39
   1   1  -4    0.00    2.60
  -1  -1   4    4.60    2.10
   0   1  -4  822.72   50.29
   0   1  -4  668.13   49.50
  -1   1  -4  367.96   27.70
  -1   1  -4  374.46   27.20
  -1   1  -4  446.66   25.50
   1  -1   4  390.56   24.90
  -2   1  -4    1.90    2.10
  -2   1  -4    1.40    1.60
  -2   1  -4    1.70    1.10
   2  -1   4    2.50    1.10
  -3   1  -4  532.55   32.40
  -3   1  -4  498.85   31.60
  -3   1  -4  485.95   33.60
  -3   1  -4  445.56   34.50
   3  -1   4  506.15   31.60
  -4   1  -4   78.59    8.20
  -4   1  -4   86.59    7.40
  -4   1  -4   87.19   10.80
  -4   1  -4  103.69    6.80
  -4   1  -4   67.49   11.20
  -4   1  -4   90.29    8.30
   4  -1   4   92.49    6.50
   4  -1   4   98.49    7.50
  -5   1  -4   32.60    2.60
  -5   1  -4   23.90    5.10
  -5   1  -4   33.00    3.10
  -5   1  -4   33.70    5.30
   5  -1   4   34.80    3.20
  -6   1  -4   21.20    1.80
  -6   1  -4   22.40    2.20
   6   0  -4  123.59   11.00
   6   0  -4  120.39    8.80
   6   0  -4  116.69    8.90
  -6   0   4  147.59    8.80
  -6   0   4  155.58   10.70
   5   0  -4   50.99    7.40
  -5   0   4   55.59    4.30
  -5   0   4   53.99    7.40
  -5   0   4   50.29    6.80
  -5   0   4   56.69    6.60
  -5   0   4   46.00    7.90
  -5   0   4   61.99    5.20
   4   0  -4  555.84   35.70
  -4   0   4  495.45   33.40
  -4   0   4  502.15   33.40
  -4   0   4  475.55   34.80
  -4   0   4  491.65   33.70
  -4   0   4  499.15   33.10
   3   0  -4  426.56   29.00
  -3   0   4  418.16   27.60
  -3   0   4  435.66   29.10
  -3   0   4  411.26   27.70
   2   0  -4   23.30    3.40
  -2   0   4   23.20    3.20
  -2   0   4   21.80    3.00
  -2   0   4   20.20    4.10
   1   0  -4 2823.12  162.88
  -1   0   4 2433.76  161.38
   0   0  -4  368.76   29.10
   0   0  -4  415.66   30.10
   0   0  -4  426.46   27.70
   0   0   4  428.96   26.00
  -1   0  -4  101.69    8.60
  -1   0  -4  103.59    7.80
  -1   0  -4   93.19    7.10
  -1   0  -4   90.99   11.70
  -1   0  -4   75.39   11.00
  -1   0  -4  103.09    8.50
   1   0   4   92.49    7.00
  -2   0  -4 1711.13   98.89
  -2   0  -4 1800.82  101.19
  -2   0  -4 1430.66  101.89
   2   0   4 1595.04   98.49
   2   0   4 1469.05   98.29
  -3   0  -4    4.10    1.80
  -3   0  -4    3.80    3.10
  -3   0  -4    4.40    4.40
  -3   0  -4    5.20    2.40
  -3   0  -4    2.00    4.10
  -3   0  -4    4.10    2.00
   3   0   4    7.10    1.70
  -4   0  -4  123.99   16.40
  -4   0  -4  170.18    9.80
  -4   0  -4  157.48   12.50
  -4   0  -4  134.39   14.00
  -4   0  -4  153.88   11.90
  -4   0  -4  143.19   11.80
   4   0   4  161.48   11.20
   4   0   4  180.28   11.90
  -5   0  -4   51.49    3.60
  -5   0  -4   42.20    6.60
  -5   0  -4   50.69    5.90
  -5   0  -4   52.89    4.00
  -6   0  -4    0.70    0.60
  -6   0  -4    1.10    0.80
   6  -1  -4  115.59    8.10
   6  -1  -4  104.29    8.10
  -6   1   4  129.79    8.70
  -6   1   4  107.19    7.90
  -6   1   4  130.49    9.70
  -5   1   4   63.79    6.70
  -5   1   4   65.59    5.50
  -5   1   4   67.99    4.80
  -5   1   4   52.49    8.80
  -5   1   4   52.29    7.30
   4  -1  -4   16.10    4.30
  -4   1   4   18.90    5.30
  -4   1   4   16.60    3.90
  -4   1   4   15.60    3.70
  -4   1   4   12.80    3.60
   3  -1  -4  871.41   54.09
  -3   1   4  728.73   52.79
  -3   1   4  855.61   55.89
  -3   1   4  907.61   55.69
  -3   1   4  842.12   53.39
   2  -1  -4  833.82   53.09
  -2   1   4  842.22   53.39
   1  -1  -4  296.77   21.80
   1  -1  -4  376.26   23.30
  -1   1   4  318.07   22.70
   0  -1  -4 2957.90  162.48
   0  -1  -4 2355.66  164.18
   0  -1  -4 2568.14  163.18
   0   1   4 2570.74  160.08
  -1  -1  -4   82.89    7.90
  -1  -1  -4   99.99    9.40
  -1  -1  -4   87.89    7.80
  -1  -1  -4   92.79    7.00
  -1  -1  -4   87.49   10.70
   1   1   4   89.29    7.20
  -2  -1  -4  300.07   26.30
  -2  -1  -4  385.36   23.70
  -2  -1  -4  355.16   22.90
  -2  -1  -4  350.66   27.40
  -2  -1  -4  349.96   24.80
   2   1   4  369.06   23.10
  -3  -1  -4  182.28   13.20
  -3  -1  -4  164.68   14.90
  -3  -1  -4  142.39   18.50
  -3  -1  -4  161.88   16.20
  -3  -1  -4  172.28   13.50
  -3  -1  -4  191.58   13.30
   3   1   4  190.08   12.70
  -4  -1  -4   67.79    6.70
  -4  -1  -4   62.19    8.60
  -4  -1  -4   74.99    4.50
  -4  -1  -4   48.50   11.40
  -4  -1  -4   66.89    7.10
  -5  -1  -4   31.70    5.60
  -5  -1  -4   29.50    7.20
  -5  -1  -4   44.80    3.10
  -5  -1  -4   47.90    3.60
  -5  -1  -4   44.80    5.40
   6  -2  -4   39.30    3.50
   6  -2  -4   37.90    3.20
  -6   2   4   25.90    3.00
  -6   2   4   34.20    4.60
   5  -2  -4  107.29   10.20
   5  -2  -4  132.39    8.30
  -5   2   4  114.79    9.40
  -5   2   4  105.49    8.10
   4  -2  -4  423.56   28.10
   4  -2  -4  483.75   29.10
  -4   2   4  369.26   25.60
  -4   2   4  412.66   26.80
  -4   2   4  406.56   28.60
  -4   2   4  367.26   26.50
   3  -2  -4   30.40    4.30
   3  -2  -4   22.00    4.00
  -3   2   4   33.50    4.90
  -3   2   4   21.50    4.70
   2  -2  -4  632.54   43.40
  -2   2   4  732.53   45.10
   1  -2  -4  815.12   57.89
   1  -2  -4  946.81   60.59
   1  -2  -4  980.60   57.89
  -1   2   4  899.71   58.69
   0  -2  -4  164.28   12.30
   0  -2  -4  178.28   15.30
   0  -2  -4  161.58   11.60
   0  -2  -4  167.18   13.40
   0   2   4  184.48   12.10
  -1  -2  -4  827.52   55.49
  -1  -2  -4  848.82   51.79
  -1  -2  -4  852.31   55.69
  -1  -2  -4  849.22   53.99
  -1  -2  -4  816.92   52.59
   1   2   4  775.32   52.09
  -2  -2  -4  417.76   27.60
  -2  -2  -4  437.06   26.10
  -2  -2  -4  341.67   27.00
  -2  -2  -4  416.86   29.40
  -2  -2  -4  376.86   30.50
   2   2   4  398.56   26.50
  -3  -2  -4  194.88   14.10
  -3  -2  -4  176.78   19.80
  -3  -2  -4  210.88   14.20
  -3  -2  -4  229.78   15.30
  -3  -2  -4  172.38   15.30
  -3  -2  -4  203.58   16.50
   3   2   4  207.38   14.80
  -4  -2  -4  125.09   11.80
  -4  -2  -4  131.29   10.90
  -4  -2  -4  138.49   10.20
  -4  -2  -4  133.49    8.20
  -4  -2  -4   98.59   15.70
  -5  -2  -4    1.50    2.90
  -5  -2  -4    2.00    0.80
   6  -3  -4   62.39    4.50
  -6   3   4   65.69    5.20
   5  -3  -4   40.40    3.40
   5  -3  -4   42.10    3.80
  -5   3   4   31.50    4.30
   4  -3  -4   43.70    4.10
   4  -3  -4   48.20    5.90
   4  -3  -4   43.10    3.70
  -4   3   4   46.40    6.60
  -4   3   4   42.80    7.30
  -4   3   4   35.70    4.60
  -4   3   4   42.70    4.40
   3  -3  -4  539.15   33.80
   3  -3  -4  526.65   35.70
  -3   3   4  548.75   36.50
   2  -3  -4   33.00    4.20
  -2   3   4   36.70    6.30
   1  -3  -4  354.56   25.30
   1  -3  -4  308.77   22.50
  -1   3   4  294.87   23.00
   0  -3  -4  869.61   57.09
   0  -3  -4  842.92   57.39
   0  -3  -4  885.21   53.09
   0  -3  -4  754.12   54.99
   0  -3  -4  889.61   54.39
   0   3   4  879.01   53.99
  -1  -3  -4    2.10    2.00
  -1  -3  -4    2.70    2.40
  -1  -3  -4    1.80    2.20
  -1  -3  -4    1.30    3.40
  -1  -3  -4    3.10    1.80
  -1  -3  -4    1.90    3.20
   1   3   4    3.30    1.60
  -2  -3  -4  622.24   49.99
  -2  -3  -4  754.52   47.00
  -2  -3  -4  704.83   45.20
  -2  -3  -4  809.12   45.90
  -2  -3  -4  725.93   49.10
   2   3   4  685.93   46.00
  -3  -3  -4    5.10    2.10
  -3  -3  -4    0.80    2.70
  -3  -3  -4    5.10    4.40
  -3  -3  -4    7.60    2.30
  -3  -3  -4   10.50    5.20
  -3  -3  -4    3.60    1.00
  -3  -3  -4    5.30    2.40
  -3  -3  -4    6.00    3.60
   3   3   4    5.60    2.60
  -4  -3  -4    5.70    1.00
  -4  -3  -4   11.40    4.40
  -4  -3  -4    6.00    4.40
  -5  -3  -4   23.90    1.70
   5  -4  -4   83.79    6.10
   5  -4  -4   83.39    5.80
   4  -4  -4  134.09    9.00
   4  -4  -4  135.09    9.40
  -4   4   4  111.79    9.60
  -4   4   4  150.58   10.30
  -4   4   4  147.49   13.60
   3  -4  -4   77.59    6.10
   3  -4  -4   85.79    6.00
   3  -4  -4   83.79    7.90
  -3   4   4   84.19    9.10
  -2   4   4  581.04   40.00
  -1   4   4  100.99   10.50
   0  -4  -4  205.08   18.20
   0  -4  -4  179.68   17.20
   0  -4  -4  204.68   15.00
   0  -4  -4  201.58   13.40
   0   4   4  184.58   14.50
  -1  -4  -4  436.66   29.20
  -1  -4  -4  459.45   34.30
  -1  -4  -4  446.66   30.30
   1   4   4  453.85   29.80
  -2  -4  -4   59.39    5.60
  -2  -4  -4   49.99    8.10
  -2  -4  -4   47.60    6.60
  -2  -4  -4   51.59    6.10
  -2  -4  -4   49.70    4.00
  -2  -4  -4   47.90    3.50
   2   4   4   51.99    5.70
  -3  -4  -4  167.28   10.90
  -3  -4  -4  148.29   12.40
  -3  -4  -4  185.38   16.70
  -3  -4  -4  190.98   12.70
  -3  -4  -4  179.08   11.50
  -4  -4  -4   58.79    3.90
   5  -5  -4   -0.20    0.70
   5  -5  -4    0.70    0.80
   5  -5  -4    0.10    0.60
   4  -5  -4   90.69    6.90
   4  -5  -4   97.39    6.90
  -4   5   4  111.39   11.80
  -4   5   4   93.99    8.00
   3  -5  -4  112.39    7.80
   3  -5  -4   92.29    9.30
   3  -5  -4  109.39    7.50
   3  -5  -4  122.49    7.70
   2  -5  -4   59.79    4.60
   2  -5  -4   55.69    4.50
   1  -5  -4  245.28   18.70
   1  -5  -4  298.77   18.90
   1  -5  -4  339.77   19.20
   0  -5  -4   80.49    6.70
   0  -5  -4   74.79    5.80
   0  -5  -4   77.99    6.10
   0  -5  -4   81.09    8.60
   0  -5  -4   79.79    6.10
   0  -5  -4   82.89   11.20
   0  -5  -4   82.09    5.60
   0  -5  -4   78.19    6.90
   0  -5  -4   81.99    5.40
  -1  -5  -4   66.69    6.70
  -1  -5  -4   72.49    6.40
  -1  -5  -4   62.49    7.40
  -1  -5  -4   66.49    4.50
  -1  -5  -4   71.49    5.70
  -1  -5  -4   67.89    5.00
  -1  -5  -4   71.69   11.30
  -2  -5  -4  260.57   19.30
  -2  -5  -4  302.27   18.90
  -2  -5  -4  267.77   22.20
  -2  -5  -4  284.87   17.30
  -2  -5  -4  254.47   21.80
  -2  -5  -4  309.97   18.00
  -3  -5  -4    0.90    0.50
  -3  -5  -4   -0.90    1.60
  -3  -5  -4    0.70    1.10
  -4  -5  -4   28.20    1.90
   4  -6  -4    0.00    0.50
   4  -6  -4    0.50    0.80
  -4   6   4   -2.20    1.30
  -4   6   4   -0.70    2.90
   3  -6  -4   99.99    6.50
   3  -6  -4   87.49    6.00
   2  -6  -4  111.09    7.70
   1  -6  -4   10.00    1.70
   1  -6  -4    8.90    1.30
   1  -6  -4    7.30    1.70
   0  -6  -4  160.68   11.10
   0  -6  -4  175.28   11.70
   0  -6  -4  165.78   10.70
   0  -6  -4  165.08   10.60
   0  -6  -4  161.28   17.70
   0  -6  -4  186.98   11.10
   0  -6  -4  167.68   12.40
  -1  -6  -4   52.29    3.90
  -1  -6  -4   42.50    3.10
  -1  -6  -4   40.10    8.30
  -1  -6  -4   43.20    3.20
  -1  -6  -4   48.60    4.60
  -1  -6  -4   41.70    3.10
  -2  -6  -4   22.90    1.80
  -2  -6  -4   23.60    2.50
  -3  -6  -4   49.80    3.00
  -3  -6  -4   49.00    3.00
  -3  -6  -4   39.00    3.30
   3  -7  -4    2.40    0.80
   2  -7  -4   59.99    4.40
   1  -7  -4   56.49    4.20
   1  -7  -4   64.39    4.60
   1  -7  -4   72.09    5.10
   0  -7  -4    0.50    0.60
   0  -7  -4    0.40    0.50
   0  -7  -4    0.80    0.70
   0  -7  -4    0.00    1.10
   0  -7  -4    0.40    0.70
  -1  -7  -4   80.39    5.40
  -1  -7  -4   69.49    5.70
  -1  -7  -4   84.29    5.20
  -1  -7  -4   82.09    5.10
  -2  -7  -4   12.40    1.00
  -2  -7  -4   12.30    1.20
  -2  -7  -4   10.20    1.20
   1   9  -5   -0.10    1.50
  -1  -9   5   -0.50    0.70
  -1  -9   5   -0.30    0.60
  -1  -9   5    0.40    0.50
  -1  -9   5   -0.50    0.70
  -1  -9   5   -0.20    0.60
   0  -9   5   35.60    3.00
   0  -9   5   38.30    2.70
   0  -9   5   40.10    3.10
   0  -9   5   41.00    3.00
   0  -9   5   42.20    3.00
   0  -9   5   36.20    2.90
  -1   9  -5   17.40    1.90
  -1   9  -5   22.10    3.50
   1  -9   5   17.70    1.80
   1  -9   5   16.70    1.60
  -2   9  -5    4.50    2.80
   2  -9   5    3.30    0.80
  -2  -8   5   23.80    2.60
  -2  -8   5   28.20    2.60
  -2  -8   5   24.30    3.10
  -2  -8   5   25.00    1.90
  -2  -8   5   25.80    2.20
  -1  -8   5  102.69    7.50
  -1  -8   5   93.39    7.10
  -1  -8   5  105.59    7.00
  -1  -8   5   99.59    6.70
  -1  -8   5  100.39    6.40
  -1  -8   5   89.59   13.30
  -1  -8   5  107.49    7.40
  -1  -8   5  100.69    6.70
   0  -8   5    1.50    0.90
   0  -8   5    0.70    1.20
   0  -8   5    0.30    0.90
   0  -8   5    0.20    0.90
   0  -8   5   -0.10    1.40
   0  -8   5    1.30    0.90
   0  -8   5    0.40    0.60
   0  -8   5    0.40    2.80
  -1   8  -5   69.29    6.20
   1  -8   5   65.49    4.90
   1  -8   5   62.09    4.80
   1  -8   5   75.49    5.40
   1  -8   5   69.69    5.50
  -2   8  -5   39.80    5.00
   2  -8   5   34.70    3.40
   2  -8   5   35.70    3.20
   3  -8   5    0.20    0.80
  -3  -7   5   67.59    4.30
  -3  -7   5   62.69    5.00
  -3  -7   5   70.29    4.90
  -2  -7   5   27.30    5.20
  -2  -7   5   31.20    3.60
  -2  -7   5   30.20    3.00
  -2  -7   5   27.40    2.10
  -2  -7   5   39.10    3.90
  -2  -7   5   27.50    2.40
  -2  -7   5   27.50    2.90
  -1  -7   5   42.40    3.60
  -1  -7   5   39.50    7.00
  -1  -7   5   45.10    3.70
  -1  -7   5   42.40    4.10
  -1  -7   5   44.40    3.30
  -1  -7   5   35.50    5.40
  -1  -7   5   45.90    4.50
  -1  -7   5   41.60    3.00
   0  -7   5  165.38   10.00
   0  -7   5  144.69   11.60
   0  -7   5  148.49    9.60
   0  -7   5  154.48   10.00
   0  -7   5  169.58   10.70
   0  -7   5  146.69    9.90
   0  -7   5  145.49   13.10
   0  -7   5  157.18   10.80
   0  -7   5  142.59   14.40
   0  -7   5  153.98   10.20
  -1   7  -5    8.10    2.30
   1  -7   5    4.70    1.70
   1  -7   5    5.30    1.60
   1  -7   5    3.90    1.20
   1  -7   5    5.40    3.50
   1  -7   5    5.00    1.30
   1  -7   5    4.40    2.20
  -2   7  -5   66.69    6.30
   2  -7   5   59.39    5.10
   2  -7   5   65.49    5.30
  -3   7  -5   55.99    5.60
   3  -7   5   41.30    3.70
   3  -7   5   43.00    3.70
   3  -7   5   37.60    2.90
  -4   7  -5    1.40    1.00
  -4   7  -5    1.30    1.90
  -4   7  -5   -0.20    1.00
   4  -7   5    0.00    0.40
   4  -7   5    1.00    0.70
  -3  -6   5    5.30    2.80
  -3  -6   5    4.00    2.30
  -3  -6   5    5.90    1.40
  -3  -6   5    5.70    1.50
  -3  -6   5    3.80    0.70
  -3  -6   5    5.70    2.50
  -2  -6   5  235.68   18.80
  -2  -6   5  239.68   15.90
  -2  -6   5  228.38   15.20
  -2  -6   5  252.17   19.30
  -2  -6   5  226.08   14.60
  -2  -6   5  240.58   15.30
  -2  -6   5  233.58   15.80
  -1  -6   5  139.59    8.50
  -1  -6   5  132.49    9.20
  -1  -6   5  111.99   10.30
  -1  -6   5  146.89    9.20
  -1  -6   5  120.89   11.50
  -1  -6   5  125.89    8.80
  -1  -6   5  138.79    9.50
  -1  -6   5  140.99   13.20
  -1  -6   5  137.69    9.00
   0  -6   5   87.89    5.90
   0  -6   5   85.59    5.70
   0  -6   5   89.39    8.60
   0  -6   5   72.09    9.30
   0  -6   5   88.89    7.80
   0  -6   5   76.29    6.30
   0  -6   5   87.59    7.30
   1  -6   5  235.68   15.60
   1  -6   5  233.38   17.80
   1  -6   5  248.98   16.40
   1  -6   5  234.88   15.60
  -2   6  -5   17.70    3.30
   2  -6   5   18.40    2.50
   2  -6   5   20.90    2.70
   2  -6   5   16.70    3.00
   2  -6   5   21.40    2.60
   2  -6   5   19.00    3.80
   2  -6   5   23.70    2.20
  -3   6  -5   54.79    5.90
   3  -6   5   45.40    3.70
   3  -6   5   41.70    4.00
   3  -6   5   45.30    3.90
  -4   6  -5   54.69    4.30
  -4   6  -5   49.00    4.20
  -4   6  -5   62.89    6.20
   4  -6   5   52.29    4.30
   4  -6   5   48.80    3.90
  -4  -5   5   76.99    7.90
  -4  -5   5   67.19    7.20
  -3  -5   5  476.95   35.60
  -3  -5   5  455.65   31.20
  -3  -5   5  455.15   34.50
  -3  -5   5  554.14   32.50
  -3  -5   5  566.94   32.80
  -2  -5   5   19.70    3.10
  -2  -5   5   31.00    5.40
  -2  -5   5   21.30    2.30
  -2  -5   5   24.20    2.50
  -2  -5   5   18.40    5.30
  -1  -5   5  474.95   30.30
  -1  -5   5  494.65   32.10
  -1  -5   5  469.05   29.60
  -1  -5   5  437.56   33.00
   0  -5   5  183.78   14.10
   0  -5   5  191.68   12.20
   0  -5   5  182.58   12.80
   0  -5   5  172.18   15.70
   1  -5   5   34.20    3.30
   1  -5   5   41.50    4.40
   1  -5   5   40.80    4.70
   2  -5   5  241.28   15.80
   2  -5   5  213.08   15.20
   2  -5   5  241.78   14.80
  -3   5  -5   41.80    3.90
  -3   5  -5   46.50    5.60
  -3   5  -5   37.70    5.90
   3  -5   5   35.60    3.90
   3  -5   5   42.90    3.40
  -4   5  -5   44.20    3.90
  -4   5  -5   46.00    4.00
  -4   5  -5   48.50    5.90
   4  -5   5   47.50    4.30
  -5   5  -5   24.70    4.40
   5  -5   5   17.60    2.20
  -5  -4   5  158.08    9.60
  -5  -4   5  140.39   11.50
  -4  -4   5    1.80    2.30
  -4  -4   5    3.60    3.40
  -4  -4   5    2.40    3.40
  -4  -4   5    0.10    3.30
  -4  -4   5    2.70    0.90
  -3  -4   5  158.68   11.30
  -3  -4   5  161.78   12.30
  -3  -4   5  193.98   13.60
  -3  -4   5  187.38   15.90
  -3  -4   5  158.48   15.50
  -2  -4   5  748.63   46.60
  -2  -4   5  747.23   48.00
  -2  -4   5  742.93   50.69
   1   4  -5    8.60    3.00
  -1  -4   5    8.70    2.90
  -1  -4   5    8.70    2.00
  -1  -4   5   12.20    3.10
   0   4  -5 1182.58   70.99
   0  -4   5 1074.89   68.29
   0  -4   5 1158.48   69.59
   0  -4   5  992.60   71.69
  -1   4  -5  371.86   27.80
   1  -4   5  384.76   24.90
   1  -4   5  401.16   25.60
   1  -4   5  384.46   25.00
   2  -4   5    7.00    2.00
  -3   4  -5  379.96   22.20
  -3   4  -5  343.77   23.60
   3  -4   5  343.17   22.40
   3  -4   5  344.67   22.40
   3  -4   5  315.37   23.30
  -4   4  -5   31.80    2.90
   4  -4   5   28.90    4.40
   4  -4   5   30.60    3.40
  -5   4  -5   24.10    4.70
   5  -4   5   17.60    2.50
  -6  -3   5   20.70    1.80
  -5  -3   5   14.30    4.60
  -5  -3   5   23.70    2.50
  -5  -3   5   29.20    4.80
  -5  -3   5   23.20    5.20
   4   3  -5   63.79    8.30
  -4  -3   5   62.19    7.60
  -4  -3   5   78.19    8.10
  -4  -3   5   50.69    9.40
  -4  -3   5   59.59    7.00
  -4  -3   5   59.49    4.20
  -4  -3   5   53.29    9.90
  -3  -3   5  465.55   34.20
  -3  -3   5  539.05   32.80
  -3  -3   5  411.16   35.40
  -3  -3   5  520.85   31.30
   2   3  -5  295.77   23.30
  -2  -3   5  278.47   24.30
  -2  -3   5  339.47   22.60
  -2  -3   5  337.37   22.10
   1   3  -5 1047.00   65.79
  -1  -3   5  871.01   64.19
  -1  -3   5 1133.59   64.59
   0   3  -5    4.10    2.50
   0  -3   5    3.00    1.30
   0  -3   5    3.30    1.40
  -1   3  -5  515.35   35.30
   1  -3   5  490.65   31.90
   2  -3   5  144.49   10.90
  -3   3  -5    1.50    1.30
  -3   3  -5    0.40    1.90
   3  -3   5    0.60    1.40
   3  -3   5    0.90    1.10
  -4   3  -5  108.19    9.50
  -4   3  -5  103.59    7.60
   4  -3   5  115.39    9.40
   4  -3   5  117.39    8.10
  -5   3  -5   44.90    5.40
   5  -3   5   32.30    3.50
  -6  -2   5   89.89    7.90
  -6  -2   5  110.79    7.40
  -6  -2   5  101.89    6.80
  -5  -2   5  328.87   18.90
  -5  -2   5  329.07   21.30
  -5  -2   5  243.58   21.40
   4   2  -5  111.19   10.70
  -4  -2   5   96.69   12.30
  -4  -2   5  125.39   10.90
  -4  -2   5  102.89    9.00
  -4  -2   5   92.19    8.80
  -4  -2   5   82.39   11.10
  -4  -2   5  110.19    9.80
  -3  -2   5  696.43   46.30
  -3  -2   5  726.13   46.60
  -3  -2   5  674.63   48.30
  -3  -2   5  794.72   47.30
  -2  -2   5  252.27   22.30
  -2  -2   5  315.47   20.70
  -2  -2   5  295.67   20.60
   1   2  -5   34.40    6.00
  -1  -2   5   38.10    4.30
  -1  -2   5   31.70    5.00
   0   2  -5 1435.06   98.29
   0  -2   5 1522.05   94.99
   0  -2   5 1677.83   95.59
  -1   2  -5   81.19    9.70
   1  -2   5   68.09    5.80
   2  -2   5  103.69    8.00
  -3   2  -5  449.26   33.40
  -3   2  -5  469.75   31.80
   3  -2   5  501.15   31.00
  -4   2  -5    2.70    1.30
  -4   2  -5    2.40    2.90
  -4   2  -5    2.20    2.20
  -4   2  -5    2.70    4.30
   4  -2   5    3.50    1.40
   4  -2   5    3.20    1.80
  -5   2  -5   49.80    5.50
  -5   2  -5   42.60    3.70
   5  -2   5   42.50    3.90
   6   1  -5    4.80    2.10
  -6  -1   5    7.50    1.70
  -6  -1   5    8.00    2.80
  -6  -1   5    6.90    2.10
  -5  -1   5  319.77   18.90
  -5  -1   5  323.87   20.90
  -5  -1   5  255.77   21.60
  -5  -1   5  292.97   21.20
   4   1  -5  216.78   17.20
  -4  -1   5  233.38   17.40
  -4  -1   5  220.58   19.70
  -4  -1   5  207.28   18.40
  -4  -1   5  207.78   16.20
  -4  -1   5  204.18   15.10
   3   1  -5    2.90    2.00
  -3  -1   5    8.20    3.40
  -3  -1   5    4.30    2.00
  -3  -1   5    5.10    2.00
  -3  -1   5    5.30    3.00
  -3  -1   5    6.40    2.60
   2   1  -5 1261.57   92.79
  -2  -1   5 1592.04   90.29
  -2  -1   5 1549.34   91.09
  -2  -1   5 1396.26   90.89
   1   1  -5  923.71   60.89
  -1  -1   5  928.11   56.79
  -1  -1   5  849.72   57.09
   0   1  -5  216.68   17.50
   0   1  -5  205.88   17.50
   0  -1   5  217.38   14.10
   0  -1   5  222.88   14.80
  -1   1  -5 1377.06   89.69
  -1   1  -5 1281.87   83.69
   1  -1   5 1299.47   83.29
   1  -1   5 1439.86   83.19
  -2   1  -5   42.00    7.80
  -2   1  -5   67.29    7.10
  -2   1  -5   58.49    5.20
   2  -1   5   57.29    4.70
   2  -1   5   53.29    4.80
  -3   1  -5  220.88   16.70
  -3   1  -5  179.48   17.90
  -3   1  -5  176.28   21.20
  -3   1  -5  253.77   18.40
  -3   1  -5  229.48   15.50
   3  -1   5  236.38   15.10
   3  -1   5  235.68   15.30
  -4   1  -5   29.90    6.00
  -4   1  -5   34.30    7.10
  -4   1  -5   33.50    4.80
  -4   1  -5   36.50    2.80
  -4   1  -5   37.50    3.30
   4  -1   5   34.70    4.20
  -5   1  -5   16.80    1.80
  -5   1  -5   18.70    2.60
  -5   1  -5   21.30    4.10
  -5   1  -5   11.80    7.00
   6   0  -5  107.99    7.40
   6   0  -5  106.59    7.70
  -6   0   5  107.49    7.50
  -6   0   5  110.09    7.80
  -6   0   5  106.99    8.60
  -5   0   5   53.09    6.00
  -5   0   5   61.19    6.70
  -5   0   5   59.79    4.50
  -5   0   5   48.90    7.30
  -5   0   5   55.99    4.90
  -5   0   5   44.10    8.50
   4   0  -5  322.27   22.10
  -4   0   5  277.37   23.60
  -4   0   5  312.67   21.90
  -4   0   5  266.97   20.00
  -4   0   5  301.87   21.70
  -4   0   5  325.27   22.80
   3   0  -5 1042.40   64.99
  -3   0   5  972.10   66.79
  -3   0   5  977.70   64.69
  -3   0   5 1065.49   65.19
  -3   0   5 1057.19   65.19
   2   0  -5  122.99    9.10
  -2   0   5  122.89    9.50
  -2   0   5  104.09    9.50
  -2   0   5  101.59    9.10
   1   0  -5 1386.56   86.49
   1   0  -5 1486.55   87.09
  -1   0   5 1234.98   85.59
  -1   0   5 1413.76   86.09
   0   0  -5 1065.19   67.79
   0   0  -5 1117.79   70.29
   0   0   5 1028.10   65.89
  -1   0  -5  130.09   10.80
  -1   0  -5  166.68   11.30
  -1   0  -5  150.18   15.10
  -1   0  -5  139.09   16.80
   1   0   5  128.19    9.90
   1   0   5  154.08   10.30
  -2   0  -5  571.14   49.90
  -2   0  -5  730.83   45.20
  -2   0  -5  701.43   48.40
  -2   0  -5  774.32   46.50
   2   0   5  749.53   44.70
   2   0   5  694.73   44.30
  -3   0  -5  244.08   18.50
  -3   0  -5  225.18   16.70
  -3   0  -5  233.18   24.30
  -3   0  -5  256.57   19.30
  -3   0  -5  243.98   17.40
   3   0   5  262.27   17.00
   3   0   5  250.27   16.60
  -4   0  -5  129.19    9.80
  -4   0  -5  133.59    8.10
  -4   0  -5  112.99   11.70
  -4   0  -5  110.59   17.60
  -4   0  -5  104.99   11.40
  -4   0  -5  141.99    8.50
   4   0   5  122.59    9.50
  -5   0  -5   66.09    5.90
  -5   0  -5   50.69    4.00
  -5   0  -5   56.59    4.50
   6  -1  -5    7.20    1.30
   6  -1  -5    5.90    1.40
  -6   1   5    7.90    2.20
  -6   1   5    3.70    1.40
   5  -1  -5  131.29   11.50
  -5   1   5  138.39   10.00
  -5   1   5  105.99   11.70
  -5   1   5  136.59    9.00
  -5   1   5  133.59    8.80
   4  -1  -5  104.19    9.40
   4  -1  -5  109.79    9.30
  -4   1   5   90.69    7.50
  -4   1   5   93.09    9.70
  -4   1   5   98.49    9.70
  -4   1   5  101.49    8.10
   3  -1  -5  112.79    9.90
   3  -1  -5  127.29    9.80
  -3   1   5  104.19   10.40
  -3   1   5  120.59   10.40
   2  -1  -5 1015.40   57.39
  -2   1   5  792.62   57.69
   1  -1  -5    6.60    2.40
   1  -1  -5    6.60    3.40
  -1   1   5   10.00    2.40
   0  -1  -5  498.35   34.30
   0  -1  -5  465.45   31.40
   0  -1  -5  445.96   32.70
   0  -1  -5  456.35   29.50
   0   1   5  472.85   29.70
  -1  -1  -5  637.74   45.30
  -1  -1  -5  636.74   41.70
  -1  -1  -5  691.43   43.60
  -1  -1  -5  674.03   40.90
   1   1   5  616.84   41.10
  -2  -1  -5    9.20    2.20
  -2  -1  -5    7.00    4.50
  -2  -1  -5    6.10    2.80
  -2  -1  -5    9.20    3.50
  -2  -1  -5    7.30    3.90
  -2  -1  -5    5.40    2.70
  -2  -1  -5    2.80    5.50
   2   1   5    9.00    2.30
  -3  -1  -5  558.64   33.80
  -3  -1  -5  543.25   36.00
  -3  -1  -5  505.55   35.50
  -3  -1  -5  494.35   40.60
  -3  -1  -5  479.85   35.00
   3   1   5  564.74   34.60
  -4  -1  -5    2.50    2.00
  -4  -1  -5    2.40    5.80
  -4  -1  -5    3.40    3.30
  -4  -1  -5    1.60    0.90
  -4  -1  -5    2.70    3.00
  -5  -1  -5    5.90    1.00
  -5  -1  -5    5.70    1.30
  -5  -1  -5   11.60    2.50
  -5  -1  -5    2.20    2.90
   6  -2  -5   56.39    3.80
  -6   2   5   46.10    4.40
   5  -2  -5   13.80    3.80
   5  -2  -5   11.30    1.80
   5  -2  -5   14.60    1.90
  -5   2   5   13.00    2.60
  -5   2   5    6.50    3.60
  -5   2   5    8.40    1.60
   4  -2  -5  253.67   19.60
   4  -2  -5  303.37   19.50
  -4   2   5  256.37   16.90
  -4   2   5  264.07   17.60
  -4   2   5  308.37   21.40
  -4   2   5  260.47   17.90
  -4   2   5  235.78   16.90
   3  -2  -5  249.08   19.10
  -3   2   5  246.18   17.30
  -3   2   5  301.27   20.90
   2  -2  -5  200.98   14.10
  -2   2   5  196.48   16.20
   1  -2  -5 1291.37   86.39
   1  -2  -5 1339.67   85.69
  -1   2   5 1396.96   84.09
   0  -2  -5  131.69   10.10
   0  -2  -5  128.29   12.70
   0  -2  -5  151.98   10.00
   0  -2  -5  132.49   13.70
   0  -2  -5  141.09   12.40
   0   2   5  139.89   10.00
  -1  -2  -5  272.77   20.40
  -1  -2  -5  247.18   16.30
  -1  -2  -5  231.98   16.90
  -1  -2  -5  216.88   19.10
  -1  -2  -5  254.37   19.80
   1   2   5  229.48   16.40
  -2  -2  -5  389.66   27.20
  -2  -2  -5  330.97   25.10
  -2  -2  -5  361.96   23.30
  -2  -2  -5  372.26   24.90
   2   2   5  322.27   23.70
  -3  -2  -5   10.20    3.90
  -3  -2  -5   24.80    5.80
  -3  -2  -5   21.10    3.80
  -3  -2  -5   19.00    6.40
  -3  -2  -5   18.50    4.50
  -3  -2  -5   19.80    3.00
   3   2   5   19.80    3.60
  -4  -2  -5   75.59    8.80
  -4  -2  -5   76.99   12.90
  -4  -2  -5  100.39    7.50
  -4  -2  -5   76.29    5.50
  -5  -2  -5   22.80    1.80
  -5  -2  -5   22.90    2.20
   6  -3  -5   43.10    3.10
   5  -3  -5   60.99    4.50
   5  -3  -5   58.79    4.30
  -5   3   5   54.09    4.90
   4  -3  -5    0.30    0.80
   4  -3  -5    1.20    1.70
   4  -3  -5    1.50    1.10
   4  -3  -5    1.00    0.80
  -4   3   5   -2.80    2.60
  -4   3   5   -1.10    1.50
  -4   3   5    0.10    1.50
   3  -3  -5  431.96   26.30
   3  -3  -5  403.06   26.40
   3  -3  -5  405.26   28.20
  -3   3   5  427.86   30.90
  -3   3   5  436.16   27.40
   2  -3  -5  272.67   22.00
  -2   3   5  275.97   21.70
   1  -3  -5  263.87   20.50
   1  -3  -5  223.58   18.70
  -1   3   5  249.28   17.70
   0  -3  -5  664.73   45.70
   0  -3  -5  662.23   40.00
   0  -3  -5  626.64   44.00
   0  -3  -5  619.94   40.40
   0  -3  -5  533.95   44.00
   0   3   5  664.43   40.30
  -1  -3  -5   95.39   11.00
  -1  -3  -5   83.69    7.80
  -1  -3  -5   90.99    7.60
  -1  -3  -5   82.39    9.50
   1   3   5   85.29    7.30
  -2  -3  -5  108.89   11.30
  -2  -3  -5  103.79    8.60
  -2  -3  -5  110.29    9.80
  -2  -3  -5  105.99    7.80
  -2  -3  -5  105.19    8.40
   2   3   5   98.79    8.60
  -3  -3  -5  198.48   13.90
  -3  -3  -5  222.58   18.80
  -3  -3  -5  202.68   15.80
  -3  -3  -5  195.78   18.70
  -3  -3  -5  209.48   13.50
  -4  -3  -5    0.30    0.60
  -4  -3  -5   -0.20    1.30
  -5  -3  -5   15.60    1.20
   5  -4  -5   46.30    3.30
   5  -4  -5   44.40    3.50
   4  -4  -5  188.08   12.40
   4  -4  -5  186.08   12.10
  -4   4   5  182.58   13.10
  -4   4   5  194.98   16.20
   3  -4  -5    1.40    1.10
   3  -4  -5    0.70    1.90
   3  -4  -5    0.90    0.90
  -3   4   5   -0.50    1.80
   2  -4  -5  367.66   24.00
   2  -4  -5  413.86   24.30
  -2   4   5  367.86   28.10
   1  -4  -5  300.67   17.10
  -1   4   5  236.18   19.30
   0  -4  -5   66.49    5.80
   0  -4  -5   51.59    9.80
   0  -4  -5   61.39    6.00
   0  -4  -5   60.19    6.60
   0   4   5   64.89    6.20
  -1  -4  -5  388.96   31.10
  -1  -4  -5  397.26   24.80
  -1  -4  -5  451.15   26.30
  -1  -4  -5  375.56   27.20
  -1  -4  -5  400.46   26.70
  -1  -4  -5  453.45   25.40
  -1  -4  -5  378.76   25.70
   1   4   5  385.86   26.70
  -2  -4  -5   65.29    6.90
  -2  -4  -5   59.49    4.00
  -2  -4  -5   53.99    8.10
  -2  -4  -5   63.39    4.70
  -2  -4  -5   52.99    5.90
  -2  -4  -5   54.89    5.20
  -3  -4  -5   47.40    4.70
  -3  -4  -5   55.39    3.50
  -3  -4  -5   56.09    7.80
  -3  -4  -5   45.90    4.00
  -4  -4  -5   50.69    3.10
  -4  -4  -5   42.40    4.10
   5  -5  -5   10.00    1.30
   4  -5  -5   24.60    2.30
   4  -5  -5   26.20    2.50
   4  -5  -5   24.50    2.30
  -4   5   5   20.60    4.40
  -4   5   5   21.20    3.10
   3  -5  -5  187.28   12.50
   3  -5  -5  188.88   12.50
  -3   5   5  218.88   16.80
   2  -5  -5    7.60    1.60
   2  -5  -5    5.20    1.30
   2  -5  -5    9.80    1.30
   1  -5  -5  214.48   13.10
   1  -5  -5  179.08   12.10
   1  -5  -5  188.48   12.40
   0  -5  -5  155.98   10.50
   0  -5  -5  184.68   11.00
   0  -5  -5  169.08   12.50
   0  -5  -5  169.18   18.20
   0  -5  -5  160.48   10.60
   0  -5  -5  190.38   11.80
   0  -5  -5  151.28   11.30
  -1  -5  -5    4.10    1.80
  -1  -5  -5    3.30    1.50
  -1  -5  -5    5.90    3.10
  -1  -5  -5    2.80    3.60
  -1  -5  -5    2.90    1.30
  -1  -5  -5    4.60    0.80
  -1  -5  -5    3.80    2.20
  -1  -5  -5    4.60    1.00
  -2  -5  -5  180.18   12.70
  -2  -5  -5  175.68   15.60
  -2  -5  -5  190.98   11.70
  -2  -5  -5  174.68   12.10
  -2  -5  -5  212.78   12.20
  -3  -5  -5   11.30    2.00
  -3  -5  -5   10.90    1.00
  -3  -5  -5    8.10    1.30
   4  -6  -5   17.80    1.50
  -4   6   5   13.80    3.20
  -4   6   5   15.20    1.80
   3  -6  -5   16.90    1.90
  -3   6   5   11.80    2.70
   2  -6  -5  152.78    9.90
   1  -6  -5   18.80    2.10
   1  -6  -5   17.10    1.70
   1  -6  -5   19.70    2.60
   0  -6  -5   66.69    4.60
   0  -6  -5   62.59    4.40
   0  -6  -5   61.39    4.20
   0  -6  -5   69.19    5.20
  -1  -6  -5  113.29    7.10
  -1  -6  -5  112.39    7.00
  -1  -6  -5  110.29    7.30
  -1  -6  -5  107.09   14.60
  -1  -6  -5  105.09    7.70
  -2  -6  -5    0.80    0.60
  -2  -6  -5    0.20    0.70
  -2  -6  -5    0.20    0.40
  -2  -6  -5   -0.10    0.50
   3  -7  -5   19.20    1.60
   2  -7  -5   13.50    1.50
   1  -7  -5   65.89    4.80
   1  -7  -5   67.89    4.60
   0  -7  -5   12.20    1.20
   0  -7  -5   10.30    1.50
   0  -7  -5   13.30    1.30
  -1  -7  -5   19.30    1.60
  -1  -7  -5   21.10    1.50
  -1  -7  -5   18.10    1.80
  -1  -7  -5   22.00    1.70
  -1  -9   6    3.60    0.80
  -1  -9   6    3.20    0.60
  -1  -9   6    3.20    0.70
   0  -9   6   13.30    1.50
   0  -9   6    9.40    1.90
   0  -9   6   11.30    1.20
   0  -9   6   14.00    1.70
   0  -9   6   11.90    1.40
   0  -9   6   12.40    1.40
  -1   9  -6   24.40    2.20
  -1   9  -6   28.00    3.40
   1  -9   6   22.80    1.90
   1  -9   6   23.20    2.00
  -2  -8   6    3.00    0.60
  -2  -8   6    3.10    1.20
  -2  -8   6    2.70    0.80
  -2  -8   6    2.40    0.90
  -2  -8   6    1.60    1.10
  -2  -8   6    2.10    1.10
   1   8  -6   87.99    6.90
  -1  -8   6   86.99    5.70
  -1  -8   6   89.09    6.20
  -1  -8   6   85.89    5.90
  -1  -8   6   85.09    6.30
  -1  -8   6   87.89    6.50
  -1  -8   6   93.09    6.10
  -1  -8   6   80.59    5.90
   0   8  -6   28.60    4.10
   0  -8   6   31.50    3.20
   0  -8   6   28.70    2.60
   0  -8   6   28.60    2.80
   0  -8   6   28.90    2.60
   0  -8   6   26.20    2.50
   0  -8   6   24.60    2.60
   0  -8   6   27.30    2.20
  -1   8  -6   29.30    4.10
   1  -8   6   27.50    3.00
   1  -8   6   29.20    2.60
   1  -8   6   32.90    2.90
   1  -8   6   27.30    2.60
  -2   8  -6   44.10    4.70
   2  -8   6   38.90    3.30
   2  -8   6   37.70    3.40
  -3   8  -6    2.20    1.30
   3  -8   6    1.10    0.70
  -3  -7   6   33.40    2.90
  -3  -7   6   33.40    2.30
  -3  -7   6   30.00    2.90
  -3  -7   6   26.90    3.10
  -3  -7   6   37.60    3.60
  -2  -7   6  225.18   14.50
  -2  -7   6  217.08   13.50
  -2  -7   6  225.78   14.10
  -2  -7   6  233.58   14.30
  -2  -7   6  196.78   17.50
  -2  -7   6  212.58   13.80
  -2  -7   6  213.98   14.30
  -1  -7   6   13.40    1.80
  -1  -7   6   13.40    2.40
  -1  -7   6   12.60    1.90
  -1  -7   6   11.40    1.70
  -1  -7   6   13.70    1.60
  -1  -7   6   11.50    1.30
  -1  -7   6   11.30    4.80
  -1  -7   6   11.90    1.80
   0   7  -6  151.78   10.90
   0  -7   6  169.38   10.40
   0  -7   6  147.69    9.60
   0  -7   6  168.28   10.00
   0  -7   6  161.28   10.60
   0  -7   6  150.18    9.90
   0  -7   6  153.98   10.20
   0  -7   6  130.99   11.60
   0  -7   6  146.09    9.80
   0  -7   6  124.29   14.00
  -1   7  -6   28.70    4.40
   1  -7   6   32.00    3.00
   1  -7   6   33.60    3.30
   1  -7   6   34.40    3.40
   1  -7   6   33.80    3.00
   1  -7   6   31.00    4.40
  -2   7  -6   13.50    3.00
   2  -7   6   15.90    2.30
   2  -7   6   16.30    2.30
  -3   7  -6   42.30    6.30
  -3   7  -6   35.60    3.40
  -3   7  -6   43.40    4.40
   3  -7   6   33.70    2.40
   3  -7   6   35.90    3.30
   3  -7   6   37.80    3.20
  -4   7  -6    4.40    0.80
  -4  -6   6  116.09    8.80
  -4  -6   6  146.89    9.20
  -4  -6   6  119.39    7.80
  -3  -6   6    2.00    1.50
  -3  -6   6    1.90    2.70
  -3  -6   6    1.90    0.60
  -3  -6   6    1.60    1.50
  -3  -6   6    0.60    1.20
  -3  -6   6    0.90    0.90
  -2  -6   6   87.39    8.70
  -2  -6   6   81.59    6.40
  -2  -6   6   85.69    6.20
  -2  -6   6   83.39    6.20
  -2  -6   6   81.19   10.40
  -2  -6   6   79.39    5.40
  -2  -6   6   86.09    6.00
  -1  -6   6  246.98   15.90
  -1  -6   6  256.27   18.90
  -1  -6   6  265.67   16.50
  -1  -6   6  205.78   17.60
  -1  -6   6  241.98   16.10
  -1  -6   6  235.98   20.80
  -1  -6   6  251.17   15.50
  -1  -6   6  261.77   15.80
  -1  -6   6  270.17   16.20
   0  -6   6    6.50    1.10
   0  -6   6    4.30    2.40
   0  -6   6    4.70    1.20
   0  -6   6    5.40    3.40
   0  -6   6    7.20    1.60
   0  -6   6    7.50    2.90
   0  -6   6    4.20    0.90
   0  -6   6    9.00    1.70
   0  -6   6    6.10    0.90
   0  -6   6    6.40    1.10
   1  -6   6  278.67   17.90
   1  -6   6  295.57   18.30
   1  -6   6  305.87   18.00
   1  -6   6  276.77   19.30
   1  -6   6  273.77   20.30
   1  -6   6  270.27   18.30
  -2   6  -6   72.59    6.90
   2  -6   6   71.19    5.50
   2  -6   6   73.39    5.60
   2  -6   6   61.89    6.40
   2  -6   6   79.59    5.10
  -3   6  -6    0.20    2.40
  -3   6  -6    1.40    1.20
  -3   6  -6    1.50    1.80
   3  -6   6    2.30    0.90
   3  -6   6    1.90    1.30
   3  -6   6    0.80    1.00
  -4   6  -6   63.49    4.40
   4  -6   6   63.29    4.70
   4  -6   6   60.49    4.40
  -5  -5   6   18.70    1.40
  -4  -5   6   47.20    4.70
  -4  -5   6   35.50    5.80
  -4  -5   6   45.00    4.40
  -4  -5   6   41.20    2.80
  -3  -5   6   54.09    7.20
  -3  -5   6   58.19    4.00
  -3  -5   6   59.69    5.00
  -3  -5   6   59.39    4.80
  -3  -5   6   59.99    5.30
  -3  -5   6   66.39    9.20
  -3  -5   6   66.99    5.50
  -2  -5   6  186.18   15.40
  -2  -5   6  184.88   12.80
  -2  -5   6  220.78   18.60
  -2  -5   6  208.78   13.10
  -2  -5   6  185.28   12.60
  -2  -5   6  185.08   12.80
  -1  -5   6  175.48   14.40
  -1  -5   6  217.58   15.80
  -1  -5   6  178.28   17.60
  -1  -5   6  197.58   13.40
  -1  -5   6  241.18   16.20
   0  -5   6  410.06   27.00
   0  -5   6  378.46   25.90
   0  -5   6  409.96   24.90
   0  -5   6  368.16   29.80
   1  -5   6    0.70    1.10
   1  -5   6   -1.10    1.60
   1  -5   6    1.30    1.40
   1  -5   6    0.70    0.80
   1  -5   6    0.30    0.50
   1  -5   6    0.50    1.30
  -2   5  -6  198.68   14.20
   2  -5   6  197.48   13.40
   2  -5   6  209.48   13.00
   2  -5   6  203.28   14.00
   2  -5   6  194.18   14.10
  -3   5  -6   38.00    6.00
  -3   5  -6   45.90    4.80
  -3   5  -6   38.10    3.80
   3  -5   6   31.20    4.00
   3  -5   6   35.40    3.60
   3  -5   6   33.70    4.10
   3  -5   6   39.60    3.30
  -4   5  -6    1.40    0.90
  -4   5  -6   -0.10    2.20
   4  -5   6    2.30    1.40
   5  -5   6   16.90    2.50
  -5  -4   6  118.49    7.60
  -5  -4   6  110.09    8.80
  -5  -4   6  124.59    9.00
  -4  -4   6  337.57   25.20
  -4  -4   6  285.07   18.90
  -4  -4   6  263.27   18.10
  -4  -4   6  295.07   19.00
  -4  -4   6  264.07   21.00
  -4  -4   6  266.97   17.40
  -3  -4   6  109.79   10.50
  -3  -4   6  106.19   10.40
  -3  -4   6  114.29   11.70
  -3  -4   6  112.99    7.60
  -3  -4   6  106.49    8.00
  -3  -4   6   94.69    6.90
  -3  -4   6  112.09    8.00
  -2  -4   6  556.34   36.60
  -2  -4   6  577.14   39.10
  -2  -4   6  622.54   41.20
  -1  -4   6   89.59    9.90
  -1  -4   6   73.69    7.30
  -1  -4   6   75.69    7.90
   0   4  -6   66.49    8.70
   0  -4   6   63.09    9.40
   0  -4   6   62.09    6.10
   0  -4   6   78.99    6.10
   0  -4   6   69.39    6.40
  -1   4  -6  477.55   37.10
   1  -4   6  534.15   32.40
   2  -4   6    7.90    1.80
   2  -4   6    7.40    2.10
  -3   4  -6   57.69    6.80
  -3   4  -6   56.09    5.30
  -3   4  -6   61.99    4.90
  -3   4  -6   58.79    4.70
   3  -4   6   54.49    4.80
   3  -4   6   50.29    5.60
  -4   4  -6  107.09    9.00
  -4   4  -6  112.89    6.80
   4  -4   6   96.19    7.60
  -5   4  -6    4.10    1.80
   5  -4   6    5.40    1.40
  -6  -3   6   68.59    4.50
  -5  -3   6   15.90    3.20
  -5  -3   6   11.50    3.80
  -5  -3   6   10.20    1.50
  -5  -3   6    9.50    2.70
   4   3  -6  308.37   23.90
  -4  -3   6  312.27   20.80
  -4  -3   6  371.86   25.70
  -4  -3   6  326.47   21.80
  -4  -3   6  340.27   21.80
  -4  -3   6  330.97   20.40
  -4  -3   6  327.17   25.00
  -3  -3   6  368.56   21.80
  -3  -3   6  329.47   24.30
  -3  -3   6  336.47   24.80
  -3  -3   6  303.37   26.60
   2   3  -6    0.30    2.60
  -2  -3   6    1.30    2.20
  -2  -3   6    5.50    3.50
  -2  -3   6    2.70    2.00
  -1  -3   6 1371.86   82.59
  -1  -3   6 1238.98   79.29
  -1  -3   6 1187.18   79.29
   0   3  -6  348.27   27.90
   0  -3   6  385.86   24.50
   0  -3   6  372.16   23.70
  -1   3  -6   84.29   10.40
   1  -3   6   76.49    6.20
   2  -3   6  467.35   30.30
  -3   3  -6   10.00    1.70
  -3   3  -6   10.90    2.10
   3  -3   6   13.10    2.40
   3  -3   6   11.90    2.90
  -4   3  -6   83.29    7.30
   4  -3   6   74.39    7.20
   4  -3   6   82.79    6.30
  -5   3  -6    4.50    1.90
   5  -3   6    4.20    1.30
  -6  -2   6   20.30    2.70
  -6  -2   6   17.50    2.20
  -6  -2   6   23.80    2.40
   5   2  -6  151.18   13.00
  -5  -2   6  130.59   13.20
  -5  -2   6  184.58   12.00
  -5  -2   6  130.39   15.50
  -5  -2   6  178.68   11.70
  -5  -2   6  180.98   10.30
   4   2  -6   28.80    5.50
  -4  -2   6   33.70    6.10
  -4  -2   6   38.30    4.10
  -4  -2   6   34.60    4.10
  -4  -2   6   28.90    8.00
  -4  -2   6   39.70    7.80
  -4  -2   6   36.50    2.60
  -4  -2   6   31.90    3.00
   3   2  -6  383.66   28.00
  -3  -2   6  465.35   26.70
  -3  -2   6  486.45   29.60
  -3  -2   6  369.46   31.50
  -3  -2   6  375.76   28.50
   2   2  -6 1140.49   81.39
  -2  -2   6 1180.98   78.69
  -2  -2   6 1193.28   81.59
  -2  -2   6 1411.66   78.19
   1   2  -6   95.09   11.50
  -1  -2   6  102.19    8.20
  -1  -2   6  100.79    8.10
   0   2  -6 1245.98   80.49
   0  -2   6 1188.28   74.99
  -1   2  -6  413.96   30.10
   1  -2   6  449.46   27.70
  -2   2  -6   31.10    6.70
   2  -2   6   46.30    4.50
  -3   2  -6  231.58   17.30
  -3   2  -6  263.77   16.00
   3  -2   6  264.87   18.00
   3  -2   6  258.37   16.60
  -4   2  -6   68.19    5.50
  -4   2  -6   74.59    6.70
  -4   2  -6   54.09   11.40
  -4   2  -6   88.59    9.80
   4  -2   6   76.89    5.70
   4  -2   6   73.99    6.90
  -5   2  -6   27.60    2.40
  -6  -1   6   43.50    3.50
  -6  -1   6   41.80    4.00
  -6  -1   6   46.30    3.60
   5   1  -6   27.50    5.20
  -5  -1   6   28.30    3.70
  -5  -1   6   27.10    3.90
  -5  -1   6   23.10    5.30
  -5  -1   6   25.30    2.50
  -5  -1   6   16.10    6.00
  -5  -1   6   28.60    2.90
   4   1  -6  219.08   16.50
   4   1  -6  228.68   16.60
   4   1  -6  212.98   13.70
  -4  -1   6  202.18   16.80
  -4  -1   6  210.28   14.50
  -4  -1   6  217.08   14.60
  -4  -1   6  207.88   13.40
  -4  -1   6  181.38   19.10
  -4  -1   6  249.48   19.00
  -4  -1   6  215.68   13.80
   3   1  -6  125.19   10.30
   3   1  -6  106.09   10.00
  -3  -1   6  136.89   11.90
  -3  -1   6  116.99   13.00
  -3  -1   6  105.29   10.50
  -3  -1   6  139.99    8.80
  -3  -1   6  127.09   11.00
   2   1  -6  221.88   19.20
  -2  -1   6  263.77   18.50
  -2  -1   6  200.88   20.20
  -2  -1   6  271.87   17.50
   1   1  -6 1019.80   67.79
  -1  -1   6 1081.79   65.69
   0   1  -6    9.30    3.00
   0   1  -6   12.10    4.10
   0  -1   6    9.50    1.60
  -1   1  -6  406.16   25.10
  -1   1  -6  311.77   28.60
   1  -1   6  345.27   22.90
  -2   1  -6  198.18   18.50
  -2   1  -6  214.68   22.40
   2  -1   6  256.67   15.90
  -3   1  -6    4.90    4.00
  -3   1  -6    4.80    2.00
  -3   1  -6    7.60    4.70
   3  -1   6    8.20    2.30
  -4   1  -6  223.08   13.70
  -4   1  -6  220.38   14.50
  -4   1  -6  201.08   13.20
  -4   1  -6  195.18   17.40
   4  -1   6  199.28   14.80
  -5   1  -6    2.50    1.60
  -5   1  -6    1.90    1.00
   6   0  -6  108.99    6.80
  -6   0   6  106.69    6.90
  -6   0   6   93.89    6.70
  -6   0   6  101.09    7.30
   5   0  -6  120.39   11.40
  -5   0   6  145.59    8.90
  -5   0   6  102.89   13.50
  -5   0   6  136.29    8.60
  -5   0   6  143.29    9.90
  -5   0   6  135.29    9.60
   4   0  -6   44.10    6.20
   4   0  -6   50.19    3.60
   4   0  -6   55.29    5.80
  -4   0   6   60.89    8.40
  -4   0   6   42.10    4.20
  -4   0   6   37.20    3.30
  -4   0   6   39.20    6.70
  -4   0   6   38.00    4.40
  -4   0   6   52.19    6.40
  -4   0   6   50.19    3.90
  -4   0   6   45.60    3.60
  -4   0   6   37.10    8.20
   3   0  -6  543.35   37.60
   3   0  -6  679.83   37.80
  -3   0   6  490.75   38.20
  -3   0   6  619.34   37.90
  -3   0   6  597.14   35.90
  -3   0   6  488.75   40.70
   2   0  -6  371.16   24.20
   2   0  -6  313.37   25.80
  -2   0   6  353.46   24.90
  -2   0   6  403.26   24.90
   1   0  -6  321.07   23.00
   1   0  -6  290.17   21.40
  -1   0   6  332.77   20.00
  -1   0   6  273.27   20.70
   0   0  -6 1175.08   74.39
   0   0  -6 1141.69   72.39
   0   0   6 1108.69   70.39
  -1   0  -6   26.10    8.20
  -1   0  -6   34.80    4.70
  -1   0  -6   26.10    6.30
   1   0   6   32.90    3.30
  -2   0  -6  144.99   17.40
  -2   0  -6  131.39   18.60
  -2   0  -6  188.88   13.40
  -2   0  -6  139.39   12.40
  -2   0  -6  183.58   16.30
   2   0   6  180.18   12.10
  -3   0  -6  134.19   16.30
  -3   0  -6  148.99    9.70
  -3   0  -6  140.69   10.30
  -3   0  -6  144.09   12.50
  -3   0  -6  119.09   11.40
   3   0   6  145.09   10.90
  -4   0  -6    1.10    1.60
  -4   0  -6   -0.20    1.30
  -4   0  -6   -2.20    3.80
  -4   0  -6   -0.30    1.20
  -4   0  -6    2.30    1.00
  -4   0  -6    1.20    4.70
  -5   0  -6   29.70    2.40
  -5   0  -6   32.70    2.80
   6  -1  -6    0.90    0.60
  -6   1   6    0.40    1.00
   5  -1  -6  141.29   12.40
  -5   1   6  146.29    9.50
  -5   1   6  149.09   10.20
   4  -1  -6  143.59   13.00
   4  -1  -6  173.28   10.20
   4  -1  -6  167.48   12.40
  -4   1   6  165.68   10.50
  -4   1   6  154.88   10.20
  -4   1   6  155.48   10.80
  -4   1   6  161.08   11.10
  -4   1   6  125.69   13.00
   3  -1  -6    5.10    2.80
   3  -1  -6    6.70    2.20
  -3   1   6    3.10    1.60
  -3   1   6    3.10    2.40
  -3   1   6    3.50    3.20
   2  -1  -6 1007.70   68.89
   2  -1  -6 1064.99   68.29
  -2   1   6 1144.09   68.19
   1  -1  -6  440.06   31.70
   1  -1  -6  496.55   33.70
  -1   1   6  490.25   30.50
   0  -1  -6  387.96   28.00
   0  -1  -6  356.66   25.50
   0   1   6  364.16   23.70
  -1  -1  -6  542.45   46.00
  -1  -1  -6  639.04   40.20
  -1  -1  -6  654.23   43.80
  -1  -1  -6  633.34   41.90
  -1  -1  -6  646.84   45.40
   1   1   6  630.74   39.70
  -2  -1  -6   56.99    8.00
  -2  -1  -6   43.40    4.70
  -2  -1  -6   45.90    5.70
  -2  -1  -6   27.10    9.80
   2   1   6   40.30    4.60
  -3  -1  -6   87.49    6.20
  -3  -1  -6   85.29    6.80
  -3  -1  -6   96.99   12.10
  -3  -1  -6   85.89    8.60
  -3  -1  -6   72.29    5.90
  -3  -1  -6   63.19    5.40
   3   1   6   76.49    7.30
  -4  -1  -6   51.19    4.50
  -4  -1  -6   67.69    5.10
  -4  -1  -6   59.39   10.60
  -4  -1  -6   68.19    5.50
  -4  -1  -6   48.60    4.10
  -5  -1  -6    0.40    0.70
  -5  -1  -6    0.10    1.20
  -5  -1  -6    0.50    0.50
   6  -2  -6   85.09    5.60
  -6   2   6   84.99    5.80
   5  -2  -6    3.70    3.50
   5  -2  -6    5.90    1.30
   5  -2  -6    6.30    1.10
  -5   2   6    5.70    1.70
   4  -2  -6  178.28   11.30
   4  -2  -6  177.58   14.10
   4  -2  -6  167.18   12.80
   4  -2  -6  172.38   11.00
  -4   2   6  170.98   11.50
  -4   2   6  144.79   11.20
  -4   2   6  170.88   11.50
  -4   2   6  177.88   10.80
   3  -2  -6  524.75   34.50
   3  -2  -6  596.34   36.20
   3  -2  -6  511.35   32.60
  -3   2   6  479.65   36.30
  -3   2   6  527.25   33.80
   2  -2  -6   14.90    3.10
   2  -2  -6   18.30    5.30
  -2   2   6   14.80    3.60
   1  -2  -6 1064.09   66.89
   1  -2  -6  941.41   65.09
   1  -2  -6  964.30   63.49
  -1   2   6 1085.69   63.69
   0  -2  -6  449.36   32.60
   0  -2  -6  390.56   28.90
   0  -2  -6  441.06   28.00
   0   2   6  468.15   28.30
  -1  -2  -6  106.09   13.70
  -1  -2  -6   96.69   10.80
  -1  -2  -6  109.39    8.30
  -1  -2  -6  114.49   11.20
  -1  -2  -6  107.19    8.90
   1   2   6  114.19    8.50
  -2  -2  -6  433.36   29.20
  -2  -2  -6  431.46   27.60
  -2  -2  -6  478.45   32.00
  -2  -2  -6  428.66   27.70
   2   2   6  391.66   28.20
  -3  -2  -6   44.40    4.60
  -3  -2  -6   45.20    5.90
  -3  -2  -6   41.70    4.00
  -3  -2  -6   40.00    3.40
  -3  -2  -6   32.70    3.50
  -3  -2  -6   36.70    3.10
  -3  -2  -6   54.79    8.40
  -4  -2  -6   45.50    9.80
  -4  -2  -6   33.60    3.30
  -4  -2  -6   39.80    2.90
  -4  -2  -6   42.50    4.30
  -4  -2  -6   45.50    4.00
  -5  -2  -6   22.90    1.60
  -5  -2  -6   23.90    1.80
   5  -3  -6   80.19    5.60
   5  -3  -6   79.39    5.40
  -5   3   6   80.59    5.80
   4  -3  -6   34.00    3.00
   4  -3  -6   30.30    2.80
  -4   3   6   31.40    5.30
  -4   3   6   36.60    3.40
   3  -3  -6   97.59    6.60
  -3   3   6   95.49    8.10
  -3   3   6   93.99   10.60
   2  -3  -6  455.85   35.80
   2  -3  -6  442.06   27.80
   2  -3  -6  428.96   27.60
  -2   3   6  449.56   30.40
   1  -3  -6    2.30    2.70
  -1   3   6    2.90    1.80
   0  -3  -6  415.26   31.70
   0  -3  -6  396.16   27.10
   0  -3  -6  398.76   26.70
   0   3   6  437.06   27.10
  -1  -3  -6  206.48   17.90
  -1  -3  -6  196.68   13.50
  -1  -3  -6  200.98   14.90
  -1  -3  -6  218.28   18.30
  -1  -3  -6  191.88   14.20
   1   3   6  208.08   14.50
  -2  -3  -6   17.10    4.00
  -2  -3  -6   16.50    1.60
  -2  -3  -6   13.10    2.00
  -2  -3  -6   14.90    2.60
  -2  -3  -6   12.00    2.00
  -2  -3  -6   16.70    5.00
  -2  -3  -6   15.60    1.80
  -3  -3  -6  217.98   17.10
  -3  -3  -6  195.38   13.00
  -3  -3  -6  205.08   12.10
  -3  -3  -6  184.48   12.40
  -3  -3  -6  170.78   12.30
  -4  -3  -6    6.50    0.80
  -4  -3  -6    5.10    0.90
  -4  -3  -6    5.20    1.40
   5  -4  -6   19.90    1.80
   4  -4  -6  141.49    9.70
   4  -4  -6  140.79    9.50
   4  -4  -6  160.18    9.90
  -4   4   6  147.79   11.30
  -4   4   6  147.29    9.80
   3  -4  -6   48.20    3.70
   3  -4  -6   47.90    3.60
  -3   4   6   39.40    4.90
   2  -4  -6   56.89    4.40
   2  -4  -6   61.79    4.70
   2  -4  -6   58.49    4.40
   1  -4  -6  384.96   23.30
   1  -4  -6  387.46   23.70
   1  -4  -6  383.36   23.10
   1  -4  -6  334.27   22.90
  -1   4   6  373.96   25.20
   0  -4  -6   27.30    3.90
   0  -4  -6   30.00    4.60
   0  -4  -6   34.20    2.70
   0  -4  -6   31.60    2.40
   0  -4  -6   29.60    3.10
   0   4   6   25.20    3.70
  -1  -4  -6  124.49    8.10
  -1  -4  -6  125.09   13.30
  -1  -4  -6  124.09    8.80
  -1  -4  -6  123.29    9.60
  -1  -4  -6  119.69   13.00
  -1  -4  -6  133.09    8.40
  -1  -4  -6  120.49    8.80
  -1  -4  -6  130.69    8.00
  -1  -4  -6  129.39   10.40
  -2  -4  -6  143.89   13.10
  -2  -4  -6  133.59    9.70
  -2  -4  -6  136.49    9.00
  -2  -4  -6  136.89    9.20
  -2  -4  -6  149.29    8.80
  -3  -4  -6   -0.70    0.70
  -3  -4  -6   -0.30    1.10
  -3  -4  -6    0.40    0.70
  -3  -4  -6    0.00    0.50
  -4  -4  -6   30.90    1.90
  -4  -4  -6   27.50    2.10
   4  -5  -6    0.00    0.50
   4  -5  -6    0.10    0.60
  -4   5   6    0.30    1.20
  -4   5   6    0.20    0.80
   3  -5  -6  161.98    9.80
   3  -5  -6  162.88    9.90
  -3   5   6  127.89   10.50
   2  -5  -6   60.69    4.50
   2  -5  -6   63.69    4.10
   2  -5  -6   59.99    4.70
   1  -5  -6   52.49    3.80
   1  -5  -6   57.79    4.10
   1  -5  -6   57.49    4.50
   0  -5  -6  168.58   10.90
   0  -5  -6  177.18   11.60
   0  -5  -6  175.68   11.10
  -1  -5  -6   21.00    2.70
  -1  -5  -6   22.50    2.00
  -1  -5  -6   23.20    2.20
  -1  -5  -6   25.90    6.00
  -1  -5  -6   25.50    1.90
  -1  -5  -6   23.70    3.00
  -2  -5  -6   44.90    3.50
  -2  -5  -6   47.90    3.20
  -2  -5  -6   49.00    4.20
  -2  -5  -6   49.50    3.30
  -3  -5  -6   42.80    3.30
  -3  -5  -6   50.09    3.20
  -3  -5  -6   52.09    3.10
  -3   6   6    7.00    1.30
   2  -6  -6   85.59    5.50
   2  -6  -6   79.19    5.70
   1  -6  -6   47.40    3.70
   1  -6  -6   46.00    3.40
   0  -6  -6   11.80    1.70
   0  -6  -6    9.00    1.10
   0  -6  -6    9.80    1.20
  -1  -6  -6   82.79    5.20
  -1  -6  -6   78.99    5.30
  -1  -6  -6   83.99    5.30
  -1  -6  -6   77.89    5.60
  -2  -6  -6   17.50    1.60
  -2  -6  -6   20.60    1.40
  -2  -6  -6   21.10    1.60
   1  -7  -6   56.69    3.90
   0  -7  -6   19.90    2.00
   0   9  -7    4.90    1.00
   0  -9   7    5.10    0.80
   0  -9   7    4.20    0.80
   0  -9   7    4.00    0.80
   1  -9   7   27.20    2.20
   2   8  -7    1.50    1.40
  -2  -8   7    2.20    0.90
  -2  -8   7    3.20    1.10
  -2  -8   7    1.90    0.80
  -2  -8   7    2.70    0.90
  -2  -8   7    2.60    0.60
  -1  -8   7   27.80    2.90
  -1  -8   7   30.00    2.20
  -1  -8   7   30.00    2.60
  -1  -8   7   26.10    2.40
  -1  -8   7   28.40    2.60
  -1  -8   7   29.50    2.80
  -1  -8   7   29.60    2.60
   0   8  -7   52.69    5.10
   0  -8   7   51.99    3.60
   0  -8   7   48.70    3.70
   0  -8   7   46.80    4.00
   0  -8   7   54.59    4.30
   0  -8   7   52.09    3.80
   0  -8   7   50.39    3.70
   0  -8   7   52.59    3.90
  -1   8  -7    0.40    1.60
  -1   8  -7    0.70    1.10
   1  -8   7    0.70    0.90
   1  -8   7    1.30    1.10
   1  -8   7    1.80    0.80
  -2   8  -7   61.59    5.10
   2  -8   7   49.40    3.90
  -3  -7   7   40.10    3.40
  -3  -7   7   41.80    2.80
  -3  -7   7   39.30    3.30
  -3  -7   7   46.60    3.40
  -2  -7   7   35.70    3.50
  -2  -7   7   38.20    3.50
  -2  -7   7   40.80    2.80
  -2  -7   7   41.80    3.40
  -2  -7   7   40.80    3.30
  -2  -7   7   31.70    6.50
  -1  -7   7   51.49    4.00
  -1  -7   7   50.39    4.00
  -1  -7   7   60.09    4.60
  -1  -7   7   45.20    8.10
  -1  -7   7   52.29    4.20
  -1  -7   7   50.99    3.90
  -1  -7   7   54.19    3.60
  -1  -7   7   55.79    4.40
   0   7  -7   78.59    6.80
   0  -7   7   81.69    6.10
   0  -7   7   77.19    5.30
   0  -7   7   85.19    5.90
   0  -7   7   80.29    5.70
   0  -7   7   83.29    5.80
   0  -7   7   80.29    5.70
   0  -7   7   80.99    5.90
   1  -7   7  102.09    6.80
   1  -7   7   97.29    7.10
   1  -7   7   97.49    6.70
   1  -7   7  100.09    7.00
  -2   7  -7   -0.20    1.40
  -2   7  -7   -1.80    1.70
   2  -7   7    0.70    0.70
   2  -7   7    0.40    0.90
  -3   7  -7   44.70    3.70
  -3   7  -7   46.00    4.00
  -3   7  -7   36.90    3.50
  -4  -6   7   75.99    4.90
  -4  -6   7   81.29    5.20
  -4  -6   7   78.19    5.40
  -3  -6   7  152.88    8.90
  -3  -6   7  136.39    9.60
  -3  -6   7  148.39    9.40
  -3  -6   7  132.99   13.20
  -3  -6   7  138.09    9.60
  -3  -6   7  135.79    9.40
  -2  -6   7   62.59    4.80
  -2  -6   7   62.09    9.60
  -2  -6   7   63.29    4.20
  -2  -6   7   57.39    5.00
  -2  -6   7   67.09    4.80
  -2  -6   7   63.19    5.00
  -1  -6   7  246.58   15.80
  -1  -6   7  229.08   15.20
  -1  -6   7  249.78   18.20
  -1  -6   7  236.18   15.20
  -1  -6   7  250.37   15.70
  -1  -6   7  233.38   14.90
  -1  -6   7  239.68   15.30
  -1  -6   7  237.18   15.40
  -1  -6   7  237.58   21.20
   0   6  -7    9.90    2.30
   0  -6   7   12.00    1.60
   0  -6   7   10.50    2.90
   0  -6   7   13.90    1.90
   0  -6   7    6.40    2.90
   0  -6   7   11.40    1.80
   0  -6   7   12.60    1.60
   0  -6   7   12.20    1.80
   0  -6   7   12.20    1.30
  -1   6  -7   43.40    5.00
  -1   6  -7   48.30    3.90
   1  -6   7   44.10    3.50
   1  -6   7   38.80    3.50
   1  -6   7   42.80    3.50
   1  -6   7   42.80    5.20
   1  -6   7   37.90    3.60
  -2   6  -7  130.39    8.70
  -2   6  -7  135.99   10.00
   2  -6   7  125.39    8.80
   2  -6   7  110.59    9.60
   2  -6   7  125.69    8.70
   2  -6   7  130.19    8.20
   2  -6   7  129.39    8.40
  -3   6  -7    0.10    1.50
  -3   6  -7   -0.60    1.10
  -3   6  -7    0.50    2.40
  -3   6  -7    0.00    1.10
   3  -6   7    0.30    0.60
   3  -6   7    0.50    1.00
  -4   6  -7   11.20    2.30
  -4   6  -7   14.20    1.20
   4  -6   7   14.30    1.70
   4  -6   7   11.70    1.30
  -5  -5   7   73.79    4.60
  -4  -5   7    8.40    0.90
  -4  -5   7    9.50    1.80
  -4  -5   7    9.40    1.60
  -3  -5   7  192.38   17.10
  -3  -5   7  209.78   13.50
  -3  -5   7  173.48   15.50
  -3  -5   7  220.38   13.30
  -3  -5   7  192.28   13.40
  -3  -5   7  216.08   12.60
  -3  -5   7  203.28   13.30
  -2  -5   7  201.48   16.30
  -2  -5   7  213.38   16.70
  -2  -5   7  210.38   13.90
  -2  -5   7  214.28   14.30
  -2  -5   7  214.18   13.50
  -2  -5   7  234.18   19.20
  -2  -5   7  226.38   14.30
  -2  -5   7  213.98   14.00
  -1  -5   7    2.20    1.20
  -1  -5   7    1.10    1.00
  -1  -5   7    1.60    0.80
  -1  -5   7    1.10    0.90
  -1  -5   7    3.00    2.20
  -1  -5   7    2.70    3.40
  -1  -5   7    5.20    3.10
   0  -5   7  389.26   26.70
   0  -5   7  389.36   24.80
   0  -5   7  393.06   26.10
   0  -5   7  396.66   24.90
  -1   5  -7   68.79    6.70
   1  -5   7   80.29    6.50
   1  -5   7   77.79    5.80
   1  -5   7   70.89    7.00
   1  -5   7   81.59    5.20
  -2   5  -7   30.30    4.70
  -2   5  -7   33.90    3.00
   2  -5   7   29.80    2.50
   2  -5   7   28.80    3.00
   2  -5   7   29.30    4.10
   2  -5   7   28.10    3.60
   2  -5   7   27.90    2.60
  -3   5  -7  129.19    8.80
  -3   5  -7  120.19    9.00
   3  -5   7  125.89    8.40
   3  -5   7  122.99    8.70
  -4   5  -7    0.60    1.90
   4  -5   7    2.80    1.20
   4  -5   7    1.40    0.70
  -5  -4   7   37.00    3.60
  -5  -4   7   42.80    2.90
  -5  -4   7   47.50    3.60
  -4  -4   7  226.98   14.10
  -4  -4   7  210.98   13.20
  -4  -4   7  212.28   14.20
  -4  -4   7  203.38   13.60
  -4  -4   7  215.78   16.70
  -3  -4   7   12.10    4.20
  -3  -4   7    8.90    3.10
  -3  -4   7    7.00    3.40
  -3  -4   7   16.00    2.30
  -3  -4   7   15.10    2.40
  -3  -4   7   12.30    1.40
  -3  -4   7    9.00    1.60
  -3  -4   7   10.20    1.80
  -2  -4   7  358.76   23.20
  -2  -4   7  362.66   25.40
  -2  -4   7  409.06   27.90
  -2  -4   7  350.06   22.80
  -2  -4   7  352.86   23.20
  -2  -4   7  349.77   25.50
  -1  -4   7  756.02   47.30
  -1  -4   7  788.72   50.99
  -1  -4   7  711.53   47.80
  -1  -4   7  705.13   45.90
   0  -4   7   26.40    4.00
   0  -4   7   22.90    2.90
   1  -4   7  461.45   28.80
   1  -4   7  434.56   28.10
  -2   4  -7  118.99    8.90
   2  -4   7  121.59    8.10
   2  -4   7  116.39    8.90
   2  -4   7  111.39    8.10
  -3   4  -7   11.90    2.10
  -3   4  -7   12.20    3.10
  -3   4  -7   13.20    1.90
   3  -4   7   13.80    3.00
   3  -4   7   13.70    2.30
  -4   4  -7   55.59    5.60
  -4   4  -7   63.69    4.80
   4  -4   7   48.90    4.40
  -5  -3   7   45.40    4.00
  -5  -3   7   46.70    3.20
  -5  -3   7   44.10    3.90
  -4  -3   7   65.39    4.30
  -4  -3   7   61.69    9.00
  -4  -3   7   59.79    9.10
  -4  -3   7   67.49    5.30
  -4  -3   7   67.49    4.70
  -3  -3   7  244.48   15.20
  -3  -3   7  246.08   15.40
  -3  -3   7  246.88   15.60
  -3  -3   7  191.38   18.50
  -3  -3   7  227.98   17.60
  -3  -3   7  251.07   20.60
  -3  -3   7  239.68   14.70
  -2  -3   7   72.89    8.20
  -2  -3   7   99.59   10.60
  -2  -3   7   92.09    6.10
  -2  -3   7   68.69    7.50
  -1  -3   7  379.96   26.40
  -1  -3   7  322.47   22.50
  -1  -3   7  328.67   23.10
   0   3  -7  606.54   49.80
   0  -3   7  552.94   36.10
   1  -3   7   17.30    2.60
  -2   3  -7  213.28   12.70
   2  -3   7  173.98   12.30
   2  -3   7  178.58   13.10
  -3   3  -7   83.29    6.10
  -3   3  -7   81.09    7.20
  -3   3  -7   79.89    5.50
   3  -3   7   76.89    6.00
   3  -3   7   75.19    6.90
  -4   3  -7    1.80    1.70
  -4   3  -7    2.30    1.30
   4  -3   7    2.00    1.20
  -5   3  -7   50.19    4.20
  -6  -2   7    0.40    0.60
  -6  -2   7    0.30    1.10
  -6  -2   7   -0.50    0.40
   5   2  -7  161.38   14.40
  -5  -2   7  201.28   12.80
  -5  -2   7  197.38   12.50
  -5  -2   7  209.28   12.00
  -5  -2   7  156.78   16.30
  -5  -2   7  197.68   11.80
   4   2  -7  184.38   15.20
   4   2  -7  174.78   15.70
  -4  -2   7  209.68   12.90
  -4  -2   7  217.28   13.50
  -4  -2   7  204.08   18.20
  -4  -2   7  186.88   19.50
  -4  -2   7  197.18   12.90
  -4  -2   7  220.38   13.60
  -4  -2   7  211.08   12.60
   3   2  -7   75.09    8.30
  -3  -2   7   67.69   10.80
  -3  -2   7   96.39    8.60
  -3  -2   7   92.19    6.00
  -3  -2   7   94.39   10.50
  -3  -2   7   86.29    6.40
   2   2  -7  791.22   51.69
  -2  -2   7  810.02   51.29
  -2  -2   7  804.52   54.89
  -2  -2   7  789.32   51.59
   1   2  -7  117.99   13.70
  -1  -2   7  159.58   10.40
   0   2  -7  225.98   19.90
   0  -2   7  281.57   16.80
  -1   2  -7  441.26   31.20
   1  -2   7  475.55   29.30
  -2   2  -7   -0.80    3.80
  -2   2  -7    0.20    1.60
   2  -2   7    0.20    1.00
  -3   2  -7  101.39    7.00
  -3   2  -7   97.49    7.90
  -3   2  -7  111.19    6.30
  -3   2  -7   83.29   11.50
  -3   2  -7   86.79    6.70
   3  -2   7   92.49    7.90
  -4   2  -7   41.50    4.40
  -4   2  -7   31.20    3.00
  -4   2  -7   43.60    3.70
  -5   2  -7   -0.20    1.00
   6   1  -7   96.79    6.30
  -6  -1   7   99.59    6.30
  -6  -1   7  103.69    6.20
  -6  -1   7   89.39    6.50
   5   1  -7    0.60    2.30
  -5  -1   7    3.30    3.00
  -5  -1   7    1.20    3.40
  -5  -1   7    2.70    1.30
  -5  -1   7    3.50    1.60
  -5  -1   7    2.60    0.90
  -5  -1   7    3.40    0.80
   4   1  -7  313.67   21.60
   4   1  -7  306.57   19.10
   4   1  -7  255.37   21.80
  -4  -1   7  320.47   19.20
  -4  -1   7  314.67   19.60
  -4  -1   7  307.67   19.70
  -4  -1   7  314.57   24.10
  -4  -1   7  291.77   18.80
  -4  -1   7  309.87   19.00
   3   1  -7  245.18   20.70
   3   1  -7  313.67   20.80
  -3  -1   7  330.97   18.90
  -3  -1   7  302.77   22.20
  -3  -1   7  264.87   24.90
   2   1  -7    6.40    2.70
   2   1  -7    7.20    2.20
  -2  -1   7    7.60    2.50
  -2  -1   7   12.40    3.00
   1   1  -7  979.20   70.09
   1   1  -7 1134.09   70.69
   1   1  -7 1135.39   68.69
  -1  -1   7 1130.69   68.09
   0   1  -7  306.17   22.90
   0   1  -7  330.07   24.10
   0  -1   7  341.17   20.90
  -1   1  -7  198.98   14.20
  -1   1  -7  152.48   18.20
  -1   1  -7  163.78   14.50
   1  -1   7  195.78   12.40
  -2   1  -7  289.37   18.30
   2  -1   7  260.27   18.30
  -3   1  -7    6.40    1.50
  -3   1  -7    9.80    1.70
  -3   1  -7    4.20    4.80
  -3   1  -7    7.80    2.10
   3  -1   7    7.50    2.00
  -4   1  -7   55.39    4.20
  -4   1  -7   37.60    3.70
  -4   1  -7   51.19    4.70
  -5   1  -7   12.60    1.40
  -5   1  -7   15.90    2.20
   6   0  -7   31.50    2.30
  -6   0   7   30.90    2.20
  -6   0   7   30.00    2.50
   5   0  -7  212.88   17.20
  -5   0   7  234.78   15.00
  -5   0   7  235.98   14.40
  -5   0   7  218.98   14.20
  -5   0   7  234.68   14.80
   4   0  -7    0.50    0.70
   4   0  -7    2.20    2.50
   4   0  -7    0.70    1.30
  -4   0   7    2.20    1.50
  -4   0   7    1.20    0.80
  -4   0   7    1.40    3.00
  -4   0   7    0.10    0.90
  -4   0   7    1.00    1.10
   3   0  -7  399.16   27.40
   3   0  -7  355.06   28.10
   3   0  -7  410.16   25.60
  -3   0   7  423.06   25.70
  -3   0   7  460.35   25.60
  -3   0   7  409.16   26.00
   2   0  -7  901.21   58.19
  -2   0   7  913.41   57.19
   1   0  -7   29.30    5.10
   1   0  -7   23.40    3.90
   1   0  -7   21.00    3.30
  -1   0   7   23.70    2.70
   0   0  -7 1168.88   74.79
   0   0  -7 1168.88   75.59
   0   0  -7 1224.08   77.39
   0   0   7 1210.48   73.69
  -1   0  -7  302.07   22.60
  -1   0  -7  296.07   25.80
   1   0   7  342.27   20.70
  -2   0  -7   64.99    5.80
  -2   0  -7   75.19    4.50
   2   0   7   63.29    5.90
  -3   0  -7  231.18   13.60
  -3   0  -7  221.28   14.10
  -3   0  -7  182.28   13.20
  -3   0  -7  177.88   13.00
  -3   0  -7  220.98   16.00
  -4   0  -7   19.60    2.30
  -4   0  -7   19.60    3.00
  -4   0  -7    9.60    4.50
  -4   0  -7   15.80    1.70
  -4   0  -7   15.80    5.40
  -4   0  -7   24.20    2.70
  -5   0  -7   14.90    1.30
  -5   0  -7   18.50    1.50
   6  -1  -7   36.70    2.80
  -6   1   7   35.50    2.90
   5  -1  -7   44.90    3.70
   5  -1  -7   54.79    6.60
   5  -1  -7   48.70    3.50
  -5   1   7   44.50    3.40
  -5   1   7   48.40    3.90
   4  -1  -7  180.88   11.50
   4  -1  -7  166.08   13.40
   4  -1  -7  184.28   14.90
  -4   1   7  180.88   11.60
  -4   1   7  188.18   12.20
  -4   1   7  184.28   11.90
  -4   1   7  173.98   11.40
   3  -1  -7   49.30    6.60
   3  -1  -7   35.90    4.60
   3  -1  -7   46.60    3.40
  -3   1   7   49.99    4.60
  -3   1   7   57.89    4.30
  -3   1   7   42.30    3.60
  -3   1   7   39.30    5.20
   2  -1  -7  271.67   19.50
   2  -1  -7  288.07   22.80
  -2   1   7  277.17   18.90
   1  -1  -7  548.25   36.90
   1  -1  -7  613.14   40.10
  -1   1   7  564.04   36.40
   0  -1  -7    6.40    3.20
   0  -1  -7    2.70    1.80
   0   1   7    6.50    1.70
  -1  -1  -7  436.56   33.50
  -1  -1  -7  389.06   28.90
   1   1   7  447.06   27.60
  -2  -1  -7  139.99    9.70
  -2  -1  -7  136.99   11.00
   2   1   7  128.19   10.10
  -3  -1  -7   15.90    4.10
  -3  -1  -7   20.90    5.80
  -3  -1  -7   12.70    1.60
  -3  -1  -7   17.40    2.40
  -3  -1  -7   11.70    1.80
  -3  -1  -7   14.10    2.90
  -3  -1  -7    8.50    3.90
  -3  -1  -7   11.60    1.40
  -4  -1  -7  106.29    7.80
  -4  -1  -7  121.39    7.60
  -4  -1  -7  103.89    6.90
  -4  -1  -7  102.59    7.20
  -5  -1  -7    3.10    0.70
   5  -2  -7  138.29    8.70
   5  -2  -7  133.19    8.50
  -5   2   7  126.09    8.80
   4  -2  -7   90.79    8.10
   4  -2  -7   81.29    5.90
   4  -2  -7   78.69    5.60
   3  -2  -7  451.25   28.20
   3  -2  -7  477.65   30.50
  -3   2   7  440.56   30.70
  -3   2   7  448.06   29.00
   2  -2  -7   48.60    5.20
   2  -2  -7   53.09    3.80
   2  -2  -7   51.79    4.50
  -2   2   7   52.89    5.40
   1  -2  -7  149.88   13.50
   1  -2  -7  130.99   10.60
  -1   2   7  148.89   10.50
   0  -2  -7  523.65   38.20
   0  -2  -7  510.25   34.90
   0  -2  -7  564.54   33.00
   0   2   7  533.35   34.10
  -1  -2  -7    8.40    2.80
   1   2   7   10.70    2.30
  -2  -2  -7  155.08   13.70
  -2  -2  -7  134.29    9.60
  -2  -2  -7  134.69   11.10
  -2  -2  -7  143.79    9.00
  -2  -2  -7  134.89    9.20
  -2  -2  -7  153.78    9.20
  -2  -2  -7  134.79   10.00
  -3  -2  -7   86.59    5.90
  -3  -2  -7   84.49    5.60
  -3  -2  -7   82.39    5.90
  -3  -2  -7   82.59    6.70
  -3  -2  -7   98.79   10.00
  -3  -2  -7   81.79    6.30
  -4  -2  -7    3.10    1.20
  -4  -2  -7    2.70    0.60
  -4  -2  -7    1.90    0.80
   4  -3  -7   59.29    4.20
  -4   3   7   55.29    4.60
  -4   3   7   63.09    4.00
   3  -3  -7    3.60    0.90
  -3   3   7    0.70    1.30
   2  -3  -7  542.35   32.30
   2  -3  -7  502.85   32.50
   2  -3  -7  525.75   32.40
  -2   3   7  515.95   34.30
   1  -3  -7  120.89    8.30
   1  -3  -7  122.09    8.10
   1  -3  -7  130.89    8.10
  -1   3   7  114.09    9.30
   0  -3  -7  139.19    9.60
   0  -3  -7  137.29    9.10
   0  -3  -7  146.79    9.30
   0   3   7  152.78   10.70
  -1  -3  -7  246.48   14.90
  -1  -3  -7  246.68   14.80
  -1  -3  -7  242.58   23.80
  -1  -3  -7  222.08   17.00
  -1  -3  -7  220.68   15.20
  -1  -3  -7  239.78   14.60
  -1  -3  -7  233.38   15.30
  -2  -3  -7   21.70    1.80
  -2  -3  -7   17.30    2.60
  -2  -3  -7   18.20    2.00
  -2  -3  -7   21.90    5.30
  -2  -3  -7   21.20    2.10
  -3  -3  -7   45.40    3.60
  -3  -3  -7   50.19    4.20
  -3  -3  -7   53.39    3.60
  -3  -3  -7   52.39    3.40
  -4  -3  -7   28.40    2.00
  -4  -3  -7   28.60    1.90
   4  -4  -7   80.69    5.50
   4  -4  -7   83.99    5.50
  -4   4   7   81.99    5.90
  -4   4   7   85.69    5.40
   3  -4  -7  291.17   17.00
   3  -4  -7  275.87   17.00
  -3   4   7  239.98   17.40
   2  -4  -7   44.50    3.40
   2  -4  -7   44.60    3.70
   2  -4  -7   49.70    3.60
   1  -4  -7  272.17   16.60
   1  -4  -7  265.67   16.90
   1  -4  -7  266.97   17.20
   0  -4  -7   92.29    6.10
   0  -4  -7   90.69    6.60
   0  -4  -7   95.79    6.20
  -1  -4  -7   30.20    6.20
  -1  -4  -7   31.80    3.20
  -1  -4  -7   33.50    2.50
  -1  -4  -7   30.00    3.00
  -1  -4  -7   30.80    2.30
  -1  -4  -7   31.80    2.70
  -2  -4  -7  125.89    7.80
  -2  -4  -7  124.99    8.50
  -2  -4  -7  125.39    7.90
  -2  -4  -7  119.99    8.00
  -3  -4  -7   24.60    1.90
  -3  -4  -7   27.00    2.50
  -3  -4  -7   26.00    1.80
  -3  -4  -7   23.80    1.90
   4  -5  -7    0.90    0.50
   4  -5  -7    0.30    0.40
   3  -5  -7   13.50    1.20
   3  -5  -7   15.10    1.60
  -3   5   7   12.70    1.80
   2  -5  -7  155.98    9.60
   2  -5  -7  141.49    9.70
   1  -5  -7    0.30    0.60
   1  -5  -7    0.90    0.90
   0  -5  -7  163.88   10.50
   0  -5  -7  167.58   10.80
   0  -5  -7  163.98   10.30
  -1  -5  -7   40.80    2.80
  -1  -5  -7   36.10    3.20
  -1  -5  -7   43.40    2.90
  -1  -5  -7   41.40    3.50
  -1  -5  -7   40.40    3.00
  -2  -5  -7    6.50    0.70
  -2  -5  -7    5.30    1.20
  -2  -5  -7    4.60    0.80
  -2  -5  -7    7.20    1.00
   3  -6  -7   27.60    2.20
   2  -6  -7   45.30    3.40
   2  -6  -7   52.69    3.40
   1  -6  -7   75.99    5.20
   0  -6  -7    1.50    0.50
   0  -6  -7    1.20    0.70
   0  -6  -7    1.30    0.50
  -1  -6  -7   36.90    2.60
  -1  -6  -7   40.90    2.60
  -2  -8   8   36.30    2.90
  -2  -8   8   43.30    3.00
  -2  -8   8   44.70    2.70
  -2  -8   8   41.30    3.20
  -2  -8   8   39.00    3.00
   1   8  -8   23.60    2.40
  -1  -8   8   19.90    2.30
  -1  -8   8   24.50    2.00
  -1  -8   8   25.10    1.90
  -1  -8   8   23.20    2.10
  -1  -8   8   26.60    2.20
  -1  -8   8   24.10    2.30
  -1  -8   8   25.30    2.10
   0   8  -8   73.69    5.90
   0   8  -8   68.79    5.10
   0  -8   8   73.39    5.00
   0  -8   8   71.09    4.80
   0  -8   8   69.89    4.90
   0  -8   8   66.19    5.10
   0  -8   8   74.79    4.90
  -1   8  -8    0.20    0.90
  -1   8  -8    1.60    1.50
   1  -8   8    1.40    0.70
   1  -8   8    1.60    0.60
  -2   8  -8    9.00    1.50
   2  -8   8    9.60    1.10
  -3  -7   8    1.10    0.60
  -3  -7   8    1.80    0.70
  -3  -7   8    1.20    0.60
  -3  -7   8    1.70    0.40
  -2  -7   8   75.79    4.80
  -2  -7   8   72.29    5.40
  -2  -7   8   69.09    5.30
  -2  -7   8   71.59    5.10
  -2  -7   8   76.49    5.20
  -2  -7   8   74.89    5.10
   1   7  -8   66.49    5.30
  -1  -7   8   66.99    9.60
  -1  -7   8   68.29    4.90
  -1  -7   8   72.79    5.00
  -1  -7   8   68.59    5.00
  -1  -7   8   68.29    5.30
  -1  -7   8   72.59    4.60
  -1  -7   8   65.99    4.80
  -1  -7   8   71.19    5.30
   0   7  -8    2.90    1.50
   0   7  -8    1.60    1.70
   0  -7   8    1.50    0.90
   0  -7   8    0.80    1.10
   0  -7   8    2.00    1.00
   0  -7   8    1.20    0.90
   0  -7   8    2.80    1.10
  -1   7  -8  107.79    8.40
  -1   7  -8  117.89    7.60
   1  -7   8  117.09    7.30
   1  -7   8  100.09    7.30
  -2   7  -8    6.00    1.10
  -2   7  -8    8.10    1.90
   2  -7   8    6.50    0.80
  -3   7  -8    5.80    1.20
  -3   7  -8    5.10    1.00
  -4  -6   8   44.30    3.00
  -4  -6   8   41.70    2.70
  -4  -6   8   43.10    3.10
  -3  -6   8  148.89    9.20
  -3  -6   8  132.99    9.30
  -3  -6   8  144.09    8.80
  -3  -6   8  136.59    9.20
  -2  -6   8   -0.10    1.00
  -2  -6   8    0.10    1.10
  -2  -6   8    1.00    0.90
  -2  -6   8    2.90    3.40
  -2  -6   8    1.50    0.70
  -2  -6   8    1.60    1.20
  -2  -6   8    0.40    0.90
   1   6  -8  131.19    9.10
  -1  -6   8  137.29    8.80
  -1  -6   8  130.99    8.80
  -1  -6   8  143.29    9.30
  -1  -6   8  133.69    8.90
  -1  -6   8  131.79    8.70
  -1  -6   8  130.29    9.10
  -1  -6   8  131.69   13.90
  -1  -6   8  128.09    8.50
   0   6  -8  160.18   12.30
   0   6  -8  173.88   11.60
   0  -6   8  177.88   11.30
   0  -6   8  199.28   13.60
   0  -6   8  171.68   11.40
   0  -6   8  171.98   11.30
   0  -6   8  181.88   11.60
   0  -6   8  170.58   11.60
  -1   6  -8    5.60    1.70
  -1   6  -8    4.60    2.20
   1  -6   8    4.80    1.10
   1  -6   8    7.10    1.40
   1  -6   8    6.20    2.50
  -2   6  -8  102.39    7.80
  -2   6  -8   96.89    6.70
   2  -6   8   99.19    6.30
   2  -6   8   99.39    6.50
  -3   6  -8   12.60    1.90
  -3   6  -8   12.70    2.60
  -3   6  -8   15.20    2.60
   3  -6   8   15.30    1.80
   3  -6   8   15.80    1.40
  -4  -5   8   29.30    1.90
  -4  -5   8   27.80    2.50
  -4  -5   8   26.00    2.20
  -4  -5   8   28.70    2.60
  -3  -5   8   89.39    5.90
  -3  -5   8   83.39    5.90
  -3  -5   8   81.39    5.30
  -3  -5   8   80.59    8.90
  -3  -5   8   77.09    6.00
  -2  -5   8  200.48   14.10
  -2  -5   8  166.28   11.40
  -2  -5   8  171.38   11.20
  -2  -5   8  167.18   10.70
  -2  -5   8  161.08   11.00
  -2  -5   8  150.08   13.10
  -2  -5   8  191.08   15.90
  -2  -5   8  163.28   11.10
  -2  -5   8  166.38   11.50
   1   5  -8   23.60    2.90
  -1  -5   8   35.60    3.10
  -1  -5   8   29.60    2.30
  -1  -5   8   31.70    4.20
  -1  -5   8   29.40    2.70
  -1  -5   8   27.80    2.70
  -1  -5   8   27.80    3.00
  -1  -5   8   28.30    2.50
  -1  -5   8   25.30    4.20
  -1  -5   8   28.20    2.60
  -1  -5   8   37.30    6.90
   0   5  -8  165.28   11.00
   0   5  -8  151.08   11.70
   0  -5   8  173.68   11.10
   0  -5   8  156.88   10.80
   0  -5   8  185.18   12.00
   0  -5   8  167.58   10.70
   0  -5   8  157.68   10.70
  -1   5  -8  193.78   14.30
  -1   5  -8  219.08   13.60
   1  -5   8  194.98   12.90
   1  -5   8  199.58   14.10
   1  -5   8  207.58   14.60
   1  -5   8  229.68   13.30
  -2   5  -8    5.30    1.20
  -2   5  -8    7.10    2.00
   2  -5   8    5.10    1.40
   2  -5   8    5.30    1.70
   2  -5   8    5.40    1.00
   2  -5   8    4.40    0.90
   2  -5   8    8.70    2.30
  -3   5  -8   58.69    4.60
  -3   5  -8   51.89    5.50
  -3   5  -8   48.30    4.10
   3  -5   8   53.19    3.90
   3  -5   8   55.39    4.30
  -4   5  -8   13.50    2.30
  -4   5  -8   14.70    1.80
   4  -5   8   15.10    1.60
   4  -5   8   12.80    1.30
  -5  -4   8    0.70    0.60
  -5  -4   8    0.20    0.40
  -5  -4   8    0.40    0.30
  -4  -4   8  197.88   13.20
  -4  -4   8  203.48   13.10
  -4  -4   8  202.78   12.90
  -4  -4   8  205.58   12.60
  -4  -4   8  208.48   15.70
  -3  -4   8  143.99   12.70
  -3  -4   8  152.48   10.20
  -3  -4   8  148.29    9.40
  -3  -4   8  140.69    9.90
  -3  -4   8  166.48   13.90
  -3  -4   8  145.39    9.90
  -2  -4   8   85.79    6.50
  -2  -4   8   99.19    8.40
  -2  -4   8  100.79   10.60
  -2  -4   8  103.19    6.80
  -2  -4   8   85.69    6.80
  -2  -4   8   96.09    6.20
  -2  -4   8   94.19    8.60
  -2  -4   8   92.69    6.60
  -2  -4   8  105.69    7.20
  -1  -4   8  482.15   30.30
  -1  -4   8  485.95   30.70
  -1  -4   8  466.55   32.20
  -1  -4   8  479.15   31.30
  -1  -4   8  523.15   30.80
   0  -4   8   38.10    2.50
   0  -4   8   40.80    4.50
   0  -4   8   30.30    3.50
   0  -4   8   30.90    4.20
  -1   4  -8  156.88   11.70
   1  -4   8  174.08   11.70
   1  -4   8  165.08   11.00
   1  -4   8  168.38   10.60
  -2   4  -8  141.69   10.90
  -2   4  -8  158.38   10.70
  -2   4  -8  170.38   10.20
   2  -4   8  162.78   11.30
   2  -4   8  156.58   10.20
   2  -4   8  156.88   10.60
  -3   4  -8    0.60    0.90
  -3   4  -8   -0.10    1.10
  -3   4  -8   -0.30    1.70
   3  -4   8   -0.10    1.00
  -4   4  -8   35.70    4.10
  -4   4  -8   39.70    3.10
   4  -4   8   33.20    2.90
  -5  -3   8  148.49    9.20
  -5  -3   8  142.99    9.60
  -5  -3   8  147.99    9.00
  -5  -3   8  141.89    9.40
  -4  -3   8    2.60    1.20
  -4  -3   8    0.30    0.50
  -4  -3   8    1.10    0.70
  -4  -3   8    1.20    0.90
  -4  -3   8    1.20    2.70
  -4  -3   8    1.10    0.70
   3   3  -8  269.97   21.50
  -3  -3   8  304.07   21.50
  -3  -3   8  304.87   19.40
  -3  -3   8  280.87   18.90
  -3  -3   8  315.07   19.10
  -3  -3   8  329.17   24.20
  -3  -3   8  313.87   22.00
  -3  -3   8  298.47   18.70
  -3  -3   8  315.77   19.30
  -2  -3   8  327.47   22.90
  -2  -3   8  293.47   18.00
  -2  -3   8  266.87   17.70
  -2  -3   8  266.37   19.20
  -2  -3   8  254.57   19.60
  -1  -3   8   11.30    2.20
   0  -3   8  520.15   32.90
   1  -3   8  103.19    7.70
   1  -3   8  101.49    7.10
   1  -3   8  105.89    6.90
  -2   3  -8   83.49    6.00
  -2   3  -8   77.49    6.20
  -2   3  -8   85.49    5.50
   2  -3   8   85.39    6.00
   2  -3   8   81.89    6.70
  -3   3  -8   93.69    6.00
  -3   3  -8   91.39    7.50
  -3   3  -8   95.89    6.60
   3  -3   8   91.19    6.60
   3  -3   8   88.59    7.30
  -4   3  -8    0.20    1.40
  -4   3  -8    0.90    1.00
   4  -3   8    1.60    0.90
  -5  -2   8   79.79    5.70
  -5  -2   8   82.59    5.30
  -5  -2   8   79.19    5.60
  -5  -2   8   77.99    5.10
   4   2  -8  396.96   24.50
   4   2  -8  420.36   28.10
  -4  -2   8  400.86   24.80
  -4  -2   8  400.16   24.90
  -4  -2   8  387.86   24.20
  -4  -2   8  389.06   24.40
  -4  -2   8  383.46   24.30
  -4  -2   8  370.86   29.90
   3   2  -8    3.10    2.70
   3   2  -8    2.30    1.80
  -3  -2   8    3.50    2.00
  -3  -2   8    1.30    0.50
  -3  -2   8    2.00    0.90
  -3  -2   8    2.20    0.90
  -3  -2   8    1.40    0.70
  -3  -2   8    3.00    3.20
  -3  -2   8    2.90    1.10
  -3  -2   8    3.80    2.40
   2   2  -8  485.15   31.90
  -2  -2   8  477.45   31.60
  -2  -2   8  480.25   31.40
   1   2  -8  637.84   41.40
  -1  -2   8  658.33   40.90
   0   2  -8    6.20    2.30
   0  -2   8    6.30    1.40
  -1   2  -8  472.65   34.50
   1  -2   8  562.24   33.00
  -2   2  -8  109.99    8.20
  -2   2  -8  131.29    7.80
  -2   2  -8  128.09    8.00
  -2   2  -8  116.39   10.20
   2  -2   8  117.49    8.90
  -3   2  -8   26.80    2.70
  -3   2  -8   25.60    3.70
   3  -2   8   23.80    3.10
  -4   2  -8   70.19    5.00
  -4   2  -8   67.09    5.60
   5   1  -8   60.69    6.80
  -5  -1   8   59.29    4.40
  -5  -1   8   60.79    3.90
  -5  -1   8   60.49    4.10
  -5  -1   8   58.99    4.60
   4   1  -8  113.79    7.50
   4   1  -8  128.79   11.20
  -4  -1   8  109.69    7.90
  -4  -1   8  116.29    7.40
  -4  -1   8  102.19    7.10
  -4  -1   8  109.19    7.70
  -4  -1   8  110.99   10.30
  -4  -1   8  119.59    7.50
   3   1  -8  256.37   18.90
   3   1  -8  275.47   17.00
   3   1  -8  291.87   20.30
  -3  -1   8  279.57   17.30
  -3  -1   8  241.28   18.90
  -3  -1   8  266.87   16.80
  -3  -1   8  278.47   17.00
   2   1  -8   28.50    4.30
  -2  -1   8   25.50    3.50
   1   1  -8  451.45   29.10
  -1  -1   8  434.76   28.30
   0   1  -8  377.86   25.50
   0  -1   8  389.36   24.50
  -1   1  -8   10.00    3.20
   1  -1   8   11.60    2.00
  -2   1  -8  217.18   14.80
  -2   1  -8  232.18   14.50
  -2   1  -8  201.58   18.00
  -2   1  -8  234.68   15.40
  -2   1  -8  254.27   14.40
  -2   1  -8  245.58   14.40
   2  -1   8  218.48   16.00
  -3   1  -8   45.10    8.00
  -3   1  -8   63.79    5.30
  -3   1  -8   60.89    4.30
  -3   1  -8   60.99    4.60
  -4   1  -8    3.90    2.80
  -4   1  -8    6.20    1.30
  -4   1  -8    5.60    1.60
  -4   1  -8    5.50    0.90
   5   0  -8  154.58    9.70
   5   0  -8  162.98   12.20
  -5   0   8  146.49    9.70
  -5   0   8  152.98   10.00
   4   0  -8  287.57   19.70
   4   0  -8  253.17   16.10
  -4   0   8  262.27   16.60
  -4   0   8  253.27   16.20
  -4   0   8  245.28   16.30
  -4   0   8  244.88   16.00
   3   0  -8  162.68   10.80
   3   0  -8  180.28   13.70
  -3   0   8  154.98   10.70
  -3   0   8  174.58   10.90
  -3   0   8  175.78   10.60
   2   0  -8  782.62   49.80
   2   0  -8  757.12   52.49
  -2   0   8  787.52   47.80
   1   0  -8   11.90    3.60
   1   0  -8   13.70    2.90
   0   0  -8  187.78   13.90
   0   0  -8  196.08   16.20
  -1   0  -8  369.56   20.90
  -1   0  -8  337.87   23.60
  -1   0  -8  294.77   25.70
  -2   0  -8    0.30    0.70
  -2   0  -8    0.10    1.20
  -2   0  -8    0.00    2.90
  -2   0  -8    0.60    0.90
  -2   0  -8    0.80    0.90
  -3   0  -8  103.59    6.20
  -3   0  -8   89.19    6.20
  -3   0  -8   89.79    6.90
  -3   0  -8   92.29    6.50
  -3   0  -8   83.69   10.00
  -4   0  -8   26.90    5.70
  -4   0  -8   36.90    3.00
  -4   0  -8   35.20    2.60
  -4   0  -8   34.10    3.40
   5  -1  -8   -0.10    0.50
   5  -1  -8    0.10    0.70
   5  -1  -8   -0.20    0.50
  -5   1   8    0.70    0.80
   4  -1  -8  257.67   16.30
   4  -1  -8  262.47   18.70
   3  -1  -8  127.89    8.70
   3  -1  -8  129.79   11.00
  -3   1   8  129.29    8.80
  -3   1   8  148.89    8.90
   2  -1  -8    2.90    1.80
   2  -1  -8    4.30    1.00
   2  -1  -8    2.40    0.70
  -2   1   8    3.00    0.80
  -2   1   8    5.40    1.10
  -2   1   8    4.90    1.60
   1  -1  -8  963.60   55.69
   1  -1  -8  930.01   55.39
   1  -1  -8  869.11   56.79
   1  -1  -8  911.41   60.09
  -1   1   8  832.12   56.09
   0  -1  -8  150.98    9.40
   0  -1  -8  160.38    9.20
   0  -1  -8  134.69   17.50
   0  -1  -8  125.99   10.70
   0   1   8  124.99    9.90
  -1  -1  -8  154.78   11.30
  -1  -1  -8  179.28   11.00
  -1  -1  -8  173.98   13.60
  -1  -1  -8  176.38   11.00
  -1  -1  -8  178.88   10.80
   1   1   8  172.98   12.20
  -2  -1  -8  137.99   12.40
  -2  -1  -8  141.79    9.70
  -2  -1  -8  159.88    9.40
  -2  -1  -8  138.59   10.10
  -2  -1  -8  150.58    9.40
  -3  -1  -8    5.60    1.70
  -3  -1  -8    5.30    1.20
  -3  -1  -8    5.10    0.90
  -3  -1  -8    5.40    2.90
  -3  -1  -8    4.70    0.90
  -3  -1  -8    6.00    1.10
  -4  -1  -8   31.20    3.00
  -4  -1  -8   33.60    2.40
  -4  -1  -8   32.70    2.30
  -4  -1  -8   35.10    2.80
   5  -2  -8   99.39    6.30
   4  -2  -8    5.40    0.90
   4  -2  -8    6.00    2.00
   3  -2  -8  257.97   16.20
   3  -2  -8  260.07   17.90
  -3   2   8  253.47   16.40
   2  -2  -8  620.04   37.80
   2  -2  -8  586.44   39.20
   2  -2  -8  607.34   37.90
   2  -2  -8  627.34   38.00
  -2   2   8  661.03   41.30
  -2   2   8  577.64   38.00
   1  -2  -8  103.89    7.10
   1  -2  -8   98.69    7.00
   1  -2  -8  104.49    8.30
  -1   2   8  109.19    8.10
   0  -2  -8  461.55   28.80
   0  -2  -8  466.75   29.10
   0  -2  -8  464.35   28.70
   0  -2  -8  466.35   30.70
   0  -2  -8  480.65   28.80
   0   2   8  458.85   30.00
  -1  -2  -8  114.79    7.10
  -1  -2  -8  104.09    9.30
  -1  -2  -8  115.79    7.10
  -1  -2  -8   97.99    7.40
  -2  -2  -8   36.30    5.30
  -2  -2  -8   39.30    2.90
  -2  -2  -8   39.00    3.40
  -2  -2  -8   40.40    3.00
  -2  -2  -8   40.90    3.10
  -3  -2  -8   84.89    6.00
  -3  -2  -8   92.29    5.70
  -3  -2  -8   84.99    5.60
  -3  -2  -8   75.59    7.40
  -3  -2  -8   87.99    5.50
  -4  -2  -8   17.50    1.30
  -4  -2  -8   19.00    1.40
   4  -3  -8  133.49    8.50
   4  -3  -8  131.69    8.60
   3  -3  -8    6.10    1.10
   3  -3  -8    8.10    1.20
  -3   3   8    5.80    1.30
   2  -3  -8   49.30    3.60
   2  -3  -8   46.10    3.60
   2  -3  -8   46.20    3.70
   1  -3  -8  292.17   17.70
   1  -3  -8  275.77   18.10
   0  -3  -8    0.30    0.70
   0  -3  -8    0.80    0.60
   0  -3  -8    0.00    0.80
  -1  -3  -8  255.97   16.80
  -1  -3  -8  267.57   16.50
  -1  -3  -8  268.37   16.40
  -1  -3  -8  260.27   16.80
  -2  -3  -8   40.70    3.10
  -2  -3  -8   40.30    3.60
  -2  -3  -8   43.10    2.90
  -2  -3  -8   54.39    9.30
  -2  -3  -8   44.90    3.10
  -3  -3  -8    9.20    1.10
  -3  -3  -8   10.60    1.70
  -3  -3  -8   10.20    1.00
  -3  -3  -8   11.10    1.20
   4  -4  -8   26.80    2.00
   4  -4  -8   29.40    2.10
   3  -4  -8  132.89    8.50
   3  -4  -8  129.19    8.50
  -3   4   8  137.19    8.70
   2  -4  -8   52.09    3.80
   2  -4  -8   55.59    3.60
   2  -4  -8   50.69    3.90
   1  -4  -8  136.99    9.10
   0  -4  -8  127.29    8.60
   0  -4  -8  126.79    8.20
   0  -4  -8  136.39    8.30
  -1  -4  -8    1.10    1.00
  -1  -4  -8    1.00    0.60
  -1  -4  -8    1.90    0.90
  -1  -4  -8    1.00    0.70
  -2  -4  -8   64.19    4.20
  -2  -4  -8   67.59    4.30
  -2  -4  -8   61.89    4.40
  -2  -4  -8   70.29    4.80
   3  -5  -8   25.60    1.90
  -3   5   8   23.10    1.90
   2  -5  -8   86.09    5.80
   2  -5  -8   89.19    5.70
   1  -5  -8   16.20    1.70
   0  -5  -8   21.70    1.70
   0  -5  -8   23.80    2.10
  -1  -5  -8   64.99    4.50
  -1  -5  -8   69.39    4.40
  -1  -5  -8   68.89    4.30
   1   8  -9    0.40    0.70
  -1  -8   9   -0.40    0.50
  -1  -8   9    0.20    0.40
  -1  -8   9   -0.20    0.40
  -1  -8   9    0.30    0.50
   0   8  -9   26.70    2.50
   0   8  -9   26.40    4.10
   0  -8   9   33.10    2.30
   0  -8   9   36.10    2.50
  -1   8  -9   19.40    1.70
  -1   8  -9   23.10    2.40
   1  -8   9   22.10    1.80
   1  -8   9   21.60    1.60
  -3  -7   9   14.00    1.00
  -3  -7   9   12.20    1.20
  -3  -7   9   12.20    1.20
  -2  -7   9   46.60    3.20
  -2  -7   9   39.30    3.30
  -2  -7   9   41.30    3.20
  -2  -7   9   42.90    2.90
  -2  -7   9   44.50    3.20
   1   7  -9   58.79    4.90
  -1  -7   9   61.29    4.60
  -1  -7   9   71.69    5.10
  -1  -7   9   57.19    4.80
  -1  -7   9   72.99    4.70
  -1  -7   9   67.39    4.60
  -1  -7   9   74.29    4.50
  -1  -7   9   70.29    4.70
   0   7  -9    6.40    1.60
   0   7  -9    4.60    1.70
   0  -7   9    6.10    1.00
   0  -7   9    9.50    1.20
   0  -7   9    5.60    1.00
  -1   7  -9   38.40    3.30
  -1   7  -9   44.50    4.30
   1  -7   9   50.29    4.00
   1  -7   9   45.60    3.10
  -2   7  -9   33.90    3.10
  -2   7  -9   29.80    2.30
  -4  -6   9    1.80    0.30
  -3  -6   9  134.39    8.40
  -3  -6   9  122.29    8.50
  -3  -6   9  136.19    8.10
  -3  -6   9  131.99    8.30
  -3  -6   9  128.69    8.50
  -2  -6   9   46.10    3.70
  -2  -6   9   52.59    3.70
  -2  -6   9   48.30    3.30
  -2  -6   9   50.39    6.90
  -2  -6   9   44.80    3.60
  -2  -6   9   46.90    3.90
   1   6  -9   49.30    4.00
  -1  -6   9   49.80    3.50
  -1  -6   9   50.29    3.70
  -1  -6   9   41.70    3.80
  -1  -6   9   54.49    4.20
  -1  -6   9   44.00    3.60
  -1  -6   9   42.80    7.30
  -1  -6   9   47.20    3.30
  -1  -6   9   48.80    3.70
   0   6  -9  166.48   11.00
   0   6  -9  169.08   13.10
   0  -6   9  172.18   10.60
   0  -6   9  154.08   10.60
   0  -6   9  167.38   10.60
  -1   6  -9    4.40    1.80
  -1   6  -9    5.40    1.40
   1  -6   9    7.10    1.10
  -2   6  -9   52.29    4.30
  -2   6  -9   49.60    3.40
   2  -6   9   44.40    3.00
  -3   6  -9   33.30    2.70
  -3   6  -9   27.80    2.20
   3  -6   9   28.60    2.00
  -4  -5   9  116.39    7.40
  -4  -5   9  122.39    8.10
  -4  -5   9  109.89    7.50
  -4  -5   9  115.79    7.30
  -4  -5   9  115.79    7.20
  -3  -5   9    0.00    0.90
  -3  -5   9    0.70    0.50
  -3  -5   9    1.20    0.80
  -3  -5   9    0.80    0.80
  -3  -5   9    1.30    0.70
  -3  -5   9    0.60    1.90
  -2  -5   9  186.88   15.10
  -2  -5   9  166.38   10.70
  -2  -5   9  162.38   10.60
  -2  -5   9  154.68   10.60
  -2  -5   9  160.08   10.30
  -2  -5   9  155.88   10.80
   1   5  -9  109.89    7.70
  -1  -5   9  112.79    7.20
  -1  -5   9  105.59    8.30
  -1  -5   9  103.59    7.30
  -1  -5   9  117.49    7.40
  -1  -5   9  107.09    7.30
   0   5  -9    9.10    1.70
   0  -5   9    9.80    1.40
   0  -5   9   14.30    2.30
   0  -5   9    8.50    1.20
   0  -5   9   12.30    2.40
  -1   5  -9  164.78   11.00
  -1   5  -9  150.58   11.50
   1  -5   9  169.18   10.60
   1  -5   9  180.78   11.70
   1  -5   9  177.58   11.90
   1  -5   9  172.18   10.80
  -2   5  -9   19.40    1.80
  -2   5  -9   13.90    2.10
  -2   5  -9   17.10    2.90
   2  -5   9   19.00    1.60
  -3   5  -9   22.00    2.00
  -3   5  -9   22.80    3.20
  -3   5  -9   27.00    2.70
   3  -5   9   23.80    2.00
   3  -5   9   27.60    2.30
  -5  -4   9   12.10    0.90
  -4  -4   9   98.89    6.60
  -4  -4   9  103.79    6.50
  -4  -4   9  100.59    6.20
  -4  -4   9   89.49    6.70
  -4  -4   9  101.39    6.40
  -3  -4   9  375.26   23.60
  -3  -4   9  404.96   27.50
  -3  -4   9  374.36   23.90
  -3  -4   9  373.36   23.70
  -3  -4   9  363.86   23.50
  -3  -4   9  383.56   23.30
  -2  -4   9    9.10    1.40
  -2  -4   9    7.60    1.20
  -2  -4   9    9.30    2.20
  -2  -4   9    7.00    1.50
  -2  -4   9    6.90    0.90
  -2  -4   9    9.10    3.70
  -2  -4   9   13.00    3.10
  -2  -4   9    8.70    1.40
   1   4  -9  238.98   15.70
  -1  -4   9  256.57   16.50
  -1  -4   9  247.98   15.50
  -1  -4   9  238.88   15.40
   0   4  -9  198.58   13.20
   0  -4   9  203.98   12.70
   0  -4   9  201.48   13.90
   0  -4   9  201.88   13.00
   0  -4   9  221.28   13.80
   0  -4   9  206.38   12.90
  -1   4  -9    2.00    1.00
  -1   4  -9    1.90    1.40
   1  -4   9    2.50    0.80
   1  -4   9    1.60    0.60
   1  -4   9    3.00    1.40
  -2   4  -9  144.79   10.60
  -2   4  -9  176.18   10.30
  -2   4  -9  163.58   10.90
   2  -4   9  159.28   11.30
   2  -4   9  162.78   10.70
   2  -4   9  165.68   10.40
  -3   4  -9   24.50    2.60
  -3   4  -9   22.80    3.30
  -3   4  -9   23.40    1.90
   3  -4   9   23.00    2.00
   3  -4   9   23.90    2.30
  -4   4  -9    8.50    1.40
  -5  -3   9   50.39    3.60
  -5  -3   9   52.19    3.30
  -5  -3   9   53.19    3.40
   4   3  -9   49.30    3.70
  -4  -3   9   50.39    3.40
  -4  -3   9   44.80    3.70
  -4  -3   9   49.99    3.20
  -4  -3   9   50.59    3.80
  -4  -3   9   50.99    8.50
  -4  -3   9   46.00    3.50
  -3  -3   9  141.59   10.10
  -3  -3   9  158.38   13.90
  -3  -3   9  149.09    9.70
  -3  -3   9  163.18    9.90
  -3  -3   9  154.68   10.00
  -3  -3   9  156.78   11.50
  -3  -3   9  146.39    9.50
  -2  -3   9  228.88   14.30
  -2  -3   9  223.58   15.60
  -2  -3   9  231.78   14.40
  -1  -3   9   20.40    2.90
  -1  -3   9   24.80    2.30
  -1  -3   9   30.70    1.90
   0  -3   9  401.86   22.40
   0  -3   9  320.37   21.70
   0  -3   9  343.37   22.70
  -1   3  -9  176.28   10.90
  -1   3  -9  158.98   11.30
   1  -3   9  177.68   10.80
   1  -3   9  165.88   11.70
  -2   3  -9    5.10    1.40
  -2   3  -9    6.80    1.00
  -2   3  -9    6.70    1.20
   2  -3   9   10.00    1.60
   2  -3   9    7.20    1.70
  -3   3  -9   72.09    5.10
  -3   3  -9   67.79    5.80
  -4   3  -9   15.40    2.30
  -4   3  -9   16.50    1.80
   5   2  -9    2.10    0.50
  -5  -2   9    2.50    0.50
  -5  -2   9    1.80    0.60
  -5  -2   9    3.10    0.70
  -5  -2   9    2.60    0.40
   4   2  -9  233.58   14.00
   4   2  -9  238.38   16.30
  -4  -2   9  217.78   13.80
  -4  -2   9  214.98   14.10
  -4  -2   9  209.58   13.60
  -4  -2   9  226.58   13.90
  -4  -2   9  218.68   18.10
  -4  -2   9  212.18   14.20
   3   2  -9  240.38   15.00
   3   2  -9  245.28   17.00
  -3  -2   9  215.08   16.20
  -3  -2   9  242.98   15.00
  -3  -2   9  225.28   14.70
  -3  -2   9  239.48   14.60
  -3  -2   9  229.28   14.60
   2   2  -9  194.98   12.80
   2   2  -9  222.98   14.50
  -2  -2   9  192.98   12.50
  -2  -2   9  181.88   12.30
  -2  -2   9  196.48   13.60
   1   2  -9  664.63   40.80
   1   2  -9  671.23   42.10
  -1  -2   9  656.73   41.40
  -1  -2   9  639.64   40.30
   0   2  -9    1.90    1.00
   0   2  -9    3.30    2.00
   0  -2   9    2.30    1.10
   0  -2   9    1.80    0.60
  -1   2  -9  138.09   10.90
  -1   2  -9  134.79    8.60
  -1   2  -9  126.89    9.10
  -1   2  -9  135.89    8.90
   1  -2   9  138.69    9.50
  -2   2  -9  127.89    7.90
  -2   2  -9  107.79   10.50
  -2   2  -9  124.79    8.30
  -2   2  -9  131.89    7.90
   2  -2   9  118.49    8.80
  -3   2  -9   -0.40    1.20
  -3   2  -9    0.40    0.80
  -4   2  -9   35.60    3.30
  -4   2  -9   35.70    2.80
   5   1  -9   99.39    6.30
  -5  -1   9   98.89    6.20
  -5  -1   9   97.99    7.20
  -5  -1   9   96.49    6.40
   4   1  -9    2.20    2.00
   4   1  -9    2.40    0.80
  -4  -1   9    2.00    1.00
  -4  -1   9    2.20    0.80
  -4  -1   9    1.70    0.70
  -4  -1   9    2.20    0.80
   3   1  -9  334.17   20.70
   3   1  -9  331.67   20.80
   3   1  -9  350.76   23.00
  -3  -1   9  317.17   20.50
  -3  -1   9  323.47   20.60
   2   1  -9  114.19    9.10
   2   1  -9   99.89    7.00
   2   1  -9  114.39    7.30
  -2  -1   9  100.29    6.90
  -2  -1   9  116.39    6.90
  -2  -1   9  100.19    7.00
   1   1  -9    7.60    2.20
   1   1  -9    9.50    1.50
   0   1  -9  660.63   42.40
   0   1  -9  662.43   40.80
  -1   1  -9   60.59    4.10
  -1   1  -9   57.99    6.40
  -1   1  -9   57.49    4.60
  -1   1  -9   67.59    4.30
  -2   1  -9  112.19   10.20
  -2   1  -9  111.69    7.80
  -2   1  -9  115.09    7.20
  -2   1  -9  118.59    7.40
  -3   1  -9   53.49    3.40
  -3   1  -9   49.00    4.40
  -3   1  -9   46.80    6.00
  -3   1  -9   49.60    3.80
  -4   1  -9   -0.30    0.60
  -4   1  -9    0.50    0.90
   5   0  -9   92.39    5.80
  -5   0   9   86.69    5.90
   4   0  -9  242.48   16.60
   4   0  -9  242.38   14.50
  -4   0   9  225.88   14.80
  -4   0   9  214.88   14.30
  -4   0   9  231.38   14.50
   3   0  -9    0.80    1.80
   3   0  -9    0.90    0.80
   3   0  -9    1.00    0.70
  -3   0   9    0.80    0.70
   2   0  -9  353.56   23.50
   2   0  -9  393.86   25.50
   2   0  -9  396.96   23.70
  -2   0   9  379.06   23.50
  -2   0   9  372.16   23.50
   1   0  -9  730.33   44.70
   1   0  -9  691.83   43.10
  -1   0   9  673.53   42.90
   0   0  -9   98.19    7.90
   0   0  -9   88.99    6.10
   0   0  -9   89.89    6.10
   0   0  -9   85.09    5.90
  -1   0  -9  345.87   21.50
  -1   0  -9  329.67   21.80
  -1   0  -9  369.66   23.90
  -1   0  -9  348.37   21.50
  -2   0  -9   59.39    6.90
  -2   0  -9   60.39    4.00
  -2   0  -9   57.79    4.00
  -2   0  -9   56.69    4.40
  -3   0  -9   21.60    2.20
  -3   0  -9   24.30    2.90
  -3   0  -9   22.80    1.90
  -3   0  -9   22.70    4.20
  -3   0  -9   25.50    1.90
  -4   0  -9   27.40    2.20
   5  -1  -9   27.90    2.00
   4  -1  -9  121.79    8.00
   4  -1  -9  128.19    9.70
   3  -1  -9  269.27   17.20
   3  -1  -9  282.47   19.10
  -3   1   9  273.87   17.10
   2  -1  -9   30.30    4.00
   2  -1  -9   27.10    2.30
   2  -1  -9   29.50    2.50
  -2   1   9   24.10    2.30
   1  -1  -9  113.59    7.70
   1  -1  -9  119.09    7.80
   1  -1  -9  117.29    9.20
   0  -1  -9  273.77   17.00
   0  -1  -9  259.47   18.70
   0  -1  -9  274.67   17.20
   0  -1  -9  282.87   17.10
  -1  -1  -9    2.30    0.70
  -1  -1  -9    2.40    0.90
  -1  -1  -9    0.50    0.60
  -2  -1  -9  225.28   15.50
  -2  -1  -9  197.08   13.00
  -2  -1  -9  204.28   13.40
  -2  -1  -9  210.68   13.00
  -3  -1  -9   24.70    2.30
  -3  -1  -9   23.60    1.90
  -3  -1  -9   24.30    3.70
  -3  -1  -9   25.00    1.90
   4  -2  -9   70.59    4.70
   3  -2  -9   99.49    6.40
   3  -2  -9  100.09    7.80
  -3   2   9   88.89    6.20
   2  -2  -9  294.47   18.20
   2  -2  -9  279.57   18.00
   2  -2  -9  283.87   19.40
   2  -2  -9  299.77   18.10
  -2   2   9  283.87   18.10
   1  -2  -9   50.09    3.50
   1  -2  -9   47.20    3.60
   1  -2  -9   42.50    4.60
   0  -2  -9  214.88   13.50
   0  -2  -9  213.68   13.20
   0  -2  -9  212.68   14.90
   0  -2  -9  204.08   13.00
  -1  -2  -9  125.39    9.60
  -1  -2  -9  119.79    7.70
  -1  -2  -9  125.49    7.80
  -1  -2  -9  113.79    8.00
  -2  -2  -9    0.50    1.40
  -2  -2  -9    0.10    0.50
  -2  -2  -9    0.50    0.50
  -2  -2  -9    0.30    0.80
  -3  -2  -9   58.39    4.10
  -3  -2  -9   60.69    3.70
  -3  -2  -9   54.29    3.80
   4  -3  -9  113.89    7.50
   4  -3  -9  122.49    7.50
   3  -3  -9   86.29    5.70
   3  -3  -9   88.09    5.70
  -3   3   9   86.29    5.70
   2  -3  -9   49.30    3.40
   2  -3  -9   49.20    3.60
   2  -3  -9   47.20    3.40
  -2   3   9   42.50    3.50
   1  -3  -9  233.68   14.20
   1  -3  -9  211.78   13.70
   0  -3  -9   23.00    1.90
   0  -3  -9   21.80    2.10
  -1  -3  -9   46.80    3.20
  -1  -3  -9   44.60    3.10
  -1  -3  -9   45.00    3.50
  -2  -3  -9   64.09    4.00
  -2  -3  -9   63.89    4.40
  -2  -3  -9   56.39    4.00
   3  -4  -9   87.19    5.60
   3  -4  -9   93.09    5.80
  -3   4   9   92.39    5.80
   2  -4  -9  114.09    7.40
   2  -4  -9  120.29    7.60
  -2   4   9  114.49    7.60
   1  -4  -9   12.00    1.50
   0  -4  -9  164.68   10.20
   0  -4  -9  160.78   10.40
  -1  -4  -9   21.20    1.60
  -2  -4  -9    9.90    0.80
   1  -5  -9   53.59    3.60
   0   8 -10    7.70    1.00
   0  -8  10    7.00    0.80
  -2  -7  10    2.10    0.50
  -2  -7  10    1.70    0.60
  -2  -7  10    1.70    0.50
  -2  -7  10    2.00    0.40
   1   7 -10   41.40    3.30
  -1  -7  10   45.00    3.10
  -1  -7  10   50.49    3.30
  -1  -7  10   50.49    3.20
   0   7 -10   19.70    1.90
   0  -7  10   20.40    1.60
  -1   7 -10    3.80    1.10
  -1   7 -10    5.50    0.80
  -2   7 -10   27.10    2.20
  -2   7 -10   26.30    1.90
  -3  -6  10   63.39    4.20
  -3  -6  10   62.19    4.20
  -3  -6  10   62.09    4.00
  -3  -6  10   66.19    4.10
  -2  -6  10  164.88   11.00
  -2  -6  10  176.48   11.00
  -2  -6  10  176.18   10.80
  -2  -6  10  162.28   10.80
  -2  -6  10  180.48   10.70
   1   6 -10    7.50    1.30
  -1  -6  10   10.00    1.30
  -1  -6  10    9.30    1.30
  -1  -6  10    8.90    1.00
   0   6 -10   80.39    5.50
   0  -6  10   80.19    5.20
  -1   6 -10   27.60    2.30
  -1   6 -10   27.70    2.90
  -2   6 -10    0.30    0.50
  -2   6 -10    1.40    0.90
  -2   6 -10    0.90    0.70
  -4  -5  10   50.49    3.60
  -4  -5  10   56.09    3.50
  -4  -5  10   55.09    3.40
  -3  -5  10   26.30    2.00
  -3  -5  10   27.30    1.80
  -3  -5  10   22.60    2.10
  -3  -5  10   23.60    2.00
  -3  -5  10   24.70    2.20
  -2  -5  10  104.89    6.80
  -2  -5  10  113.29   10.40
  -2  -5  10  105.19    6.70
  -2  -5  10   99.79    6.50
  -2  -5  10   93.39    6.90
  -2  -5  10  105.19    6.90
   1   5 -10   96.79    6.80
  -1  -5  10  109.19    6.70
  -1  -5  10  100.19    6.60
   0   5 -10   13.80    1.70
   0  -5  10   13.40    1.30
  -1   5 -10  127.69    8.90
  -1   5 -10  135.09    8.50
   1  -5  10  132.49    8.20
  -2   5 -10   34.30    3.00
  -2   5 -10   40.00    3.40
  -2   5 -10   38.30    2.80
   2  -5  10   42.60    2.70
  -3   5 -10    4.40    1.00
   3  -5  10    4.20    0.60
   4   4 -10   12.20    1.40
  -4  -4  10   10.80    1.10
  -4  -4  10   10.70    1.10
  -4  -4  10    9.80    1.20
  -4  -4  10   10.00    0.90
   3   4 -10  177.18   11.80
  -3  -4  10  179.58   11.60
  -3  -4  10  176.98   11.70
  -3  -4  10  189.78   11.50
  -3  -4  10  185.88   11.60
  -3  -4  10  186.58   11.30
  -2  -4  10  116.89    7.50
  -2  -4  10  117.09    7.60
   1   4 -10  121.29    8.00
  -1  -4  10  124.99    8.90
  -1  -4  10  124.79    7.90
   0   4 -10  314.67   20.40
   0   4 -10  320.07   20.20
   0  -4  10  325.97   21.10
   0  -4  10  336.07   19.90
  -1   4 -10    2.60    1.10
  -1   4 -10    3.40    0.90
   1  -4  10    2.50    0.60
  -2   4 -10   55.49    3.70
  -2   4 -10   56.39    4.30
  -2   4 -10   50.99    3.90
   2  -4  10   57.59    3.80
  -3   4 -10   36.40    2.90
   3  -4  10   32.90    2.40
   4   3 -10  129.69    7.90
  -4  -3  10  117.59    7.90
  -4  -3  10  122.29    7.60
  -4  -3  10  123.39    7.70
  -4  -3  10  122.69    7.80
  -4  -3  10  121.39    8.00
   3   3 -10    4.40    1.10
  -3  -3  10    5.90    0.90
  -3  -3  10    9.10    1.10
  -3  -3  10    6.80    1.60
   2   3 -10  236.18   14.70
  -2  -3  10  228.28   14.20
  -2  -3  10  229.88   14.30
  -2  -3  10  218.58   15.20
   1   3 -10   31.60    3.00
  -1  -3  10   29.80    3.30
  -1  -3  10   38.80    2.30
   0   3 -10    5.20    1.00
   0   3 -10    4.20    1.10
   0  -3  10    4.10    1.20
  -1   3 -10  276.67   16.00
  -1   3 -10  249.78   16.40
  -1   3 -10  252.47   16.20
   1  -3  10  239.88   16.80
   1  -3  10  263.77   16.00
  -2   3 -10   16.40    1.60
  -2   3 -10   15.00    2.20
  -2   3 -10   14.90    1.50
   2  -3  10   16.10    1.50
  -3   3 -10   56.69    4.10
   4   2 -10  180.88   10.50
  -4  -2  10  147.39   10.50
  -4  -2  10  171.98   10.40
  -4  -2  10  160.18   10.30
   3   2 -10  300.37   18.30
   3   2 -10  296.57   18.20
   3   2 -10  304.67   19.90
  -3  -2  10  279.37   18.10
  -3  -2  10  274.47   17.90
   2   2 -10    1.10    0.70
   2   2 -10    0.70    1.00
   2   2 -10    1.90    1.70
  -2  -2  10    2.70    1.20
  -2  -2  10    1.00    0.60
   1   2 -10  285.67   17.50
   1   2 -10  282.27   18.80
  -1  -2  10  262.37   18.00
  -1  -2  10  274.57   17.10
   0   2 -10  329.17   22.10
   0   2 -10  331.47   20.70
   0   2 -10  336.87   20.50
   0  -2  10  332.67   20.50
   0  -2  10  327.07   21.40
  -1   2 -10   40.20    3.60
  -1   2 -10   49.20    5.10
  -1   2 -10   42.10    3.40
  -1   2 -10   44.70    3.20
   1  -2  10   48.70    3.60
   1  -2  10   44.40    3.90
  -2   2 -10  121.19    8.00
  -2   2 -10  124.79    7.60
  -2   2 -10  117.79    7.50
  -2   2 -10  113.99    9.50
  -3   2 -10   14.30    1.20
  -3   2 -10   13.40    1.70
   4   1 -10   33.70    4.10
   4   1 -10   37.00    2.70
  -4  -1  10   34.90    2.40
  -4  -1  10   33.10    2.60
   3   1 -10  213.38   13.50
   3   1 -10  213.48   13.60
   3   1 -10  224.78   15.30
  -3  -1  10  208.38   13.50
   2   1 -10  318.67   20.10
   2   1 -10  333.37   21.70
   2   1 -10  302.37   19.90
  -2  -1  10  315.37   19.90
  -2  -1  10  332.07   19.70
   1   1 -10   40.60    4.50
   1   1 -10   36.70    2.80
  -1  -1  10   28.60    2.50
   0   1 -10  132.59    8.60
   0   1 -10  133.09    8.80
   0   1 -10  137.89    8.80
   0   1 -10  148.69   10.50
   0  -1  10  126.89    8.70
  -1   1 -10  135.89    8.50
  -1   1 -10  127.59    8.80
  -1   1 -10  135.69    8.50
  -1   1 -10  133.59   10.30
  -2   1 -10    0.60    0.80
  -2   1 -10    2.40    1.80
  -2   1 -10    1.30    0.60
  -3   1 -10   84.79    5.60
  -3   1 -10   82.79    5.30
   4   0 -10  256.47   15.30
   4   0 -10  232.18   16.70
   3   0 -10   95.39    6.10
   3   0 -10   91.99    6.20
   3   0 -10   90.19    7.60
  -3   0  10   92.49    6.10
   2   0 -10  179.48   11.90
   2   0 -10  150.08   10.00
   2   0 -10  157.98   10.20
  -2   0  10  158.88   10.00
  -2   0  10  146.49    9.90
   1   0 -10  358.56   22.20
   1   0 -10  351.86   22.20
   1   0 -10  368.16   23.80
  -1   0  10  346.27   22.10
   0   0 -10   12.10    1.40
   0   0 -10   14.10    1.50
   0   0 -10   10.20    2.60
   0   0 -10   14.00    1.50
  -1   0 -10  215.18   14.30
  -1   0 -10  198.58   12.30
  -1   0 -10  189.88   12.20
  -1   0 -10  186.98   12.60
  -2   0 -10   65.69    6.00
  -2   0 -10   61.29    4.50
  -2   0 -10   61.69    4.10
  -3   0 -10    1.10    0.40
  -3   0 -10    0.70    0.60
   4  -1 -10    1.60    0.60
   3  -1 -10  231.78   15.10
   3  -1 -10  251.17   16.50
   3  -1 -10  239.48   15.00
   2  -1 -10  103.49    7.10
   2  -1 -10  106.59    8.60
   2  -1 -10  114.59    7.30
   2  -1 -10  110.09    7.30
  -2   1  10  112.49    7.10
   1  -1 -10   53.99    5.10
   1  -1 -10   54.19    3.70
   1  -1 -10   47.70    3.60
  -1   1  10   42.20    3.40
   0  -1 -10  256.27   17.50
   0  -1 -10  253.57   15.80
   0  -1 -10  258.87   15.90
   0  -1 -10  251.57   16.00
  -1  -1 -10   11.40    1.90
  -1  -1 -10   13.80    1.30
  -1  -1 -10   10.10    2.30
  -2  -1 -10   46.90    3.50
  -2  -1 -10   42.30    3.10
  -2  -1 -10   52.89    4.80
  -3  -1 -10   24.00    1.80
  -3  -1 -10   28.80    2.10
   4  -2 -10  136.49    8.60
   3  -2 -10    0.00    0.60
   3  -2 -10    0.80    0.60
  -3   2  10    0.60    0.40
   2  -2 -10  185.18   12.20
   2  -2 -10  197.68   12.30
   2  -2 -10  195.38   13.50
   2  -2 -10  205.58   12.50
  -2   2  10  195.38   12.30
   1  -2 -10  200.68   12.50
   1  -2 -10  199.08   12.30
   1  -2 -10  189.78   13.60
   0  -2 -10   23.90    2.00
   0  -2 -10   26.50    3.20
   0  -2 -10   21.00    1.80
  -1  -2 -10  176.38   12.20
  -1  -2 -10  175.48   11.00
  -2  -2 -10   14.90    1.30
  -2  -2 -10   15.80    1.60
   3  -3 -10   98.49    6.40
   3  -3 -10  101.19    6.30
  -3   3  10  102.19    6.30
   2  -3 -10    2.00    0.70
   2  -3 -10    1.40    0.50
   2  -3 -10    1.70    0.40
  -2   3  10    1.50    0.60
   1  -3 -10   93.99    6.20
   0  -3 -10   66.69    4.60
   0  -3 -10   70.09    4.40
  -1  -3 -10    3.90    0.60
  -2  -3 -10   49.10    3.20
   2  -4 -10   75.99    5.20
   1  -4 -10    6.50    0.90
   0  -4 -10   62.89    4.20
   0   7 -11   19.60    1.50
  -1   7 -11    3.60    0.50
   2   6 -11   79.79    5.50
  -2  -6  11   77.49    5.50
  -2  -6  11   82.99    5.20
  -2  -6  11   87.59    5.20
   1   6 -11   27.60    2.30
   1   6 -11   27.70    2.00
   0   6 -11   37.80    2.70
  -1   6 -11   77.39    5.10
  -1   6 -11   82.59    5.40
  -2   6 -11    0.70    0.30
  -2   6 -11    0.60    0.60
   3   5 -11   67.69    4.50
   3   5 -11   65.59    4.60
  -3  -5  11   73.19    4.40
  -3  -5  11   67.89    4.50
  -3  -5  11   66.19    4.50
  -3  -5  11   73.49    4.30
   2   5 -11    8.00    1.30
  -2  -5  11   12.60    1.20
  -2  -5  11   13.50    1.20
   1   5 -11   92.29    6.30
   1   5 -11  103.89    6.60
   0   5 -11    3.40    1.20
   0   5 -11    3.10    0.80
  -1   5 -11    1.10    0.80
  -1   5 -11    1.50    1.10
  -1   5 -11    0.70    0.60
  -2   5 -11   62.79    4.00
  -2   5 -11   56.89    4.00
  -2   5 -11   66.39    4.30
   2  -5  11   60.79    3.80
   3   4 -11  132.29    8.60
   3   4 -11  135.19    8.70
  -3  -4  11  138.19    8.50
  -3  -4  11  135.69    8.50
   2   4 -11  157.98   10.70
  -2  -4  11  167.98   10.30
  -2  -4  11  168.38   10.40
   1   4 -11    3.60    1.00
   0   4 -11  107.09    7.00
   0   4 -11  111.29    7.20
  -1   4 -11   70.99    5.10
  -1   4 -11   76.39    4.80
  -1   4 -11   65.39    5.00
   1  -4  11   79.89    4.70
  -2   4 -11   17.20    1.40
  -2   4 -11   18.10    1.50
  -2   4 -11   17.20    1.90
   2  -4  11   19.20    1.40
  -3   4 -11   26.10    2.00
   4   3 -11  116.89    7.10
  -4  -3  11  111.99    7.10
  -4  -3  11  109.89    7.00
   3   3 -11   24.20    2.10
   3   3 -11   26.00    2.20
  -3  -3  11   27.40    1.90
  -3  -3  11   24.70    2.00
   2   3 -11  166.78   10.80
   2   3 -11  167.18   11.00
  -2  -3  11  177.28   10.70
   1   3 -11  205.28   13.10
   0   3 -11    9.20    1.20
   0   3 -11   12.10    1.50
   0  -3  11   12.80    1.10
  -1   3 -11   67.69    4.90
  -1   3 -11   68.39    4.80
  -1   3 -11   71.39    4.60
   1  -3  11   71.89    4.60
  -2   3 -11   38.40    2.60
  -2   3 -11   37.30    3.00
  -2   3 -11   38.50    2.60
   2  -3  11   40.10    2.70
  -3   3 -11    0.80    0.60
   4   2 -11   12.30    1.20
  -4  -2  11   12.80    1.20
   3   2 -11  263.17   16.50
   3   2 -11  260.07   16.60
   3   2 -11  275.37   17.70
  -3  -2  11  262.27   16.40
   2   2 -11   56.39    4.00
   2   2 -11   55.69    5.10
   2   2 -11   54.69    3.80
  -2  -2  11   53.99    3.70
   1   2 -11  155.98   10.80
   1   2 -11  149.09    9.50
  -1  -2  11  137.69    9.10
   0   2 -11  246.38   14.90
   0   2 -11  241.28   16.10
   0   2 -11  232.18   14.70
   0   2 -11  221.78   14.90
   0  -2  11  240.38   14.70
  -1   2 -11    1.10    1.30
  -1   2 -11    0.60    0.60
  -1   2 -11    1.30    0.70
   1  -2  11    1.60    0.50
  -2   2 -11   97.69    6.50
  -2   2 -11   97.99    6.20
  -3   2 -11   19.40    1.40
  -3   2 -11   21.10    1.80
   4   1 -11   86.19    5.50
   3   1 -11    6.00    1.00
   3   1 -11    7.40    1.90
   3   1 -11    5.90    0.90
  -3  -1  11    8.00    0.90
   2   1 -11  217.98   14.20
   2   1 -11  235.48   15.60
   2   1 -11  227.68   14.40
  -2  -1  11  229.48   14.20
   1   1 -11   50.49    4.60
   1   1 -11   56.29    4.00
   1   1 -11   54.89    5.30
  -1  -1  11   60.29    3.80
   0   1 -11   29.40    2.30
   0   1 -11   31.70    2.40
   0   1 -11   36.30    4.00
   0   1 -11   27.70    2.40
   0  -1  11   29.10    2.30
  -1   1 -11  143.79    8.90
  -1   1 -11  135.89    8.90
  -1   1 -11  147.19   10.40
  -2   1 -11    1.80    0.80
  -2   1 -11    4.10    0.60
  -3   1 -11   23.60    1.80
  -3   1 -11   28.20    2.00
   4   0 -11  107.69    6.80
   3   0 -11  203.78   12.80
   3   0 -11  207.38   12.70
   3   0 -11  200.88   13.90
   2   0 -11    6.80    1.90
   2   0 -11    4.90    1.00
   2   0 -11    5.10    0.90
  -2   0  11    4.00    0.60
   1   0 -11  212.58   13.40
   1   0 -11  225.38   14.80
   1   0 -11  208.18   13.40
  -1   0  11  206.48   13.30
   0   0 -11  138.69    9.30
   0   0 -11  156.78   10.90
   0   0 -11  144.59    9.30
   0   0 -11  150.68    9.50
   0   0  11  150.08    9.40
  -1   0 -11   25.80    3.20
  -1   0 -11   20.00    1.70
  -2   0 -11   78.79    5.20
  -2   0 -11   86.39    5.50
   3  -1 -11  109.39    7.40
   3  -1 -11  118.79    7.30
   3  -1 -11  117.69    7.40
   2  -1 -11  154.78   10.00
   2  -1 -11  160.08   11.20
   2  -1 -11  156.68   10.10
  -2   1  11  162.48    9.90
   1  -1 -11    7.50    1.00
   1  -1 -11    7.10    1.70
   1  -1 -11    4.90    0.80
  -1   1  11    5.50    0.80
   0  -1 -11  124.59    8.10
   0  -1 -11  117.59    7.90
   0  -1 -11  139.09    9.30
  -1  -1 -11   52.69    3.50
  -2  -1 -11    4.60    0.60
  -2  -1 -11    4.70    0.80
   3  -2 -11   23.40    1.80
   3  -2 -11   25.90    1.80
   2  -2 -11   87.09    5.50
   2  -2 -11   80.39    5.30
  -2   2  11   85.39    5.40
   1  -2 -11  130.49    8.40
  -1   2  11  132.79    8.40
   0  -2 -11    3.20    0.70
   0  -2 -11    3.80    0.60
  -1  -2 -11   80.09    5.10
   1  -3 -11   14.20    1.20
   0   6 -12    2.30    0.40
  -1   6 -12   25.40    1.90
   2   5 -12   10.20    1.10
   1   5 -12   63.39    4.20
   0   5 -12   55.99    3.60
  -1   5 -12    2.50    0.40
  -1   5 -12    1.70    0.50
   2   4 -12  143.69    9.10
   1   4 -12   15.60    1.50
   0   4 -12   55.29    3.60
  -1   4 -12   77.79    4.70
  -1   4 -12   71.09    4.80
  -2   4 -12    0.00    0.30
   3   3 -12   51.69    3.60
   3   3 -12   56.89    3.60
  -3  -3  12   54.89    3.50
   2   3 -12    9.40    1.20
   1   3 -12  128.29    8.20
   0   3 -12    9.90    1.20
   0   3 -12   10.20    1.30
   0   3 -12   10.10    1.10
   0  -3  12   13.00    0.90
  -1   3 -12   14.60    1.30
  -1   3 -12   14.80    1.30
   1  -3  12   15.70    1.20
  -2   3 -12   42.70    2.80
  -2   3 -12   42.70    3.00
   2  -3  12   44.40    2.80
   3   2 -12  124.59    7.60
   3   2 -12  116.09    7.60
  -3  -2  12  121.69    7.60
   2   2 -12  144.69    9.20
   1   2 -12   10.60    2.10
   1   2 -12    7.80    1.10
   0   2 -12  106.09    6.80
   0   2 -12  106.39    8.90
   0   2 -12  100.19    6.80
   0   2 -12  104.49    6.70
   0  -2  12  110.79    6.70
  -1   2 -12   49.80    3.30
  -1   2 -12   49.70    3.20
   1  -2  12   51.49    3.30
  -2   2 -12   13.10    1.30
  -2   2 -12   12.10    1.00
   3   1 -12    5.30    0.70
   3   1 -12    4.60    0.70
   2   1 -12  141.29    9.00
   1   1 -12  121.39    8.10
   1   1 -12  130.79    9.20
   1   1 -12  127.09    8.20
  -1  -1  12  132.09    8.00
   0   1 -12    4.80    1.60
   0   1 -12    3.90    0.70
   0   1 -12    4.00    0.60
   0  -1  12    4.00    0.60
  -1   1 -12   84.59    5.20
   1  -1  12   78.59    5.20
  -2   1 -12   19.80    1.40
   2   0 -12   16.90    1.50
   2   0 -12   19.10    1.50
   1   0 -12  107.79    7.00
   1   0 -12  111.09    7.10
  -1   0  12  113.99    7.00
   0   0 -12  110.59    7.00
   0   0 -12  105.39    6.80
   0   0  12  112.19    6.90
  -1   0 -12    0.40    0.40
   1   0  12    0.90    0.40
   2  -1 -12  137.69    8.60
   2  -1 -12  139.29    8.70
   1  -1 -12    7.30    0.90
  -1   1  12    8.70    0.80
   0  -1 -12   14.20    1.20
   0  -1 -12   15.00    1.30
   0   1  12   12.30    1.10
  -1  -1 -12   59.49    3.80
   0   4 -13    5.50    0.60
   1   3 -13   77.29    5.00
   0   3 -13   44.10    2.80
   0   3 -13   42.50    2.90
  -1   3 -13    0.30    0.30
   2   2 -13  165.58   10.30
   1   2 -13    7.40    0.80
   1   2 -13    6.50    0.80
   0   2 -13   63.29    4.10
   0   2 -13   66.59    4.10
  -1   2 -13   43.10    2.80
   1   1 -13  104.09    6.60
   1   1 -13  107.99    6.70
   0   1 -13    0.50    0.30

_computing_structure_solution     'SHELXT 2014/4 (Sheldrick, 2014)'
;
_shelx_hkl_checksum              67781
loop_
_space_group_symop_operation_xyz
'x, y, z'
'-x, -y, -z'
loop_
_atom_site_type_symbol
_atom_site_label
_atom_site_fract_x
_atom_site_fract_y
_atom_site_fract_z
_atom_site_U_iso_or_equiv
_atom_site_adp_type
_atom_site_calc_flag
_atom_site_refinement_flags_adp
_atom_site_refinement_flags_occupancy
_atom_site_refinement_flags_posn
_atom_site_occupancy
_atom_site_disorder_assembly
_atom_site_disorder_group
C C1 0.4451(8) 0.7302(6) 0.5116(4) 0.0427(9) Uani d . . . 1 . .
C C2 0.3174(8) 0.7145(6) 0.6102(5) 0.0464(9) Uani d . . . 1 . .
H H2 0.1662 0.6445 0.5939 0.056 Uiso calc U . R 1 . .
C C3 0.4123(10) 0.8010(6) 0.7310(5) 0.0470(10) Uani d . . . 1 . .
C C4 0.6323(11) 0.9038(8) 0.7575(5) 0.0555(12) Uani d . . . 1 . .
H H4 0.6927 0.9658 0.8413 0.067 Uiso calc U . R 1 . .
C C5 0.7635(11) 0.9153(9) 0.6605(6) 0.0621(14) Uani d . . . 1 . .
H H5 0.9174 0.9819 0.6774 0.075 Uiso calc U . R 1 . .
C C6 0.6671(9) 0.8280(7) 0.5376(5) 0.0511(10) Uani d . . . 1 . .
H H6 0.7562 0.8363 0.4709 0.061 Uiso calc U . R 1 . .
C C7 0.3366(9) 0.6369(7) 0.3809(5) 0.0515(11) Uani d . . . 1 . .
O O8 0.1383(8) 0.5554(8) 0.3572(4) 0.0808(14) Uani d . . . 1 . .
C C9 0.4774(11) 0.6519(8) 0.2819(5) 0.0534(12) Uani d . . . 1 . .
C C10 0.6009(11) 0.6679(7) 0.2032(5) 0.0519(11) Uani d . . . 1 . .
I I11 0.81612(5) 0.70354(4) 0.07821(2) 0.05255(19) Uani d . . . 1 . .
C C12 0.2776(11) 0.7893(7) 0.8330(5) 0.0555(12) Uani d . . . 1 . .
N N13 0.1710(11) 0.7830(8) 0.9131(5) 0.0740(18) Uani d . . . 1 . .
loop_
_atom_site_aniso_label
_atom_site_aniso_U_11
_atom_site_aniso_U_22
_atom_site_aniso_U_33
_atom_site_aniso_U_12
_atom_site_aniso_U_13
_atom_site_aniso_U_23
C1 0.041(2) 0.046(2) 0.043(2) 0.0025(19) 0.0136(17) 0.0132(17)
C2 0.040(2) 0.052(2) 0.049(2) 0.000(2) 0.0172(16) 0.0146(17)
C3 0.053(3) 0.045(2) 0.047(2) 0.007(2) 0.0188(19) 0.0128(17)
C4 0.056(3) 0.064(3) 0.046(2) 0.004(3) 0.014(2) 0.010(2)
C5 0.050(3) 0.070(3) 0.063(3) -0.009(3) 0.012(2) 0.015(3)
C6 0.045(2) 0.058(2) 0.054(2) 0.002(2) 0.0191(19) 0.016(2)
C7 0.046(3) 0.062(3) 0.046(2) -0.005(2) 0.0115(19) 0.015(2)
O8 0.063(3) 0.114(4) 0.055(2) -0.034(3) 0.0096(18) 0.015(2)
C9 0.053(3) 0.064(3) 0.044(3) 0.001(2) 0.015(2) 0.013(2)
C10 0.059(3) 0.049(2) 0.046(2) 0.002(2) 0.012(2) 0.0092(19)
I11 0.0581(3) 0.0568(3) 0.0427(3) 0.00084(18) 0.01850(16) 0.00940(16)
C12 0.059(3) 0.060(3) 0.050(3) 0.006(2) 0.019(2) 0.014(2)
N13 0.085(4) 0.085(4) 0.058(4) 0.007(4) 0.031(3) 0.020(3)
loop_
_atom_type_symbol
_atom_type_description
_atom_type_scat_dispersion_real
_atom_type_scat_dispersion_imag
_atom_type_scat_source
C C 0.0181 0.0091 'International Tables Vol C Tables 4.2.6.8 and 6.1.1.4'
H H 0.0000 0.0000 'International Tables Vol C Tables 4.2.6.8 and 6.1.1.4'
I I -0.3257 6.8362 'International Tables Vol C Tables 4.2.6.8 and 6.1.1.4'
N N 0.0311 0.0180 'International Tables Vol C Tables 4.2.6.8 and 6.1.1.4'
O O 0.0492 0.0322 'International Tables Vol C Tables 4.2.6.8 and 6.1.1.4'
loop_
_geom_angle_atom_site_label_1
_geom_angle_atom_site_label_2
_geom_angle_atom_site_label_3
_geom_angle_site_symmetry_1
_geom_angle_site_symmetry_3
_geom_angle
_geom_angle_publ_flag
C6 C1 C2 . . 119.3(4) ?
C6 C1 C7 . . 122.2(4) ?
C2 C1 C7 . . 118.5(4) ?
C3 C2 C1 . . 119.5(5) ?
C3 C2 H2 . . 120.3 ?
C1 C2 H2 . . 120.3 ?
C2 C3 C4 . . 121.5(5) ?
C2 C3 C12 . . 119.7(5) ?
C4 C3 C12 . . 118.8(5) ?
C3 C4 C5 . . 119.3(5) ?
C3 C4 H4 . . 120.4 ?
C5 C4 H4 . . 120.4 ?
C4 C5 C6 . . 119.3(6) ?
C4 C5 H5 . . 120.4 ?
C6 C5 H5 . . 120.4 ?
C1 C6 C5 . . 121.1(5) ?
C1 C6 H6 . . 119.4 ?
C5 C6 H6 . . 119.4 ?
O8 C7 C9 . . 120.8(5) ?
O8 C7 C1 . . 122.4(5) ?
C9 C7 C1 . . 116.8(5) ?
C10 C9 C7 . . 177.6(6) ?
C9 C10 I11 . . 177.3(5) ?
C10 I11 N13 . 1_654 174.1(2) ?
N13 C12 C3 . . 178.8(6) ?
loop_
_geom_bond_atom_site_label_1
_geom_bond_atom_site_label_2
_geom_bond_site_symmetry_2
_geom_bond_distance
_geom_bond_publ_flag
C1 C6 . 1.376(7) ?
C1 C2 . 1.397(6) ?
C1 C7 . 1.495(7) ?
C2 C3 . 1.375(8) ?
C2 H2 . 0.95 ?
C3 C4 . 1.384(9) ?
C3 C12 . 1.446(7) ?
C4 C5 . 1.386(9) ?
C4 H4 . 0.95 ?
C5 C6 . 1.397(8) ?
C5 H5 . 0.95 ?
C6 H6 . 0.95 ?
C7 O8 . 1.210(7) ?
C7 C9 . 1.443(7) ?
C9 C10 . 1.196(9) ?
C10 I11 . 1.992(6) ?
I11 N13 1_654 2.981(5) ?
C12 N13 . 1.133(8) ?
