#------------------------------------------------------------------------------
#$Date: 2023-12-08 11:21:11 +0200 (Fri, 08 Dec 2023) $
#$Revision: 288177 $
#$URL: file:///home/coder/svn-repositories/cod/cif/7/24/49/7244923.cif $
#------------------------------------------------------------------------------
#
# This file is available in the Crystallography Open Database (COD),
# http://www.crystallography.net/
#
# All data on this site have been placed in the public domain by the
# contributors.
#
data_7244923
loop_
_publ_author_name
'Lopes, Gon\,calo'
'Gama, Vasco Pires Silva da'
'Santos, Isabel Cordeiro'
'Branco Lopes, Elsa'
'Brotas, Gra\,ca'
'Pereira, Laura C. J.'
'Cerdeira, Ana C.'
'Paix\~ao, Jos\'e Ant\'onio'
'Raba\,ca, Sandra'
'Almeida, Manuel'
_publ_section_title
;
 Bilayer conducting salts with polymeric anions
;
_journal_name_full               CrystEngComm
_journal_paper_doi               10.1039/D2CE00515H
_journal_year                    2022
_chemical_formula_sum            'C27 H14 Ag0.5 N4 S12'
_chemical_formula_weight         833.08
_space_group_crystal_system      triclinic
_space_group_IT_number           2
_space_group_name_Hall           '-P 1'
_space_group_name_H-M_alt        'P -1'
_atom_sites_solution_hydrogens   geom
_audit_creation_method           SHELXL-2014/7
_audit_update_record
;
2022-03-28 deposited with the CCDC.	2022-05-13 downloaded from the CCDC.
;
_cell_angle_alpha                89.421(5)
_cell_angle_beta                 86.821(6)
_cell_angle_gamma                85.326(6)
_cell_formula_units_Z            1
_cell_length_a                   4.9247(5)
_cell_length_b                   5.8358(6)
_cell_length_c                   27.238(3)
_cell_measurement_reflns_used    3324
_cell_measurement_temperature    150(2)
_cell_measurement_theta_max      27.06
_cell_measurement_theta_min      3.00
_cell_volume                     778.99(14)
_computing_cell_refinement       'Bruker SAINT'
_computing_data_collection       'Bruker APEX2'
_computing_data_reduction        'Bruker SAINT'
_computing_structure_refinement  'SHELXL-2014/7 (Sheldrick, 2014)'
_computing_structure_solution    'SHELXS-97 (Sheldrick 2008)'
_diffrn_ambient_temperature      150(2)
_diffrn_measured_fraction_theta_full 0.995
_diffrn_measured_fraction_theta_max 0.995
_diffrn_measurement_device_type  'Bruker APEX-II CCD'
_diffrn_measurement_method       '\f and \w scans'
_diffrn_radiation_type           MoK\a
_diffrn_radiation_wavelength     0.71073
_diffrn_reflns_av_R_equivalents  0.0341
_diffrn_reflns_av_unetI/netI     0.0418
_diffrn_reflns_Laue_measured_fraction_full 0.995
_diffrn_reflns_Laue_measured_fraction_max 0.995
_diffrn_reflns_limit_h_max       5
_diffrn_reflns_limit_h_min       -5
_diffrn_reflns_limit_k_max       6
_diffrn_reflns_limit_k_min       -7
_diffrn_reflns_limit_l_max       33
_diffrn_reflns_limit_l_min       -33
_diffrn_reflns_number            7628
_diffrn_reflns_point_group_measured_fraction_full 0.995
_diffrn_reflns_point_group_measured_fraction_max 0.995
_diffrn_reflns_theta_full        25.242
_diffrn_reflns_theta_max         25.679
_diffrn_reflns_theta_min         3.503
_exptl_absorpt_coefficient_mu    1.176
_exptl_absorpt_correction_T_max  0.954
_exptl_absorpt_correction_T_min  0.816
_exptl_absorpt_correction_type   multi-scan
_exptl_absorpt_process_details   sadabs
_exptl_crystal_colour            brown
_exptl_crystal_density_diffrn    1.776
_exptl_crystal_description       plate
_exptl_crystal_F_000             420
_exptl_crystal_size_max          0.180
_exptl_crystal_size_mid          0.160
_exptl_crystal_size_min          0.040
_refine_diff_density_max         3.600
_refine_diff_density_min         -1.014
_refine_diff_density_rms         0.242
_refine_ls_extinction_method     none
_refine_ls_goodness_of_fit_ref   1.053
_refine_ls_hydrogen_treatment    constr
_refine_ls_matrix_type           full
_refine_ls_number_parameters     205
_refine_ls_number_reflns         2908
_refine_ls_number_restraints     19
_refine_ls_restrained_S_all      1.054
_refine_ls_R_factor_all          0.1139
_refine_ls_R_factor_gt           0.1021
_refine_ls_shift/su_max          0.000
_refine_ls_shift/su_mean         0.000
_refine_ls_structure_factor_coef Fsqd
_refine_ls_weighting_details
'w=1/[\s^2^(Fo^2^)+(0.1932P)^2^+8.7952P] where P=(Fo^2^+2Fc^2^)/3'
_refine_ls_weighting_scheme      calc
_refine_ls_wR_factor_gt          0.3053
_refine_ls_wR_factor_ref         0.3151
_reflns_Friedel_coverage         0.000
_reflns_number_gt                2434
_reflns_number_total             2908
_reflns_threshold_expression     'I > 2\s(I)'
_cod_data_source_file            d2ce00515h2.cif
_cod_data_source_block           Comp2_S129AgC2N2XH2O
_cod_original_cell_volume        779.00(14)
_cod_original_formula_sum        'C27 H14 Ag0.50 N4 S12'
_cod_database_code               7244923
_shelx_shelxl_version_number     2014/7
_shelx_space_group_comment
;
The symmetry employed for this shelxl refinement is uniquely defined
by the following loop, which should always be used as a source of
symmetry information in preference to the above space-group names.
They are only intended as comments.
;
_shelx_estimated_absorpt_t_min   0.816
_shelx_estimated_absorpt_t_max   0.954
_shelx_res_file
;

    shelx.res created by SHELXL-2014/7

TITL Ag2CN_a.res in P-1
CELL  0.71073   4.9247   5.8358  27.2384   89.421   86.821   85.326
ZERR     1.00   0.0005   0.0006   0.0026    0.005    0.006    0.006
LATT   1
SFAC  C    AG   N    S    H
UNIT  27 0.5 4 12 14
MERG   2
OMIT     0.00 180.00
OMIT     0   1   5
OMIT     0   0   2
OMIT     0   0   8
Shel 7 0.82
DFIX  1.150 0.020 N3 C14
ISOR  0.001 N2 N3 C14
EADP  N2 N3
FMAP   2
PLAN    5
SIZE     0.040   0.160   0.180
ACTA
BOND   $H
L.S.  50
TEMP  -123.00
WGHT    0.193200    8.795200
FVAR       0.48567
AG1   2    0.500000    0.500000    0.500000    10.25000    0.03745    0.37119 =
         0.07684   -0.15106   -0.01429    0.01079
C14   1    0.514858    0.787191    0.495440    10.50000    0.08594    0.08655 =
         0.08613   -0.00008   -0.00471   -0.00688
N2    3    0.083641    0.512574    0.495180    10.50000    0.10379    0.10404 =
         0.10367   -0.00056   -0.00576   -0.00839
N3    3    0.500000    1.000000    0.500000    10.50000    0.10379    0.10404 =
         0.10367   -0.00056   -0.00576   -0.00839
S1    4    1.118436    1.187877    0.321423    11.00000    0.03241    0.02999 =
         0.03911   -0.00331   -0.01212   -0.01026
S2    4    0.896039    0.705852    0.385010    11.00000    0.04115    0.03453 =
         0.02524    0.00165   -0.01164   -0.00634
S3    4    0.780001    1.045949    0.243915    11.00000    0.02576    0.02351 =
         0.02578    0.00249   -0.00675   -0.00757
S4    4    0.590726    0.639943    0.296781    11.00000    0.02928    0.02447 =
         0.02341    0.00219   -0.00753   -0.00901
S5    4    0.420147    0.933214    0.152222    11.00000    0.02681    0.02041 =
         0.02204    0.00207   -0.00588   -0.00703
S6    4    0.241998    0.520506    0.205545    11.00000    0.02825    0.02138 =
         0.02156    0.00422   -0.00835   -0.00760
N1    3   -0.503174    0.250211    0.042741    11.00000    0.04505    0.02915 =
         0.04025    0.00316   -0.01271   -0.01501
C1    1    1.196274    1.092313    0.381604    11.00000    0.05217    0.04340 =
         0.04597   -0.00526   -0.01819   -0.00755
AFIX  23
H1A   5    1.357882    0.979663    0.378968    11.00000   -1.20000
H1B   5    1.246752    1.225353    0.400393    11.00000   -1.20000
AFIX   0
C2    1    0.970669    0.983635    0.410220    11.00000    0.05722    0.06017 =
         0.03716   -0.01749   -0.00986   -0.01156
AFIX  23
H2A   5    0.803375    1.089984    0.410486    11.00000   -1.20000
H2B   5    1.021721    0.960602    0.444673    11.00000   -1.20000
AFIX   0
C3    1    0.906520    0.983945    0.301795    11.00000    0.02283    0.02374 =
         0.02524   -0.00547   -0.00491   -0.00305
C4    1    0.819694    0.801344    0.325988    11.00000    0.02251    0.02360 =
         0.02386   -0.00001   -0.00683   -0.00465
C5    1    0.580808    0.807322    0.243262    11.00000    0.02686    0.02131 =
         0.01774    0.00010   -0.00447   -0.00144
C6    1    0.431857    0.762343    0.205907    11.00000    0.02166    0.01417 =
         0.02463    0.00317   -0.00110   -0.00255
C7    1    0.193672    0.772492    0.122631    11.00000    0.02305    0.01693 =
         0.02003   -0.00161   -0.00556    0.00030
C8    1    0.109954    0.578864    0.148167    11.00000    0.02006    0.02140 =
         0.01823    0.00053   -0.00298   -0.00083
C9    1    0.104075    0.826651    0.076123    11.00000    0.02391    0.02105 =
         0.01943    0.00363   -0.00379   -0.00530
AFIX  43
H9    5    0.168154    0.954532    0.058451    11.00000   -1.20000
AFIX   0
C10   1   -0.070772    0.439385    0.127494    11.00000    0.01630    0.01919 =
         0.02190    0.00328   -0.00404   -0.00064
AFIX  43
H10   5   -0.128580    0.307335    0.144463    11.00000   -1.20000
AFIX   0
C11   1   -0.078964    0.692859    0.055835    11.00000    0.03441    0.02472 =
         0.02430    0.00236   -0.00770   -0.00682
AFIX  43
H11   5   -0.147312    0.731916    0.024640    11.00000   -1.20000
AFIX   0
C12   1   -0.163671    0.499116    0.081422    11.00000    0.02061    0.02532 =
         0.02443   -0.00337   -0.00712   -0.00477
C13   1   -0.354300    0.361418    0.059237    11.00000    0.03150    0.02454 =
         0.02363    0.00303   -0.00576   -0.00419
HKLF    4

REM  Ag2CN_a.res in P-1
REM R1 =  0.1021 for    2434 Fo > 4sig(Fo)  and  0.1139 for all    2908 data
REM    205 parameters refined using     19 restraints

END

WGHT      0.1932      8.7952

REM Highest difference peak  3.600,  deepest hole -1.014,  1-sigma level  0.242
Q1    1   0.4897  0.6448  0.4945  11.00000  0.05    3.60
Q2    1   0.5868  0.5362  0.4924  11.00000  0.05    3.37
Q3    1   0.5275  0.7100  0.4631  11.00000  0.05    2.66
Q4    1   0.0666  0.5643  0.4994  11.00000  0.05    1.32
Q5    1   1.1417  0.8884  0.4077  11.00000  0.05    0.91
;
_shelx_res_checksum              73445
_shelx_hkl_file
;
  -1   0   0    5.40    0.70
  -1   0   0    6.00    0.90
  -1   0   0    5.80    1.00
   1   0   0    5.20    0.70
   1   0   0    4.10    0.90
   1   0   0    5.50    0.90
  -2   0   0  265.07   10.90
  -2   0   0  267.17   10.90
   2   0   0  267.37   10.90
  -3   0   0  802.12   31.10
   3   0   0  841.92   31.20
  -4   0   0   33.60    3.90
   4   0   0   24.00    3.40
  -5   0   0    2.30    2.50
   5   0   0    3.20    2.30
  -6   0   0  142.39   10.60
   6   0   0  141.69   10.00
   6  -1   0   20.60    5.00
  -6   1   0   19.30    4.80
   5  -1   0   10.90    3.70
  -5   1   0   10.70    3.40
   4  -1   0    3.50    2.00
  -4   1   0    3.60    2.20
   3  -1   0  187.48    9.40
  -3   1   0  208.48    9.70
   2  -1   0   38.80    3.10
  -2   1   0   34.30    3.00
  -2   1   0   36.30    2.50
   1  -1   0  317.57   11.70
   1  -1   0  309.47   12.10
   1  -1   0  320.57   12.10
  -1   1   0  309.57   12.10
  -1   1   0  342.87   12.10
  -1   1   0  313.77   11.70
   0   1   0   36.70    1.70
  -1  -1   0   11.20    1.20
  -1  -1   0   11.10    1.20
  -1  -1   0   10.40    1.40
   1   1   0   10.70    1.10
  -2  -1   0  228.88    9.30
  -2  -1   0  206.38    9.20
  -2  -1   0  226.18    9.30
   2   1   0  241.88    9.30
  -3  -1   0  236.78   10.30
  -3  -1   0  225.88    9.60
   3   1   0  215.08    9.90
  -4  -1   0   10.90    2.90
   4   1   0   15.40    3.20
  -5  -1   0   70.69    6.30
   5   1   0   78.89    6.30
  -6  -1   0    4.10    3.50
   5  -2   0   -2.90    2.40
  -5   2   0   -1.90    2.70
   4  -2   0  310.37   14.90
  -4   2   0  314.67   14.80
   3  -2   0   23.00    3.50
  -3   2   0   20.20    3.00
   2  -2   0    1.80    1.10
  -2   2   0    0.50    1.20
  -2   2   0    0.60    0.90
   1  -2   0   30.20    2.30
   1  -2   0   29.50    1.80
   1  -2   0   28.90    2.20
  -1   2   0   31.20    1.80
  -1   2   0   30.50    2.30
   0   2   0   64.79    3.10
  -1  -2   0   10.40    1.70
  -2  -2   0  627.64   24.00
  -2  -2   0  604.84   23.20
  -2  -2   0  660.43   23.30
  -3  -2   0  112.19    6.60
  -3  -2   0  116.59    6.00
  -3  -2   0  113.79    6.20
   3   2   0  102.09    5.50
  -4  -2   0   29.40    3.60
  -4  -2   0   31.30    4.10
   4   2   0   28.00    3.40
  -5  -2   0  147.39    9.10
  -6  -2   0    8.20    3.40
   5  -3   0    5.70    3.50
  -5   3   0   -0.30    2.90
   4  -3   0    5.00    2.60
  -4   3   0    3.80    2.40
   3  -3   0    1.70    1.70
  -3   3   0    3.80    2.00
   2  -3   0    2.60    1.00
   2  -3   0    0.80    1.10
  -2   3   0    2.10    1.40
  -2   3   0    1.30    0.90
   1  -3   0  540.35   19.00
   1  -3   0  505.65   19.50
   1  -3   0  507.75   19.50
   0   3   0    1.30    1.00
  -1  -3   0   82.09    4.90
  -2  -3   0  291.27   11.50
  -2  -3   0  298.17   11.50
  -2  -3   0  309.27   13.10
  -3  -3   0  144.79    7.20
  -3  -3   0  160.58    7.40
  -3  -3   0  148.09    8.20
  -4  -3   0   13.00    3.10
  -4  -3   0    9.50    2.70
  -5  -3   0   64.99    5.70
   5  -4   0   -0.60    2.90
   4  -4   0  162.98   10.30
   3  -4   0   24.60    3.80
   3  -4   0   19.00    2.10
  -3   4   0   25.70    3.50
   2  -4   0    3.50    1.70
   2  -4   0    1.90    1.50
  -2   4   0    2.10    1.60
   1  -4   0   25.50    2.80
   1  -4   0   23.40    2.00
   1  -4   0   24.90    3.00
   1  -4   0   25.30    2.50
   0  -4   0  170.38    7.50
   0  -4   0  157.38    8.20
   0  -4   0  163.48    6.70
   0   4   0  164.48    7.10
  -1  -4   0  121.89    7.00
  -2  -4   0  209.88   10.20
  -2  -4   0  185.18    8.90
  -3  -4   0   74.39    4.50
  -3  -4   0   80.69    6.00
  -4  -4   0    3.90    1.90
  -4  -4   0    2.60    2.30
  -5  -4   0    9.70    3.30
  -5  -4   0   13.10    3.20
   4  -5   0   15.70    4.00
   3  -5   0    2.00    2.40
   2  -5   0   30.80    3.60
   2  -5   0   35.30    4.20
   1  -5   0  131.89    7.50
   1  -5   0  140.99    6.90
  -1   5   0  119.59    6.50
   0  -5   0   -0.40    1.10
   0  -5   0   -1.50    1.40
   0  -5   0   -0.50    0.80
   0   5   0    0.70    1.20
  -1  -5   0  260.07   12.70
  -2  -5   0    0.10    1.40
  -3  -5   0   10.70    3.20
  -3  -5   0    9.50    1.90
  -4  -5   0  254.17   13.70
  -4  -5   0  231.08   11.10
  -5  -5   0   39.90    5.00
   3  -6   0    2.30    2.70
   2  -6   0   16.40    3.20
   2  -6   0   13.80    3.10
   1  -6   0   13.90    3.20
   1  -6   0   16.30    2.70
   0  -6   0   16.70    3.60
   0  -6   0   25.80    3.30
   0  -6   0   20.90    2.50
  -1  -6   0   42.50    5.60
  -2  -6   0    5.90    2.40
  -3  -6   0    2.00    2.70
  -4  -6   0    9.30    2.50
   1  -7   0   33.90    5.20
   1  -7   0   36.80    4.30
   0  -7   0   96.79    7.90
  -1  -7   0  153.08   10.40
  -1  -7   1   18.60    4.30
   0  -7   1    5.60    2.90
   1  -7   1    3.70    2.80
   1  -7   1    0.70    1.90
  -4  -6   1   60.49    4.80
  -3  -6   1   58.99    7.00
  -2  -6   1   79.79    6.90
  -1  -6   1  167.88   10.10
   0  -6   1    0.50    1.50
   0  -6   1    3.60    2.20
   1  -6   1   72.29    5.00
   1  -6   1   80.09    6.10
   2  -6   1  148.69    8.60
   2  -6   1  146.69    8.50
   3  -6   1    3.60    2.90
  -4  -5   1   15.70    2.80
  -4  -5   1   15.60    3.60
  -3  -5   1   48.20    5.90
  -3  -5   1   39.30    3.10
  -2  -5   1   86.59    6.50
  -1  -5   1    0.40    1.60
   0   5  -1    4.30    1.30
   0  -5   1    5.50    1.70
   0  -5   1    4.00    2.00
  -1   5  -1    2.40    1.40
   1  -5   1    4.50    1.50
   1  -5   1    2.80    1.60
   1  -5   1    3.10    1.70
   2  -5   1   88.29    5.70
   2  -5   1   96.19    6.20
   3  -5   1   15.10    3.40
   4  -5   1   -1.70    2.30
  -5  -4   1  154.18    9.80
  -5  -4   1  128.99    8.50
  -4  -4   1   56.69    5.70
  -4  -4   1   68.19    5.00
  -3  -4   1   18.40    3.30
  -3  -4   1   18.70    2.50
  -2  -4   1 1160.58   44.00
  -1  -4   1   -0.10    1.10
   0   4  -1    2.40    0.90
   0  -4   1    3.60    1.50
   0  -4   1    2.10    1.10
   1  -4   1   28.80    2.60
   1  -4   1   28.90    2.40
   1  -4   1   35.30    2.80
  -2   4  -1   -2.30    1.20
   2  -4   1   -0.10    1.50
   2  -4   1   -0.60    1.20
   2  -4   1    0.00    1.20
  -3   4  -1   31.00    4.00
   3  -4   1   37.50    4.60
   3  -4   1   27.90    2.50
   4  -4   1  275.17   14.50
   5  -4   1    8.20    4.10
  -5  -3   1   -0.90    1.80
  -5  -3   1    0.30    1.70
  -4  -3   1    4.50    1.90
  -4  -3   1    5.60    2.40
  -3  -3   1    4.50    1.90
  -3  -3   1    3.90    1.60
  -3  -3   1    3.00    1.40
  -2  -3   1  572.84   21.20
  -2  -3   1  571.24   22.00
  -2  -3   1  553.14   22.70
  -2  -3   1  600.04   21.20
  -1  -3   1  202.08    9.20
   0   3  -1   25.00    1.90
   1  -3   1  491.95   17.70
   1  -3   1  457.65   18.00
   1  -3   1  477.55   18.10
  -2   3  -1   60.79    4.00
  -2   3  -1   58.89    3.50
   2  -3   1   56.49    4.20
   2  -3   1   63.99    3.40
  -3   3  -1    4.00    1.90
   3  -3   1   10.40    2.70
   3  -3   1    6.20    1.00
  -4   3  -1   11.00    3.40
   4  -3   1   17.30    3.60
  -5   3  -1    3.10    3.20
   5  -3   1    1.80    2.90
  -6  -2   1   37.20    5.80
  -5  -2   1   15.10    3.20
   4   2  -1  128.89    6.90
  -4  -2   1  120.79    7.30
  -4  -2   1  128.29    7.10
   3   2  -1   22.40    2.40
  -3  -2   1   22.50    2.70
  -3  -2   1   24.40    2.80
  -3  -2   1   25.40    3.00
  -2  -2   1  400.06   15.70
  -2  -2   1  385.36   14.90
  -2  -2   1  386.16   14.80
   0   2  -1  305.57   11.30
  -1   2  -1  128.99    5.50
  -1   2  -1  127.59    5.30
   1  -2   1  125.79    5.60
   1  -2   1  125.69    5.30
   1  -2   1  125.19    5.70
  -2   2  -1   22.60    2.80
  -2   2  -1   27.80    2.20
   2  -2   1   29.20    2.80
  -3   2  -1   52.29    4.40
   3  -2   1   44.90    4.20
  -4   2  -1    8.10    2.50
   4  -2   1    5.40    2.50
  -5   2  -1    8.40    3.20
   5  -2   1    6.70    3.10
  -6  -1   1   -1.10    2.50
   5   1  -1  120.09    7.80
  -5  -1   1  109.29    7.90
   4   1  -1    0.20    1.70
  -4  -1   1   -0.70    1.40
   3   1  -1  837.42   31.70
  -3  -1   1  858.51   31.90
  -3  -1   1  846.12   31.20
   2   1  -1    3.30    1.20
  -2  -1   1    2.00    1.10
  -2  -1   1    2.30    1.20
  -2  -1   1    2.70    1.10
   1   1  -1    7.70    0.90
  -1  -1   1    8.50    1.00
  -1  -1   1    7.20    1.00
  -1  -1   1    7.00    1.00
   0   1  -1  637.64   22.50
  -1   1  -1  499.35   18.50
  -1   1  -1  488.95   18.50
  -1   1  -1  519.75   18.30
   1  -1   1  507.35   18.20
   1  -1   1  494.65   18.50
   1  -1   1  514.35   18.60
  -2   1  -1   70.99    4.30
  -2   1  -1   69.29    3.70
   2  -1   1   67.49    4.20
  -3   1  -1 1098.79   41.20
   3  -1   1 1106.39   41.20
  -4   1  -1   71.79    5.90
   4  -1   1   79.99    6.00
  -5   1  -1    2.50    2.50
   5  -1   1   -2.20    2.10
  -6   1  -1   53.09    7.00
   6  -1   1   51.79    6.70
   6   0  -1   45.60    6.10
  -6   0   1   37.20    6.20
   5   0  -1   36.60    4.80
  -5   0   1   35.40    5.10
   4   0  -1    5.50    2.10
  -4   0   1    5.60    2.30
   3   0  -1   21.90    2.80
  -3   0   1   23.80    3.10
   2   0  -1  252.07   10.20
  -2   0   1  237.98    9.20
  -2   0   1  250.67   10.20
  -2   0   1  244.78   10.30
   1   0  -1    6.90    1.00
   1   0  -1    5.90    1.00
   1   0  -1    5.30    0.90
  -1   0   1    6.30    0.70
  -1   0   1    5.20    1.00
  -1   0   1    6.50    1.10
  -1   0  -1   47.60    2.50
  -1   0  -1   43.70    2.50
  -1   0  -1   43.20    2.50
   1   0   1   43.10    2.40
   1   0   1   43.10    2.10
   1   0   1   40.60    2.50
  -2   0  -1  243.38    9.90
  -2   0  -1  239.68   10.10
  -2   0  -1  231.98   10.00
   2   0   1  239.08   10.00
   2   0   1  244.08    9.20
  -3   0  -1  134.09    7.20
   3   0   1  138.49    7.10
  -4   0  -1    6.40    2.30
   4   0   1    3.50    2.10
  -5   0  -1   33.60    5.00
   5   0   1   36.30    5.30
  -6   0  -1   11.30    4.00
   6   0   1   16.40    4.30
   6  -1  -1   38.90    5.80
  -6   1   1   34.80    6.20
   5  -1  -1   -0.60    2.20
  -5   1   1    3.10    2.60
   4  -1  -1    4.70    2.40
  -4   1   1    3.30    2.30
   3  -1  -1   47.50    3.90
  -3   1   1   44.60    4.10
   2  -1  -1    9.00    2.00
  -2   1   1    8.00    1.30
  -2   1   1    7.30    1.80
   1  -1  -1 4009.90  150.18
   1  -1  -1 4626.14  150.28
   1  -1  -1 4353.86  149.49
  -1   1   1 4275.47  150.18
  -1   1   1 4343.07  149.69
  -1   1   1 4173.38  150.18
   0  -1  -1  675.83   23.90
   0  -1  -1  682.63   23.90
   0  -1  -1  748.23   24.00
   0   1   1  607.34   24.10
  -1  -1  -1   50.19    2.60
  -1  -1  -1   51.39    3.00
  -1  -1  -1   49.90    2.60
   1   1   1   50.09    2.50
   1   1   1   51.59    2.90
  -2  -1  -1 1653.53   56.69
  -2  -1  -1 1593.74   56.69
  -2  -1  -1 1524.95   56.59
   2   1   1 1581.04   56.59
  -3  -1  -1  267.37   11.70
  -3  -1  -1  260.47   11.10
   3   1   1  278.47   11.60
  -4  -1  -1   14.20    3.00
   4   1   1   16.30    3.20
  -5  -1  -1   96.39    7.20
   5   1   1   84.69    6.70
  -6  -1  -1   14.60    4.10
   5  -2  -1    2.60    2.90
  -5   2   1    5.40    3.40
   4  -2  -1   11.50    2.60
  -4   2   1   10.00    2.80
   3  -2  -1   14.20    2.60
  -3   2   1   14.20    2.70
   2  -2  -1  183.98    7.00
   2  -2  -1  190.48    8.60
  -2   2   1  182.98    8.40
  -2   2   1  181.98    7.50
   1  -2  -1    4.30    1.10
   1  -2  -1    5.80    1.20
  -1   2   1    4.30    1.20
   0  -2  -1  275.47    9.70
   0  -2  -1  267.27    9.70
   0  -2  -1  242.78   10.40
   0   2   1  258.37   10.10
  -1  -2  -1    2.40    0.60
  -1  -2  -1    1.50    1.00
  -2  -2  -1  172.88    7.30
  -2  -2  -1  171.28    8.00
  -2  -2  -1  170.38    7.30
  -3  -2  -1    6.50    1.90
  -3  -2  -1   10.00    2.10
   3   2   1   11.10    2.00
  -4  -2  -1   34.20    3.90
  -4  -2  -1   33.50    4.20
   4   2   1   29.70    3.60
  -5  -2  -1    3.70    2.10
  -6  -2  -1   -2.70    2.20
   5  -3  -1   30.30    5.50
  -5   3   1   26.10    4.70
   4  -3  -1    4.70    2.50
  -4   3   1    6.90    2.80
   3  -3  -1   -0.70    1.50
  -3   3   1    2.20    1.40
  -3   3   1    0.60    1.80
   2  -3  -1   17.30    2.70
   2  -3  -1   14.20    1.70
  -2   3   1   10.50    2.10
   1  -3  -1 1102.89   40.80
   1  -3  -1 1150.28   40.90
   1  -3  -1 1136.69   40.90
   0  -3  -1   26.60    2.70
   0  -3  -1   27.30    1.90
   0  -3  -1   28.80    1.80
   0   3   1   27.90    2.30
  -1  -3  -1  156.38    7.70
  -2  -3  -1  100.69    4.70
  -2  -3  -1   96.39    5.90
  -2  -3  -1   99.89    4.60
  -3  -3  -1   87.69    5.90
  -3  -3  -1   88.79    5.20
  -3  -3  -1   90.29    5.10
  -4  -3  -1   52.69    4.60
  -4  -3  -1   58.09    5.20
  -5  -3  -1   34.80    5.00
   5  -4  -1   -2.20    2.60
   4  -4  -1   47.20    5.90
   3  -4  -1   12.30    3.20
   3  -4  -1   10.60    1.50
  -3   4   1    8.00    2.30
   2  -4  -1   46.80    4.00
   2  -4  -1   37.40    3.20
  -2   4   1   40.40    3.40
   1  -4  -1    3.00    1.30
   1  -4  -1    3.10    1.10
   1  -4  -1    4.10    1.30
   1  -4  -1    2.80    1.50
   0  -4  -1   30.00    2.20
   0  -4  -1   32.50    3.30
   0  -4  -1   27.80    2.00
   0   4   1   31.40    2.60
  -1  -4  -1   61.49    4.70
  -2  -4  -1  229.18   11.50
  -2  -4  -1  245.08   10.60
  -3  -4  -1    0.70    1.80
  -3  -4  -1   -0.80    1.00
  -4  -4  -1   60.99    4.80
  -4  -4  -1   60.59    5.80
  -5  -4  -1   32.60    4.60
  -5  -4  -1   25.60    4.50
   4  -5  -1    7.80    3.70
   3  -5  -1    0.20    2.10
   2  -5  -1   85.39    5.40
   2  -5  -1   85.39    5.90
   1  -5  -1   13.00    2.30
   1  -5  -1   13.50    2.60
  -1   5   1   12.50    2.40
   0  -5  -1    1.30    1.00
   0  -5  -1   -0.20    0.80
   0  -5  -1    1.10    1.10
   0  -5  -1   -1.30    1.40
   0   5   1   -0.30    1.10
  -1  -5  -1   68.19    5.50
  -2  -5  -1   52.49    5.00
  -3  -5  -1   33.20    5.10
  -3  -5  -1   28.20    3.10
  -4  -5  -1   92.99    6.00
  -4  -5  -1   98.89    8.00
  -5  -5  -1   15.70    3.30
   3  -6  -1   15.70    3.70
   2  -6  -1   97.29    7.40
   2  -6  -1   98.69    6.80
   1  -6  -1   55.29    5.20
   1  -6  -1   61.39    4.60
   0  -6  -1   49.40    6.20
   0  -6  -1   40.10    3.20
   0  -6  -1   51.99    5.80
   0   6   1   49.99    4.00
  -1  -6  -1   18.50    3.80
  -2  -6  -1   20.80    3.90
  -3  -6  -1  239.08   13.60
  -4  -6  -1  122.09    7.10
   1  -7  -1   11.70    3.50
   1  -7  -1    7.90    2.60
   0  -7  -1   16.50    4.10
  -1  -7  -1   18.50    4.40
  -1  -7   2   53.79    6.70
   0  -7   2   35.00    5.50
   1  -7   2   10.50    3.40
   1  -7   2    3.60    2.30
  -4  -6   2   55.69    4.50
  -3  -6   2   23.20    4.70
  -2  -6   2    3.20    2.10
  -1  -6   2    4.80    2.30
  -1  -6   2    4.60    2.00
   0  -6   2   39.70    5.20
   0  -6   2   49.60    4.20
   1  -6   2   18.90    3.60
   1  -6   2   20.90    3.10
   2  -6   2    3.70    2.20
   2  -6   2    9.70    2.90
   3  -6   2    0.70    2.60
  -4  -5   2  160.98   10.50
  -4  -5   2  162.68    8.40
  -3  -5   2    0.90    1.90
  -3  -5   2    4.20    1.50
  -2  -5   2   -1.20    1.40
  -1  -5   2   87.69    6.30
   0   5  -2  132.49    5.70
   0  -5   2  125.49    6.70
   0  -5   2  118.29    7.50
  -1   5  -2  456.85   18.20
   1  -5   2  504.05   18.90
   1  -5   2  484.65   18.60
   1  -5   2  465.05   19.80
   2  -5   2   36.70    4.30
   2  -5   2   29.70    3.70
   3  -5   2   38.70    5.00
   4  -5   2    2.70    3.00
  -5  -4   2   32.20    4.70
  -5  -4   2   38.10    5.60
  -4  -4   2   31.90    4.70
  -4  -4   2   26.20    3.40
  -3  -4   2   91.69    6.60
  -3  -4   2   94.09    5.10
  -2  -4   2   30.80    3.90
  -1  -4   2   10.90    1.70
  -1  -4   2   12.60    2.50
   0   4  -2   34.80    2.30
   0  -4   2   36.30    2.90
   1  -4   2   66.49    3.90
   1  -4   2   71.39    4.10
   1  -4   2   64.99    3.90
   2  -4   2   61.59    3.60
   2  -4   2   60.69    4.50
   2  -4   2   56.19    4.60
  -3   4  -2    5.10    2.40
   3  -4   2    4.70    2.20
   3  -4   2    5.20    1.50
   4  -4   2  101.09    7.90
   5  -4   2   27.60    5.90
  -5  -3   2   59.39    5.60
  -5  -3   2   69.59    5.80
  -4  -3   2   30.40    3.70
  -4  -3   2   30.40    4.10
  -3  -3   2  660.73   24.00
  -3  -3   2  612.94   23.90
  -3  -3   2  611.04   25.00
  -2  -3   2   17.20    1.70
  -2  -3   2   18.40    2.80
  -2  -3   2   16.80    1.80
  -2  -3   2   22.10    2.70
   0   3  -2   33.60    2.00
   0  -3   2   40.30    2.70
  -1   3  -2  139.19    6.30
   1  -3   2  116.19    5.60
   1  -3   2  113.29    5.50
   1  -3   2  113.49    5.40
  -2   3  -2   15.00    2.30
  -2   3  -2   14.80    2.00
   2  -3   2   19.30    2.00
   2  -3   2   13.70    2.40
  -3   3  -2  200.58    9.90
   3  -3   2  204.08   10.30
  -4   3  -2   -0.80    2.30
   4  -3   2    0.80    2.30
  -5   3  -2    0.20    2.60
   5  -3   2   -1.40    2.80
  -6  -2   2    7.40    2.80
  -5  -2   2    6.80    2.50
   4   2  -2   44.20    3.80
  -4  -2   2   40.30    3.90
  -4  -2   2   40.50    4.10
   3   2  -2   19.10    2.30
  -3  -2   2   17.00    2.60
  -3  -2   2   16.20    2.50
  -3  -2   2   18.90    2.60
  -2  -2   2  187.38    7.90
  -2  -2   2  194.68    8.00
  -2  -2   2  191.08    8.70
  -1  -2   2   10.40    2.70
   0   2  -2 1424.06   49.90
  -1   2  -2   17.50    1.70
  -1   2  -2   18.10    1.90
   1  -2   2   22.40    1.80
   1  -2   2   18.60    1.90
   1  -2   2   20.20    2.20
  -2   2  -2    2.40    1.10
  -2   2  -2    3.30    1.50
   2  -2   2    2.10    1.10
   2  -2   2    3.00    1.40
   2  -2   2    3.10    1.30
  -3   2  -2   10.60    2.40
   3  -2   2   13.30    2.60
  -4   2  -2   34.00    4.50
   4  -2   2   41.00    4.80
  -5   2  -2    6.70    3.20
   5  -2   2   13.20    4.00
  -6  -1   2    3.30    3.00
   5   1  -2    3.30    2.20
  -5  -1   2    8.60    2.80
   4   1  -2   -0.60    1.50
  -4  -1   2   -0.50    1.60
   3   1  -2  706.63   27.10
  -3  -1   2  715.63   27.30
  -3  -1   2  724.73   26.60
   2   1  -2   46.20    3.10
  -2  -1   2   55.59    3.40
  -2  -1   2   49.50    3.20
  -2  -1   2   51.79    3.10
   1   1  -2    2.90    0.70
  -1  -1   2    3.00    0.80
  -1  -1   2    2.60    0.70
   0  -1   2  718.43   25.70
  -1   1  -2   21.00    1.60
  -1   1  -2   21.20    1.80
  -1   1  -2   18.00    1.80
   1  -1   2   19.10    1.60
   1  -1   2   17.10    1.80
   1  -1   2   20.40    1.80
  -2   1  -2    8.70    1.50
  -2   1  -2    8.80    1.80
   2  -1   2    8.30    1.80
  -3   1  -2   10.30    2.20
   3  -1   2    9.40    1.10
   3  -1   2   10.00    2.20
  -4   1  -2    1.00    2.00
   4  -1   2    1.00    1.70
  -5   1  -2   11.80    3.60
   5  -1   2   14.40    3.30
  -6   1  -2    1.40    3.50
   6  -1   2    0.10    2.70
   6   0  -2   90.99   11.70
  -6   0   2   96.79    8.80
   5   0  -2   36.70    5.60
  -5   0   2   34.40    4.90
   4   0  -2   16.30    3.20
  -4   0   2   20.40    3.70
   3   0  -2   64.19    4.50
  -3   0   2   67.19    4.60
   2   0  -2  386.46   15.30
  -2   0   2  374.06   15.20
  -2   0   2  394.86   15.30
  -2   0   2  406.16   14.30
   1   0  -2   77.19    3.50
   1   0  -2   74.09    3.50
  -1   0   2   70.89    3.40
  -1   0   2   68.69    3.40
  -1   0   2   68.79    3.40
   0   0  -2    0.10    0.20
   0   0  -2   -0.10    0.20
   0   0   2   -0.10    0.20
  -1   0  -2  694.13   25.60
  -1   0  -2  739.73   25.70
  -1   0  -2  709.73   25.60
   1   0   2  726.73   25.70
   1   0   2  693.73   25.60
  -2   0  -2 1226.38   43.10
  -2   0  -2 1142.39   43.00
   2   0   2 1192.48   42.20
   2   0   2 1194.48   43.10
  -3   0  -2  160.28    8.20
   3   0   2  166.68    6.90
   3   0   2  159.58    8.10
  -4   0  -2  129.49    7.80
   4   0   2  125.39    7.50
  -5   0  -2  360.36   16.60
   5   0   2  316.27   15.80
  -6   0  -2  114.59    9.40
   6   0   2  122.39    9.20
   6  -1  -2    0.10    2.90
  -6   1   2    5.60    3.50
   5  -1  -2   53.09    6.60
  -5   1   2   36.90    5.40
   4  -1  -2    2.00    1.80
  -4   1   2    2.90    2.10
  -3   1   2   59.59    4.60
   2  -1  -2  152.78    7.30
  -2   1   2  148.89    7.30
  -2   1   2  162.58    6.70
   1  -1  -2    1.80    1.10
   1  -1  -2    4.40    1.30
   1  -1  -2    3.60    1.20
  -1   1   2    2.80    0.80
  -1   1   2    3.30    1.10
  -1   1   2    4.60    1.30
   0  -1  -2  395.16   15.10
   0  -1  -2  404.06   15.30
   0  -1  -2  436.86   15.10
   0   1   2  463.45   15.10
   0   1   2  411.86   15.30
   0   1   2  417.66   15.40
  -1  -1  -2  229.18    9.20
  -1  -1  -2  221.88    8.80
  -1  -1  -2  248.58    8.90
  -1  -1  -2  234.48    9.10
   1   1   2  237.48    9.20
   1   1   2  229.18    8.70
  -2  -1  -2   53.49    3.40
  -2  -1  -2   63.49    3.70
  -2  -1  -2   55.79    3.50
   2   1   2   55.19    3.40
   2   1   2   61.89    3.50
  -3  -1  -2   40.40    3.50
   3   1   2   44.00    3.50
  -4  -1  -2   -0.70    1.50
   4   1   2   -0.20    1.70
  -5  -1  -2   12.90    3.40
   5   1   2    9.70    3.00
  -6  -1  -2   18.10    4.20
   5  -2  -2   19.40    4.40
  -5   2   2   21.00    4.40
   4  -2  -2  305.17   14.80
  -4   2   2  313.57   14.80
   3  -2  -2    0.90    1.40
  -3   2   2    3.60    1.80
   2  -2  -2    1.00    1.00
  -2   2   2    1.50    0.80
  -2   2   2    0.50    1.10
   1  -2  -2   73.39    3.50
   1  -2  -2   68.89    3.70
   1  -2  -2   70.19    3.80
   1  -2  -2   73.69    3.80
  -1   2   2   68.79    3.70
   0  -2  -2  394.16   15.10
   0  -2  -2  397.56   14.50
   0  -2  -2  392.16   14.40
   0   2   2  401.56   15.00
  -1  -2  -2  110.99    4.60
  -1  -2  -2  112.19    4.50
  -1  -2  -2  111.09    5.50
   1   2   2  113.29    5.20
  -2  -2  -2 1756.72   65.49
  -2  -2  -2 1881.61   66.19
  -2  -2  -2 1879.01   66.39
  -2  -2  -2 1877.31   65.59
  -3  -2  -2    1.80    1.50
  -3  -2  -2    1.90    1.40
   3   2   2    4.60    1.50
  -4  -2  -2  136.39    7.70
   4   2   2  129.09    7.20
  -5  -2  -2   31.70    4.60
  -6  -2  -2    6.40    3.00
   5  -3  -2    6.30    3.40
  -5   3   2    4.40    3.30
   4  -3  -2    2.40    2.20
  -4   3   2    3.90    2.70
   3  -3  -2   11.20    2.70
  -3   3   2   13.20    2.90
  -3   3   2   11.80    2.20
   2  -3  -2   62.19    4.30
   2  -3  -2   51.89    3.10
  -2   3   2   55.89    4.00
   1  -3  -2  133.99    6.40
   1  -3  -2  148.09    6.60
   1  -3  -2  142.99    6.60
   1  -3  -2  142.09    6.50
   0  -3  -2   81.59    3.70
   0  -3  -2   75.19    4.60
   0  -3  -2   76.89    3.60
   0   3   2   77.89    4.20
  -1  -3  -2  116.89    6.40
   1   3   2  127.99    5.90
  -2  -3  -2  155.08    7.80
  -2  -3  -2  140.29    6.30
  -2  -3  -2  147.69    6.40
  -3  -3  -2  116.49    6.40
  -3  -3  -2  125.69    7.40
  -3  -3  -2  135.29    6.60
  -4  -3  -2   14.50    3.10
  -4  -3  -2   18.20    3.30
  -5  -3  -2   14.60    3.40
   5  -4  -2   33.70    5.90
   4  -4  -2    3.90    2.70
   3  -4  -2    3.60    1.90
  -3   4   2    7.80    2.40
   2  -4  -2  361.46   15.40
   2  -4  -2  364.36   14.40
  -2   4   2  354.86   14.50
   1  -4  -2   14.20    2.10
   1  -4  -2   14.90    2.40
   1  -4  -2   17.70    2.20
   0  -4  -2   89.69    5.60
   0  -4  -2   96.29    4.50
   0  -4  -2  100.09    4.50
   0   4   2   90.29    5.00
  -1  -4  -2  822.42   31.80
   1   4   2  826.12   30.60
  -2  -4  -2    0.50    1.30
  -2  -4  -2    1.40    0.90
  -2  -4  -2   -0.40    0.70
  -3  -4  -2   30.20    3.30
  -3  -4  -2   26.30    3.90
  -4  -4  -2   -0.50    1.90
  -4  -4  -2    0.60    1.40
  -5  -4  -2   30.90    4.60
   4  -5  -2    4.20    3.30
   3  -5  -2    1.30    2.10
   2  -5  -2   46.90    4.10
   2  -5  -2   51.79    4.60
   1  -5  -2    3.00    1.60
   1  -5  -2    0.50    1.50
  -1   5   2    4.30    1.80
   0  -5  -2    1.10    0.90
   0  -5  -2   -1.10    0.80
   0  -5  -2    0.60    1.10
   0  -5  -2    1.30    1.60
   0   5   2   -0.20    1.10
  -1  -5  -2  486.15   20.70
  -2  -5  -2    0.30    1.70
  -3  -5  -2   35.20    3.10
  -3  -5  -2   36.60    5.30
  -4  -5  -2  214.98   10.40
  -4  -5  -2  198.38   12.10
  -5  -5  -2   27.20    4.30
   3  -6  -2   73.39    6.60
   2  -6  -2   34.60    4.70
   1  -6  -2    1.30    2.00
   1  -6  -2   -1.20    1.40
  -1   6   2    3.00    2.10
   0  -6  -2    0.80    1.10
   0  -6  -2    2.50    2.10
   0   6   2    1.10    1.40
  -1  -6  -2   60.49    5.80
  -2  -6  -2   10.20    3.00
  -3  -6  -2   82.49    7.50
  -4  -6  -2   57.09    4.70
   1  -7  -2    3.40    2.80
   1  -7  -2   -0.70    1.80
   0  -7  -2   97.49    8.00
   0  -7  -2   92.79    5.50
  -1  -7  -2   32.60    5.50
  -1  -7   3   75.39    7.80
  -1  -7   3   84.49    7.70
   0  -7   3    2.70    2.70
   1  -7   3    9.80    2.80
   1  -7   3    6.60    3.10
  -4  -6   3   63.39    4.70
  -3  -6   3   -1.90    1.90
  -2  -6   3  168.48   10.40
  -1  -6   3   68.09    6.30
  -1  -6   3   77.19    5.70
   0  -6   3   53.19    4.40
   0  -6   3   51.39    5.30
   1  -6   3   11.40    2.40
   1  -6   3   15.00    3.20
   2  -6   3  107.49    7.10
   2  -6   3   96.49    6.80
   3  -6   3    1.10    2.50
  -4  -5   3    2.00    1.60
  -4  -5   3    2.80    2.60
  -3  -5   3   -1.00    1.70
  -3  -5   3    2.10    1.20
  -2  -5   3   34.40    4.50
  -1  -5   3   16.70    3.20
   0  -5   3    6.40    1.80
  -1   5  -3    8.10    1.60
   1  -5   3    7.10    1.80
   1  -5   3    8.30    1.90
   2  -5   3    8.10    2.30
   2  -5   3   10.30    2.50
   3  -5   3    4.40    2.20
   4  -5   3    3.50    3.00
  -5  -4   3  212.28   11.20
  -5  -4   3  193.08   11.70
  -4  -4   3    0.90    1.40
  -4  -4   3    1.90    1.90
  -3  -4   3   86.39    4.70
  -3  -4   3   78.39    6.20
  -2  -4   3  347.47   15.50
  -1  -4   3   -0.70    0.70
   0   4  -3  403.96   14.70
   0  -4   3  396.26   16.00
   1  -4   3   49.10    3.30
   1  -4   3   38.90    3.10
   1  -4   3   45.90    3.20
   2  -4   3   14.50    2.00
   2  -4   3   10.70    2.30
   2  -4   3   12.80    2.50
  -3   4  -3  104.49    8.40
   3  -4   3   88.29    6.50
   4  -4   3   64.19    6.40
   5  -4   3    6.10    3.60
  -5  -3   3   15.30    3.40
  -5  -3   3   12.80    3.30
  -4  -3   3   29.80    4.00
  -4  -3   3   18.60    3.00
  -3  -3   3   49.80    3.60
  -3  -3   3   51.29    4.50
  -3  -3   3   48.40    3.60
  -2  -3   3   36.40    3.30
  -2  -3   3   24.70    2.00
  -2  -3   3   28.00    2.20
  -1  -3   3  101.49    4.60
   0   3  -3  135.79    5.40
   0  -3   3  140.59    6.40
  -1   3  -3    4.90    1.10
   1  -3   3    4.10    1.20
   1  -3   3    3.60    1.30
   1  -3   3    4.50    1.20
  -2   3  -3   30.10    3.10
   2  -3   3   37.10    2.80
   2  -3   3   38.20    3.40
  -3   3  -3  253.57   11.60
   3  -3   3  242.98   11.90
  -4   3  -3   -2.20    2.20
   4  -3   3    3.50    2.60
  -5   3  -3    2.20    2.90
   5  -3   3   -3.30    2.50
  -6  -2   3   54.39    7.40
  -5  -2   3    1.50    1.80
   4   2  -3   35.80    3.50
  -4  -2   3   31.50    3.60
  -4  -2   3   24.70    3.40
   3   2  -3  118.59    5.90
  -3  -2   3  131.19    6.50
  -3  -2   3  117.99    6.30
  -3  -2   3  127.49    6.70
  -2  -2   3   42.80    2.70
  -2  -2   3   41.20    2.70
  -2  -2   3   35.00    2.60
  -1  -2   3   12.20    2.70
   0  -2   3 2512.05   88.49
  -1   2  -3   12.20    1.50
  -1   2  -3   13.30    1.70
   1  -2   3   10.10    1.50
   1  -2   3   13.20    1.60
   1  -2   3   12.30    1.60
  -2   2  -3    9.80    1.80
   2  -2   3    8.00    1.70
   2  -2   3    8.50    1.50
   2  -2   3    6.00    1.70
  -3   2  -3    0.80    1.60
   3  -2   3    0.70    1.60
  -4   2  -3    3.00    2.20
   4  -2   3    5.30    2.80
  -5   2  -3    3.90    3.00
   5  -2   3   18.10    4.60
  -6  -1   3   45.40    6.10
   5   1  -3   -2.10    1.60
  -5  -1   3    0.90    2.00
   4   1  -3   78.29    5.50
  -4  -1   3   78.29    5.70
  -4  -1   3   76.69    4.60
   3   1  -3  530.35   21.40
  -3  -1   3  558.94   21.00
  -3  -1   3  571.64   21.70
   2   1  -3    4.70    1.20
  -2  -1   3    5.40    1.30
  -2  -1   3    5.10    1.40
   1   1  -3   37.30    1.90
  -1  -1   3   33.40    1.90
  -1  -1   3   34.70    2.10
   0  -1   3  213.08    8.10
   0  -1   3  205.48    7.70
   0  -1   3  210.78    7.70
  -1   1  -3  129.49    5.20
  -1   1  -3  123.69    5.30
  -1   1  -3  117.49    5.30
   1  -1   3  113.49    5.20
   1  -1   3  121.29    5.20
   1  -1   3  113.39    5.30
  -2   1  -3    3.00    1.40
  -2   1  -3    3.70    1.30
   2  -1   3    3.60    1.50
   2  -1   3    2.50    1.20
  -3   1  -3  340.17   14.40
   3  -1   3  324.77   12.50
   3  -1   3  339.57   14.40
  -4   1  -3   57.69    5.40
   4  -1   3   63.59    5.40
  -5   1  -3   37.70    5.20
   5  -1   3   40.70    6.00
  -6   1  -3    5.60    3.60
   6  -1   3    4.80    3.50
  -6   0   3   23.10    5.40
   5   0  -3    1.40    2.20
  -5   0   3    3.00    2.30
   4   0  -3  608.54   24.80
  -4   0   3  615.94   25.00
   3   0  -3    2.90    1.40
  -3   0   3    4.40    1.70
  -3   0   3    3.30    0.90
   2   0  -3  377.36   14.40
  -2   0   3  350.36   14.40
  -2   0   3  374.56   13.30
  -2   0   3  346.17   14.20
   1   0  -3 1425.46   50.39
   1   0  -3 1412.36   50.39
  -1   0   3 1478.85   50.49
  -1   0   3 1386.96   50.39
   0   0  -3   -0.40    0.30
   0   0  -3   -0.80    0.30
   0   0  -3   -0.60    0.30
   0   0   3   -0.50    0.30
   0   0   3   -0.60    0.30
   0   0   3    0.00    0.30
  -1   0  -3  926.21   33.20
  -1   0  -3  971.90   33.30
  -1   0  -3  926.31   33.20
   1   0   3  932.91   33.20
   1   0   3  893.01   33.20
   1   0   3  912.81   33.20
  -2   0  -3    5.10    1.40
  -2   0  -3    3.20    1.30
   2   0   3    3.20    1.00
   2   0   3    4.30    1.40
  -3   0  -3   51.99    4.10
   3   0   3   45.60    3.00
   3   0   3   47.40    3.90
  -4   0  -3   22.60    3.90
   4   0   3   34.10    4.60
  -5   0  -3   21.70    4.10
   5   0   3   23.40    4.30
  -6   0  -3    5.10    3.50
   6   0   3    3.90    3.10
   6  -1  -3    4.00    3.30
  -6   1   3    1.30    3.30
   5  -1  -3  110.09    8.20
  -5   1   3  108.09    8.20
   4  -1  -3   14.30    3.00
  -4   1   3   14.10    3.40
   3  -1  -3   40.90    3.80
  -3   1   3   39.00    3.80
   2  -1  -3  265.97   11.70
  -2   1   3  298.37   11.80
   1  -1  -3 9761.72  339.97
   1  -1  -3 9516.65  338.97
  -1   1   3 9801.52  338.37
  -1   1   3 9571.34  339.07
  -1   1   3 9999.00  339.77
   0  -1  -3  722.63   25.80
   0  -1  -3  746.53   25.60
   0  -1  -3  713.43   25.90
   0  -1  -3  733.83   26.00
   0   1   3  735.23   25.90
   0   1   3  638.44   25.80
   0   1   3  730.83   26.10
   0   1   3  784.72   26.00
  -1  -1  -3  157.58    6.60
  -1  -1  -3  175.28    7.00
  -1  -1  -3  167.48    6.90
  -1  -1  -3  173.38    6.70
   1   1   3  170.78    6.70
   1   1   3  165.48    6.60
   1   1   3  162.88    6.90
  -2  -1  -3 1029.50   36.50
  -2  -1  -3  960.30   36.40
   2   1   3 1041.40   36.40
   2   1   3  975.30   36.30
  -3  -1  -3  456.05   19.00
   3   1   3  484.35   18.50
   3   1   3  490.65   18.90
  -4  -1  -3  160.68    9.00
   4   1   3  170.98    8.80
  -5  -1  -3  369.16   17.30
   5   1   3  365.96   16.80
  -6  -1  -3    0.50    3.10
   5  -2  -3   19.70    4.60
  -5   2   3   21.50    4.60
   4  -2  -3    1.70    1.80
  -4   2   3    6.60    2.40
   3  -2  -3  118.29    7.00
  -3   2   3  124.89    7.10
   2  -2  -3    2.30    1.20
  -2   2   3    1.10    0.90
  -2   2   3    2.70    1.50
   1  -2  -3    3.70    1.20
   1  -2  -3    4.70    1.30
   1  -2  -3    3.50    1.00
  -1   2   3    4.40    1.30
   0  -2  -3  623.94   23.00
   0  -2  -3  637.14   23.70
   0  -2  -3  645.94   23.20
   0   2   3  658.93   23.60
  -1  -2  -3  133.79    5.80
  -1  -2  -3  145.79    6.70
  -1  -2  -3  145.99    6.30
  -1  -2  -3  140.69    5.70
   1   2   3  146.49    6.40
   1   2   3  141.49    6.60
  -2  -2  -3  209.28    9.20
  -2  -2  -3  193.18    8.40
  -2  -2  -3  200.28    8.90
  -2  -2  -3  208.08    8.50
   2   2   3  198.88    8.90
  -3  -2  -3   24.30    3.20
  -3  -2  -3   23.30    2.90
   3   2   3   19.80    2.50
  -4  -2  -3   19.80    3.60
   4   2   3   26.20    3.70
  -5  -2  -3  100.99    7.30
  -6  -2  -3   17.30    3.90
   5  -3  -3   76.19    7.70
  -5   3   3   70.59    7.30
   4  -3  -3    6.60    2.80
  -4   3   3    8.50    3.00
   3  -3  -3    4.10    2.20
  -3   3   3    3.60    2.10
   2  -3  -3  107.99    6.40
   2  -3  -3  118.79    5.30
  -2   3   3  130.49    6.40
   1  -3  -3    3.60    1.20
   1  -3  -3    3.40    1.10
   1  -3  -3    3.80    1.40
  -1   3   3    2.60    1.70
   0  -3  -3   61.39    4.00
   0  -3  -3   60.49    3.20
   0  -3  -3   60.19    3.20
   0   3   3   64.69    3.80
  -1  -3  -3  547.05   21.40
  -1  -3  -3  561.34   19.90
   1   3   3  528.65   20.70
  -2  -3  -3  137.39    6.20
  -2  -3  -3  139.39    6.20
  -2  -3  -3  142.09    8.20
  -2  -3  -3  141.19    7.50
  -3  -3  -3   43.20    4.10
  -3  -3  -3   39.20    3.60
  -3  -3  -3   36.00    3.30
   3   3   3   39.60    2.70
  -4  -3  -3  432.86   18.50
  -4  -3  -3  450.95   19.20
  -5  -3  -3   13.90    3.10
   4  -4  -3   -1.60    2.40
   3  -4  -3    4.10    2.30
  -3   4   3    3.90    2.30
   2  -4  -3   67.29    4.40
   2  -4  -3   76.79    5.20
  -2   4   3   84.19    4.80
   1  -4  -3    1.40    1.30
   1  -4  -3    1.10    1.10
   1  -4  -3    1.00    1.30
   0  -4  -3   32.20    2.40
   0  -4  -3   28.10    2.20
   0  -4  -3   29.20    3.40
   0   4   3   30.20    2.90
  -1  -4  -3  253.87   11.60
   1   4   3  242.08   10.60
  -2  -4  -3  176.38    7.50
  -2  -4  -3  177.68    7.50
  -2  -4  -3  181.68    9.50
  -3  -4  -3   24.80    3.00
  -3  -4  -3   18.60    3.60
  -4  -4  -3   18.20    3.80
  -4  -4  -3   25.90    3.90
  -5  -4  -3   17.30    3.60
   4  -5  -3    3.40    3.00
   3  -5  -3   -1.80    1.90
   2  -5  -3    4.70    2.10
   2  -5  -3    3.40    1.80
   1  -5  -3   44.30    4.00
   1  -5  -3   40.10    3.60
  -1   5   3   42.00    4.00
   0  -5  -3  203.28   10.60
   0  -5  -3  210.88    9.10
   0  -5  -3  217.38    9.30
   0  -5  -3  227.58    9.30
   0   5   3  212.08    9.70
  -1  -5  -3  320.37   14.80
   1   5   3  315.17   13.30
  -2  -5  -3   89.69    6.70
  -3  -5  -3    6.00    1.70
  -3  -5  -3    7.40    2.80
  -4  -5  -3    3.40    2.60
  -4  -5  -3    4.00    1.90
  -5  -5  -3   11.70    3.20
   3  -6  -3   18.80    4.10
   2  -6  -3   39.40    5.00
   1  -6  -3    0.50    2.00
   1  -6  -3    0.10    1.50
  -1   6   3   -0.20    1.70
   0  -6  -3   81.19    6.50
   0  -6  -3   87.39    5.00
   0   6   3   85.89    5.40
  -1  -6  -3   22.00    4.00
  -2  -6  -3    8.50    2.80
  -3  -6  -3  193.48   11.90
  -4  -6  -3   18.80    3.30
   1  -7  -3   -0.80    1.90
   1  -7  -3    9.00    3.20
   0  -7  -3   36.20    5.60
   0  -7  -3   32.60    3.40
  -1  -7  -3    9.70    3.50
  -2  -7   4   18.00    4.20
  -1  -7   4   55.69    5.50
  -1  -7   4   61.09    8.10
   0  -7   4    4.20    3.00
   1  -7   4  103.69    8.20
   1  -7   4  109.69    6.80
  -4  -6   4   12.70    2.50
  -3  -6   4    0.50    2.20
  -2  -6   4   60.69    6.10
  -1  -6   4   23.40    4.40
  -1  -6   4   16.70    3.40
   0  -6   4    4.40    2.30
   0  -6   4   12.10    3.10
   1  -6   4    1.10    1.90
   1  -6   4    1.30    1.70
   2  -6   4    4.60    2.40
   2  -6   4   -0.10    2.00
   3  -6   4    0.80    2.40
  -4  -5   4   26.00    3.50
  -4  -5   4   28.40    5.00
  -3  -5   4   80.79    6.80
  -3  -5   4   82.39    4.60
  -2  -5   4  196.58   10.70
  -1  -5   4    3.00    1.60
   0  -5   4  217.78   10.20
  -1   5  -4  342.07   13.10
   1  -5   4  335.97   14.30
   1  -5   4  354.36   14.20
   2  -5   4    0.30    1.60
   2  -5   4    0.40    1.50
   3  -5   4   21.80    4.00
   4  -5   4    0.00    2.40
  -5  -4   4    5.10    3.20
  -5  -4   4    5.30    2.40
  -4  -4   4   43.20    4.00
  -4  -4   4   43.90    5.50
  -3  -4   4   37.60    4.90
  -3  -4   4   39.70    3.10
  -2  -4   4    8.20    2.30
  -1  -4   4   13.40    1.60
   0  -4   4   13.00    2.30
   1  -4   4  118.29    5.90
   1  -4   4  127.09    6.30
   1  -4   4  120.79    6.00
   2  -4   4    7.10    2.10
   2  -4   4    6.80    1.70
   2  -4   4   12.60    2.40
   3  -4   4   15.30    3.10
   4  -4   4    9.80    3.00
   5  -4   4   10.10    4.20
  -5  -3   4   56.99    5.60
  -5  -3   4   65.39    5.70
  -4  -3   4    5.80    2.10
  -4  -3   4    6.20    2.00
  -3  -3   4 1114.79   41.50
  -3  -3   4 1118.49   41.50
  -3  -3   4 1178.78   42.90
  -2  -3   4   19.40    1.90
  -2  -3   4   18.10    1.80
  -1  -3   4   16.50    1.40
   0  -3   4    1.60    1.10
  -1   3  -4   19.90    1.70
   1  -3   4   16.80    2.20
   1  -3   4   16.90    2.00
   1  -3   4   15.30    1.90
  -2   3  -4  139.79    7.00
   2  -3   4  154.28    7.60
   2  -3   4  150.28    6.90
  -3   3  -4  844.92   32.50
   3  -3   4  844.22   33.00
  -4   3  -4   40.80    5.30
   4  -3   4   44.80    5.30
  -5   3  -4   -2.80    2.80
   5  -3   4   -0.60    3.00
  -6  -2   4    5.70    2.80
  -5  -2   4    0.40    1.70
  -5  -2   4    0.80    1.90
   4   2  -4    4.60    1.90
  -4  -2   4    8.60    2.30
  -4  -2   4    8.90    2.00
   3   2  -4  187.08    8.20
  -3  -2   4  177.28    8.60
  -3  -2   4  175.68    8.50
  -3  -2   4  201.28    9.00
  -2  -2   4   75.09    3.90
  -2  -2   4   71.29    3.90
  -1  -2   4   13.50    1.20
  -1  -2   4   14.00    1.10
   0  -2   4  458.25   16.30
   0  -2   4  448.06   17.10
  -1   2  -4  273.27   10.80
  -1   2  -4  254.57   10.50
   1  -2   4  279.07   10.70
   1  -2   4  267.27   10.70
   1  -2   4  269.37   10.70
  -2   2  -4    0.20    1.20
   2  -2   4    1.10    1.00
   2  -2   4    0.70    1.20
  -3   2  -4   -0.20    1.50
   3  -2   4    0.60    1.50
  -4   2  -4    3.80    2.30
   4  -2   4    1.20    2.00
  -5   2  -4    4.20    2.90
   5  -2   4    4.10    2.90
  -6  -1   4    2.80    3.00
   5   1  -4   49.20    5.90
  -5  -1   4   35.60    5.30
   4   1  -4    2.10    1.60
  -4  -1   4    4.60    1.50
  -4  -1   4    3.40    1.90
   3   1  -4  142.09    7.20
  -3  -1   4  148.39    6.80
  -3  -1   4  142.79    7.30
   2   1  -4  154.28    6.50
  -2  -1   4  139.39    6.50
  -2  -1   4  140.09    6.60
  -2  -1   4  149.39    6.70
   1   1  -4 1294.17   44.30
  -1  -1   4 1292.37   44.50
  -1  -1   4 1180.38   44.30
   0   1  -4    5.10    0.70
   0   1  -4    5.80    1.10
   0  -1   4    4.90    1.00
   0  -1   4    5.60    0.90
   0  -1   4    4.90    0.80
  -1   1  -4   27.00    2.10
  -1   1  -4   29.90    2.30
  -1   1  -4   31.50    2.20
   1  -1   4   29.60    2.20
   1  -1   4   31.50    2.20
   1  -1   4   34.00    2.40
  -2   1  -4  634.74   23.40
   2  -1   4  614.24   23.50
   2  -1   4  607.84   23.20
  -3   1  -4    9.30    2.10
   3  -1   4   11.20    2.30
  -4   1  -4   37.70    4.60
   4  -1   4   39.00    2.60
   4  -1   4   39.80    4.80
  -5   1  -4   28.80    4.90
   5  -1   4   31.80    5.50
  -6   1  -4    1.10    3.00
   6  -1   4   -3.40    2.70
  -6   0   4    7.70    3.70
   5   0  -4   10.60    3.60
  -5   0   4    7.30    3.00
   4   0  -4  575.24   23.90
  -4   0   4  599.64   24.20
   3   0  -4   59.69    4.40
  -3   0   4   66.79    4.60
  -3   0   4   57.29    3.00
   2   0  -4  427.16   17.10
  -2   0   4  435.16   17.20
  -2   0   4  466.35   17.60
   1   0  -4 4533.95  147.39
   1   0  -4 3877.91  147.29
  -1   0   4 4175.38  147.39
  -1   0   4 4274.87  147.39
  -1   0  -4  416.06   15.70
  -1   0  -4  415.56   15.70
  -1   0  -4  420.16   15.70
   1   0   4  451.05   15.70
   1   0   4  413.06   15.70
   1   0   4  415.26   15.70
  -2   0  -4  240.58   10.30
   2   0   4  252.07   10.40
  -3   0  -4   10.80    2.10
   3   0   4    7.00    2.00
   3   0   4    8.20    1.50
  -4   0  -4   62.29    5.30
   4   0   4   60.59    5.10
   4   0   4   63.39    3.90
  -5   0  -4   78.59    6.70
   5   0   4   81.19    6.70
  -6   0  -4   16.40    4.70
   6   0   4   11.20    3.80
   6  -1  -4    3.00    3.30
  -6   1   4    5.90    3.60
   5  -1  -4   47.50    6.30
  -5   1   4   47.80    6.00
   4  -1  -4   28.10    4.10
  -4   1   4   23.70    3.70
   3  -1  -4   24.60    3.20
  -3   1   4   18.10    3.00
   2  -1  -4  541.65   21.40
  -2   1   4  576.74   21.50
   1  -1  -4 1845.82   64.09
   1  -1  -4 1786.02   64.09
  -1   1   4 1802.12   63.99
  -1   1   4 1807.02   63.99
  -1   1   4 1840.42   63.29
  -1   1   4 1772.52   63.99
   0  -1  -4  772.32   25.40
   0  -1  -4  673.43   25.20
   0  -1  -4  698.63   24.90
   0   1   4  678.73   25.50
   0   1   4  676.43   25.10
   0   1   4  684.03   24.90
   0   1   4  696.93   25.30
   0   1   4  759.62   25.30
  -1  -1  -4   90.59    4.20
  -1  -1  -4   86.39    3.90
  -1  -1  -4   85.19    3.90
  -1  -1  -4   85.09    4.10
   1   1   4   84.19    3.90
   1   1   4   90.69    4.20
   1   1   4   80.79    3.80
   1   1   4   78.19    4.10
  -2  -1  -4  118.09    5.50
  -2  -1  -4  109.69    5.40
   2   1   4  104.19    5.30
   2   1   4  100.39    5.20
  -3  -1  -4   46.10    3.70
   3   1   4   41.40    3.20
   3   1   4   35.40    3.30
  -4  -1  -4   20.60    3.70
   4   1   4   28.00    3.80
  -5  -1  -4    8.90    2.80
   5   1   4    3.20    2.30
  -6  -1  -4    7.30    3.60
   5  -2  -4   31.30    5.30
  -5   2   4   32.10    5.40
   4  -2  -4  108.89    7.40
  -4   2   4   96.59    7.10
   3  -2  -4   10.30    2.10
  -3   2   4   20.10    3.00
   2  -2  -4 1074.69   37.30
  -2   2   4  976.40   37.00
  -2   2   4  966.30   35.60
   1  -2  -4    5.50    1.40
   1  -2  -4    3.80    1.00
   1  -2  -4    3.00    1.10
  -1   2   4    3.60    1.20
   0  -2  -4   40.80    2.50
   0  -2  -4   39.30    2.40
   0  -2  -4   40.70    2.90
   0   2   4   41.40    2.70
   0   2   4   39.10    2.30
   0   2   4   42.10    2.90
  -1  -2  -4 1564.94   55.29
  -1  -2  -4 1522.25   54.39
  -1  -2  -4 1541.35   54.99
  -1  -2  -4 1591.34   54.49
   1   2   4 1533.05   54.99
   1   2   4 1490.35   54.19
  -2  -2  -4   52.19    3.80
  -2  -2  -4   55.79    3.30
  -2  -2  -4   53.49    3.60
  -2  -2  -4   45.30    3.10
   2   2   4   50.89    3.60
  -3  -2  -4  117.99    6.40
   3   2   4  120.69    6.10
  -4  -2  -4  113.59    7.00
   4   2   4  108.59    6.50
  -5  -2  -4   34.00    5.20
  -6  -2  -4   11.80    3.30
   5  -3  -4    8.70    3.30
  -5   3   4    0.90    3.20
   4  -3  -4    4.50    2.70
  -4   3   4   -0.90    2.10
   3  -3  -4   20.00    3.30
  -3   3   4   21.90    3.40
   2  -3  -4    4.40    1.50
  -2   3   4    2.20    1.50
   1  -3  -4    8.70    1.70
   1  -3  -4    8.60    1.80
   1  -3  -4    6.10    1.50
  -1   3   4    8.40    1.50
   0  -3  -4    3.50    1.00
   0  -3  -4    4.70    1.40
   0  -3  -4    2.00    0.90
   0   3   4    4.10    1.40
  -1  -3  -4   15.80    2.50
  -1  -3  -4   14.20    1.60
  -1  -3  -4   14.00    2.30
  -1  -3  -4   15.80    1.70
   1   3   4   13.40    2.10
  -2  -3  -4    3.00    1.00
  -2  -3  -4    1.40    1.40
  -2  -3  -4    1.50    1.10
  -2  -3  -4    3.80    1.30
  -3  -3  -4   16.40    3.00
  -3  -3  -4   13.80    2.40
   3   3   4   18.40    2.50
  -4  -3  -4    5.50    2.00
  -5  -3  -4    5.70    2.30
   4  -4  -4    0.30    2.20
   3  -4  -4   19.30    3.50
  -3   4   4   16.60    3.10
   2  -4  -4  410.36   17.50
   2  -4  -4  424.86   16.40
  -2   4   4  418.26   16.70
   1  -4  -4   34.20    3.20
   1  -4  -4   39.80    3.50
   1  -4  -4   49.20    3.80
  -1   4   4   40.00    2.60
   0  -4  -4   95.09    4.70
   0  -4  -4   95.19    5.60
   0  -4  -4   79.79    4.40
   0   4   4   96.09    5.30
  -1  -4  -4  175.58    9.10
  -1  -4  -4  187.68    7.60
  -1  -4  -4  171.38    7.40
   1   4   4  188.88    8.50
  -2  -4  -4  144.99    6.70
  -2  -4  -4  157.18    8.60
  -2  -4  -4  153.88    6.80
  -3  -4  -4  235.08   12.00
  -3  -4  -4  235.38   10.50
  -4  -4  -4   58.19    4.80
  -4  -4  -4   51.29    6.10
  -5  -4  -4   -2.10    1.90
   4  -5  -4    4.30    3.00
   3  -5  -4   16.80    3.70
   2  -5  -4    1.70    1.70
   2  -5  -4    1.70    1.90
   1  -5  -4   53.79    4.40
   1  -5  -4   42.10    3.80
  -1   5   4   48.20    4.30
   0  -5  -4   40.10    3.00
   0  -5  -4   43.70    3.20
   0  -5  -4   44.70    4.20
   0   5   4   43.50    3.80
  -1  -5  -4   17.80    3.40
  -1  -5  -4   18.70    2.10
   1   5   4   18.80    2.80
  -2  -5  -4   16.90    3.30
  -2  -5  -4   23.60    2.50
  -3  -5  -4   46.90    3.70
  -3  -5  -4   48.80    6.00
  -4  -5  -4   33.70    5.30
  -4  -5  -4   43.90    4.20
   3  -6  -4   45.20    5.70
   2  -6  -4   19.40    3.80
  -2   6   4   11.10    3.60
   1  -6  -4   16.50    2.90
   1  -6  -4   23.10    3.70
  -1   6   4   21.40    3.50
   0  -6  -4   63.49    4.20
   0  -6  -4   64.09    5.80
   0   6   4   57.39    4.60
  -1  -6  -4   11.30    3.20
  -2  -6  -4    3.80    2.50
  -3  -6  -4  157.78   10.80
  -3  -6  -4  176.68    8.20
  -4  -6  -4    6.90    2.30
   1  -7  -4    9.00    3.40
   1  -7  -4    7.10    2.60
   0  -7  -4   30.70    5.10
   0  -7  -4   32.20    3.60
  -1  -7  -4   20.10    4.60
  -2  -7   5   -2.50    2.20
  -1  -7   5   53.99    5.60
   0  -7   5    5.90    3.30
   1  -7   5   84.49    7.80
   1  -7   5  101.09    6.40
  -3  -6   5  124.29    9.40
  -2  -6   5   69.19    6.50
  -1  -6   5   23.20    3.90
  -1  -6   5   27.00    4.70
   0  -6   5    3.30    2.40
   0  -6   5    5.80    2.30
   1  -6   5   27.80    3.60
   1  -6   5   31.50    4.40
   2  -6   5   49.40    5.00
   2  -6   5   47.80    5.30
   3  -6   5   34.70    5.10
  -4  -5   5    2.20    2.70
  -4  -5   5    4.70    2.00
  -3  -5   5   81.69    6.80
  -3  -5   5   73.89    4.30
  -2  -5   5    1.60    1.70
  -1  -5   5  114.19    6.90
   0  -5   5    8.20    2.20
   1  -5   5   38.90    3.40
   1  -5   5   37.50    3.70
   2  -5   5   32.40    3.50
   2  -5   5   21.60    3.60
   3  -5   5   16.90    3.40
   4  -5   5    8.60    3.50
  -5  -4   5   45.30    5.30
  -5  -4   5   47.10    6.00
  -4  -4   5    3.90    2.30
  -4  -4   5    3.30    1.60
  -3  -4   5    4.90    1.40
  -3  -4   5    5.80    2.20
  -2  -4   5  114.39   10.60
  -1  -4   5  233.48    9.20
   0  -4   5  787.52   29.80
   1  -4   5   18.00    2.20
   1  -4   5   12.30    2.20
   1  -4   5    9.70    1.80
   2  -4   5   88.79    6.80
   2  -4   5   87.49    5.20
   2  -4   5   92.99    5.80
   3  -4   5   16.80    3.40
   3  -4   5   15.30    2.60
   4  -4   5    7.00    3.00
   5  -4   5   21.60    5.10
  -5  -3   5   16.50    3.60
  -5  -3   5   25.50    4.20
  -4  -3   5   63.49    5.00
  -4  -3   5   63.49    5.40
  -3  -3   5    9.50    1.90
  -3  -3   5    7.90    1.90
  -3  -3   5   12.50    2.60
  -2  -3   5   36.70    2.40
  -2  -3   5   34.60    2.50
  -1  -3   5  173.58    7.00
   0  -3   5  153.58    7.40
   0  -3   5  165.48    6.40
  -1   3  -5   90.69    4.40
   1  -3   5   99.29    5.00
   1  -3   5  103.59    5.30
   1  -3   5  102.79    4.90
  -2   3  -5    1.30    1.30
   2  -3   5    1.80    1.40
   2  -3   5    2.20    1.30
  -3   3  -5   57.99    5.00
   3  -3   5   75.79    4.70
   3  -3   5   66.29    5.30
  -4   3  -5   57.89    5.80
   4  -3   5   58.59    5.80
  -5   3  -5    2.10    3.10
   5  -3   5    3.10    3.20
  -6  -2   5   48.30    6.60
  -5  -2   5   42.50    5.40
  -5  -2   5   37.90    4.30
   4   2  -5  482.05   20.10
  -4  -2   5  505.05   20.40
  -4  -2   5  527.55   21.00
   3   2  -5    1.20    1.10
  -3  -2   5    2.00    1.40
  -3  -2   5    1.70    1.20
  -3  -2   5    0.00    1.20
  -2  -2   5    3.00    1.00
  -2  -2   5    4.30    1.30
  -1  -2   5  253.47    9.40
  -1  -2   5  244.18    9.30
   0  -2   5   38.40    2.80
   0  -2   5   40.40    2.10
   0  -2   5   34.90    2.10
  -1   2  -5   14.10    1.90
  -1   2  -5   14.80    1.70
   1  -2   5   13.40    1.70
   1  -2   5   14.10    2.00
   1  -2   5   12.90    1.80
  -2   2  -5  694.83   26.40
   2  -2   5  696.03   26.10
   2  -2   5  707.03   26.60
  -3   2  -5    6.10    2.10
   3  -2   5    5.00    2.00
  -4   2  -5    1.30    2.10
   4  -2   5    1.40    1.10
   4  -2   5    0.80    2.00
  -5   2  -5  195.88   11.90
   5  -2   5  224.38   12.50
  -6  -1   5   -0.50    2.30
   5   1  -5    6.70    2.50
  -5  -1   5    1.30    2.20
   4   1  -5    2.60    2.00
  -4  -1   5    4.20    1.50
  -4  -1   5    3.90    1.90
   3   1  -5    6.60    1.70
  -3  -1   5    7.50    1.70
  -3  -1   5    5.40    1.80
   2   1  -5    7.70    1.50
  -2  -1   5    3.00    1.10
  -2  -1   5    1.40    1.10
   1   1  -5  961.60   35.00
   1   1  -5  999.10   35.00
  -1  -1   5  960.30   35.10
  -1  -1   5 1015.70   35.20
   0   1  -5  304.47   11.00
   0   1  -5  312.97   11.50
   0  -1   5  293.87   11.50
   0  -1   5  290.67   10.70
   0  -1   5  286.77   11.10
   0  -1   5  302.37   11.10
  -1   1  -5  106.19    4.90
  -1   1  -5  114.79    5.00
  -1   1  -5  110.09    5.00
   1  -1   5  101.99    4.90
   1  -1   5  102.89    5.00
   1  -1   5  101.79    4.90
  -2   1  -5  356.96   14.00
   2  -1   5  327.57   13.80
   2  -1   5  338.77   13.60
  -3   1  -5   41.50    3.90
   3  -1   5   50.49    4.20
  -4   1  -5    0.50    2.00
   4  -1   5    1.20    1.00
   4  -1   5   -1.80    1.60
  -5   1  -5  120.89    8.70
   5  -1   5  143.19    9.10
  -6   1  -5   59.59    7.60
   6  -1   5   63.79    8.00
  -6   0   5   23.00    4.80
   5   0  -5    0.40    2.00
  -5   0   5   -0.80    2.00
   4   0  -5  371.56   15.30
  -4   0   5  299.17   15.00
   3   0  -5   13.60    2.60
  -3   0   5   11.60    2.30
  -3   0   5   10.70    1.40
   2   0  -5  212.18    9.50
  -2   0   5  234.58    9.70
   1   0  -5  124.49    5.60
   1   0  -5  135.99    5.70
  -1   0   5  129.19    5.70
   0   0  -5  775.52   29.40
   0   0  -5  827.72   29.40
   0   0  -5  828.72   29.40
   0   0   5  863.01   29.50
   0   0   5  829.62   29.40
   0   0   5  806.82   29.40
  -1   0  -5 1891.31   63.49
  -1   0  -5 1786.62   63.49
  -1   0  -5 1823.52   63.39
  -1   0  -5 1808.02   63.49
   1   0   5 1828.72   63.59
   1   0   5 1755.42   63.49
   1   0   5 1683.63   63.39
  -2   0  -5  888.41   32.00
   2   0   5  843.02   31.90
  -3   0  -5  256.67   11.60
   3   0   5  265.77   11.60
   3   0   5  253.77   10.60
  -4   0  -5    6.40    2.70
   4   0   5    4.50    1.50
   4   0   5    5.20    2.20
  -5   0  -5   34.60    4.90
   5   0   5   27.90    4.40
  -6   0  -5    6.30    3.30
   6   0   5    1.00    2.90
   6  -1  -5    0.30    3.20
  -6   1   5    2.40    3.30
   5  -1  -5   53.49    6.50
  -5   1   5   46.20    6.00
   4  -1  -5   96.79    6.90
  -4   1   5  102.89    7.00
   3  -1  -5   17.00    2.80
  -3   1   5   19.90    3.00
   2  -1  -5 1121.39   39.70
  -2   1   5 1045.30   39.70
   1  -1  -5  646.94   23.30
  -1   1   5  610.04   23.10
  -1   1   5  627.74   23.10
   0  -1  -5  142.09    6.00
   0  -1  -5  154.08    5.80
   0  -1  -5  142.89    6.10
   0   1   5  140.29    6.00
   0   1   5  148.89    6.40
   0   1   5  157.08    6.20
   0   1   5  147.59    5.70
  -1  -1  -5  104.09    4.80
  -1  -1  -5  104.29    5.00
  -1  -1  -5  109.19    4.90
   1   1   5  114.29    5.10
   1   1   5  105.59    4.80
   1   1   5  115.69    5.20
   1   1   5  103.39    4.70
  -2  -1  -5   74.89    4.30
  -2  -1  -5   69.99    4.00
  -2  -1  -5   77.59    4.20
   2   1   5   72.79    4.10
   2   1   5   63.09    4.00
  -3  -1  -5   28.10    3.60
   3   1   5   17.60    2.60
   3   1   5   22.80    2.60
  -4  -1  -5  301.87   14.20
   4   1   5  319.57   13.30
   4   1   5  316.77   14.10
  -5  -1  -5   77.09    6.40
   5   1   5   83.19    6.60
  -6  -1  -5    6.70    3.40
   5  -2  -5   -1.00    2.70
  -5   2   5   -0.10    2.40
   4  -2  -5   -1.40    1.80
  -4   2   5    3.20    2.40
   3  -2  -5   14.60    3.10
  -3   2   5    3.50    2.10
   2  -2  -5  671.23   25.60
  -2   2   5  664.43   25.40
   1  -2  -5   33.20    2.80
   1  -2  -5   35.30    2.70
  -1   2   5   34.20    2.20
  -1   2   5   32.00    2.70
   0  -2  -5   15.00    1.90
   0  -2  -5   15.30    1.70
   0  -2  -5   15.40    1.20
   0  -2  -5   18.30    1.80
   0   2   5   14.40    1.80
   0   2   5   13.80    2.00
   0   2   5   15.90    1.70
  -1  -2  -5  510.75   19.10
  -1  -2  -5  520.75   20.00
  -1  -2  -5  525.35   19.30
  -1  -2  -5  527.35   19.70
   1   2   5  522.35   19.80
   1   2   5  509.35   18.80
   1   2   5  528.75   19.90
  -2  -2  -5    4.70    1.30
  -2  -2  -5   14.80    2.40
  -2  -2  -5   10.50    2.10
  -2  -2  -5    8.90    1.80
   2   2   5    9.40    1.60
   2   2   5   12.50    2.10
  -3  -2  -5    6.30    1.70
   3   2   5    8.30    1.90
   3   2   5    9.50    2.20
  -4  -2  -5    0.80    1.50
   4   2   5    4.30    1.90
  -5  -2  -5    3.80    2.10
  -6  -2  -5   -1.10    2.20
   5  -3  -5   89.79    8.40
  -5   3   5   93.39    8.30
   4  -3  -5    0.10    1.90
  -4   3   5    3.00    2.40
   3  -3  -5    0.00    1.70
  -3   3   5    2.40    2.10
   2  -3  -5   71.49    4.70
  -2   3   5   54.09    4.20
   1  -3  -5   87.69    4.60
   1  -3  -5   78.79    4.70
   1  -3  -5   81.59    4.60
  -1   3   5   84.29    4.40
   0  -3  -5   66.19    3.70
   0  -3  -5   57.99    4.10
   0  -3  -5   70.99    3.60
   0   3   5   57.19    4.00
  -1  -3  -5 1066.49   39.70
  -1  -3  -5 1063.39   38.30
  -1  -3  -5 1086.99   38.40
   1   3   5 1055.39   39.20
  -2  -3  -5   -0.50    1.20
  -2  -3  -5    1.10    1.00
  -2  -3  -5    0.90    0.90
  -3  -3  -5  113.39    7.10
  -3  -3  -5  121.09    6.50
  -4  -3  -5   47.60    4.40
  -5  -3  -5   35.70    4.70
   4  -4  -5   23.60    4.80
   3  -4  -5   32.50    4.60
  -3   4   5   37.30    4.50
   2  -4  -5   22.60    3.20
  -2   4   5   16.90    2.70
   1  -4  -5   10.90    2.10
   1  -4  -5    9.70    2.10
   0  -4  -5   29.50    2.40
   0  -4  -5   28.50    2.50
   0  -4  -5   34.80    3.40
   0   4   5   26.20    3.30
  -1  -4  -5   95.79    6.00
  -1  -4  -5   88.39    4.50
  -1  -4  -5   96.69    4.70
   1   4   5   92.19    5.40
  -2  -4  -5   40.50    2.90
  -2  -4  -5   40.40    4.20
  -2  -4  -5   39.20    2.90
  -3  -4  -5    5.40    2.30
  -3  -4  -5    8.30    2.00
  -4  -4  -5    3.40    2.00
  -5  -4  -5    2.20    2.50
   4  -5  -5    1.40    2.80
   3  -5  -5  127.69    8.50
   2  -5  -5   -2.30    1.20
   1  -5  -5   43.40    4.10
   1  -5  -5   45.80    3.80
  -1   5   5   39.20    4.60
   0  -5  -5  679.23   25.50
   0  -5  -5  665.93   27.00
   0   5   5  681.43   26.30
  -1  -5  -5    1.60    1.20
  -1  -5  -5    1.60    1.80
  -1  -5  -5    3.00    1.50
   1   5   5    2.50    1.60
  -2  -5  -5   83.19    6.40
  -2  -5  -5   83.59    4.60
  -3  -5  -5   12.70    3.20
  -3  -5  -5   13.90    2.40
  -4  -5  -5   36.30    5.50
  -4  -5  -5   42.50    4.80
   3  -6  -5   15.70    3.80
   2  -6  -5   11.90    3.00
  -2   6   5    6.20    3.20
   1  -6  -5    9.50    2.70
   1  -6  -5    5.20    2.00
  -1   6   5   10.30    2.80
   0  -6  -5  104.59    7.40
   0  -6  -5  102.49    5.80
   0   6   5   98.59    6.30
  -1  -6  -5   22.00    4.20
  -1  -6  -5   26.90    2.60
   1   6   5   26.50    3.70
  -2  -6  -5   21.40    4.10
  -3  -6  -5  189.08   11.90
  -3  -6  -5  201.78    9.30
  -4  -6  -5   24.00    3.60
   1  -7  -5    2.90    2.20
   1  -7  -5   -1.40    2.40
   0  -7  -5   15.00    2.70
   0  -7  -5   28.50    5.00
  -1  -7  -5   -0.60    2.70
  -2  -7   6   48.30    6.70
  -1  -7   6   51.19    6.20
   0  -7   6   84.39    7.60
   1  -7   6   36.70    5.50
   1  -7   6   38.60    4.50
  -3  -6   6    1.60    2.60
  -1  -6   6    0.00    1.90
  -1  -6   6   -1.70    1.60
   0  -6   6   82.69    6.20
   1  -6   6   25.10    3.40
   2  -6   6   15.40    3.40
   2  -6   6   17.40    3.40
   3  -6   6    1.70    2.60
  -4  -5   6    1.60    1.70
  -4  -5   6   -3.00    2.00
  -3  -5   6  139.79    8.80
  -3  -5   6  113.39    5.90
  -2  -5   6    8.80    2.50
  -1  -5   6   59.39    4.90
   0  -5   6   -0.70    1.30
   1  -5   6  128.89    7.30
   1  -5   6  141.19    7.00
   2  -5   6    1.30    1.70
   2  -5   6    1.30    1.80
   3  -5   6  497.65   21.70
   4  -5   6   19.80    4.60
  -5  -4   6    6.10    2.60
  -5  -4   6   10.50    3.80
  -4  -4   6   11.30    2.50
  -4  -4   6   13.30    3.20
  -3  -4   6   55.89    3.80
  -3  -4   6   51.99    5.10
  -2  -4   6    8.80    3.80
  -1  -4   6   23.20    1.70
   0  -4   6   25.80    2.00
   0  -4   6   27.10    3.30
  -1   4  -6  126.09    5.30
   1  -4   6  128.79    6.80
   1  -4   6  141.59    6.60
   1  -4   6  127.69    6.30
   2  -4   6   10.30    2.50
   2  -4   6    5.40    1.80
   3  -4   6    2.80    1.90
   3  -4   6   -1.10    1.40
   4  -4   6    2.10    2.70
  -5  -3   6   -0.20    1.80
  -5  -3   6    4.40    2.40
  -4  -3   6  204.08   10.30
  -4  -3   6  183.88    9.70
  -3  -3   6  292.17   13.00
  -3  -3   6  326.67   13.40
  -3  -3   6  334.97   14.20
  -2  -3   6    4.50    1.20
  -2  -3   6    4.70    1.10
  -1  -3   6  372.86   13.80
   0  -3   6    8.70    1.20
   0  -3   6   11.50    2.10
   0  -3   6    8.10    1.20
  -1   3  -6   14.80    1.80
   1  -3   6   12.10    1.80
   1  -3   6   11.70    2.10
   1  -3   6   13.10    2.00
  -2   3  -6  264.17   11.30
   2  -3   6  274.77   11.40
   2  -3   6  251.67   11.60
  -3   3  -6  111.89    6.90
   3  -3   6  118.19    6.60
   3  -3   6  126.89    7.50
  -4   3  -6   23.10    4.30
   4  -3   6   25.00    4.30
  -5   3  -6   26.70    6.00
   5  -3   6   38.40    5.70
  -6  -2   6    3.00    2.90
  -5  -2   6   -1.00    1.80
  -5  -2   6    3.30    2.20
   4   2  -6   35.20    3.40
  -4  -2   6   24.70    3.50
  -4  -2   6   22.60    3.20
   3   2  -6    4.30    1.50
  -3  -2   6    2.20    1.50
  -2  -2   6   19.80    2.20
  -2  -2   6   13.80    1.80
  -1  -2   6   71.49    3.50
  -1  -2   6   72.79    3.40
   0  -2   6    6.50    1.00
   0  -2   6    4.10    0.90
   0  -2   6    5.10    1.40
  -1   2  -6   30.70    2.40
  -1   2  -6   33.70    2.70
   1  -2   6   35.30    2.80
   1  -2   6   29.80    2.60
   1  -2   6   32.00    2.50
  -2   2  -6  144.99    7.00
   2  -2   6  134.29    6.80
   2  -2   6  149.19    7.30
  -3   2  -6    3.80    2.00
   3  -2   6    4.70    2.00
   3  -2   6    4.70    1.70
  -4   2  -6   -1.10    2.00
   4  -2   6    1.40    2.10
  -5   2  -6   55.59    6.50
   5  -2   6   47.60    6.40
  -6  -1   6    2.00    2.50
   5   1  -6    8.00    2.80
  -5  -1   6    8.60    2.80
   4   1  -6    3.10    1.80
  -4  -1   6    4.30    2.20
  -4  -1   6    2.50    1.40
   3   1  -6   52.19    3.90
  -3  -1   6   59.79    4.40
   2   1  -6   14.10    2.00
  -2  -1   6   18.40    2.20
  -2  -1   6   14.00    2.00
   1   1  -6 2266.57   79.09
   1   1  -6 2230.78   78.99
  -1  -1   6 2265.77   79.19
  -1  -1   6 2234.08   79.09
   0   1  -6  132.39    5.90
   0   1  -6  133.39    5.50
   0   1  -6  129.69    5.40
   0  -1   6  136.89    5.20
   0  -1   6  132.29    6.00
   0  -1   6  137.19    5.70
   0  -1   6  134.79    5.60
  -1   1  -6   53.29    3.00
  -1   1  -6   48.80    3.00
  -1   1  -6   47.60    2.50
  -1   1  -6   46.60    2.90
   1  -1   6   43.30    2.90
   1  -1   6   40.80    2.90
   1  -1   6   49.10    3.10
  -2   1  -6    2.00    1.40
   2  -1   6    1.10    1.10
   2  -1   6    1.00    1.00
  -3   1  -6    5.40    1.90
   3  -1   6    3.60    1.70
  -4   1  -6  141.59    8.40
   4  -1   6  136.29    8.30
   4  -1   6  140.59    6.40
  -5   1  -6  132.99    9.20
   5  -1   6  140.89    9.30
  -6   1  -6   18.70    5.10
   6  -1   6   19.30    4.70
  -6   0   6    1.80    2.90
   5   0  -6    7.00    2.90
  -5   0   6    8.10    3.20
   4   0  -6   65.09    5.30
  -4   0   6   75.29    5.80
   3   0  -6  179.68    9.20
  -3   0   6  194.48    7.90
  -3   0   6  217.68    9.80
   2   0  -6   57.89    3.80
  -2   0   6   55.59    3.80
   1   0  -6  449.16   16.90
   1   0  -6  441.56   16.90
  -1   0   6  438.46   16.90
  -1   0   6  475.55   17.00
   0   0  -6  405.36   14.40
   0   0  -6  391.66   14.40
   0   0  -6  385.76   14.40
   0   0   6  375.96   14.30
   0   0   6  375.56   14.40
   0   0   6  372.96   14.40
   0   0   6  385.86   14.40
  -1   0  -6  805.52   30.30
  -1   0  -6  854.01   30.20
  -1   0  -6  843.02   30.40
  -1   0  -6  830.12   30.30
   1   0   6  876.91   30.30
   1   0   6  839.62   30.40
   1   0   6  812.62   30.30
  -2   0  -6 1421.76   51.69
   2   0   6 1447.86   51.59
   2   0   6 1420.56   51.69
  -3   0  -6    1.20    1.60
   3   0   6    6.20    1.80
   3   0   6    4.40    1.30
  -4   0  -6    3.60    1.90
   4   0   6    4.00    1.50
   4   0   6    6.50    2.20
  -5   0  -6  153.88    9.60
   5   0   6  144.19    9.20
  -6   0  -6    7.50    3.20
   6   0   6   13.10    3.90
   6  -1  -6   11.10    4.20
  -6   1   6   22.70    5.30
   5  -1  -6  221.38   12.60
  -5   1   6  228.08   12.80
   4  -1  -6   48.30    5.00
  -4   1   6   53.19    5.10
   3  -1  -6   17.80    3.40
  -3   1   6   21.20    3.20
   2  -1  -6  357.26   14.10
  -2   1   6  325.07   14.00
   1  -1  -6  380.56   15.20
   1  -1  -6  393.76   15.10
  -1   1   6  398.06   14.40
  -1   1   6  388.06   15.40
  -1   1   6  402.56   15.20
   0  -1  -6  366.96   14.40
   0  -1  -6  358.16   14.30
   0   1   6  403.56   14.40
   0   1   6  395.46   14.40
   0   1   6  384.36   14.00
   0   1   6  372.76   14.60
  -1  -1  -6  717.73   26.90
  -1  -1  -6  735.73   26.80
  -1  -1  -6  774.42   26.80
  -1  -1  -6  792.12   26.80
   1   1   6  694.93   26.70
   1   1   6  726.43   26.60
   1   1   6  705.73   26.90
   1   1   6  720.13   26.80
  -2  -1  -6  407.26   16.30
  -2  -1  -6  399.56   16.10
  -2  -1  -6  392.06   16.00
   2   1   6  427.66   16.10
   2   1   6  429.16   16.10
  -3  -1  -6   15.50    2.30
   3   1   6   17.20    2.60
   3   1   6   22.50    2.60
  -4  -1  -6  509.25   21.40
   4   1   6  518.25   20.50
   4   1   6  520.45   21.30
  -5  -1  -6    9.60    2.60
   5   1   6    8.60    2.90
  -6  -1  -6    0.50    2.50
   5  -2  -6   22.20    5.00
  -5   2   6    5.60    3.20
   4  -2  -6    5.70    2.60
  -4   2   6    8.80    2.90
   3  -2  -6    0.00    1.40
  -3   2   6    1.60    1.20
  -3   2   6    0.20    1.70
   2  -2  -6 2423.76   88.89
  -2   2   6 2557.34   88.79
   1  -2  -6   18.20    2.30
   1  -2  -6   13.50    2.00
  -1   2   6   22.70    1.80
  -1   2   6   19.00    2.20
  -1   2   6   15.50    2.00
   0  -2  -6    0.70    0.70
   0  -2  -6    1.20    1.00
   0  -2  -6    2.40    0.90
   0   2   6    3.20    1.40
   0   2   6    1.40    1.00
   0   2   6    2.90    1.00
  -1  -2  -6 2993.90  104.19
  -1  -2  -6 3186.98  103.99
  -1  -2  -6 2948.61  104.39
  -1  -2  -6 2699.33  103.89
   1   2   6 2935.81  104.49
   1   2   6 2973.60  104.49
  -2  -2  -6  360.26   14.60
  -2  -2  -6  377.96   15.10
  -2  -2  -6  359.06   14.50
   2   2   6  370.56   15.10
   2   2   6  376.46   14.40
  -3  -2  -6  118.79    6.60
   3   2   6  122.49    6.40
   3   2   6  130.29    6.90
  -4  -2  -6  254.27   12.20
   4   2   6  257.67   11.80
  -5  -2  -6   -0.10    1.50
  -6  -2  -6    1.70    2.80
   5  -3  -6    4.70    3.00
  -5   3   6    3.10    3.10
   4  -3  -6   13.90    3.60
  -4   3   6   12.50    3.50
   3  -3  -6    5.90    2.50
  -3   3   6    6.60    2.40
   2  -3  -6   21.50    3.00
  -2   3   6   27.10    3.30
   1  -3  -6  156.78    7.80
   1  -3  -6  161.88    7.60
  -1   3   6  156.68    7.10
   0  -3  -6  528.85   20.20
   0  -3  -6  504.35   19.40
   0  -3  -6  542.05   18.90
   0  -3  -6  501.95   19.60
   0   3   6  515.15   20.20
   0   3   6  523.55   20.00
   0   3   6  502.25   18.80
  -1  -3  -6    5.00    1.30
  -1  -3  -6    1.00    1.20
  -1  -3  -6    5.80    1.20
   1   3   6    4.00    1.50
   1   3   6    6.10    1.80
  -2  -3  -6   16.00    2.20
  -2  -3  -6   18.40    3.00
  -2  -3  -6   19.30    2.20
   2   3   6   17.30    2.80
  -3  -3  -6   23.50    3.10
  -4  -3  -6  113.49    7.10
  -5  -3  -6   18.60    3.60
   4  -4  -6    1.00    2.60
   3  -4  -6  136.49    8.50
  -3   4   6  137.49    8.10
   2  -4  -6    3.90    1.90
  -2   4   6    2.20    1.70
   1  -4  -6   19.10    2.70
   1  -4  -6   29.70    3.40
   0  -4  -6  134.49    6.40
   0  -4  -6  142.99    6.00
   0  -4  -6  137.29    6.60
   0  -4  -6  133.19    7.30
   0   4   6  136.69    7.30
  -1  -4  -6   51.19    3.30
  -1  -4  -6   56.49    3.50
  -1  -4  -6   55.79    4.50
   1   4   6   59.09    4.30
  -2  -4  -6   25.00    2.50
  -2  -4  -6   35.70    4.40
  -2  -4  -6   27.30    2.60
  -3  -4  -6  495.95   19.60
  -3  -4  -6  488.55   21.30
  -4  -4  -6   13.70    3.10
  -5  -4  -6  152.38    9.50
   4  -5  -6    4.20    3.40
   3  -5  -6   -0.50    1.80
   2  -5  -6   -0.90    1.40
   1  -5  -6   18.70    3.10
   1  -5  -6   17.50    2.80
  -1   5   6   11.60    3.00
   0  -5  -6   52.69    4.70
   0  -5  -6   53.79    3.70
   0   5   6   39.20    4.10
  -1  -5  -6   67.99    4.30
  -1  -5  -6   70.09    5.70
   1   5   6   72.49    5.10
  -2  -5  -6   24.50    2.80
  -2  -5  -6   13.70    3.10
  -3  -5  -6    0.30    2.00
  -3  -5  -6    2.60    1.50
  -4  -5  -6   55.39    4.80
   3  -6  -6    7.20    3.30
   2  -6  -6   10.70    3.00
  -2   6   6   13.60    3.60
   1  -6  -6  113.19    7.60
   1  -6  -6  119.79    7.10
  -1   6   6  128.69    7.90
   0  -6  -6  236.08   10.50
   0  -6  -6  233.98   12.10
   0   6   6  214.68   10.90
  -1  -6  -6   80.09    6.90
  -1  -6  -6   83.19    5.00
   1   6   6   94.49    6.00
  -2  -6  -6   37.50    5.30
  -3  -6  -6   12.30    2.40
  -3  -6  -6    9.70    3.30
  -4  -6  -6   27.60    4.00
   1  -7  -6   20.80    3.50
   0  -7  -6    3.00    2.50
   0  -7  -6    9.20    2.40
  -1  -7  -6    7.00    1.90
  -1  -7  -6    8.30    3.50
  -2  -7   7    8.20    3.50
  -1  -7   7    6.50    3.00
   0  -7   7    9.10    3.50
   1  -7   7   60.89    7.00
   1  -7   7   64.69    5.20
  -2  -6   7   59.79    6.20
  -1  -6   7   -4.90    1.40
   0  -6   7  113.39    7.50
   1  -6   7    3.60    2.40
   1  -6   7    1.70    1.70
   2  -6   7    3.50    2.50
   3  -6   7   84.09    7.20
  -4  -5   7    3.00    2.60
  -4  -5   7    2.00    1.80
  -3  -5   7  171.18    7.80
  -3  -5   7  170.18   10.30
  -1  -5   7   12.00    3.00
   0  -5   7    1.60    1.10
   0  -5   7    1.70    1.70
   1  -5   7    9.30    2.50
   1  -5   7   15.30    2.50
   2  -5   7   35.30    3.90
   2  -5   7   33.40    4.30
   3  -5   7   85.29    6.80
   4  -5   7    4.40    3.40
  -5  -4   7   10.70    3.10
  -5  -4   7    6.00    3.00
  -4  -4   7   12.90    2.60
  -4  -4   7   14.90    3.50
  -3  -4   7  104.99    5.80
  -3  -4   7  116.49    7.40
  -2  -4   7    5.90    1.30
  -1  -4   7  327.97   12.10
   0  -4   7  485.05   18.10
   0  -4   7  490.95   19.70
   1  -4   7    1.90    1.50
   1  -4   7    3.60    1.30
   1  -4   7    1.40    1.20
   2  -4   7   27.60    3.70
   2  -4   7   29.50    3.50
   3  -4   7   14.60    3.10
   3  -4   7    7.80    2.30
   4  -4   7    2.50    2.70
  -5  -3   7   22.20    4.00
  -5  -3   7   19.40    3.80
  -4  -3   7    7.10    2.20
  -4  -3   7    4.60    2.20
  -3  -3   7   24.10    2.90
  -3  -3   7   23.10    2.90
  -3  -3   7   24.50    2.90
  -2  -3   7    1.10    1.00
  -2  -3   7    0.30    0.80
  -1  -3   7  119.69    5.00
  -1  -3   7  121.89    5.00
   0  -3   7   45.90    2.60
   0  -3   7   42.10    3.50
   0  -3   7   41.80    2.50
   1  -3   7    8.00    1.90
   1  -3   7    9.30    1.60
   1  -3   7    9.90    1.80
  -2   3  -7    4.40    1.70
   2  -3   7   -1.30    1.20
   2  -3   7    0.30    1.30
  -3   3  -7   13.10    2.80
   3  -3   7   21.20    3.40
   3  -3   7   17.60    2.80
  -4   3  -7   11.60    3.40
   4  -3   7    8.50    2.90
   5  -3   7    0.50    2.70
  -5  -2   7    0.30    2.00
  -5  -2   7    1.80    2.10
   4   2  -7  703.73   27.50
  -4  -2   7  697.23   28.10
  -4  -2   7  731.83   27.80
   3   2  -7   21.50    2.70
  -3  -2   7   18.70    2.70
  -3  -2   7   16.80    2.60
  -2  -2   7    9.20    1.60
  -2  -2   7    9.60    1.70
  -1  -2   7  215.28    8.70
  -1  -2   7  228.28    8.80
   0  -2   7   10.50    1.40
   0  -2   7    8.10    1.30
   0  -2   7   11.30    2.00
  -1   2  -7  220.48    8.40
  -1   2  -7  211.78    9.00
   1  -2   7  221.68    9.20
   1  -2   7  211.68    9.50
   1  -2   7  236.68    9.30
  -2   2  -7 1872.11   66.99
   2  -2   7 1840.32   67.19
   2  -2   7 1888.71   67.09
  -3   2  -7  139.79    7.80
   3  -2   7  147.29    7.50
   3  -2   7  132.89    7.80
  -4   2  -7    5.60    2.60
   4  -2   7    5.20    2.20
  -5   2  -7  133.49    9.40
   5  -2   7  137.69    9.50
  -6  -1   7    2.10    2.50
   5   1  -7   25.90    4.00
  -5  -1   7   22.50    3.80
   4   1  -7   52.59    4.50
  -4  -1   7   45.40    4.50
  -4  -1   7   41.20    3.40
   3   1  -7   19.50    2.50
  -3  -1   7   17.10    2.60
   2   1  -7   33.50    2.80
  -2  -1   7   38.30    3.10
  -2  -1   7   39.20    2.80
   1   1  -7   78.69    3.80
   1   1  -7   78.49    3.80
  -1  -1   7   73.69    3.80
  -1  -1   7   77.49    4.00
   0   1  -7 1169.88   41.40
   0   1  -7 1111.29   40.90
   0   1  -7 1188.38   40.80
   0  -1   7 1219.88   41.00
   0  -1   7 1124.49   40.60
   0  -1   7 1083.89   41.00
   0  -1   7 1143.49   41.40
  -1   1  -7    2.30    0.90
  -1   1  -7    1.90    1.10
  -1   1  -7    3.60    1.30
   1  -1   7    4.00    1.20
   1  -1   7    4.10    1.10
   1  -1   7    1.60    1.10
  -2   1  -7   18.70    2.50
   2  -1   7   15.80    2.40
   2  -1   7   17.00    2.30
  -3   1  -7   67.89    5.20
   3  -1   7   77.29    5.20
   3  -1   7   74.59    5.00
  -4   1  -7    3.70    2.10
   4  -1   7    5.60    2.30
   4  -1   7    5.50    1.50
  -5   1  -7   93.89    7.70
   5  -1   7   84.69    7.30
  -6   1  -7    5.70    3.90
   6  -1   7    2.40    3.00
  -6   0   7   25.70    5.40
   5   0  -7   89.79    7.20
  -5   0   7   81.79    7.20
   4   0  -7  117.29    7.30
  -4   0   7  117.09    5.10
  -4   0   7  113.89    7.50
   3   0  -7  224.18   10.80
  -3   0   7  255.27   11.30
   2   0  -7  280.17   11.70
  -2   0   7  284.57   11.90
   1   0  -7  562.24   20.00
   1   0  -7  517.35   19.90
  -1   0   7  499.25   19.90
  -1   0   7  562.34   20.00
   0   0  -7  647.04   25.00
   0   0  -7  692.63   25.00
   0   0  -7  630.24   24.90
   0   0   7  688.53   25.00
   0   0   7  679.33   25.10
   0   0   7  755.82   25.20
   0   0   7  709.93   25.00
  -1   0  -7  229.18    9.00
  -1   0  -7  213.48    8.90
  -1   0  -7  215.18    8.70
  -1   0  -7  204.48    8.80
   1   0   7  217.98    8.90
   1   0   7  215.08    8.80
   1   0   7  212.08    8.70
   1   0   7  220.78    9.00
  -2   0  -7   86.59    4.80
  -2   0  -7   91.59    5.10
   2   0   7   84.79    4.90
   2   0   7   87.59    5.00
  -3   0  -7   47.10    4.20
   3   0   7   45.60    4.00
   3   0   7   47.30    3.30
  -4   0  -7  158.68    8.90
   4   0   7  157.18    8.70
   4   0   7  141.79    7.20
  -5   0  -7   11.10    3.30
   5   0   7   13.80    3.40
  -6   0  -7    0.90    3.10
   6   0   7    2.80    3.20
   5  -1  -7   61.89    6.40
  -5   1   7   50.39    6.30
   4  -1  -7   32.20    4.60
  -4   1   7   24.10    3.90
   3  -1  -7    0.60    1.30
  -3   1   7    2.30    1.70
   2  -1  -7  293.17   12.70
  -2   1   7  312.57   12.80
   1  -1  -7  221.08    8.80
   1  -1  -7  209.98    8.80
  -1   1   7  205.78    8.00
  -1   1   7  187.18    8.60
   0  -1  -7  271.77   11.40
   0  -1  -7  290.07   11.60
   0   1   7  305.07   11.60
   0   1   7  306.57   11.20
   0   1   7  282.97   11.70
   0   1   7  307.77   11.50
  -1  -1  -7  607.44   23.30
  -1  -1  -7  653.03   23.40
  -1  -1  -7  637.94   23.50
  -1  -1  -7  604.14   23.20
   1   1   7  644.44   23.40
   1   1   7  636.64   23.20
   1   1   7  634.54   23.40
  -2  -1  -7  341.77   13.70
  -2  -1  -7  348.27   13.90
  -2  -1  -7  336.57   13.70
   2   1   7  339.47   13.60
   2   1   7  331.77   13.60
  -3  -1  -7    6.40    2.10
   3   1   7    8.70    2.10
   3   1   7    7.30    1.70
  -4  -1  -7  498.25   20.60
   4   1   7  468.55   19.50
   4   1   7  495.75   20.30
  -5  -1  -7   34.60    5.10
   5   1   7   26.70    4.20
  -6  -1  -7   10.70    3.60
   5  -2  -7   10.00    3.90
  -5   2   7   14.10    3.90
   4  -2  -7   11.00    3.40
  -4   2   7   14.10    3.20
   3  -2  -7   95.69    6.20
  -3   2   7   80.79    5.90
  -3   2   7   85.99    4.60
   2  -2  -7  368.66   15.60
  -2   2   7  381.66   15.50
   1  -2  -7   69.29    4.20
   1  -2  -7   71.69    4.30
  -1   2   7   72.59    3.70
  -1   2   7   70.09    4.10
  -1   2   7   77.09    4.20
   0  -2  -7   16.60    2.00
   0  -2  -7   18.70    1.90
   0  -2  -7   20.00    1.50
   0   2   7   18.50    1.90
   0   2   7   19.00    2.10
   0   2   7   25.60    2.90
  -1  -2  -7   22.30    2.10
  -1  -2  -7   24.10    2.40
  -1  -2  -7   24.40    2.20
  -1  -2  -7   26.00    2.40
   1   2   7   24.90    2.70
   1   2   7   25.80    2.60
   1   2   7   25.10    2.10
  -2  -2  -7   56.29    3.70
  -2  -2  -7   68.89    4.30
  -2  -2  -7   59.49    3.90
   2   2   7   70.79    4.30
   2   2   7   55.39    3.70
  -3  -2  -7  518.95   20.60
   3   2   7  497.05   20.50
   3   2   7  523.05   20.10
  -4  -2  -7   78.39    6.00
   4   2   7   87.99    5.80
  -5  -2  -7    9.70    3.10
  -6  -2  -7   40.70    6.60
   5  -3  -7   12.10    4.40
  -5   3   7   13.10    4.30
   4  -3  -7   -0.30    2.10
  -4   3   7   -0.30    2.30
   3  -3  -7  316.07   15.20
  -3   3   7  356.76   15.10
   2  -3  -7   22.60    3.20
  -2   3   7   17.70    2.60
   1  -3  -7    6.90    1.80
  -1   3   7   12.50    1.80
   0  -3  -7 1507.05   57.29
   0  -3  -7 1662.83   57.69
   0  -3  -7 1616.94   58.09
   0  -3  -7 1675.33   56.79
   0   3   7 1603.04   57.89
   0   3   7 1574.64   58.19
  -1  -3  -7   18.10    2.90
  -1  -3  -7   24.20    2.60
  -1  -3  -7   20.40    2.40
   1   3   7   24.00    2.90
   1   3   7   21.40    2.80
  -2  -3  -7   39.90    3.30
  -2  -3  -7   45.70    3.90
  -2  -3  -7   39.40    3.80
   2   3   7   41.40    2.60
   2   3   7   52.19    4.10
  -3  -3  -7   14.00    2.40
  -4  -3  -7    2.30    2.00
  -5  -3  -7   24.10    4.20
   4  -4  -7   -0.30    2.60
   3  -4  -7    3.70    2.20
  -3   4   7    3.80    2.50
   2  -4  -7   -0.30    1.40
  -2   4   7    2.10    1.80
   1  -4  -7   58.19    4.20
   0  -4  -7    4.00    1.30
   0  -4  -7    5.90    1.90
   0  -4  -7    7.80    1.70
   0   4   7    8.70    2.30
  -1  -4  -7    2.20    1.10
  -1  -4  -7    4.70    1.80
  -1  -4  -7    0.60    1.10
   1   4   7    2.30    1.70
  -2  -4  -7    6.60    1.60
  -2  -4  -7    5.40    1.50
  -2  -4  -7    3.20    1.70
  -3  -4  -7    1.80    1.90
  -3  -4  -7    2.70    1.40
  -4  -4  -7    3.70    2.10
  -5  -4  -7    6.20    2.70
   4  -5  -7   15.20    4.50
   3  -5  -7  106.19    7.90
   2  -5  -7    6.90    2.40
   1  -5  -7   14.80    2.70
   1  -5  -7   14.20    2.70
  -1   5   7   15.30    3.20
   0  -5  -7  204.58   10.60
   0  -5  -7  214.28    9.70
   0   5   7  211.28   10.40
  -1  -5  -7  159.88    9.20
  -1  -5  -7  156.78    7.60
   1   5   7  164.98    8.60
  -2  -5  -7  274.87   12.00
  -2  -5  -7  297.47   14.20
  -3  -5  -7   38.20    5.30
  -3  -5  -7   38.70    3.60
  -4  -5  -7    3.00    2.10
   3  -6  -7   -1.60    2.30
   2  -6  -7   13.30    3.30
  -2   6   7   10.40    3.70
   1  -6  -7    2.00    1.60
  -1   6   7    1.00    2.20
   0  -6  -7   10.00    2.40
   0  -6  -7   14.70    3.30
   0   6   7   15.90    3.00
  -1  -6  -7   20.60    2.80
  -1  -6  -7   20.30    3.90
   1   6   7   21.50    3.50
  -2  -6  -7   26.50    3.20
  -2  -6  -7   21.10    4.00
  -3  -6  -7    8.80    3.60
  -3  -6  -7   17.10    3.00
  -4  -6  -7    1.30    1.90
   1  -7  -7   31.40    4.30
   0  -7  -7    0.20    1.80
   0  -7  -7    4.00    2.80
  -1  -7  -7    4.30    2.90
  -1  -7  -7    2.00    1.50
  -1  -7   8    9.40    3.30
   0  -7   8    5.20    3.20
   1  -7   8    0.30    2.70
   1  -7   8   -0.10    2.00
  -2  -6   8   97.99    7.80
  -2  -6   8  101.59    7.80
  -1  -6   8   13.90    3.50
   0  -6   8  243.88   12.40
   1  -6   8   15.90    2.80
   1  -6   8   13.00    3.10
   2  -6   8    2.50    2.40
   3  -6   8   35.20    5.40
  -4  -5   8  133.09    7.50
  -4  -5   8  137.39    9.60
  -3  -5   8   72.59    6.70
  -3  -5   8   80.79    4.70
  -1  -5   8    9.30    2.60
   0  -5   8   23.60    3.70
   1  -5   8  101.09    6.50
   1  -5   8  100.39    5.80
   2  -5   8  109.09    6.90
   2  -5   8  106.09    6.60
   3  -5   8   88.39    6.90
   4  -5   8   23.00    4.70
  -5  -4   8    3.70    2.90
  -5  -4   8    0.60    2.10
  -4  -4   8  173.78    8.70
  -4  -4   8  147.19    9.70
  -3  -4   8    0.10    1.00
  -3  -4   8    2.10    1.50
  -2  -4   8  222.08    9.90
  -2  -4   8  227.88    9.30
  -2  -4   8  236.98    9.40
  -1  -4   8    5.20    2.10
   0  -4   8  109.89    5.10
   0  -4   8  108.19    5.10
   0  -4   8  114.29    6.50
   1  -4   8   21.20    2.60
   1  -4   8   19.70    3.10
   1  -4   8   23.60    2.80
   2  -4   8  177.98    9.10
   2  -4   8  178.18    8.90
   3  -4   8   30.10    4.30
   3  -4   8   21.20    3.30
   4  -4   8   12.40    4.00
  -5  -3   8   -0.60    2.00
  -5  -3   8   -1.80    1.90
  -4  -3   8    7.90    2.30
  -4  -3   8    8.90    2.60
  -3  -3   8   66.69    4.50
  -3  -3   8   61.59    4.20
  -3  -3   8   58.19    4.20
  -2  -3   8  303.37   11.80
  -2  -3   8  290.47   11.90
  -1  -3   8  859.91   30.70
  -1  -3   8  851.01   30.90
   0  -3   8   17.30    1.80
   0  -3   8   19.10    1.80
   0  -3   8   16.10    2.60
  -1   3  -8  295.37   10.80
   1  -3   8  280.47   11.90
   1  -3   8  303.27   12.70
   1  -3   8  297.47   12.10
  -2   3  -8  256.07   11.20
   2  -3   8  266.87   11.80
   2  -3   8  260.17   11.50
  -3   3  -8   24.40    3.50
   3  -3   8   25.80    3.50
   3  -3   8   24.60    3.70
  -4   3  -8   17.30    3.70
   4  -3   8   19.10    3.80
   5  -3   8  123.89    9.50
  -5  -2   8   24.60    3.60
  -5  -2   8   17.60    3.60
   4   2  -8   47.90    4.20
  -4  -2   8   57.19    4.70
  -4  -2   8   59.29    5.00
   3   2  -8   12.50    2.10
  -3  -2   8   11.90    2.30
  -3  -2   8    7.10    2.10
  -2  -2   8  183.98    8.10
  -2  -2   8  193.28    8.40
  -1  -2   8  140.89    6.00
  -1  -2   8  140.69    6.20
   0   2  -8  124.49    5.20
   0  -2   8  123.59    5.70
   0  -2   8  134.29    6.40
   0  -2   8  128.19    5.60
  -1   2  -8  122.79    5.80
  -1   2  -8  122.69    5.10
   1  -2   8  127.99    5.90
   1  -2   8  115.59    5.90
   1  -2   8  131.79    6.50
  -2   2  -8    9.30    2.00
   2  -2   8    8.20    2.00
   2  -2   8    8.30    1.90
  -3   2  -8   72.49    5.30
   3  -2   8   73.89    5.40
   3  -2   8   73.19    5.10
  -4   2  -8    1.60    2.20
   4  -2   8    0.60    1.90
  -5   2  -8   10.90    3.60
   5  -2   8   16.30    3.90
  -6  -1   8   21.00    4.50
   5   1  -8  235.88   14.80
  -5  -1   8  267.07   13.60
   4   1  -8    5.60    2.20
  -4  -1   8    6.00    2.40
  -4  -1   8    3.90    1.50
   3   1  -8    3.90    1.70
  -3  -1   8    4.00    1.70
  -3  -1   8    6.20    1.70
   2   1  -8  689.53   24.90
  -2  -1   8  675.33   25.20
  -2  -1   8  634.54   25.00
   1   1  -8    2.00    1.00
  -1  -1   8   -0.40    0.80
  -1  -1   8    0.10    0.80
   0   1  -8    1.80    1.00
   0   1  -8    2.10    1.10
   0   1  -8    2.40    0.90
   0  -1   8    3.80    1.10
   0  -1   8    2.30    1.30
   0  -1   8    1.90    0.80
   0  -1   8    1.00    1.00
  -1   1  -8 1368.26   48.80
  -1   1  -8 1375.06   48.30
   1  -1   8 1311.67   48.80
   1  -1   8 1389.36   48.80
   1  -1   8 1361.56   49.20
  -2   1  -8  176.38    8.40
   2  -1   8  178.38    8.40
   2  -1   8  188.38    8.50
  -3   1  -8    0.60    1.60
   3  -1   8    2.20    1.60
   3  -1   8   -2.50    1.10
  -4   1  -8  661.03   26.30
   4  -1   8  624.04   26.00
   4  -1   8  619.74   24.00
  -5   1  -8   28.70    4.70
   5  -1   8   31.30    4.90
  -6   1  -8    3.60    3.70
   6  -1   8    6.00    3.50
  -6   0   8    0.20    2.90
   5   0  -8    4.70    2.90
  -5   0   8    5.20    2.90
   4   0  -8    5.20    2.30
  -4   0   8    3.30    2.10
  -4   0   8    4.00    1.20
   3   0  -8   89.59    5.60
  -3   0   8   83.59    5.70
   2   0  -8    7.90    1.70
  -2   0   8    7.70    1.90
   1   0  -8  232.18    9.60
  -1   0   8  238.08    9.50
  -1   0   8  223.98    9.60
   0   0  -8  130.19    6.20
   0   0  -8  141.39    6.20
   0   0  -8  142.39    6.30
   0   0   8  141.49    6.30
   0   0   8  135.59    6.30
   0   0   8  148.09    6.20
  -1   0  -8    0.40    0.90
  -1   0  -8    0.30    0.90
  -1   0  -8    1.90    1.00
  -1   0  -8   -0.50    0.90
   1   0   8    1.50    1.10
   1   0   8    1.50    1.10
   1   0   8    3.50    1.20
   1   0   8   -0.70    0.90
  -2   0  -8  175.98    8.00
  -2   0  -8  174.08    8.20
   2   0   8  180.38    8.20
   2   0   8  171.28    8.20
  -3   0  -8   37.10    3.90
   3   0   8   36.60    3.70
  -4   0  -8  265.37   12.90
   4   0   8  263.07   12.60
   4   0   8  255.27   11.30
  -5   0  -8    7.60    3.00
   5   0   8    8.80    2.90
  -6   0  -8   -0.80    3.10
   6   0   8    0.00    2.80
   5  -1  -8  248.38   13.80
  -5   1   8  259.77   14.20
   4  -1  -8   36.90    4.60
  -4   1   8   34.80    4.70
   3  -1  -8   18.50    3.00
  -3   1   8   14.20    2.80
   2  -1  -8 1194.98   45.80
  -2   1   8 1287.27   45.90
  -2   1   8 1281.27   46.00
   1  -1  -8   38.10    2.90
   1  -1  -8   34.80    2.90
  -1   1   8   36.40    2.30
  -1   1   8   39.60    3.00
   0  -1  -8   62.39    3.40
   0  -1  -8   53.39    3.50
   0   1   8   59.99    3.20
   0   1   8   58.79    3.50
   0   1   8   64.69    3.80
   0   1   8   60.69    3.50
  -1  -1  -8   79.89    4.40
  -1  -1  -8   82.99    4.40
  -1  -1  -8   92.19    4.50
  -1  -1  -8   88.99    4.40
   1   1   8   76.69    4.50
   1   1   8   83.39    4.40
   1   1   8   90.69    4.60
  -2  -1  -8   14.00    2.30
  -2  -1  -8   10.10    2.10
  -2  -1  -8   10.80    2.00
   2   1   8    8.70    1.70
   2   1   8    9.00    1.70
  -3  -1  -8   36.50    4.20
   3   1   8   29.90    3.00
   3   1   8   34.20    3.40
  -4  -1  -8    7.20    2.40
   4   1   8    3.30    1.80
   4   1   8    5.40    2.10
  -5  -1  -8   42.20    5.60
   5   1   8   41.40    5.30
  -6  -1  -8   71.49    7.50
   5  -2  -8   -4.40    1.90
  -5   2   8   -3.30    2.60
   4  -2  -8    3.00    2.10
  -4   2   8   -1.30    2.00
   3  -2  -8   99.19    6.50
  -3   2   8   93.59    6.20
  -3   2   8   91.49    5.00
   2  -2  -8    0.90    1.10
  -2   2   8   -0.10    1.50
  -2   2   8    0.20    0.70
   1  -2  -8  173.38    7.80
   1  -2  -8  153.58    7.50
  -1   2   8  159.38    7.40
  -1   2   8  167.18    7.00
   0  -2  -8  195.98    7.70
   0  -2  -8  182.88    8.30
   0  -2  -8  209.28    8.60
   0   2   8  193.58    7.70
   0   2   8  194.58    8.90
   0   2   8  196.08    8.40
   0   2   8  196.18    8.20
  -1  -2  -8  108.59    5.50
  -1  -2  -8  101.09    5.10
  -1  -2  -8   90.29    5.00
   1   2   8  101.59    4.90
   1   2   8  101.99    5.50
   1   2   8  103.89    5.50
  -2  -2  -8  210.88    9.20
  -2  -2  -8  198.48    9.70
   2   2   8  199.38    8.90
   2   2   8  209.98    9.50
  -3  -2  -8  637.54   25.90
   3   2   8  682.73   25.70
   3   2   8  685.43   26.20
  -4  -2  -8   95.49    6.50
   4   2   8   83.09    5.80
  -5  -2  -8   -5.70    1.70
  -6  -2  -8    1.00    2.70
   5  -3  -8   -3.40    2.50
  -5   3   8    6.00    3.50
   4  -3  -8    1.70    2.70
  -4   3   8    0.20    2.50
   3  -3  -8  358.66   15.90
  -3   3   8  326.67   15.10
   2  -3  -8    2.80    1.70
  -2   3   8    3.70    1.70
   1  -3  -8    2.60    1.30
  -1   3   8    1.30    1.00
  -1   3   8    1.60    1.30
   0  -3  -8  350.66   14.60
   0  -3  -8  375.86   13.60
   0  -3  -8  347.07   14.30
   0   3   8  379.06   15.30
   0   3   8  365.36   14.80
  -1  -3  -8   11.60    1.90
  -1  -3  -8   10.90    1.90
   1   3   8   10.80    2.20
   1   3   8    7.30    1.20
   1   3   8   10.70    2.20
  -2  -3  -8   57.49    3.90
  -3  -3  -8   10.50    2.30
  -4  -3  -8    3.80    2.10
  -5  -3  -8   14.00    3.60
   4  -4  -8    7.50    3.50
   3  -4  -8   43.50    5.70
  -3   4   8   42.50    4.90
   2  -4  -8   57.09    4.80
  -2   4   8   51.69    4.20
   1  -4  -8  111.89    6.40
   0  -4  -8  298.37   13.10
   0  -4  -8  294.77   12.10
   0  -4  -8  296.87   12.40
   0   4   8  270.87   12.90
  -1  -4  -8   24.10    2.40
  -1  -4  -8   32.10    3.40
  -1  -4  -8   22.10    3.30
   1   4   8   26.90    3.50
  -2  -4  -8   30.00    4.10
  -2  -4  -8   29.90    3.30
  -2  -4  -8   26.80    3.00
  -3  -4  -8   74.99    5.20
  -4  -4  -8   45.30    4.60
  -5  -4  -8  374.46   17.60
   4  -5  -8   -0.60    2.60
   3  -5  -8    0.10    1.90
   2  -5  -8    8.90    2.70
   1  -5  -8   11.10    2.50
  -1   5   8    8.00    3.00
   0  -5  -8   39.10    3.60
   0  -5  -8   42.70    4.90
   0   5   8   43.80    4.40
  -1  -5  -8    0.30    1.70
  -1  -5  -8   -0.60    1.10
   1   5   8   -0.90    1.50
  -2  -5  -8    9.20    2.60
  -2  -5  -8    8.40    1.90
  -3  -5  -8   36.70    4.00
  -4  -5  -8   25.80    4.20
   2  -6  -8    4.80    2.60
  -2   6   8    1.50    3.00
   1  -6  -8  455.15   19.10
  -1   6   8  438.16   19.70
   0  -6  -8   13.80    2.60
   0  -6  -8   12.00    3.20
   0   6   8   15.60    3.20
  -1  -6  -8   56.79    4.30
  -1  -6  -8   60.29    6.00
   1   6   8   58.79    5.30
  -2  -6  -8   42.50    5.70
  -2  -6  -8   55.69    4.30
  -3  -6  -8   37.20    4.10
   1  -7  -8    0.20    2.30
   0  -7  -8   33.60    4.00
  -1  -7  -8   16.80    2.80
  -1  -7  -8   16.40    4.80
  -1  -7   9   14.00    3.90
   1  -7   9   14.30    3.10
   1  -7   9    5.80    3.10
  -2  -6   9   60.59    7.30
  -2  -6   9   61.89    7.20
  -1  -6   9   88.79    7.00
   0  -6   9   17.00    3.70
   1  -6   9   40.50    4.10
   1  -6   9   46.90    5.40
   2  -6   9   11.40    3.10
   3  -6   9    2.40    2.70
  -4  -5   9   30.20    3.70
  -4  -5   9   25.40    4.70
  -3  -5   9  244.58   10.90
  -3  -5   9  267.57   13.60
  -1  -5   9  261.57   12.80
   0  -5   9  114.69    5.60
   0  -5   9  111.59    7.20
   1  -5   9   32.10    3.30
   1  -5   9   33.40    4.20
   2  -5   9  103.19    6.60
   2  -5   9   91.89    6.40
   3  -5   9    0.20    2.10
   4  -5   9    6.40    3.20
  -5  -4   9    5.10    2.40
  -5  -4   9    9.90    3.40
  -4  -4   9   82.59    5.60
  -4  -4   9   78.29    6.70
  -3  -4   9    3.70    1.50
  -3  -4   9    3.30    1.60
  -2  -4   9  128.69    5.90
  -2  -4   9  118.69    5.80
  -2  -4   9  123.19    5.80
  -1  -4   9   12.00    2.90
   0  -4   9  116.59    5.40
   0  -4   9  111.99    5.30
   0  -4   9  108.59    6.60
   1  -4   9    3.40    1.40
   1  -4   9    1.70    1.60
   1  -4   9    3.00    1.50
   2  -4   9  770.72   29.60
   2  -4   9  756.52   29.60
   3  -4   9   56.49    5.30
   3  -4   9   58.79    4.90
   4  -4   9   25.50    4.60
  -5  -3   9   32.90    4.60
  -5  -3   9   26.90    4.80
  -4  -3   9   74.99    5.70
  -4  -3   9   63.59    5.20
  -3  -3   9   12.00    2.30
  -2  -3   9  156.58    7.10
  -2  -3   9  159.88    7.20
  -1  -3   9  144.79    7.60
  -1  -3   9  142.89    6.20
  -1  -3   9  138.89    6.30
   0  -3   9  207.08    9.60
   0  -3   9  203.08    8.40
   0  -3   9  207.38    8.50
   1  -3   9   12.40    2.50
   1  -3   9    9.50    1.90
   1  -3   9   13.80    2.00
  -2   3  -9   30.60    3.10
   2  -3   9   35.60    3.50
   2  -3   9   31.30    3.60
  -3   3  -9   -1.40    1.60
   3  -3   9    4.70    2.10
   3  -3   9    6.90    2.40
  -4   3  -9   63.09    6.00
   4  -3   9   54.49    5.70
   5  -3   9    5.30    3.20
  -5  -2   9  130.49    8.80
   4   2  -9  143.89    7.80
  -4  -2   9  144.39    8.30
  -4  -2   9  133.39    7.70
   3   2  -9   40.00    3.20
  -3  -2   9   38.50    3.60
  -2  -2   9  126.99    6.10
  -2  -2   9  123.59    6.20
   1   2  -9   33.30    2.40
  -1  -2   9   33.20    2.40
  -1  -2   9   34.30    2.60
   0  -2   9   71.39    3.90
   0  -2   9   78.29    4.10
   0  -2   9   75.99    4.60
  -1   2  -9  746.43   27.20
  -1   2  -9  749.92   27.90
   1  -2   9  760.12   28.00
   1  -2   9  768.52   28.20
   1  -2   9  764.52   28.70
  -2   2  -9   90.09    5.40
   2  -2   9   91.39    5.50
   2  -2   9   90.59    5.60
  -3   2  -9   58.39    4.90
   3  -2   9   63.59    4.80
   3  -2   9   64.19    5.10
  -4   2  -9   24.50    4.10
   4  -2   9   32.50    5.00
  -5   2  -9    5.80    3.30
   5  -2   9    7.50    3.20
  -5  -1   9   57.69    6.00
   4   1  -9   12.80    3.10
  -4  -1   9   11.30    3.00
  -4  -1   9    9.80    2.00
   3   1  -9    0.30    1.10
  -3  -1   9    0.60    1.10
  -3  -1   9   -0.60    1.40
   2   1  -9   15.60    2.30
  -2  -1   9   13.20    2.20
  -2  -1   9    8.50    1.80
   1   1  -9   17.70    1.90
  -1  -1   9   11.90    1.90
  -1  -1   9   19.60    2.40
  -1  -1   9   14.60    1.80
   0   1  -9  120.19    5.90
   0   1  -9  108.99    5.20
   0   1  -9  106.99    5.30
   0  -1   9  104.59    5.60
   0  -1   9  113.39    5.30
   0  -1   9  106.99    5.30
   0  -1   9  110.29    4.80
  -1   1  -9   25.30    2.50
  -1   1  -9   27.30    2.10
   1  -1   9   27.30    2.50
   1  -1   9   19.80    2.40
   1  -1   9   24.60    2.80
  -2   1  -9   34.20    3.30
  -2   1  -9   32.00    2.70
   2  -1   9   29.50    3.10
   2  -1   9   32.50    3.10
  -3   1  -9   10.50    2.60
   3  -1   9   17.70    2.90
   3  -1   9   17.10    2.90
  -4   1  -9   20.30    3.60
   4  -1   9   28.60    4.20
  -5   1  -9   87.89    7.40
   5  -1   9   71.19    6.90
  -6   1  -9   -0.90    2.90
   6  -1   9    0.50    3.10
   5   0  -9    4.30    2.80
  -5   0   9   -1.40    2.50
   4   0  -9    2.50    1.90
  -4   0   9    3.90    1.20
  -4   0   9    5.10    2.30
   3   0  -9  197.28    9.60
  -3   0   9  192.38    9.70
   2   0  -9 1346.67   46.70
  -2   0   9 1213.98   46.70
   1   0  -9   84.89    4.60
  -1   0   9   78.89    4.50
  -1   0   9   85.19    4.40
  -1   0   9   94.99    4.80
   0   0  -9 1165.18   39.40
   0   0  -9 1021.80   39.20
   0   0  -9 1074.19   39.20
   0   0   9 1066.09   39.30
   0   0   9 1157.28   39.40
   0   0   9 1072.59   39.20
   0   0   9 1050.99   39.30
  -1   0  -9  762.82   28.20
  -1   0  -9  769.52   28.10
  -1   0  -9  761.82   27.90
   1   0   9  748.53   28.10
   1   0   9  780.72   28.30
   1   0   9  783.42   28.00
   1   0   9  724.43   28.10
  -2   0  -9  227.38    9.70
  -2   0  -9  219.98    9.90
   2   0   9  216.78    9.80
   2   0   9  219.08    9.90
  -3   0  -9  119.69    6.90
   3   0   9  111.09    6.70
  -4   0  -9   82.19    6.30
   4   0   9   91.59    6.40
   4   0   9   80.59    5.20
  -5   0  -9   67.69    6.60
   5   0   9   63.89    6.30
  -6   0  -9   -0.60    3.30
   6   0   9   -1.80    2.70
   5  -1  -9   26.30    4.90
  -5   1   9   35.90    5.50
   4  -1  -9    4.90    2.60
  -4   1   9    5.40    2.60
   3  -1  -9   62.79    5.00
  -3   1   9   71.79    5.40
   2  -1  -9    5.60    1.40
  -2   1   9    7.00    1.80
   1  -1  -9   17.90    2.50
  -1   1   9   20.50    2.40
  -1   1   9   18.10    1.80
   0  -1  -9   86.49    4.60
   0  -1  -9   94.69    4.90
   0   1   9   92.69    4.80
   0   1   9   93.69    4.50
   0   1   9   85.99    4.90
  -1  -1  -9   75.49    4.40
  -1  -1  -9   80.59    4.50
  -1  -1  -9   87.29    4.50
   1   1   9   82.09    4.40
   1   1   9   76.49    4.40
   1   1   9   83.79    4.60
  -2  -1  -9  243.38   10.50
  -2  -1  -9  247.28   10.60
   2   1   9  222.18   10.50
   2   1   9  247.08   10.40
  -3  -1  -9   45.30    4.00
   3   1   9   46.80    3.70
   3   1   9   40.80    3.70
  -4  -1  -9   93.19    6.50
   4   1   9   76.79    5.80
   4   1   9   93.49    8.10
  -5  -1  -9  103.29    7.80
   5   1   9  102.09    7.50
  -6  -1  -9   36.00    5.90
   5  -2  -9    2.10    2.70
  -5   2   9   -2.10    2.60
   4  -2  -9    3.50    2.20
  -4   2   9    4.60    2.70
   3  -2  -9  944.31   38.50
  -3   2   9 1067.39   38.60
   2  -2  -9    3.10    1.50
  -2   2   9    5.70    1.00
  -2   2   9    5.70    2.00
   1  -2  -9   20.00    2.90
   1  -2  -9   21.30    2.70
  -1   2   9   14.00    2.30
  -1   2   9   18.80    1.90
   0  -2  -9    2.40    1.00
   0  -2  -9    2.90    1.20
   0   2   9    3.70    1.60
   0   2   9    2.90    1.20
   0   2   9    0.30    1.10
   0   2   9    1.40    0.90
  -1  -2  -9   50.39    3.40
  -1  -2  -9   41.60    3.10
  -1  -2  -9   40.50    3.20
   1   2   9   42.90    3.00
   1   2   9   40.70    3.20
  -2  -2  -9   50.69    3.80
   2   2   9   54.49    3.70
   2   2   9   55.39    4.00
  -3  -2  -9  694.13   25.60
   3   2   9  605.84   24.90
  -4  -2  -9   12.80    3.10
   4   2   9    8.50    2.40
  -5  -2  -9   22.60    4.30
  -6  -2  -9   -0.90    2.70
   5  -3  -9    5.30    3.30
  -5   3   9   -1.60    2.90
   4  -3  -9   13.50    3.80
  -4   3   9    9.30    3.00
  -3   3   9  294.37   13.80
   2  -3  -9    0.60    1.30
  -2   3   9    2.00    1.60
   1  -3  -9   45.70    3.60
  -1   3   9   35.60    3.20
  -1   3   9   38.30    2.90
   0  -3  -9  693.33   26.80
   0  -3  -9  723.33   26.00
   0  -3  -9  718.83   27.10
   0   3   9  699.93   27.60
   0   3   9  731.33   27.20
   0   3   9  734.03   26.40
  -1  -3  -9  487.95   19.40
  -1  -3  -9  524.75   19.60
   1   3   9  497.95   20.10
  -2  -3  -9  273.37   11.60
   2   3   9  264.17   12.20
  -3  -3  -9  237.68   12.90
  -3  -3  -9  226.78   10.70
   3   3   9  222.88   10.00
  -4  -3  -9   25.30    3.70
  -5  -3  -9   26.20    4.80
   4  -4  -9   13.60    4.10
   3  -4  -9   -0.80    1.90
  -3   4   9    2.90    2.60
   2  -4  -9   43.10    4.30
  -2   4   9   43.30    3.90
   1  -4  -9  320.07   13.90
  -1   4   9  313.37   13.00
   0  -4  -9   12.50    2.40
   0  -4  -9   10.40    1.90
   0   4   9    7.90    2.30
  -1  -4  -9   51.09    3.60
  -1  -4  -9   52.29    3.90
   1   4   9   44.80    4.10
  -2  -4  -9   30.00    3.00
  -2  -4  -9   30.40    3.00
   2   4   9   43.20    4.60
  -3  -4  -9   58.79    4.50
  -4  -4  -9    0.20    1.70
  -5  -4  -9   37.10    5.00
   3  -5  -9    3.10    2.50
   2  -5  -9   26.20    4.30
   1  -5  -9   21.10    3.20
  -1   5   9   17.70    3.70
   0  -5  -9   54.19    4.20
   0   5   9   51.49    4.90
  -1  -5  -9    5.10    1.90
   1   5   9    4.80    2.40
  -2  -5  -9  277.17   12.10
  -3  -5  -9    9.60    2.40
  -4  -5  -9  248.58   12.40
   2  -6  -9    0.90    1.90
  -2   6   9    1.10    2.90
   1  -6  -9    6.20    2.40
  -1   6   9    6.00    2.80
   0  -6  -9    0.50    1.50
   0   6   9   -4.00    1.80
  -1  -6  -9    3.40    1.70
   1   6   9    6.40    2.50
  -2  -6  -9   24.20    3.40
  -3  -6  -9   50.39    4.40
   0  -7  -9   14.70    2.90
  -1  -7  -9   90.19    5.90
  -2  -7  -9   19.30    3.20
  -1  -7  10    4.50    3.30
  -2  -6  10   15.10    4.10
  -1  -6  10   87.59    7.10
   0  -6  10   91.39    7.20
   1  -6  10    7.80    2.80
   1  -6  10    5.90    2.40
   2  -6  10   38.10    5.00
  -4  -5  10    0.20    1.50
  -4  -5  10    1.30    2.70
  -3  -5  10   10.60    2.00
  -3  -5  10   12.80    2.30
  -1  -5  10   76.89    6.10
   0  -5  10   10.80    1.80
   0  -5  10   11.50    3.00
   1  -5  10    4.50    2.20
   1  -5  10    1.40    1.50
   2  -5  10  183.98    9.50
   2  -5  10  169.58    9.50
   3  -5  10    9.20    3.30
   4  -5  10    1.30    2.70
  -5  -4  10   15.50    3.20
  -5  -4  10    8.80    3.60
  -4  -4  10  123.29    8.40
  -4  -4  10  117.19    7.20
  -3  -4  10    5.00    1.90
  -2  -4  10    4.80    1.40
  -2  -4  10    7.00    1.50
  -2  -4  10    8.10    1.60
  -1  -4  10   39.60    4.80
  -1  -4  10   40.20    2.80
   0  -4  10   37.60    2.80
   0  -4  10   32.80    2.60
   0  -4  10   33.50    4.10
   1  -4  10  139.79    7.80
   1  -4  10  132.39    6.80
   1  -4  10  146.49    7.10
  -2   4 -10  245.58   10.40
   2  -4  10  243.38   11.40
   2  -4  10  234.68   11.50
   3  -4  10    2.70    1.80
   3  -4  10    0.40    2.00
   4  -4  10    6.40    3.40
  -5  -3  10   -1.30    1.70
  -5  -3  10    1.00    2.50
  -4  -3  10   28.40    4.00
  -4  -3  10   26.30    3.80
  -3  -3  10    0.70    1.50
  -2  -3  10  237.98   10.00
  -2  -3  10  227.68    9.80
  -1  -3  10  376.56   16.40
  -1  -3  10  398.16   15.10
  -1  -3  10  389.86   14.90
   0  -3  10   75.49    5.00
   0  -3  10   70.89    3.90
   0  -3  10   72.19    4.00
   1  -3  10   36.60    3.20
   1  -3  10   34.60    3.50
  -2   3 -10   11.00    2.20
  -2   3 -10   12.10    1.80
   2  -3  10   11.00    2.50
   2  -3  10   13.00    2.50
  -3   3 -10   34.90    4.20
   3  -3  10   38.60    4.70
   3  -3  10   41.30    4.10
  -4   3 -10  218.68   11.80
   4  -3  10  214.18   11.90
   5  -3  10   38.00    5.90
  -5  -2  10   91.69    7.30
  -4  -2  10   24.50    3.90
  -4  -2  10   18.10    3.10
   3   2 -10    1.40    1.30
  -3  -2  10    0.30    1.60
  -2  -2  10  230.18   10.00
  -2  -2  10  238.48   10.20
  -1  -2  10   23.30    2.10
  -1  -2  10   27.80    2.40
  -1  -2  10   24.50    3.10
   0  -2  10    7.30    1.50
   0  -2  10    4.60    0.80
   0  -2  10    3.90    1.70
   0  -2  10    3.40    1.30
  -1   2 -10  133.99    6.40
  -1   2 -10  127.79    5.60
   1  -2  10  147.99    6.70
   1  -2  10  136.29    7.10
   1  -2  10  135.79    6.50
  -2   2 -10   81.39    5.10
  -2   2 -10   85.19    4.50
   2  -2  10   92.39    5.50
   2  -2  10   68.69    4.90
  -3   2 -10    9.20    2.50
   3  -2  10    6.90    2.40
   3  -2  10    7.90    2.20
  -4   2 -10   31.10    4.60
   4  -2  10   37.40    4.90
  -5   2 -10    3.10    3.20
   5  -2  10   -1.00    2.30
  -5  -1  10  245.38   13.40
   4   1 -10   33.90    4.40
  -4  -1  10   26.50    3.10
  -4  -1  10   29.10    4.30
   3   1 -10    2.00    1.50
  -3  -1  10   -0.60    1.20
   2   1 -10  249.28   10.40
  -2  -1  10  241.38   10.70
   1   1 -10   28.80    2.50
  -1  -1  10   30.20    2.70
  -1  -1  10   24.70    3.00
  -1  -1  10   31.10    2.50
   0   1 -10  230.08    9.80
   0  -1  10  259.47   10.50
   0  -1  10  228.58    9.90
   0  -1  10  240.48   10.00
   0  -1  10  240.38    9.50
  -1   1 -10 2666.93   94.79
  -1   1 -10 2701.73   94.29
   1  -1  10 2653.13   94.89
   1  -1  10 2671.93   94.89
   1  -1  10 2704.63   95.29
  -2   1 -10  211.38    9.70
  -2   1 -10  209.68    9.20
   2  -1  10  215.48    9.90
   2  -1  10  217.48    9.90
  -3   1 -10   42.50    4.20
   3  -1  10   46.90    4.10
   3  -1  10   39.20    4.10
  -4   1 -10  391.96   17.60
   4  -1  10  384.96   17.50
  -5   1 -10  262.07   14.00
   5  -1  10  258.17   13.90
   5   0 -10   44.20    6.00
  -5   0  10   46.50    6.20
   4   0 -10    2.40    2.20
  -4   0  10    0.30    2.00
  -4   0  10    4.70    1.20
   3   0 -10    6.20    2.00
  -3   0  10    4.40    1.80
  -3   0  10    4.40    1.90
   2   0 -10  138.79    7.10
  -2   0  10  150.18    7.40
   1   0 -10   57.29    3.60
  -1   0  10   46.60    3.20
  -1   0  10   45.90    3.30
  -1   0  10   46.40    3.40
   0   0 -10  509.55   19.40
   0   0 -10  531.45   19.90
   0   0  10  488.95   19.50
   0   0  10  535.05   19.40
   0   0  10  504.75   19.50
   0   0  10  495.35   19.50
  -1   0 -10   88.79    4.90
  -1   0 -10   87.89    4.60
   1   0  10   84.89    4.80
   1   0  10   90.49    4.70
   1   0  10   92.49    5.00
  -2   0 -10    0.80    1.30
  -2   0 -10   -1.00    1.00
   2   0  10    1.40    1.30
   2   0  10    0.00    1.20
  -3   0 -10  144.79    8.00
   3   0  10  153.18    8.10
  -4   0 -10   -1.00    1.70
   4   0  10   -1.30    1.60
   4   0  10   -0.50    1.40
  -5   0 -10   -4.60    1.90
   5   0  10   -2.00    1.90
  -6   0 -10    9.30    4.00
   6   0  10   22.40    5.10
   5  -1 -10    3.50    2.60
  -5   1  10    4.50    3.20
   4  -1 -10    5.40    2.60
  -4   1  10   -2.50    1.70
   3  -1 -10  363.26   15.80
  -3   1  10  353.86   15.80
  -2   1  10   28.40    3.40
   1  -1 -10  141.79    6.70
  -1   1  10  120.89    6.40
  -1   1  10  131.99    5.90
   0  -1 -10 2268.27   83.69
   0   1  10 2359.06   83.79
   0   1  10 2426.46   83.39
   0   1  10 2383.16   83.99
  -1  -1 -10  278.37   11.80
  -1  -1 -10  284.97   11.80
  -1  -1 -10  277.77   11.80
   1   1  10  290.27   12.00
   1   1  10  299.47   11.90
   1   1  10  289.77   11.80
  -2  -1 -10   48.50    3.70
  -2  -1 -10   46.30    3.90
   2   1  10   47.60    3.80
   2   1  10   56.29    3.80
  -3  -1 -10   11.20    2.30
   3   1  10    6.00    2.10
   3   1  10   13.60    2.40
  -4  -1 -10   16.30    3.20
   4   1  10   11.80    2.80
  -5  -1 -10    6.80    3.30
   5   1  10    7.80    2.80
  -6  -1 -10  155.38   10.80
   5  -2 -10    3.80    3.10
  -5   2  10    0.20    2.90
   4  -2 -10   18.50    3.80
  -4   2  10   16.30    3.80
   3  -2 -10  189.98   10.00
  -3   2  10  197.38   10.20
   2  -2 -10    7.90    2.10
  -2   2  10    5.50    1.80
  -2   2  10    6.40    1.20
  -2   2  10    5.00    1.80
   1  -2 -10   89.39    5.20
  -1   2  10   81.29    4.90
  -1   2  10   86.29    4.40
   0  -2 -10   37.20    2.90
   0  -2 -10   37.10    3.10
   0   2  10   42.00    3.10
   0   2  10   34.60    2.90
   0   2  10   38.90    2.50
   0   2  10   42.50    3.50
  -1  -2 -10    4.50    1.40
  -1  -2 -10    2.00    1.30
  -1  -2 -10    4.40    1.40
   1   2  10    4.70    1.50
   1   2  10    8.70    2.00
   1   2  10    5.90    1.60
  -2  -2 -10  117.59    6.30
   2   2  10  117.89    6.20
   2   2  10  122.19    6.70
   2   2  10  115.69    6.50
  -3  -2 -10  293.57   12.50
   3   2  10  250.27   11.80
  -4  -2 -10  204.48   10.70
   4   2  10  202.28   10.20
  -5  -2 -10   51.19    6.00
  -6  -2 -10   -0.20    2.80
   5  -3 -10   -2.20    2.70
  -5   3  10    3.60    3.50
   4  -3 -10  150.18   10.10
  -4   3  10  157.08    9.80
   3  -3 -10  211.78   10.90
  -3   3  10  190.18   10.40
   2  -3 -10    1.60    1.70
  -2   3  10    4.30    2.00
   1  -3 -10   78.09    5.10
  -1   3  10   81.69    4.70
  -1   3  10   79.89    4.70
  -1   3  10   72.09    4.40
   0  -3 -10   43.60    3.30
   0  -3 -10   50.59    3.70
   0  -3 -10   46.20    2.70
   0   3  10   42.10    4.00
   0   3  10   45.00    3.20
   0   3  10   51.39    3.70
  -1  -3 -10    9.50    1.90
  -1  -3 -10    9.70    2.00
   1   3  10    5.90    1.90
   1   3  10    4.90    1.70
  -2  -3 -10  617.74   23.70
   2   3  10  613.14   24.50
  -3  -3 -10   95.49    6.00
   3   3  10   86.99    5.20
  -4  -3 -10   25.50    4.10
  -5  -3 -10  125.29    8.60
   4  -4 -10   70.39    7.30
   3  -4 -10    3.50    2.30
  -3   4  10    5.90    3.70
   2  -4 -10    2.80    1.60
  -2   4  10    0.90    1.90
   1  -4 -10  491.45   20.40
  -1   4  10  496.95   19.30
  -1   4  10  515.25   21.30
   0  -4 -10    5.40    1.80
   0   4  10    7.80    2.30
  -1  -4 -10   37.80    3.30
  -1  -4 -10   44.20    3.60
   1   4  10   48.30    4.30
  -2  -4 -10    0.10    1.20
  -2  -4 -10   -1.00    1.90
   2   4  10    2.50    1.90
  -3  -4 -10    2.50    1.50
  -4  -4 -10   68.59    5.80
  -5  -4 -10  226.68   12.60
   3  -5 -10   -1.40    2.20
   2  -5 -10   43.10    5.40
   1  -5 -10    1.50    1.60
  -1   5  10    0.90    2.00
   0  -5 -10    5.80    2.00
   0   5  10    1.60    2.00
  -1  -5 -10    2.90    1.60
   1   5  10   -2.60    1.50
  -2  -5 -10   14.70    2.70
  -3  -5 -10    2.60    1.60
  -4  -5 -10   16.70    3.40
   2  -6 -10    6.20    2.60
  -2   6  10   -1.60    2.90
   1  -6 -10   82.39    6.30
  -1   6  10  104.39    7.60
   0  -6 -10  110.69    6.70
   0   6  10   99.69    7.30
  -1  -6 -10  175.08    8.70
   1   6  10  161.78    9.60
  -2  -6 -10   15.00    2.80
  -3  -6 -10    2.40    1.80
   0  -7 -10   21.20    3.50
  -1  -7 -10    4.20    2.20
  -1  -7  11   64.59    7.50
   0  -7  11    0.70    2.90
  -2  -6  11   14.70    4.10
  -1  -6  11    0.10    2.50
   0  -6  11    1.00    1.50
   0  -6  11   -1.70    2.10
   1  -6  11   12.40    3.60
   1  -6  11    9.10    2.50
   2  -6  11    1.60    2.30
  -4  -5  11   17.10    4.40
  -4  -5  11   17.00    2.90
  -3  -5  11   94.09    5.60
  -2  -5  11   37.30    5.30
  -1  -5  11  394.26   17.90
   0  -5  11   49.40    3.50
   0  -5  11   43.00    5.20
   1  -5  11   21.80    3.90
   1  -5  11   31.00    3.50
   2  -5  11  176.48    9.80
   2  -5  11  172.48    9.50
   3  -5  11   28.40    4.40
   3  -5  11   32.80    5.00
  -5  -4  11   49.10    6.10
  -5  -4  11   54.79    6.70
  -4  -4  11   13.90    3.00
  -4  -4  11   10.80    3.20
  -3  -4  11   -0.70    1.50
  -2  -4  11   24.30    2.70
  -1  -4  11   29.50    4.00
  -1  -4  11   29.40    2.60
  -1  -4  11   29.10    2.50
   0  -4  11   63.89    5.20
   0  -4  11   69.59    4.10
   0  -4  11   70.49    4.10
   1  -4  11  122.39    7.20
   1  -4  11  114.99    6.20
   1  -4  11  114.39    6.30
   2  -4  11   32.00    4.30
   2  -4  11   33.90    4.00
   3  -4  11   35.00    4.80
   3  -4  11   48.10    5.20
   4  -4  11    7.90    3.20
   4  -4  11    8.10    3.00
  -5  -3  11   76.79    6.70
  -5  -3  11   77.69    6.80
  -4  -3  11    5.90    2.20
  -3  -3  11  183.38    9.10
  -2  -3  11   86.09    4.80
  -2  -3  11   89.19    5.00
  -1  -3  11  143.59    6.80
  -1  -3  11  148.79    6.70
   0  -3  11   28.20    2.50
   0  -3  11   25.30    3.30
   0  -3  11   25.40    2.40
   1  -3  11  445.66   17.40
   1  -3  11  424.06   18.10
  -2   3 -11   62.09    4.40
  -2   3 -11   56.79    3.50
   2  -3  11   56.19    4.50
   2  -3  11   64.59    4.90
  -3   3 -11   19.00    3.30
   3  -3  11   12.20    2.90
   3  -3  11   22.20    3.60
  -4   3 -11  179.68   10.50
   4  -3  11  183.38   10.50
   4  -3  11  189.58   10.90
   5  -3  11    0.50    2.80
  -5  -2  11   13.10    3.40
  -4  -2  11   15.80    3.10
   3   2 -11   87.29    5.20
  -3  -2  11   99.89    6.10
   2   2 -11  458.35   17.60
  -2  -2  11  468.25   18.10
  -2  -2  11  443.76   17.90
  -1  -2  11    5.90    1.50
  -1  -2  11    2.60    1.40
  -1  -2  11    6.80    1.40
   0  -2  11  332.77   13.50
   0  -2  11  346.67   14.30
   0  -2  11  336.77   12.50
   0  -2  11  338.07   13.40
  -1   2 -11  712.23   27.20
  -1   2 -11  751.72   26.50
   1  -2  11  699.83   28.00
   1  -2  11  734.13   28.20
   1  -2  11  753.42   27.50
  -2   2 -11  194.98    8.60
  -2   2 -11  200.78    9.30
   2  -2  11  196.78    9.50
   2  -2  11  201.78    9.60
  -3   2 -11    8.20    2.30
   3  -2  11    8.00    2.30
   3  -2  11    6.40    2.20
  -4   2 -11  181.88   10.20
   4  -2  11  162.58    9.80
  -5   2 -11   12.80    4.00
   5  -2  11   11.20    3.60
  -5  -1  11   46.90    5.70
   4   1 -11    8.80    2.50
  -4  -1  11    5.40    2.30
   3   1 -11   87.19    5.50
  -3  -1  11   87.49    5.80
   2   1 -11  189.48    8.70
  -2  -1  11  204.88    9.20
   1   1 -11    0.60    1.00
  -1  -1  11    1.50    1.10
  -1  -1  11    2.60    1.50
  -1  -1  11    0.70    0.90
   0   1 -11  346.67   13.90
   0  -1  11  374.86   14.10
   0  -1  11  343.57   14.40
   0  -1  11  348.07   14.00
   0  -1  11  338.97   13.50
  -1   1 -11   28.70    2.70
  -1   1 -11   26.70    2.30
   1  -1  11   21.10    2.70
   1  -1  11   20.80    2.50
   1  -1  11   26.20    2.70
   1  -1  11   28.40    2.30
  -2   1 -11   15.50    2.20
  -2   1 -11   11.90    2.30
   2  -1  11   10.80    2.20
   2  -1  11   12.20    2.30
  -3   1 -11   -0.80    1.50
   3  -1  11    1.40    1.60
   3  -1  11    0.50    1.50
  -4   1 -11   29.20    4.40
   4  -1  11   20.20    3.60
  -5   1 -11    2.70    2.60
   5  -1  11    3.90    2.80
   5   0 -11   16.30    3.80
  -5   0  11   21.60    4.70
   4   0 -11    8.10    2.90
  -4   0  11   10.00    2.90
  -4   0  11   11.40    1.70
   3   0 -11  261.77   12.40
  -3   0  11  272.37   12.60
  -3   0  11  282.37   12.60
   2   0 -11   98.89    5.60
   1   0 -11  167.68    7.90
  -1   0  11  179.08    7.80
  -1   0  11  166.78    7.90
   0   0 -11 2670.93   97.89
   0   0  11 2726.33   97.89
   0   0  11 2818.52   97.69
   0   0  11 2828.72   97.99
   0   0  11 2773.02   97.89
  -1   0 -11   26.80    2.80
  -1   0 -11   25.40    2.40
   1   0  11   23.30    2.60
   1   0  11   31.80    2.70
   1   0  11   30.40    2.90
  -2   0 -11  243.28   11.00
  -2   0 -11  249.58   10.70
   2   0  11  257.27   11.20
   2   0  11  240.28   10.90
  -3   0 -11 1880.31   67.09
   3   0  11 1820.22   66.89
   3   0  11 1804.32   67.19
  -4   0 -11   24.50    4.00
   4   0  11   32.50    4.80
   4   0  11   30.00    3.50
  -5   0 -11    7.80    3.10
   5   0  11    0.20    2.20
  -6   0 -11   19.20    4.70
   6   0  11   22.40    4.60
   5  -1 -11   24.40    5.40
  -5   1  11    9.30    3.90
   4  -1 -11    3.90    2.60
  -4   1  11    3.30    2.20
   3  -1 -11   39.60    4.10
  -3   1  11   45.60    4.50
  -3   1  11   37.70    4.50
   2  -1 -11    5.90    1.90
  -2   1  11    4.70    1.80
  -2   1  11    6.70    1.60
   1  -1 -11  147.99    7.60
  -1   1  11  173.08    7.80
  -1   1  11  158.48    7.10
   0  -1 -11  311.47   13.20
   0  -1 -11  237.98   10.90
   0   1  11  259.07   11.10
   0   1  11  248.18   10.50
   0   1  11  258.97   11.00
  -1  -1 -11   22.90    2.80
  -1  -1 -11   20.70    2.40
  -1  -1 -11   23.30    2.80
   1   1  11   25.10    2.60
   1   1  11   20.30    2.60
   1   1  11   25.30    3.10
  -2  -1 -11  171.78    8.40
   2   1  11  178.88    8.40
   2   1  11  181.28    8.70
  -3  -1 -11    6.60    2.20
   3   1  11    5.30    2.00
   3   1  11    4.30    1.70
  -4  -1 -11   10.10    2.60
   4   1  11   10.60    2.80
  -5  -1 -11   30.90    4.70
   5   1  11   30.60    4.70
  -6  -1 -11   45.40    7.10
   5  -2 -11    2.20    2.90
  -5   2  11    0.50    2.90
   4  -2 -11    0.70    2.50
  -4   2  11    5.40    2.80
   3  -2 -11  211.98   11.00
  -3   2  11  225.08   11.30
   2  -2 -11   61.99    4.70
  -2   2  11   65.29    3.50
  -2   2  11   56.09    4.60
  -2   2  11   66.79    3.50
  -2   2  11   60.89    4.60
   1  -2 -11  584.04   24.00
  -1   2  11  616.24   22.60
  -1   2  11  628.34   23.30
  -1   2  11  653.83   23.90
   0  -2 -11  525.25   21.80
   0  -2 -11  601.64   21.80
   0   2  11  592.14   21.60
   0   2  11  553.94   20.90
   0   2  11  545.25   22.10
   0   2  11  566.24   21.60
  -1  -2 -11  109.89    6.30
  -1  -2 -11  122.49    6.20
  -1  -2 -11  133.59    6.40
   1   2  11  118.59    6.30
   1   2  11  114.29    6.00
   1   2  11  121.79    6.60
   1   2  11  114.89    6.00
  -2  -2 -11  289.27   12.60
   2   2  11  295.47   12.90
   2   2  11  297.27   13.10
   2   2  11  299.17   12.60
  -3  -2 -11  185.08    9.50
   3   2  11  191.98    9.20
  -4  -2 -11   16.20    3.60
   4   2  11   17.90    3.20
  -5  -2 -11  140.49    9.20
   5  -3 -11    6.00    4.10
  -5   3  11    4.70    3.50
   4  -3 -11   52.69    6.80
  -4   3  11   48.00    5.90
   3  -3 -11    6.70    2.40
  -3   3  11    7.30    2.70
   2  -3 -11   -1.20    1.30
  -2   3  11   -1.80    1.50
  -2   3  11    0.60    0.90
   1  -3 -11   26.60    3.60
  -1   3  11   17.90    2.50
  -1   3  11   19.10    2.60
  -1   3  11   20.50    2.50
   0  -3 -11    4.50    1.70
   0   3  11    0.80    1.20
   0   3  11   -0.90    1.40
   0   3  11   -0.10    1.10
  -1  -3 -11    1.00    1.20
  -1  -3 -11    1.10    1.20
   1   3  11    0.50    1.00
   1   3  11    3.20    1.70
   1   3  11    2.60    1.40
  -2  -3 -11  173.38    8.60
   2   3  11  186.28    8.20
   2   3  11  181.48    9.40
  -3  -3 -11    0.40    1.30
   3   3  11    1.10    1.40
  -4  -3 -11    1.10    1.80
  -5  -3 -11    4.10    2.40
   4  -4 -11  177.38   11.70
   3  -4 -11    0.50    2.00
   2  -4 -11   26.40    4.20
  -2   4  11   23.00    3.30
   1  -4 -11  428.86   18.00
  -1   4  11  410.96   18.60
  -1   4  11  436.36   17.00
   0  -4 -11    3.40    1.70
   0   4  11    5.30    2.10
  -1  -4 -11  108.39    6.10
  -1  -4 -11  103.79    6.20
   1   4  11  109.59    6.80
  -2  -4 -11    2.90    1.70
   2   4  11    5.00    2.20
  -3  -4 -11    4.70    2.00
  -4  -4 -11   60.59    5.50
  -5  -4 -11   42.60    5.80
   3  -5 -11   20.90    4.70
   2  -5 -11   42.20    5.30
   1  -5 -11   18.60    3.50
  -1   5  11   22.80    4.20
   0  -5 -11   44.50    4.10
   0   5  11   40.60    5.10
  -1  -5 -11    1.70    1.50
   1   5  11   -1.70    1.60
  -2  -5 -11   90.89    5.90
   2   5  11   90.99    6.70
  -3  -5 -11   53.99    4.80
  -4  -5 -11  259.97   13.10
   2  -6 -11   14.20    3.50
  -2   6  11   13.80    4.40
   1  -6 -11    4.40    2.40
  -1   6  11    3.30    2.40
   0  -6 -11   -0.10    1.60
   0   6  11    3.60    2.60
  -1  -6 -11   23.30    3.70
   1   6  11   25.80    4.40
  -2  -6 -11   31.20    4.10
  -3  -6 -11   23.90    3.80
   0  -7 -11   37.40    4.80
  -1  -7 -11   32.40    4.20
  -3  -6  12   -3.50    2.50
  -2  -6  12   14.10    4.20
  -1  -6  12   21.80    4.50
   0  -6  12    5.70    1.90
   0  -6  12    4.70    2.90
   1  -6  12   78.79    5.80
   1  -6  12   92.79    7.30
   2  -6  12  112.49    7.70
  -4  -5  12   55.39   10.10
  -4  -5  12   35.00    4.30
  -3  -5  12   34.20    3.40
  -2  -5  12   13.60    3.50
  -2  -5  12   23.70    2.60
  -1  -5  12    5.20    2.70
  -1  -5  12    8.30    1.80
   0  -5  12   83.19    6.70
   0  -5  12   92.99    5.20
   1  -5  12   51.39    5.20
   1  -5  12   49.60    4.30
   2  -5  12   33.70    4.60
   2  -5  12   23.70    3.90
   3  -5  12    3.80    2.70
   3  -5  12    4.00    2.90
  -4  -4  12  222.78   11.20
  -4  -4  12  216.58   12.00
  -3  -4  12   28.00    3.60
  -2  -4  12  247.48   10.60
  -1  -4  12  311.57   14.30
  -1  -4  12  297.37   12.40
  -1  -4  12  306.27   12.50
   0  -4  12   46.10    3.30
   0  -4  12   43.00    4.90
   0  -4  12   43.10    3.30
   1  -4  12  425.76   17.10
   1  -4  12  408.36   18.00
   2  -4  12    7.10    2.70
   2  -4  12    4.00    2.00
   3  -4  12    0.40    2.20
   3  -4  12    5.20    2.50
   4  -4  12    6.80    3.40
   4  -4  12   14.70    3.90
  -5  -3  12   18.50    3.90
  -5  -3  12   15.80    3.70
  -4  -3  12   19.50    3.50
  -3  -3  12   80.69    5.50
  -2  -3  12    1.90    1.40
  -2  -3  12    6.00    1.70
  -1  -3  12   40.00    3.20
  -1  -3  12   38.60    3.00
  -1  -3  12   37.70    3.90
   0  -3  12   30.20    2.70
   0  -3  12   26.90    3.60
   0  -3  12   25.00    2.70
   1  -3  12  473.15   20.00
   1  -3  12  496.05   19.30
  -2   3 -12   86.99    4.70
  -2   3 -12   95.19    5.60
   2  -3  12  102.59    6.10
   2  -3  12   87.49    6.10
  -3   3 -12   42.00    4.80
   3  -3  12   45.30    5.20
   3  -3  12   47.10    5.50
  -4   3 -12  234.38   12.30
   4  -3  12  212.48   12.00
   4  -3  12  248.38   12.70
   5  -3  12   10.90    4.00
  -5  -2  12   39.60    5.50
  -4  -2  12    3.70    2.30
   3   2 -12  319.07   13.20
  -3  -2  12  311.77   14.10
   2   2 -12  178.88    8.10
  -2  -2  12  179.28    8.60
  -2  -2  12  201.48    8.90
  -1  -2  12  213.88    9.30
  -1  -2  12  206.78   10.00
  -1  -2  12  220.78    9.40
   0   2 -12   30.00    2.40
   0  -2  12   25.70    2.70
   0  -2  12   35.30    2.10
   0  -2  12   27.10    2.70
   0  -2  12   32.60    3.40
  -1   2 -12  181.88    8.50
  -1   2 -12  188.58    7.70
   1  -2  12  188.28    8.70
   1  -2  12  196.48    9.30
  -2   2 -12    3.10    1.30
  -2   2 -12    3.00    1.60
   2  -2  12    4.50    1.80
   2  -2  12    2.90    1.60
  -3   2 -12  315.57   14.10
   3  -2  12  299.17   14.00
   3  -2  12  297.77   14.10
  -4   2 -12    8.40    2.80
   4  -2  12    8.60    2.80
   4  -2  12    3.60    2.40
  -5   2 -12   14.10    3.90
   5  -2  12   19.90    4.20
  -5  -1  12   31.50    4.70
   4   1 -12   17.60    3.30
  -4  -1  12   12.90    3.10
   3   1 -12    7.60    2.00
  -3  -1  12    8.10    2.60
   2   1 -12   28.40    3.00
  -2  -1  12   26.60    3.10
   1   1 -12   42.50    3.10
  -1  -1  12   43.40    3.20
  -1  -1  12   38.10    3.50
  -1  -1  12   46.10    3.50
   0   1 -12  978.00   34.70
   0  -1  12  921.31   34.80
   0  -1  12  955.00   34.30
   0  -1  12  911.91   34.70
   0  -1  12  951.00   35.20
  -1   1 -12    8.20    1.50
  -1   1 -12    6.90    1.70
   1  -1  12    8.60    1.50
   1  -1  12    9.70    1.90
   1  -1  12    7.50    1.90
  -2   1 -12   60.49    3.90
  -2   1 -12   51.59    4.20
   2  -1  12   60.39    4.50
   2  -1  12   64.49    4.50
  -3   1 -12    3.70    1.90
   3  -1  12    7.00    2.20
   3  -1  12    7.10    2.30
  -4   1 -12   15.30    3.40
   4  -1  12   19.30    3.90
  -5   1 -12   19.10    4.20
   5  -1  12   16.90    4.40
   5   0 -12    4.30    3.10
  -5   0  12    3.40    2.80
   4   0 -12    4.60    2.50
  -4   0  12   -0.10    2.00
   3   0 -12  107.79    6.60
  -3   0  12  109.29    6.80
   2   0 -12   25.50    3.30
  -2   0  12   18.60    2.80
   1   0 -12   16.00    2.40
  -1   0  12   14.60    2.30
  -1   0  12   13.60    2.10
   0   0 -12   13.00    2.00
   0   0  12   18.80    2.40
   0   0  12   15.10    2.30
  -1   0 -12   62.59    4.20
  -1   0 -12   61.89    3.90
   1   0  12   69.19    4.10
   1   0  12   67.59    4.30
  -2   0 -12   19.10    2.60
  -2   0 -12   19.00    2.80
   2   0  12   21.60    3.20
   2   0  12   22.30    3.00
  -3   0 -12   13.30    2.70
   3   0  12   18.50    3.00
  -4   0 -12    3.10    2.10
   4   0  12    5.50    2.30
   4   0  12    4.80    2.10
  -5   0 -12    4.90    2.80
   5   0  12    3.30    2.90
  -6   0 -12   -1.60    2.90
   6   0  12    4.00    3.20
   5  -1 -12   10.30    3.50
  -5   1  12   21.00    4.70
   4  -1 -12   20.60    3.90
  -4   1  12   28.10    4.50
   3  -1 -12   48.20    4.60
  -3   1  12   58.39    5.00
  -3   1  12   53.19    4.80
   2  -1 -12   67.99    4.80
  -2   1  12   61.29    3.90
  -2   1  12   68.59    5.00
   1  -1 -12    0.90    1.30
  -1   1  12    1.00    1.20
  -1   1  12   -0.90    1.10
   0   1  12  105.39    5.30
   0   1  12   97.99    5.50
   0   1  12   99.49    5.70
  -1  -1 -12  195.88    8.80
  -1  -1 -12  193.88    8.80
   1   1  12  190.08    8.70
   1   1  12  182.58    8.80
   1   1  12  186.18    8.70
  -2  -1 -12  730.03   28.70
   2   1  12  750.92   28.70
   2   1  12  780.92   29.00
  -3  -1 -12  308.67   13.70
   3   1  12  293.37   13.40
   3   1  12  298.27   13.30
  -4  -1 -12    3.80    2.30
   4   1  12    1.80    1.90
  -5  -1 -12   80.49    7.10
   5   1  12   90.29    7.20
  -6  -1 -12   60.69    8.20
   5  -2 -12   11.00    3.70
  -5   2  12    8.60    3.90
   4  -2 -12   -3.00    1.80
  -4   2  12    1.00    2.30
   3  -2 -12   79.19    6.00
  -3   2  12   76.09    6.20
  -3   2  12   71.29    4.40
   2  -2 -12  107.89    6.70
  -2   2  12  117.99    5.40
  -2   2  12  116.39    5.40
  -2   2  12  113.49    6.70
   1  -2 -12    8.00    2.00
  -1   2  12    4.10    1.60
  -1   2  12    3.00    1.20
   0  -2 -12  456.95   18.80
   0  -2 -12  479.75   19.70
   0   2  12  461.05   18.30
   0   2  12  478.85   19.10
   0   2  12  472.35   17.80
  -1  -2 -12    2.10    1.20
  -1  -2 -12    2.40    2.20
   1   2  12    2.60    1.40
   1   2  12    5.40    2.00
   1   2  12    4.10    1.40
   1   2  12    1.10    1.20
  -2  -2 -12   68.59    4.70
   2   2  12   80.09    5.30
   2   2  12   70.39    4.90
   2   2  12   68.79    4.60
  -3  -2 -12  254.17   11.70
   3   2  12  230.58   11.10
  -4  -2 -12    5.20    2.10
   4   2  12    5.00    2.30
  -5  -2 -12    9.50    2.80
   5  -3 -12   -2.40    2.90
  -5   3  12    0.10    3.50
   4  -3 -12  495.55   23.10
  -4   3  12  520.35   22.80
   3  -3 -12   67.59    5.80
  -3   3  12   47.90    5.50
   2  -3 -12   12.40    2.70
  -2   3  12   18.40    3.10
  -2   3  12   17.80    2.00
   1  -3 -12   36.10    3.70
  -1   3  12   40.60    3.20
  -1   3  12   42.50    3.60
   0  -3 -12  166.48    8.60
   0   3  12  171.98    8.00
   0   3  12  178.38    8.50
   0   3  12  194.68    9.40
  -1  -3 -12   50.49    4.10
  -1  -3 -12   56.29    4.30
   1   3  12   56.29    4.60
   1   3  12   64.29    3.80
   1   3  12   57.19    4.70
  -2  -3 -12 1072.99   40.40
   2   3  12 1100.29   39.90
   2   3  12 1085.99   41.30
  -3  -3 -12    1.10    1.60
   3   3  12    1.20    1.50
  -4  -3 -12   20.10    3.70
  -5  -3 -12   46.90    6.20
   4  -4 -12   37.70    6.80
   3  -4 -12   -0.50    1.90
   2  -4 -12    4.20    2.20
  -2   4  12    3.10    2.00
   1  -4 -12  224.58   10.90
  -1   4  12  214.28   10.10
  -1   4  12  225.98   11.60
  -1   4  12  221.88   10.00
   0  -4 -12   92.89    5.80
   0   4  12   87.49    6.40
  -1  -4 -12  106.69    6.20
  -1  -4 -12  108.59    6.50
   1   4  12   96.89    4.90
   1   4  12  107.19    6.90
  -2  -4 -12   19.00    2.90
   2   4  12   21.60    3.70
  -3  -4 -12   80.39    5.70
  -4  -4 -12   29.40    4.70
  -5  -4 -12  120.49    8.80
   3  -5 -12   -0.60    2.20
   2  -5 -12  206.08   11.20
   1  -5 -12   30.10    4.00
  -1   5  12   37.90    5.20
   0  -5 -12   29.70    4.10
   0   5  12   31.70    4.50
  -1  -5 -12   93.89    6.00
   1   5  12   83.29    6.50
  -2  -5 -12   31.50    4.00
   2   5  12   23.20    4.10
  -3  -5 -12   21.30    3.50
  -4  -5 -12  103.59    7.40
   2  -6 -12    0.90    2.20
  -2   6  12   -0.80    3.00
   1  -6 -12   40.50    5.20
  -1   6  12   38.20    5.70
   0  -6 -12    8.00    2.50
   0   6  12    4.70    2.90
  -1  -6 -12   75.59    5.70
   1   6  12   90.69    7.10
  -2  -6 -12    0.70    1.70
  -3  -6 -12  183.88   10.00
   0  -7 -12    1.90    2.20
  -1  -7 -12    5.60    2.40
   1   7  12   12.10    4.30
  -3  -6  13    3.20    3.40
  -2  -6  13    9.60    3.70
  -1  -6  13   58.69    6.80
   0  -6  13   18.00    2.80
   0  -6  13   21.90    4.60
   1  -6  13    8.20    2.50
   1  -6  13    8.10    3.20
   2  -6  13   -1.10    2.20
  -4  -5  13    1.90    1.90
  -3  -5  13    8.00    2.40
  -2  -5  13  217.68    9.60
  -2  -5  13  210.18   12.10
  -1  -5  13   60.99    4.00
  -1  -5  13   56.19    5.70
   0  -5  13    6.20    1.70
   0  -5  13    6.00    2.90
   1  -5  13   38.60    5.10
   1  -5  13   37.50    3.90
   2  -5  13   36.00    5.00
   2  -5  13   16.00    3.20
   3  -5  13   10.10    3.50
   3  -5  13    4.30    3.00
  -4  -4  13   -1.70    1.70
  -3  -4  13    1.80    1.70
  -2  -4  13   10.50    2.10
  -2  -4  13    5.60    2.30
  -1  -4  13   29.20    2.90
  -1  -4  13   23.00    2.80
  -1  -4  13   27.30    4.10
   0  -4  13   12.00    3.10
   0  -4  13    7.80    1.80
   0  -4  13   11.60    2.10
   1  -4  13  102.19    7.00
   1  -4  13  109.49    6.20
   2  -4  13    5.30    2.50
   2  -4  13    7.70    2.30
   3  -4  13   -1.70    1.70
   3  -4  13   -0.40    2.30
   4  -4  13    2.40    2.90
   4  -4  13    0.90    2.30
  -5  -3  13   69.39    6.40
  -5  -3  13   70.89    8.80
  -4  -3  13    7.20    2.70
  -4  -3  13   14.40    3.20
  -3  -3  13   22.80    3.60
  -2  -3  13  194.38    8.80
  -2  -3  13  187.28    8.90
  -1  -3  13   31.30    2.90
  -1  -3  13   24.10    2.50
  -1  -3  13   35.80    4.20
   0  -3  13  281.67   11.60
   0  -3  13  266.57   12.70
   1  -3  13  335.67   13.60
   1  -3  13  302.37   14.30
  -2   3 -13    5.10    1.80
  -2   3 -13    3.80    1.30
   2  -3  13    8.20    2.30
   2  -3  13    3.00    2.10
  -3   3 -13   63.29    5.40
   3  -3  13   80.29    6.10
   3  -3  13   72.49    5.80
  -4   3 -13   97.99    7.60
   4  -3  13   95.79    7.50
   4  -3  13   97.99    7.60
   5  -3  13    8.00    3.80
  -5  -2  13    9.20    3.20
  -4  -2  13    1.00    1.60
  -4  -2  13   -0.40    1.90
   3   2 -13   72.09    4.60
  -3  -2  13   64.29    5.20
   2   2 -13  181.98    7.90
  -2  -2  13  178.18    9.10
  -2  -2  13  168.28    8.50
   1   2 -13  108.59    5.30
  -1  -2  13  107.79    6.50
  -1  -2  13  107.09    5.90
  -1  -2  13  116.69    5.80
   0   2 -13    1.40    1.10
   0  -2  13    2.20    1.30
   0  -2  13    1.90    1.20
   0  -2  13    1.90    0.80
   0  -2  13    2.50    1.70
  -1   2 -13    7.60    1.70
  -1   2 -13   12.00    1.60
   1  -2  13   12.50    2.20
   1  -2  13    6.70    2.10
  -2   2 -13   54.79    4.20
  -2   2 -13   45.50    3.40
   2  -2  13   52.79    4.50
   2  -2  13   51.09    4.30
  -3   2 -13  288.77   13.80
   3  -2  13  287.77   13.90
   3  -2  13  321.27   14.30
  -4   2 -13   21.50    3.90
   4  -2  13   29.00    4.50
   4  -2  13   17.70    3.80
  -5   2 -13    3.10    3.10
   5  -2  13    1.20    2.90
  -5  -1  13    1.70    2.60
   4   1 -13   19.20    3.80
  -4  -1  13   17.90    3.70
   3   1 -13  169.98    8.70
  -3  -1  13  172.28    9.20
   2   1 -13    1.90    1.30
  -2  -1  13    1.90    1.60
   1   1 -13  139.39    6.80
  -1  -1  13  138.99    6.90
  -1  -1  13  138.99    7.10
  -1  -1  13  147.49    7.40
   0   1 -13  837.42   32.20
   0  -1  13  860.71   32.90
   0  -1  13  908.21   32.50
   0  -1  13  872.81   31.90
   0  -1  13  873.91   32.50
  -1   1 -13  126.49    5.90
  -1   1 -13  110.59    6.20
   1  -1  13  121.89    5.80
   1  -1  13  132.29    6.90
   1  -1  13  124.09    6.50
  -2   1 -13    2.00    1.20
  -2   1 -13    3.80    1.70
   2  -1  13    5.10    2.00
   2  -1  13    2.60    1.50
  -3   1 -13   33.20    4.20
   3  -1  13   41.70    4.20
   3  -1  13   33.60    4.30
  -4   1 -13   13.70    3.40
   4  -1  13   10.20    2.80
  -5   1 -13    4.30    3.30
   5  -1  13    1.50    2.80
   5   0 -13    6.50    2.90
  -5   0  13    9.20    3.40
   4   0 -13   36.00    5.30
  -4   0  13   36.70    4.80
   3   0 -13  184.98    9.90
  -3   0  13  216.98   10.50
   2   0 -13    5.60    1.80
  -2   0  13    7.60    1.90
  -2   0  13    6.10    2.00
   1   0 -13    4.80    1.70
  -1   0  13    5.10    1.60
  -1   0  13    7.00    2.00
   0   0 -13  356.86   14.90
   0   0  13  374.56   15.00
   0   0  13  367.56   14.80
   0   0  13  366.96   14.90
  -1   0 -13  585.74   22.00
  -1   0 -13  575.14   22.20
   1   0  13  566.64   22.00
   1   0  13  567.54   22.40
   1   0  13  571.24   22.30
  -2   0 -13    7.30    1.70
   2   0  13    5.50    1.90
   2   0  13    6.10    1.90
  -3   0 -13  432.56   18.90
   3   0  13  465.85   19.00
   3   0  13  440.56   19.00
  -4   0 -13  735.83   30.90
   4   0  13  796.52   30.90
  -5   0 -13   97.69    8.10
   5   0  13  111.99    8.30
   5  -1 -13    1.40    2.50
  -5   1  13    2.20    2.90
   4  -1 -13   86.39    7.00
  -4   1  13   85.79    7.10
   3  -1 -13   -1.80    1.40
  -3   1  13    5.00    2.30
  -3   1  13    4.30    2.10
   2  -1 -13  129.69    7.30
  -2   1  13  131.19    6.50
  -2   1  13  134.29    7.40
   1  -1 -13   60.09    4.40
  -1   1  13   67.69    4.40
  -1   1  13   57.79    3.90
   0  -1 -13  124.59    6.40
   0   1  13  107.09    6.10
   0   1  13  114.89    5.90
   0   1  13  110.39    6.30
  -1  -1 -13  397.46   15.80
  -1  -1 -13  367.86   15.70
   1   1  13  359.16   15.60
   1   1  13  402.86   16.00
   1   1  13  400.06   15.70
  -2  -1 -13   67.59    4.80
   2   1  13   69.59    4.90
   2   1  13   80.29    5.20
   2   1  13   75.99    5.00
  -3  -1 -13   31.30    4.40
   3   1  13   30.30    4.00
  -4  -1 -13   52.09    5.30
   4   1  13   66.29    5.60
  -5  -1 -13    5.80    2.60
   5   1  13   12.20    3.70
   5  -2 -13    2.00    2.90
  -5   2  13    8.10    3.80
   4  -2 -13    6.00    3.20
  -4   2  13   -0.10    2.20
   3  -2 -13   -2.30    1.50
  -3   2  13   -0.40    1.30
  -3   2  13    1.50    2.20
   2  -2 -13    5.70    2.00
  -2   2  13    5.70    1.50
  -2   2  13    3.30    2.00
   1  -2 -13  591.94   23.30
  -1   2  13  583.54   21.80
  -1   2  13  581.04   22.90
   0  -2 -13   62.59    4.40
   0   2  13   64.29    4.20
   0   2  13   58.69    3.70
   0   2  13   60.29    4.70
  -1  -2 -13   96.49    5.50
   1   2  13   80.49    5.00
   1   2  13   88.39    5.70
   1   2  13   86.99    5.00
  -2  -2 -13   12.80    2.40
   2   2  13   18.00    3.20
   2   2  13   17.60    2.70
  -3  -2 -13   20.60    3.00
   3   2  13   35.10    4.00
  -4  -2 -13   31.20    4.50
   4   2  13   30.10    4.00
  -5  -2 -13  396.56   18.90
   4  -3 -13    5.30    3.20
  -4   3  13    9.50    3.60
   3  -3 -13   16.70    3.60
  -3   3  13   19.10    3.90
   2  -3 -13    5.70    2.30
  -2   3  13    4.80    2.40
  -2   3  13    6.90    1.50
   1  -3 -13   22.40    3.30
  -1   3  13   17.50    2.40
  -1   3  13   25.40    3.20
   0  -3 -13   66.99    4.90
   0   3  13   74.19    4.90
   0   3  13   73.49    5.50
   0   3  13   78.69    4.70
  -1  -3 -13    1.50    1.30
  -1  -3 -13    0.10    1.30
   1   3  13    1.20    1.30
   1   3  13   -1.60    1.30
  -2  -3 -13  310.57   13.60
   2   3  13  292.67   12.90
   2   3  13  330.17   14.50
  -3  -3 -13   52.19    4.60
   3   3  13   45.00    4.00
  -4  -3 -13    7.90    2.80
  -5  -3 -13   17.30    4.10
   4  -4 -13   28.40    5.80
   3  -4 -13   -0.90    1.70
   2  -4 -13   47.30    5.70
  -2   4  13   42.00    4.40
   1  -4 -13    8.40    2.30
  -1   4  13   14.40    2.50
  -1   4  13    8.70    2.90
  -1   4  13   10.50    2.30
   0  -4 -13   77.39    5.40
   0   4  13   74.89    6.00
   0   4  13   74.49    4.50
  -1  -4 -13  632.24   25.30
  -1  -4 -13  605.24   24.70
   1   4  13  640.14   25.60
  -2  -4 -13  136.49    7.70
   2   4  13  142.89    8.60
  -3  -4 -13   11.20    2.60
  -4  -4 -13  313.87   15.10
  -5  -4 -13    0.80    2.20
   3  -5 -13    0.90    2.50
   2  -5 -13  111.49    7.80
   1  -5 -13    2.50    1.80
  -1   5  13   -0.60    2.20
   0  -5 -13   25.60    3.90
   0   5  13   20.10    3.80
  -1  -5 -13    9.00    2.40
   1   5  13    4.70    2.40
  -2  -5 -13    6.70    2.50
   2   5  13    4.80    2.40
  -3  -5 -13   71.79    5.70
  -4  -5 -13  134.29    8.70
   2  -6 -13    0.70    2.00
  -2   6  13   -0.80    3.10
   1  -6 -13    4.90    2.20
  -1   6  13   -0.50    2.50
   0  -6 -13   11.90    3.10
   0   6  13   14.40    4.00
  -1  -6 -13   26.40    4.00
   1   6  13   21.70    4.40
  -2  -6 -13    8.00    2.50
   2   6  13    4.50    2.70
  -3  -6 -13   32.10    4.60
  -2  -6  14   17.10    4.80
  -1  -6  14    5.20    3.20
   0  -6  14   12.20    4.00
   0  -6  14    5.30    2.10
   1  -6  14  176.78   10.60
   1  -6  14  151.68    8.80
   2  -6  14   15.10    3.60
  -4  -5  14    0.20    1.90
  -3  -5  14   12.70    4.10
  -3  -5  14   14.80    2.90
  -2  -5  14   10.90    3.30
  -2  -5  14    8.30    2.00
  -1  -5  14   -0.60    1.40
  -1  -5  14    1.00    2.40
   0  -5  14   -0.20    1.40
   0  -5  14   -0.10    2.20
   1  -5  14   16.70    3.80
   1  -5  14    9.40    2.50
   2  -5  14    1.10    2.40
   2  -5  14   -0.40    2.10
   3  -5  14   -3.60    2.60
   3  -5  14    3.70    2.50
  -4  -4  14   29.50    4.30
  -4  -4  14   34.60    4.60
  -3  -4  14   80.09    5.60
  -2  -4  14  319.37   15.80
  -2  -4  14  334.67   13.90
  -1  -4  14   45.50    3.70
  -1  -4  14   38.40    5.10
   0  -4  14   82.09    6.50
   0  -4  14   92.49    5.30
   1  -4  14  535.15   21.10
   1  -4  14  512.95   22.20
   2  -4  14   54.19    5.30
   2  -4  14   52.59    4.90
   3  -4  14   27.30    4.60
   3  -4  14   29.20    4.50
   4  -4  14    9.10    3.70
   4  -4  14    5.80    3.40
  -5  -3  14    3.80    2.60
  -4  -3  14    0.10    1.50
  -4  -3  14   -1.00    1.80
  -3  -3  14   37.90    4.30
  -2  -3  14   16.50    3.10
  -2  -3  14   17.20    2.60
  -2  -3  14   26.80    3.20
  -1  -3  14   14.70    2.40
  -1  -3  14   12.60    2.30
  -1  -3  14   16.70    3.20
   0   3 -14   42.70    2.70
   0  -3  14   38.50    3.40
   0  -3  14   36.80    4.60
  -1   3 -14   15.10    2.30
   1  -3  14   11.00    2.80
   1  -3  14   13.00    2.50
  -2   3 -14   50.59    4.10
  -2   3 -14   47.60    3.40
   2  -3  14   47.70    5.50
   2  -3  14   58.99    4.70
  -3   3 -14   19.00    3.30
   3  -3  14   18.90    3.60
   3  -3  14   18.00    3.80
  -4   3 -14   11.00    4.30
   4  -3  14    6.80    3.10
   4  -3  14    6.70    3.20
   5  -3  14    8.00    4.10
  -5  -2  14    6.20    3.10
  -4  -2  14  123.49    8.00
  -4  -2  14  117.19    7.80
   3   2 -14  186.58    8.80
  -3  -2  14  176.68    9.40
   2   2 -14   54.69    3.70
  -2  -2  14   54.29    4.70
  -2  -2  14   55.69    4.40
   1   2 -14   14.80    2.00
  -1  -2  14   14.80    2.50
  -1  -2  14   14.40    2.30
  -1  -2  14   13.80    2.80
   0   2 -14  662.63   25.60
   0  -2  14  706.03   26.20
   0  -2  14  688.23   26.90
   0  -2  14  682.33   25.00
  -1   2 -14   40.80    3.50
  -1   2 -14   41.00    2.80
   1  -2  14   36.00    3.80
   1  -2  14   48.80    3.80
  -2   2 -14  120.79    6.10
  -2   2 -14  127.29    7.00
   2  -2  14  129.79    7.20
   2  -2  14  116.49    7.30
  -3   2 -14  648.14   26.40
   3  -2  14  687.93   26.90
   3  -2  14  635.34   26.80
  -4   2 -14    2.80    2.50
   4  -2  14   -0.40    2.30
   4  -2  14    3.30    2.80
  -5   2 -14    3.30    3.30
   5  -2  14    3.20    3.30
  -5  -1  14   -3.30    2.10
   4   1 -14   12.80    3.50
  -4  -1  14    7.90    2.40
  -4  -1  14   15.80    3.50
   3   1 -14  220.28   10.60
  -3  -1  14  219.28   11.10
   2   1 -14   55.69    3.90
  -2  -1  14   31.10    4.00
  -2  -1  14   51.29    4.20
   1   1 -14  297.57   12.20
  -1  -1  14  281.47   12.60
  -1  -1  14  291.27   12.60
   0   1 -14  925.71   34.10
   0  -1  14  872.71   34.10
   0  -1  14  931.31   34.20
   0  -1  14  927.21   34.60
   0  -1  14  920.91   33.60
  -1   1 -14  315.57   12.70
  -1   1 -14  308.57   13.20
   1  -1  14  320.17   13.30
   1  -1  14  308.87   12.60
   1  -1  14  308.77   13.70
  -2   1 -14   11.80    2.20
  -2   1 -14   13.10    2.60
   2  -1  14    7.50    2.30
   2  -1  14   10.10    2.30
  -3   1 -14  100.19    6.70
   3  -1  14   93.49    6.60
   3  -1  14   92.49    6.50
  -4   1 -14   39.20    5.20
   4  -1  14   47.40    6.10
   4  -1  14   30.90    4.80
  -5   1 -14   -0.60    2.90
   5  -1  14    5.10    3.20
   5   0 -14    5.60    3.30
  -5   0  14    1.10    2.90
   4   0 -14   52.49    5.30
  -4   0  14   35.80    4.90
   3   0 -14   70.09    5.30
   2   0 -14   36.90    3.60
  -2   0  14   35.90    3.40
  -2   0  14   35.50    4.10
   1   0 -14  951.10   35.90
  -1   0  14  950.80   35.70
  -1   0  14  982.50   36.10
   0   0 -14   69.39    4.70
   0   0  14   76.99    4.60
   0   0  14   71.29    4.70
   0   0  14   74.29    4.70
  -1   0 -14   88.09    5.10
  -1   0 -14   77.09    4.70
   1   0  14   75.19    4.70
   1   0  14   85.99    5.20
   1   0  14   77.79    5.10
  -2   0 -14  216.08   10.10
   2   0  14  207.88   10.10
   2   0  14  210.78   10.30
  -3   0 -14   -1.20    1.50
   3   0  14    1.20    1.70
   3   0  14    0.50    1.70
  -4   0 -14    1.90    2.20
   4   0  14    5.40    2.40
  -5   0 -14   26.20    4.90
   5   0  14   32.00    5.10
   5  -1 -14    1.50    2.80
  -5   1  14    6.60    3.70
   4  -1 -14  257.87   13.20
  -4   1  14  229.68   13.10
   3  -1 -14    3.40    2.20
  -3   1  14    4.90    2.10
  -3   1  14    6.00    2.20
  -3   1  14    2.50    1.80
   2  -1 -14   17.70    3.10
  -2   1  14   21.30    3.30
  -2   1  14   17.60    2.60
   1  -1 -14   85.79    5.40
  -1   1  14   77.89    4.70
  -1   1  14   78.59    5.20
   0   1  14  342.67   14.40
   0   1  14  353.86   14.60
   0   1  14  331.27   14.00
  -1  -1 -14    5.00    1.70
   1   1  14    3.30    1.50
   1   1  14    5.40    1.80
   1   1  14    2.80    1.40
  -2  -1 -14 1017.20   39.70
   2   1  14 1047.10   39.90
   2   1  14 1071.39   40.00
   2   1  14 1117.79   40.00
  -3  -1 -14  397.86   17.60
   3   1  14  417.56   17.50
  -4  -1 -14   34.40    5.00
   4   1  14   37.70    4.80
  -5  -1 -14   55.79    7.00
   5   1  14   38.10    5.60
   5  -2 -14    9.70    3.90
  -5   2  14   15.40    4.90
   4  -2 -14    2.90    2.40
  -4   2  14    4.30    2.30
  -4   2  14    4.30    2.70
   3  -2 -14   29.40    4.40
  -3   2  14   28.40    4.40
  -3   2  14   29.90    3.00
   2  -2 -14   73.29    5.40
  -2   2  14   66.29    4.10
  -2   2  14   56.39    4.90
   1  -2 -14   68.59    5.20
  -1   2  14   69.39    4.00
  -1   2  14   72.69    5.00
   0   2  14  309.67   13.60
   0   2  14  316.87   12.40
   0   2  14  282.07   12.80
  -1  -2 -14   -0.10    1.10
   1   2  14   -0.90    1.00
   1   2  14    1.10    1.70
   1   2  14   -0.90    1.00
  -2  -2 -14  113.89    6.70
   2   2  14  120.59    6.70
   2   2  14  121.79    7.30
  -3  -2 -14  110.99    7.00
   3   2  14  117.09    7.00
  -4  -2 -14   13.10    3.10
   4   2  14   10.50    3.00
  -5  -2 -14   98.69    8.10
   4  -3 -14   92.59    8.30
  -4   3  14  103.79    8.50
   3  -3 -14   -3.00    1.80
  -3   3  14    3.50    2.40
   2  -3 -14  153.28    8.60
  -2   3  14  132.89    7.80
  -2   3  14  140.69    8.10
  -2   3  14  135.99    6.70
   1  -3 -14   12.30    2.60
  -1   3  14    7.70    2.20
  -1   3  14    9.60    2.00
   0  -3 -14    1.10    1.20
   0   3  14    0.60    1.40
   0   3  14    0.80    1.40
   0   3  14   -0.10    1.60
  -1  -3 -14  148.39    7.80
   1   3  14  153.08    8.40
   1   3  14  131.69    7.10
  -2  -3 -14   52.79    4.50
   2   3  14   65.59    5.40
   2   3  14   57.79    4.20
  -3  -3 -14  124.69    7.40
   3   3  14  117.59    6.90
  -4  -3 -14  250.27   12.90
  -5  -3 -14   27.60    4.90
   4  -4 -14   -0.60    3.00
   3  -4 -14   -4.00    1.80
   2  -4 -14    0.90    2.10
  -2   4  14   -2.10    1.80
   1  -4 -14   19.10    3.40
  -1   4  14   14.50    2.90
  -1   4  14   21.20    3.10
  -1   4  14   14.60    3.80
   0  -4 -14    4.70    2.10
   0   4  14    3.20    1.60
   0   4  14    2.40    2.30
  -1  -4 -14   43.30    4.10
   1   4  14   41.10    5.20
  -2  -4 -14    6.00    2.20
   2   4  14   11.70    3.10
  -3  -4 -14    5.90    2.10
  -4  -4 -14    3.60    2.20
  -5  -4 -14   11.40    3.60
   3  -5 -14   11.70    3.40
   2  -5 -14  222.28   12.20
   1  -5 -14   14.30    3.30
  -1   5  14   11.70    3.60
   0  -5 -14   93.29    6.50
   0   5  14   93.19    7.20
  -1  -5 -14    1.00    1.80
   1   5  14    4.10    2.50
  -2  -5 -14    3.90    2.30
   2   5  14    6.40    2.80
  -3  -5 -14  145.39    8.60
  -4  -5 -14   79.69    6.70
   2  -6 -14    1.10    2.40
  -2   6  14   -1.00    3.10
   1  -6 -14   31.80    4.70
  -1   6  14   29.00    5.20
   0  -6 -14    4.90    2.40
   0   6  14    4.70    3.00
  -1  -6 -14   33.30    4.40
   1   6  14   38.20    5.70
  -2  -6 -14   21.00    4.00
   2   6  14   19.30    4.30
  -3  -6 -14  108.79    7.70
  -2  -6  15   74.19    8.30
  -1  -6  15    7.30    3.20
   0  -6  15   44.80    4.20
   0  -6  15   34.80    5.70
   1  -6  15   26.10    4.00
   1  -6  15   20.90    4.50
   2  -6  15   -1.50    2.30
   2  -6  15    3.30    3.20
  -3  -5  15   22.30    4.70
  -3  -5  15   27.70    3.90
  -2  -5  15   28.20    3.40
  -2  -5  15   38.30    5.60
  -1  -5  15   -0.70    2.20
  -1  -5  15    1.00    1.60
   0  -5  15  103.39    7.80
   0  -5  15  100.79    6.00
   1  -5  15  103.59    7.80
   1  -5  15   96.99    6.40
   2  -5  15   -3.70    1.80
   2  -5  15    2.40    2.60
   3  -5  15   69.79    7.40
   3  -5  15   53.79    6.90
  -4  -4  15   18.20    3.60
  -4  -4  15   14.70    3.10
  -3  -4  15    1.00    1.60
  -2  -4  15    1.50    1.60
  -2  -4  15    0.90    2.20
  -1  -4  15   73.89    6.10
  -1  -4  15   72.79    4.80
   0  -4  15   62.79    5.70
   0  -4  15   65.99    4.60
   1  -4  15   81.19    5.70
   1  -4  15  101.29    7.00
   2  -4  15    5.60    2.80
   2  -4  15    5.30    2.30
   3  -4  15    6.90    2.90
   3  -4  15    7.20    3.20
   4  -4  15    4.40    3.40
   4  -4  15   15.90    4.10
  -5  -3  15   87.69    7.40
  -4  -3  15   11.60    2.90
  -4  -3  15   13.60    3.30
  -3  -3  15  147.19    8.40
  -2  -3  15  193.28   11.10
  -2  -3  15  232.88   10.40
  -1  -3  15   58.49    4.20
  -1  -3  15   74.09    4.70
  -1  -3  15   56.89    5.20
   0  -3  15 1056.69   40.80
   0  -3  15 1074.29   39.60
  -1   3 -15   85.79    4.90
   1  -3  15   77.09    6.00
   1  -3  15   80.49    5.40
  -2   3 -15    3.10    1.50
  -2   3 -15    5.50    2.10
   2  -3  15    5.70    2.10
   2  -3  15    5.50    2.40
  -3   3 -15    0.80    1.90
   3  -3  15   -0.20    1.90
   3  -3  15   -0.80    2.30
   4  -3  15    0.20    2.20
   4  -3  15    7.00    3.20
   5  -3  15   12.30    4.40
  -5  -2  15    5.50    3.10
  -4  -2  15   33.20    4.60
  -4  -2  15   27.10    4.20
   3   2 -15    2.20    1.70
  -3  -2  15    4.60    2.30
   2   2 -15    2.90    1.30
  -2  -2  15   -0.60    1.30
  -2  -2  15   -1.60    1.40
   1   2 -15  112.89    5.70
  -1  -2  15  107.29    6.30
  -1  -2  15  112.39    6.90
  -1  -2  15  111.29    6.90
   0   2 -15  232.98    9.80
   0  -2  15  217.88    9.10
   0  -2  15  221.58   10.90
   0  -2  15  218.18   10.20
  -1   2 -15   65.99    4.60
   1  -2  15   67.59    4.70
   1  -2  15   68.09    5.20
  -2   2 -15   26.20    3.00
  -2   2 -15   37.20    3.80
   2  -2  15   35.90    4.30
   2  -2  15   26.90    3.60
  -3   2 -15  258.97   12.60
   3  -2  15  247.98   13.00
   3  -2  15  279.57   13.10
  -4   2 -15   66.69    6.40
   4  -2  15   70.89    6.50
   4  -2  15   61.19    6.80
  -5   2 -15    4.40    3.50
   5  -2  15   -2.40    3.00
  -5  -1  15    8.10    3.50
   4   1 -15  224.98   11.70
  -4  -1  15  233.58   12.20
  -4  -1  15  221.98   12.20
   3   1 -15   47.30    4.30
  -3  -1  15   48.40    4.80
   2   1 -15   95.89    5.70
  -2  -1  15   99.89    6.20
  -2  -1  15   94.69    6.10
   1   1 -15   42.40    3.70
  -1  -1  15   58.89    4.40
  -1  -1  15   52.29    4.20
   0   1 -15  171.58    8.40
   0  -1  15  191.88    8.20
   0  -1  15  171.68    8.60
   0  -1  15  179.38    9.00
  -1   1 -15    5.50    1.80
  -1   1 -15    6.50    1.70
   1  -1  15    8.20    2.20
   1  -1  15    6.40    1.70
   1  -1  15    6.10    1.50
  -2   1 -15  889.11   33.00
  -2   1 -15  866.81   32.80
   2  -1  15  825.72   32.80
   2  -1  15  845.02   33.30
  -3   1 -15    3.50    2.20
   3  -1  15    2.00    1.90
   3  -1  15    7.70    2.50
  -4   1 -15   59.49    5.90
   4  -1  15   53.99    5.70
   4  -1  15   56.09    5.70
  -5   1 -15   24.50    5.30
   5  -1  15   24.40    4.80
   5   0 -15    4.40    3.30
  -5   0  15    6.60    3.50
   4   0 -15    2.60    2.70
  -4   0  15    5.80    2.80
  -4   0  15    2.60    2.50
   3   0 -15   58.89    4.90
  -3   0  15   47.40    4.90
   2   0 -15  113.69    6.80
  -2   0  15  123.79    6.70
  -2   0  15  119.59    7.00
   1   0 -15 1119.59   40.30
  -1   0  15 1038.70   40.10
  -1   0  15 1073.49   39.90
   0   0 -15   18.50    2.60
   0   0  15   15.20    2.40
   0   0  15   16.20    2.80
   0   0  15   17.40    2.60
  -1   0 -15   58.39    4.40
  -1   0 -15   60.59    4.10
   1   0  15   53.89    4.30
   1   0  15   64.29    4.30
   1   0  15   62.29    4.50
  -2   0 -15  149.59    7.80
   2   0  15  134.89    7.90
   2   0  15  142.49    7.70
  -3   0 -15   14.40    2.90
   3   0  15    8.50    2.60
   3   0  15    7.90    2.70
  -4   0 -15    0.70    2.00
   4   0  15   -1.50    1.70
  -5   0 -15  137.49   10.00
   5   0  15  148.59    9.90
   5  -1 -15    2.30    3.00
  -5   1  15    1.10    3.30
   4  -1 -15   71.59    6.80
  -4   1  15   74.49    7.20
   3  -1 -15   22.70    3.70
  -3   1  15   15.40    3.10
  -3   1  15   26.40    3.40
   2  -1 -15  173.78    9.40
  -2   1  15  192.28    9.70
  -2   1  15  186.48    8.60
   1  -1 -15  278.87   12.30
  -1   1  15  242.38   11.90
  -1   1  15  278.07   11.50
   0  -1 -15   39.70    3.60
   0   1  15   34.30    3.50
   0   1  15   29.80    3.10
   0   1  15   40.70    3.60
  -1  -1 -15  278.27   12.20
   1   1  15  266.57   12.10
   1   1  15  260.87   12.00
   1   1  15  274.87   12.00
  -2  -1 -15  309.87   13.90
   2   1  15  312.47   14.10
   2   1  15  314.07   14.10
   2   1  15  330.47   14.10
  -3  -1 -15    3.90    2.00
   3   1  15    4.40    1.90
   3   1  15    0.40    1.90
  -4  -1 -15   14.60    3.70
   4   1  15    9.60    2.80
  -5  -1 -15   -0.50    2.20
   5   1  15   -0.40    2.40
   5  -2 -15   16.20    4.30
  -5   2  15   17.80    5.00
   4  -2 -15   42.40    5.90
  -4   2  15   36.70    5.40
   3  -2 -15    4.50    2.50
  -3   2  15    3.00    2.20
  -3   2  15   -0.10    1.40
  -3   2  15    1.80    2.40
   2  -2 -15  102.29    7.10
  -2   2  15  125.09    7.40
  -2   2  15  112.09    5.80
   1  -2 -15  452.65   18.50
  -1   2  15  426.36   18.00
  -1   2  15  432.86   17.00
   0  -2 -15    1.50    1.40
   0   2  15    2.40    1.30
   0   2  15    0.40    1.60
   0   2  15    1.30    1.40
  -1  -2 -15   47.80    4.20
   1   2  15   59.99    4.80
   1   2  15   49.99    4.10
   1   2  15   61.69    4.20
  -2  -2 -15    2.40    1.50
   2   2  15    1.30    1.50
   2   2  15    0.90    1.70
   2   2  15    1.30    1.40
  -3  -2 -15   20.80    3.40
   3   2  15   16.40    3.10
  -4  -2 -15   98.19    7.30
   4   2  15  106.79    7.30
  -5  -2 -15   18.00    4.20
   4  -3 -15   12.90    4.20
  -4   3  15   21.40    4.60
   3  -3 -15   -0.30    2.00
  -3   3  15    1.70    2.50
   2  -3 -15   94.79    6.70
  -2   3  15   84.19    6.20
  -2   3  15   89.29    5.10
  -2   3  15   89.39    6.20
   1  -3 -15    2.80    1.80
  -1   3  15    1.50    1.70
  -1   3  15    3.70    1.60
   0  -3 -15   42.00    4.10
   0   3  15   45.40    4.00
   0   3  15   46.50    4.60
   0   3  15   43.70    3.10
   0   3  15   43.30    3.80
  -1  -3 -15   40.50    4.00
   1   3  15   47.40    3.80
   1   3  15   45.30    4.60
  -2  -3 -15    8.30    2.10
   2   3  15    6.20    1.90
   2   3  15    3.20    2.30
  -3  -3 -15    7.30    2.50
   3   3  15   11.70    2.70
  -4  -3 -15    6.40    2.60
  -5  -3 -15   14.40    4.00
   4  -4 -15   10.40    4.10
   3  -4 -15   -0.90    2.20
   2  -4 -15   11.30    3.10
  -2   4  15   15.10    3.10
   1  -4 -15   46.90    4.80
  -1   4  15   60.89    4.80
  -1   4  15   63.69    4.70
  -1   4  15   55.69    5.70
   0  -4 -15   24.40    3.60
   0   4  15   30.70    4.60
   0   4  15   34.10    3.50
  -1  -4 -15  565.84   23.70
   1   4  15  608.04   24.70
  -2  -4 -15   38.30    4.80
   2   4  15   41.10    5.40
  -3  -4 -15   39.90    5.00
  -4  -4 -15   86.19    6.80
  -5  -4 -15  139.09    9.80
   3  -5 -15   10.20    3.40
   2  -5 -15   21.20    4.30
  -2   5  15   24.50    5.10
   1  -5 -15   26.90    4.20
  -1   5  15   16.90    4.00
   0  -5 -15   24.90    4.10
   0   5  15   19.20    4.10
  -1  -5 -15    1.00    1.60
   1   5  15    1.50    2.30
  -2  -5 -15   94.59    6.80
   2   5  15   99.59    7.60
  -3  -5 -15    2.90    2.10
  -4  -5 -15   59.99    6.00
   2  -6 -15    5.00    2.90
  -2   6  15    5.90    3.60
   1  -6 -15   14.50    3.90
  -1   6  15   17.20    4.20
   0  -6 -15   75.89    6.40
   0   6  15   78.79    7.40
  -1  -6 -15    8.80    2.70
   1   6  15   10.00    3.80
  -2  -6 -15   41.00    5.20
   2   6  15   46.90    6.30
  -3  -6 -15   91.59    7.30
  -2  -6  16   67.69    8.10
  -1  -6  16   16.50    4.50
  -1  -6  16   16.00    2.80
   0  -6  16   90.89    6.10
   0  -6  16   90.39    8.00
   1  -6  16   85.69    7.90
   1  -6  16   83.59    6.40
   2  -6  16    2.20    2.70
   2  -6  16   -0.30    3.10
  -3  -5  16   26.80    5.50
  -3  -5  16   20.00    3.30
  -2  -5  16   84.59    5.40
  -2  -5  16   74.69    7.40
  -1  -5  16   20.10    4.20
  -1  -5  16   18.10    2.80
   0  -5  16   66.59    5.10
   0  -5  16   81.39    7.00
   1  -5  16    1.00    1.90
   1  -5  16    2.90    2.80
   2  -5  16  100.19    7.20
   2  -5  16  103.19    8.10
   3  -5  16    9.30    3.80
   3  -5  16    4.70    3.20
  -4  -4  16   -1.00    2.40
  -4  -4  16    0.20    1.90
  -3  -4  16  185.48    9.80
  -3  -4  16  189.08   11.70
  -2  -4  16    4.50    2.70
  -2  -4  16    0.00    1.50
  -1  -4  16   17.70    2.90
  -1  -4  16   19.80    3.80
   0  -4  16    8.80    2.20
   0  -4  16   11.90    3.50
   1  -4  16    2.10    1.80
   1  -4  16   -0.70    2.10
   2  -4  16   30.50    4.30
   2  -4  16   29.30    4.70
   3  -4  16  176.18   11.00
   3  -4  16  203.78   11.20
   4  -4  16   -4.20    2.20
   4  -4  16   -0.40    2.80
  -5  -3  16    8.10    2.80
  -4  -3  16    1.80    2.00
  -4  -3  16    1.80    2.30
  -3  -3  16    1.50    1.90
  -2  -3  16    0.80    1.70
  -2  -3  16    0.90    1.60
  -1  -3  16    5.60    2.40
  -1  -3  16    6.30    2.00
   0  -3  16    6.90    2.00
   0  -3  16   10.40    2.90
  -1   3 -16    1.80    1.40
   1  -3  16    2.90    1.70
   1  -3  16    4.60    2.50
  -2   3 -16    5.40    2.00
  -2   3 -16    4.60    1.60
   2  -3  16   -0.30    2.10
   2  -3  16    5.00    2.00
  -3   3 -16    2.10    2.40
   3  -3  16    4.20    2.70
   3  -3  16    3.90    2.40
   4  -3  16   -4.80    2.10
   4  -3  16   -0.70    2.20
  -5  -2  16    5.70    2.80
  -4  -2  16   39.30    5.30
  -4  -2  16   37.00    4.80
   3   2 -16  197.68    9.50
  -3  -2  16  190.68   10.30
   2   2 -16   16.00    2.40
  -2  -2  16   10.60    2.80
  -2  -2  16    8.80    2.40
   1   2 -16  256.07   11.00
  -1  -2  16  242.58   12.20
  -1  -2  16  265.07   11.50
  -1  -2  16  267.57   11.80
   0   2 -16  107.79    5.60
   0  -2  16  100.29    5.00
   0  -2  16   95.29    6.50
   0  -2  16   96.69    5.90
  -1   2 -16    2.90    1.50
   1  -2  16    5.50    1.80
   1  -2  16    1.20    1.80
  -2   2 -16  232.58   10.20
  -2   2 -16  235.78   11.00
   2  -2  16  216.68   11.60
   2  -2  16  238.38   11.30
  -3   2 -16  181.78    9.50
   3  -2  16  147.29    9.10
   3  -2  16  156.38    9.60
  -4   2 -16   14.80    3.70
   4  -2  16   25.40    4.80
   4  -2  16   17.30    4.20
  -5   2 -16   96.39    8.80
   5  -2  16  116.49    9.20
  -5  -1  16   -1.70    2.30
   4   1 -16    6.60    2.40
  -4  -1  16    7.60    3.00
  -4  -1  16    7.80    2.40
   3   1 -16   26.40    3.80
  -3  -1  16   23.10    3.90
   2   1 -16   37.70    3.70
  -2  -1  16   31.50    3.90
  -2  -1  16   41.00    4.00
   1   1 -16    1.60    1.30
  -1  -1  16    1.10    1.50
  -1  -1  16    1.60    1.60
   0   1 -16   30.90    3.10
   0  -1  16   35.20    3.40
   0  -1  16   23.40    3.40
   0  -1  16   28.40    2.80
  -1   1 -16   47.20    3.90
  -1   1 -16   43.80    3.30
   1  -1  16   37.90    3.20
   1  -1  16   39.50    4.00
   1  -1  16   42.50    3.90
  -2   1 -16  286.57   13.10
   2  -1  16  279.27   13.50
   2  -1  16  301.57   13.40
  -3   1 -16    6.10    2.40
   3  -1  16    8.00    2.50
   3  -1  16    2.00    2.00
  -4   1 -16   -0.90    2.10
   4  -1  16   -3.10    1.40
   4  -1  16   -0.30    2.20
  -5   1 -16   35.10    5.80
   5  -1  16   45.80    6.10
  -5   0  16    5.40    3.40
   4   0 -16   30.60    4.70
  -4   0  16   23.60    4.10
  -4   0  16   17.60    3.80
   3   0 -16    5.30    2.10
  -3   0  16    5.10    2.20
  -3   0  16    5.00    2.30
   2   0 -16   79.49    5.40
  -2   0  16   72.19    5.10
  -2   0  16   75.99    5.50
   1   0 -16  579.44   23.00
  -1   0  16  582.74   22.90
  -1   0  16  577.64   23.20
   0   0 -16  504.25   19.40
   0   0  16  468.95   19.20
   0   0  16  478.45   19.30
   0   0  16  443.36   18.80
  -1   0 -16  109.39    5.90
  -1   0 -16   92.79    6.00
   1   0  16  101.69    5.80
   1   0  16  106.49    6.20
   1   0  16  101.59    6.20
  -2   0 -16   53.79    4.40
   2   0  16   34.70    4.30
   2   0  16   43.80    4.10
  -3   0 -16  169.38    9.10
   3   0  16  158.08    9.10
   3   0  16  135.49    8.60
  -4   0 -16   26.90    4.40
   4   0  16   26.90    4.50
  -5   0 -16  161.78   10.80
   5   0  16  148.89   10.20
   5  -1 -16    0.70    2.80
  -5   1  16    7.00    3.60
   4  -1 -16    9.20    3.40
  -4   1  16   10.90    3.80
  -4   1  16    9.00    2.80
   3  -1 -16   52.09    5.10
  -3   1  16   39.60    3.90
  -3   1  16   46.80    5.70
   2  -1 -16   29.80    4.10
  -2   1  16   31.60    3.50
  -2   1  16   33.20    4.20
   1  -1 -16  316.77   14.30
  -1   1  16  326.67   14.20
  -1   1  16  319.97   13.50
   0  -1 -16   13.70    2.30
   0   1  16   12.20    2.50
   0   1  16    6.50    2.10
   0   1  16   12.40    2.40
  -1  -1 -16   98.69    6.10
   1   1  16   86.09    5.80
   1   1  16   97.69    6.00
   1   1  16  100.89    6.00
  -2  -1 -16 1082.29   40.40
   2   1  16 1056.89   40.50
   2   1  16 1096.19   40.50
   2   1  16 1032.00   40.20
  -3  -1 -16  444.06   18.70
   3   1  16  416.26   18.80
   3   1  16  421.26   18.40
  -4  -1 -16   21.60    3.90
   4   1  16    9.40    3.20
  -5  -1 -16    5.10    3.30
   5   1  16    1.20    2.70
   5  -2 -16   27.70    5.60
  -5   2  16   19.90    4.80
   4  -2 -16   17.50    4.20
  -4   2  16   13.10    3.90
   3  -2 -16   -0.70    1.80
  -3   2  16    0.40    2.00
  -3   2  16    1.70    1.70
  -3   2  16    0.40    2.10
   2  -2 -16    6.70    2.50
  -2   2  16    2.10    1.60
  -2   2  16    5.00    2.30
   1  -2 -16   39.50    4.10
  -1   2  16   33.40    3.00
  -1   2  16   37.30    4.00
   0  -2 -16    3.80    1.90
   0   2  16    2.60    1.90
   0   2  16    4.00    1.60
   0   2  16    1.50    1.30
  -1  -2 -16  851.71   34.50
   1   2  16  919.71   34.10
   1   2  16  883.71   34.90
   1   2  16  957.10   34.40
  -2  -2 -16   41.40    4.10
   2   2  16   55.49    5.80
   2   2  16   37.00    4.20
   2   2  16   44.50    4.30
  -3  -2 -16    0.40    1.40
   3   2  16    1.80    1.80
  -4  -2 -16  184.88   10.70
   4   2  16  182.08   10.30
  -5  -2 -16    0.20    2.30
   4  -3 -16   10.30    3.90
  -4   3  16    9.60    3.90
   3  -3 -16   16.00    3.70
  -3   3  16   23.70    4.50
   2  -3 -16  438.26   19.20
  -2   3  16  423.36   17.00
  -2   3  16  424.16   18.50
  -2   3  16  422.36   18.50
   1  -3 -16    9.80    2.70
  -1   3  16    9.90    2.20
  -1   3  16    7.10    2.20
   0  -3 -16    6.80    2.40
   0   3  16    9.90    2.20
   0   3  16    6.10    2.50
   0   3  16    8.70    1.70
  -1  -3 -16  130.69    7.40
   1   3  16  119.49    6.70
   1   3  16  114.39    7.60
  -2  -3 -16   -1.30    1.10
   2   3  16   -0.30    1.80
   2   3  16    1.90    1.60
  -3  -3 -16    2.10    1.80
   3   3  16    4.30    2.10
  -4  -3 -16  196.38   11.10
  -5  -3 -16    4.80    2.90
   4  -4 -16    0.00    3.10
   3  -4 -16    9.80    3.30
   2  -4 -16    2.30    2.20
  -2   4  16    3.60    3.00
   1  -4 -16    0.20    1.70
  -1   4  16    3.10    2.00
  -1   4  16    2.70    2.60
  -1   4  16    3.90    1.90
   0  -4 -16   43.50    4.40
   0   4  16   38.80    5.20
   0   4  16   38.80    3.80
  -1  -4 -16   28.20    4.30
   1   4  16   24.70    4.10
  -2  -4 -16    8.50    2.30
   2   4  16   11.20    3.20
  -3  -4 -16   12.40    2.90
  -4  -4 -16   59.89    6.00
   3  -5 -16   41.60    5.90
   2  -5 -16    3.20    2.70
  -2   5  16    2.20    3.30
   1  -5 -16   48.10    6.00
  -1   5  16   35.40    5.80
   0  -5 -16  233.58   12.10
   0   5  16  237.48   13.00
  -1  -5 -16   74.29    5.80
   1   5  16   63.29    6.40
  -2  -5 -16    1.00    1.90
   2   5  16    0.60    2.50
  -3  -5 -16  420.06   18.90
  -4  -5 -16    6.10    2.90
   1  -6 -16   10.40    3.40
  -1   6  16   16.50    4.60
   0  -6 -16    5.00    3.00
   0   6  16    8.10    3.50
  -1  -6 -16   11.10    3.00
   1   6  16   17.60    4.30
  -2  -6 -16   23.40    4.10
   2   6  16   21.10    4.70
  -3  -6 -16   44.60    5.90
  -2  -6  17   62.19    4.80
  -2  -6  17   74.69    8.70
  -1  -6  17    3.70    2.00
  -1  -6  17   -6.90    2.30
   0  -6  17    2.80    2.40
   0  -6  17    4.90    3.50
   1  -6  17   82.39    8.10
   1  -6  17   86.39    6.60
  -3  -5  17    4.40    2.10
  -3  -5  17    1.40    3.20
  -2  -5  17    2.90    3.40
  -2  -5  17    7.50    2.40
  -1  -5  17   10.20    2.60
  -1  -5  17    9.40    3.40
   0  -5  17  204.98   12.40
   0  -5  17  222.58   10.70
   1  -5  17    0.80    2.70
   1  -5  17    3.80    2.30
   2  -5  17   27.90    5.30
   2  -5  17   24.40    4.20
   3  -5  17    2.30    2.80
   3  -5  17   -1.90    3.20
  -4  -4  17   26.10    4.40
  -4  -4  17   18.50    3.60
  -3  -4  17   84.49    8.00
  -3  -4  17   95.39    6.60
  -2  -4  17    6.10    2.20
  -2  -4  17    3.00    2.50
  -1  -4  17    8.80    3.00
  -1  -4  17   10.10    2.40
   0  -4  17    5.80    2.10
   0  -4  17    5.40    2.50
   1  -4  17    2.90    2.50
   1  -4  17    4.30    2.10
   2  -4  17    9.90    3.30
   2  -4  17    4.30    2.40
   3  -4  17   11.90    3.90
   3  -4  17    6.70    2.80
   4  -4  17    1.20    2.90
   4  -4  17    0.70    3.40
  -4  -3  17   28.20    4.40
  -3  -3  17  107.29    8.10
  -3  -3  17  108.79    7.20
  -2  -3  17   69.49    5.30
  -2  -3  17   63.49    5.90
   1   3 -17  111.59    5.30
  -1  -3  17  100.59    6.40
  -1  -3  17  122.29    7.70
  -1  -3  17  119.19    6.70
   0  -3  17  576.04   22.80
   0  -3  17  581.94   24.10
   0  -3  17  559.44   20.70
  -1   3 -17   89.59    5.50
   1  -3  17   97.29    6.10
   1  -3  17  100.09    7.00
  -2   3 -17   18.60    3.10
   2  -3  17   18.20    3.20
   2  -3  17   14.20    3.40
  -3   3 -17    8.30    3.10
   3  -3  17    8.40    3.00
   3  -3  17    9.90    3.50
   4  -3  17   -1.80    2.20
   4  -3  17    1.90    2.90
  -5  -2  17   -0.10    2.50
  -4  -2  17   17.10    4.30
   3   2 -17   46.50    5.70
  -3  -2  17   58.69    5.20
  -3  -2  17   40.60    5.60
   2   2 -17   -0.20    1.30
  -2  -2  17   -1.70    1.50
  -2  -2  17    1.00    2.00
   1   2 -17   11.00    2.10
  -1  -2  17   12.30    2.60
  -1  -2  17   12.00    2.80
   0   2 -17    8.90    2.00
   0  -2  17   12.30    2.30
   0  -2  17    8.80    1.70
   0  -2  17   10.20    2.70
  -1   2 -17   48.60    4.10
   1  -2  17   54.89    4.90
   1  -2  17   51.79    4.30
  -2   2 -17   13.00    2.90
  -2   2 -17   15.60    2.50
   2  -2  17   12.10    2.90
   2  -2  17   19.00    3.50
  -3   2 -17    4.50    2.20
   3  -2  17    0.30    1.80
   3  -2  17   -0.90    2.20
  -4   2 -17    5.60    3.20
   4  -2  17    7.00    3.00
   4  -2  17   11.60    3.70
  -5   2 -17    3.20    3.40
   5  -2  17    7.10    3.30
  -5  -1  17   95.59    8.50
   4   1 -17  155.28    9.80
  -4  -1  17  157.28   10.00
  -4  -1  17  157.58    9.70
   3   1 -17   27.00    3.90
  -3  -1  17   27.30    4.00
  -3  -1  17   26.10    4.20
   2   1 -17   16.80    2.90
  -2  -1  17   24.00    3.60
  -2  -1  17   14.60    3.10
   1   1 -17  257.87   11.80
  -1  -1  17  269.77   12.40
  -1  -1  17  272.97   12.40
   0   1 -17   32.70    3.60
   0  -1  17   34.20    3.50
   0  -1  17   24.60    3.50
   0  -1  17   29.40    2.90
  -1   1 -17  230.68   10.90
   1  -1  17  227.28   10.20
   1  -1  17  225.18   11.20
   1  -1  17  239.78   11.00
  -2   1 -17  938.81   35.70
   2  -1  17  931.21   36.30
   2  -1  17  923.21   35.80
  -3   1 -17    6.80    2.40
   3  -1  17    6.50    2.60
   3  -1  17    9.80    2.80
  -4   1 -17    3.50    2.70
   4  -1  17   -0.90    2.30
   4  -1  17   -1.50    2.00
  -5   1 -17   19.40    4.60
   5  -1  17   33.60    5.50
  -5   0  17    2.60    3.10
   4   0 -17   30.00    4.70
  -4   0  17   34.10    4.80
  -4   0  17   28.40    4.70
   3   0 -17   81.39    6.30
  -3   0  17   92.29    7.00
  -3   0  17   91.09    6.30
   2   0 -17   14.30    2.80
  -2   0  17   10.40    2.70
  -2   0  17   19.20    3.10
   1   0 -17   83.39    5.50
  -1   0  17   76.49    5.30
  -1   0  17   69.89    5.30
   0   0 -17  522.65   21.10
   0   0  17  528.55   21.10
   0   0  17  515.75   20.80
   0   0  17  513.85   21.10
  -1   0 -17    9.70    2.30
   1   0  17   13.60    2.50
   1   0  17    8.60    2.20
   1   0  17   10.60    2.20
  -2   0 -17   86.89    6.00
   2   0  17   87.29    6.10
   2   0  17   89.39    6.10
   2   0  17   89.29    5.70
  -3   0 -17  181.68   10.30
   3   0  17  210.48   10.70
   3   0  17  196.48   10.80
  -4   0 -17   14.90    3.40
   4   0  17   17.90    3.80
  -5   0 -17  153.18   10.30
   5   0  17  126.69    9.60
   5  -1 -17    1.70    2.70
  -5   1  17   -2.50    2.70
   4  -1 -17   61.09    7.00
  -4   1  17   76.09    7.30
  -4   1  17   54.19    5.30
   3  -1 -17    0.80    1.80
  -3   1  17   -0.50    1.60
  -3   1  17    3.60    2.40
   2  -1 -17  288.17   13.40
  -2   1  17  271.07   13.30
  -2   1  17  278.17   12.30
   1  -1 -17   73.29    5.40
  -1   1  17   64.39    4.60
  -1   1  17   66.89    5.10
   0  -1 -17  108.19    6.60
   0   1  17  113.89    6.80
   0   1  17  114.39    6.80
   0   1  17  114.59    6.40
   1   1  17  134.99    7.50
   1   1  17  132.49    7.40
   1   1  17  124.29    7.30
  -2  -1 -17  174.68    9.30
   2   1  17  186.78    9.40
   2   1  17  183.58    9.50
   2   1  17  163.28    9.20
  -3  -1 -17  123.39    7.90
   3   1  17  137.19    8.10
   3   1  17  131.19    8.40
  -4  -1 -17  244.78   12.70
   4   1  17  217.38   12.10
  -5  -1 -17   53.29    6.80
   5   1  17   51.19    6.60
   4  -2 -17    5.90    3.20
  -4   2  17    9.20    3.40
   3  -2 -17    2.00    2.20
  -3   2  17    3.60    2.60
  -3   2  17    5.50    2.60
  -3   2  17    5.60    2.10
   2  -2 -17   59.29    5.40
  -2   2  17   60.89    4.30
  -2   2  17   61.89    5.50
   1  -2 -17   18.40    3.60
  -1   2  17   23.10    2.80
  -1   2  17   20.90    3.30
   0   2  17   67.59    5.50
   0   2  17   76.29    5.40
   0   2  17   73.09    4.70
  -1  -2 -17 1614.14   58.59
   1   2  17 1593.84   58.09
   1   2  17 1556.74   57.99
   1   2  17 1575.54   58.79
  -2  -2 -17  166.58    8.80
   2   2  17  157.38    9.10
   2   2  17  144.59    8.40
   2   2  17  169.98    8.90
  -3  -2 -17   11.20    3.00
   3   2  17   14.70    3.30
  -4  -2 -17  258.77   13.70
   4   2  17  271.17   13.60
  -5  -2 -17   57.99    7.20
   4  -3 -17    0.20    2.70
  -4   3  17    5.20    3.40
   3  -3 -17   18.80    4.20
  -3   3  17   24.10    4.50
   2  -3 -17    6.60    2.70
  -2   3  17    5.60    2.30
  -2   3  17    3.30    2.20
   1  -3 -17   11.10    2.90
  -1   3  17   13.10    2.50
  -1   3  17   14.40    3.40
  -1   3  17   15.10    3.10
   0  -3 -17  171.18    9.30
   0   3  17  168.78    8.60
   0   3  17  155.78    9.40
   0   3  17  168.18    7.80
  -1  -3 -17   -2.40    1.30
   1   3  17   -1.40    1.40
   1   3  17    6.50    2.60
  -2  -3 -17    6.50    2.20
   2   3  17    6.10    2.00
   2   3  17    8.60    2.90
  -3  -3 -17  155.38    9.10
   3   3  17  153.48    8.60
  -4  -3 -17    7.50    2.70
  -5  -3 -17   -0.50    2.40
   3  -4 -17   71.09    8.30
   2  -4 -17   10.40    3.00
   1  -4 -17   41.80    5.50
  -1   4  17   36.50    4.40
  -1   4  17   38.20    4.30
  -1   4  17   24.40    4.60
   0  -4 -17  245.68   12.50
   0   4  17  273.67   13.60
   0   4  17  254.37   11.70
  -1  -4 -17  118.99    7.40
   1   4  17  105.29    7.70
  -2  -4 -17   60.19    5.30
   2   4  17   64.59    6.20
  -3  -4 -17   68.19    5.90
  -4  -4 -17    2.40    2.30
   3  -5 -17   -0.40    3.20
   2  -5 -17    0.30    2.50
  -2   5  17    2.70    3.20
   1  -5 -17    6.50    2.70
  -1   5  17    2.80    2.70
   0  -5 -17    5.60    2.40
   0   5  17    7.30    3.00
  -1  -5 -17   12.10    3.00
   1   5  17    9.60    3.20
  -2  -5 -17   -2.40    1.30
   2   5  17    1.20    2.70
  -3  -5 -17    3.00    2.50
  -4  -5 -17   16.60    3.90
   1  -6 -17   37.50    5.70
  -1   6  17   28.10    5.80
   0  -6 -17    0.40    2.40
   0   6  17    0.70    3.10
  -1  -6 -17    8.20    2.80
   1   6  17    5.50    3.40
  -2  -6 -17  207.38   11.50
   2   6  17  184.08   11.90
  -2  -6  18    2.00    2.10
  -2  -6  18    2.50    3.40
  -1  -6  18   11.00    4.50
  -1  -6  18   11.90    2.70
   0  -6  18   33.30    4.30
   0  -6  18   29.30    5.60
   1  -6  18    8.10    3.00
   1  -6  18   12.70    4.60
  -3  -5  18   49.60    5.10
  -3  -5  18   51.09    7.30
  -2  -5  18   16.20    4.50
  -2  -5  18   18.80    3.10
  -1  -5  18  105.09    6.60
  -1  -5  18   99.29    8.20
   0  -5  18   97.39    8.10
   0  -5  18   96.59    6.50
   1  -5  18    5.50    2.50
   1  -5  18    3.60    2.80
   2  -5  18    7.80    3.20
   2  -5  18   12.70    3.90
   3  -5  18    9.70    3.30
   3  -5  18   16.80    4.50
  -4  -4  18   48.50    6.10
  -4  -4  18   65.29    8.30
  -3  -4  18   23.30    5.00
  -3  -4  18   21.40    3.70
  -2  -4  18    1.80    2.70
  -2  -4  18   -0.40    1.80
  -1  -4  18   38.60    5.40
  -1  -4  18   39.80    4.10
   0  -4  18   30.30    3.90
   0  -4  18   28.50    4.80
   1  -4  18    8.80    3.10
   1  -4  18   14.60    3.10
   2  -4  18  106.19    8.10
   2  -4  18  103.69    7.20
   3  -4  18   52.79    6.70
   3  -4  18   64.69    6.40
   4  -4  18   44.70    6.70
   4  -4  18   51.89    7.10
  -4  -3  18   35.00    5.10
  -3  -3  18    2.60    2.80
  -3  -3  18   -1.10    1.70
  -2  -3  18   58.19    5.00
  -2  -3  18   58.49    5.90
  -1  -3  18    0.50    1.60
  -1  -3  18    3.60    2.30
  -1  -3  18    2.90    1.30
   0  -3  18  165.48    8.60
   0  -3  18  158.88    6.60
   0  -3  18  165.78    9.30
   0  -3  18  151.78    9.50
  -1   3 -18    0.50    1.40
   1  -3  18    0.40    1.50
   1  -3  18    2.40    2.10
  -2   3 -18   68.79    5.40
   2  -3  18   73.69    6.40
   2  -3  18   77.39    6.00
   3  -3  18   42.50    5.30
   3  -3  18   35.10    5.40
   4  -3  18   43.50    6.00
   4  -3  18   48.10    6.80
  -5  -2  18    3.50    2.80
  -4  -2  18   29.30    5.20
  -3  -2  18  120.39    8.30
  -3  -2  18  113.49    7.70
   2   2 -18   38.50    3.60
  -2  -2  18   35.90    4.60
  -2  -2  18   41.50    5.10
   1   2 -18 1310.27   49.10
  -1  -2  18 1290.17   50.39
  -1  -2  18 1428.96   50.09
   0   2 -18  165.28    8.20
   0  -2  18  171.88    7.60
   0  -2  18  160.48    9.20
   0  -2  18  163.88    8.70
  -1   2 -18   34.60    4.00
   1  -2  18   27.90    3.60
   1  -2  18   33.80    4.50
  -2   2 -18   44.10    4.40
  -2   2 -18   37.10    4.30
   2  -2  18   29.80    4.60
   2  -2  18   43.80    5.00
  -3   2 -18    0.90    2.10
   3  -2  18    0.00    2.10
   3  -2  18   -0.20    1.90
  -4   2 -18   10.30    3.40
   4  -2  18   34.90    5.50
   4  -2  18   24.00    4.50
  -5   2 -18  185.98   12.30
   5  -2  18  178.48   12.00
  -5  -1  18    2.90    3.10
  -4  -1  18    4.70    2.60
  -4  -1  18    1.50    2.70
   3   1 -18    9.40    2.60
  -3  -1  18   13.00    3.30
  -3  -1  18   14.70    3.80
   2   1 -18  146.59    8.00
  -2  -1  18  141.29    8.30
  -2  -1  18  138.99    8.30
   1   1 -18   36.00    3.70
  -1  -1  18   33.10    4.20
  -1  -1  18   42.90    4.20
   0   1 -18   93.39    5.80
   0  -1  18   82.79    5.20
   0  -1  18   86.29    5.90
   0  -1  18  103.19    6.40
  -1   1 -18    5.40    1.90
   1  -1  18    3.70    1.90
   1  -1  18    4.10    2.00
   1  -1  18    4.30    1.70
  -2   1 -18   64.69    5.10
   2  -1  18   68.39    5.30
   2  -1  18   56.09    5.30
  -3   1 -18   98.19    7.00
   3  -1  18  101.89    7.30
   3  -1  18   80.29    6.60
  -4   1 -18   -0.90    2.10
   4  -1  18   -1.90    2.30
   4  -1  18    4.60    3.20
  -5   1 -18   -1.10    2.50
   5  -1  18    0.80    3.00
  -5   0  18  135.79   10.60
   4   0 -18   19.40    4.30
  -4   0  18   20.20    4.10
  -4   0  18   22.10    4.10
  -4   0  18   25.20    4.40
   3   0 -18   82.19    6.30
  -3   0  18   69.79    6.40
  -3   0  18   74.39    5.80
   2   0 -18  142.49    8.20
  -2   0  18  148.69    8.00
  -2   0  18  142.29    8.50
   1   0 -18  324.97   14.30
  -1   0  18  321.97   14.50
  -1   0  18  317.27   14.20
   0   0 -18    4.50    1.70
   0   0  18    5.60    1.90
   0   0  18    2.30    1.90
   0   0  18    4.70    2.00
  -1   0 -18  479.35   20.20
   1   0  18  484.85   20.20
   1   0  18  499.95   19.90
  -2   0 -18    8.50    2.30
   2   0  18    5.90    2.20
   2   0  18    3.40    2.10
   2   0  18    7.50    2.40
  -3   0 -18   47.80    4.90
   3   0  18   48.70    5.00
   3   0  18   42.70    5.20
  -4   0 -18  138.09    9.30
   4   0  18  134.19    9.20
   4   0  18  148.49    9.80
  -5   0 -18   -1.00    2.60
   5   0  18    2.00    2.60
   5  -1 -18    2.70    3.30
  -5   1  18   -0.90    2.80
   4  -1 -18    5.10    3.00
  -4   1  18    4.40    2.40
  -4   1  18    0.70    3.10
   3  -1 -18    3.00    2.20
  -3   1  18    2.80    2.20
  -3   1  18    1.30    2.30
   2  -1 -18  106.59    7.30
  -2   1  18  108.49    7.30
  -2   1  18  109.69    6.50
   1  -1 -18   68.29    5.40
  -1   1  18   58.89    5.10
  -1   1  18   70.79    4.80
   0  -1 -18   46.80    4.20
   0   1  18   43.70    4.20
   0   1  18   40.80    4.50
   0   1  18   38.90    3.70
  -1  -1 -18   26.70    4.10
   1   1  18   21.70    3.20
   1   1  18   18.80    3.10
   1   1  18   15.90    3.10
  -2  -1 -18  357.96   15.20
   2   1  18  322.47   15.10
   2   1  18  328.57   15.10
   2   1  18  323.37   15.00
  -3  -1 -18    4.20    2.30
   3   1  18    6.30    2.60
   3   1  18    6.70    2.60
  -4  -1 -18  163.38   10.40
   4   1  18  180.18   10.40
  -5  -1 -18    1.30    2.90
   5   1  18    0.90    2.80
   4  -2 -18    0.00    2.80
  -4   2  18    0.00    2.70
   3  -2 -18    2.80    2.40
  -3   2  18    2.30    2.50
  -3   2  18    3.70    2.70
  -3   2  18    0.40    1.90
   2  -2 -18    8.20    2.80
  -2   2  18    4.50    1.80
  -2   2  18    7.40    2.70
   1  -2 -18  125.69    7.60
  -1   2  18  116.19    6.30
  -1   2  18  108.29    7.00
   0  -2 -18   70.39    5.30
   0   2  18   59.99    4.40
   0   2  18   64.39    5.00
   0   2  18   52.59    5.20
  -1  -2 -18   30.80    4.10
   1   2  18   38.40    3.80
   1   2  18   30.50    3.70
   1   2  18   35.80    4.50
  -2  -2 -18  248.68   12.30
   2   2  18  256.67   12.80
   2   2  18  264.47   12.30
   2   2  18  244.38   12.20
  -3  -2 -18   21.60    3.80
   3   2  18   31.00    4.70
  -4  -2 -18   13.90    3.50
   4   2  18    7.50    2.80
  -5  -2 -18   16.40    4.20
   4  -3 -18   11.00    4.00
  -4   3  18    5.20    3.70
   3  -3 -18   13.90    3.70
  -3   3  18    1.30    2.90
   2  -3 -18   26.40    4.30
  -2   3  18   25.80    4.30
   1  -3 -18   77.49    6.20
  -1   3  18   74.39    4.20
  -1   3  18   60.49    6.10
  -1   3  18   77.29    5.70
   0  -3 -18  182.38    9.60
   0   3  18  158.48    8.00
   0   3  18  184.68    9.20
   0   3  18  166.28    9.80
  -1  -3 -18   20.50    3.30
   1   3  18   23.10    4.10
   1   3  18   24.70    3.40
   1   3  18   23.20    3.30
  -2  -3 -18  107.99    6.80
   2   3  18  108.69    7.40
   2   3  18   85.49    6.10
  -3  -3 -18  287.07   14.30
   3   3  18  304.37   15.80
  -4  -3 -18   54.89    6.80
  -5  -3 -18   14.50    4.10
   3  -4 -18    9.80    3.70
   2  -4 -18    0.70    2.00
   1  -4 -18    0.80    2.00
  -1   4  18    3.20    2.40
  -1   4  18    0.00    2.10
   0  -4 -18   56.99    5.30
   0   4  18   60.79    5.50
   0   4  18   57.59    5.90
  -1  -4 -18   23.70    4.10
   1   4  18   18.40    4.10
  -2  -4 -18    8.30    2.60
   2   4  18   16.50    3.60
  -3  -4 -18   10.20    2.70
  -4  -4 -18   26.20    4.80
   2  -5 -18   69.79    7.00
  -2   5  18   62.29    8.00
   1  -5 -18   39.70    5.80
  -1   5  18   45.30    6.40
   0  -5 -18  285.37   14.40
   0   5  18  303.77   15.50
  -1  -5 -18   47.20    5.90
  -2  -5 -18    4.60    2.40
   2   5  18    8.10    3.30
  -3  -5 -18   94.79    7.40
   1  -6 -18    1.00    2.80
  -1   6  18    0.80    3.10
   0  -6 -18    4.60    3.10
   0   6  18    8.90    4.00
  -1  -6 -18   40.10    5.50
   1   6  18   37.50    6.40
  -2  -6 -18   22.20    4.30
   2   6  18   22.30    5.00
  -1  -6  19   -0.80    3.50
  -1  -6  19   -2.10    1.80
   0  -6  19   -0.50    2.90
   0  -6  19    3.20    2.50
   1  -6  19   27.50    4.50
   1  -6  19   23.40    5.50
  -3  -5  19   29.20    4.30
  -3  -5  19   26.30    5.60
  -2  -5  19   31.40    6.00
  -2  -5  19   21.80    3.50
  -1  -5  19  124.49    9.40
  -1  -5  19  118.19    7.30
   0  -5  19   39.10    6.00
   0  -5  19   37.00    4.60
   1  -5  19    1.70    3.10
   1  -5  19    0.50    2.10
   2  -5  19    2.80    3.60
   2  -5  19    4.10    2.80
  -4  -4  19   14.90    3.70
  -4  -4  19   15.60    5.10
  -3  -4  19  111.99    7.60
  -3  -4  19  109.99    9.20
  -2  -4  19   59.19    5.10
  -2  -4  19   50.69    6.60
  -1  -4  19  149.49    8.60
  -1  -4  19  171.38   10.30
   0  -4  19    5.30    3.00
   0  -4  19    1.30    2.00
   1  -4  19  124.69    9.00
   1  -4  19  139.49    8.10
   2  -4  19    4.40    2.10
   2  -4  19   -0.50    2.70
   3  -4  19   25.60    5.10
   3  -4  19   29.30    4.80
  -4  -3  19  108.39    9.40
  -4  -3  19  109.49    8.20
  -3  -3  19    3.30    2.90
  -3  -3  19   -1.70    2.00
  -2  -3  19   -0.30    1.80
  -2  -3  19    1.80    2.50
  -1  -3  19   29.60    2.70
  -1  -3  19   33.00    4.20
  -1  -3  19   32.70    4.80
   0  -3  19   15.20    3.00
   0  -3  19   14.20    1.70
   0  -3  19   14.10    3.40
  -1   3 -19   38.70    3.70
   1  -3  19   36.40    4.40
   1  -3  19   28.90    4.50
  -2   3 -19  291.07   13.30
   2  -3  19  276.17   14.40
   2  -3  19  283.27   13.80
   3  -3  19   17.80    3.80
   3  -3  19   18.10    4.20
   4  -3  19    1.80    2.60
   4  -3  19   -3.40    2.50
  -4  -2  19   12.80    4.00
  -4  -2  19    1.50    3.00
  -3  -2  19    2.90    2.50
  -3  -2  19    4.50    2.20
   2   2 -19   31.00    3.60
  -2  -2  19   28.80    3.90
  -2  -2  19   29.60    4.50
   1   2 -19   59.99    4.60
  -1  -2  19   65.09    5.20
  -1  -2  19   66.49    5.70
   0   2 -19    2.00    1.50
   0  -2  19    0.40    1.50
   0  -2  19    1.80    1.90
   0  -2  19    2.00    1.30
  -1   2 -19   30.40    3.60
   1  -2  19   24.40    2.80
   1  -2  19   19.10    3.70
   1  -2  19   25.40    3.80
  -2   2 -19    2.20    1.90
   2  -2  19   -0.60    1.50
   2  -2  19    4.60    2.40
  -3   2 -19    3.10    2.50
   3  -2  19    5.50    2.90
   3  -2  19   10.00    3.00
  -4   2 -19   13.20    3.60
   4  -2  19   16.90    3.80
   4  -2  19   15.50    4.40
  -5   2 -19   10.10    5.40
   5  -2  19    5.60    3.80
  -5  -1  19   31.00    5.50
  -4  -1  19   74.29    7.10
  -4  -1  19   69.69    6.90
   3   1 -19    2.20    2.00
  -3  -1  19    0.90    2.10
  -3  -1  19    4.30    2.40
   2   1 -19  183.88    9.10
  -2  -1  19  155.08    9.30
  -2  -1  19  160.08    9.30
   1   1 -19    9.80    2.40
  -1  -1  19    2.30    2.20
  -1  -1  19    6.90    2.40
   0   1 -19   11.50    2.40
   0  -1  19   14.90    2.90
   0  -1  19   19.60    2.80
   0  -1  19   17.60    3.40
  -1   1 -19  470.65   19.50
   1  -1  19  443.96   19.90
   1  -1  19  485.45   19.90
   1  -1  19  470.95   18.90
  -2   1 -19  236.18   11.00
   2  -1  19  187.08   10.50
   2  -1  19  204.58   11.00
  -3   1 -19   38.80    5.00
   3  -1  19   49.30    5.90
   3  -1  19   39.60    5.50
  -4   1 -19  126.59    9.00
   4  -1  19  126.19    9.40
   4  -1  19  133.59    9.30
  -5   1 -19    1.30    2.70
   5  -1  19   -0.60    2.70
  -5   0  19    4.50    3.80
  -5   0  19    0.30    3.10
   4   0 -19    9.70    3.40
  -4   0  19    7.30    3.10
  -4   0  19    7.90    3.30
  -4   0  19    7.50    3.30
   3   0 -19    5.70    2.50
  -3   0  19    0.20    2.00
  -3   0  19    0.30    2.20
   2   0 -19    5.00    2.30
  -2   0  19   11.40    2.80
  -2   0  19    8.60    2.50
   1   0 -19    4.10    2.00
  -1   0  19    4.80    1.90
  -1   0  19    5.00    2.00
   0   0 -19   19.50    3.00
   0   0  19   19.20    3.00
   0   0  19   19.10    3.20
   0   0  19   19.50    3.10
  -1   0 -19   -1.70    1.20
   1   0  19    2.30    1.90
   1   0  19    5.00    1.90
   1   0  19    2.90    1.60
  -2   0 -19   21.50    3.60
   2   0  19   21.70    3.70
   2   0  19   17.80    3.20
   2   0  19   14.10    3.10
  -3   0 -19   16.20    3.30
   3   0  19   21.20    4.10
   3   0  19   19.50    3.80
  -4   0 -19   20.90    4.20
   4   0  19   18.80    4.10
   4   0  19   14.60    3.70
  -5   0 -19   -0.60    2.60
   5   0  19   -0.60    3.00
   4  -1 -19   17.30    4.30
  -4   1  19    7.00    3.80
  -4   1  19    9.70    3.20
  -4   1  19   13.00    4.40
   3  -1 -19  161.88    9.80
  -3   1  19  158.68   10.00
  -3   1  19  150.98    8.40
   2  -1 -19  828.02   33.30
  -2   1  19  850.71   33.40
  -2   1  19  830.42   32.10
   1  -1 -19   67.49    5.60
  -1   1  19   64.69    5.40
  -1   1  19   73.19    5.00
   0  -1 -19   26.70    3.40
   0   1  19   45.20    4.00
   0   1  19   42.80    4.80
   0   1  19   37.40    4.60
  -1  -1 -19  108.49    7.00
   1   1  19  119.09    7.20
   1   1  19  118.29    7.10
   1   1  19  108.09    7.00
  -2  -1 -19   84.49    6.20
   2   1  19   87.89    6.40
   2   1  19   97.49    6.50
   2   1  19   82.99    6.30
  -3  -1 -19    7.10    2.70
   3   1  19    6.40    2.50
   3   1  19   12.80    3.10
  -4  -1 -19  126.29    8.90
   4   1  19  127.99    8.80
  -5  -1 -19   19.20    4.90
   5   1  19   29.70    5.80
   4  -2 -19    2.50    3.00
  -4   2  19    1.70    2.90
   3  -2 -19   26.50    4.70
  -3   2  19   17.20    4.10
  -3   2  19   16.40    3.00
  -3   2  19   17.80    3.70
   2  -2 -19    0.50    2.10
  -2   2  19    2.70    1.60
  -2   2  19    1.80    2.40
   1  -2 -19   26.00    4.00
  -1   2  19   27.00    3.30
  -1   2  19   24.20    3.80
   0  -2 -19   14.80    3.10
   0   2  19   17.00    3.60
   0   2  19   19.70    3.10
   0   2  19   20.70    3.40
  -1  -2 -19  111.09    7.20
   1   2  19  117.09    7.00
   1   2  19  105.69    6.90
   1   2  19  130.49    7.90
  -2  -2 -19  449.76   19.80
   2   2  19  482.45   19.90
   2   2  19  463.15   20.30
   2   2  19  460.65   20.00
  -3  -2 -19   74.49    6.20
   3   2  19   77.89    6.20
  -4  -2 -19   -2.70    1.50
   4   2  19    3.00    2.30
  -5  -2 -19  106.59    8.90
   4  -3 -19   -0.80    3.10
  -4   3  19    2.90    3.40
   3  -3 -19   20.30    4.50
  -3   3  19   20.90    4.50
   2  -3 -19    9.10    3.10
  -2   3  19   13.70    3.30
   1  -3 -19   13.00    3.10
  -1   3  19   14.10    2.20
  -1   3  19   10.10    3.00
  -1   3  19    9.40    2.70
   0  -3 -19  195.08   10.50
   0   3  19  190.98   10.00
   0   3  19  202.08   11.00
   0   3  19  188.58    9.00
  -1  -3 -19   20.70    3.60
   1   3  19   19.80    3.10
   1   3  19   20.60    3.50
   1   3  19   16.60    3.80
  -2  -3 -19   24.60    4.00
   2   3  19   35.20    4.50
   2   3  19   38.20    5.10
  -3  -3 -19  216.88   11.80
  -4  -3 -19   23.00    4.50
  -5  -3 -19   62.69    7.30
   3  -4 -19   41.10    5.90
   2  -4 -19    0.90    2.50
   1  -4 -19    3.60    2.70
  -1   4  19    7.00    3.10
   0  -4 -19   42.00    5.30
   0   4  19   42.60    5.80
  -1  -4 -19   90.29    6.70
   1   4  19   89.69    7.20
  -2  -4 -19   21.70    3.70
   2   4  19   21.30    4.30
  -3  -4 -19  132.49    8.70
  -4  -4 -19   -0.20    2.40
   2  -5 -19    1.90    2.70
  -2   5  19   -2.80    3.10
   1  -5 -19   23.20    4.20
  -1   5  19   39.90    6.10
   0  -5 -19    2.10    2.50
   0   5  19    2.50    3.00
  -1  -5 -19    9.30    2.70
   1   5  19    7.90    3.30
  -2  -5 -19    8.10    2.80
   2   5  19    6.80    3.60
  -3  -5 -19   62.99    6.20
   1  -6 -19   88.79    7.70
  -1   6  19   72.79    8.70
   0  -6 -19   15.60    3.80
   0   6  19   16.10    4.80
  -1  -6 -19    6.50    3.00
   1   6  19    5.80    3.60
  -2  -6 -19  325.67   15.80
   2   6  19  284.67   16.30
  -1  -6  20    1.20    3.20
  -1  -6  20   -0.30    2.00
   0  -6  20    1.90    3.20
   0  -6  20    4.00    2.60
  -3  -5  20   33.60    4.70
  -3  -5  20   44.30    7.30
  -2  -5  20    9.20    4.20
  -2  -5  20   13.30    3.10
  -1  -5  20   56.19    7.40
  -1  -5  20   49.60    4.80
   0  -5  20  168.58   11.30
   0  -5  20  170.58    9.60
   1  -5  20    7.70    2.70
   1  -5  20    8.80    3.80
   2  -5  20  120.49    8.50
   2  -5  20  110.69    9.50
  -3  -4  20    0.80    2.80
  -3  -4  20    3.80    2.60
  -2  -4  20   25.20    5.10
  -2  -4  20   19.50    3.60
  -1  -4  20  132.69    9.40
  -1  -4  20  134.29    8.00
   0  -4  20    6.60    2.50
   0  -4  20    3.80    2.70
   1  -4  20    6.50    2.30
   1  -4  20    5.30    2.90
   2  -4  20    7.10    3.40
   2  -4  20    5.20    2.60
   3  -4  20    7.30    3.70
   3  -4  20   13.30    4.50
  -4  -3  20   93.79    7.60
  -4  -3  20   92.59    9.20
  -3  -3  20    8.60    3.80
  -3  -3  20    6.80    2.90
  -2  -3  20   44.10    5.90
  -2  -3  20   36.20    4.50
  -1  -3  20    1.80    1.40
  -1  -3  20    6.10    2.40
  -1  -3  20    2.80    2.40
   0  -3  20   27.90    4.50
   0  -3  20   30.40    2.40
   0  -3  20   30.50    4.00
  -1   3 -20   73.49    5.20
   1  -3  20   67.09    5.60
   1  -3  20   70.09    6.50
   2  -3  20   56.89    5.50
   2  -3  20   61.29    6.20
   3  -3  20   -1.70    2.40
   3  -3  20   -1.50    2.30
   4  -3  20    2.60    3.60
   4  -3  20    0.30    2.80
  -4  -2  20   36.20    6.00
  -4  -2  20   40.10    5.60
  -3  -2  20   38.70    5.30
  -3  -2  20   31.80    4.80
   2   2 -20  185.18    9.30
  -2  -2  20  192.38   10.90
  -2  -2  20  193.98   10.30
   1   2 -20  278.37   12.50
  -1  -2  20  282.57   13.30
  -1  -2  20  277.87   13.80
   0   2 -20   73.69    5.10
   0  -2  20   73.09    4.60
   0  -2  20   76.39    5.50
   0  -2  20   69.39    5.90
  -1   2 -20    8.40    2.20
   1  -2  20    5.90    2.60
   1  -2  20    3.40    2.00
   1  -2  20    2.70    1.30
  -2   2 -20    7.60    2.60
   2  -2  20    3.20    2.20
   2  -2  20    2.70    2.30
  -3   2 -20    2.10    2.30
   3  -2  20    2.00    2.60
   3  -2  20    7.90    2.70
  -4   2 -20  136.19    9.40
   4  -2  20  152.68   10.60
   4  -2  20  116.49    9.30
  -4  -1  20   52.59    6.40
  -4  -1  20   29.20    4.60
   3   1 -20    1.10    2.00
  -3  -1  20   -0.50    2.10
  -3  -1  20   -0.30    2.10
   2   1 -20   71.19    5.60
  -2  -1  20   71.99    6.10
  -2  -1  20   72.89    6.00
   1   1 -20   23.80    3.40
  -1  -1  20   16.60    3.00
  -1  -1  20   27.50    4.00
   0   1 -20   21.20    3.50
   0  -1  20   15.20    2.60
   0  -1  20   22.80    3.70
   0  -1  20   15.40    3.20
  -1   1 -20    3.90    1.90
   1  -1  20    2.80    1.90
   1  -1  20    6.50    2.10
   1  -1  20    2.60    1.80
  -2   1 -20   -1.20    1.50
   2  -1  20    2.60    2.00
   2  -1  20    3.30    2.00
  -3   1 -20   -2.00    1.80
   3  -1  20    0.20    1.90
   3  -1  20   -0.90    2.10
  -4   1 -20   47.10    6.30
   4  -1  20   46.50    6.70
   4  -1  20   42.40    6.30
  -5   1 -20    4.20    3.20
   5  -1  20   13.00    4.60
   4   0 -20    1.60    2.60
  -4   0  20    2.00    3.30
  -4   0  20   -0.20    2.60
  -4   0  20   -1.40    2.50
   3   0 -20    1.40    2.30
  -3   0  20    4.00    2.50
  -3   0  20    5.40    2.70
   2   0 -20   64.59    5.60
  -2   0  20   68.69    6.00
  -2   0  20   57.09    5.20
   1   0 -20   39.80    4.60
  -1   0  20   38.10    4.50
  -1   0  20   40.30    4.70
   0   0 -20  446.86   19.30
   0   0  20  493.65   19.60
   0   0  20  445.96   18.90
   0   0  20  435.56   19.10
  -1   0 -20 1203.98   45.90
   1   0  20 1256.47   46.00
   1   0  20 1193.48   46.00
   1   0  20 1205.08   45.40
  -2   0 -20    4.40    2.00
   2   0  20    2.20    2.30
   2   0  20    1.00    1.80
   2   0  20    6.20    2.20
  -3   0 -20    1.20    1.90
   3   0  20    1.40    2.20
   3   0  20   -0.20    2.10
  -4   0 -20  159.78   10.20
   4   0  20  179.28   11.10
   4   0  20  145.39   10.00
  -5   0 -20   17.40    4.80
   5   0  20   18.00    4.50
   4  -1 -20   10.70    4.00
  -4   1  20    3.40    2.70
  -4   1  20   12.90    3.90
  -4   1  20    7.20    3.50
   3  -1 -20    7.80    2.90
  -3   1  20    4.90    2.80
  -3   1  20    3.80    2.20
   2  -1 -20   65.19    6.00
  -2   1  20   62.89    5.10
  -2   1  20   64.79    6.00
   1  -1 -20   27.00    4.10
  -1   1  20   26.20    3.60
  -1   1  20   28.20    4.20
   0  -1 -20  104.79    6.90
   0   1  20  113.79    7.20
   0   1  20  100.99    6.40
   0   1  20  105.49    7.00
  -1  -1 -20   27.90    3.90
   1   1  20   31.50    4.20
   1   1  20   32.60    4.30
   1   1  20   25.30    3.70
  -2  -1 -20   31.50    4.60
   2   1  20   31.60    4.30
   2   1  20   32.20    4.70
   2   1  20   29.80    4.20
  -3  -1 -20    4.80    2.60
   3   1  20   14.00    3.40
   3   1  20    2.90    2.50
  -4  -1 -20   60.49    6.20
   4   1  20   57.19    6.50
  -5  -1 -20   33.90    6.10
   5   1  20   49.10    6.70
   4  -2 -20   14.40    4.40
  -4   2  20   12.80    4.50
   3  -2 -20  283.57   15.20
  -3   2  20  291.87   15.40
  -3   2  20  307.97   13.40
   2  -2 -20    0.90    1.90
  -2   2  20    3.10    1.90
  -2   2  20    3.00    2.30
   1  -2 -20   13.60    3.30
  -1   2  20   21.30    3.60
  -1   2  20   19.40    2.90
   0  -2 -20  754.22   30.60
   0   2  20  762.92   30.70
   0   2  20  825.82   30.50
   0   2  20  712.33   29.40
  -1  -2 -20    7.30    2.50
   1   2  20    7.80    2.40
   1   2  20    6.60    2.20
   1   2  20    4.40    2.30
  -2  -2 -20    3.50    2.30
   2   2  20    5.10    2.50
   2   2  20    9.00    2.70
   2   2  20    8.70    2.50
  -3  -2 -20   65.59    6.10
   3   2  20   63.99    5.80
  -4  -2 -20    7.50    3.10
   4   2  20    5.70    2.90
  -5  -2 -20    3.50    2.60
   4  -3 -20    6.70    3.70
  -4   3  20    5.00    3.80
   3  -3 -20    1.50    2.70
  -3   3  20   -3.00    2.90
   2  -3 -20    5.30    2.90
  -2   3  20    0.60    2.50
   1  -3 -20   14.90    3.40
  -1   3  20    6.60    1.90
  -1   3  20   13.50    3.70
  -1   3  20   12.90    3.40
   0  -3 -20  226.58   11.70
   0   3  20  219.88   10.20
   0   3  20  218.98   11.10
   0   3  20  217.88   12.00
  -1  -3 -20  289.87   14.20
   1   3  20  307.17   13.60
   1   3  20  312.17   15.00
   1   3  20  282.87   13.70
  -2  -3 -20   26.90    4.50
   2   3  20   28.10    4.10
   2   3  20   21.90    4.40
  -3  -3 -20  111.49    7.80
  -4  -3 -20  212.48   12.40
   3  -4 -20   29.50    5.60
   2  -4 -20   13.40    3.80
   1  -4 -20   17.90    4.00
  -1   4  20   17.20    4.40
   0  -4 -20   19.30    4.00
   0   4  20   14.80    4.10
  -1  -4 -20   37.00    5.50
   1   4  20   26.00    4.50
  -2  -4 -20  114.79    8.00
   2   4  20  115.59    8.70
  -3  -4 -20    0.60    1.90
  -4  -4 -20   20.20    4.60
   2  -5 -20    3.30    3.10
  -2   5  20    5.90    4.30
   1  -5 -20   93.39    7.90
  -1   5  20   99.49    8.60
   0  -5 -20   13.10    3.40
   0   5  20   20.90    4.90
  -1  -5 -20   33.20    5.00
   1   5  20   29.70    5.10
  -2  -5 -20   12.70    3.50
   2   5  20   15.70    4.50
  -3  -5 -20    0.50    2.60
   0  -6 -20   -2.30    2.00
   0   6  20    2.10    3.40
  -1  -6 -20    5.10    2.80
   1   6  20   -3.20    3.00
  -2  -5  21    8.40    2.80
  -2  -5  21   11.80    4.10
  -1  -5  21   28.90    4.00
  -1  -5  21   24.30    5.70
   0  -5  21   18.70    3.80
   0  -5  21   22.10    5.30
   1  -5  21    9.00    4.00
   1  -5  21    6.30    2.70
   2  -5  21   35.50    5.20
   2  -5  21   28.30    5.50
  -3  -4  21   10.00    3.40
  -3  -4  21   15.70    5.00
  -2  -4  21  100.99    7.30
  -2  -4  21  117.69    9.10
  -1  -4  21  168.78   11.30
  -1  -4  21  185.18    9.80
   0  -4  21   -0.20    1.90
   0  -4  21    0.70    2.70
   1  -4  21   15.90    3.50
   1  -4  21   14.60    4.20
   2  -4  21    5.20    2.70
   2  -4  21    7.50    3.80
   3  -4  21    9.50    3.80
   3  -4  21   -2.00    2.50
  -4  -3  21   -2.00    3.40
  -4  -3  21    3.40    2.80
  -3  -3  21    5.00    3.50
  -3  -3  21    5.10    2.70
  -2  -3  21    4.70    2.50
  -2  -3  21   13.90    3.90
  -1  -3  21   25.40    4.80
  -1  -3  21   29.70    2.90
  -1  -3  21   21.30    3.50
   0  -3  21   16.30    3.20
   0  -3  21   22.60    2.20
   0  -3  21   26.80    4.70
   1  -3  21  179.98    9.90
   1  -3  21  170.98   10.60
   2  -3  21   63.59    7.30
   2  -3  21   58.79    5.80
   3  -3  21   86.09    7.80
   3  -3  21   75.59    7.10
   4  -3  21    3.40    3.30
   4  -3  21   -0.30    3.20
  -4  -2  21    8.00    3.70
  -4  -2  21    4.00    3.40
  -3  -2  21   20.20    4.40
  -3  -2  21   12.30    3.50
   2   2 -21    5.10    2.10
  -2  -2  21    1.90    2.10
  -2  -2  21    3.80    2.70
   1   2 -21   78.09    5.60
  -1  -2  21   92.09    5.60
  -1  -2  21   82.49    6.30
  -1  -2  21   91.99    7.10
   0   2 -21    4.20    1.80
   0  -2  21    4.00    2.30
   0  -2  21    2.60    1.40
   0  -2  21    2.30    1.80
  -1   2 -21  201.68    9.90
   1  -2  21  187.18   10.70
   1  -2  21  185.98   10.20
   1  -2  21  184.78    8.80
  -2   2 -21   90.29    6.50
   2  -2  21   86.29    6.60
   2  -2  21   77.49    6.90
  -3   2 -21   88.29    6.80
   3  -2  21   76.79    6.90
   3  -2  21   69.79    7.10
  -4   2 -21    5.10    3.30
   4  -2  21    5.30    3.10
   4  -2  21   11.10    4.30
  -4  -1  21   42.70    6.10
  -4  -1  21   48.10    7.00
   3   1 -21   27.30    4.10
  -3  -1  21   27.20    4.90
  -3  -1  21   20.20    4.20
   2   1 -21  813.22   31.60
  -2  -1  21  789.42   32.10
  -2  -1  21  809.02   32.50
   1   1 -21  163.38    8.70
  -1  -1  21  148.49    8.90
  -1  -1  21  145.69    8.90
   0   1 -21   65.99    5.20
   0  -1  21   67.39    5.60
   0  -1  21   65.59    5.40
   0  -1  21   59.79    4.70
  -1   1 -21  114.39    7.00
   1  -1  21   97.19    7.10
   1  -1  21  112.39    7.20
   1  -1  21  107.09    6.40
  -2   1 -21   19.80    3.80
   2  -1  21   19.80    3.80
   2  -1  21   22.70    4.00
  -3   1 -21   29.20    4.70
   3  -1  21   25.40    4.70
   3  -1  21   31.60    4.70
  -4   1 -21  242.68   13.10
   4  -1  21  221.68   13.40
   4  -1  21  200.98   12.60
  -5   1 -21   60.39    7.80
   5  -1  21   53.49    8.10
   4   0 -21   11.60    4.00
  -4   0  21   19.60    4.20
  -4   0  21   21.60    4.40
  -4   0  21   16.80    3.90
   3   0 -21   37.60    5.20
  -3   0  21   47.00    5.40
  -3   0  21   37.30    5.60
   2   0 -21   36.80    5.00
  -2   0  21   34.70    4.80
  -2   0  21   32.50    4.40
   1   0 -21    4.40    2.10
  -1   0  21    0.90    1.90
  -1   0  21   -0.80    2.00
   0   0 -21   15.50    3.10
   0   0  21   13.50    2.90
   0   0  21   13.80    2.90
   0   0  21   16.70    3.10
  -1   0 -21   45.90    4.70
   1   0  21   53.99    5.00
   1   0  21   53.69    4.60
   1   0  21   46.30    4.70
  -2   0 -21    4.70    2.00
   2   0  21    8.70    2.80
   2   0  21    3.50    2.10
   2   0  21    5.70    2.30
  -3   0 -21   23.10    4.20
   3   0  21   31.60    4.80
   3   0  21   35.70    5.40
  -4   0 -21    3.30    2.60
   4   0  21    2.30    3.00
   4   0  21    4.80    3.00
  -5   0 -21   13.80    4.40
   5   0  21    6.20    3.90
   4  -1 -21    3.60    3.20
  -4   1  21    4.80    2.90
  -4   1  21    6.00    3.60
  -4   1  21    4.40    3.20
   3  -1 -21   49.70    6.20
  -3   1  21   41.00    6.20
  -3   1  21   39.30    4.80
   2  -1 -21   12.60    3.20
  -2   1  21   10.10    3.20
  -2   1  21    8.60    2.70
   1  -1 -21  112.09    7.70
  -1   1  21  117.59    7.10
  -1   1  21  125.69    7.90
   0  -1 -21  601.24   25.60
   0   1  21  637.84   25.10
   0   1  21  629.34   25.50
   0   1  21  626.24   25.70
  -1  -1 -21   70.39    5.80
   1   1  21   79.59    5.90
   1   1  21   67.89    5.60
   1   1  21   69.09    5.70
  -2  -1 -21  187.48   10.30
   2   1  21  194.78   10.50
   2   1  21  182.38   10.40
   2   1  21  195.88   10.70
  -3  -1 -21  643.64   26.30
   3   1  21  589.44   26.30
   3   1  21  619.44   26.20
  -4  -1 -21    8.80    3.40
   4   1  21    8.10    3.60
  -5  -1 -21    6.90    3.70
   5   1  21   24.20    7.40
   4  -2 -21    2.70    3.00
  -4   2  21   -2.80    3.40
   3  -2 -21   36.20    5.60
  -3   2  21   47.00    6.20
  -3   2  21   54.49    5.00
   2  -2 -21    6.30    2.80
  -2   2  21    5.10    2.10
  -2   2  21    5.80    2.70
   1  -2 -21   25.60    4.30
  -1   2  21   26.60    4.10
  -1   2  21   29.90    3.70
  -1   2  21   25.50    4.60
   0  -2 -21  187.58   10.70
   0   2  21  185.48    9.90
   0   2  21  209.08   11.00
   0   2  21  217.28   10.80
  -1  -2 -21   63.09    5.40
   1   2  21   60.59    5.30
   1   2  21   60.19    5.20
   1   2  21   61.29    5.60
  -2  -2 -21  128.09    8.30
   2   2  21  130.09    8.10
   2   2  21  127.79    8.30
   2   2  21  134.79    8.80
  -3  -2 -21    9.50    3.00
   3   2  21   14.80    3.20
  -4  -2 -21    8.40    3.50
   4   2  21    7.20    3.50
  -5  -2 -21   19.90    4.70
   3  -3 -21   14.40    4.30
  -3   3  21    7.40    3.80
  -3   3  21   11.20    3.80
   2  -3 -21    1.30    2.50
  -2   3  21    1.60    2.60
   1  -3 -21  274.87   14.30
  -1   3  21  276.27   14.60
  -1   3  21  275.07   12.00
  -1   3  21  297.47   14.10
   0  -3 -21  180.08   10.10
   0   3  21  171.38    8.60
   0   3  21  165.38    9.50
   0   3  21  168.38   10.30
  -1  -3 -21   57.19    5.50
   1   3  21   74.29    6.50
   1   3  21   63.39    5.20
   1   3  21   67.69    5.70
  -2  -3 -21   11.10    3.10
   2   3  21   10.30    3.30
   2   3  21   11.20    2.80
  -3  -3 -21   14.80    3.70
  -4  -3 -21   23.10    4.60
   3  -4 -21   12.60    4.30
   2  -4 -21    5.50    3.00
   1  -4 -21    1.50    2.00
  -1   4  21    5.70    3.10
   0  -4 -21   16.00    3.90
   0   4  21   19.30    4.40
  -1  -4 -21   42.60    5.80
   1   4  21   28.70    5.10
  -2  -4 -21   78.29    6.60
   2   4  21   77.49    7.50
  -3  -4 -21    1.50    2.10
  -4  -4 -21   28.10    4.90
   2  -5 -21    2.70    3.20
  -2   5  21    1.20    3.80
   1  -5 -21  102.59    8.50
  -1   5  21  125.89    9.70
   0  -5 -21    1.80    2.40
   0   5  21   -3.50    2.50
  -1  -5 -21   14.30    3.80
   1   5  21   13.00    4.00
  -2  -5 -21    2.70    2.40
   2   5  21   -0.40    3.30
  -3  -5 -21   14.90    3.70
  -2  -5  22    3.30    3.70
  -2  -5  22   -1.00    2.40
  -1  -5  22    1.90    2.40
  -1  -5  22    1.10    3.30
   0  -5  22   17.80    3.60
   0  -5  22    8.00    4.10
   1  -5  22  198.78   11.20
   1  -5  22  176.48   12.30
   2  -5  22  224.08   12.90
   2  -5  22  223.88   14.00
  -3  -4  22   17.70    4.00
  -3  -4  22   14.20    5.00
  -2  -4  22   46.40    6.70
  -2  -4  22   53.49    5.50
  -1  -4  22    2.90    2.30
  -1  -4  22    0.60    2.80
   0  -4  22   11.40    3.70
   0  -4  22    9.00    2.80
   1  -4  22   19.10    3.70
   1  -4  22   18.60    4.40
   2  -4  22   19.40    4.20
   2  -4  22   19.20    4.80
   3  -4  22    6.60    3.60
   3  -4  22   -0.20    3.30
  -4  -3  22   65.99    7.90
  -4  -3  22   94.29    8.90
  -3  -3  22   27.60    4.80
  -3  -3  22   28.10    5.50
  -2  -3  22  104.99    8.30
  -2  -3  22  105.59    7.50
  -1  -3  22   35.70    3.30
  -1  -3  22   40.90    6.10
  -1  -3  22   37.90    4.70
   0  -3  22   84.79    7.10
   0  -3  22   71.09    4.10
   0  -3  22   59.89    5.50
   1  -3  22   15.00    3.30
   1  -3  22   20.60    4.40
   2  -3  22   17.90    3.80
   2  -3  22    7.90    3.40
   3  -3  22    7.40    3.50
   3  -3  22   10.00    3.80
   4  -3  22  163.88   11.40
   4  -3  22  174.98   12.20
  -4  -2  22    4.80    3.20
  -4  -2  22    9.60    3.90
  -3  -2  22    2.50    2.90
  -3  -2  22   -0.40    2.40
  -2  -2  22   25.80    4.50
  -2  -2  22   30.50    4.70
   1   2 -22   61.99    5.10
  -1  -2  22   60.89    5.60
  -1  -2  22   66.79    4.90
  -1  -2  22   67.59    6.20
   0   2 -22   28.60    3.90
   0  -2  22   25.60    3.90
   0  -2  22   19.70    4.00
   0  -2  22   17.10    2.80
  -1   2 -22  276.07   13.10
   1  -2  22  294.07   13.90
   1  -2  22  264.77   13.90
   1  -2  22  280.77   12.10
  -2   2 -22   40.50    5.30
   2  -2  22   36.00    4.70
   2  -2  22   38.30    5.30
  -3   2 -22    5.40    2.70
   3  -2  22    3.80    2.70
   3  -2  22   10.60    4.00
  -4   2 -22   61.89    7.70
   4  -2  22   58.19    6.90
   4  -2  22   67.39    8.30
  -4  -1  22    1.30    3.00
  -4  -1  22    2.90    3.10
   3   1 -22   64.09    5.80
  -3  -1  22   52.59    6.20
  -3  -1  22   60.89    7.00
   2   1 -22  146.39    8.60
  -2  -1  22  135.79    9.00
  -2  -1  22  151.58    9.20
   1   1 -22   -1.10    1.60
  -1  -1  22   -0.20    1.80
  -1  -1  22    1.50    2.00
   0   1 -22    9.70    2.60
   0  -1  22   10.90    2.60
   0  -1  22   10.00    2.80
   0  -1  22   11.60    2.90
  -1   1 -22   20.10    3.40
   1  -1  22   23.50    4.10
   1  -1  22   24.20    3.40
   1  -1  22   16.80    3.30
  -2   1 -22    0.90    2.10
   2  -1  22    1.30    2.10
   2  -1  22    0.70    2.10
  -3   1 -22   61.29    6.00
   3  -1  22   60.09    6.20
   3  -1  22   72.99    6.90
  -4   1 -22    3.00    2.80
   4  -1  22    8.00    3.70
   4  -1  22    2.90    3.00
   4   0 -22   -1.60    2.60
  -4   0  22    2.50    3.20
  -4   0  22    0.20    2.90
   3   0 -22   32.80    4.90
  -3   0  22   36.70    5.70
  -3   0  22   36.60    5.10
   2   0 -22   12.10    3.30
  -2   0  22   11.50    3.50
  -2   0  22   20.90    3.90
   1   0 -22    1.20    1.80
  -1   0  22    1.50    2.10
  -1   0  22    0.40    1.80
   0   0 -22  228.98   12.10
   0   0  22  249.68   12.30
   0   0  22  253.17   12.50
   0   0  22  263.27   12.20
  -1   0 -22   45.70    4.80
   1   0  22   54.79    4.80
   1   0  22   50.89    5.00
   1   0  22   52.29    5.00
  -2   0 -22  124.89    8.20
   2   0  22  123.69    7.80
   2   0  22  131.99    8.50
   2   0  22  127.09    8.30
  -3   0 -22   86.49    7.10
   3   0  22   89.89    7.50
   3   0  22   95.29    7.50
  -4   0 -22    2.60    2.60
   4   0  22    2.80    2.90
   4   0  22    2.30    3.30
  -5   0 -22   75.79    8.70
   5   0  22   46.80    7.30
   4  -1 -22    0.70    2.80
  -4   1  22    6.10    3.50
  -4   1  22    5.50    2.80
  -4   1  22   -3.20    2.70
   3  -1 -22   18.30    3.90
  -3   1  22    6.00    2.90
  -3   1  22   10.80    3.70
   2  -1 -22   15.40    3.50
  -2   1  22   14.70    3.60
  -2   1  22   14.70    3.30
   1  -1 -22    3.50    2.30
  -1   1  22    0.40    2.20
  -1   1  22    3.10    2.00
  -1   1  22    2.50    2.30
   0  -1 -22    3.70    1.90
   0   1  22    9.80    2.50
   0   1  22    7.00    2.50
   0   1  22    2.60    1.90
  -1  -1 -22   34.30    4.40
   1   1  22   30.30    4.10
   1   1  22   31.80    4.50
   1   1  22   31.50    4.60
  -2  -1 -22   -0.60    1.70
   2   1  22    2.20    2.40
   2   1  22    0.50    1.90
   2   1  22    3.00    2.00
  -3  -1 -22   33.00    4.80
   3   1  22   24.40    4.30
   3   1  22   20.50    4.20
  -4  -1 -22    3.50    2.70
   4   1  22    2.00    2.60
  -5  -1 -22   -0.60    2.80
   4  -2 -22   41.10    6.40
  -4   2  22   38.40    6.70
   3  -2 -22  207.68   12.60
  -3   2  22  206.38   12.40
   2  -2 -22  147.29   10.10
  -2   2  22  175.08    8.70
  -2   2  22  163.28   10.20
   1  -2 -22    6.30    2.50
  -1   2  22    4.40    2.10
  -1   2  22    6.60    2.60
  -1   2  22    7.70    3.00
   0  -2 -22    1.50    1.80
   0   2  22    7.10    2.60
   0   2  22    2.00    1.80
   0   2  22    5.80    2.30
  -1  -2 -22  522.65   22.90
   1   2  22  518.45   22.60
   1   2  22  579.54   23.20
   1   2  22  544.45   23.40
  -2  -2 -22  198.08   11.20
   2   2  22  208.08   11.10
   2   2  22  217.18   11.40
   2   2  22  192.58   11.30
  -3  -2 -22  208.48   11.70
   3   2  22  207.48   11.40
   3   2  22  201.48   12.00
  -4  -2 -22   -1.20    2.40
   3  -3 -22   13.80    4.40
  -3   3  22   18.20    4.80
  -3   3  22    9.70    3.90
   2  -3 -22    7.70    3.30
  -2   3  22    7.30    3.20
   1  -3 -22    3.40    2.60
  -1   3  22    1.60    2.60
  -1   3  22    6.40    2.70
  -1   3  22    4.70    1.90
   0  -3 -22  101.89    7.50
   0   3  22  107.69    8.20
   0   3  22  108.69    6.40
   0   3  22  105.69    7.30
  -1  -3 -22    0.30    1.60
   1   3  22   -1.40    1.80
   1   3  22    5.90    2.70
   1   3  22   -1.60    1.60
  -2  -3 -22    1.20    1.80
   2   3  22   -0.20    2.00
   2   3  22   -2.00    2.20
  -3  -3 -22   57.39    5.80
  -4  -3 -22   41.50    6.40
   3  -4 -22   -1.70    2.70
   2  -4 -22    3.10    3.40
  -2   4  22    5.30    3.40
   1  -4 -22  129.09    9.30
  -1   4  22  144.09   10.10
   0  -4 -22    0.80    2.20
   0   4  22    2.20    2.90
  -1  -4 -22    2.00    2.40
   1   4  22    3.10    2.60
  -2  -4 -22  343.97   17.20
   2   4  22  382.56   18.50
  -3  -4 -22   12.30    4.00
  -4  -4 -22   56.69    7.50
   1  -5 -22   32.60    5.30
  -1   5  22   52.29    7.50
   0  -5 -22   50.39    6.50
   0   5  22   52.29    7.40
  -1  -5 -22    0.50    2.30
   1   5  22    8.60    3.80
  -2  -5 -22   24.90    4.50
   2   5  22   23.20    5.30
  -3  -5 -22    8.60    3.60
  -2  -5  23    2.30    2.50
  -2  -5  23    4.70    3.60
  -1  -5  23   16.00    3.70
  -1  -5  23   25.70    5.90
   0  -5  23   38.40    5.10
   0  -5  23   24.40    5.60
   1  -5  23   12.80    3.80
   1  -5  23   11.90    4.50
  -3  -4  23   15.20    5.00
  -3  -4  23   10.10    3.40
  -2  -4  23   95.19    8.90
  -2  -4  23   97.09    7.40
  -1  -4  23  143.09   10.60
  -1  -4  23  146.29    9.00
   0  -4  23   21.80    3.90
   0  -4  23   17.00    4.50
   1  -4  23  142.59    9.00
   1  -4  23  121.29    9.60
   2  -4  23   10.70    4.30
   2  -4  23    5.20    3.10
   3  -4  23   24.80    5.00
   3  -4  23   25.00    5.70
  -3  -3  23   -0.10    2.80
  -3  -3  23   -0.90    3.00
  -2  -3  23   11.00    3.40
  -2  -3  23   17.60    4.50
  -1  -3  23    4.50    1.70
  -1  -3  23    3.00    2.30
  -1  -3  23   -0.30    2.70
   0  -3  23    9.90    3.50
   0  -3  23    6.10    2.30
   1  -3  23    7.80    2.80
   1  -3  23    5.60    3.10
   2  -3  23    1.10    2.80
   2  -3  23    2.10    2.30
   3  -3  23   64.49    8.20
   3  -3  23   70.99    8.30
   4  -3  23   37.80    6.50
  -4  -2  23   11.00    4.30
  -4  -2  23   -1.00    3.10
  -3  -2  23    5.20    3.00
  -3  -2  23    1.80    3.00
  -2  -2  23   30.10    4.90
  -2  -2  23   30.00    4.80
   1   2 -23   36.60    4.30
  -1  -2  23   37.10    5.10
  -1  -2  23   34.30    5.10
  -1  -2  23   31.90    4.10
   0   2 -23  144.69    8.30
   0  -2  23  157.78    9.60
   0  -2  23  145.09    8.90
   0  -2  23  147.49    7.70
  -1   2 -23   75.09    6.00
   1  -2  23   85.29    6.60
   1  -2  23   89.19    7.10
   1  -2  23   78.79    5.20
  -2   2 -23    0.00    1.80
   2  -2  23   -0.50    2.10
   2  -2  23   -1.30    1.70
  -3   2 -23    8.30    3.00
   3  -2  23    9.30    3.90
   3  -2  23    5.90    3.00
  -4   2 -23   19.50    6.80
   4  -2  23    5.50    3.50
   4  -2  23   12.30    4.60
  -4  -1  23    6.90    3.70
  -4  -1  23   21.70    4.90
  -3  -1  23   82.09    7.30
  -3  -1  23   92.29    7.80
   2   1 -23   30.70    4.20
  -2  -1  23   25.70    4.50
  -2  -1  23   21.80    4.10
   1   1 -23   33.20    4.60
  -1  -1  23   36.90    4.60
  -1  -1  23   34.80    4.80
  -1  -1  23   28.80    4.70
   0   1 -23    1.70    1.80
   0  -1  23    2.20    2.20
   0  -1  23   -1.00    1.80
   0  -1  23    1.90    1.90
  -1   1 -23    4.70    2.20
   1  -1  23    0.60    1.90
   1  -1  23    5.40    2.60
   1  -1  23    4.80    2.10
  -2   1 -23    2.90    2.40
   2  -1  23    3.00    2.40
   2  -1  23   10.90    3.00
  -3   1 -23  177.78   10.90
   3  -1  23  195.88   11.40
   3  -1  23  180.08   11.60
  -4   1 -23   35.50    5.90
   4  -1  23   31.20    5.30
   4  -1  23   37.00    6.10
  -4   0  23    9.00    4.70
  -4   0  23    5.50    3.20
   3   0 -23  111.99    8.40
  -3   0  23  113.29    8.10
  -3   0  23  124.59    9.20
   2   0 -23   13.20    3.40
  -2   0  23    9.20    3.10
  -2   0  23   13.20    3.50
   1   0 -23   54.99    5.40
  -1   0  23   55.29    5.60
  -1   0  23   47.30    5.40
  -1   0  23   53.59    5.30
   0   0 -23  167.68    9.50
   0   0  23  167.28    9.30
   0   0  23  165.78    9.40
   0   0  23  161.48    9.50
  -1   0 -23   11.10    3.00
   1   0  23    6.30    2.60
   1   0  23    6.20    2.50
   1   0  23    7.80    2.60
  -2   0 -23    8.50    3.00
   2   0  23    6.70    2.60
   2   0  23    6.70    2.70
   2   0  23    6.50    2.70
  -3   0 -23   65.69    6.40
   3   0  23   72.99    7.00
   3   0  23   74.39    6.80
  -4   0 -23   -2.40    2.40
   4   0  23    1.70    3.20
   4   0  23    0.80    2.70
   4  -1 -23   23.30    5.00
  -4   1  23   20.60    5.00
  -4   1  23   16.30    5.30
  -4   1  23   19.60    4.50
   3  -1 -23    9.40    3.50
  -3   1  23    8.10    3.10
  -3   1  23    4.50    3.40
   2  -1 -23   13.10    3.40
  -2   1  23    6.00    3.10
  -2   1  23   10.20    2.90
   1  -1 -23   36.80    5.20
  -1   1  23   35.70    4.90
  -1   1  23   36.20    4.50
  -1   1  23   39.50    5.20
   0  -1 -23  373.16   17.00
   0   1  23  355.96   16.80
   0   1  23  368.46   16.90
   0   1  23  365.36   16.40
  -1  -1 -23   52.59    5.10
   1   1  23   53.19    5.30
   1   1  23   58.79    5.40
   1   1  23   51.99    5.20
  -2  -1 -23    9.20    2.80
   2   1  23   12.80    3.50
   2   1  23   10.90    3.40
   2   1  23   12.10    3.30
  -3  -1 -23   87.29    7.30
   3   1  23  100.39    7.70
   3   1  23   95.19    7.80
  -4  -1 -23  120.59    9.20
   4   1  23  112.99    9.00
   4  -2 -23   23.40    5.10
  -4   2  23   23.50    6.00
   3  -2 -23    2.80    3.00
  -3   2  23    9.20    3.40
   2  -2 -23   44.00    6.10
  -2   2  23   45.00    6.00
  -2   2  23   42.20    4.40
   1  -2 -23    5.00    2.50
  -1   2  23    0.30    1.70
  -1   2  23    1.80    2.50
  -1   2  23   -2.10    2.20
   0  -2 -23   32.00    5.20
   0   2  23   37.50    5.20
   0   2  23   39.60    5.50
   0   2  23   31.90    4.30
  -1  -2 -23   73.09    6.20
   1   2  23   80.59    6.40
   1   2  23   75.59    6.10
   1   2  23   70.29    6.30
  -2  -2 -23   11.80    3.10
   2   2  23    7.90    3.20
   2   2  23    9.90    3.20
   2   2  23   14.80    3.50
  -3  -2 -23   54.79    6.30
   3   2  23   69.69    6.90
   3   2  23   61.49    6.00
  -4  -2 -23   -4.90    2.30
   3  -3 -23   36.40    6.00
  -3   3  23   22.60    5.00
  -3   3  23   28.90    5.30
   2  -3 -23    3.80    3.10
  -2   3  23    0.70    2.70
   1  -3 -23  211.48   12.40
  -1   3  23  210.38   10.20
  -1   3  23  221.88   12.90
  -1   3  23  229.58   12.20
   0  -3 -23  123.49    8.30
   0   3  23  118.69    8.70
   0   3  23  110.19    6.90
   0   3  23  123.39    8.00
  -1  -3 -23  112.49    8.00
   1   3  23  105.59    8.20
   1   3  23  109.49    7.70
   1   3  23  116.89    7.40
  -2  -3 -23   71.99    6.40
   2   3  23   69.19    6.20
   2   3  23   70.19    7.10
  -3  -3 -23   72.39    6.70
  -4  -3 -23   19.70    5.00
   2  -4 -23   -2.70    2.50
  -2   4  23    0.30    3.00
   1  -4 -23   80.69    7.40
  -1   4  23   75.49    7.80
   0  -4 -23   13.00    3.60
   0   4  23   14.70    4.40
  -1  -4 -23    3.00    2.40
   1   4  23    8.00    3.40
  -2  -4 -23  136.19    9.20
   2   4  23  120.59    9.60
  -3  -4 -23  122.69    9.20
   1  -5 -23   -2.90    2.10
  -1   5  23    6.10    3.70
   0  -5 -23   -2.50    2.20
   0   5  23   -3.20    3.00
  -1  -5 -23  164.08   10.50
   1   5  23  166.68   11.40
  -2  -5 -23    8.70    3.60
   2   5  23    6.40    4.00
  -1  -5  24    2.20    2.50
  -1  -5  24    3.40    3.90
   0  -5  24    7.30    3.10
   0  -5  24    3.60    3.60
   1  -5  24  169.28   10.80
   1  -5  24  176.98   12.40
  -3  -4  24    5.70    4.40
  -3  -4  24    2.60    2.80
  -2  -4  24    4.30    2.90
  -2  -4  24   16.60    4.80
  -1  -4  24   32.70    5.80
  -1  -4  24   25.50    4.30
   0  -4  24    1.00    2.00
   0  -4  24    2.90    3.10
   1  -4  24    5.40    3.50
   1  -4  24    0.60    2.70
   2  -4  24    0.30    2.50
   2  -4  24    4.90    3.90
   3  -4  24    4.40    3.30
   3  -4  24    7.80    4.30
  -3  -3  24  112.09    8.90
  -3  -3  24  148.29   10.60
  -2  -3  24  228.38   13.40
  -2  -3  24  221.58   12.30
  -1  -3  24    0.80    2.30
  -1  -3  24   -1.40    1.70
  -1  -3  24    0.40    2.60
   0  -3  24    3.00    2.50
   0  -3  24    2.50    2.30
   1  -3  24    1.30    2.10
   1  -3  24    1.00    2.60
   2  -3  24    5.20    3.60
   2  -3  24    1.10    2.20
   3  -3  24  157.28   10.80
   3  -3  24  157.38   11.30
  -4  -2  24   -1.20    3.00
  -4  -2  24    1.20    3.40
  -3  -2  24    6.00    3.50
  -3  -2  24    8.10    3.90
  -2  -2  24    7.60    3.40
  -2  -2  24    7.50    2.90
   1   2 -24   81.49    6.00
  -1  -2  24   78.39    7.10
  -1  -2  24   75.89    6.50
  -1  -2  24   70.39    5.40
   0   2 -24   79.59    5.90
   0  -2  24   80.49    6.50
   0  -2  24   74.99    5.20
   0  -2  24   76.59    6.90
  -1   2 -24    4.80    2.40
   1  -2  24   16.50    3.80
   1  -2  24   16.60    3.90
   1  -2  24   14.60    2.70
  -2   2 -24  103.29    7.50
   2  -2  24  112.89    8.20
   2  -2  24  109.29    8.50
  -3   2 -24    8.90    3.20
   3  -2  24   10.10    3.50
   3  -2  24    8.40    3.70
   4  -2  24   -1.70    2.80
   4  -2  24    7.70    3.90
  -4  -1  24    4.70    3.60
  -4  -1  24   10.60    4.40
  -3  -1  24   37.60    5.70
  -3  -1  24   34.80    5.40
   2   1 -24   27.30    4.40
  -2  -1  24   34.20    5.30
  -2  -1  24   29.20    4.80
   1   1 -24    9.40    2.80
  -1  -1  24   -0.10    1.90
  -1  -1  24    7.80    3.00
  -1  -1  24   10.50    2.90
   0   1 -24  156.58    9.00
   0  -1  24  159.98    9.70
   0  -1  24  154.98    8.50
   0  -1  24  142.69    9.10
  -1   1 -24   95.69    6.80
   1  -1  24   93.89    7.00
   1  -1  24   90.09    6.30
   1  -1  24   92.79    7.20
  -2   1 -24  106.89    7.90
   2  -1  24  117.69    8.50
   2  -1  24  120.39    8.40
  -3   1 -24  104.89    8.00
   3  -1  24  115.99    8.70
   3  -1  24  108.19    8.80
  -4   1 -24    8.20    3.80
   4  -1  24    8.50    4.00
   4  -1  24    2.30    3.20
  -4   0  24    7.30    4.10
  -4   0  24    5.00    3.20
   3   0 -24  315.37   15.90
  -3   0  24  302.87   16.30
  -3   0  24  319.37   15.50
   2   0 -24   28.90    4.60
  -2   0  24   29.10    5.10
  -2   0  24   29.30    4.70
   1   0 -24  105.69    7.60
  -1   0  24  109.19    7.90
  -1   0  24  107.79    7.50
  -1   0  24  114.29    7.70
   0   0 -24  282.87   13.40
   0   0  24  254.97   13.20
   0   0  24  272.17   13.00
   0   0  24  243.48   12.90
  -1   0 -24   32.60    4.90
   1   0  24   33.40    5.00
   1   0  24   32.20    4.40
   1   0  24   33.40    5.10
  -2   0 -24    0.60    1.80
   2   0  24    0.50    1.90
   2   0  24    3.20    2.50
   2   0  24    1.10    2.20
  -3   0 -24  141.59    9.70
   3   0  24  152.08   10.10
   3   0  24  156.58   10.40
  -4   0 -24   96.99    8.80
   4   0  24  118.69    9.20
   4   0  24  108.79    9.40
   4  -1 -24   25.70    5.30
  -4   1  24   23.40    5.40
  -4   1  24   18.30    5.50
   3  -1 -24    1.30    2.70
  -3   1  24    0.40    2.40
  -3   1  24    0.70    3.10
   2  -1 -24   23.60    4.30
  -2   1  24   18.90    4.20
  -2   1  24   21.10    3.90
   1  -1 -24  273.17   14.20
  -1   1  24  285.07   13.60
  -1   1  24  268.97   14.10
  -1   1  24  301.77   14.60
   0  -1 -24   24.80    4.20
   0   1  24   13.80    3.00
   0   1  24   22.30    3.80
   0   1  24   20.50    3.70
  -1  -1 -24   66.89    6.10
   1   1  24   71.39    6.20
   1   1  24   80.29    6.60
   1   1  24   76.89    6.40
  -2  -1 -24    1.30    2.40
   2   1  24    0.70    2.30
   2   1  24    2.50    2.30
   2   1  24    5.50    2.80
  -3  -1 -24    7.30    2.90
   3   1  24   10.80    3.70
   3   1  24    5.80    3.00
  -4  -1 -24   12.90    4.30
   4   1  24   29.10    5.80
   3  -2 -24   11.10    4.10
  -3   2  24    5.50    3.30
   2  -2 -24   -2.00    2.40
  -2   2  24    0.10    2.80
  -2   2  24    0.90    2.10
   1  -2 -24   63.49    6.90
  -1   2  24   59.89    6.30
  -1   2  24   62.19    7.30
  -1   2  24   57.89    5.10
   0  -2 -24    1.20    2.00
   0   2  24    4.80    2.40
   0   2  24   -2.90    1.90
   0   2  24    3.30    2.20
  -1  -2 -24   16.50    3.60
   1   2  24   19.70    4.20
   1   2  24   16.60    3.50
   1   2  24   23.00    4.00
  -2  -2 -24  384.16   17.80
   2   2  24  365.16   17.80
   2   2  24  371.86   17.30
   2   2  24  339.47   17.20
  -3  -2 -24   12.70    3.50
   3   2  24   11.40    3.60
   3   2  24   14.60    3.80
  -4  -2 -24   54.59    7.00
   3  -3 -24    1.20    3.20
  -3   3  24    3.90    3.50
  -3   3  24    1.50    3.40
   2  -3 -24    3.00    2.80
  -2   3  24   -0.80    3.00
   1  -3 -24   -1.30    2.20
  -1   3  24    4.70    2.10
  -1   3  24   -0.40    2.50
  -1   3  24    2.10    2.80
   0  -3 -24  115.29    8.20
   0   3  24  114.39    8.80
   0   3  24  113.79    8.00
   0   3  24  109.69    7.00
  -1  -3 -24    7.40    3.30
   1   3  24    0.80    2.60
   1   3  24    4.00    2.70
   1   3  24    3.60    2.60
  -2  -3 -24   13.50    3.20
   2   3  24   16.40    5.00
   2   3  24   19.40    4.50
  -3  -3 -24   21.40    4.30
  -4  -3 -24   10.50    3.70
   2  -4 -24   68.49    7.80
  -2   4  24   58.99    8.10
   1  -4 -24   28.20    5.50
  -1   4  24   26.50    5.40
   0  -4 -24  127.99    9.20
   0   4  24  143.09   10.10
  -1  -4 -24    4.10    2.50
   1   4  24    7.20    3.60
  -2  -4 -24   -2.20    2.00
   2   4  24    3.10    3.20
  -3  -4 -24  105.49    8.70
   1  -5 -24    0.60    2.50
  -1   5  24    5.70    3.80
   0  -5 -24    7.70    3.30
   0   5  24   17.10    5.00
  -1  -5 -24   37.50    5.50
   1   5  24   48.20    7.20
  -2  -5 -24    1.10    2.10
   2   5  24   -0.30    3.30
  -1  -5  25   -2.00    3.70
  -1  -5  25    6.30    3.20
   0  -5  25   51.79    7.90
   0  -5  25   54.99    6.50
   1  -5  25   -1.00    2.70
  -2  -4  25   10.30    3.50
  -2  -4  25    7.90    4.40
  -1  -4  25   -4.80    2.60
  -1  -4  25    2.90    2.60
   0  -4  25  199.98   12.90
   0  -4  25  206.78   11.70
   1  -4  25  359.86   18.50
   1  -4  25  343.07   17.30
   2  -4  25   61.79    8.00
   2  -4  25   54.09    6.90
  -3  -3  25   10.10    4.20
  -3  -3  25    7.00    3.50
  -2  -3  25    0.40    2.70
  -2  -3  25   -1.50    2.50
  -1  -3  25   12.60    4.10
  -1  -3  25   13.20    3.40
   0  -3  25   97.19    8.30
   0  -3  25  108.69    7.80
   1  -3  25   20.20    4.60
   1  -3  25   17.70    3.90
   2  -3  25   -0.50    2.60
   2  -3  25    1.60    3.20
   3  -3  25    1.80    3.00
  -3  -2  25   86.29    8.10
  -3  -2  25   91.49    8.40
  -2  -2  25   15.10    4.20
  -2  -2  25   14.20    3.80
  -1  -2  25   95.29    7.90
  -1  -2  25   92.99    6.20
  -1  -2  25   73.99    6.80
   0   2 -25   91.59    6.60
   0  -2  25   83.39    6.80
   0  -2  25   92.39    7.50
   0  -2  25   86.49    5.70
  -1   2 -25    8.00    2.50
   1  -2  25    4.90    2.90
   1  -2  25    5.90    2.20
   1  -2  25    3.10    2.20
  -2   2 -25   13.30    3.40
   2  -2  25   16.70    4.20
   2  -2  25    8.40    3.00
  -3   2 -25  141.79   10.00
   3  -2  25  157.38   10.70
   3  -2  25  162.18   11.30
   4  -2  25    3.20    3.60
   4  -2  25   -0.60    3.20
  -4  -1  25    7.20    4.30
  -4  -1  25    1.20    3.50
  -3  -1  25   10.40    4.00
  -3  -1  25   19.10    4.50
   2   1 -25   13.40    3.40
  -2  -1  25   13.80    3.90
  -2  -1  25   13.50    3.80
   1   1 -25    0.40    2.00
  -1  -1  25   -4.40    1.70
  -1  -1  25    4.20    2.50
  -1  -1  25    1.50    2.30
   0   1 -25   89.79    6.80
   0  -1  25  105.79    6.70
   0  -1  25   89.69    7.10
   0  -1  25   98.39    7.70
  -1   1 -25   29.10    4.50
   1  -1  25   27.50    4.90
   1  -1  25   23.80    4.10
   1  -1  25   30.10    4.30
  -2   1 -25   11.20    3.60
   2  -1  25   22.80    4.60
   2  -1  25   19.10    4.10
  -3   1 -25   77.79    7.10
   3  -1  25   79.29    7.80
   3  -1  25   74.19    8.90
  -4   1 -25   61.19    7.80
   4  -1  25   86.69    9.80
   4  -1  25   69.99    8.60
  -4   0  25   45.40    7.80
  -4   0  25   27.30    5.30
   3   0 -25  115.59    8.70
  -3   0  25  106.59    8.30
  -3   0  25  108.19    9.20
   2   0 -25   11.50    3.50
  -2   0  25    9.60    3.30
  -2   0  25    9.20    3.70
   1   0 -25   -1.70    1.90
  -1   0  25    3.70    2.50
  -1   0  25    1.60    2.30
  -1   0  25    3.10    2.50
   0   0 -25   24.80    3.90
   0   0  25   19.50    3.80
   0   0  25   27.20    4.20
   0   0  25   25.30    4.10
  -1   0 -25   31.60    4.90
   1   0  25   33.10    4.90
   1   0  25   31.20    4.60
   1   0  25   27.90    4.20
  -2   0 -25  263.37   13.60
   2   0  25  266.07   13.80
   2   0  25  230.78   13.20
   2   0  25  246.58   12.80
  -3   0 -25    3.40    2.40
   3   0  25    0.70    2.80
   3   0  25    3.30    3.00
  -4   0 -25    4.70    3.00
   4   0  25    2.70    3.30
   4   0  25    7.90    3.90
   3  -1 -25   -3.50    2.50
  -3   1  25    0.60    2.70
  -3   1  25   -0.10    3.10
   2  -1 -25   16.20    4.00
  -2   1  25   25.40    4.20
  -2   1  25   18.50    4.30
   1  -1 -25  376.66   17.40
  -1   1  25  342.37   16.20
  -1   1  25  366.46   17.20
  -1   1  25  335.27   17.00
   0  -1 -25   69.09    6.20
   0   1  25   63.19    6.00
   0   1  25   65.19    5.80
   0   1  25   63.89    6.10
  -1  -1 -25    0.00    1.90
   1   1  25    3.60    2.50
   1   1  25    4.80    2.30
   1   1  25    3.40    2.40
  -2  -1 -25    2.70    2.50
   2   1  25    9.30    3.10
   2   1  25    8.70    3.10
   2   1  25    2.30    2.50
  -3  -1 -25    7.70    3.50
   3   1  25    3.50    3.30
   3   1  25    8.30    3.70
  -4  -1 -25   45.30    7.10
   4   1  25   51.99    7.50
   4   1  25   57.59    8.10
   3  -2 -25    1.50    3.30
  -3   2  25    6.50    4.00
   2  -2 -25   58.79    7.00
  -2   2  25   50.69    4.80
  -2   2  25   42.20    6.00
   1  -2 -25   71.39    6.90
  -1   2  25   87.19    7.50
  -1   2  25   79.09    5.90
  -1   2  25   71.09    7.00
   0  -2 -25   23.30    4.40
   0   2  25   20.70    4.60
   0   2  25   22.50    4.70
   0   2  25   21.50    3.90
  -1  -2 -25  126.79    8.90
   1   2  25  140.99    8.90
   1   2  25  149.88    9.30
   1   2  25  133.99    9.20
  -2  -2 -25   77.09    6.80
   2   2  25   72.09    7.00
   2   2  25   67.69    6.40
   2   2  25   68.89    6.50
  -3  -2 -25   16.00    4.40
   3   2  25   16.00    4.20
   3   2  25   16.90    4.30
  -4  -2 -25    2.10    2.70
   3  -3 -25    9.10    4.50
  -3   3  25   10.30    4.40
  -3   3  25    9.90    4.10
   2  -3 -25    7.00    3.80
  -2   3  25   11.20    4.30
  -2   3  25    8.90    4.20
   1  -3 -25   79.19    7.60
  -1   3  25   87.19    6.60
  -1   3  25   82.29    7.80
  -1   3  25   98.49    7.90
   0  -3 -25  230.18   12.80
   0   3  25  243.78   13.40
   0   3  25  218.68   11.30
   0   3  25  233.08   12.50
  -1  -3 -25   22.80    4.50
   1   3  25   19.60    4.20
   1   3  25   31.40    4.60
   1   3  25   23.20    4.80
  -2  -3 -25   27.10    4.50
   2   3  25   26.40    4.70
   2   3  25   26.40    5.10
  -3  -3 -25    2.70    3.10
  -4  -3 -25    7.80    3.10
   2  -4 -25   16.40    4.70
  -2   4  25   13.60    5.10
   1  -4 -25    3.20    2.90
  -1   4  25   -1.50    3.00
   0  -4 -25    2.70    2.70
   0   4  25    4.30    3.30
  -1  -4 -25   12.90    3.30
   1   4  25   16.00    4.30
  -2  -4 -25   12.60    3.30
   2   4  25    5.20    3.80
  -3  -4 -25   34.50    6.00
   0  -5 -25   -1.80    2.20
   0   5  25    1.50    3.80
  -1  -5 -25  176.98   11.40
   1   5  25  175.98   12.30
  -2  -4  26   36.10    7.10
  -2  -4  26   28.60    4.90
  -1  -4  26   46.10    6.10
  -1  -4  26   37.30    6.80
   0  -4  26   19.90    4.90
   0  -4  26   20.60    4.20
   1  -4  26   11.20    3.50
   1  -4  26    6.30    3.80
   2  -4  26   17.50    5.40
   2  -4  26   17.30    4.40
  -3  -3  26   78.29    7.80
  -3  -3  26   83.59    9.40
  -2  -3  26   21.90    5.30
  -2  -3  26   33.30    5.40
  -1  -3  26   29.50    6.00
  -1  -3  26   35.00    5.00
   0  -3  26  114.49    8.20
   0  -3  26  101.99    8.70
   1  -3  26   30.40    5.00
   1  -3  26   21.20    4.80
   2  -3  26   81.69    9.20
   2  -3  26   79.29    7.60
   3  -3  26  330.67   18.50
   3  -3  26  347.77   18.00
  -3  -2  26    6.20    3.60
  -3  -2  26    2.10    3.60
  -2  -2  26   14.40    4.40
  -2  -2  26   12.70    3.70
  -1  -2  26    0.70    2.50
  -1  -2  26    4.70    2.30
  -1  -2  26    3.90    2.50
   0   2 -26    4.10    2.70
   0  -2  26    3.40    2.00
   0  -2  26    8.90    3.10
   0  -2  26    1.70    2.60
  -1   2 -26    2.20    2.10
   1  -2  26    2.20    2.40
   1  -2  26    3.90    2.80
   1  -2  26    0.50    1.80
  -2   2 -26    3.00    2.60
   2  -2  26    1.80    2.50
   2  -2  26    2.80    3.10
   3  -2  26   13.40    4.20
   3  -2  26   10.90    4.30
  -3  -1  26   61.09    7.50
  -3  -1  26   50.69    6.80
   2   1 -26   81.09    6.90
  -2  -1  26   81.69    7.60
  -2  -1  26   85.59    7.50
   1   1 -26  161.98    9.70
  -1  -1  26  144.19    9.10
  -1  -1  26  161.68   10.30
  -1  -1  26  184.58   10.60
   0   1 -26   64.09    6.10
   0  -1  26   66.59    6.40
   0  -1  26   69.09    5.60
   0  -1  26   66.49    6.20
  -1   1 -26   -0.80    1.80
   1  -1  26    3.10    2.40
   1  -1  26    0.50    2.10
   1  -1  26    0.70    2.20
  -2   1 -26    5.80    2.40
   2  -1  26    1.80    2.30
   2  -1  26    3.00    2.80
  -3   1 -26   45.00    6.40
   3  -1  26   59.39    7.60
   3  -1  26   56.29    6.60
  -4   1 -26   47.80    6.70
   4  -1  26   42.10    6.50
   4  -1  26   46.30    7.20
   3   0 -26    5.00    3.10
  -3   0  26    0.70    2.90
  -3   0  26    1.20    3.20
   2   0 -26   16.20    4.10
  -2   0  26   12.80    4.20
  -2   0  26   21.70    4.20
   1   0 -26    1.70    2.40
  -1   0  26   -2.40    2.10
  -1   0  26    2.50    2.40
  -1   0  26    0.10    2.60
   0   0 -26   10.60    3.10
   0   0  26   10.40    3.10
   0   0  26   12.60    3.20
   0   0  26   11.90    3.60
  -1   0 -26   20.70    3.70
   1   0  26   29.00    4.70
   1   0  26   36.80    5.20
   1   0  26   34.50    4.70
  -2   0 -26  186.88   11.10
   2   0  26  170.28   11.10
   2   0  26  175.78   10.40
   2   0  26  198.28   11.30
  -3   0 -26   41.10    5.50
   3   0  26   29.70    4.90
   3   0  26   45.60    6.30
  -4   0 -26   13.30    4.00
   4   0  26   16.00    4.90
   4   0  26    3.10    3.40
   3  -1 -26   26.40    5.30
  -3   1  26   32.90    4.90
  -3   1  26   32.40    5.90
   2  -1 -26   15.10    3.90
  -2   1  26   16.80    4.50
  -2   1  26   17.00    3.60
   1  -1 -26   90.69    7.70
  -1   1  26   92.79    7.00
  -1   1  26  100.89    7.90
  -1   1  26  102.49    8.00
   0  -1 -26   25.10    4.70
   0   1  26   23.20    4.60
   0   1  26   25.00    4.30
   0   1  26   28.20    4.80
  -1  -1 -26   20.30    4.20
   1   1  26   24.20    4.40
   1   1  26   24.10    4.10
   1   1  26   26.10    4.60
  -2  -1 -26  176.18   10.50
   2   1  26  160.98   10.50
   2   1  26  156.78   10.20
   2   1  26  150.18   10.00
  -3  -1 -26    1.70    2.70
   3   1  26    7.40    3.40
   3   1  26    0.60    2.70
  -4  -1 -26   59.29    7.50
   4   1  26   67.19    8.40
   4   1  26   61.39    8.50
   3  -2 -26   44.00    7.10
  -3   2  26   42.70    7.00
   2  -2 -26   55.49    7.30
  -2   2  26   54.69    5.20
  -2   2  26   51.49    6.80
   1  -2 -26  261.07   14.70
  -1   2  26  284.37   15.00
  -1   2  26  267.07   14.60
  -1   2  26  286.77   13.40
   0  -2 -26   12.10    3.40
   0   2  26   11.10    3.40
   0   2  26   12.00    3.60
   0   2  26   11.20    3.20
  -1  -2 -26   28.80    4.60
   1   2  26   35.60    5.40
   1   2  26   48.10    6.20
   1   2  26   41.60    5.50
  -2  -2 -26  193.08   11.40
   2   2  26  182.08   11.00
   2   2  26  178.38   11.20
   2   2  26  182.58   11.50
  -3  -2 -26   88.89    7.80
   3   2  26   71.59    7.10
   3   2  26   84.89    8.00
  -4  -2 -26   92.99    8.60
   2  -3 -26    7.00    3.50
  -2   3  26    9.70    4.00
  -2   3  26    9.70    4.20
   1  -3 -26    8.90    3.70
  -1   3  26    0.00    3.00
  -1   3  26    5.10    3.10
   0  -3 -26   34.90    5.50
   0   3  26   24.20    4.80
   0   3  26   39.00    4.80
   0   3  26   34.00    5.50
  -1  -3 -26   60.49    6.30
   1   3  26   56.49    5.70
   1   3  26   69.99    6.90
   1   3  26   63.19    6.40
  -2  -3 -26    3.60    2.70
   2   3  26    2.30    2.70
   2   3  26    3.70    3.10
  -3  -3 -26   -0.60    2.30
   2  -4 -26  146.09   11.20
  -2   4  26  131.69   11.60
   1  -4 -26   44.10    6.90
  -1   4  26   46.50    7.00
   0  -4 -26   10.20    4.20
   0   4  26    4.00    3.50
  -1  -4 -26    4.50    2.70
   1   4  26    4.00    3.20
  -2  -4 -26   41.20    6.70
   2   4  26   35.30    6.60
  -3  -4 -26   -0.40    2.70
  -1  -5 -26   29.10    5.00
   1   5  26   32.90    6.40
  -2  -4  27   -6.40    2.80
  -2  -4  27    2.50    2.90
  -1  -4  27    8.70    3.30
  -1  -4  27   13.20    4.80
   0  -4  27  199.68   12.80
   0  -4  27  180.68   11.40
   1  -4  27   20.70    5.50
   1  -4  27   15.60    3.90
   2  -4  27    9.50    4.80
   2  -4  27    8.40    3.60
  -2  -3  27   27.40    6.00
  -2  -3  27   25.10    4.70
  -1  -3  27    4.70    3.80
  -1  -3  27    1.70    2.80
   0  -3  27    7.80    3.00
   0  -3  27   10.70    4.10
   1  -3  27    5.20    3.60
   1  -3  27    8.00    3.50
   2  -3  27   14.50    4.50
   2  -3  27   10.30    3.70
   3  -3  27    2.40    3.70
   3  -3  27    4.80    3.50
  -3  -2  27   64.69    8.70
  -3  -2  27   96.29    8.60
  -2  -2  27    1.20    3.30
  -2  -2  27   -0.20    2.50
  -1  -2  27   13.10    3.90
  -1  -2  27    9.20    2.70
  -1  -2  27    5.40    3.00
   0  -2  27    2.20    2.50
   0  -2  27    4.00    3.10
   0  -2  27    1.70    2.00
   1  -2  27   23.30    4.80
   1  -2  27   25.40    3.70
   1  -2  27   14.90    4.30
   2  -2  27  247.68   14.60
   2  -2  27  262.87   14.40
   3  -2  27   76.39    8.80
   3  -2  27   78.99    9.20
  -3  -1  27   18.50    4.90
  -3  -1  27   28.20    5.50
  -2  -1  27   31.30    5.20
  -2  -1  27   25.00    4.80
   1   1 -27   16.10    3.90
  -1  -1  27   17.30    4.00
  -1  -1  27   17.90    3.70
  -1  -1  27   10.20    3.50
   0   1 -27    8.20    3.00
   0  -1  27    6.50    2.70
   0  -1  27    4.60    2.80
   0  -1  27    7.50    3.10
  -1   1 -27   75.89    6.50
   1  -1  27   65.99    6.70
   1  -1  27   59.99    5.70
   1  -1  27   72.29    6.80
  -2   1 -27   35.20    5.30
   2  -1  27   24.50    4.60
   2  -1  27   41.70    6.10
  -3   1 -27   -1.60    2.10
   3  -1  27    0.70    3.20
   3  -1  27    2.50    3.00
  -4   1 -27   52.39    7.10
   4  -1  27   53.49    7.80
   4  -1  27   52.89    8.10
   3   0 -27    2.50    3.20
  -3   0  27    3.90    3.30
  -3   0  27    3.30    3.30
   2   0 -27    2.70    3.00
  -2   0  27    8.90    3.80
  -2   0  27    3.70    3.00
   1   0 -27   29.30    4.90
  -1   0  27   40.10    5.50
  -1   0  27   29.40    5.20
  -1   0  27   30.90    5.00
   0   0 -27   65.99    6.20
   0   0  27   62.19    6.40
   0   0  27   67.69    6.50
   0   0  27   65.89    6.20
  -1   0 -27   73.39    6.50
   1   0  27   62.79    6.40
   1   0  27   60.89    6.40
   1   0  27   62.69    6.00
  -2   0 -27  236.08   13.00
   2   0  27  216.68   13.10
   2   0  27  234.78   13.20
   2   0  27  244.68   12.80
  -3   0 -27   48.20    7.10
   3   0  27   51.39    7.40
   3   0  27   53.59    7.00
  -4   0 -27   -0.30    2.60
   4   0  27   -1.90    3.00
   4   0  27    0.30    3.20
   3  -1 -27   18.40    4.90
  -3   1  27    9.20    4.80
  -3   1  27   16.60    4.10
   2  -1 -27   17.70    4.00
  -2   1  27    5.50    3.60
  -2   1  27   12.10    3.40
   1  -1 -27   55.99    6.70
  -1   1  27   48.40    6.40
  -1   1  27   57.59    7.60
  -1   1  27   46.10    5.70
   0  -1 -27  159.78   10.00
   0   1  27  160.08   10.10
   0   1  27  146.79    9.40
   0   1  27  140.59    9.60
  -1  -1 -27    3.90    2.70
   1   1  27   14.10    3.70
   1   1  27    7.90    3.00
   1   1  27    6.90    2.90
  -2  -1 -27  195.38   11.60
   2   1  27  189.28   11.50
   2   1  27  189.58   11.90
   2   1  27  182.38   11.40
  -3  -1 -27   26.80    5.30
   3   1  27   30.30    5.70
   3   1  27   41.60    6.60
  -4  -1 -27   68.89    8.50
   4   1  27   74.69    8.90
   4   1  27   61.09    8.30
   3  -2 -27   -1.70    2.90
  -3   2  27   -1.00    3.80
   2  -2 -27  123.19    9.80
  -2   2  27  105.29    7.50
  -2   2  27  122.69    9.60
   1  -2 -27    8.30    3.30
  -1   2  27    9.80    4.00
  -1   2  27    9.30    2.80
  -1   2  27    7.10    3.40
   0  -2 -27    0.70    2.30
   0   2  27    3.60    2.80
   0   2  27    2.50    2.70
   0   2  27    0.30    2.20
  -1  -2 -27   74.29    8.50
   1   2  27   57.59    7.00
   1   2  27   55.29    6.50
   1   2  27   57.69    6.70
  -2  -2 -27    2.30    2.50
   2   2  27    5.60    3.30
   2   2  27    5.20    3.10
   2   2  27    2.70    2.60
  -3  -2 -27   24.10    5.40
   3   2  27   30.40    5.80
   3   2  27   13.10    4.00
  -4  -2 -27  239.68   14.60
   2  -3 -27   35.20    6.50
  -2   3  27   38.30    6.60
  -2   3  27   35.20    6.00
   1  -3 -27   28.80    5.40
  -1   3  27   23.70    5.00
  -1   3  27   19.40    4.90
   0  -3 -27   71.19    7.00
   0   3  27   70.29    6.80
   0   3  27   69.29    5.90
   0   3  27   68.49    8.10
  -1  -3 -27  445.86   20.40
   1   3  27  419.66   20.60
   1   3  27  425.06   20.00
   1   3  27  410.66   19.30
  -2  -3 -27    0.20    2.20
   2   3  27   -0.30    2.50
   2   3  27    7.20    3.90
  -3  -3 -27   12.50    4.20
   1  -4 -27    1.60    3.00
  -1   4  27    6.00    4.10
   0  -4 -27   18.70    4.90
   0   4  27   13.90    4.80
  -1  -4 -27    5.40    3.00
   1   4  27   14.80    4.60
  -2  -4 -27    6.10    3.20
   2   4  27    4.70    3.90
  -1  -4  28   52.79    7.10
  -1  -4  28   38.90    7.10
   0  -4  28   21.60    4.50
   0  -4  28   25.60    5.80
   1  -4  28    9.70    4.60
   1  -4  28    4.00    3.50
  -2  -3  28   -0.10    2.60
  -2  -3  28    1.50    3.60
  -1  -3  28  116.59    9.20
  -1  -3  28  130.49   10.50
   0  -3  28  258.47   14.60
   0  -3  28  290.27   15.90
   1  -3  28   94.19    8.90
   1  -3  28   81.89    7.70
   2  -3  28  189.18   12.80
   2  -3  28  200.18   12.70
  -3  -2  28    2.30    3.60
  -3  -2  28    8.40    4.20
  -2  -2  28   47.10    5.80
  -2  -2  28   37.10    6.40
  -2  -2  28   49.50    6.50
  -1  -2  28   69.39    5.60
  -1  -2  28   56.49    6.80
  -1  -2  28   48.10    6.80
   0  -2  28   46.00    4.50
   0  -2  28   47.90    6.70
   0  -2  28   55.09    6.90
   1  -2  28   -0.10    1.90
   1  -2  28   -1.60    2.50
   1  -2  28   -0.20    2.40
   2  -2  28   48.10    6.40
   2  -2  28   42.50    6.60
   3  -2  28   33.70    6.50
   3  -2  28   52.99    6.90
  -3  -1  28    4.80    4.00
  -3  -1  28   11.20    4.00
  -2  -1  28   25.60    5.50
  -2  -1  28   29.80    6.00
   1   1 -28   76.49    6.80
  -1  -1  28   76.09    7.30
  -1  -1  28   88.29    6.80
  -1  -1  28   71.29    7.10
   0   1 -28    6.20    2.70
   0  -1  28    2.10    2.60
   0  -1  28    0.50    2.60
   0  -1  28    1.00    2.30
  -1   1 -28   30.30    4.80
   1  -1  28   32.00    5.40
   1  -1  28   32.70    4.70
   1  -1  28   31.30    5.40
  -2   1 -28   61.59    6.50
   2  -1  28   74.59    8.40
   2  -1  28   78.69    7.60
  -3   1 -28    3.20    3.40
   3  -1  28    3.80    3.00
   3  -1  28    1.00    3.30
  -3   0  28    3.50    3.20
  -3   0  28    0.50    3.20
   2   0 -28    2.20    2.90
  -2   0  28   -0.10    2.90
  -2   0  28   -0.20    2.60
   1   0 -28    9.50    3.40
  -1   0  28    8.10    3.20
  -1   0  28   10.10    3.20
  -1   0  28   10.00    3.60
   0   0 -28   13.00    3.90
   0   0  28    9.20    3.10
   0   0  28   24.90    4.50
   0   0  28   12.30    3.50
  -1   0 -28    0.70    2.20
   1   0  28    4.00    2.70
   1   0  28    3.20    2.80
   1   0  28   -1.40    2.50
  -2   0 -28   31.40    5.40
   2   0  28   23.20    4.50
   2   0  28   25.90    5.20
   2   0  28   34.30    5.60
  -3   0 -28  153.58   11.00
   3   0  28  150.98   11.10
   3   0  28  185.98   11.90
  -4   0 -28    4.00    3.50
   4   0  28    0.00    3.80
   4   0  28    1.40    3.60
   3  -1 -28   -3.10    3.20
  -3   1  28   -0.40    3.00
  -3   1  28    5.90    4.30
   2  -1 -28   33.90    5.70
  -2   1  28   19.90    4.90
  -2   1  28   25.40    4.70
   1  -1 -28   72.09    7.10
  -1   1  28   75.99    7.10
  -1   1  28   70.29    7.20
  -1   1  28   63.59    6.30
   0  -1 -28    3.50    2.70
   0   1  28    4.80    2.70
   0   1  28    5.50    2.80
   0   1  28    3.20    3.10
  -1  -1 -28  193.08   11.40
   1   1  28  192.98   11.30
   1   1  28  171.78   11.20
   1   1  28  178.78   11.10
  -2  -1 -28   26.40    5.20
   2   1  28   38.80    5.70
   2   1  28   31.60    5.30
   2   1  28   27.80    5.00
  -3  -1 -28    6.40    3.20
   3   1  28   11.70    3.80
   3   1  28   14.50    4.30
  -4  -1 -28   47.80    7.50
   4   1  28   41.90    7.00
   4   1  28   31.10    6.30
   2  -2 -28   44.70    6.70
  -2   2  28   65.79    8.10
  -2   2  28   43.90    7.20
   1  -2 -28   13.00    4.20
  -1   2  28   11.20    3.20
  -1   2  28   10.90    3.90
  -1   2  28    5.00    3.90
   0  -2 -28   14.70    4.30
   0   2  28   14.50    4.10
   0   2  28   16.40    4.70
   0   2  28   15.00    3.60
  -1  -2 -28    3.30    2.30
   1   2  28    2.10    2.90
   1   2  28    4.30    2.80
   1   2  28    2.80    3.10
  -2  -2 -28    4.60    2.80
   2   2  28    2.90    2.90
   2   2  28    7.60    3.50
   2   2  28    8.10    3.50
  -3  -2 -28  101.19    9.00
   3   2  28  123.69    9.90
   3   2  28  114.89    9.30
   2  -3 -28    0.70    3.40
  -2   3  28    1.80    3.90
  -2   3  28    1.70    4.10
   1  -3 -28   -0.40    2.80
  -1   3  28    3.20    3.30
  -1   3  28   -1.20    2.80
   0  -3 -28   18.80    4.20
   0   3  28   12.40    3.20
   0   3  28    9.80    3.80
   0   3  28   13.30    4.10
  -1  -3 -28   30.80    5.10
   1   3  28   25.50    4.60
   1   3  28   25.00    5.10
  -2  -3 -28   21.80    4.70
   2   3  28   26.20    5.70
   2   3  28   13.70    4.20
  -3  -3 -28   28.50    6.20
   1  -4 -28  195.08   12.90
  -1   4  28  193.68   13.50
   0  -4 -28   35.20    5.60
   0   4  28   27.60    5.90
  -1  -4 -28   40.30    6.50
   1   4  28   57.69    7.50
  -2  -4 -28    4.40    3.70
   2   4  28    6.30    4.00
   0  -4  29   26.60    5.30
   0  -4  29   44.40    7.40
  -2  -3  29   49.00    7.20
  -2  -3  29   60.29    8.50
  -1  -3  29  139.89   10.90
  -1  -3  29  129.09    9.80
   0  -3  29   17.80    4.40
   0  -3  29   15.90    5.00
   1  -3  29   40.60    6.90
   1  -3  29   34.60    6.50
   2  -3  29    5.00    3.60
   2  -3  29    5.90    3.70
  -2  -2  29   16.90    3.90
  -2  -2  29   12.70    4.50
  -2  -2  29    0.60    3.40
  -1  -2  29   44.50    5.10
  -1  -2  29   36.50    5.90
  -1  -2  29   33.20    5.90
   0  -2  29   31.20    5.10
   0  -2  29   43.40    4.40
   0  -2  29   47.50    6.90
   1  -2  29  109.49    8.70
   1  -2  29  109.19    7.10
   1  -2  29  115.79    9.50
   2  -2  29  317.37   17.30
   2  -2  29  336.57   17.80
   3  -2  29   24.40    5.90
   3  -2  29   33.50    7.20
  -3  -1  29    4.20    3.80
  -3  -1  29    0.50    3.00
  -2  -1  29   -0.20    2.80
  -2  -1  29    6.40    3.50
  -2  -1  29    1.20    3.20
   1   1 -29    7.20    3.20
  -1  -1  29    7.50    3.50
  -1  -1  29    4.20    2.80
  -1  -1  29    7.40    3.50
   0   1 -29    5.50    2.90
   0  -1  29    3.70    2.80
   0  -1  29    1.40    2.20
   0  -1  29   -2.50    2.30
  -1   1 -29    2.40    2.30
   1  -1  29    6.10    3.40
   1  -1  29   10.50    3.70
   1  -1  29    6.50    2.80
  -2   1 -29    2.40    2.60
   2  -1  29    3.10    3.00
   2  -1  29   -1.80    3.20
  -3   1 -29    1.70    3.40
   3  -1  29    7.80    3.90
   3  -1  29    7.90    4.40
  -3   0  29   54.29    7.10
  -3   0  29   48.60    7.40
   2   0 -29   53.29    7.30
  -2   0  29   68.99    7.00
  -2   0  29   70.79    8.70
   1   0 -29   34.20    5.60
  -1   0  29   39.50    6.10
  -1   0  29   44.90    6.00
  -1   0  29   35.20    5.50
   0   0 -29   -1.60    2.00
   0   0  29    2.30    2.80
   0   0  29    3.90    2.60
   0   0  29    3.70    3.10
  -1   0 -29   17.00    3.80
   1   0  29   11.10    3.70
   1   0  29   12.90    4.00
   1   0  29   17.40    4.20
  -2   0 -29   42.90    6.20
   2   0  29   58.09    7.70
   2   0  29   42.30    6.30
   2   0  29   51.19    6.20
  -3   0 -29  108.99    9.00
   3   0  29   84.39    8.60
   3   0  29   88.19    8.70
   3  -1 -29    4.00    4.00
  -3   1  29    5.80    3.40
  -3   1  29   -2.60    3.50
   2  -1 -29    7.00    3.40
  -2   1  29    6.10    3.90
  -2   1  29   15.40    3.90
  -2   1  29   14.20    5.10
   1  -1 -29    3.60    2.90
  -1   1  29    0.70    2.60
  -1   1  29    3.20    3.10
  -1   1  29    1.90    3.00
   0  -1 -29    4.70    2.80
   0   1  29    2.80    3.10
   0   1  29    6.70    3.10
   0   1  29    6.50    2.90
  -1  -1 -29   14.70    3.60
   1   1  29   10.00    3.40
   1   1  29   10.60    3.40
   1   1  29   10.90    3.70
  -2  -1 -29    0.40    2.70
   2   1  29    3.20    2.90
   2   1  29    1.90    2.80
   2   1  29    0.10    3.00
  -3  -1 -29   -1.00    2.60
   3   1  29    2.90    3.30
   3   1  29   -1.90    3.10
   2  -2 -29  156.58   11.60
  -2   2  29  169.18   11.90
  -2   2  29  140.69   11.10
   1  -2 -29    5.30    3.70
  -1   2  29   -0.90    2.90
  -1   2  29    1.60    2.50
  -1   2  29   -0.50    3.30
   0  -2 -29    1.60    2.60
   0   2  29   -2.30    2.50
   0   2  29   -5.90    2.30
   0   2  29   -0.20    2.40
  -1  -2 -29   -1.10    2.00
   1   2  29    9.20    3.50
   1   2  29    0.80    2.60
   1   2  29    1.00    2.60
  -2  -2 -29    6.40    3.20
   2   2  29    6.80    3.60
   2   2  29    8.30    3.90
   2   2  29    7.20    3.80
  -3  -2 -29   39.00    6.30
   3   2  29   58.59    8.10
   1  -3 -29    3.40    3.20
  -1   3  29    9.00    4.10
  -1   3  29    2.10    3.50
   0  -3 -29    4.70    3.70
   0   3  29   -2.80    2.70
   0   3  29    1.70    3.00
   0   3  29    2.50    2.50
  -1  -3 -29   12.50    4.00
   1   3  29   12.50    3.80
   1   3  29   22.10    4.90
  -2  -3 -29  176.78   11.70
   2   3  29  191.88   12.60
   2   3  29  166.58   11.30
   0  -4 -29   32.00    5.70
   0   4  29   30.60    6.50
  -1  -4 -29    3.20    3.30
   1   4  29    5.80    3.80
  -1  -3  30  138.79   11.30
  -1  -3  30  147.09   10.60
   0  -3  30   -0.80    2.90
   0  -3  30    1.60    3.30
   1  -3  30    4.70    3.10
   1  -3  30   -0.80    3.00
   2  -3  30   11.70    4.20
   2  -3  30    9.80    4.70
  -2  -2  30   49.50    7.50
  -2  -2  30   45.00    6.50
  -2  -2  30   50.89    7.70
  -1  -2  30   17.50    3.70
  -1  -2  30   20.50    4.50
  -1  -2  30   21.20    5.00
   0  -2  30   -0.50    2.90
   0  -2  30   -1.40    2.90
   0  -2  30    5.60    2.50
   1  -2  30   70.89    8.30
   1  -2  30   78.19    7.70
   2  -2  30   14.80    4.40
   2  -2  30   23.20    5.30
  -2  -1  30   41.80    6.80
  -2  -1  30   40.50    5.80
  -2  -1  30   35.70    6.20
  -1  -1  30   24.00    4.60
  -1  -1  30   15.50    4.00
  -1  -1  30   20.10    4.70
   0   1 -30   18.00    4.40
   0  -1  30   25.70    5.00
   0  -1  30   21.10    4.10
   0  -1  30   18.80    4.60
  -1   1 -30  154.98   10.00
   1  -1  30  144.79   10.70
   1  -1  30  154.08   10.60
   1  -1  30  153.18    9.50
  -2   1 -30   44.30    6.80
   2  -1  30   36.70    6.40
   2  -1  30   48.00    6.80
  -3   1 -30   32.90    6.30
   3  -1  30   24.80    5.80
   3  -1  30   13.30    4.60
   2   0 -30    6.70    3.60
  -2   0  30    5.10    3.80
  -2   0  30    7.40    3.70
  -2   0  30    3.60    3.10
   1   0 -30    5.90    3.60
  -1   0  30   12.10    4.30
  -1   0  30    5.20    3.10
  -1   0  30   14.50    4.00
   0   0 -30   28.10    5.00
   0   0  30   38.60    6.00
   0   0  30   31.30    5.20
   0   0  30   41.00    6.20
  -1   0 -30   57.69    7.70
   1   0  30   48.00    6.70
   1   0  30   47.70    6.60
   1   0  30   56.79    6.60
  -2   0 -30    7.30    3.00
   2   0  30    3.30    3.00
   2   0  30    1.60    3.10
   2   0  30    3.30    3.10
  -3   0 -30    9.60    4.20
   3   0  30   14.40    5.30
   3   0  30    9.80    4.10
   2  -1 -30   18.50    5.00
  -2   1  30    9.80    4.30
  -2   1  30   18.90    4.40
  -2   1  30   19.80    5.10
   1  -1 -30    3.60    3.20
  -1   1  30    3.90    4.00
  -1   1  30   -1.90    2.70
  -1   1  30   -4.10    2.20
   0  -1 -30  117.29    9.10
   0   1  30  130.59    9.50
   0   1  30  122.09    8.90
   0   1  30  110.39    8.80
  -1  -1 -30  378.26   19.00
   1   1  30  405.06   19.20
   1   1  30  384.16   19.20
   1   1  30  399.76   19.30
  -2  -1 -30   42.50    6.40
   2   1  30   33.80    6.00
   2   1  30   39.60    6.70
   2   1  30   33.00    5.70
  -3  -1 -30   17.80    5.10
   3   1  30   15.80    4.80
   3   1  30   10.50    4.40
   2  -2 -30   31.30    6.00
  -2   2  30   19.80    5.60
  -2   2  30   29.30    6.40
   1  -2 -30   16.40    4.90
  -1   2  30   11.70    4.80
  -1   2  30   11.60    3.50
  -1   2  30    7.00    3.70
   0  -2 -30   36.90    6.00
   0   2  30   25.50    5.20
   0   2  30   22.20    4.60
   0   2  30   21.40    5.20
  -1  -2 -30   18.60    4.90
   1   2  30    8.50    4.30
   1   2  30    7.90    3.60
   1   2  30    9.00    3.80
  -2  -2 -30   37.80    6.40
   2   2  30   30.00    5.60
   2   2  30   23.80    5.70
   2   2  30   41.00    6.80
  -3  -2 -30   -1.00    3.00
   3   2  30    0.50    3.30
   1  -3 -30   28.90    6.10
  -1   3  30   24.20    5.90
   0  -3 -30    9.20    3.80
   0   3  30   15.10    3.70
   0   3  30    6.60    3.90
  -1  -3 -30    4.50    3.60
   1   3  30    9.20    4.00
   1   3  30    5.30    3.40
  -2  -3 -30    1.30    2.60
   2   3  30    0.30    3.20
   2   3  30   11.90    4.70
  -1  -3  31   51.39    7.80
  -1  -3  31   59.29    7.70
   0  -3  31    0.70    2.90
   0  -3  31    1.60    3.60
   1  -3  31   -0.20    3.00
   1  -3  31   -1.90    3.20
  -2  -2  31   79.59    9.40
  -2  -2  31   53.19    7.70
  -1  -2  31  120.59   10.00
  -1  -2  31  120.99    9.70
   0  -2  31   28.20    5.80
   0  -2  31   23.40    5.30
   1  -2  31  204.28   13.10
   1  -2  31  208.88   13.40
   2  -2  31   56.79    7.40
   2  -2  31   58.79    7.90
  -2  -1  31   33.90    6.20
  -2  -1  31   38.30    6.60
  -2  -1  31   46.00    6.70
  -1  -1  31   13.70    4.50
  -1  -1  31   23.30    5.60
  -1  -1  31   13.30    3.70
   0   1 -31   11.50    4.90
   0  -1  31   18.40    4.80
   0  -1  31   19.10    4.60
   0  -1  31   17.20    3.90
  -1   1 -31  184.78   11.60
   1  -1  31  187.68   10.90
   1  -1  31  163.38   11.60
   1  -1  31  191.18   12.30
  -2   1 -31   33.20    5.70
   2  -1  31   25.90    5.60
   2  -1  31   30.70    5.90
  -2   0  31   60.19    7.70
  -2   0  31   69.79    8.70
  -2   0  31   66.69    7.80
   1   0 -31   19.30    4.60
  -1   0  31   11.30    3.70
  -1   0  31   18.00    4.50
  -1   0  31   16.90    5.20
   0   0 -31   11.30    3.80
   0   0  31   13.50    3.60
   0   0  31    7.30    3.60
   0   0  31   11.70    4.10
  -1   0 -31   13.80    3.80
   1   0  31   16.50    4.80
   1   0  31   22.60    4.80
   1   0  31   11.40    3.80
  -2   0 -31    5.90    3.30
   2   0  31    2.20    3.00
   2   0  31   -1.00    2.90
   2   0  31    7.00    3.60
  -3   0 -31   44.70    7.20
   3   0  31   45.70    7.20
   3   0  31   54.19    8.40
   2  -1 -31   -2.30    3.10
  -2   1  31    6.30    3.50
  -2   1  31    4.70    4.00
  -2   1  31    7.70    4.20
   1  -1 -31   -3.50    2.60
  -1   1  31    3.30    3.40
  -1   1  31   -0.80    3.30
  -1   1  31   -3.40    2.60
   0  -1 -31   -0.10    2.70
   0   1  31    3.60    3.00
   0   1  31    0.50    3.10
   0   1  31    5.20    3.40
  -1  -1 -31   46.00    6.20
   1   1  31   34.00    6.30
   1   1  31   39.00    5.90
   1   1  31   42.60    6.20
  -2  -1 -31   66.79    8.50
   2   1  31   58.79    7.70
   2   1  31   54.89    7.10
   2   1  31   85.49    7.80
  -3  -1 -31   36.30    6.40
   3   1  31   36.80    6.90
   3   1  31   36.50    6.70
   1  -2 -31   40.00    6.80
  -1   2  31   40.60    6.70
  -1   2  31   44.30    6.80
  -1   2  31   50.39    6.00
   0  -2 -31  247.98   14.60
   0   2  31  252.87   13.90
   0   2  31  245.08   14.70
   0   2  31  260.87   14.70
  -1  -2 -31    1.80    2.70
   1   2  31   -2.80    2.60
   1   2  31    1.70    2.90
   1   2  31    0.40    3.20
  -2  -2 -31   15.80    5.00
   2   2  31   10.20    4.00
   2   2  31   13.30    4.40
   2   2  31    8.40    4.20
   0  -3 -31   32.00    6.20
   0   3  31   23.00    5.80
   0   3  31   28.50    6.60
  -1  -3 -31   10.00    4.30
   1   3  31    5.50    3.50
   1   3  31    6.90    3.70
  -2  -3 -31    5.00    3.60
   2   3  31   11.50    4.10
   2   3  31    7.10    4.20
  -1  -2  32   10.80    4.10
  -1  -2  32    8.10    4.10
   0  -2  32   22.90    5.60
   0  -2  32   15.70    4.40
   1  -2  32    9.50    4.30
   1  -2  32    4.60    3.50
   2  -2  32    1.50    3.10
  -2  -1  32   15.70    4.90
  -2  -1  32   21.50    5.50
  -2  -1  32   19.70    4.80
  -1  -1  32    3.00    3.40
  -1  -1  32    8.80    3.50
  -1  -1  32    7.90    3.90
   0  -1  32  121.29    8.50
   0  -1  32  112.79    9.70
   0  -1  32  112.19    9.60
   1  -1  32  274.27   15.50
   1  -1  32  242.38   13.60
   1  -1  32  269.47   15.30
   2  -1  32   36.40    6.30
   2  -1  32   41.00    6.80
  -2   0  32    9.10    3.80
  -2   0  32    2.70    3.90
  -2   0  32   -0.50    3.70
   1   0 -32   -2.60    2.60
  -1   0  32    1.70    4.00
  -1   0  32    9.30    3.80
  -1   0  32    3.70    3.30
   0   0 -32   28.90    5.20
   0   0  32   23.00    5.20
   0   0  32   19.50    4.90
   0   0  32   30.80    5.40
  -1   0 -32    2.30    3.10
   1   0  32    9.70    3.80
   1   0  32    3.00    3.10
   1   0  32    6.30    3.40
  -2   0 -32   -2.60    2.50
   2   0  32   -0.40    2.90
   2   0  32    2.80    3.60
   2   0  32   -0.70    2.80
   1  -1 -32    1.70    3.40
  -1   1  32    0.90    3.30
  -1   1  32   -0.40    3.40
  -1   1  32    1.80    3.10
   0  -1 -32   16.70    4.60
   0   1  32   10.60    4.00
   0   1  32   22.90    5.10
   0   1  32    4.30    3.60
  -1  -1 -32    5.90    3.50
   1   1  32   -3.50    3.00
   1   1  32    1.00    3.10
   1   1  32    2.50    3.50
  -2  -1 -32  176.08   11.90
   2   1  32  174.68   11.70
   2   1  32  176.98   11.80
   2   1  32  153.28   11.70
   1  -2 -32   -4.30    2.80
  -1   2  32   -1.20    3.40
  -1   2  32    2.10    2.70
  -1   2  32    1.20    4.30
   0  -2 -32    7.00    3.60
   0   2  32   14.60    5.10
   0   2  32   23.00    4.70
   0   2  32   12.20    4.50
  -1  -2 -32    4.20    3.20
   1   2  32   12.30    4.10
   1   2  32   13.30    4.50
   1   2  32    8.70    4.00
  -2  -2 -32    7.70    3.90
   2   2  32   21.70    5.90
   2   2  32   10.40    4.40
   2   2  32   16.70    4.70
   0  -2  33    4.30    3.80
   0  -2  33   -4.40    2.70
   1  -2  33    6.20    3.60
   1  -2  33   15.10    5.10
  -1  -1  33    3.20    3.80
  -1  -1  33    5.50    3.90
  -1  -1  33    5.50    3.70
   0  -1  33  113.79    9.80
   0  -1  33   95.49    9.40
   0  -1  33  106.39    8.20
   1  -1  33   45.50    7.30
   1  -1  33   36.50    5.30
   1  -1  33   39.80    6.20
   2  -1  33    2.70    3.80
   2  -1  33    6.10    3.80
   1   0 -33   22.70    5.20
  -1   0  33   23.80    5.70
  -1   0  33   26.60    5.30
  -1   0  33   23.10    5.10
   0   0 -33   54.19    7.50
   0   0  33   36.90    6.10
   0   0  33   53.39    8.40
   0   0  33   46.80    6.70
  -1   0 -33   22.90    5.10
   1   0  33   19.80    4.80
   1   0  33   19.50    4.70
   1   0  33   26.40    5.30
  -2   0 -33    8.60    4.00
   2   0  33    4.10    3.70
   2   0  33    3.20    3.30
   2   0  33    0.70    3.40
   1  -1 -33   31.80    5.90
  -1   1  33   36.70    6.40
  -1   1  33   25.80    5.80
  -1   1  33   38.70    6.00
   0  -1 -33    8.70    3.80
   0   1  33   12.70    5.10
   0   1  33    5.00    3.80
   0   1  33   14.20    4.50
  -1  -1 -33    0.90    3.10
   1   1  33   -2.90    3.20
   1   1  33   -3.40    3.40
   1   1  33   -0.30    3.00
  -2  -1 -33    4.50    3.70
   2   1  33    0.00    3.00
   2   1  33    0.90    3.20
   2   1  33    3.20    3.60
   0  -2 -33  105.89    9.10
   0   2  33   83.39    7.80
   0   2  33   83.19    8.70
   0   2  33   91.99    9.90
  -1  -2 -33   96.59    9.00
   1   2  33   99.29    9.00
   1   2  33   96.89    9.10
   1   2  33   93.19    8.70
   0  -1  34   61.09    7.00
   0  -1  34   75.39    9.40
   0  -1  34   71.49    8.60
   1  -1  34   26.00    5.60
   1  -1  34   15.00    4.50
   1  -1  34   36.50    5.70
  -1   0  34   10.80    4.10
  -1   0  34   11.90    4.30
  -1   0  34   11.80    4.30
   0   0 -34  193.78   12.70
   0   0  34  194.78   13.10
   0   0  34  183.18   12.50
   0   0  34  192.98   12.20
  -1   0 -34   32.00    5.70
   1   0  34   32.70    6.00
   1   0  34   33.70    5.90
   1   0  34   25.30    5.80
   0  -1 -34    3.70    3.40
   0   1  34   -0.20    3.10
   0   1  34    4.20    3.40
   0   1  34    2.80    3.70
  -1  -1 -34    0.30    3.00
   1   1  34   -1.90    3.80
   1   1  34    5.60    3.70
   1   1  34    4.20    3.70

_computing_structure_solution     'SHELXT 2014/4 (Sheldrick, 2014)'
;
_shelx_hkl_checksum              68982
loop_
_space_group_symop_operation_xyz
'x, y, z'
'-x, -y, -z'
loop_
_atom_site_label
_atom_site_type_symbol
_atom_site_fract_x
_atom_site_fract_y
_atom_site_fract_z
_atom_site_U_iso_or_equiv
_atom_site_adp_type
_atom_site_occupancy
_atom_site_site_symmetry_order
_atom_site_calc_flag
_atom_site_refinement_flags_posn
_atom_site_refinement_flags_adp
_atom_site_refinement_flags_occupancy
_atom_site_disorder_assembly
_atom_site_disorder_group
Ag1 Ag 0.5000 0.5000 0.5000 0.162(3) Uani 0.5 2 d S . P . .
C14 C 0.515(7) 0.787(3) 0.4954(14) 0.086(9) Uani 0.5 1 d D U P . .
N2 N 0.084(6) 0.513(7) 0.4952(15) 0.104(5) Uani 0.5 1 d . U P . .
N3 N 0.5000 1.0000 0.5000 0.104(5) Uani 1 2 d DS U P . .
S1 S 1.1184(5) 1.1879(4) 0.32142(9) 0.0330(6) Uani 1 1 d . . . . .
S2 S 0.8960(5) 0.7059(4) 0.38501(8) 0.0331(6) Uani 1 1 d . . . . .
S3 S 0.7800(4) 1.0459(3) 0.24392(7) 0.0245(5) Uani 1 1 d . . . . .
S4 S 0.5907(4) 0.6399(3) 0.29678(7) 0.0251(6) Uani 1 1 d . . . . .
S5 S 0.4201(4) 0.9332(3) 0.15222(7) 0.0227(5) Uani 1 1 d . . . . .
S6 S 0.2420(4) 0.5205(3) 0.20554(7) 0.0232(5) Uani 1 1 d . . . . .
N1 N -0.5032(17) 0.2502(13) 0.0427(3) 0.0371(18) Uani 1 1 d . . . . .
C1 C 1.196(2) 1.0923(19) 0.3816(4) 0.046(3) Uani 1 1 d . . . . .
H1A H 1.3579 0.9797 0.3790 0.056 Uiso 1 1 calc R U . . .
H1B H 1.2468 1.2254 0.4004 0.056 Uiso 1 1 calc R U . . .
C2 C 0.971(2) 0.984(2) 0.4102(4) 0.051(3) Uani 1 1 d . . . . .
H2A H 0.8034 1.0900 0.4105 0.061 Uiso 1 1 calc R U . . .
H2B H 1.0217 0.9606 0.4447 0.061 Uiso 1 1 calc R U . . .
C3 C 0.9065(16) 0.9839(14) 0.3018(3) 0.0237(16) Uani 1 1 d . . . . .
C4 C 0.8197(16) 0.8013(14) 0.3260(3) 0.0230(16) Uani 1 1 d . . . . .
C5 C 0.5808(16) 0.8073(13) 0.2433(3) 0.0219(16) Uani 1 1 d . . . . .
C6 C 0.4319(16) 0.7623(12) 0.2059(3) 0.0201(15) Uani 1 1 d . . . . .
C7 C 0.1937(16) 0.7725(13) 0.1226(3) 0.0199(15) Uani 1 1 d . . . . .
C8 C 0.1100(15) 0.5789(13) 0.1482(3) 0.0199(15) Uani 1 1 d . . . . .
C9 C 0.1041(16) 0.8267(13) 0.0761(3) 0.0212(16) Uani 1 1 d . . . . .
H9 H 0.1682 0.9545 0.0585 0.025 Uiso 1 1 calc R U . . .
C10 C -0.0708(15) 0.4394(13) 0.1275(3) 0.0191(15) Uani 1 1 d . . . . .
H10 H -0.1286 0.3073 0.1445 0.023 Uiso 1 1 calc R U . . .
C11 C -0.0790(18) 0.6929(14) 0.0558(3) 0.0274(18) Uani 1 1 d . . . . .
H11 H -0.1473 0.7319 0.0246 0.033 Uiso 1 1 calc R U . . .
C12 C -0.1637(16) 0.4991(14) 0.0814(3) 0.0231(16) Uani 1 1 d . . . . .
C13 C -0.3543(18) 0.3614(14) 0.0592(3) 0.0263(18) Uani 1 1 d . . . . .
loop_
_atom_site_aniso_label
_atom_site_aniso_U_11
_atom_site_aniso_U_22
_atom_site_aniso_U_33
_atom_site_aniso_U_23
_atom_site_aniso_U_13
_atom_site_aniso_U_12
Ag1 0.0374(16) 0.371(9) 0.077(2) -0.151(4) -0.0143(15) 0.011(3)
C14 0.086(9) 0.087(9) 0.086(9) -0.0001(10) -0.0047(11) -0.0069(13)
N2 0.104(5) 0.104(5) 0.104(5) -0.0006(7) -0.0058(8) -0.0084(8)
N3 0.104(5) 0.104(5) 0.104(5) -0.0006(7) -0.0058(8) -0.0084(8)
S1 0.0324(12) 0.0300(12) 0.0391(12) -0.0033(9) -0.0121(9) -0.0103(9)
S2 0.0412(13) 0.0345(12) 0.0252(11) 0.0017(9) -0.0116(9) -0.0063(9)
S3 0.0258(11) 0.0235(10) 0.0258(10) 0.0025(8) -0.0068(8) -0.0076(8)
S4 0.0293(11) 0.0245(10) 0.0234(10) 0.0022(8) -0.0075(8) -0.0090(8)
S5 0.0268(11) 0.0204(10) 0.0220(10) 0.0021(7) -0.0059(8) -0.0070(8)
S6 0.0282(11) 0.0214(10) 0.0216(10) 0.0042(7) -0.0084(8) -0.0076(8)
N1 0.045(5) 0.029(4) 0.040(4) 0.003(3) -0.013(4) -0.015(4)
C1 0.052(6) 0.043(6) 0.046(6) -0.005(5) -0.018(5) -0.008(5)
C2 0.057(7) 0.060(7) 0.037(5) -0.017(5) -0.010(5) -0.012(5)
C3 0.023(4) 0.024(4) 0.025(4) -0.005(3) -0.005(3) -0.003(3)
C4 0.023(4) 0.024(4) 0.024(4) 0.000(3) -0.007(3) -0.005(3)
C5 0.027(4) 0.021(4) 0.018(4) 0.000(3) -0.004(3) -0.001(3)
C6 0.022(4) 0.014(3) 0.025(4) 0.003(3) -0.001(3) -0.003(3)
C7 0.023(4) 0.017(4) 0.020(4) -0.002(3) -0.006(3) 0.000(3)
C8 0.020(4) 0.021(4) 0.018(4) 0.001(3) -0.003(3) -0.001(3)
C9 0.024(4) 0.021(4) 0.019(4) 0.004(3) -0.004(3) -0.005(3)
C10 0.016(4) 0.019(4) 0.022(4) 0.003(3) -0.004(3) -0.001(3)
C11 0.034(5) 0.025(4) 0.024(4) 0.002(3) -0.008(3) -0.007(3)
C12 0.021(4) 0.025(4) 0.024(4) -0.003(3) -0.007(3) -0.005(3)
C13 0.031(4) 0.025(4) 0.024(4) 0.003(3) -0.006(3) -0.004(3)
loop_
_atom_type_symbol
_atom_type_description
_atom_type_scat_dispersion_real
_atom_type_scat_dispersion_imag
_atom_type_scat_source
C C 0.0033 0.0016 'International Tables Vol C Tables 4.2.6.8 and 6.1.1.4'
Ag Ag -0.8971 1.1015 'International Tables Vol C Tables 4.2.6.8 and 6.1.1.4'
N N 0.0061 0.0033 'International Tables Vol C Tables 4.2.6.8 and 6.1.1.4'
S S 0.1246 0.1234 'International Tables Vol C Tables 4.2.6.8 and 6.1.1.4'
H H 0.0000 0.0000 'International Tables Vol C Tables 4.2.6.8 and 6.1.1.4'
loop_
_geom_angle_atom_site_label_1
_geom_angle_atom_site_label_2
_geom_angle_atom_site_label_3
_geom_angle
_geom_angle_site_symmetry_1
_geom_angle_site_symmetry_3
_geom_angle_publ_flag
C14 Ag1 C14 179.999(13) 2_666 . ?
C14 Ag1 N2 85.4(16) 2_666 . ?
C14 Ag1 N2 94.6(16) . . ?
C14 Ag1 N2 94.6(16) 2_666 2_666 ?
C14 Ag1 N2 85.4(16) . 2_666 ?
N2 Ag1 N2 180(2) . 2_666 ?
N3 C14 Ag1 169(3) . . ?
N2 N2 Ag1 156(6) 2_566 . ?
C14 N3 C14 180.00(18) . 2_676 ?
C3 S1 C1 103.5(5) . . ?
C4 S2 C2 97.9(5) . . ?
C3 S3 C5 95.3(4) . . ?
C5 S4 C4 95.8(4) . . ?
C7 S5 C6 96.0(4) . . ?
C8 S6 C6 95.5(4) . . ?
C2 C1 S1 115.2(8) . . ?
C2 C1 H1A 108.5 . . ?
S1 C1 H1A 108.5 . . ?
C2 C1 H1B 108.5 . . ?
S1 C1 H1B 108.5 . . ?
H1A C1 H1B 107.5 . . ?
C1 C2 S2 113.1(8) . . ?
C1 C2 H2A 108.9 . . ?
S2 C2 H2A 108.9 . . ?
C1 C2 H2B 108.9 . . ?
S2 C2 H2B 108.9 . . ?
H2A C2 H2B 107.8 . . ?
C4 C3 S3 117.6(6) . . ?
C4 C3 S1 128.8(6) . . ?
S3 C3 S1 113.4(5) . . ?
C3 C4 S2 128.0(6) . . ?
C3 C4 S4 117.2(6) . . ?
S2 C4 S4 114.8(4) . . ?
C6 C5 S4 122.9(6) . . ?
C6 C5 S3 123.0(6) . . ?
S4 C5 S3 114.1(4) . . ?
C5 C6 S6 122.1(6) . . ?
C5 C6 S5 122.8(6) . . ?
S6 C6 S5 115.1(4) . . ?
C9 C7 C8 120.9(7) . . ?
C9 C7 S5 123.2(6) . . ?
C8 C7 S5 116.0(6) . . ?
C10 C8 C7 120.2(7) . . ?
C10 C8 S6 122.4(6) . . ?
C7 C8 S6 117.4(6) . . ?
C11 C9 C7 119.4(7) . . ?
C11 C9 H9 120.3 . . ?
C7 C9 H9 120.3 . . ?
C12 C10 C8 118.2(7) . . ?
C12 C10 H10 120.9 . . ?
C8 C10 H10 120.9 . . ?
C9 C11 C12 119.8(7) . . ?
C9 C11 H11 120.1 . . ?
C12 C11 H11 120.1 . . ?
C10 C12 C11 121.5(7) . . ?
C10 C12 C13 119.8(7) . . ?
C11 C12 C13 118.7(7) . . ?
N1 C13 C12 178.4(9) . . ?
loop_
_geom_bond_atom_site_label_1
_geom_bond_atom_site_label_2
_geom_bond_distance
_geom_bond_site_symmetry_2
_geom_bond_publ_flag
Ag1 C14 1.687(19) 2_666 ?
Ag1 C14 1.687(19) . ?
Ag1 N2 2.06(3) . ?
Ag1 N2 2.06(3) 2_666 ?
C14 N3 1.245(18) . ?
N2 N2 0.87(6) 2_566 ?
N3 C14 1.245(18) 2_676 ?
S1 C3 1.752(8) . ?
S1 C1 1.778(11) . ?
S2 C4 1.747(8) . ?
S2 C2 1.839(11) . ?
S3 C3 1.751(8) . ?
S3 C5 1.768(8) . ?
S4 C5 1.747(8) . ?
S4 C4 1.755(8) . ?
S5 C7 1.749(8) . ?
S5 C6 1.763(8) . ?
S6 C8 1.746(7) . ?
S6 C6 1.756(8) . ?
N1 C13 1.132(11) . ?
C1 C2 1.501(17) . ?
C1 H1A 0.9900 . ?
C1 H1B 0.9900 . ?
C2 H2A 0.9900 . ?
C2 H2B 0.9900 . ?
C3 C4 1.335(12) . ?
C5 C6 1.327(12) . ?
C7 C9 1.389(11) . ?
C7 C8 1.400(11) . ?
C8 C10 1.398(11) . ?
C9 C11 1.381(11) . ?
C9 H9 0.9500 . ?
C10 C12 1.391(11) . ?
C10 H10 0.9500 . ?
C11 C12 1.402(11) . ?
C11 H11 0.9500 . ?
C12 C13 1.445(11) . ?
