#------------------------------------------------------------------------------
#$Date: 2022-05-14 01:35:42 +0300 (Sat, 14 May 2022) $
#$Revision: 275418 $
#$URL: file:///home/coder/svn-repositories/cod/cif/7/24/49/7244921.cif $
#------------------------------------------------------------------------------
#
# This file is available in the Crystallography Open Database (COD),
# http://www.crystallography.net/
#
# All data on this site have been placed in the public domain by the
# contributors.
#
data_7244921
loop_
_publ_author_name
'Lopes, Gon\,calo'
'Gama, Vasco Pires Silva da'
'Santos, Isabel Cordeiro'
'Branco Lopes, Elsa'
'Brotas, Gra\,ca'
'Pereira, Laura C. J.'
'Cerdeira, Ana C.'
'Paix\~ao, Jos\'e Ant\'onio'
'Raba\,ca, Sandra'
'Almeida, Manuel'
_publ_section_title
;
 Bilayer conducting salts with polymeric anions
;
_journal_name_full               CrystEngComm
_journal_paper_doi               10.1039/D2CE00515H
_journal_year                    2022
_chemical_formula_moiety         'C1.50 Ag N1.50, 2(C13 H7 N S6)'
_chemical_formula_sum            'C27.5 H14 Ag N3.5 S12'
_chemical_formula_weight         886.01
_space_group_crystal_system      triclinic
_space_group_IT_number           2
_space_group_name_Hall           '-P 1'
_space_group_name_H-M_alt        'P -1'
_atom_sites_solution_hydrogens   geom
_audit_creation_method           SHELXL-2014/7
_audit_update_record
;
2022-03-28 deposited with the CCDC.	2022-05-13 downloaded from the CCDC.
;
_cell_angle_alpha                89.569(5)
_cell_angle_beta                 87.332(4)
_cell_angle_gamma                85.969(4)
_cell_formula_units_Z            1
_cell_length_a                   5.0082(5)
_cell_length_b                   5.8251(6)
_cell_length_c                   27.1828(18)
_cell_measurement_reflns_used    866
_cell_measurement_temperature    150(2)
_cell_measurement_theta_max      24.89
_cell_measurement_theta_min      3.00
_cell_volume                     790.18(12)
_computing_cell_refinement       'Bruker SAINT'
_computing_data_collection       'Bruker APEX2'
_computing_data_reduction        'Bruker SAINT'
_computing_structure_refinement  'SHELXL-2014/7 (Sheldrick, 2014)'
_computing_structure_solution    'SHELXS-97 (Sheldrick 2008)'
_diffrn_ambient_temperature      150(2)
_diffrn_measured_fraction_theta_full 0.981
_diffrn_measured_fraction_theta_max 0.980
_diffrn_measurement_device_type  'Bruker APEX-II CCD'
_diffrn_measurement_method       '\f and \w scans'
_diffrn_radiation_type           MoK\a
_diffrn_radiation_wavelength     0.71073
_diffrn_reflns_av_R_equivalents  0.0546
_diffrn_reflns_av_unetI/netI     0.1156
_diffrn_reflns_Laue_measured_fraction_full 0.981
_diffrn_reflns_Laue_measured_fraction_max 0.980
_diffrn_reflns_limit_h_max       6
_diffrn_reflns_limit_h_min       -6
_diffrn_reflns_limit_k_max       7
_diffrn_reflns_limit_k_min       -7
_diffrn_reflns_limit_l_max       33
_diffrn_reflns_limit_l_min       -33
_diffrn_reflns_number            5949
_diffrn_reflns_point_group_measured_fraction_full 0.981
_diffrn_reflns_point_group_measured_fraction_max 0.980
_diffrn_reflns_theta_full        25.242
_diffrn_reflns_theta_max         26.368
_diffrn_reflns_theta_min         3.001
_exptl_absorpt_coefficient_mu    1.460
_exptl_absorpt_correction_T_max  0.971
_exptl_absorpt_correction_T_min  0.811
_exptl_absorpt_correction_type   multi-scan
_exptl_absorpt_process_details   sadabs
_exptl_crystal_colour            brown
_exptl_crystal_density_diffrn    1.862
_exptl_crystal_description       needle
_exptl_crystal_F_000             442
_exptl_crystal_size_max          0.150
_exptl_crystal_size_mid          0.040
_exptl_crystal_size_min          0.020
_refine_diff_density_max         0.658
_refine_diff_density_min         -0.618
_refine_diff_density_rms         0.093
_refine_ls_extinction_method     none
_refine_ls_goodness_of_fit_ref   0.898
_refine_ls_hydrogen_treatment    constr
_refine_ls_matrix_type           full
_refine_ls_number_parameters     203
_refine_ls_number_reflns         3163
_refine_ls_number_restraints     2
_refine_ls_restrained_S_all      0.899
_refine_ls_R_factor_all          0.1383
_refine_ls_R_factor_gt           0.0582
_refine_ls_shift/su_max          0.001
_refine_ls_shift/su_mean         0.000
_refine_ls_structure_factor_coef Fsqd
_refine_ls_weighting_details
'w=1/[\s^2^(Fo^2^)+(0.0503P)^2^] where P=(Fo^2^+2Fc^2^)/3'
_refine_ls_weighting_scheme      calc
_refine_ls_wR_factor_gt          0.1075
_refine_ls_wR_factor_ref         0.1249
_reflns_Friedel_coverage         0.000
_reflns_number_gt                1593
_reflns_number_total             3163
_reflns_threshold_expression     'I > 2\s(I)'
_cod_data_source_file            d2ce00515h2.cif
_cod_data_source_block           Comp3_D4Ag2C3N3
_cod_original_formula_sum        'C27.50 H14 Ag N3.50 S12'
_cod_database_code               7244921
_shelx_shelxl_version_number     2014/7
_shelx_space_group_comment
;
The symmetry employed for this shelxl refinement is uniquely defined
by the following loop, which should always be used as a source of
symmetry information in preference to the above space-group names.
They are only intended as comments.
;
_shelx_estimated_absorpt_t_min   0.811
_shelx_estimated_absorpt_t_max   0.971
_shelx_res_file
;

    shelx.res created by SHELXL-2014/7

TITL AgCN216_a.res in P-1
CELL  0.71073   5.0082   5.8251  27.1828   89.569   87.332   85.969
ZERR     1.00   0.0005   0.0006   0.0018    0.005    0.004    0.004
LATT   1
SFAC  C    H    N    S    AG
UNIT  27.5 14 3.5 12 1
MERG   2
OMIT     0.00 180.00
shel 7 0.80
DFIX     1.150   0.020 C14 N3
DFIX     1.150   0.020 C15 N4
FMAP   2
PLAN    5
SIZE     0.020   0.040   0.150
ACTA
BOND   $H
L.S.  10
TEMP  -123.00
WGHT    0.050300
FVAR       0.47144
S5    4    0.579533    0.065717    0.847965    11.00000    0.04054    0.03214 =
         0.03037    0.00278   -0.01128   -0.01531
S3    4    0.218389   -0.045136    0.756677    11.00000    0.04329    0.03703 =
         0.03197    0.00433   -0.01273   -0.01371
S6    4    0.755598    0.477258    0.794857    11.00000    0.04926    0.03483 =
         0.03231    0.00582   -0.01630   -0.01479
S4    4    0.405214    0.359044    0.703825    11.00000    0.05134    0.03641 =
         0.03496    0.00617   -0.01602   -0.01796
S1    4   -0.118456   -0.188906    0.679079    11.00000    0.05567    0.04471 =
         0.04819    0.00159   -0.02184   -0.02420
S2    4    0.105303    0.290099    0.615192    11.00000    0.08038    0.04635 =
         0.03154    0.00728   -0.02100   -0.01350
N1    3    1.501998    0.747184    0.957022    11.00000    0.06086    0.05371 =
         0.05144    0.00685   -0.01908   -0.02527
C1    1   -0.188590   -0.095835    0.618517    11.00000    0.07997    0.06309 =
         0.05111    0.00262   -0.03242   -0.01988
AFIX  23
H1A   2   -0.233392   -0.231426    0.599609    11.00000   -1.20000
H1B   2   -0.350715    0.011782    0.620561    11.00000   -1.20000
AFIX   0
C2    1    0.017721    0.015230    0.590848    11.00000    0.09858    0.11386 =
         0.03610   -0.02034   -0.01669   -0.04659
AFIX  23
H2A   2   -0.040540    0.040677    0.556812    11.00000   -1.20000
H2B   2    0.181199   -0.090839    0.589020    11.00000   -1.20000
AFIX   0
C3    1    0.092857    0.011127    0.698559    11.00000    0.03376    0.02925 =
         0.03717   -0.00387   -0.01007   -0.00404
C4    1    0.179376    0.197318    0.674315    11.00000    0.04156    0.03476 =
         0.02983   -0.00436   -0.01267    0.00385
C5    1    0.414537    0.188367    0.757209    11.00000    0.03363    0.03692 =
         0.01949   -0.00372   -0.00145   -0.01060
C6    1    0.563546    0.238233    0.795445    11.00000    0.03043    0.02722 =
         0.02607   -0.00311   -0.00363   -0.00368
C7    1    0.803492    0.227005    0.877558    11.00000    0.02714    0.02246 =
         0.02961   -0.00117   -0.00036   -0.00261
C8    1    0.891124    0.420071    0.852340    11.00000    0.02155    0.02832 =
         0.02576    0.00325   -0.00400    0.00115
C9    1    0.898870    0.170529    0.923649    11.00000    0.04222    0.03661 =
         0.02493    0.00749   -0.00894   -0.01194
AFIX  43
H9    2    0.840489    0.039677    0.941019    11.00000   -1.20000
AFIX   0
C10   1    1.069387    0.555528    0.872918    11.00000    0.03285    0.02522 =
         0.02939    0.00105   -0.00219   -0.00889
AFIX  43
H10   2    1.127371    0.687646    0.855969    11.00000   -1.20000
AFIX   0
C11   1    1.077747    0.305728    0.943648    11.00000    0.03666    0.03871 =
         0.03068    0.00654   -0.00989   -0.01238
AFIX  43
H11   2    1.144184    0.268047    0.975085    11.00000   -1.20000
AFIX   0
C12   1    1.163022    0.496842    0.918585    11.00000    0.02909    0.03080 =
         0.02854   -0.00629   -0.00401   -0.00675
C13   1    1.349061    0.637089    0.940183    11.00000    0.04168    0.04287 =
         0.02874    0.00690   -0.01177   -0.01332
AG1   5    0.500000    0.500000    0.500000    10.50000    0.26277    0.17631 =
         0.09323   -0.04918   -0.06656    0.06290
C14   1    0.176777    0.432227    0.489927    10.37500    0.06797
C15   1    0.517595    0.167298    0.498850    10.37500    0.06865
N3    3   -0.042304    0.452026    0.498323    10.37500    0.06953
N4    3    0.553073   -0.032330    0.497666    10.37500    0.08123
HKLF    4

REM  AgCN216_a.res in P-1
REM R1 =  0.0582 for    1593 Fo > 4sig(Fo)  and  0.1383 for all    3163 data
REM    203 parameters refined using      2 restraints

END

WGHT      0.0503      0.0000

REM Highest difference peak  0.658,  deepest hole -0.618,  1-sigma level  0.093
Q1    1   0.5887  0.6244  0.4614  11.00000  0.05    0.45
Q2    1   0.4886  0.3207  0.5189  11.00000  0.05    0.44
Q3    1  -0.1489  0.1569  0.5881  11.00000  0.05    0.42
Q4    1  -0.3024  0.1804  0.5914  11.00000  0.05    0.40
Q5    1   0.5555  0.1714  0.7664  11.00000  0.05    0.35
;
_shelx_res_checksum              19648
_shelx_hkl_file
;
  -1   0   0    0.40    3.60
  -1   0   0    0.60    3.30
   1   0   0    6.20    3.50
   1   0   0    2.60    3.90
  -2   0   0  105.69    8.60
  -2   0   0   97.39    9.20
   2   0   0  104.29    9.70
  -3   0   0  414.66   19.30
   3   0   0  402.66   18.80
  -4   0   0   52.09   10.50
   4   0   0   54.89    9.90
  -5   0   0   25.20   12.20
   5   0   0   21.10   11.90
  -6   0   0   64.89   16.20
   6   0   0   31.20   15.20
   6  -1   0   -4.90   14.40
  -6   1   0   25.80   14.10
   5  -1   0   -1.40   10.60
  -5   1   0    4.90   11.70
   4  -1   0   -8.90    8.10
  -4   1   0   13.50    9.30
   3  -1   0   62.69    9.20
  -3   1   0   49.20    7.70
   2  -1   0   41.70    6.40
  -2   1   0   31.60    6.20
  -2   1   0   36.30    6.40
   1  -1   0  449.06   16.80
   1  -1   0  465.75   16.90
  -1   1   0  444.26   16.70
  -1   1   0  458.55   17.10
   0  -1   0   95.29    5.90
   0  -1   0   78.19    6.60
   0   1   0   77.49    6.10
   0   1   0   89.79    6.70
  -1  -1   0    1.50    4.60
  -1  -1   0   -4.20    3.70
   1   1   0    2.70    4.50
   1   1   0   -1.10    4.50
  -2  -1   0  139.29   11.20
   2   1   0  146.99   10.90
  -3  -1   0  244.28   15.40
   3   1   0  252.57   15.30
  -4  -1   0  -14.20    8.90
   4   1   0   13.20    8.90
  -5  -1   0   37.50   13.50
   5   1   0   28.90   11.60
  -6  -1   0    0.00   13.60
   6   1   0    8.10   12.90
   5  -2   0  -17.80   11.10
  -5   2   0   -1.30   11.20
   4  -2   0  140.79   14.00
  -4   2   0  110.59   12.60
   3  -2   0   29.60    7.90
  -3   2   0   30.50    8.40
   2  -2   0   22.10    6.90
  -2   2   0   25.20    7.00
   1  -2   0  158.28   11.20
  -1   2   0  158.48   10.80
  -1   2   0  175.38   11.90
   0  -2   0  249.38   12.70
   0  -2   0  269.07   12.80
   0   2   0  256.77   13.20
  -1  -2   0    5.80    5.90
   1   2   0    8.20    5.90
   1   2   0    8.80    5.60
  -2  -2   0  554.74   22.60
   2   2   0  544.45   22.40
  -3  -2   0  102.19   11.20
   3   2   0  101.39   10.80
  -4  -2   0    7.50    9.30
   4   2   0   18.00    9.60
  -5  -2   0  109.39   16.20
   5   2   0   97.39   15.80
  -6  -2   0    2.40   15.20
   6   2   0    3.20   14.80
   5  -3   0   -5.90   12.30
  -5   3   0   -8.40   11.80
   4  -3   0   22.90   10.70
  -4   3   0   -2.40    9.30
   3  -3   0    2.00    9.00
  -3   3   0   17.70    8.70
   2  -3   0   19.20    7.70
  -2   3   0   29.70    8.50
   1  -3   0  195.48   13.40
  -1   3   0  222.58   14.50
   0  -3   0   27.90    7.00
   0   3   0   30.10    7.20
  -1  -3   0  147.89   12.30
   1   3   0  146.79   12.30
  -2  -3   0  202.68   14.50
   2   3   0  239.98   15.20
  -3  -3   0  107.69   11.60
   3   3   0  157.28   14.80
  -4  -3   0   21.80   11.40
   4   3   0  -10.50    9.80
  -5  -3   0   31.30   13.70
   5   3   0   48.50   13.80
   4  -4   0   78.19   14.60
  -4   4   0   94.29   16.20
   3  -4   0   14.20    9.60
  -3   4   0   21.90   10.70
   2  -4   0    8.30    8.70
  -2   4   0    1.40    8.70
   1  -4   0   10.10    8.30
  -1   4   0    1.10    8.30
   0  -4   0  174.58   14.50
   0   4   0  177.08   14.50
  -1  -4   0   80.89   10.00
   1   4   0   78.99    9.90
  -2  -4   0   94.19   12.20
   2   4   0   90.69   11.60
  -3  -4   0   51.89   11.10
   3   4   0   58.39   11.80
  -4  -4   0   -7.30   11.10
   4   4   0   -0.20   11.50
  -5  -4   0   17.60   13.60
   5   4   0   13.60   13.80
  -4   5   0   -5.20   14.40
   3  -5   0   -3.90   11.30
  -3   5   0    7.80   13.40
   2  -5   0    7.00   10.30
  -2   5   0   23.30   12.60
   1  -5   0   49.60   11.50
  -1   5   0   76.59   13.00
   0  -5   0   -4.00    8.60
   0   5   0   -1.20    9.60
  -1  -5   0  214.38   17.50
   1   5   0  188.88   18.00
  -2  -5   0    6.90   11.20
   2   5   0   14.50   11.30
  -3  -5   0    6.00   11.40
   3   5   0   -2.70   11.50
  -4  -5   0  190.18   21.00
   4   5   0  193.28   21.70
  -3   6   0  -10.90   15.50
   2  -6   0   11.60   12.50
  -2   6   0   -9.00   14.00
   1  -6   0   -2.40   11.10
  -1   6   0   -3.00   11.70
   0  -6   0   10.30   11.90
   0   6   0   16.50   12.80
  -1  -6   0   23.10   12.40
   1   6   0   26.10   12.40
  -2  -6   0   -4.60   12.50
   2   6   0   -1.60   13.30
  -3  -6   0   23.90   15.60
   3   6   0   20.80   15.40
  -1   7   0  -26.00   14.20
   0  -7   0   42.00   14.10
   0   7   0   53.79   17.90
  -1  -7   0   82.39   16.10
   1   7   0   80.89   17.50
  -2  -7   0   14.60   14.90
   2   7   0   -1.60   16.00
   2   7  -1   14.90   16.00
  -2  -7   1    0.40   13.70
   1   7  -1   12.20   16.30
  -1  -7   1   16.00   13.90
   0   7  -1    0.90   14.20
   0  -7   1  -15.50   12.60
  -1   7  -1   -0.30   16.10
   1  -7   1    8.90   14.60
   3   6  -1   55.79   17.20
  -3  -6   1   26.40   14.70
   2   6  -1   63.39   15.80
  -2  -6   1   87.99   16.40
   1   6  -1   96.79   15.30
  -1  -6   1  140.49   16.90
   0   6  -1    4.90   11.90
   0  -6   1   24.50   12.10
  -1   6  -1   57.09   15.20
   1  -6   1   36.60   12.60
  -2   6  -1   66.59   15.90
   2  -6   1   64.49   14.40
  -3   6  -1   17.50   16.50
   4   5  -1    9.50   14.10
  -4  -5   1   -0.40   12.70
   3   5  -1   32.20   13.20
  -3  -5   1   22.30   13.00
   2   5  -1   50.09   12.20
  -2  -5   1   84.49   13.90
   1   5  -1  -12.20    8.70
  -1  -5   1   -2.50    9.70
   0   5  -1    1.30    9.30
   0  -5   1   10.20    9.70
  -1   5  -1    2.10    9.90
   1  -5   1    8.90    9.50
  -2   5  -1   38.90   13.00
   2  -5   1   43.00   12.20
  -3   5  -1   17.30   14.30
   3  -5   1    4.70   12.30
  -4   5  -1  -10.60   13.90
   4  -5   1   12.70   21.90
   5   4  -1   99.09   18.20
  -5  -4   1   58.99   17.60
   4   4  -1   26.40   12.60
  -4  -4   1   44.80   12.70
   3   4  -1   -1.10    9.60
  -3  -4   1   15.60   10.70
   2   4  -1 1110.19   41.70
  -2  -4   1 1132.19   41.60
   1   4  -1   -5.90    7.20
  -1  -4   1   -5.60    7.50
   0   4  -1    4.60    7.90
   0  -4   1   -1.40    8.00
  -1   4  -1   -3.30    7.70
   1  -4   1    1.50    8.00
  -2   4  -1   11.50    8.00
   2  -4   1    5.70    8.40
  -3   4  -1  -11.20   10.20
   3  -4   1    0.60   10.40
  -4   4  -1  102.89   16.80
   4  -4   1   49.60   13.20
   5   3  -1    0.50   12.20
  -5  -3   1   -1.60   13.10
   4   3  -1    8.30   10.40
  -4  -3   1   16.30   10.40
   3   3  -1    0.20    7.40
  -3  -3   1   10.00    8.40
   2   3  -1  354.56   18.90
  -2  -3   1  400.76   19.30
   1   3  -1  275.57   15.30
  -1  -3   1  271.67   15.40
   0   3  -1   -0.90    6.70
   0  -3   1    6.50    6.90
  -1   3  -1  185.28   13.80
   1  -3   1  171.98   12.70
  -2   3  -1   87.59    9.90
   2  -3   1  108.29   10.80
  -3   3  -1   15.80    9.40
   3  -3   1   23.10    9.40
  -4   3  -1   24.40   10.90
   4  -3   1   -8.20   10.10
  -5   3  -1    0.80   13.20
   5  -3   1   19.80   14.20
   6   2  -1   -4.50   13.90
  -6  -2   1   25.40   15.10
   5   2  -1   19.10   12.00
  -5  -2   1    7.00   12.60
   4   2  -1   88.39   11.70
  -4  -2   1   96.49   13.30
   3   2  -1   15.90    7.80
  -3  -2   1    9.70    7.30
   2   2  -1  473.45   20.10
  -2  -2   1  466.45   20.20
   1   2  -1  437.76   18.30
   1   2  -1  444.96   18.50
  -1  -2   1  468.15   17.80
  -1  -2   1  461.45   18.60
   0   2  -1   99.49    9.40
   0   2  -1   83.29    7.70
   0  -2   1   87.89    7.70
   0  -2   1   93.09    7.60
  -1   2  -1  356.06   15.80
  -1   2  -1  378.06   16.50
   1  -2   1  354.16   15.90
  -2   2  -1  111.99    9.80
   2  -2   1   83.49    8.90
  -3   2  -1    3.00    7.20
   3  -2   1   21.20    7.40
  -4   2  -1   -6.70    8.60
   4  -2   1   -4.30    9.40
  -5   2  -1   33.20   13.90
   5  -2   1    8.80   11.40
   6   1  -1    5.20   13.70
  -6  -1   1   -3.40   13.50
   5   1  -1   31.50   11.30
  -5  -1   1   21.90   12.60
   4   1  -1    2.60    7.90
  -4  -1   1   -9.30    8.90
   3   1  -1  749.42   27.90
  -3  -1   1  691.63   28.10
   2   1  -1    2.00    5.80
  -2  -1   1    4.80    6.20
  -2  -1   1    0.50    5.00
   1   1  -1    2.90    5.00
   1   1  -1    2.60    4.70
  -1  -1   1    2.60    4.60
  -1  -1   1   -4.00    3.90
   0   1  -1  557.44   19.00
   0  -1   1  562.74   18.80
   0  -1   1  567.54   18.90
  -1   1  -1  724.63   24.60
  -1   1  -1  719.13   24.20
   1  -1   1  670.13   24.10
   1  -1   1  730.13   24.20
  -2   1  -1   80.59    8.00
   2  -1   1   58.49    7.40
  -3   1  -1  711.73   27.30
   3  -1   1  680.03   27.40
  -4   1  -1   38.90    9.80
   4  -1   1   27.00    9.90
  -5   1  -1  -13.80   11.00
   5  -1   1  -18.90   10.50
  -6   1  -1    9.20   14.90
   6  -1   1    2.30   14.20
   6   0  -1   28.20   13.90
  -6   0   1   27.10   15.90
   5   0  -1    9.60   11.00
  -5   0   1  -11.30   10.70
   4   0  -1   -3.30    8.30
  -4   0   1   -2.40    7.40
   3   0  -1   -1.80    6.10
  -3   0   1   -4.50    6.10
   2   0  -1   83.59    7.50
  -2   0   1   67.69    7.40
  -2   0   1   73.99    7.20
   1   0  -1   -0.80    2.20
   1   0  -1    0.30    3.50
   1   0  -1   -1.80    3.60
  -1   0   1    0.40    3.60
  -1   0   1    3.30    3.50
  -1   0  -1   15.40    4.20
  -1   0  -1   11.80    3.40
   1   0   1   19.90    4.30
   1   0   1   13.70    4.00
  -2   0  -1   60.09    7.20
  -2   0  -1   85.59    7.30
   2   0   1   82.79    8.00
  -3   0  -1   14.70    6.90
   3   0   1   17.30    7.50
  -4   0  -1    4.60    8.20
   4   0   1   -0.70    8.50
  -5   0  -1   -1.30   11.00
   5   0   1  -29.40   10.00
  -6   0  -1   15.50   13.80
   6   0   1   14.80   13.90
  -6   1   1   11.60   14.00
   5  -1  -1    2.90   11.00
  -5   1   1   -2.80   10.80
   4  -1  -1    7.70    9.00
  -4   1   1   13.50    8.50
   3  -1  -1   88.29    9.70
  -3   1   1   59.89    8.00
   2  -1  -1   -4.40    5.70
  -2   1   1   -0.50    5.60
  -2   1   1    0.90    5.00
   1  -1  -1 4693.23  143.19
   1  -1  -1 4672.93  143.19
  -1   1   1 4718.83  143.29
  -1   1   1 4912.41  143.39
   0  -1  -1  913.51   28.20
   0  -1  -1  884.51   28.10
   0   1   1  908.11   28.30
   0   1   1  856.11   28.20
  -1  -1  -1   86.89    6.60
  -1  -1  -1   69.19    6.50
   1   1   1   78.09    6.40
   1   1   1   62.29    5.90
  -2  -1  -1 1268.87   40.80
   2   1   1 1172.48   40.40
  -3  -1  -1  155.98   13.70
   3   1   1  163.08   13.40
  -4  -1  -1   24.60    9.50
   4   1   1   13.90    8.70
  -5  -1  -1   87.49   15.70
   5   1   1   70.59   13.80
  -6  -1  -1    9.80   15.70
   6   1   1    7.40   14.40
   5  -2  -1   -2.60   11.70
  -5   2   1   12.60   12.80
   4  -2  -1   -0.50    9.20
  -4   2   1    1.60    9.10
   3  -2  -1   12.40    7.40
  -3   2   1    7.60    7.60
   2  -2  -1  261.67   14.60
  -2   2   1  240.78   14.30
   1  -2  -1   74.29    7.40
  -1   2   1   80.69    8.40
  -1   2   1   71.89    7.20
   0  -2  -1  477.45   18.50
   0  -2  -1  477.35   18.60
   0   2   1  484.15   18.50
   0   2   1  480.35   18.90
  -1  -2  -1   18.20    5.90
   1   2   1    8.40    5.60
   1   2   1   21.30    6.10
  -2  -2  -1  181.98   13.00
   2   2   1  165.48   12.60
  -3  -2  -1    9.60    7.10
   3   2   1    9.60    7.10
  -4  -2  -1   22.50    9.60
   4   2   1   11.70    9.70
  -5  -2  -1  -16.20   10.60
   5   2   1   -6.70   10.80
  -6  -2  -1   -1.60   15.60
   6   2   1  -10.40   13.20
   5  -3  -1   40.60   13.90
  -5   3   1  -11.70   12.20
   4  -3  -1    5.10   10.30
  -4   3   1  -10.70   10.00
   3  -3  -1    4.20    8.50
  -3   3   1    3.20    8.20
   2  -3  -1   51.29    8.70
  -2   3   1   44.20    8.50
   1  -3  -1 1323.17   41.80
  -1   3   1 1131.89   42.20
   0  -3  -1   -1.60    6.40
   0   3   1    4.90    5.70
  -1  -3  -1   44.30    7.50
   1   3   1   56.49    8.40
  -2  -3  -1   89.59    9.80
   2   3   1  123.39   11.10
  -3  -3  -1   52.69   10.30
   3   3   1   52.99    9.40
  -4  -3  -1   42.70   12.70
   4   3   1   47.90   11.50
  -5  -3  -1   11.20   12.40
   5   3   1    6.10   12.40
   4  -4  -1    6.80   11.20
  -4   4   1    7.90   11.70
   3  -4  -1   -3.50    9.70
  -3   4   1   -3.40    9.40
   2  -4  -1    7.10    8.60
  -2   4   1   13.40    9.80
   1  -4  -1   27.10    8.60
  -1   4   1    9.50    8.70
   0  -4  -1   -3.40    7.30
   0   4   1   -2.40    7.70
  -1  -4  -1   36.40    9.10
   1   4   1   27.80    8.70
  -2  -4  -1  190.28   16.20
   2   4   1  210.98   16.80
  -3  -4  -1   -3.40    9.80
   3   4   1    0.30    9.90
  -4  -4  -1   58.39   12.90
   4   4   1   45.20   13.90
  -5  -4  -1   15.60   14.00
   5   4   1    8.10   12.70
  -4   5   1   15.20   15.40
   3  -5  -1   14.70   11.80
  -3   5   1   -6.90   13.20
   2  -5  -1   33.70   11.90
  -2   5   1   24.60   11.90
   1  -5  -1   21.00   10.30
  -1   5   1   21.30   11.10
   0  -5  -1    8.50    9.40
   0   5   1    5.10    9.30
  -1  -5  -1   27.00   10.50
   1   5   1   21.90    9.80
  -2  -5  -1   28.40   11.90
   2   5   1   24.30   10.60
  -3  -5  -1    6.80   12.00
   3   5   1   16.80   13.70
  -4  -5  -1   20.90   13.20
   4   5   1   32.20   14.60
  -3   6   1   -7.20   16.30
   2  -6  -1   52.29   14.40
  -2   6   1   18.10   15.70
   1  -6  -1   39.50   12.50
  -1   6   1   22.90   14.00
   0  -6  -1   33.30   12.30
   0   6   1   41.10   12.70
  -1  -6  -1   -6.70   11.30
   1   6   1    9.00   11.80
  -2  -6  -1   27.80   13.00
   2   6   1   21.60   13.60
  -3  -6  -1  164.48   20.20
   3   6   1  184.68   21.20
  -1   7   1    8.70   14.70
   0  -7  -1    0.70   13.20
   0   7   1   15.80   14.80
  -1  -7  -1   23.30   13.70
   1   7   1   15.30   15.10
  -2  -7  -1   16.10   15.40
   2   7   1    7.80   14.30
   2   7  -2   41.80   17.20
  -2  -7   2   44.50   16.10
   1   7  -2    3.70   14.80
  -1  -7   2   18.00   14.70
   0   7  -2   34.00   16.30
   0  -7   2   24.60   14.70
  -1   7  -2  -15.90   14.20
   1  -7   2   25.80   15.40
   3   6  -2   21.10   15.50
  -3  -6   2   -0.10   14.40
   2   6  -2   -8.40   11.70
  -2  -6   2   16.70   12.80
   1   6  -2    7.50   12.80
  -1  -6   2    1.40   12.30
   0   6  -2   19.60   12.20
   0  -6   2   26.30   11.90
  -1   6  -2   16.90   12.70
   1  -6   2   22.90   12.70
  -2   6  -2   -8.20   13.30
   2  -6   2   -0.80   13.30
  -3   6  -2   -6.30   15.90
   3  -6   2   13.80   15.00
   4   5  -2  107.29   17.30
  -4  -5   2  108.19   16.50
   3   5  -2    2.10   11.50
  -3  -5   2   -3.00   12.00
   2   5  -2  -15.60   10.30
  -2  -5   2    6.30   11.10
   1   5  -2   68.09   12.10
  -1  -5   2   33.30   10.50
   0   5  -2  110.69   13.50
   0  -5   2  121.69   14.20
  -1   5  -2  285.97   21.40
   1  -5   2  295.17   21.10
  -2   5  -2   21.40   11.80
   2  -5   2   15.40   12.00
  -3   5  -2   -8.20   13.40
   3  -5   2   31.40   13.00
  -4   5  -2   -2.60   14.20
   4  -5   2  -14.90   13.40
   5   4  -2    9.70   13.80
  -5  -4   2    8.30   15.30
   4   4  -2    3.00   12.60
  -4  -4   2   20.00   11.70
   3   4  -2   67.69   12.20
  -3  -4   2   96.89   13.00
   2   4  -2   12.10    8.50
  -2  -4   2   17.30    9.50
   1   4  -2   11.80    8.50
  -1  -4   2    0.70    8.30
   0   4  -2   49.20    9.40
   0  -4   2   37.10    8.60
  -1   4  -2    9.40    8.40
   1  -4   2   24.90    9.00
  -2   4  -2   29.50    9.80
   2  -4   2   37.30    9.40
  -3   4  -2    1.70   11.10
   3  -4   2    7.10   10.80
  -4   4  -2   22.70   13.90
   4  -4   2   30.20   12.60
   5   3  -2   27.30   12.70
  -5  -3   2   50.99   15.70
   4   3  -2   12.00   10.50
  -4  -3   2   16.90   10.30
   3   3  -2  425.66   22.20
  -3  -3   2  449.06   22.20
   2   3  -2   30.20    8.20
  -2  -3   2   38.10    8.50
   1   3  -2   29.70    6.70
  -1  -3   2   46.90    8.20
   0   3  -2  148.09   12.40
   0  -3   2  157.08   13.00
  -1   3  -2  269.97   15.70
   1  -3   2  248.88   15.10
  -2   3  -2   37.20    8.50
   2  -3   2   35.00    8.10
  -3   3  -2   75.09   11.90
   3  -3   2   71.29   11.70
  -4   3  -2    5.60   10.90
   4  -3   2    6.80   10.10
  -5   3  -2   -0.60   12.80
   5  -3   2    4.30   13.50
   6   2  -2   -9.20   13.90
  -6  -2   2   10.30   15.00
   5   2  -2    5.60   11.50
  -5  -2   2   10.70   12.20
   4   2  -2   14.00    9.70
  -4  -2   2   17.00    9.90
   3   2  -2   16.10    7.90
  -3  -2   2   21.10    7.00
   2   2  -2  197.98   12.90
  -2  -2   2  201.78   13.30
   1   2  -2   44.90    6.80
  -1  -2   2   44.50    6.80
  -1  -2   2   50.29    6.40
   0   2  -2  752.42   25.90
   0   2  -2  762.72   25.70
   0  -2   2  713.43   25.90
   0  -2   2  678.83   25.50
  -1   2  -2   23.80    6.50
   1  -2   2   21.50    6.60
  -2   2  -2   26.00    7.00
   2  -2   2   28.40    7.30
  -3   2  -2   -1.50    6.50
   3  -2   2    0.70    7.10
  -4   2  -2   24.10   10.20
   4  -2   2   17.20   10.50
  -5   2  -2   -4.60   11.80
   5  -2   2    6.10   12.30
   6   1  -2  -11.50   13.20
  -6  -1   2   -9.30   13.20
   5   1  -2   14.20   10.80
  -5  -1   2   -3.20   11.50
   4   1  -2    2.70    8.30
  -4  -1   2    3.70    9.10
   3   1  -2  647.74   25.20
  -3  -1   2  617.34   25.80
   2   1  -2   48.20    6.80
  -2  -1   2   55.29    7.60
  -2  -1   2   46.00    6.10
   1   1  -2   -0.20    4.50
   1   1  -2    2.80    4.40
  -1  -1   2    6.50    4.20
  -1  -1   2   -1.60    4.90
   0   1  -2 1048.30   32.70
   0   1  -2 1023.20   32.70
   0  -1   2 1048.50   32.60
   0  -1   2 1007.50   32.70
  -1   1  -2    1.70    5.10
  -1   1  -2   -3.80    4.50
   1  -1   2    9.00    4.50
   1  -1   2   -9.30    4.80
  -2   1  -2   10.10    6.10
   2  -1   2    6.40    5.80
  -3   1  -2    3.40    6.00
   3  -1   2   13.90    7.50
  -4   1  -2    8.30    8.90
   4  -1   2    4.00    9.00
  -5   1  -2   12.10   11.70
   5  -1   2   -4.60   11.20
  -6   1  -2  -14.30   14.40
   6  -1   2   17.00   14.20
  -6   0   2   42.70   16.40
   5   0  -2   -5.90   10.20
  -5   0   2   18.80   11.30
   4   0  -2   42.10    9.30
  -4   0   2   33.00    8.80
   3   0  -2  124.29   12.00
  -3   0   2  128.19   12.20
   2   0  -2  192.28   11.30
   2   0  -2  205.28    8.10
  -2   0   2  194.38   11.30
   1   0  -2  134.79    7.10
   1   0  -2  125.89    6.20
   1   0  -2  128.59    7.20
  -1   0   2  124.79    7.40
  -1   0   2  125.59    7.20
   0   0   2   -0.60    1.30
  -1   0  -2  632.84   19.80
  -1   0  -2  634.64   21.40
   1   0   2  654.93   21.40
   1   0   2  655.03   21.40
  -2   0  -2  922.51   31.00
   2   0   2  869.01   30.80
  -3   0  -2   32.80    7.30
   3   0   2   57.99    8.70
  -4   0  -2   58.19   11.00
   4   0   2   55.99   10.50
  -5   0  -2  136.09   15.80
   5   0   2  103.69   13.90
  -6   0  -2   26.70   15.80
   6   0   2   28.10   15.30
  -6   1   2    7.80   13.90
   5  -1  -2  -11.40   10.60
  -5   1   2    8.50   10.40
   4  -1  -2   -8.00    8.20
  -4   1   2   -5.80    8.30
   3  -1  -2   19.70    7.20
  -3   1   2   22.90    3.70
  -3   1   2   32.60    7.70
   2  -1  -2   80.09    7.40
  -2   1   2   69.69    6.80
  -2   1   2   66.99    7.00
   1  -1  -2   20.20    4.30
   1  -1  -2   15.50    4.70
  -1   1   2    9.90    4.30
  -1   1   2    5.40    4.20
   0  -1  -2  513.25   17.10
   0  -1  -2  511.35   17.00
   0   1   2  505.35   17.10
   0   1   2  528.75   17.20
  -1  -1  -2  318.77   13.20
  -1  -1  -2  305.97   12.80
   1   1   2  335.57   13.30
   1   1   2  322.47   13.40
  -2  -1  -2   24.70    6.20
   2   1   2   46.60    7.00
  -3  -1  -2    8.60    7.50
   3   1   2   -0.60    6.60
  -4  -1  -2   -3.70    9.40
   4   1   2    8.20    8.10
  -5  -1  -2   38.10   12.00
   5   1   2    7.10   11.00
  -6  -1  -2   -5.30   15.20
   6   1   2    0.90   14.00
   5  -2  -2   34.60   12.60
  -5   2   2   17.90   12.60
   4  -2  -2  130.19   13.80
  -4   2   2   75.19   11.00
   3  -2  -2   11.80    7.20
  -3   2   2   -5.30    6.40
   2  -2  -2    5.80    6.50
  -2   2   2    9.10    6.70
   1  -2  -2  251.77   12.70
  -1   2   2  271.07   13.10
  -1   2   2  261.27   13.40
   0  -2  -2  697.03   24.30
   0  -2  -2  650.83   24.30
   0   2   2  725.23   25.10
   0   2   2  719.53   24.60
  -1  -2  -2  221.38   12.60
   1   2   2  229.68   12.30
   1   2   2  235.18   12.50
  -2  -2  -2 1928.01   63.99
   2   2   2 2059.89   64.19
  -3  -2  -2   10.90    7.70
   3   2   2   -3.90    7.20
  -4  -2  -2  139.49   14.60
   4   2   2  126.39   13.80
  -5  -2  -2    8.10   13.00
   5   2   2   40.80   13.20
  -6  -2  -2   11.20   16.00
   6   2   2  -22.90   13.20
  -5   3   2   10.60   13.70
   4  -3  -2    6.90   10.30
  -4   3   2    3.50    9.10
   3  -3  -2    7.40    8.40
  -3   3   2   14.20    8.80
   2  -3  -2    3.90    6.80
  -2   3   2   10.20    6.70
   1  -3  -2  258.27   14.60
  -1   3   2  300.47   16.20
   0  -3  -2   10.70    6.50
   0   3   2    6.40    6.30
  -1  -3  -2   56.19    8.20
   1   3   2   49.00    7.80
  -2  -3  -2  139.89   12.90
   2   3   2  133.99   13.00
  -3  -3  -2   92.09   10.70
   3   3   2   79.69   10.10
  -4  -3  -2   18.20   11.00
   4   3   2   20.40   10.90
  -5  -3  -2   14.60   14.00
   5   3   2    8.00   13.80
   4  -4  -2    4.80   11.20
  -4   4   2   17.50   13.00
   3  -4  -2    0.20    9.80
  -3   4   2  -10.70    9.80
   2  -4  -2  263.87   17.40
  -2   4   2  216.08   18.00
   1  -4  -2   17.10    8.10
  -1   4   2   62.89   10.50
   0  -4  -2   41.90    8.80
   0   4   2   18.60    7.50
  -1  -4  -2  698.13   28.50
   1   4   2  691.63   28.20
  -2  -4  -2   19.70    9.10
   2   4   2    8.70    8.30
  -3  -4  -2   33.50   10.40
   3   4   2   14.60   10.10
  -4  -4  -2   -4.20   11.10
   4   4   2  -10.00   11.40
  -5  -4  -2   16.70   15.30
   5   4   2   14.50   13.80
  -4   5   2    6.10   14.30
   3  -5  -2   16.30   12.30
  -3   5   2   13.90   13.40
   2  -5  -2   22.00   11.20
  -2   5   2   26.30   11.70
   1  -5  -2    2.40    9.20
  -1   5   2    7.80    9.80
   0  -5  -2   14.30    9.20
   0   5   2    2.20    9.70
  -1  -5  -2  397.26   21.50
   1   5   2  317.37   21.70
  -2  -5  -2   19.30   11.10
   2   5   2  -17.00    9.30
  -3  -5  -2   32.40   13.00
   3   5   2   37.10   13.40
  -4  -5  -2  131.49   18.10
   4   5   2  103.09   16.90
  -3   6   2   15.70   16.20
   2  -6  -2   23.10   12.50
  -2   6   2    3.60   14.40
   1  -6  -2    9.80   11.40
  -1   6   2   -9.10   12.20
   0  -6  -2  -19.40   10.50
   0   6   2   -3.40   11.80
  -1  -6  -2   36.80   12.80
   1   6   2   70.69   14.90
  -2  -6  -2   19.30   13.10
   2   6   2   16.70   12.50
  -3  -6  -2   36.80   14.50
   3   6   2   54.89   16.60
  -1   7   2    1.20   15.70
   0   7   2   16.20   14.50
  -1  -7  -2   -0.70   13.40
   1   7   2   12.40   16.40
  -2  -7  -2   56.79   16.90
   2   7   2   15.40   16.50
   2   7  -3    5.00   15.50
  -2  -7   3   -4.10   14.20
   1   7  -3   45.30   15.60
  -1  -7   3   48.60   16.50
   0   7  -3    8.40   15.60
   0  -7   3    9.30   13.70
  -1   7  -3    8.80   15.40
   1  -7   3   19.30   14.50
   3   6  -3    2.60   13.70
  -3  -6   3    5.50   15.20
   2   6  -3  112.29   16.70
  -2  -6   3   99.99   17.90
   1   6  -3   51.39   14.80
  -1  -6   3   27.80   12.70
   0   6  -3   17.20   12.50
   0  -6   3   34.20   12.60
  -1   6  -3    6.30   12.90
   1  -6   3   16.30   13.30
  -2   6  -3   32.50   15.70
   2  -6   3   19.00   13.60
  -3   6  -3    3.30   16.20
   3  -6   3   -5.60   13.70
   4   5  -3   11.20   15.00
  -4  -5   3    8.00   13.90
   3   5  -3  -23.40   11.60
  -3  -5   3   -4.70   11.00
   2   5  -3   36.80   11.80
  -2  -5   3   21.50   11.10
   1   5  -3   12.60    9.70
  -1  -5   3   -1.90   10.20
   0   5  -3   -7.40    9.80
   0  -5   3  -10.50    9.20
  -1   5  -3   22.60   10.10
   1  -5   3    1.40   10.10
  -2   5  -3   -6.80    9.70
   2  -5   3   15.30   10.60
  -3   5  -3  -13.00   12.20
   3  -5   3   11.50   12.50
  -4   5  -3    1.90   15.50
   4  -5   3   -4.30   13.30
   5   4  -3  133.69   18.70
  -5  -4   3   97.39   18.60
   4   4  -3   -7.30   12.20
  -4  -4   3    2.10   11.00
   3   4  -3   83.39   12.90
  -3  -4   3   81.39   12.50
   2   4  -3  292.17   18.60
  -2  -4   3  249.28   18.20
   1   4  -3    4.60    8.00
  -1  -4   3   -0.60    8.70
   0   4  -3  341.37   19.80
   0  -4   3  361.36   19.20
  -1   4  -3   87.39   12.10
   1  -4   3   83.19   10.70
  -2   4  -3   30.30    9.90
   2  -4   3    6.30    9.10
  -3   4  -3   58.09   13.20
   3  -4   3   73.09   13.50
  -4   4  -3   63.29   15.10
   4  -4   3   32.60   13.00
   5   3  -3   17.50   12.30
  -5  -3   3    1.10   12.90
  -4  -3   3   16.50   10.80
   3   3  -3   17.90    9.10
  -3  -3   3   13.30    8.90
   2   3  -3   56.19    9.10
  -2  -3   3   36.50    8.40
   1   3  -3   71.49    9.10
  -1  -3   3   50.79    8.20
   0   3  -3  282.67   15.60
   0  -3   3  248.48   15.10
  -1   3  -3   35.60    8.60
   1  -3   3   38.10    8.00
  -2   3  -3   -2.70    7.20
   2  -3   3   10.60    7.50
  -3   3  -3   83.39   11.30
   3  -3   3  102.19   12.10
  -4   3  -3   10.60   11.20
   4  -3   3   -0.40   10.70
  -5   3  -3   15.20   12.60
   5  -3   3  -18.60   12.60
  -6  -2   3   16.50   15.90
   5   2  -3  -17.30   11.00
  -5  -2   3   12.90   12.10
   4   2  -3   21.00    9.50
  -4  -2   3   32.20   10.70
   3   2  -3   54.59    8.90
  -3  -2   3   66.59    9.10
   2   2  -3   20.10    6.20
  -2  -2   3   15.10    6.20
   1   2  -3   92.39    8.30
  -1  -2   3   85.09    8.40
   0   2  -3 3324.17  103.09
   0   2  -3 3428.66  102.89
   0  -2   3 3302.67  102.89
  -1   2  -3  123.09   11.70
   1  -2   3  116.19   10.70
  -2   2  -3   49.60    7.70
   2  -2   3   45.30    7.90
  -3   2  -3   -1.00    7.40
   3  -2   3   10.30    8.20
  -4   2  -3    8.30    9.50
   4  -2   3   -2.30    9.70
  -5   2  -3    4.60   12.50
   5  -2   3  -16.20   12.00
  -6  -1   3   32.80   15.40
   5   1  -3   12.60   11.10
  -5  -1   3   -2.20   11.70
   4   1  -3   32.90    9.50
  -4  -1   3   43.50   10.80
   3   1  -3  345.97   17.20
  -3  -1   3  330.57   17.80
   2   1  -3    3.90    5.60
  -2  -1   3    4.00    6.20
  -2  -1   3    7.00    5.10
   1   1  -3   88.19    7.80
   1   1  -3   83.69    7.70
  -1  -1   3   73.29    6.40
  -1  -1   3   88.39    7.20
   0   1  -3  388.66   14.40
   0   1  -3  384.06   14.30
   0  -1   3  396.86   14.70
   0  -1   3  416.26   14.40
  -1   1  -3  256.57   12.00
  -1   1  -3  273.17   12.40
   1  -1   3  267.77   11.90
   1  -1   3  251.37   12.20
  -2   1  -3    6.00    5.70
   2  -1   3    2.70    6.30
  -3   1  -3  297.77   16.20
   3  -1   3  255.57   15.90
  -4   1  -3   15.10    9.70
   4  -1   3   22.10    9.60
  -5   1  -3   11.10   11.50
   5  -1   3    2.80   11.50
  -6   1  -3    3.40   14.30
   6  -1   3   12.10   13.80
  -6   0   3   16.50   15.00
   5   0  -3   22.30   11.00
  -5   0   3   -2.00   10.70
   4   0  -3  274.07   18.30
  -4   0   3  287.47   18.60
   3   0  -3    6.10    6.70
  -3   0   3   -0.20    6.40
   2   0  -3  157.78    7.80
   2   0  -3  161.28   10.60
  -2   0   3  159.68   10.40
  -2   0   3  179.98   11.30
   1   0  -3 1392.56   43.00
   1   0  -3 1393.46   42.90
   1   0  -3 1406.26   42.90
  -1   0   3 1373.06   43.10
  -1   0   3 1389.16   43.00
   0   0  -3    0.00    2.10
   0   0   3   -1.00    1.90
  -1   0  -3  869.81   28.20
  -1   0  -3  864.31   28.30
  -1   0  -3  879.31   27.20
   1   0   3  878.91   28.20
   1   0   3  882.41   28.30
  -2   0  -3   26.30    6.30
   2   0   3   30.20    6.50
  -3   0  -3   -6.80    6.40
   3   0   3   -3.60    6.00
  -4   0  -3  -12.60    8.20
   4   0   3    6.90    8.60
  -5   0  -3   33.40   12.40
   5   0   3   40.10   12.90
  -6   0  -3    0.20   14.50
   6   0   3   22.00   14.90
  -6   1   3   -2.60   12.70
   5  -1  -3   16.30   10.70
  -5   1   3   10.30   10.60
   4  -1  -3   27.80    9.40
  -4   1   3   27.50    9.90
   3  -1  -3   17.60    6.90
  -3   1   3   13.40    6.20
  -3   1   3    7.90    3.60
   2  -1  -3  178.88   11.00
  -2   1   3  168.08    8.50
  -2   1   3  179.58   10.70
  -2   1   3  151.68   11.10
   1  -1  -3 9370.16  284.07
   1  -1  -3 8957.50  283.97
  -1   1   3 9651.13  284.07
  -1   1   3 9999.00  284.27
   0  -1  -3  814.62   26.10
   0  -1  -3  858.81   26.00
   0   1   3  822.62   26.20
   0   1   3  821.82   26.20
  -1  -1  -3  185.88    9.90
  -1  -1  -3  166.48    9.20
   1   1   3  187.98    9.70
   1   1   3  178.18    9.60
  -2  -1  -3 1061.29   36.60
   2   1   3 1113.79   36.70
  -3  -1  -3  306.77   17.10
   3   1   3  288.97   16.60
  -4  -1  -3   72.49   11.50
   4   1   3   86.79   11.10
  -5  -1  -3  191.38   20.00
   5   1   3  204.08   18.80
  -6  -1  -3  -20.20   13.10
   6   1   3   -2.70   12.80
   5  -2  -3    6.20   11.40
  -5   2   3   28.00   13.00
   4  -2  -3    8.20    9.00
  -4   2   3   -6.80    8.40
   3  -2  -3   77.29    9.80
  -3   2   3   76.89    9.50
   2  -2  -3    6.30    5.90
  -2   2   3   17.80    6.30
  -2   2   3   17.70    9.90
   1  -2  -3   41.90    6.30
  -1   2   3   43.00    5.80
  -1   2   3   40.50    6.70
   0  -2  -3  995.40   33.30
   0  -2  -3 1015.20   33.30
   0   2   3 1018.40   33.80
   0   2   3 1034.60   33.60
  -1  -2  -3   63.49    7.00
   1   2   3   74.39    7.30
  -2  -2  -3  237.48   14.20
   2   2   3  226.38   13.70
  -3  -2  -3    2.70    7.50
   3   2   3   -2.60    7.10
  -4  -2  -3   45.00   10.60
   4   2   3   25.30    9.30
  -5  -2  -3   29.00   12.70
   5   2   3   34.00   11.70
  -6  -2  -3   23.10   14.90
   6   2   3   26.10   15.60
  -5   3   3   15.70   12.40
   4  -3  -3   -6.60    9.50
  -4   3   3  -18.20    9.50
   3  -3  -3    0.30    8.30
  -3   3   3    6.60    8.60
   2  -3  -3   23.90    7.70
  -2   3   3   26.20    7.40
   1  -3  -3   62.39    8.10
  -1   3   3   52.79    8.40
   0  -3  -3  154.08   11.40
   0   3   3  136.39   11.50
  -1  -3  -3  710.63   26.70
   1   3   3  709.33   26.80
  -2  -3  -3  167.28   13.30
   2   3   3  175.38   13.50
  -3  -3  -3    8.70    8.20
   3   3   3   28.90    8.20
  -4  -3  -3  362.46   23.60
   4   3   3  371.16   23.50
  -5  -3  -3   -2.00   11.60
   5   3   3    1.10   13.30
   4  -4  -3    5.80   12.00
  -4   4   3  -18.30   10.90
   3  -4  -3    0.10    9.30
  -3   4   3   -5.50   10.20
   2  -4  -3   64.39   10.20
  -2   4   3   68.29   11.20
   1  -4  -3   11.70    7.50
  -1   4   3   27.10    9.10
   0  -4  -3    3.20    6.70
   0   4   3   11.40    7.40
  -1  -4  -3  246.18   16.50
   1   4   3  293.37   17.10
  -2  -4  -3  161.68   14.20
   2   4   3  165.28   15.60
  -3  -4  -3   -2.90    8.70
   3   4   3   23.70   10.60
  -4  -4  -3    2.30   10.80
   4   4   3   33.40   11.90
  -5  -4  -3   31.50   13.70
  -4   5   3   13.70   15.20
   3  -5  -3   12.90   11.40
  -3   5   3    8.10   12.60
   2  -5  -3    5.50   10.00
  -2   5   3   -0.50   10.90
   1  -5  -3   24.60    9.50
  -1   5   3   32.40   11.60
   0  -5  -3  167.48   16.20
   0   5   3  151.88   14.70
  -1  -5  -3  245.88   18.60
   1   5   3  229.78   19.10
  -2  -5  -3   62.49   13.20
   2   5   3   83.49   13.50
  -3  -5  -3    3.50   11.40
   3   5   3   -0.30   11.50
  -4  -5  -3  -14.30   12.00
   4   5   3   -8.50   12.60
  -3   6   3   13.80   15.40
  -2   6   3   -1.70   14.50
   1  -6  -3    5.20   11.10
  -1   6   3    3.80   11.90
   0  -6  -3   29.90   11.70
   0   6   3   37.40   12.70
  -1  -6  -3   -0.80   10.60
   1   6   3    5.00   12.10
  -2  -6  -3    3.20   12.20
   2   6   3   23.00   12.80
  -3  -6  -3   99.79   17.20
   3   6   3  158.78   20.50
  -1   7   3   14.30   15.60
   0   7   3    5.30   15.50
   1   7   3   -0.10   15.60
   2   7   3    3.70   14.40
   1   7  -4   47.60   15.70
  -1  -7   4   11.60   13.60
   0   7  -4   -8.30   14.00
   0  -7   4  -13.30   13.00
  -1   7  -4   34.30   15.80
   1  -7   4   49.30   15.80
   3   6  -4   -8.80   14.40
  -3  -6   4   13.10   14.70
   2   6  -4   78.29   16.80
  -2  -6   4   54.29   15.30
   1   6  -4   17.70   13.90
  -1  -6   4   17.40   12.70
   0   6  -4   40.50   13.80
   0  -6   4   -0.20   12.10
  -1   6  -4    6.20   13.70
   1  -6   4  -14.40   12.10
  -2   6  -4    1.40   12.70
   2  -6   4    8.30   13.80
  -3   6  -4    4.00   15.30
   3  -6   4    3.60   14.90
   4   5  -4   29.10   15.00
  -4  -5   4   32.00   14.50
   3   5  -4   29.90   13.40
  -3  -5   4   31.30   12.50
   2   5  -4  125.39   14.50
  -2  -5   4  126.29   16.30
   1   5  -4    9.90    9.80
  -1  -5   4   12.50   10.70
   0   5  -4  113.59   13.10
   0  -5   4  137.29   14.90
  -1   5  -4  151.38   15.50
   1  -5   4  162.18   15.50
  -2   5  -4    6.50   11.80
   2  -5   4   14.00   12.00
  -3   5  -4    2.00   13.50
   3  -5   4   19.90   13.60
  -4   5  -4   27.40   16.00
   4  -5   4   16.60   14.60
   5   4  -4  -12.50   13.60
  -5  -4   4   12.20   14.60
   4   4  -4   45.80   14.00
  -4  -4   4   32.00   12.70
   3   4  -4   11.20   10.70
  -3  -4   4   15.90   10.30
   2   4  -4   19.30    8.80
  -2  -4   4   20.00    9.60
   1   4  -4   24.00    8.60
  -1  -4   4    1.50    8.40
   0   4  -4    6.90    8.30
   0  -4   4   21.50    8.30
  -1   4  -4  116.69   12.40
   1  -4   4  143.39   13.30
  -2   4  -4   -1.80    8.70
   2  -4   4    6.30    9.80
  -3   4  -4   22.70   11.40
   3  -4   4   19.50   11.10
  -4   4  -4    0.60   13.70
   4  -4   4   40.00   13.60
  -5  -3   4   20.00   12.70
   4   3  -4   12.10    9.80
  -4  -3   4   21.90   11.00
   3   3  -4  953.00   36.90
  -3  -3   4  970.60   36.90
   2   3  -4   20.80    8.00
  -2  -3   4   19.90    7.90
   1   3  -4   19.50    6.90
  -1  -3   4   26.20    7.40
   0   3  -4   12.70    7.30
   0  -3   4   20.60    7.80
  -1   3  -4  121.39   11.10
   1  -3   4   84.09   10.20
  -2   3  -4  162.08   14.80
   2  -3   4  191.38   14.90
  -3   3  -4  586.84   27.30
   3  -3   4  573.84   26.90
  -4   3  -4    5.80   11.40
   4  -3   4   23.90   11.30
  -5   3  -4   18.90   14.30
   5  -3   4  -13.70   12.90
  -6  -2   4   -1.30   15.50
   5   2  -4   -2.40   11.70
  -5  -2   4    2.00   10.90
   4   2  -4   -1.90    9.40
  -4  -2   4   -0.70    7.90
   3   2  -4  138.09   11.70
  -3  -2   4  122.29   11.90
   2   2  -4   62.29    8.20
  -2  -2   4   48.90    8.00
   1   2  -4   59.09    7.20
  -1  -2   4   60.79    7.60
  -1  -2   4   50.69    6.50
   0   2  -4  809.42   29.70
   0  -2   4  913.11   30.30
   0  -2   4  870.31   29.60
  -1   2  -4   44.20    7.30
   1  -2   4   31.60    7.30
  -2   2  -4   27.60    7.80
   2  -2   4   18.90    7.00
  -3   2  -4    4.90    7.00
   3  -2   4    6.30    7.50
  -4   2  -4   -1.40    9.40
   4  -2   4   -3.30    9.10
  -5   2  -4    7.50   13.30
   5  -2   4   17.60   12.70
  -6  -1   4    6.10   15.30
   5   1  -4   31.80   11.50
  -5  -1   4   37.90   13.40
   4   1  -4    6.30    4.50
   4   1  -4   13.90    8.70
  -4  -1   4   -3.30    9.10
   3   1  -4  199.58   13.90
  -3  -1   4  179.88   13.90
   2   1  -4  137.89   10.50
  -2  -1   4  144.79   10.10
  -2  -1   4  152.48   11.40
   1   1  -4 1563.74   49.00
   1   1  -4 1532.35   49.10
  -1  -1   4 1567.54   49.10
  -1  -1   4 1621.34   49.30
   0   1  -4   55.79    5.00
   0   1  -4   51.49    5.10
   0  -1   4   60.89    5.20
   0  -1   4   53.09    5.40
  -1   1  -4   -3.40    5.10
  -1   1  -4    5.10    4.80
   1  -1   4   -7.60    4.50
   1  -1   4   -3.30    4.90
  -2   1  -4  513.25   21.20
   2  -1   4  584.34   22.00
  -3   1  -4   -0.30    6.80
   3  -1   4    8.80    6.90
  -4   1  -4   15.30   10.00
   4  -1   4   17.40    9.60
  -5   1  -4   14.40   12.80
   5  -1   4  -10.00   10.80
  -6   1  -4    7.70   15.10
   6  -1   4   10.40   14.00
  -6   0   4  -13.40   12.10
   5   0  -4   -3.50   10.30
  -5   0   4    5.80   11.10
   4   0  -4  213.48   16.20
  -4   0   4  202.48   16.50
   3   0  -4   12.10    6.50
  -3   0   4    8.30    6.60
   2   0  -4  240.78   12.10
   2   0  -4  242.78   10.70
  -2   0   4  242.18   12.30
  -2   0   4  248.68   12.90
   1   0  -4 4199.28  125.49
   1   0  -4 4100.79  124.89
   1   0  -4 3984.20  124.89
  -1   0   4 4268.77  125.09
  -1   0   4 4250.67  125.19
   0   0  -4   64.19    5.40
   0   0   4   60.99    4.90
  -1   0  -4  368.06   13.10
  -1   0  -4  383.36   13.70
  -1   0  -4  370.96   14.00
   1   0   4  360.36   14.10
   1   0   4  368.96   13.90
  -2   0  -4  314.97   15.70
   2   0   4  359.16   15.50
   2   0   4  378.66   16.00
  -3   0  -4    3.30    7.00
   3   0   4    9.10    7.00
  -4   0  -4   -2.10    8.40
   4   0   4    5.10    8.20
  -5   0  -4   71.89   14.40
   5   0   4   69.29   14.30
  -6   0  -4   -4.30   15.00
   6   0   4    8.40   14.70
  -6   1   4   -5.10   13.00
   5  -1  -4   22.20   11.60
  -5   1   4   -1.80   10.10
   4  -1  -4    6.30    8.20
  -4   1   4    9.50    8.60
   3  -1  -4    8.20    6.40
  -3   1   4   -1.10    3.60
  -3   1   4   -2.80    5.70
   2  -1  -4  367.76   15.60
  -2   1   4  353.26   15.70
  -2   1   4  369.46   14.10
  -2   1   4  369.56   15.50
   1  -1  -4 1978.70   61.19
   1  -1  -4 2049.09   61.19
  -1   1   4 1954.80   61.49
  -1   1   4 2010.40   61.39
   0  -1  -4  830.62   26.20
   0   1   4  844.82   26.50
   0   1   4  843.72   26.40
  -1  -1  -4  108.49    8.30
  -1  -1  -4  113.39    7.90
   1   1   4  107.49    8.40
   1   1   4  115.39    8.20
  -2  -1  -4   56.49    7.00
   2   1   4   53.09    7.10
   2   1   4   48.80    7.00
  -3  -1  -4    9.80    7.60
   3   1   4   -3.50    6.90
   3   1   4    6.00    3.60
  -4  -1  -4   10.80    9.20
   4   1   4   25.60    9.80
  -5  -1  -4  -10.10   11.10
   5   1   4    7.60   11.10
  -6  -1  -4   -3.60   15.70
   6   1   4   -4.80   13.20
   5  -2  -4   -5.30   16.00
  -5   2   4  -15.30   11.60
   4  -2  -4   28.90    9.80
  -4   2   4   45.10   10.60
   3  -2  -4   19.40    7.50
  -3   2   4   25.20    7.80
   2  -2  -4  677.93   25.40
  -2   2   4  709.83   26.20
  -2   2   4  685.33   25.60
   1  -2  -4   28.70    5.70
  -1   2   4   24.90    5.60
  -1   2   4   29.40    6.40
   0  -2  -4  175.18   10.40
   0  -2  -4  157.68    9.80
   0   2   4  153.38   10.00
   0   2   4  157.88   10.60
  -1  -2  -4 1197.88   40.30
   1   2   4 1271.07   40.30
   1   2   4 1236.58   40.30
  -2  -2  -4   41.10    7.10
   2   2   4   54.49    7.90
  -3  -2  -4   93.09   10.60
   3   2   4   77.09    9.30
  -4  -2  -4   90.49   11.80
   4   2   4   98.49   12.90
  -5  -2  -4   15.30   13.20
   5   2   4   -7.80   11.10
  -6  -2  -4    8.80   16.10
   6   2   4  -12.60   14.30
  -5   3   4    5.70   12.30
   4  -3  -4   14.80   10.00
  -4   3   4    3.00    9.80
   3  -3  -4   -4.00    7.70
  -3   3   4   -3.00    7.60
   2  -3  -4   13.10    7.40
  -2   3   4   11.00    7.00
   1  -3  -4   28.90    6.80
  -1   3   4   29.90    7.40
   0  -3  -4   23.00    6.30
   0   3   4   13.90    6.30
   0   3   4   24.60    6.60
  -1  -3  -4   78.99    9.20
   1   3   4   82.29    8.90
  -2  -3  -4    8.70    7.20
  -3  -3  -4   12.80    8.00
   3   3   4    7.40    8.50
  -4  -3  -4   15.60   11.20
   4   3   4   14.30   10.60
  -5  -3  -4   -3.60   13.20
   5   3   4    7.10   13.20
  -4   4   4   -9.70   11.20
   3  -4  -4   10.30   10.20
  -3   4   4    6.40   10.70
   2  -4  -4  190.98   15.50
  -2   4   4  197.18   16.80
   1  -4  -4   56.69    8.70
  -1   4   4   59.79    9.70
   0  -4  -4  104.39   10.70
   0   4   4   96.49   10.80
  -1  -4  -4  106.49   11.00
   1   4   4   81.79    9.80
  -2  -4  -4  130.49   12.20
   2   4   4  124.59   12.20
  -3  -4  -4  205.08   17.40
   3   4   4  155.68   15.20
  -4  -4  -4   28.50   12.10
  -5  -4  -4  -10.00   13.60
   5   4   4    2.50   12.90
  -4   5   4    3.00   14.80
  -3   5   4    3.20   13.40
   2  -5  -4   -8.30    9.10
  -2   5   4    7.70   10.80
   1  -5  -4   46.60   10.40
  -1   5   4   38.80   10.90
   0  -5  -4   49.30   10.60
   0   5   4   42.50   10.70
  -1  -5  -4   18.10    9.70
   1   5   4   13.20    9.50
  -2  -5  -4   14.10   10.60
   2   5   4   17.00   10.70
  -3  -5  -4   12.60   11.80
   3   5   4   28.40   12.60
  -4  -5  -4    9.50   12.70
   4   5   4   -4.90   13.40
  -3   6   4   30.50   16.90
  -2   6   4    4.30   14.10
   1  -6  -4    7.80   11.20
  -1   6   4   -0.50   11.70
   0  -6  -4   48.40   11.70
   0   6   4   43.20   13.50
  -1  -6  -4   15.80   11.50
   1   6   4   10.20   11.80
  -2  -6  -4  -13.40   11.60
   2   6   4  -11.90   12.90
  -3  -6  -4   77.89   15.90
   3   6   4   67.49   15.40
  -1   7   4   -9.00   15.00
   0   7   4   17.10   15.30
   1   7   4    3.50   14.50
   2   7   4   90.19   18.90
   1   7  -5   32.80   15.60
  -1  -7   5   38.50   16.50
   0   7  -5   19.00   15.00
   0  -7   5    5.20   15.00
  -1   7  -5   43.30   18.10
   1  -7   5   56.39   17.30
   3   6  -5   49.00   16.40
  -3  -6   5   66.99   16.70
   2   6  -5   55.69   14.60
  -2  -6   5   43.60   14.50
   1   6  -5   -0.40   11.70
  -1  -6   5   22.30   12.30
   0   6  -5   30.10   13.80
   0  -6   5    5.70   13.00
  -1   6  -5   24.80   14.60
   1  -6   5   28.10   14.10
  -2   6  -5   36.60   15.60
   2  -6   5   51.09   15.40
  -3   6  -5   38.30   16.00
   3  -6   5   23.30   16.10
   4   5  -5   -4.20   13.20
  -4  -5   5   14.50   12.90
   3   5  -5   82.59   14.90
  -3  -5   5   53.49   13.50
   2   5  -5   -2.60   10.60
  -2  -5   5    1.40   11.30
   1   5  -5  122.49   15.10
  -1  -5   5  110.09   14.20
   0   5  -5    6.00   10.30
   0  -5   5   11.20    9.90
  -1   5  -5   56.89   13.00
   1  -5   5   32.40   11.50
  -2   5  -5   -3.00   11.60
   2  -5   5   24.90   12.10
  -3   5  -5   19.50   14.30
   3  -5   5    9.30   13.00
  -4   5  -5   -5.70   13.40
   4  -5   5  -10.40   14.90
   5   4  -5   14.70   15.00
  -5  -4   5  -12.40   13.60
   4   4  -5  -11.50   11.60
  -4  -4   5   -3.50   12.10
   3   4  -5   11.20   10.10
  -3  -4   5   -1.50   10.00
   2   4  -5  142.79   14.10
  -2  -4   5  105.19   12.60
   1   4  -5  164.18   15.40
  -1  -4   5  162.08   14.10
   0   4  -5  523.95   24.70
   0  -4   5  591.14   25.10
  -1   4  -5   -2.90    8.50
   1  -4   5   -6.90    8.60
  -2   4  -5   59.89   11.70
   2  -4   5   38.30   10.80
  -3   4  -5    6.40   11.90
   3  -4   5   -6.50   10.60
  -4   4  -5  -10.80   13.00
   4  -4   5   -1.30   13.10
   5   3  -5    8.50   12.10
  -5  -3   5   -2.90   12.80
   4   3  -5   46.20   12.30
  -4  -3   5   59.69   13.00
   3   3  -5   11.70    8.50
  -3  -3   5   13.00    7.90
   2   3  -5   35.80    8.60
  -2  -3   5   56.49    9.50
   1   3  -5  111.99   10.00
  -1  -3   5  126.69   10.80
   0   3  -5  230.68   14.50
   0  -3   5  210.18   14.30
  -1   3  -5   15.20    7.80
   1  -3   5   19.30    7.30
  -2   3  -5   10.40    8.70
   2  -3   5    7.10    7.70
  -3   3  -5   61.49   10.60
   3  -3   5   46.10   10.90
  -4   3  -5    7.10   10.90
   4  -3   5   10.80   10.70
  -5   3  -5   -8.40   13.90
   5  -3   5  -17.20   12.90
  -6  -2   5   13.80   14.80
   5   2  -5   28.40   12.40
  -5  -2   5   29.70   13.10
   4   2  -5  338.67   20.90
  -4  -2   5  279.87   20.00
   3   2  -5   -1.50    7.20
  -3  -2   5    0.10    6.50
   2   2  -5    8.30    6.60
  -2  -2   5   -1.00    6.10
   1   2  -5  142.29   10.70
  -1  -2   5  143.49   10.50
  -1  -2   5  159.48   11.10
   0   2  -5    4.00    6.00
   0  -2   5    6.40    5.20
   0  -2   5    6.70    6.40
  -1   2  -5  169.38   11.50
   1  -2   5  151.58   11.90
  -2   2  -5  868.71   31.30
   2  -2   5  832.22   31.10
  -3   2  -5   -9.50    7.00
   3  -2   5   10.60    8.50
  -4   2  -5   -5.10    9.50
   4  -2   5   -2.40    9.00
  -5   2  -5   80.59   16.20
   5  -2   5   98.99   16.20
  -6  -1   5   20.40   15.60
   5   1  -5   13.90   11.30
  -5  -1   5    4.80   11.20
   4   1  -5   -0.20    4.90
   4   1  -5    7.40    8.60
  -4  -1   5   -1.30    7.80
   3   1  -5   22.10    7.00
  -3  -1   5   16.30    7.70
   2   1  -5    3.50    5.70
  -2  -1   5    6.60    5.10
  -2  -1   5    6.20    5.90
   1   1  -5 1183.38   36.80
   1   1  -5 1147.09   36.70
  -1  -1   5 1112.59   36.70
  -1  -1   5 1177.18   37.00
   0   1  -5  546.25   19.40
   0   1  -5  569.54   19.40
   0  -1   5  575.94   19.50
   0  -1   5  580.84   19.90
  -1   1  -5  246.28   12.10
  -1   1  -5  263.77   12.10
   1  -1   5  269.27   12.30
   1  -1   5  264.37   12.10
  -2   1  -5  348.97   16.40
   2  -1   5  367.66   16.90
  -3   1  -5   32.00    8.30
   3  -1   5   44.70    8.50
  -4   1  -5   11.00    9.20
   4  -1   5    8.00    9.90
  -5   1  -5   98.19   16.40
   5  -1   5   75.99   14.00
  -6   1  -5   26.90   16.00
   6  -1   5   33.40   15.10
  -6   0   5    5.00   14.30
   5   0  -5    0.50    9.70
  -5   0   5  -11.60   10.10
   4   0  -5  276.27   17.80
  -4   0   5  257.57   17.80
   3   0  -5    5.00    6.30
  -3   0   5    3.80    6.30
   2   0  -5  100.89    8.30
   2   0  -5   96.49    8.70
  -2   0   5   96.89    8.90
  -2   0   5  101.79    9.50
   1   0  -5  223.28    8.80
   1   0  -5  231.48   10.80
  -1   0   5  216.48    9.30
  -1   0   5  212.78    9.10
   0   0  -5  820.02   27.00
   0   0   5  835.52   26.80
  -1   0  -5 1888.61   57.89
  -1   0  -5 1860.11   57.99
  -1   0  -5 1869.21   57.89
   1   0   5 1903.81   57.79
   1   0   5 1901.51   58.19
   1   0   5 1878.71   58.09
  -2   0  -5  641.14   23.70
   2   0   5  636.34   23.80
   3   0   5  136.69   11.50
  -4   0  -5  -11.20    8.00
   4   0   5    4.00    9.10
  -5   0  -5   -4.30   11.60
   5   0   5   17.50   11.60
  -6   0  -5  -15.90   13.30
   6   0   5  -16.10   14.70
  -6   1   5  -13.70   13.50
   5  -1  -5    6.50   10.80
  -5   1   5    7.40   10.90
   4  -1  -5   25.40    8.60
  -4   1   5   15.20    8.90
   3  -1  -5    2.10    6.40
  -3   1   5    3.40    5.90
  -3   1   5   -0.50    3.90
   2  -1  -5  711.73   25.70
  -2   1   5  722.83   26.00
  -2   1   5  750.12   25.50
  -2   1   5  789.12   26.40
   1  -1  -5  628.64   21.60
   1  -1  -5  645.74   20.80
  -1   1   5  615.04   21.00
  -1   1   5  617.84   21.30
   0  -1  -5  163.68    6.60
   0   1   5  151.88    7.20
   0   1   5  163.68    6.90
  -1  -1  -5  122.99    8.20
  -1  -1  -5  125.09    8.50
   1   1   5  129.39    8.50
   1   1   5  127.59    8.30
  -2  -1  -5   21.10    6.50
   2   1   5   33.40    6.60
   2   1   5   22.20    6.00
  -3  -1  -5   61.49    8.80
   3   1   5   59.89    6.00
   3   1   5   66.69    9.60
  -4  -1  -5  317.47   20.60
   4   1   5  314.47   20.20
  -5  -1  -5   55.09   13.50
   5   1   5   56.39   12.70
  -6  -1  -5   13.30   14.90
   6   1   5   -9.50   13.30
  -5   2   5  -18.70   11.00
   4  -2  -5   -7.80    8.40
  -4   2   5   -2.00    8.20
   3  -2  -5    1.40    6.70
  -3   2   5   16.40    7.40
   2  -2  -5  578.74   21.50
  -2   2   5  561.74   21.80
  -2   2   5  545.05   22.30
   1  -2  -5  102.19    8.60
  -1   2   5  115.59   10.00
  -1   2   5  110.39    8.80
   0  -2  -5   81.69    6.40
   0   2   5   67.59    6.90
   0   2   5   75.19    6.50
  -1  -2  -5  599.54   22.20
   1   2   5  608.14   22.10
   1   2   5  621.14   22.40
  -2  -2  -5   17.60    6.60
   2   2   5   11.20    6.30
  -3  -2  -5    7.60    7.60
   3   2   5    2.70    6.90
  -4  -2  -5    3.70    8.70
   4   2   5   14.20    9.10
  -5  -2  -5   19.70   12.90
   5   2   5    0.20   11.90
  -6  -2  -5   20.90   15.60
   6   2   5   -7.70   13.70
  -5   3   5   18.90   12.60
   4  -3  -5    7.10    9.90
  -4   3   5   -2.50    9.10
   3  -3  -5    7.20    8.10
  -3   3   5   11.40    8.80
   2  -3  -5   80.49    9.30
  -2   3   5   76.39    9.60
   1  -3  -5    7.30    5.70
  -1   3   5    7.80    6.50
  -1   3   5   -1.70    5.90
   0  -3  -5    4.00    5.70
   0   3   5    8.10    6.20
   0   3   5    6.90    5.90
  -1  -3  -5  733.23   27.60
   1   3   5  755.92   27.70
  -2  -3  -5    0.70    6.70
   2   3   5    3.70    6.10
  -3  -3  -5  110.29   11.30
   3   3   5  134.99   13.20
  -4  -3  -5   26.20   11.40
   4   3   5   31.20   10.50
  -5  -3  -5   11.40   13.10
   5   3   5   14.50   13.30
  -4   4   5   -6.90   11.30
   3  -4  -5   28.50   10.30
  -3   4   5   23.40   11.00
   2  -4  -5   -2.00    8.00
  -2   4   5    6.10    8.70
   1  -4  -5   30.00    8.10
  -1   4   5   57.39   10.20
   0  -4  -5   49.60    8.60
   0   4   5   49.60    8.80
  -1  -4  -5   26.00    8.50
   1   4   5   40.20    8.30
  -2  -4  -5   57.09   10.10
   2   4   5   54.59   10.40
  -3  -4  -5   17.90    9.30
   3   4   5    4.90    9.00
  -4  -4  -5   12.90   10.80
  -5  -4  -5  -21.20   13.20
   5   4   5   -8.40   13.60
  -4   5   5   -5.60   13.40
  -3   5   5   48.20   14.10
   2  -5  -5    1.00    9.70
  -2   5   5   16.70   10.90
   1  -5  -5   38.60   10.10
  -1   5   5   25.80   10.70
   0  -5  -5  402.46   21.50
   0   5   5  396.96   23.00
  -1  -5  -5   10.10    9.10
   1   5   5    2.70    8.70
  -2  -5  -5   52.29   11.80
   2   5   5   49.80   12.10
  -3  -5  -5   -3.90   11.50
   3   5   5    6.30   12.00
  -4  -5  -5    0.90   12.70
   4   5   5   16.80   14.60
  -3   6   5    7.30   14.70
  -2   6   5  -11.10   13.00
   1  -6  -5  -10.80   11.10
  -1   6   5  -11.80   11.60
   0  -6  -5   89.79   13.20
   0   6   5   80.09   14.30
  -1  -6  -5   16.90   11.30
   1   6   5   13.90   12.20
  -2  -6  -5   -0.40   11.30
   2   6   5    6.40   12.10
  -3  -6  -5  156.18   18.70
   3   6   5  110.69   19.40
  -1   7   5   15.20   14.70
   0   7   5   17.60   15.30
   1   7   5  -10.70   14.20
   1   7  -6   12.80   14.90
  -1  -7   6    8.40   14.20
   0   7  -6   39.40   16.40
   0  -7   6   21.30   14.80
   3   6  -6  -15.50   14.80
  -3  -6   6   15.00   15.30
   2   6  -6  143.19   18.70
  -2  -6   6  120.99   17.40
   1   6  -6   -3.60   12.70
  -1  -6   6    5.20   13.00
   0   6  -6   90.09   16.40
   0  -6   6   75.59   14.40
  -1   6  -6  -11.60   13.50
   1  -6   6    1.10   12.40
  -2   6  -6    7.50   13.90
   2  -6   6    9.50   14.00
  -3   6  -6   42.70   17.60
   3  -6   6  -24.80   13.70
   4   5  -6   -4.10   13.00
  -4  -5   6   16.90   13.70
   3   5  -6  112.99   15.90
  -3  -5   6   76.59   15.10
   2   5  -6    9.10   10.80
  -2  -5   6   22.10   12.10
   1   5  -6   77.59   13.30
  -1  -5   6   41.80   11.90
   0   5  -6    7.90   10.20
   0  -5   6    1.80   10.30
  -1   5  -6  156.68   16.90
   1  -5   6  107.79   14.60
  -2   5  -6    0.00   11.00
   2  -5   6  -12.20   10.50
  -3   5  -6  178.08   19.70
   3  -5   6  173.08   18.70
  -4   5  -6   24.90   15.50
   4  -5   6  -35.00   13.90
   5   4  -6   13.60   14.50
  -5  -4   6   19.20   15.30
   4   4  -6   25.90   12.20
  -4  -4   6    3.30   12.20
   3   4  -6   34.40   11.80
  -3  -4   6   51.09   12.50
   2   4  -6   -2.40    8.80
  -2  -4   6    8.10    9.50
   1   4  -6   38.20    9.70
  -1  -4   6   38.00   10.10
   0   4  -6   40.50    9.50
   0  -4   6   49.70    9.80
  -1   4  -6  144.39   14.30
   1  -4   6  118.79   13.10
  -2   4  -6   10.10   10.00
   2  -4   6   -4.30    9.20
  -3   4  -6   -5.70   11.10
   3  -4   6    3.30   10.90
  -4   4  -6   -4.30   11.90
   4  -4   6   -2.50   12.50
   5   3  -6   -6.80   11.90
  -5  -3   6    2.50   13.40
   4   3  -6  147.39   15.20
  -4  -3   6  135.29   15.30
   3   3  -6  194.48   16.60
  -3  -3   6  231.48   17.00
   2   3  -6    3.10    6.80
  -2  -3   6   -3.60    7.30
   1   3  -6  230.88   14.40
  -1  -3   6  228.68   14.50
   0   3  -6   -0.10    6.40
   0  -3   6    5.70    6.60
  -1   3  -6    4.50    7.30
   1  -3   6    2.90    7.10
  -2   3  -6  116.69   11.40
   2  -3   6  140.99   12.90
  -3   3  -6   48.30   10.70
   3  -3   6   44.30   11.10
  -4   3  -6   14.60   11.20
   4  -3   6   22.50   11.80
  -5   3  -6  -26.80   13.30
   5  -3   6    3.90   13.10
   5   2  -6   -2.20   11.10
  -5  -2   6   -0.30   10.70
   4   2  -6   30.30    9.90
  -4  -2   6   20.00    9.10
  -3  -2   6   12.40    7.70
   2   2  -6   27.60    7.00
  -2  -2   6   19.60    7.00
   1   2  -6   14.20    5.80
  -1  -2   6   11.60    5.70
  -1  -2   6    4.20    5.10
   0   2  -6   75.99    7.50
   0  -2   6   71.59    7.40
   0  -2   6   63.89    7.80
  -1   2  -6  164.88   11.60
   1  -2   6  195.78   12.80
  -2   2  -6  241.68   14.80
   2  -2   6  222.68   14.50
  -3   2  -6    9.90    8.20
   3  -2   6   -9.50    8.40
  -4   2  -6   -9.10    8.80
   4  -2   6   -2.10    9.20
  -5   2  -6    9.50   13.70
   5  -2   6   45.60   14.50
  -6  -1   6   -2.60   13.70
   5   1  -6    5.80   11.00
  -5  -1   6   -1.90   11.80
   4   1  -6  -15.60    7.80
   4   1  -6   -3.30    5.40
  -4  -1   6   14.00    9.40
   3   1  -6   30.60    7.60
  -3  -1   6   41.90    8.10
   2   1  -6    7.70    5.40
  -2  -1   6    5.00    5.00
  -2  -1   6    1.70    5.50
   1   1  -6 1892.51   58.79
   1   1  -6 1915.31   58.69
  -1  -1   6 1897.01   58.99
   0   1  -6  337.97   12.80
   0   1  -6  306.27   12.70
   0  -1   6  357.26   12.90
   0  -1   6  311.17   13.40
  -1   1  -6   -1.60    5.00
  -1   1  -6    5.10    4.70
   1  -1   6   -8.70    5.30
   1  -1   6    6.00    4.80
  -2   1  -6   13.80    6.40
   2  -1   6    8.80    6.80
  -3   1  -6   16.70    7.30
  -3   1  -6    0.90    3.40
   3  -1   6   -0.40    6.50
  -4   1  -6   92.39   11.70
   4  -1   6   81.49   12.10
  -5   1  -6   49.80   14.10
   5  -1   6   33.50   13.10
  -6   1  -6  -17.10   13.90
   6  -1   6   -5.10   14.70
  -6   0   6    1.00   14.80
   5   0  -6   -0.50    9.70
  -5   0   6    9.70   10.50
   4   0  -6   26.60    8.60
  -4   0   6   35.80    9.40
   3   0  -6   53.69    7.50
  -3   0   6   66.69    8.40
   2   0  -6   13.30    5.10
   2   0  -6    6.30    5.30
  -2   0   6    8.90    5.10
  -2   0   6   12.90    5.40
   1   0  -6  382.46   12.80
   1   0  -6  373.86   15.20
  -1   0   6  366.26   13.20
  -1   0   6  380.16   13.40
   0   0  -6  342.67   13.90
  -1   0  -6  881.31   28.40
  -1   0  -6  841.62   27.80
  -1   0  -6  878.31   27.90
   1   0   6  865.11   28.20
   1   0   6  878.81   28.30
   1   0   6  834.42   28.00
  -2   0  -6 1056.99   35.60
   2   0   6 1035.90   35.30
   2   0   6 1061.79   35.60
  -3   0  -6    3.60    7.00
   3   0   6    4.10    6.50
  -4   0  -6    3.30    9.00
   4   0   6    5.30    9.10
  -5   0  -6   36.90   12.60
   5   0   6   36.80   12.60
  -6   0  -6   10.40   15.60
   6   0   6   -7.10   14.50
   5  -1  -6   65.39   15.80
  -5   1   6   90.29   14.40
   4  -1  -6   10.70    8.50
  -4   1   6    1.60    8.10
   3  -1  -6   -3.20    5.80
  -3   1   6    0.30    4.40
  -3   1   6   -3.70    5.50
   2  -1  -6  401.96   16.00
  -2   1   6  402.86   16.00
  -2   1   6  413.36   16.70
  -2   1   6  390.26   16.40
   1  -1  -6  316.77   11.90
  -1   1   6  325.37   12.60
  -1   1   6  323.87   13.80
  -1   1   6  328.27   12.30
   0  -1  -6  376.36   12.50
   0  -1  -6  405.46   12.50
   0   1   6  396.06   13.20
   0   1   6  388.16   13.10
  -1  -1  -6  807.62   25.90
  -1  -1  -6  784.92   25.80
   1   1   6  769.92   25.90
   1   1   6  764.82   26.10
  -2  -1  -6  261.77   13.60
   2   1   6  266.77   13.60
   2   1   6  241.48   13.00
  -3  -1  -6   -4.40    7.20
   3   1   6    6.30    4.10
   3   1   6    9.90    6.70
  -4  -1  -6  260.07   19.30
   4   1   6  307.77   19.90
  -5  -1  -6   -0.70   11.40
   5   1   6   -1.60   10.60
  -6  -1  -6   -0.90   14.30
   6   1   6    0.60   15.50
  -5   2   6  -16.20   10.30
   4  -2  -6    7.70    9.00
  -4   2   6    3.30    8.50
   3  -2  -6  -16.20    6.40
  -3   2   6    4.20    6.50
   2  -2  -6 1959.30   61.09
  -2   2   6 1853.81   61.79
  -2   2   6 1969.90   61.69
   1  -2  -6   64.49    6.20
  -1   2   6   61.79    6.20
  -1   2   6   63.59    7.10
   0  -2  -6   31.40    5.10
   0   2   6   32.20    5.30
   0   2   6   41.00    6.00
  -1  -2  -6 3228.48   97.89
   1   2   6 3189.78   97.89
   1   2   6 3142.29   98.09
  -2  -2  -6  352.86   16.30
   2   2   6  347.57   16.40
  -3  -2  -6  143.99   13.40
   3   2   6  148.29   13.20
  -4  -2  -6  296.57   19.80
   4   2   6  251.47   19.30
  -5  -2  -6   13.40   11.90
   5   2   6  -10.00   11.40
  -6  -2  -6   -9.00   14.00
   6   2   6   -7.20   13.50
  -5   3   6   -3.40   12.10
   4  -3  -6    2.60    9.50
  -4   3   6    8.60    9.30
   3  -3  -6    1.70    7.60
  -3   3   6    9.80    8.20
   2  -3  -6   39.20    7.80
  -2   3   6   42.00    8.30
   1  -3  -6   27.10    6.30
  -1   3   6    5.80    5.90
  -1   3   6   13.90    6.70
   0  -3  -6  666.23   24.50
   0   3   6  663.73   25.30
   0   3   6  705.33   25.50
  -1  -3  -6    3.60    6.40
   1   3   6    2.80    5.90
  -2  -3  -6   17.10    6.80
   2   3   6   -2.60    6.40
  -3  -3  -6   25.10    8.90
   3   3   6    5.90    8.30
  -4  -3  -6   71.99   12.80
   4   3   6   50.29   10.80
  -5  -3  -6   21.40   12.80
   5   3   6    1.10   13.30
  -4   4   6    5.70   11.70
   3  -4  -6   44.20   10.50
  -3   4   6   42.10   11.10
   2  -4  -6  -11.00    7.60
  -2   4   6    0.30    8.70
   1  -4  -6   -5.70    6.70
  -1   4   6   -7.90    7.50
   0  -4  -6   77.69    9.60
   0   4   6   68.39    9.20
  -1  -4  -6   24.30    8.20
   1   4   6   33.80    8.20
  -2  -4  -6   30.90    8.90
   2   4   6   25.40    9.20
  -3  -4  -6  332.47   20.70
   3   4   6  330.57   21.20
  -4  -4  -6   16.70   11.40
   4   4   6    9.20   11.70
  -5  -4  -6   68.49   16.00
   5   4   6   60.59   16.80
  -4   5   6  -16.50   12.50
  -3   5   6   -6.90   12.10
   2  -5  -6    9.80   10.00
  -2   5   6  -11.80   10.90
   1  -5  -6   13.90    9.20
  -1   5   6   21.80   10.50
   0  -5  -6    7.80    8.70
   0   5   6   20.60    9.90
  -1  -5  -6  116.19   12.70
   1   5   6   84.39   12.40
  -2  -5  -6   21.30   10.60
   2   5   6   11.00    9.40
  -3  -5  -6   -3.40   10.30
   3   5   6  -12.20   11.40
  -4  -5  -6   34.00   13.10
   4   5   6   49.30   14.70
  -2   6   6   12.00   14.40
  -1   6   6   38.90   13.50
   0  -6  -6  126.69   14.80
   0   6   6  103.09   14.90
  -1  -6  -6   86.49   13.60
   1   6   6   64.49   13.80
  -2  -6  -6   21.30   12.70
   2   6   6   27.70   13.80
  -3  -6  -6  -27.60   12.90
   3   6   6   12.10   13.10
   0   7   6   -6.50   14.60
   1   7   6  -31.20   13.20
   1   7  -7   11.70   15.90
  -1  -7   7   24.80   14.30
   0   7  -7   -5.80   14.50
   0  -7   7   -8.50   14.90
   3   6  -7   39.80   15.80
  -3  -6   7   24.50   16.30
   2   6  -7   12.80   14.00
  -2  -6   7    3.20   12.90
   1   6  -7  -13.30   11.60
  -1  -6   7  -19.60   12.00
   0   6  -7   56.59   14.40
   0  -6   7   88.29   15.80
  -1   6  -7    6.00   14.00
   1  -6   7   19.70   13.30
  -2   6  -7   -5.60   13.40
   2  -6   7   -3.40   13.00
   4   5  -7    6.10   13.60
  -4  -5   7   -4.70   14.90
   3   5  -7  131.59   17.00
  -3  -5   7  128.49   18.10
   2   5  -7    3.20   11.00
  -2  -5   7    9.50   11.90
   1   5  -7    2.40   10.30
  -1  -5   7   12.60   10.50
   0   5  -7    3.20   10.30
   0  -5   7   14.80    9.90
  -1   5  -7    9.00   10.70
   1  -5   7   17.60   11.30
  -2   5  -7   10.30   11.90
   2  -5   7   23.70   12.10
  -3   5  -7   48.90   15.50
   3  -5   7   35.70   13.80
  -4   5  -7  -10.10   15.20
   4  -5   7    8.80   14.30
  -5  -4   7   30.90   14.90
   4   4  -7    4.80   12.30
  -4  -4   7   14.60   12.70
   3   4  -7   78.69   12.60
  -3  -4   7   83.89   12.50
   2   4  -7    5.20    8.40
  -2  -4   7   -2.00    9.10
   1   4  -7  327.77   19.10
  -1  -4   7  302.17   19.60
   0   4  -7  487.05   23.00
   0  -4   7  443.86   22.60
  -1   4  -7  -18.60    8.30
   1  -4   7   -3.70    8.20
  -2   4  -7   26.00   11.00
   2  -4   7   14.80   10.00
  -3   4  -7   -7.40   10.50
   3  -4   7    7.70   11.70
  -4   4  -7    0.80   12.80
   4  -4   7   22.60   13.30
   5   3  -7   15.10   13.20
  -5  -3   7   -9.50   13.00
   4   3  -7    3.00   10.10
  -4  -3   7   37.20   12.70
   3   3  -7   37.10    9.80
  -3  -3   7   24.00    8.70
   2   3  -7   -3.90    6.70
  -2  -3   7    6.80    7.60
   1   3  -7  204.98   13.40
  -1  -3   7  162.88   13.00
   0   3  -7    5.80    7.00
   0  -3   7    4.20    6.70
  -1   3  -7   56.99    9.60
   1  -3   7   45.70    8.70
  -2   3  -7   21.70    8.60
   2  -3   7   16.40    8.70
  -3   3  -7    0.90    9.30
   3  -3   7   -1.60    9.20
  -4   3  -7   28.40   12.90
   4  -3   7   12.70   12.20
  -5   3  -7    8.80   13.50
   5  -3   7   -9.30   14.50
   5   2  -7   -4.20   11.20
  -5  -2   7   -7.50   11.70
   4   2  -7  414.26   22.30
  -4  -2   7  410.66   23.00
   3   2  -7    6.40    7.50
  -3  -2   7   12.40    7.30
   2   2  -7   -1.20    5.90
  -2  -2   7   -4.00    6.30
   1   2  -7  357.86   15.50
  -1  -2   7  352.46   15.50
  -1  -2   7  323.87   15.60
   0   2  -7   14.50    5.80
   0  -2   7   10.30    5.50
   0  -2   7   27.50    6.70
  -1   2  -7   42.00    7.20
   1  -2   7   34.20    7.50
  -2   2  -7 1163.18   40.50
   2  -2   7 1183.08   40.60
  -3   2  -7  157.68   13.40
   3  -2   7  186.68   16.10
  -4   2  -7   -6.60    9.90
   4  -2   7   -6.00    9.80
  -5   2  -7   52.69   15.30
   5  -2   7   22.90   13.20
  -6  -1   7    3.00   14.50
   5   1  -7  -16.50   10.50
  -5  -1   7    2.10   10.40
   4   1  -7   23.80    6.60
   4   1  -7   26.60    8.90
  -4  -1   7   18.70    9.40
   3   1  -7   -0.70    6.40
   3   1  -7    4.10    5.80
  -3  -1   7    7.10    7.10
   2   1  -7   43.30    6.10
  -2  -1   7   56.29    7.20
  -2  -1   7   53.99    6.50
   1   1  -7   24.00    4.30
   1   1  -7   18.70    4.50
  -1  -1   7   13.40    4.30
  -1  -1   7   21.70    4.90
   0   1  -7 1683.03   50.59
   0   1  -7 1696.93   50.59
   0  -1   7 1607.14   50.69
   0  -1   7 1554.04   50.99
  -1   1  -7   57.99    6.30
   1  -1   7   66.49    6.90
   1  -1   7   58.79    5.90
  -2   1  -7   31.60    6.90
   2  -1   7   32.20    7.20
  -3   1  -7   61.89    6.20
  -3   1  -7   66.09    8.60
   3  -1   7   55.69    8.40
  -4   1  -7   -1.00    9.70
   4  -1   7   14.50    9.90
  -5   1  -7   29.40   13.30
   5  -1   7   39.40   14.10
  -6   1  -7   15.90   14.50
   6  -1   7    5.30   14.40
  -6   0   7  -11.80   13.40
   5   0  -7    7.70   10.30
  -5   0   7    5.60   10.30
   4   0  -7   59.89    9.60
  -4   0   7   65.09   10.40
   3   0  -7   87.99    7.80
   3   0  -7   87.09    8.60
  -3   0   7   62.29    8.10
   2   0  -7  333.57   13.90
   2   0  -7  332.87   14.80
  -2   0   7  351.96   14.50
  -2   0   7  322.47   14.70
   1   0  -7  469.25   15.30
   1   0  -7  475.05   18.60
   1   0  -7  476.95   15.30
  -1   0   7  478.55   16.10
  -1   0   7  480.75   15.90
   0   0  -7  699.23   24.40
  -1   0  -7  190.48    9.30
  -1   0  -7  203.98    9.30
  -1   0  -7  201.58   10.50
   1   0   7  187.68    9.30
   1   0   7  196.18    9.80
  -2   0  -7   39.40    5.00
  -2   0  -7   38.70    6.50
   2   0   7   29.30    6.60
   2   0   7   20.10    5.20
  -3   0  -7   11.00    7.40
   3   0   7    9.30    7.50
  -4   0  -7   45.40   10.30
   4   0   7   64.49   11.00
  -5   0  -7   17.00   11.60
   5   0   7  -10.10   11.00
  -6   0  -7    2.60   15.80
   6   0   7    1.50   13.80
  -5   1   7   40.30   11.70
   4  -1  -7  -16.40    7.40
  -4   1   7  -11.90    7.80
   3  -1  -7    5.10    6.20
  -3   1   7    5.20    6.30
  -3   1   7    8.50    4.90
   2  -1  -7  289.37   13.00
  -2   1   7  319.67   14.10
  -2   1   7  313.97   13.90
  -2   1   7  312.27   13.70
   1  -1  -7  192.28    7.90
   1  -1  -7  185.18    7.80
  -1   1   7  199.28    9.20
  -1   1   7  194.48    8.70
  -1   1   7  191.38   10.70
   0   1   7  281.37   10.00
   0   1   7  278.57    9.80
  -1  -1  -7  661.83   21.60
  -1  -1  -7  667.73   21.70
   1   1   7  611.94   22.00
   1   1   7  640.34   22.00
  -2  -1  -7  237.28   12.80
   2   1   7  245.88   12.70
   2   1   7  233.68   12.90
   2   1   7  228.78   11.50
  -3  -1  -7   -7.20    6.50
   3   1   7    2.10    4.30
   3   1   7    5.10    6.10
  -4  -1  -7  243.98   18.00
   4   1   7  259.07   18.80
  -5  -1  -7   46.60   13.10
   5   1   7   28.20   12.10
  -6  -1  -7    0.60   15.60
   6   1   7  -12.00   14.10
  -5   2   7   20.80   11.60
   4  -2  -7   -4.30    8.10
  -4   2   7    6.20    7.80
   3  -2  -7   61.89    8.30
  -3   2   7   46.90    8.60
   2  -2  -7  295.37   13.70
  -2   2   7  293.27   15.00
  -2   2   7  283.77   14.30
   1  -2  -7  113.29    8.10
  -1   2   7  122.09    9.60
  -1   2   7  117.59    8.40
   0  -2  -7   51.19    5.20
   0   2   7   50.59    6.30
   0   2   7   50.29    5.90
  -1  -2  -7   48.70    6.30
   1   2   7   56.29    6.30
   1   2   7   61.49    6.70
  -2  -2  -7   39.30    6.50
   2   2   7   49.10    7.40
  -3  -2  -7  323.87   17.70
   3   2   7  305.57   17.60
  -4  -2  -7   10.30    9.20
   4   2   7   29.80   10.00
  -5  -2  -7   -2.70   11.40
   5   2   7    4.30   11.30
  -6  -2  -7  -12.20   15.30
   6   2   7   24.50   16.00
  -5   3   7    4.70   12.30
  -4   3   7  -12.20    8.60
   3  -3  -7  263.67   16.60
  -3   3   7  252.57   17.60
   2  -3  -7   43.80    7.60
  -2   3   7   35.00    7.80
   1  -3  -7   50.99    7.10
  -1   3   7   59.99    8.30
  -1   3   7   61.89    7.70
   0  -3  -7 1737.53   56.59
   0   3   7 1802.42   57.49
   0   3   7 1807.22   57.49
  -1  -3  -7   49.99    7.70
   1   3   7   49.10    7.40
   1   3   7   56.39    7.50
  -2  -3  -7   11.50    6.80
   2   3   7   13.80    7.10
  -3  -3  -7   24.80    8.20
   3   3   7   28.90    8.40
  -4  -3  -7   12.20   10.30
   4   3   7    1.60    9.10
  -5  -3  -7   21.90   12.80
   5   3   7   21.60   13.40
  -4   4   7  -13.90   10.70
   3  -4  -7    5.20    9.00
  -3   4   7    8.60   10.20
   2  -4  -7    8.50    8.00
  -2   4   7    7.20    8.80
   1  -4  -7   87.89    9.50
  -1   4   7   57.09    9.70
   0  -4  -7   32.40    7.50
   0   4   7   17.20    7.80
  -1  -4  -7   -4.10    7.10
   1   4   7  -10.10    6.20
  -2  -4  -7   17.00    8.30
   2   4   7   10.40    8.60
  -3  -4  -7    8.90    8.80
   3   4   7   -4.60    8.30
  -4  -4  -7   20.70   11.40
   4   4   7    4.50   10.90
  -5  -4  -7    8.70   13.30
   5   4   7  -13.70   12.50
  -4   5   7   -1.70   13.30
  -3   5   7   39.50   13.40
  -2   5   7   14.00   11.20
   1  -5  -7    1.20    8.20
  -1   5   7   17.70   10.00
   0  -5  -7  166.38   14.00
   0   5   7  149.69   14.30
  -1  -5  -7   98.09   12.10
   1   5   7   93.59   12.70
  -2  -5  -7  182.78   17.60
   2   5   7  175.68   16.40
  -3  -5  -7    8.00   11.10
   3   5   7   26.00   12.00
  -4  -5  -7    7.50   12.50
   4   5   7   -2.30   13.00
  -2   6   7   -3.60   12.70
  -1   6   7    0.30   11.80
   0   6   7   16.70   11.50
  -1  -6  -7   10.70   10.90
   1   6   7   12.40   11.60
  -2  -6  -7   12.80   12.20
   2   6   7    7.00   12.30
   3   6   7   35.00   15.70
   0   7   7   22.40   15.60
   1   7   7  -17.90   15.00
   1   7  -8   18.70   15.70
  -1  -7   8   20.00   15.00
   0   7  -8    8.40   15.40
   0  -7   8    8.50   14.60
   3   6  -8  -15.00   13.70
  -3  -6   8   -0.40   16.10
   2   6  -8   45.40   15.50
  -2  -6   8   75.19   15.50
   1   6  -8   20.20   14.00
  -1  -6   8   24.00   13.90
   0   6  -8  140.09   19.40
   0  -6   8  196.18   20.20
  -1   6  -8   14.10   13.80
   1  -6   8   16.70   14.00
  -2   6  -8   27.50   14.00
   2  -6   8  -18.80   12.90
   4   5  -8   35.60   15.00
  -4  -5   8   63.29   15.20
   3   5  -8   17.90   13.10
  -3  -5   8   37.50   13.50
   2   5  -8   16.30   11.60
  -2  -5   8    2.40   10.70
   1   5  -8    2.80   10.40
  -1  -5   8    3.90   10.10
   0   5  -8   31.80   11.20
   0  -5   8   27.50   11.50
  -1   5  -8   45.20   12.90
   1  -5   8    8.70   10.70
  -2   5  -8   81.49   14.90
   2  -5   8   78.99   15.30
  -3   5  -8   59.79   16.70
   3  -5   8   53.19   14.40
  -4   5  -8   -4.40   14.60
   4  -5   8   28.80   15.00
  -5  -4   8    7.40   15.80
   4   4  -8   74.39   14.10
  -4  -4   8   97.09   15.00
   3   4  -8  -17.50    9.50
  -3  -4   8    7.30   10.40
   2   4  -8  145.29   13.10
  -2  -4   8  122.59   13.20
   1   4  -8   12.20    8.70
  -1  -4   8    0.40    8.30
   0   4  -8   57.89   10.60
   0  -4   8   62.79   10.30
  -1   4  -8   10.80    9.50
   1  -4   8   -0.40    8.50
  -2   4  -8  129.59   14.10
   2  -4   8  169.88   16.00
  -3   4  -8   24.40   11.90
   3  -4   8   11.90   11.80
  -4   4  -8    0.90   13.00
   4  -4   8   -4.70   14.40
  -5  -3   8   17.20   13.00
   4   3  -8   -0.10   10.20
  -4  -3   8    5.50   11.60
   3   3  -8   42.70    9.90
  -3  -3   8   52.69   10.30
   2   3  -8  284.27   16.60
  -2  -3   8  243.08   16.10
   1   3  -8  812.32   30.20
  -1  -3   8  824.52   30.50
   0   3  -8   39.00    7.70
   0  -3   8   38.80    8.00
  -1   3  -8  381.96   19.30
   1  -3   8  388.66   19.10
  -2   3  -8  234.38   16.60
   2  -3   8  260.37   16.80
  -3   3  -8   18.50   10.00
   3  -3   8    8.30    9.80
  -4   3  -8    6.20   11.40
   4  -3   8   30.70   12.60
  -5   3  -8   37.20   14.50
   5  -3   8   57.09   16.20
   5   2  -8    1.50   13.10
  -5  -2   8   -8.50   11.20
  -4  -2   8   57.79   11.60
   3   2  -8    6.90    7.50
  -3  -2   8    0.20    7.00
   2   2  -8  218.48   13.10
  -2  -2   8  173.88   13.20
   1   2  -8   81.29    7.50
  -1  -2   8   81.19    7.70
  -1  -2   8   63.49    7.70
   0   2  -8  307.37   14.40
   0  -2   8  284.67   14.50
   0  -2   8  289.07   13.80
  -1   2  -8  378.06   17.20
   1  -2   8  419.16   18.60
   1  -2   8  355.26   17.30
  -2   2  -8   10.30    6.90
   2  -2   8    4.40    7.00
  -3   2  -8   96.19   11.70
   3  -2   8   90.09   11.60
  -4   2  -8   -9.00    9.20
  -4   2  -8   -7.80    4.70
   4  -2   8   -2.30    9.00
  -5   2  -8    2.30   12.40
   5  -2   8    2.80   13.10
   5   1  -8  146.49   24.30
  -5  -1   8  120.59   16.00
   4   1  -8   -9.00    7.90
   4   1  -8    4.90    6.40
  -4  -1   8   -0.80    8.30
   3   1  -8   -0.70    6.00
   3   1  -8   13.90    6.70
  -3  -1   8    4.30    6.90
   2   1  -8  625.74   23.00
  -2  -1   8  665.33   23.90
  -2  -1   8  635.14   23.10
   1   1  -8   16.40    3.90
   1   1  -8   29.00    4.40
  -1  -1   8   22.40    4.50
  -1  -1   8   19.60    4.80
   0   1  -8   27.30    4.10
   0   1  -8   31.50    4.60
   0  -1   8   29.20    4.30
   0  -1   8   38.20    5.50
  -1   1  -8  884.31   30.60
   1  -1   8  956.30   31.20
   1  -1   8  942.61   30.90
  -2   1  -8  242.58   13.30
   2  -1   8  227.48   13.70
  -3   1  -8   -5.70    6.70
  -3   1  -8    3.30    4.30
   3  -1   8    5.10    6.20
  -4   1  -8  387.76   22.00
   4  -1   8  362.06   22.60
  -5   1  -8   -2.60   12.00
   5  -1   8    1.40   11.50
  -6   1  -8  -11.90   13.70
  -5   0   8   15.70   10.90
   4   0  -8    0.50    7.50
  -4   0   8   -2.60    7.30
   3   0  -8   15.10    6.10
   3   0  -8   27.90    6.50
  -3   0   8   20.40    6.70
   2   0  -8   17.20    6.20
   2   0  -8   23.90    4.90
  -2   0   8    9.90    5.20
  -2   0   8    9.90    4.80
   1   0  -8  174.98   11.60
  -1   0   8  175.08    7.60
  -1   0   8  180.38    7.90
   0   0  -8  138.99   10.20
  -1   0  -8    6.60    5.40
  -1   0  -8    5.10    3.90
  -1   0  -8    5.80    3.90
   1   0   8    2.10    3.60
   1   0   8    4.80    4.40
  -2   0  -8  107.19    9.90
  -2   0  -8  102.89    7.90
   2   0   8  103.79    8.80
   2   0   8  102.29    9.70
  -3   0  -8   23.40    7.70
   3   0   8   23.90    7.30
  -4   0  -8  143.79   13.50
   4   0   8  142.79   13.90
  -5   0  -8   25.70   12.80
   5   0   8   34.50   12.90
  -6   0  -8    3.50   15.80
   6   0   8    5.40   14.90
  -5   1   8   71.69   13.40
   4  -1  -8   15.60    7.90
  -4   1   8    2.70    8.00
   3  -1  -8    0.50    5.80
  -3   1   8  -11.90    5.10
   2  -1  -8  963.60   31.50
  -2   1   8  930.61   32.90
  -2   1   8  974.10   32.40
  -2   1   8  986.10   32.40
   1  -1  -8   31.00    2.70
   1  -1  -8   29.50    2.70
  -1   1   8   27.10    4.20
  -1   1   8   37.20    6.30
  -1   1   8   29.50    4.00
   0   1   8   56.39    4.40
   0   1   8   71.89    4.20
  -1  -1  -8   97.29    7.20
  -1  -1  -8  105.89    6.90
   1   1   8   96.69    7.70
   1   1   8   94.19    7.50
   1   1   8   97.99    9.30
  -2  -1  -8    3.00    5.40
   2   1   8    2.10    5.50
   2   1   8    4.80    4.90
   2   1   8    3.80    5.10
  -3  -1  -8   15.00    7.00
   3   1   8   18.10    7.50
   3   1   8   26.30    5.30
  -4  -1  -8   22.10    9.60
   4   1   8   21.70    9.90
  -5  -1  -8   23.40   12.00
   5   1   8   -4.10   12.20
  -6  -1  -8    2.80   16.10
   6   1   8   54.49   16.80
  -5   2   8    4.60   11.50
   4  -2  -8   -1.80    7.90
  -4   2   8    7.00    8.20
   3  -2  -8   77.09    8.80
  -3   2   8   92.09   10.20
   2  -2  -8    5.30    5.10
  -2   2   8   -0.70    5.70
  -2   2   8    6.70    5.10
  -1   2   8  211.88   11.60
  -1   2   8  213.88   10.70
   0   2   8  264.27   12.40
   0   2   8  274.07   12.00
  -1  -2  -8  131.49    9.20
   1   2   8  126.29    9.30
   1   2   8  140.39    9.70
  -2  -2  -8  162.88   11.50
   2   2   8  192.58   12.30
  -3  -2  -8  517.15   23.00
   3   2   8  526.45   23.10
  -4  -2  -8   61.89   11.60
   4   2   8   37.30   10.80
  -5  -2  -8    6.00   11.90
   5   2   8   -1.70   11.70
  -6  -2  -8    2.60   15.70
  -5   3   8    7.90   11.10
  -4   3   8   -3.50    9.10
   3  -3  -8  188.48   15.00
  -3   3   8  184.68   15.80
   2  -3  -8   20.10    6.50
  -2   3   8   26.50    7.60
   1  -3  -8   19.70    5.50
  -1   3   8   23.70    6.60
  -1   3   8   15.70    5.80
   0  -3  -8  135.09    9.80
   0   3   8  143.09   10.90
   0   3   8  162.48   11.20
  -1  -3  -8   26.70    6.70
   1   3   8   28.80    6.70
   1   3   8   24.30    6.60
  -2  -3  -8   83.09    9.30
   2   3   8   53.99    8.10
  -3  -3  -8   -2.60    7.70
   3   3   8    5.70    7.80
  -4  -3  -8   -8.20    8.70
   4   3   8    0.80    9.70
  -5  -3  -8  -13.10   11.90
   5   3   8   -7.10   11.80
  -4   4   8  -13.70   10.90
  -3   4   8   12.00   10.30
   2  -4  -8   31.90    8.60
  -2   4   8   54.19   10.50
   1  -4  -8  112.59   10.00
  -1   4   8  127.39   12.30
   0  -4  -8  289.67   15.40
   0   4   8  303.77   16.90
  -1  -4  -8   51.89    8.60
   1   4   8   36.70    8.30
  -2  -4  -8   -7.10    7.80
   2   4   8   12.20    8.30
  -3  -4  -8   66.99   11.80
  -4  -4  -8   29.70   12.30
   4   4   8   46.30   12.60
  -5  -4  -8  231.98   22.50
   5   4   8  276.67   26.30
  -3   5   8    5.80   12.00
  -2   5   8   14.20   11.00
   1  -5  -8    5.70    8.20
  -1   5   8   -4.20    8.90
   0  -5  -8   22.50    8.50
   0   5   8   17.70    9.60
  -1  -5  -8    7.30    8.30
   1   5   8   -5.60    8.80
  -2  -5  -8   -6.10    9.40
   2   5   8  -20.20    9.10
  -3  -5  -8   25.40   10.50
   3   5   8   26.20   12.70
  -4  -5  -8    7.00   13.00
   4   5   8   22.00   13.60
  -2   6   8   25.80   14.70
  -1   6   8  219.18   20.90
   0   6   8    2.50   11.00
   1   6   8   10.90   11.30
   2   6   8   45.80   14.00
   3   6   8   11.90   14.40
   0   7   8    6.90   13.70
   1   7   8    8.40   14.60
   3   6  -9   13.90   14.80
  -3  -6   9   25.50   15.20
   2   6  -9   48.40   15.40
  -2  -6   9   36.40   15.80
   1   6  -9   43.40   14.90
  -1  -6   9   19.40   13.90
   0   6  -9  -14.20   12.30
   0  -6   9   16.70   13.20
  -1   6  -9   26.50   13.90
   1  -6   9   20.70   14.00
  -2   6  -9   27.90   14.10
   2  -6   9    1.60   13.30
   4   5  -9   13.00   19.70
  -4  -5   9   43.20   16.70
   3   5  -9  187.18   18.00
  -3  -5   9  175.98   19.40
   2   5  -9   15.60   11.00
  -2  -5   9    4.50   11.70
   1   5  -9  171.78   16.10
  -1  -5   9  184.08   16.90
   0   5  -9   80.49   13.30
   0  -5   9  121.19   14.90
  -1   5  -9   -2.00   10.80
   1  -5   9   21.60   12.00
  -2   5  -9   71.29   15.00
   2  -5   9   86.19   14.80
  -3   5  -9   -5.30   13.40
   3  -5   9   -7.90   13.00
  -5  -4   9    6.70   14.20
   4   4  -9   32.80   13.30
  -4  -4   9   13.20   13.10
   3   4  -9   -4.70    9.90
  -3  -4   9    6.20   10.60
   2   4  -9   69.59   11.20
  -2  -4   9   68.09   11.80
   1   4  -9   -5.70    8.30
  -1  -4   9    1.30    8.80
   0   4  -9   39.20    9.60
   0  -4   9   35.80    9.60
  -1   4  -9  -11.80    8.90
   1  -4   9    9.00    9.30
  -2   4  -9  488.15   26.20
   2  -4   9  490.45   25.60
  -3   4  -9   17.10   11.50
   3  -4   9   29.60   12.90
  -4   4  -9   20.90   13.50
   4  -4   9   26.10   15.10
  -5  -3   9   15.50   13.60
   4   3  -9   59.69   12.30
  -4  -3   9   54.69   12.80
   3   3  -9    7.80    8.60
  -3  -3   9   22.10    9.30
   2   3  -9  146.29   13.80
  -2  -3   9  147.89   13.70
   1   3  -9  106.89   10.00
  -1  -3   9  116.09   10.30
   0   3  -9  108.39   10.20
   0  -3   9  101.39   10.20
  -1   3  -9   29.50    7.00
   1  -3   9   33.00    8.50
  -2   3  -9   20.60    8.20
   2  -3   9    2.10    8.20
  -3   3  -9   10.00    9.60
   3  -3   9   -6.80    9.60
  -4   3  -9   21.50   12.20
   4  -3   9   25.30   12.30
  -5   3  -9   -0.50   14.70
   5  -3   9   -0.20   13.30
  -5  -2   9   65.19   13.30
   4   2  -9   74.29   11.30
  -4  -2   9   76.69   11.90
   3   2  -9   29.20    8.10
  -3  -2   9   29.30    8.30
   2   2  -9  104.29    9.30
  -2  -2   9  135.39   13.70
  -2  -2   9  105.49   10.10
   1   2  -9   75.89    7.40
  -1  -2   9   94.49    8.30
  -1  -2   9   71.89    7.60
   0   2  -9  200.78   11.90
   0  -2   9  183.88   11.20
   0  -2   9  200.58   12.30
  -1   2  -9 1178.18   39.50
   1  -2   9 1212.48   40.10
   1  -2   9 1142.19   39.60
  -2   2  -9  161.28   13.10
   2  -2   9  172.98   12.90
  -3   2  -9   32.80    9.10
   3  -2   9   33.30    9.70
  -4   2  -9   11.60    5.60
  -4   2  -9   22.50   11.20
   4  -2   9   11.00   10.40
  -5   2  -9   -4.50   12.60
   5  -2   9   19.20   13.40
  -5  -1   9   26.60   12.50
   4   1  -9    3.70    7.00
   4   1  -9   12.40    8.70
  -4  -1   9    4.70    8.40
   3   1  -9   -7.70    5.80
   3   1  -9   -2.80    6.30
  -3  -1   9   -6.50    6.60
   2   1  -9    4.40    4.80
  -2  -1   9    8.70    4.70
  -2  -1   9   -9.00    5.20
   1   1  -9   50.99    4.70
  -1  -1   9   60.19    5.50
  -1  -1   9   48.20    5.50
   0   1  -9  272.87   10.80
   0  -1   9  265.87   11.10
   0  -1   9  262.87   12.00
  -1   1  -9  183.98    9.80
   1  -1   9  160.98    9.80
   1  -1   9  152.68   10.30
  -2   1  -9   60.59    7.50
   2  -1   9   60.79    8.00
  -3   1  -9   14.10    4.90
  -3   1  -9   12.20    8.00
   3  -1   9   11.20    7.20
  -4   1  -9    4.30    9.40
   4  -1   9    8.00    9.30
  -5   1  -9   23.60   12.20
   5  -1   9   49.20   14.00
  -5   0   9   -9.20    9.80
   4   0  -9   14.40    8.00
  -4   0   9    4.30    7.80
   3   0  -9   63.29    7.90
   3   0  -9   56.39    7.50
  -3   0   9   60.99    8.10
  -3   0   9   35.40    7.50
   2   0  -9  879.11   30.60
  -2   0   9  846.62   29.20
  -2   0   9  873.41   29.50
   1   0  -9   76.89    8.70
  -1   0   9   79.19    5.80
  -1   0   9   89.19    5.40
   0   0  -9 1165.38   38.90
  -1   0  -9  895.91   31.90
  -1   0  -9  961.10   29.90
  -1   0  -9  903.21   29.80
   1   0   9  960.90   30.40
   1   0   9  956.30   30.20
  -2   0  -9  146.19    9.50
  -2   0  -9  163.58   10.80
   2   0   9  155.08   11.00
   2   0   9  140.29   10.50
  -3   0  -9  134.99   12.80
   3   0   9  108.59   10.30
  -4   0  -9   58.69   11.30
   4   0   9   62.49   11.30
  -5   0  -9   28.20   12.80
   5   0   9   13.50   12.00
  -6   0  -9  -15.40   15.40
   6   0   9    2.90   14.00
  -5   1   9    3.00   10.90
   4  -1  -9   10.40    7.90
  -4   1   9    9.80    7.80
   3  -1  -9    5.20    5.70
  -3   1   9    6.30    6.00
  -3   1   9   11.80    6.50
  -2   1   9   -2.00    4.60
  -2   1   9    1.80    5.00
  -2   1   9    5.60    4.50
  -1   1   9   22.40    3.70
  -1   1   9   23.90    6.00
  -1   1   9   18.40    3.90
   0   1   9   80.49    4.50
   0   1   9   90.79    4.40
  -1  -1  -9   84.29    6.70
   1   1   9   77.19    6.20
   1   1   9   94.29    8.20
   1   1   9   90.19    7.30
  -2  -1  -9  165.48   10.90
   2   1   9  143.59   10.40
   2   1   9  149.29   10.50
   2   1   9  161.38   11.20
  -3  -1  -9   14.90    6.80
   3   1   9   17.50    7.20
  -4  -1  -9  112.79   13.10
   4   1   9  124.89   13.50
  -5  -1  -9   21.30   12.40
   5   1   9   14.00   11.90
  -6  -1  -9   25.50   15.60
   6   1   9   19.50   15.00
  -5   2   9   -7.40   10.70
  -4   2   9    3.30    7.70
   3  -2  -9  539.85   22.00
  -3   2   9  550.14   23.50
   2  -2  -9    2.10    4.60
  -2   2   9   -4.00    5.60
  -2   2   9   -0.90    4.90
  -1   2   9   43.20    5.40
  -1   2   9   46.40    6.00
   0  -2  -9    1.10    3.90
   0   2   9   -1.60    4.20
   0   2   9    4.40    4.60
  -1  -2  -9   20.00    5.10
   1   2   9   23.90    5.30
   1   2   9   24.30    5.40
  -2  -2  -9   26.30    6.70
   2   2   9   33.50    6.70
   2   2   9   38.10    7.60
  -3  -2  -9  644.34   26.30
   3   2   9  642.04   26.60
  -4  -2  -9    6.60    8.70
   4   2   9   -6.90    8.60
  -5  -2  -9   14.50   12.70
   5   2   9    3.00   11.50
  -5   3   9   -3.80   11.30
  -4   3   9   -1.40    8.50
   3  -3  -9  129.59   10.90
  -3   3   9  110.09   11.80
   2  -3  -9   23.00    6.30
  -2   3   9   17.30    7.10
   1  -3  -9   82.69    7.30
  -1   3   9   80.99    7.80
  -1   3   9   73.99    8.50
   0  -3  -9  409.06   16.30
   0   3   9  407.06   17.60
   0   3   9  412.16   17.80
  -1  -3  -9  595.04   22.30
   1   3   9  593.34   22.90
   1   3   9  569.34   22.90
  -2  -3  -9  312.67   15.90
   2   3   9  255.57   16.10
  -3  -3  -9  206.08   15.40
   3   3   9  189.18   16.00
  -4  -3  -9    3.60    9.80
   4   3   9   14.60   10.60
  -5  -3  -9    0.30   12.80
   5   3   9   18.50   13.70
  -4   4   9   -0.90   10.20
  -3   4   9    2.90    9.80
   2  -4  -9   27.20    8.30
  -2   4   9   15.00    9.10
   1  -4  -9  135.39   11.80
  -1   4   9  131.09   12.10
   0  -4  -9   -5.00    5.50
   0   4   9   -5.00    6.70
  -1  -4  -9   57.39    8.40
   1   4   9   56.49    9.60
  -2  -4  -9    8.40    7.60
   2   4   9   -1.50    8.10
  -3  -4  -9   68.09   11.90
  -4  -4  -9    4.90   10.20
   4   4   9   -4.30   11.30
  -5  -4  -9   44.00   15.10
   5   4   9   24.50   14.50
  -3   5   9   -1.50   11.90
  -2   5   9    9.00   10.60
   1  -5  -9   21.70    8.80
  -1   5   9   20.60   10.20
   0  -5  -9   48.30    9.60
   0   5   9   37.40   10.20
  -1  -5  -9   -1.30    8.10
   1   5   9   -1.40    8.60
  -2  -5  -9  251.97   19.70
   2   5   9  267.47   20.30
  -3  -5  -9    2.20   10.30
   3   5   9   13.30   11.40
  -4  -5  -9  122.79   19.50
   4   5   9  173.68   21.00
  -2   6   9   -4.00   12.90
  -1   6   9   15.70   11.90
   0   6   9   -1.10   10.80
   1   6   9    7.10   10.90
   2   6   9   28.50   13.30
   3   6   9   12.20   13.60
   0   7   9    6.80   13.80
   1   7   9   62.49   16.00
   3   6 -10   33.60   17.70
  -3  -6  10    8.50   16.70
   2   6 -10   -1.00   13.60
  -2  -6  10  -17.10   13.40
   1   6 -10   51.39   15.10
  -1  -6  10   97.99   17.30
   0   6 -10   67.59   14.50
   0  -6  10   62.89   15.00
  -1   6 -10   33.10   14.80
   1  -6  10   10.30   13.10
  -2   6 -10    8.50   14.00
   2  -6  10   27.30   14.40
  -4  -5  10   20.40   14.30
   3   5 -10    9.20   12.70
  -3  -5  10  -12.70   10.90
   2   5 -10    6.00   11.20
  -2  -5  10  -10.00   11.40
   1   5 -10   29.50   11.30
  -1  -5  10   11.60   11.80
   0   5 -10   -3.50   10.30
   0  -5  10   29.90   11.50
  -1   5 -10   -9.70   10.50
   1  -5  10   -0.60   11.00
  -2   5 -10   55.19   14.10
   2  -5  10   89.39   15.50
  -3   5 -10   -1.50   13.80
   3  -5  10  -18.90   13.10
  -5  -4  10   16.00   14.60
   4   4 -10  111.49   15.40
  -4  -4  10  109.79   16.30
   3   4 -10   -3.90   10.20
  -3  -4  10   -3.60    9.70
   2   4 -10   28.50    9.80
  -2  -4  10   20.00   10.20
   1   4 -10   53.69   10.40
  -1  -4  10   54.09   10.70
   0   4 -10   43.60    9.70
   0  -4  10   53.99   10.60
  -1   4 -10   60.69   11.20
   1  -4  10   87.79   12.00
  -2   4 -10  157.78   15.30
   2  -4  10  139.49   14.90
  -3   4 -10   16.10   11.60
   3  -4  10   -2.10   11.50
  -4   4 -10    2.00   12.50
   4  -4  10    0.90   14.40
  -5  -3  10  -13.50   13.20
   4   3 -10    7.20   10.30
  -4  -3  10   16.60   11.10
   3   3 -10   -2.70    8.10
  -3  -3  10    9.70    8.90
   2   3 -10  173.28   14.20
  -2  -3  10  148.09   13.80
   1   3 -10  247.58   15.60
  -1  -3  10  296.27   15.80
   0   3 -10  162.58   13.10
   0  -3  10  132.09   12.70
  -1   3 -10   57.69    8.50
   1  -3  10   87.59   10.30
  -2   3 -10    6.60    7.60
   2  -3  10   11.20    9.00
  -3   3 -10   35.40   10.20
   3  -3  10   42.00   11.70
  -4   3 -10  107.19   16.30
   4  -3  10  100.09   15.50
  -5   3 -10   15.70   15.00
   5  -3  10   22.40   14.30
  -5  -2  10   34.40   12.20
   4   2 -10    7.50    9.20
   4   2 -10   12.60    8.90
  -4  -2  10    8.80    9.80
   3   2 -10   10.80    7.50
  -3  -2  10    6.40    7.30
   2   2 -10  167.98   12.00
  -2  -2  10  194.48   12.90
  -2  -2  10  176.58   12.00
   1   2 -10   55.89    6.90
  -1  -2  10   57.89    7.30
  -1  -2  10   55.79    6.80
   0   2 -10   10.70    5.60
   0  -2  10   10.20    4.70
   0  -2  10    1.70    6.00
  -1   2 -10   14.10    6.20
   1  -2  10   29.80    7.10
   1  -2  10   21.90    6.20
  -2   2 -10  164.08   13.20
   2  -2  10  155.48   12.90
  -3   2 -10   -6.90    7.30
   3  -2  10    4.00    8.90
  -4   2 -10   19.10    6.20
  -4   2 -10   18.90   10.70
   4  -2  10   18.00   10.80
  -5   2 -10  -18.70   12.70
   5  -2  10   11.80   12.60
  -5  -1  10  109.39   15.80
   4   1 -10   -0.70    8.00
   4   1 -10    0.50    7.50
  -4  -1  10    6.40    8.80
   3   1 -10    7.10    5.80
   3   1 -10    3.70    6.80
  -3  -1  10   -7.90    6.20
   2   1 -10  188.18   10.50
  -2  -1  10  188.68   11.50
  -2  -1  10  200.18   10.80
   1   1 -10   60.99    5.80
  -1  -1  10   71.59    6.20
  -1  -1  10   72.79    6.00
   0   1 -10  429.16   15.10
   0  -1  10  441.36   16.30
   0  -1  10  428.26   15.70
  -1   1 -10 3589.84  105.29
   1  -1  10 3382.56  105.69
   1  -1  10 3385.56  105.59
  -2   1 -10  140.29   11.20
   2  -1  10  139.89   11.60
  -3   1 -10   49.10    6.50
  -3   1 -10   60.79    9.40
   3  -1  10   56.89    9.30
  -4   1 -10  224.98   19.10
   4  -1  10  287.07   20.40
  -5   1 -10  170.38   18.80
   5  -1  10  150.08   17.20
  -5   0  10   22.30   11.00
   4   0 -10   12.00    7.70
  -4   0  10    7.10    7.70
   3   0 -10   16.60    6.90
   3   0 -10    6.00    5.90
  -3   0  10   24.80    6.90
  -3   0  10   14.10    6.40
   2   0 -10   50.99    8.00
  -2   0  10   59.39    6.30
  -2   0  10   47.30    5.80
   1   0 -10   48.20    8.20
  -1   0  10   44.00    4.00
  -1   0  10   47.20    3.90
   0   0 -10  552.64   21.70
   0   0  10  539.55   16.80
  -1   0 -10  126.29    7.30
  -1   0 -10  107.19   10.70
   1   0  10  117.99    8.20
   1   0  10  126.09    7.60
  -2   0 -10   -0.50    5.20
  -2   0 -10   -8.20    4.90
   2   0  10   -1.10    4.70
   2   0  10   -0.10    5.40
  -3   0 -10   59.99    8.50
   3   0  10   67.59    8.80
  -4   0 -10   -6.30    8.60
   4   0  10   13.10    8.90
  -5   0 -10  -24.50   10.80
   5   0  10    3.30   11.50
  -6   0 -10    9.70   15.10
   6   0  10  -35.90   13.00
  -5   1  10   -2.00   10.10
   4  -1 -10    2.50    7.00
  -4   1  10   -1.30    7.60
   3  -1 -10  121.79   10.10
  -3   1  10  130.59   11.20
  -3   1  10  135.29   12.00
   2  -1 -10    8.10    4.60
  -2   1  10    3.60    4.30
  -2   1  10    5.60    4.60
  -1   1  10   97.69    6.30
  -1   1  10   88.19    6.00
  -1   1  10  100.19    9.90
   0   1  10 2340.27   69.49
   0   1  10 2281.17   69.49
  -1  -1 -10  280.07   11.10
   1   1  10  301.37   12.20
   1   1  10  289.77   14.70
   1   1  10  281.57   11.90
  -2  -1 -10   19.30    5.70
   2   1  10   11.20    5.80
   2   1  10   13.50    5.10
   2   1  10   17.60    6.10
  -3  -1 -10    2.80    7.10
   3   1  10    5.80    7.00
  -4  -1 -10    7.80    8.40
   4   1  10    6.40    8.50
  -5  -1 -10    3.60   12.10
   5   1  10   12.20   12.80
  -6  -1 -10   89.59   17.50
   6   1  10   97.29   19.50
  -5   2  10    1.50   10.80
  -4   2  10   14.80    8.50
   3  -2 -10   40.90    7.00
  -3   2  10   44.10    8.50
  -2   2  10    8.40    5.80
  -2   2  10    1.20    5.00
   1  -2 -10  105.99    6.10
  -1   2  10  107.19    8.60
  -1   2  10  115.19    8.00
   0  -2 -10   63.79    5.10
   0  -2 -10   58.79    4.90
   0   2  10   65.09    6.10
   0   2  10   69.59    6.00
  -1  -2 -10    0.40    4.40
   1   2  10    1.40    4.30
   1   2  10   -4.50    4.60
  -2  -2 -10   82.99    8.10
   2   2  10   86.49    8.40
   2   2  10   98.19    8.70
  -3  -2 -10  275.77   16.20
   3   2  10  250.27   16.50
  -4  -2 -10  132.19   13.70
   4   2  10   96.69   12.70
  -5  -2 -10   22.40   12.10
   5   2  10   30.40   12.80
  -5   3  10   12.50   11.80
  -4   3  10   52.39   11.00
   3  -3 -10  152.58   13.90
  -3   3  10  139.39   13.10
   2  -3 -10    9.30    5.60
  -2   3  10   -1.60    6.60
  -1   3  10  137.79   11.70
  -1   3  10  143.29   10.60
   0  -3 -10  107.49    8.60
   0   3  10  109.59   10.10
   0   3  10  118.69    9.30
  -1  -3 -10    1.70    5.30
   1   3  10   10.90    5.60
   1   3  10    1.70    5.50
  -2  -3 -10  529.25   22.00
   2   3  10  513.45   22.50
  -3  -3 -10   71.39   10.20
   3   3  10   35.50    8.70
  -4  -3 -10   15.10    9.40
   4   3  10   -2.60    9.20
  -5  -3 -10   61.89   14.10
   5   3  10   65.99   15.30
  -4   4  10   28.90   12.00
  -3   4  10  -10.30    9.10
   2  -4 -10    6.60    7.20
  -2   4  10   -2.70    8.40
   1  -4 -10  212.38   13.20
  -1   4  10  226.08   15.80
   0  -4 -10   20.30    6.50
   0   4  10   19.70    7.60
  -1  -4 -10   56.59    8.40
   1   4  10   58.09    9.30
  -2  -4 -10   14.90    8.10
   2   4  10   -0.40    7.60
  -3  -4 -10    6.80    9.10
   3   4  10   -6.20    8.50
  -4  -4 -10   53.49   12.60
   4   4  10   63.39   13.80
   5   4  10  129.69   17.50
  -3   5  10   15.60   12.00
  -2   5  10  -10.60    9.80
  -1   5  10   -2.40    9.30
   0  -5 -10    2.20    7.50
   0   5  10   14.30    9.40
  -1  -5 -10    3.90    7.90
   1   5  10   -0.30    8.60
  -2  -5 -10    5.70    9.20
   2   5  10    4.80    9.00
  -3  -5 -10    2.80   10.20
   3   5  10  -18.30   10.70
   4   5  10   -8.40   13.00
  -2   6  10  -14.20   11.60
  -1   6  10   30.90   13.20
   0   6  10   81.49   14.70
   1   6  10   92.29   14.10
   2   6  10   -8.10   11.90
   3   6  10    6.00   13.60
  -3  -6  11  -20.70   13.50
   2   6 -11   -4.70   13.40
  -2  -6  11   -1.90   13.50
   1   6 -11    3.30   13.20
  -1  -6  11   10.20   12.20
   0   6 -11    5.30   13.50
   0  -6  11   -0.60   13.20
  -1   6 -11    2.30   13.00
   1  -6  11   11.90   12.80
  -2   6 -11   20.70   15.20
   2  -6  11  -10.50   14.40
  -4  -5  11    4.30   13.90
   3   5 -11   51.09   13.90
  -3  -5  11   64.29   15.80
   2   5 -11   47.20   12.90
  -2  -5  11   33.00   13.60
   1   5 -11  247.38   21.10
  -1  -5  11  342.27   22.60
   0   5 -11   27.20   11.70
   0  -5  11   32.30   11.10
  -1   5 -11   73.29   14.20
   1  -5  11   43.30   13.00
  -2   5 -11  120.09   16.50
   2  -5  11  147.69   17.50
  -3   5 -11   22.00   14.70
   3  -5  11   11.30   13.30
  -4  -4  11    9.40   12.80
   3   4 -11    3.60    9.90
  -3  -4  11   -1.40    9.70
   2   4 -11   46.00   10.20
  -2  -4  11   39.80   10.70
   1   4 -11   18.10    8.90
  -1  -4  11   25.60    9.90
   0   4 -11   49.10   10.10
   0  -4  11   97.09   11.90
  -1   4 -11   52.49   10.10
   1  -4  11   49.90   11.00
  -2   4 -11   13.10   10.00
   2  -4  11   12.20   10.50
  -3   4 -11   31.00   12.30
   3  -4  11   55.99   13.50
  -4   4 -11   -4.30   13.30
   4  -4  11    4.70   13.50
  -5  -3  11   44.50   15.40
   4   3 -11    4.30   10.20
  -4  -3  11    3.80   10.60
   3   3 -11  133.69   12.40
  -3  -3  11  119.29   12.20
   2   3 -11  103.79   10.20
  -2  -3  11  103.79   10.70
   1   3 -11  155.48   13.20
  -1  -3  11  150.28   12.80
   0   3 -11   70.79    9.00
   0  -3  11   54.69    8.90
  -1   3 -11  305.77   16.70
   1  -3  11  269.67   16.80
  -2   3 -11   65.89   10.00
   2  -3  11   97.59   11.90
  -3   3 -11   10.20    9.70
   3  -3  11   -7.20    9.60
  -4   3 -11   85.99   14.90
   4  -3  11   78.19   14.60
  -5   3 -11    0.70   14.10
   5  -3  11   27.20   14.10
  -5  -2  11    5.50   11.30
   4   2 -11   21.20    9.30
   4   2 -11   19.20    9.30
  -4  -2  11    6.40    9.20
   3   2 -11   76.19    9.30
  -3  -2  11   59.49    9.40
   2   2 -11  336.77   15.60
  -2  -2  11  316.27   15.80
  -2  -2  11  309.07   15.90
   1   2 -11   19.80    5.70
  -1  -2  11   29.50    6.20
  -1  -2  11   24.80    6.00
   0   2 -11  166.48   10.90
   0  -2  11  178.18   12.00
   0  -2  11  177.28   11.00
  -1   2 -11  369.96   17.20
   1  -2  11  422.96   18.40
   1  -2  11  415.06   18.10
  -2   2 -11  257.57   14.80
   2  -2  11  239.28   15.10
  -3   2 -11   39.00    9.60
   3  -2  11   22.70    9.60
  -4   2 -11   94.39    9.90
  -4   2 -11  112.49   14.00
   4  -2  11   84.99   13.20
  -5   2 -11   30.70   13.60
   5  -2  11    7.80   12.60
  -5  -1  11   30.70   12.00
   4   1 -11    0.80    7.60
  -4  -1  11   10.90    9.10
   3   1 -11   53.99    7.50
   3   1 -11   63.69    9.70
  -3  -1  11   68.89    9.50
   2   1 -11  205.88   10.90
   2   1 -11  203.38   13.80
  -2  -1  11  172.18   10.60
  -2  -1  11  181.78   11.60
   1   1 -11    0.60    3.40
  -1  -1  11    7.80    4.20
  -1  -1  11    0.90    4.30
   0   1 -11  204.48    8.80
   0  -1  11  206.88    9.60
   0  -1  11  209.28   10.50
  -1   1 -11   96.19    8.40
   1  -1  11   99.39    8.00
   1  -1  11  111.79    8.40
  -2   1 -11    2.70    5.70
  -2   1 -11   -0.10    5.80
   2  -1  11   -7.20    5.90
  -3   1 -11    2.20    7.60
  -3   1 -11    4.90    5.80
   3  -1  11    1.20    7.10
  -4   1 -11   15.10   10.20
   4  -1  11   18.50   10.50
  -5   1 -11    6.80   11.80
   5  -1  11    4.00   11.60
  -5   0  11    9.60   10.50
   4   0 -11    5.70    7.50
  -4   0  11   -4.40    7.50
   3   0 -11  230.78   12.80
   3   0 -11  256.97   14.70
  -3   0  11  270.57   14.60
  -3   0  11  215.48   13.80
   2   0 -11   31.60    7.70
   2   0 -11   44.00    4.40
  -2   0  11   48.40    5.60
  -2   0  11   42.20    5.70
   1   0 -11  159.28   12.70
  -1   0  11  159.68    7.10
  -1   0  11  152.98    7.20
   0   0 -11 2926.21   92.19
   0   0  11 2926.51   88.19
   0   0  11 2980.50   88.19
  -1   0 -11    6.40    3.70
  -1   0 -11    6.30    6.60
   1   0  11    9.00    3.70
   1   0  11    3.40    4.40
  -2   0 -11  224.08   12.60
  -2   0 -11  239.78   12.20
   2   0  11  221.18   12.20
   2   0  11  222.98   12.70
  -3   0 -11 1506.15   49.90
   3   0  11 1445.16   50.39
  -4   0 -11   57.89   11.30
   4   0  11   37.00   11.20
  -5   0 -11    9.80   12.40
   5   0  11    3.90   12.90
  -5   1  11    2.30   10.10
  -4   1  11   12.30    8.00
   3  -1 -11    0.30    5.90
  -3   1  11    4.40    5.80
  -3   1  11    5.10    6.90
   2  -1 -11    4.30    3.50
  -2   1  11    5.80    4.50
  -2   1  11  -10.80    3.70
  -1   1  11  130.29    6.40
  -1   1  11  120.69    6.60
   0   1  11  197.78    7.40
   0   1  11  221.18    7.30
  -1  -1 -11   24.60    4.60
  -1  -1 -11   25.10    3.80
   1   1  11   22.90    4.60
   1   1  11   32.80    7.00
   1   1  11   19.00    4.20
  -2  -1 -11   96.39    9.10
   2   1  11   92.49    8.10
   2   1  11   99.09    8.30
  -3  -1 -11   20.30    7.30
   3   1  11   41.40    8.40
  -4  -1 -11   -3.90    8.50
   4   1  11    9.20    9.40
  -5  -1 -11    0.60   11.50
   5   1  11    4.20   11.30
  -5   2  11    5.90   10.80
  -4   2  11   -1.30    7.90
   3  -2 -11  180.98   13.70
  -3   2  11  182.78   13.70
   2  -2 -11   46.60    5.10
  -2   2  11   44.50    6.90
  -2   2  11   30.80    6.10
  -1   2  11  535.05   19.30
  -1   2  11  517.35   18.80
   0   2  11  593.84   20.20
   0   2  11  559.34   20.30
   1   2  11  113.49    9.10
   1   2  11  123.29    8.50
  -2  -2 -11  201.98   12.00
   2   2  11  221.08   13.10
   2   2  11  200.18   12.40
  -3  -2 -11  108.39   10.50
   3   2  11   99.79   11.20
  -4  -2 -11   38.50   10.40
   4   2  11   34.30   11.30
  -5  -2 -11  136.79   17.00
   5   2  11   96.79   14.90
  -5   3  11    7.30   10.90
  -4   3  11   16.80    9.70
  -3   3  11   -6.90    7.40
  -2   3  11    3.90    6.70
  -1   3  11   45.90    7.50
  -1   3  11   51.59    6.80
   0   3  11    4.00    5.20
   0   3  11    4.70    5.10
  -1  -3 -11   -0.20    5.10
   1   3  11    6.00    5.40
   1   3  11   -0.80    5.40
  -2  -3 -11  172.88   12.80
   2   3  11  183.88   13.60
  -3  -3 -11   -6.70    7.30
   3   3  11    7.30    8.10
  -4  -3 -11  -14.30    8.50
   4   3  11    1.20   10.30
  -5  -3 -11   -8.40   11.80
   5   3  11  -13.40   11.30
  -4   4  11   54.69   12.30
  -3   4  11   -7.60    9.00
  -2   4  11   38.50   10.00
   1  -4 -11  291.57   15.10
  -1   4  11  343.87   18.30
   0  -4 -11    9.00    5.90
   0   4  11   -5.60    6.80
  -1  -4 -11   60.39    8.30
   1   4  11   57.39    9.10
  -2  -4 -11   -6.00    7.70
   2   4  11    0.50    7.60
  -3  -4 -11  -13.50    8.50
   3   4  11   -2.90    8.30
  -4  -4 -11   31.80   12.10
   4   4  11   26.00   11.40
   5   4  11   17.00   14.80
  -3   5  11    5.20   11.90
  -2   5  11    4.40   10.80
  -1   5  11    5.20    9.20
   0   5  11    5.60    8.60
  -1  -5 -11    7.60    7.90
   1   5  11   14.10    9.20
  -2  -5 -11   57.39   11.30
   2   5  11   42.80   11.40
   3   5  11   40.50   13.70
   4   5  11  166.18   19.30
  -2   6  11    3.40   13.00
  -1   6  11  -14.90   10.80
   0   6  11    4.10   11.40
   1   6  11    2.00   11.10
   2   6  11    4.30   12.00
   3   6  11   -9.00   12.90
   2   6 -12    1.00   14.10
  -2  -6  12   11.60   15.00
   1   6 -12   -5.30   13.50
  -1  -6  12    2.40   13.00
   0   6 -12    6.10   14.00
   0  -6  12    5.70   13.70
  -1   6 -12   67.49   15.80
   1  -6  12   55.29   14.60
  -2   6 -12   43.70   17.20
   2  -6  12   52.99   16.40
  -4  -5  12   14.60   15.70
   3   5 -12   27.70   12.90
  -3  -5  12   -4.40   12.90
   2   5 -12   12.30   11.50
  -2  -5  12   -1.50   11.60
   1   5 -12   -0.40   10.50
  -1  -5  12  -10.30   11.20
   0   5 -12   29.80   11.20
   0  -5  12   45.60   12.00
  -1   5 -12   57.29   13.30
   1  -5  12   53.59   13.40
  -2   5 -12    7.00   12.60
   2  -5  12   24.10   14.00
  -3   5 -12   12.00   14.50
   3  -5  12   -5.60   13.90
  -4  -4  12   96.89   16.30
   3   4 -12   27.80   11.10
  -3  -4  12   20.90   10.90
   2   4 -12  237.98   18.20
  -2  -4  12  217.38   18.10
   1   4 -12  172.58   16.30
  -1  -4  12  196.48   16.70
   0   4 -12   48.40    9.70
   0  -4  12   42.40    9.90
  -1   4 -12  444.56   23.20
   1  -4  12  456.75   23.90
  -2   4 -12   -5.80    9.80
   2  -4  12  -10.40   10.10
  -3   4 -12   18.80   12.80
   3  -4  12    0.10   12.20
  -4   4 -12   -7.20   13.50
   4  -4  12   -5.00   13.00
  -5  -3  12   13.70   14.00
  -4  -3  12   -5.20   10.30
   3   3 -12   43.60    9.80
  -3  -3  12   41.40   10.20
   2   3 -12   -4.10    6.80
  -2  -3  12   -3.70    7.50
   1   3 -12   33.70    7.50
  -1  -3  12   34.70    7.70
   0   3 -12   53.69    8.50
   0  -3  12   49.80    8.70
  -1   3 -12  261.87   16.10
   1  -3  12  278.77   16.70
  -2   3 -12   68.69   10.40
   2  -3  12   80.69   11.30
  -3   3 -12   11.70    9.30
   3  -3  12   11.10   10.80
  -4   3 -12   96.99   15.30
   4  -3  12   86.19   16.30
  -5   3 -12   11.30   13.60
   5  -3  12   -4.30   13.70
  -5  -2  12   40.90   13.20
   4   2 -12    6.60    9.50
   4   2 -12   15.30    9.70
  -4  -2  12   11.70    8.80
   3   2 -12  194.98   14.40
  -3  -2  12  197.28   15.30
   2   2 -12  161.78   11.60
  -2  -2  12  185.38   12.40
  -2  -2  12  177.38   12.40
   1   2 -12  244.68   12.00
  -1  -2  12  215.88   12.70
  -1  -2  12  226.38   12.70
   0   2 -12  115.79    9.50
   0  -2  12  117.09    9.60
   0  -2  12  116.29   10.10
  -1   2 -12  363.16   16.80
   1  -2  12  390.96   17.90
   1  -2  12  395.36   17.10
  -2   2 -12   23.20    7.00
   2  -2  12   16.70    7.60
  -3   2 -12  114.39   11.90
   3  -2  12  181.48   14.70
  -4   2 -12   -0.40    6.50
  -4   2 -12   -6.80   10.20
   4  -2  12  -10.40    9.80
  -5   2 -12   27.50   13.30
   5  -2  12   16.90   13.20
  -5  -1  12   17.50   10.40
   4   1 -12   14.40    8.80
   4   1 -12   10.60   10.90
  -4  -1  12   16.80    9.00
   3   1 -12    4.40    7.50
   3   1 -12    7.60    5.80
  -3  -1  12   -7.60    6.40
   2   1 -12   31.60    8.20
  -2  -1  12   23.60    5.30
  -2  -1  12   22.30    5.90
   1   1 -12    7.10    4.20
   1   1 -12    7.30    3.10
  -1  -1  12    9.70    4.40
  -1  -1  12    9.80    4.30
   0   1 -12  630.04   20.50
   0   1 -12  643.54   20.60
   0  -1  12  636.14   22.10
   0  -1  12  629.34   21.60
  -1   1 -12   67.79    6.10
   1  -1  12   62.59    7.10
   1  -1  12   58.49    6.00
  -2   1 -12  101.39   10.50
  -2   1 -12  117.39    9.40
   2  -1  12  116.19   11.20
  -3   1 -12   19.90    6.50
  -3   1 -12    2.90    7.40
   3  -1  12   11.80    7.60
  -4   1 -12   19.80   10.40
   4  -1  12   16.20   10.50
  -5   1 -12   27.40   12.80
   5  -1  12   31.70   13.80
  -5   0  12   -5.60    9.90
  -4   0  12   -0.70    7.70
   3   0 -12   64.79    9.20
  -3   0  12   43.80    7.60
  -3   0  12   59.09    8.10
   2   0 -12    9.20    3.20
   2   0 -12    4.40    7.20
  -2   0  12    3.20    4.40
  -2   0  12    2.40    4.30
   1   0 -12    8.90    7.20
  -1   0  12   16.10    3.10
  -1   0  12   15.10    2.90
   0   0 -12   13.20    7.60
   0   0  12   31.00    2.90
   0   0  12   23.90    2.80
  -1   0 -12  124.59   11.80
  -1   0 -12  134.59    7.60
   1   0  12  128.29    7.90
   1   0  12  129.39    8.40
  -2   0 -12   24.40    6.60
  -2   0 -12   10.30    5.30
   2   0  12   21.90    6.00
   2   0  12   23.40    5.50
  -3   0 -12   15.00    7.30
   3   0  12    8.40    6.70
  -4   0 -12   15.70    9.50
   4   0  12    2.80    9.20
  -5   0 -12   11.70   12.50
   5   0  12   15.20   12.40
  -5   1  12  -10.80    9.60
  -4   1  12   15.90    8.40
  -3   1  12   55.89    8.20
  -2   1  12   16.70    4.80
  -2   1  12   17.20    4.40
  -1   1  12    1.00    2.60
  -1   1  12   -0.30    2.90
   0   1  12  116.29    4.70
  -1  -1 -12  180.68    7.70
  -1  -1 -12  178.98    7.70
   1   1  12  171.28    9.30
   1   1  12  182.78    9.00
  -2  -1 -12  610.14   22.80
   2   1  12  659.43   23.40
   2   1  12  616.34   23.70
  -3  -1 -12  203.28   14.50
   3   1  12  214.38   15.10
  -4  -1 -12    8.20    8.70
   4   1  12    4.00    8.80
  -5  -1 -12   24.80   12.70
   5   1  12   24.70   12.70
  -5   2  12   23.10   11.40
  -4   2  12   10.10    8.10
  -3   2  12   49.70    8.50
   2  -2 -12   61.49    5.80
  -2   2  12   49.40    6.70
  -2   2  12   42.00    6.70
  -1   2  12    3.40    4.30
  -1   2  12    0.00    4.00
   0   2  12  434.76   15.60
   0   2  12  398.16   15.60
   1   2  12    3.70    4.40
   1   2  12    3.60    4.10
  -2  -2 -12   55.59    6.80
   2   2  12   38.60    6.60
   2   2  12   39.30    7.40
  -3  -2 -12  150.58   13.30
   3   2  12  161.68   14.50
  -4  -2 -12    1.40    9.10
   4   2  12   28.80   10.70
  -5  -2 -12   23.50   11.70
   5   2  12   16.40   12.40
  -4   3  12  124.09   13.10
  -3   3  12   17.60    8.30
  -2   3  12   19.50    7.00
   1  -3 -12   76.29    5.90
  -1   3  12   74.09    7.70
  -1   3  12   52.49    7.70
   0  -3 -12  216.68   10.20
   0   3  12  197.88   12.10
   0   3  12  208.58   11.90
  -1  -3 -12   82.59    7.30
   1   3  12   82.09    8.20
   1   3  12   89.89    8.30
  -2  -3 -12  967.10   32.90
   2   3  12  868.31   33.60
  -3  -3 -12    7.00    7.60
   3   3  12   -3.90    7.50
  -4  -3 -12    5.50    9.20
   4   3  12   27.50   10.80
  -5  -3 -12   28.40   12.40
   5   3  12   15.00   13.00
  -4   4  12   10.10   11.20
  -3   4  12    6.70    9.30
  -2   4  12    1.00    8.40
  -1   4  12  162.68   14.20
   0  -4 -12   35.00    6.50
   0   4  12   39.80    8.40
  -1  -4 -12   58.19    8.00
   1   4  12   44.10    8.40
  -2  -4 -12   14.90    8.10
   2   4  12   25.10    8.60
  -3  -4 -12   56.89   11.00
   3   4  12   31.40   10.50
  -4  -4 -12    9.30   11.80
   4   4  12    7.60   10.90
   5   4  12   59.59   17.30
  -3   5  12  -15.50   10.10
  -2   5  12   81.59   13.50
  -1   5  12   18.30    9.70
   0   5  12   -1.40    8.10
   1   5  12   45.40   10.60
   2   5  12   11.90   10.00
   3   5  12    0.10   11.50
   4   5  12   69.29   15.70
  -2   6  12    8.30   12.80
  -1   6  12   12.30   11.60
   0   6  12   -2.90   11.70
   1   6  12   56.49   13.30
   2   6  12   -3.90   10.80
   3   6  12   77.49   16.40
  -2  -6  13    5.70   14.40
   1   6 -13   19.00   14.10
  -1  -6  13   14.20   13.30
   0   6 -13    3.50   14.00
   0  -6  13   11.90   13.10
  -1   6 -13  -10.20   12.80
   1  -6  13   14.40   13.20
  -2   6 -13   -2.00   14.30
   2  -6  13   -4.30   13.40
  -4  -5  13   -1.50   14.90
  -3  -5  13   13.60   13.50
   2   5 -13  140.49   15.80
  -2  -5  13  130.99   16.30
   1   5 -13   40.30   11.80
  -1  -5  13   47.20   11.90
   0   5 -13   24.60   12.40
   0  -5  13   17.00   11.70
  -1   5 -13   19.80   11.80
   1  -5  13   38.90   13.40
  -2   5 -13   17.20   13.00
   2  -5  13    2.70   13.30
  -3   5 -13   33.70   15.80
   3  -5  13   27.80   14.30
  -4  -4  13   -2.30   12.80
   3   4 -13    3.80   10.50
  -3  -4  13   -3.60   10.50
   2   4 -13    1.10    9.30
  -2  -4  13   10.30    9.60
   1   4 -13    7.00    8.20
  -1  -4  13   -5.30    8.50
   0   4 -13   24.90    9.50
   0  -4  13   17.00    9.20
  -1   4 -13   91.39   11.60
   1  -4  13  111.99   13.60
  -2   4 -13    4.70   10.30
   2  -4  13   -2.20   10.40
  -3   4 -13   -1.90   11.50
   3  -4  13    0.30   11.90
  -4   4 -13   18.30   14.60
   4  -4  13    8.50   15.50
  -5  -3  13   42.50   14.60
  -4  -3  13  -10.70    9.50
   3   3 -13   38.00    9.30
  -3  -3  13   13.80    9.10
   2   3 -13  150.68   13.10
  -2  -3  13   99.79   10.80
   1   3 -13   15.90    6.70
  -1  -3  13   12.30    7.20
   0   3 -13  316.57   17.00
   0  -3  13  328.27   17.50
  -1   3 -13  391.46   19.50
   1  -3  13  383.06   19.80
  -2   3 -13    8.20    8.10
   2  -3  13    9.10    8.60
  -3   3 -13   74.79   12.30
   3  -3  13   75.39   13.10
  -4   3 -13   51.19   13.40
   4  -3  13   36.50   13.00
  -5   3 -13    7.60   15.40
   5  -3  13   -8.70   14.50
  -5  -2  13    3.40   11.40
   4   2 -13   -9.20    9.10
  -4  -2  13    3.40    9.10
   3   2 -13   12.10    7.20
  -3  -2  13   19.90    8.10
   2   2 -13  140.29   10.80
  -2  -2  13  131.29   11.70
  -2  -2  13  152.48   12.00
   1   2 -13   88.89    7.40
  -1  -2  13   68.29    7.40
  -1  -2  13   57.19    7.30
   0   2 -13   11.10    5.10
   0  -2  13   24.40    6.40
   0  -2  13   34.50    6.00
  -1   2 -13   60.59    7.30
   1  -2  13   44.90    7.20
   1  -2  13   58.69    8.00
  -2   2 -13    6.70    6.60
   2  -2  13   12.40    7.40
  -3   2 -13  137.79   12.50
   3  -2  13  143.79   13.50
  -4   2 -13   18.50    7.40
  -4   2 -13    5.10   10.80
   4  -2  13    2.10   10.60
  -5   2 -13    8.30   13.10
   5  -2  13   -0.40   13.50
  -5  -1  13   11.50   11.00
   4   1 -13   10.80    9.40
  -4  -1  13   20.10    8.90
   3   1 -13  104.09    8.70
   3   1 -13  103.09   11.60
  -3  -1  13   94.69   10.30
   2   1 -13    0.80    7.50
  -2  -1  13    0.50    5.00
  -2  -1  13   -8.80    4.40
   1   1 -13  195.98    7.40
   1   1 -13  191.28    7.50
  -1  -1  13  197.38    9.90
  -1  -1  13  198.08   10.00
   0   1 -13 1204.78   37.30
   0   1 -13 1190.68   37.30
   0  -1  13 1275.27   39.00
   0  -1  13 1190.58   38.60
  -1   1 -13   40.40    5.30
   1  -1  13   33.70    5.10
   1  -1  13   38.30    6.30
  -2   1 -13   16.90    6.90
  -2   1 -13   22.80    6.50
   2  -1  13    7.60    6.40
  -3   1 -13    8.90    6.60
  -3   1 -13    4.70    7.20
   3  -1  13  -10.60    7.00
  -4   1 -13    1.80    9.60
   4  -1  13   16.30   10.30
  -5   1 -13    0.40   12.40
   5  -1  13   -7.20   11.30
  -5   0  13    9.40   10.50
  -4   0  13   27.40    8.60
   3   0 -13   86.79   10.60
  -3   0  13   68.29    8.80
  -3   0  13   64.19    8.00
   2   0 -13   -1.20    7.10
  -2   0  13   -1.00    4.30
  -2   0  13   -1.70    4.10
   1   0 -13    3.60    7.10
  -1   0  13    7.80    2.90
   0   0 -13  330.97   17.30
   0   0  13  311.87   10.60
   0   0  13  330.47   11.10
  -1   0 -13  691.93   22.90
  -1   0 -13  738.63   27.70
  -1   0 -13  798.82   25.20
   1   0  13  706.53   24.30
   1   0  13  670.53   24.00
  -2   0 -13    2.60    6.30
  -2   0 -13    7.40    5.10
   2   0  13   15.10    5.80
   2   0  13    3.50    5.00
  -3   0 -13  413.76   19.20
   3   0  13  385.96   20.10
  -4   0 -13  459.55   24.00
   4   0  13  495.55   25.30
  -5   0 -13   46.50   13.70
   5   0  13   54.69   15.30
  -5   1  13   17.20    9.90
  -4   1  13    2.60    7.90
   3  -1 -13    3.80    4.80
  -3   1  13    3.80    6.00
  -2   1  13   43.60    5.50
  -2   1  13   53.59    5.80
  -1   1  13   45.00    3.80
  -1   1  13   44.90    4.30
  -1  -1 -13  387.66   12.70
   1   1  13  402.56   15.10
   1   1  13  380.16   14.60
  -2  -1 -13  115.49    9.10
   2   1  13  116.19    9.60
   2   1  13  111.09   10.40
  -3  -1 -13    2.70    6.70
   3   1  13   10.00    7.30
  -4  -1 -13   14.20    9.50
   4   1  13   15.40    8.70
  -5  -1 -13   30.30   13.00
   5   1  13    7.30   11.80
  -5   2  13    2.20   10.50
  -4   2  13    7.50    7.50
  -3   2  13   -5.80    6.20
  -2   2  13   -3.30    4.60
  -2   2  13    2.90    5.30
  -1   2  13  387.46   15.00
  -1   2  13  365.86   14.40
   0   2  13   63.59    5.40
   0   2  13   52.49    5.20
  -1  -2 -13   69.39    6.10
   1   2  13   84.79    7.10
   1   2  13   80.69    6.70
  -2  -2 -13    0.10    5.20
   2   2  13    2.90    5.30
   2   2  13    3.60    6.20
  -3  -2 -13    5.90    7.00
   3   2  13   -1.10    7.20
  -4  -2 -13   18.80    9.40
   4   2  13    7.90    9.70
  -5  -2 -13  181.78   17.60
   5   2  13  136.99   18.30
  -4   3  13   13.10    9.10
  -3   3  13    4.50    7.90
   2  -3 -13   -3.60    4.30
  -2   3  13    6.90    6.60
   1  -3 -13   43.20    4.20
  -1   3  13   42.30    6.60
  -1   3  13   36.30    7.20
   0  -3 -13   87.69    6.50
   0   3  13  101.99    8.50
   0   3  13  100.49    8.40
   1   3  13    3.60    5.00
   1   3  13    4.90    5.30
  -2  -3 -13  244.18   13.90
   2   3  13  238.38   15.20
  -3  -3 -13   67.09    9.80
   3   3  13   75.59   11.00
  -4  -3 -13   -2.00    9.50
   4   3  13   15.70   10.10
   5   3  13    6.10   12.50
  -4   4  13   -0.90   10.50
  -3   4  13   -4.40    8.80
  -2   4  13   19.30    9.10
  -1   4  13   -4.90    7.20
   0   4  13   81.79    9.90
  -1  -4 -13  504.05   20.80
   1   4  13  548.45   23.40
  -2  -4 -13  133.29   12.00
   2   4  13  144.09   13.20
  -3  -4 -13    6.40    9.10
   3   4  13    1.40    9.10
   4   4  13  153.98   16.80
  -3   5  13   -8.10   10.40
  -2   5  13   52.39   12.10
  -1   5  13   -3.10    9.20
   0   5  13    0.90    8.40
   1   5  13   -2.00    8.50
   2   5  13    5.10    9.40
   3   5  13   13.00   11.50
   4   5  13   77.69   16.00
  -2   6  13   -8.00   12.10
  -1   6  13   10.60   11.80
   0   6  13    6.50   10.90
   1   6  13    7.60   11.00
   2   6  13   -3.60   11.30
   3   6  13   60.19   16.20
  -2  -6  14   -0.10   13.70
   1   6 -14   -4.70   16.00
  -1  -6  14  -20.40   12.90
   0   6 -14  -12.50   13.10
   0  -6  14    6.00   14.00
  -1   6 -14  100.59   16.70
   1  -6  14   89.09   16.60
  -2   6 -14    8.50   15.10
   2  -6  14    7.40   14.40
  -3  -5  14   22.40   14.20
   2   5 -14   21.00   11.70
  -2  -5  14   30.50   12.90
   1   5 -14    0.20   10.50
  -1  -5  14    2.40   10.10
   0   5 -14   -5.20   10.30
   0  -5  14   11.10   10.50
  -1   5 -14    5.10   11.00
   1  -5  14   16.50   12.30
  -2   5 -14   -1.70   12.30
   2  -5  14    1.60   13.40
  -3   5 -14   -6.70   13.30
   3  -5  14   -9.30   13.20
  -4  -4  14   13.60   12.80
  -3  -4  14    9.40   11.20
   2   4 -14  190.28   18.10
  -2  -4  14  188.58   16.40
   1   4 -14   54.69   10.10
  -1  -4  14   58.59   11.10
   0   4 -14   37.30   10.30
   0  -4  14   55.19   10.90
  -1   4 -14  272.67   19.50
   1  -4  14  303.67   19.90
  -2   4 -14   65.99   12.40
   2  -4  14   52.49   12.90
  -3   4 -14   43.90   13.60
   3  -4  14   26.30   12.50
  -4   4 -14    5.40   14.40
   4  -4  14    0.50   13.70
  -5  -3  14    1.30   13.20
  -4  -3  14   -7.50   10.10
   3   3 -14   13.90    8.60
  -3  -3  14   15.30    9.30
   2   3 -14   33.30    8.50
  -2  -3  14   33.40    8.70
   1   3 -14    0.50    6.50
  -1  -3  14   -1.70    6.70
   0   3 -14   49.50    8.30
   0  -3  14   34.40    8.10
  -1   3 -14   48.70    8.40
   1  -3  14   28.40    8.60
  -2   3 -14   18.10    8.30
   2  -3  14   20.50    9.00
  -3   3 -14   20.80   10.40
   3  -3  14   13.10   11.30
  -4   3 -14    4.30   11.80
   4  -3  14   10.90   13.40
  -5   3 -14   35.50   16.10
  -5  -2  14  -13.30   10.70
   4   2 -14   69.19   12.40
  -4  -2  14   78.19   12.20
   3   2 -14  150.88   12.90
  -3  -2  14  172.18   14.70
   2   2 -14   53.79    6.90
  -2  -2  14   53.99    8.10
  -2  -2  14   62.79    8.10
   1   2 -14    0.60    5.80
  -1  -2  14   -1.40    5.20
  -1  -2  14   11.70    5.90
   0   2 -14  855.31   28.10
   0  -2  14  781.72   28.90
   0  -2  14  815.92   29.20
  -1   2 -14   -5.50    5.00
   1  -2  14   -4.90    6.30
   1  -2  14   -1.30    5.20
  -2   2 -14  155.58   12.80
   2  -2  14  145.09   13.10
  -3   2 -14  563.74   25.70
   3  -2  14  582.24   27.10
  -4   2 -14   -0.50    7.40
  -4   2 -14   -9.70   10.50
   4  -2  14    1.90    9.50
  -5   2 -14    6.70   14.10
   5  -2  14   -2.00   14.20
  -5  -1  14  -12.60    9.60
   4   1 -14   -6.90    8.90
  -4  -1  14    0.70    8.40
   3   1 -14   99.79   12.20
  -3  -1  14   85.59    9.60
   2   1 -14   32.50    4.60
   2   1 -14   22.90    8.70
  -2  -1  14   33.30    6.40
  -2  -1  14   20.50    5.40
   1   1 -14  322.97   18.00
  -1  -1  14  314.97   13.10
  -1  -1  14  317.47   13.20
   0   1 -14 1097.69   32.90
   0   1 -14 1037.40   38.60
   0   1 -14 1086.49   32.90
   0  -1  14 1070.69   34.70
   0  -1  14 1073.09   35.00
  -1   1 -14  125.59   12.60
   1  -1  14  156.08   10.40
   1  -1  14  134.19    9.00
  -2   1 -14   28.70    6.60
  -2   1 -14   27.90    7.60
   2  -1  14   28.50    7.10
  -3   1 -14   42.00    8.50
  -3   1 -14   32.40    7.70
   3  -1  14   50.79    9.70
  -4   1 -14   35.00   10.50
   4  -1  14   46.10   11.40
  -5   1 -14   10.90   12.70
   5  -1  14   19.00   13.10
  -5   0  14    2.50   10.20
  -4   0  14   17.10    8.30
   3   0 -14   75.39    6.40
   3   0 -14   80.79   11.10
  -3   0  14   69.39    8.60
   2   0 -14   14.60    8.50
  -2   0  14   32.70    5.00
  -2   0  14   17.70    5.00
   1   0 -14  913.61   33.20
  -1   0  14  866.41   27.50
  -1   0  14  867.01   27.60
   0   0 -14  140.29   12.10
   0   0  14  111.29    5.10
   0   0  14  108.09    5.60
  -1   0 -14  143.89   13.00
  -1   0 -14  139.49    6.50
  -1   0 -14  141.59    7.20
   1   0  14  161.18    8.40
   1   0  14  150.88    8.80
  -2   0 -14  208.38   11.60
  -2   0 -14  213.28   13.60
   2   0  14  191.28   12.30
   2   0  14  205.88   11.80
  -3   0 -14    5.80    6.90
   3   0  14  -22.80    6.20
  -4   0 -14   10.80    9.30
   4   0  14   13.00    9.20
  -5   0 -14    7.60   12.40
   5   0  14   -4.80   12.80
  -5   1  14    2.60   10.30
  -4   1  14   73.89   10.90
  -3   1  14   -1.80    6.00
  -2   1  14    3.30    4.30
  -2   1  14   -1.10    3.90
  -1   1  14   79.39    5.10
  -1   1  14   87.79    4.90
   1   1  14    6.30    3.50
   1   1  14    1.60    4.00
  -2  -1 -14 1101.59   37.30
   2   1  14 1160.38   38.40
   2   1  14 1158.68   38.80
  -3  -1 -14  276.27   15.60
   3   1  14  267.77   16.80
  -4  -1 -14    4.50    9.00
   4   1  14    7.50    8.60
  -5  -1 -14   18.50   12.50
   5   1  14   -1.10   11.80
  -5   2  14   -1.40   10.40
  -4   2  14   -3.60    7.80
  -3   2  14  -12.10    6.10
  -2   2  14   28.10    6.20
  -2   2  14   26.10    5.80
  -1   2  14   68.79    5.80
  -1   2  14   68.09    6.20
   0   2  14  262.17   11.10
   0   2  14  271.07   11.30
  -1  -2 -14   -1.70    2.80
   1   2  14    4.70    4.10
   1   2  14    2.40    4.50
  -2  -2 -14   90.39    7.80
   2   2  14   92.79    9.00
   2   2  14   92.79    8.60
  -3  -2 -14   38.90    8.10
   3   2  14   58.59    9.20
  -4  -2 -14   20.30    9.30
   4   2  14   11.70    9.80
  -5  -2 -14   37.60   14.00
   5   2  14   28.90   13.60
  -4   3  14   27.40   10.00
  -3   3  14    0.60    7.20
  -2   3  14   59.49    8.60
  -1   3  14    4.90    5.10
  -1   3  14    0.00    6.00
   0   3  14   -8.00    4.90
   0   3  14    8.50    5.00
   1   3  14  100.19    9.50
  -2  -3 -14   54.99    7.60
   2   3  14   45.70    8.30
  -3  -3 -14   79.59   10.20
   3   3  14   84.89   11.30
  -4  -3 -14  183.88   17.10
   4   3  14  162.68   15.70
   5   3  14   -0.60   12.10
  -4   4  14   -1.20   10.80
  -3   4  14    3.50    8.80
  -2   4  14    2.30    8.50
  -1   4  14   32.40    8.40
   0   4  14   19.00    7.40
   1   4  14   64.59    9.70
  -2  -4 -14    3.10    7.40
   2   4  14    6.70    7.70
   3   4  14    0.70    8.80
   4   4  14  -20.30   10.20
  -3   5  14  -11.70   10.10
  -2   5  14   65.09   12.70
  -1   5  14   15.70    9.80
   0   5  14   46.50   10.10
   1   5  14   11.30    8.80
   2   5  14   10.70    9.20
   3   5  14   95.99   14.80
   4   5  14   52.69   15.80
  -1   6  14    9.50   11.30
   0   6  14    8.40   11.00
   1   6  14   22.60   11.70
   2   6  14   26.30   12.70
  -2  -6  15   29.60   14.10
  -1  -6  15   15.80   13.20
   0   6 -15   19.00   20.70
   0  -6  15   23.60   14.40
  -1   6 -15   -8.40   13.10
   1  -6  15   13.50   15.10
  -3  -5  15   20.40   14.00
  -2  -5  15   -4.80   11.50
   1   5 -15   14.50   11.40
  -1  -5  15   -1.50    9.60
   0   5 -15   34.70   12.30
   0  -5  15   37.90   11.80
  -1   5 -15   52.39   12.90
   1  -5  15   20.20   12.20
  -2   5 -15  -11.90   12.10
   2  -5  15   -4.00   13.20
  -3   5 -15   -7.90   14.10
   3  -5  15   15.00   14.90
  -4  -4  15    8.30   12.80
  -3  -4  15    8.90   10.60
   2   4 -15    1.90    9.50
  -2  -4  15    9.40    9.20
   1   4 -15   71.79   10.70
  -1  -4  15   60.09   11.00
   0   4 -15   42.80    9.90
   0  -4  15   21.60    9.40
  -1   4 -15  118.19   13.20
   1  -4  15  122.09   14.10
  -2   4 -15   -6.40   10.00
   2  -4  15  -24.60   10.40
  -3   4 -15   20.50   11.50
   3  -4  15  -17.10   11.70
  -4   4 -15   -4.10   13.20
   4  -4  15   -8.20   14.60
  -5  -3  15   46.60   14.70
  -4  -3  15    3.30   10.00
  -3  -3  15   73.59   11.40
   2   3 -15  178.08   14.20
  -2  -3  15  173.68   14.70
   1   3 -15   32.30    7.60
  -1  -3  15   28.20    8.00
   0   3 -15  804.32   29.90
   0  -3  15  814.72   31.10
  -1   3 -15  145.99   11.90
   1  -3  15  137.39   12.60
  -2   3 -15    2.70    8.30
   2  -3  15   -1.20    8.30
  -3   3 -15    2.30    9.80
   3  -3  15   -4.50   10.30
  -4   3 -15   15.10   12.00
  -4   3 -15  -13.10   11.00
   4  -3  15  -10.00   12.40
  -5  -2  15   26.70   12.10
   4   2 -15    6.90   10.90
  -4  -2  15    1.70    9.10
   3   2 -15    8.70    7.00
  -3  -2  15    2.20    7.50
  -2  -2  15    7.40    6.40
  -2  -2  15    6.70    6.40
  -1  -2  15   65.09    7.60
  -1  -2  15   66.79    7.70
   0   2 -15  256.47   12.10
   0  -2  15  283.77   14.00
   0  -2  15  256.87   13.60
  -1   2 -15    4.00    5.40
   1  -2  15    1.40    6.90
   1  -2  15    4.70    5.20
  -2   2 -15   64.29    8.70
   2  -2  15   48.40    8.80
  -3   2 -15  226.08   15.40
  -3   2 -15  224.98   16.90
   3  -2  15  211.68   17.70
  -4   2 -15   18.80    8.40
  -4   2 -15   29.10   11.70
   4  -2  15    9.00   10.90
  -5   2 -15   -4.60   13.40
   5  -2  15    2.50   13.10
  -5  -1  15    7.10   11.10
   4   1 -15  121.39   13.90
  -4  -1  15   92.29   12.30
   3   1 -15   48.50   10.60
  -3  -1  15   55.29    9.00
   2   1 -15   63.99   10.20
   2   1 -15   63.29    4.80
  -2  -1  15   65.69    6.90
  -2  -1  15   66.69    7.30
   1   1 -15   23.60    8.50
  -1  -1  15   28.10    4.90
  -1  -1  15   27.20    4.90
   0   1 -15  125.29   12.10
   0  -1  15  113.59    8.50
   0  -1  15  114.49    7.60
  -1   1 -15   74.39    9.60
   1  -1  15   50.99    6.90
   1  -1  15   57.79    6.20
  -2   1 -15  861.81   32.60
  -2   1 -15  920.51   31.10
   2  -1  15  848.42   31.90
  -3   1 -15   26.10    8.50
  -3   1 -15   13.10    7.80
   3  -1  15   13.30    7.50
  -4   1 -15   54.39   11.60
   4  -1  15   17.90    9.80
  -5   1 -15    8.20   12.50
   5  -1  15   26.10   14.40
  -5   0  15   -0.90   10.10
  -4   0  15    3.40    7.80
   3   0 -15   14.60    9.10
   3   0 -15   23.90    4.50
  -3   0  15   19.80    6.60
   2   0 -15   48.90    9.80
  -2   0  15   68.39    6.30
  -2   0  15   57.09    5.90
   1   0 -15  836.52   32.90
  -1   0  15  896.41   27.40
  -1   0  15  860.01   27.30
   0   0 -15   28.00    8.70
   0   0  15   30.70    3.40
   0   0  15   31.90    2.90
  -1   0 -15  113.89   11.10
   1   0  15  100.49    7.80
   1   0  15   90.39    7.00
  -2   0 -15  121.09   12.20
  -2   0 -15  131.09    9.60
   2   0  15  119.29    9.60
   2   0  15  121.69   11.00
  -3   0 -15   10.70    7.10
   3   0  15    3.50    6.90
  -4   0 -15    9.80    9.60
   4   0  15   -9.50    9.10
  -5   0 -15   73.49   14.70
   5   0  15  108.99   16.20
  -5   1  15    6.50   10.10
  -4   1  15   27.20    8.90
  -3   1  15    5.20    6.10
  -2   1  15   88.89    7.50
  -2   1  15   87.39    7.90
  -1   1  15  193.38    7.80
  -1   1  15  211.48    7.90
   1   1  15  258.77   10.80
   1   1  15  242.88   11.20
  -2  -1 -15  270.27   13.90
   2   1  15  269.77   13.60
   2   1  15  300.87   14.70
  -3  -1 -15    4.10    6.60
   3   1  15    7.60    6.80
  -4  -1 -15   -0.10    8.40
   4   1  15   -4.80    8.20
  -5  -1 -15   -2.60   11.40
   5   1  15   13.50   12.90
  -5   2  15  -22.60    9.20
  -4   2  15   11.50    8.50
  -3   2  15    2.10    6.10
  -2   2  15   39.00    6.30
  -2   2  15   46.30    6.40
  -1   2  15  298.17   12.40
  -1   2  15  328.67   13.10
   0   2  15    2.40    3.50
   0   2  15    1.80    3.50
   1   2  15   63.89    6.50
   1   2  15   41.80    5.60
  -2  -2 -15    1.20    4.90
   2   2  15    7.30    6.20
   2   2  15    6.30    5.50
  -3  -2 -15    2.30    6.40
   3   2  15   11.10    7.90
  -4  -2 -15   96.89   12.10
   4   2  15   93.39   13.00
   5   2  15   16.80   12.50
  -4   3  15    0.60    8.80
  -3   3  15   -5.40    7.30
  -2   3  15   61.39    8.20
  -1   3  15    2.00    5.90
  -1   3  15   -2.50    5.10
   0   3  15   61.09    7.10
   0   3  15   58.49    6.80
  -1  -3 -15   50.59    5.30
   1   3  15   53.49    6.90
  -2  -3 -15    4.00    5.80
   2   3  15    6.30    6.90
  -3  -3 -15    6.50    7.50
   3   3  15   -1.50    7.90
   4   3  15    3.30   10.10
   5   3  15   13.10   13.70
  -4   4  15   -1.20   10.20
  -3   4  15    3.60    8.90
  -2   4  15    9.10    8.30
  -1   4  15   14.90    7.90
   0   4  15   11.50    7.20
   1   4  15  354.86   18.80
   2   4  15   16.40    8.30
   3   4  15   32.70   10.30
   4   4  15   54.19   13.60
  -3   5  15   19.80   11.40
  -2   5  15    4.90   10.40
  -1   5  15   -0.60    9.20
   0   5  15   19.20    9.50
   1   5  15   -6.10    8.40
   2   5  15   68.39   12.30
   3   5  15   13.10   11.50
   4   5  15   35.10   14.70
  -1   6  15    6.00   11.20
   0   6  15   29.90   11.90
   1   6  15   -9.10   10.60
   2   6  15   30.20   12.10
  -2  -6  16   23.50   14.40
  -1  -6  16   36.10   13.90
   0  -6  16   49.60   16.20
   1  -6  16   47.80   15.40
  -3  -5  16    3.40   12.50
  -2  -5  16   40.30   14.00
   1   5 -16   10.20   11.80
  -1  -5  16   13.50   10.80
   0   5 -16  100.29   14.60
   0  -5  16   60.79   13.60
  -1   5 -16   -6.30   10.80
   1  -5  16  -19.40   11.70
  -2   5 -16   36.00   13.60
   2  -5  16   52.29   14.90
   3  -5  16    4.20   14.60
  -4  -4  16    3.10   13.10
  -3  -4  16  127.59   15.90
   2   4 -16   -7.30   10.50
  -2  -4  16    4.30    9.30
   1   4 -16   -3.00    8.50
  -1  -4  16    7.80    9.00
   0   4 -16    6.10    8.80
   0  -4  16    9.20    9.10
  -1   4 -16   -1.40    9.10
   1  -4  16    4.20    9.30
  -2   4 -16   -4.70   10.30
   2  -4  16   22.60   11.70
  -3   4 -16   74.39   14.30
   3  -4  16  105.99   17.00
  -4   4 -16  -10.90   16.20
   4  -4  16   -6.20   15.30
  -4  -3  16    3.10   10.80
  -3  -3  16   -0.60    8.70
   2   3 -16    7.30    7.00
  -2  -3  16    2.60    7.70
   1   3 -16   12.40    6.70
  -1  -3  16   -9.30    7.20
   0   3 -16    3.40    6.40
   0  -3  16   12.30    7.60
  -1   3 -16    0.50    7.00
   1  -3  16    9.50    8.00
  -2   3 -16    8.50    8.50
   2  -3  16  -17.20    8.50
  -3   3 -16  -16.20    9.50
   3  -3  16    8.80   10.40
  -4   3 -16    3.90   12.10
   4  -3  16  -21.10   13.70
  -5  -2  16    3.20   11.40
   4   2 -16   20.10   11.90
  -4  -2  16   27.80   10.60
   3   2 -16  118.99   14.90
  -3  -2  16  107.19   11.30
  -2  -2  16    9.00    6.70
  -1  -2  16  170.38   11.50
  -1  -2  16  147.89   11.30
   0  -2  16   45.60    6.60
   0  -2  16   58.29    7.80
  -1   2 -16   30.40    6.10
   1  -2  16   48.80    8.30
   1  -2  16   29.70    6.70
  -2   2 -16  130.69   12.30
   2  -2  16  145.09   13.40
  -3   2 -16   62.59   10.50
  -3   2 -16   74.79   10.70
   3  -2  16   56.29   11.00
  -4   2 -16   34.30   11.60
  -4   2 -16    9.80    8.90
   4  -2  16    7.10   10.20
   5  -2  16   35.00   16.10
  -5  -1  16    0.70   10.90
   4   1 -16    1.90   10.30
  -4  -1  16    9.20    8.70
   3   1 -16   35.10   10.70
  -3  -1  16   25.90    7.40
   2   1 -16   35.70    9.80
  -2  -1  16   46.30    6.30
  -2  -1  16   39.20    6.60
   1   1 -16    4.70    8.50
  -1  -1  16    2.90    4.30
  -1  -1  16    5.40    4.30
   0   1 -16   67.39   10.20
   0  -1  16   73.49    6.50
   0  -1  16   71.79    6.70
  -1   1 -16  118.09   11.90
   1  -1  16  110.99    8.70
   1  -1  16  123.19    9.80
  -2   1 -16  279.77   14.50
  -2   1 -16  269.47   16.70
   2  -1  16  268.77   15.50
   2  -1  16  335.77   17.50
  -3   1 -16    8.50    7.60
  -3   1 -16    8.20    7.50
   3  -1  16   22.20    8.90
  -4   1 -16   -5.80    6.90
  -4   1 -16   -1.10    9.80
   4  -1  16    7.00   10.00
  -5   1 -16    1.20   13.40
   5  -1  16   23.50   13.20
  -5   0  16   13.70   10.90
  -4   0  16   17.90    8.40
   3   0 -16    7.20    9.00
  -3   0  16    0.90    5.70
   2   0 -16   74.39   11.20
  -2   0  16   77.39    6.50
  -2   0  16   71.39    6.60
   1   0 -16  557.74   24.80
  -1   0  16  536.25   18.00
  -1   0  16  555.64   18.10
   0   0 -16  495.15   22.90
   0   0  16  490.65   16.50
   0   0  16  511.25   16.30
  -1   0 -16  146.29   14.10
   1   0  16  164.08    8.60
   1   0  16  155.98    9.20
  -2   0 -16   52.89    6.10
  -2   0 -16   68.09    9.60
   2   0  16   49.70    7.50
   2   0  16   39.90    6.30
  -3   0 -16  158.38   13.40
   3   0  16  121.49   11.80
  -4   0 -16   12.90   10.00
   4   0  16   -3.90    9.50
   5   0  16   49.30   14.10
  -5   1  16  -10.50    9.80
  -4   1  16   -8.70    7.40
  -3   1  16   10.80    6.50
  -2   1  16    9.40    4.10
  -2   1  16   15.10    4.60
  -1   1  16  235.18    8.60
  -1   1  16  232.78    8.70
   1   1  16   98.39    7.00
   1   1  16   97.99    7.70
   2   1  16  848.92   30.30
   2   1  16  872.61   30.80
  -3  -1 -16  484.45   20.80
   3   1  16  463.65   22.40
  -4  -1 -16   23.20    9.80
   4   1  16   59.39   11.40
   5   1  16  -10.70   12.20
  -4   2  16    4.70    8.00
  -3   2  16    1.70    6.10
  -2   2  16    1.80    5.00
  -2   2  16   -1.20    4.70
  -1   2  16   10.60    4.30
  -1   2  16    9.60    4.00
   0   2  16    2.20    3.50
   0   2  16    4.90    3.50
   1   2  16  798.82   27.50
   1   2  16  792.52   27.00
   2   2  16   33.90    7.10
   2   2  16   25.80    6.10
  -3  -2 -16    3.10    6.60
   3   2  16    1.10    7.50
  -4  -2 -16   97.89   12.50
   4   2  16   95.99   13.60
   5   2  16    1.80   12.80
  -4   3  16    4.40    8.60
  -3   3  16    6.60    7.80
  -2   3  16  190.98   13.20
  -1   3  16   26.40    5.90
  -1   3  16   14.20    6.40
   0   3  16   18.80    5.50
   0   3  16   16.70    5.90
  -1  -3 -16   82.69    6.20
   1   3  16   95.69    8.40
   2   3  16   -1.90    6.50
  -3  -3 -16   19.40    9.80
   3   3  16    2.50    8.40
   4   3  16  176.18   17.20
   5   3  16   15.70   13.80
  -3   4  16   15.20    9.50
  -2   4  16   15.30    8.70
  -1   4  16    2.20    7.20
   0   4  16   55.09    8.90
   1   4  16    2.10    7.30
   2   4  16   -1.60    7.60
   3   4  16   27.10    9.60
   4   4  16   19.80   12.80
  -3   5  16   -6.40   10.30
  -2   5  16    7.00   10.40
  -1   5  16   -4.40    9.00
   0   5  16  105.19   12.70
   1   5  16   20.30    9.60
   2   5  16  -15.30    9.10
   3   5  16  262.47   22.50
  -1   6  16    9.00   11.60
   0   6  16  -14.60   10.40
   1   6  16   19.50   11.70
   2   6  16   14.60   12.00
  -1  -6  17   25.30   13.60
   0  -6  17   28.40   13.70
   1  -6  17   27.80   15.40
  -3  -5  17   16.20   13.60
  -2  -5  17    9.40   13.00
  -1  -5  17  -13.50   10.00
   0   5 -17  130.79   22.90
   0  -5  17  158.98   16.90
  -1   5 -17    6.60   11.60
   1  -5  17   -0.10   11.90
   2  -5  17   10.00   13.10
   3  -5  17   -3.80   13.90
  -4  -4  17    3.30   12.30
  -3  -4  17   42.90   12.70
  -2  -4  17    1.70    9.20
   1   4 -17   15.30    9.10
  -1  -4  17   10.10    9.40
   0   4 -17   13.40    8.80
   0  -4  17   -4.40    8.80
  -1   4 -17   -5.80    9.00
   1  -4  17    7.70    9.80
  -2   4 -17   10.70   10.70
   2  -4  17    5.00   10.60
  -3   4 -17   21.10   12.30
   3  -4  17   24.90   13.60
   4  -4  17   -2.00   15.80
   4   3 -17    1.80   13.40
  -4  -3  17   17.30   11.40
  -3  -3  17   59.19   10.80
   2   3 -17   49.30    8.40
  -2  -3  17   48.00    9.50
   1   3 -17  139.39   12.10
  -1  -3  17  142.69   13.70
   0   3 -17  552.04   22.60
   0  -3  17  563.24   24.20
  -1   3 -17   46.70    8.50
   1  -3  17   40.20    9.10
  -2   3 -17    7.70    7.90
   2  -3  17    4.90    9.10
  -3   3 -17   11.00   10.20
   3  -3  17    0.70   10.40
  -4   3 -17  -12.70   11.50
   4  -3  17   15.30   14.30
  -5  -2  17   -3.70   11.00
   4   2 -17    9.70   11.50
  -4  -2  17   -0.50    9.30
   3   2 -17   32.90   11.90
  -3  -2  17   43.10    9.70
   2   2 -17   -1.20    4.60
  -2  -2  17   -4.50    6.30
   1   2 -17   38.40    4.90
  -1  -2  17   37.40    6.80
  -1  -2  17   38.10    6.70
   0  -2  17    1.90    5.10
   0  -2  17   -2.20    5.70
  -1   2 -17  135.99    9.90
   1  -2  17  114.99   11.10
   1  -2  17  126.29   10.90
  -2   2 -17   -5.00    6.30
   2  -2  17   -3.30    7.30
  -3   2 -17   -5.50    8.80
  -3   2 -17   -6.90    8.50
   3  -2  17    6.60    9.10
  -4   2 -17    1.70    8.80
  -4   2 -17    7.70   10.40
   4  -2  17    5.70   10.50
   5  -2  17  -15.50   12.90
  -5  -1  17   19.70   11.50
   4   1 -17   94.09   14.00
  -4  -1  17   77.49   11.20
   3   1 -17   20.60   11.00
  -3  -1  17   18.00    7.40
   2   1 -17   22.10   10.00
  -2  -1  17   25.10    6.00
  -2  -1  17   12.00    5.40
   1   1 -17  182.18   16.20
  -1  -1  17  171.08    9.70
  -1  -1  17  173.58    9.70
   0   1 -17   73.79   11.10
   0  -1  17   65.79    6.30
   0  -1  17   70.19    6.70
  -1   1 -17  109.39   11.90
  -1   1 -17   87.89    6.70
   1  -1  17   91.69    8.00
   1  -1  17   97.59    8.30
  -2   1 -17  706.03   28.70
  -2   1 -17  683.03   25.40
   2  -1  17  707.43   27.10
  -3   1 -17   21.20    8.60
  -3   1 -17   26.60    8.30
   3  -1  17   12.00    8.30
  -4   1 -17    1.00    9.60
  -4   1 -17   -0.80    7.90
   4  -1  17    3.00    9.40
   5  -1  17   25.70   15.00
  -5   0  17   25.60   11.50
  -4   0  17    8.90    8.50
   3   0 -17   41.90   11.20
  -3   0  17   18.70    6.70
   2   0 -17   18.90    9.30
  -2   0  17   14.00    4.70
  -2   0  17    6.30    4.30
   1   0 -17   60.09   10.50
  -1   0  17   44.90    3.80
  -1   0  17   43.90    4.00
   0   0 -17  478.95   23.30
   0   0  17  496.65   16.10
   0   0  17  486.45   16.40
  -1   0 -17   28.90    8.90
   1   0  17   28.40    4.50
   1   0  17   35.30    5.20
  -2   0 -17   94.59   10.70
   2   0  17  110.59    8.90
   2   0  17   92.29    9.30
  -3   0 -17  174.28   13.60
   3   0  17  162.78   14.60
  -4   0 -17   27.80   10.60
   4   0  17    8.20   10.20
   5   0  17   76.49   16.40
  -5   1  17  -13.80   10.00
  -4   1  17   23.70    8.90
  -3   1  17    2.80    6.30
  -2   1  17  181.08    9.80
  -2   1  17  211.18   10.60
  -1   1  17   45.20    3.40
  -1   1  17   38.70    3.30
   1   1  17  114.69    8.10
   1   1  17  121.89    7.70
   2   1  17  124.89   10.00
   2   1  17  125.29   11.10
  -3  -1 -17   98.59    9.60
   3   1  17  103.09   11.50
  -4  -1 -17  130.39   13.10
   4   1  17  124.49   14.40
   5   1  17   18.90   12.50
  -4   2  17    0.90    8.20
  -3   2  17    7.30    6.50
  -2   2  17   35.40    6.10
  -2   2  17   30.00    5.80
  -1   2  17    7.10    4.20
  -1   2  17    4.30    3.70
   0   2  17   63.59    5.20
   0   2  17   60.79    5.10
   1   2  17 1298.77   42.20
   1   2  17 1301.47   42.00
   2   2  17  191.78   13.20
  -3  -2 -17    3.00    6.70
   3   2  17    5.90    7.60
   4   2  17   94.69   13.90
   5   2  17   56.29   16.10
  -4   3  17   -1.30    8.70
  -3   3  17    9.00    7.80
  -2   3  17   -3.50    5.90
  -1   3  17    9.40    5.40
  -1   3  17   -1.70    5.60
   0   3  17  157.98   10.70
   0   3  17  139.99   10.20
   1   3  17   -4.90    4.90
   2   3  17    7.30    6.90
   3   3  17   90.39   11.60
   4   3  17    0.40   10.20
   5   3  17    4.60   12.50
  -3   4  17   26.80    9.80
  -2   4  17   12.70    8.30
  -1   4  17   23.50    8.30
   0   4  17  175.88   14.10
   1   4  17  116.79   11.60
   2   4  17   24.50    8.50
   3   4  17   90.39   12.50
   4   4  17  -20.90   11.10
  -2   5  17   -4.30   10.00
  -1   5  17   -7.80    9.00
   0   5  17    9.40    9.00
   1   5  17    0.30    8.70
   2   5  17   15.20   10.10
   3   5  17   24.60   11.70
  -1   6  17   10.60   11.70
   0   6  17    2.50   11.10
   1   6  17   -3.90   10.30
   2   6  17  111.89   16.00
  -1  -6  18   12.90   13.60
   0  -6  18   29.80   14.00
  -3  -5  18    6.60   13.40
  -2  -5  18    6.90   12.30
  -1  -5  18   59.99   13.60
   0  -5  18   55.99   13.60
   1  -5  18    4.60   11.50
   2  -5  18   13.00   14.10
  -4  -4  18   23.10   12.90
  -3  -4  18   13.60   11.10
  -2  -4  18   10.00    9.30
  -1  -4  18   16.60    9.40
   0   4 -18   43.00   10.10
   0  -4  18   35.90   10.00
  -1   4 -18   14.10    9.50
   1  -4  18    0.50    9.50
  -2   4 -18  102.69   13.60
   2  -4  18   63.49   13.70
   3  -4  18   53.79   13.90
   4   3 -18   18.30   14.30
  -4  -3  18    3.70   11.20
  -3  -3  18   -2.70    9.10
  -2  -3  18   37.70    8.80
   1   3 -18    7.10    6.20
  -1  -3  18   -1.70    7.50
   0   3 -18   85.59    9.00
   0  -3  18  113.59   11.40
  -1   3 -18   11.10    7.30
   1  -3  18   14.00    8.20
  -2   3 -18   80.39   10.70
   2  -3  18   82.59   11.80
  -3   3 -18    6.70   10.10
   3  -3  18   -1.80   11.00
   4  -3  18   49.50   15.90
   4   2 -18   28.30   12.70
  -4  -2  18   15.00   10.40
   3   2 -18   84.79   14.30
  -3  -2  18   48.20   10.00
   2   2 -18   30.50    6.40
  -2  -2  18    7.00    6.80
   1   2 -18 1127.39   35.30
  -1  -2  18 1090.99   38.30
  -1  -2  18 1115.39   38.10
   0   2 -18   91.89    7.40
   0  -2  18  110.49   10.60
   0  -2  18   94.19    8.70
  -1   2 -18   87.49    7.70
   1  -2  18   72.69    9.20
  -2   2 -18   49.50    8.60
  -2   2 -18   53.89   11.10
   2  -2  18   77.69   10.40
  -3   2 -18   -8.80    8.70
  -3   2 -18    4.60    8.60
   3  -2  18    8.40    9.20
  -4   2 -18   23.30   15.00
  -4   2 -18   15.40    9.80
   4  -2  18    6.00   11.20
   5  -2  18   60.59   15.70
  -5  -1  18    3.00   10.80
   4   1 -18   16.80   11.90
  -4  -1  18    1.70    9.10
   3   1 -18    2.40   10.50
  -3  -1  18   14.20    7.40
   2   1 -18   96.59   12.50
  -2  -1  18   95.89    8.40
  -2  -1  18   92.19    7.90
   1   1 -18   29.10    9.70
  -1  -1  18    9.60    4.50
  -1  -1  18    8.10    4.50
   0   1 -18  123.29   13.00
   0  -1  18  123.29    7.90
   0  -1  18  112.69    9.00
  -1   1 -18   29.10    9.60
  -1   1 -18   56.09    4.60
   1  -1  18   61.99    6.40
   1  -1  18   49.90    7.00
  -2   1 -18   27.00    6.20
  -2   1 -18   27.50    8.80
   2  -1  18   18.10    7.20
  -3   1 -18   81.69   11.10
  -3   1 -18   85.29   10.20
   3  -1  18   75.89   10.60
  -4   1 -18   -2.70    8.30
  -4   1 -18    2.20    9.70
   4  -1  18    4.40    9.70
   5  -1  18    5.90   13.30
  -5   0  18    7.30   11.00
  -4   0  18   18.10    8.90
   3   0 -18   20.40   10.60
  -3   0  18   22.00    6.90
   2   0 -18   83.69   12.70
  -2   0  18   86.29    8.30
  -2   0  18   83.09    6.90
   1   0 -18  291.97   19.20
  -1   0  18  295.27   11.10
  -1   0  18  314.97   11.30
   0   0 -18   12.70    8.70
   0   0  18    8.50    3.20
   0   0  18    7.60    2.60
  -1   0 -18  329.27   19.70
   1   0  18  338.67   14.20
   1   0  18  337.57   13.70
  -2   0 -18   -3.30    7.90
   2   0  18    8.10    5.10
   2   0  18    5.20    5.80
  -3   0 -18   38.10    7.90
   3   0  18   41.30    9.20
  -4   0 -18   88.59   13.30
   4   0  18   66.29   12.60
   5   0  18    5.10   12.90
  -5   1  18  -19.80    9.30
  -4   1  18   -6.80    7.60
  -3   1  18    0.90    6.20
  -2   1  18   64.79    5.90
  -2   1  18   66.59    6.30
   1   1  18   16.80    4.50
   1   1  18   12.40    4.00
  -2  -1 -18  233.38   10.40
   2   1  18  215.28   12.50
   2   1  18  228.18   13.70
  -3  -1 -18   12.30    6.70
   3   1  18    0.30    7.20
   4   1  18  115.39   13.60
   5   1  18  -12.80   12.30
  -4   2  18  -15.30    7.60
  -3   2  18    5.60    6.20
  -2   2  18    6.10    5.00
  -2   2  18    6.50    5.10
  -1   2  18   74.39    6.60
  -1   2  18   85.59    7.10
   0   2  18   53.99    4.80
   1   2  18   33.60    5.30
   1   2  18   40.10    5.60
  -2  -2 -18  147.59    9.00
   2   2  18  184.98   12.90
   3   2  18    9.10    8.00
   4   2  18   -2.70    9.70
   5   2  18   -0.80   12.80
  -4   3  18    2.70    9.30
  -3   3  18    0.20    7.70
  -2   3  18   14.20    6.40
  -1   3  18   28.70    6.60
   0   3  18  138.09    9.80
   0   3  18  129.79   10.40
   2   3  18   60.09    8.80
   3   3  18  126.39   12.50
   4   3  18   23.90   11.50
  -3   4  18   11.40    9.00
  -2   4  18    3.10    8.30
  -1   4  18    2.80    7.10
   0   4  18   35.00    8.10
   1   4  18   17.20    7.40
   2   4  18    8.50    8.00
   3   4  18   11.20    9.60
   4   4  18   12.30   12.30
  -2   5  18   28.10   11.30
  -1   5  18   21.40   10.00
   0   5  18  146.49   14.20
   1   5  18   17.10    9.20
   2   5  18    3.80    9.50
   3   5  18   49.40   12.90
   0   6  18   -6.90   10.50
   1   6  18    3.30   11.10
  -3  -5  19   -1.50   13.20
  -2  -5  19   10.80   13.10
  -1  -5  19   65.99   13.40
   0  -5  19   16.70   11.50
   1  -5  19    0.60   12.30
   2  -5  19  -33.30   11.80
  -3  -4  19   45.10   12.70
  -2  -4  19   17.80    9.80
  -1  -4  19  135.19   14.30
   0  -4  19   12.90    9.20
   1  -4  19   57.09   12.10
   2  -4  19   -7.70   10.70
   3  -4  19    4.40   13.20
   4   3 -19   36.20   15.20
  -4  -3  19   38.20   12.00
  -3  -3  19    8.20    9.60
  -2  -3  19    2.00    8.10
  -1  -3  19   22.60    8.40
   0   3 -19   19.80    6.60
   0  -3  19   42.10    8.90
  -1   3 -19   37.00    8.20
   1  -3  19   34.90    9.40
  -2   3 -19  223.78   16.80
   2  -3  19  249.97   18.80
   3  -3  19    3.00   11.00
   4  -3  19  -12.10   13.80
   4   2 -19   24.20   13.30
  -4  -2  19   13.50   10.00
   3   2 -19    5.20   11.90
  -3  -2  19    7.20    8.10
   2   2 -19   23.30   11.60
  -2  -2  19   29.00    7.40
   1   2 -19   57.09    5.10
  -1  -2  19   56.09    7.50
  -1  -2  19   52.89    7.60
   0   2 -19    7.40    3.80
   0  -2  19   10.40    5.50
   0  -2  19   24.10    6.90
   1  -2  19   61.39    8.90
  -2   2 -19   14.70    9.70
  -2   2 -19    9.50    7.00
   2  -2  19    6.90    8.00
  -3   2 -19   -5.40    9.20
  -3   2 -19    9.10    8.80
   3  -2  19    8.90    9.50
  -4   2 -19   15.00   10.70
   4  -2  19  -14.90   10.30
   4   1 -19   52.69   13.60
  -4  -1  19   43.80   10.40
   3   1 -19    8.40   11.10
  -3  -1  19    5.10    7.20
   2   1 -19  115.09   13.90
  -2  -1  19  111.29   10.40
  -2  -1  19   97.99    8.40
   1   1 -19    9.80    9.60
  -1  -1  19   12.60    4.80
  -1  -1  19    9.30    4.70
   0   1 -19   32.60   10.10
   0  -1  19   29.00    4.60
   0  -1  19   27.10    5.50
  -1   1 -19  609.94   19.70
  -1   1 -19  618.84   27.30
   1  -1  19  590.84   22.30
   1  -1  19  601.14   23.00
  -2   1 -19  257.37   17.60
  -2   1 -19  228.78   12.70
   2  -1  19  253.27   15.30
  -3   1 -19   30.80   10.00
  -3   1 -19    1.30    7.40
   3  -1  19   17.00    8.60
  -4   1 -19   73.89   11.00
   4  -1  19   84.79   13.60
   5  -1  19  -23.00   12.50
  -5   0  19   -1.40   10.20
  -4   0  19    8.10    8.50
   3   0 -19    1.50   10.20
  -3   0  19   -2.50    6.20
   2   0 -19    3.80    9.80
  -2   0  19    1.60    4.80
  -2   0  19   -1.10    4.20
   1   0 -19    5.20    9.30
  -1   0  19    0.70    3.20
  -1   0  19   -0.50    2.90
   0   0 -19   33.00   10.10
   0   0  19   37.20    4.00
   0   0  19   34.10    3.40
  -1   0 -19   21.70    9.30
   1   0  19   11.20    4.80
   1   0  19    9.20    4.10
  -2   0 -19   27.40    5.00
  -2   0 -19   35.80    9.40
   2   0  19   24.80    6.90
   2   0  19   24.10    6.80
  -3   0 -19   24.90    7.40
   3   0  19   25.20    8.40
   4   0  19   -4.90    9.90
   5   0  19   -9.70   12.20
  -4   1  19    6.40    8.10
  -3   1  19   69.09    8.40
  -2   1  19  452.45   16.90
  -2   1  19  432.66   16.70
   1   1  19  118.39    8.30
   1   1  19  107.79    7.80
  -2  -1 -19  117.99    7.40
   2   1  19  118.29   11.10
   2   1  19  101.99    9.90
   3   1  19   15.00    8.20
   4   1  19   96.59   12.90
   5   1  19   12.30   12.90
  -4   2  19   13.50    8.80
  -3   2  19   -4.30    6.20
  -2   2  19    4.10    4.90
  -1   2  19   15.90    4.10
  -1   2  19   24.20    4.60
   0   2  19   16.80    3.70
   1   2  19  101.19    8.70
   1   2  19   90.49    8.10
   2   2  19  354.16   17.50
   3   2  19   52.39   10.00
   4   2  19    2.30   10.40
   5   2  19   46.50   14.80
  -4   3  19   -6.40    8.90
  -3   3  19    9.20    7.60
  -2   3  19   13.00    6.50
  -1   3  19   13.10    6.00
   0   3  19  115.69   10.00
   0   3  19  105.09    8.80
   1   3  19   24.40    6.30
   2   3  19   18.10    7.70
   3   3  19  157.18   14.40
   4   3  19   20.70   11.10
  -3   4  19    8.40    9.00
  -2   4  19    2.80    7.70
  -1   4  19    5.40    7.30
   0   4  19    5.70    7.20
   1   4  19   58.69    9.30
   2   4  19   11.90    8.00
   3   4  19  121.19   14.40
   4   4  19  -13.80   11.20
  -2   5  19    6.50   10.20
  -1   5  19   21.80    9.90
   0   5  19    6.20    8.70
   1   5  19   -2.30    8.70
   2   5  19   11.80    9.60
   3   5  19   31.00   12.20
   0   6  19   24.30   11.90
   1   6  19   -9.00   10.60
  -2  -5  20   18.80   12.20
  -1  -5  20   18.60   11.40
   0  -5  20   87.29   13.90
   1  -5  20    3.70   12.60
   2  -5  20   49.99   15.20
  -3  -4  20   19.90   11.70
  -2  -4  20    3.90    9.50
  -1  -4  20   48.60   11.20
   0  -4  20    9.00    9.40
   1  -4  20   19.30   10.90
   2  -4  20    4.10   10.60
   3  -4  20    8.30   13.20
   4   3 -20   59.39   17.20
  -4  -3  20   46.50   12.20
  -3  -3  20    3.50    9.10
  -2  -3  20    9.30    8.50
  -1  -3  20   10.10    8.10
   0  -3  20   -2.40    7.30
  -1   3 -20   43.80   11.30
   1  -3  20   16.10    8.90
   2  -3  20   41.30   10.90
  -3   3 -20    1.20   11.40
   3  -3  20    4.90   10.50
   4  -3  20   20.60   14.80
   4   2 -20    2.20   13.40
  -4  -2  20   16.00   10.70
   3   2 -20   35.70   13.50
  -3  -2  20   17.50    8.50
   2   2 -20   97.49   14.60
  -2  -2  20   91.39    9.80
   1   2 -20  148.99   15.70
  -1  -2  20  149.79   11.60
   0   2 -20  104.79    6.90
   0  -2  20  127.89   11.50
   0  -2  20  149.29   15.70
  -1   2 -20   19.20   10.80
   1  -2  20   15.50    7.40
  -2   2 -20   18.70    7.40
  -2   2 -20   14.60    9.60
   2  -2  20   13.70    7.90
  -3   2 -20    9.00   10.10
   3  -2  20    4.60    9.60
  -4   2 -20   66.19   14.50
   4  -2  20   64.59   13.40
   4   1 -20   28.40   13.00
  -4  -1  20   32.50    9.70
   3   1 -20   10.90   11.70
  -3  -1  20    7.50    7.10
   2   1 -20   29.40   11.40
  -2  -1  20   39.80    7.10
   1   1 -20   32.70   11.10
  -1  -1  20   33.60    5.40
  -1  -1  20   19.70    5.10
   0   1 -20    1.50    9.20
   0  -1  20    4.30    3.90
   0  -1  20    4.80    4.70
  -1   1 -20    2.90    9.10
   1  -1  20   13.20    5.00
   1  -1  20   -2.30    5.70
  -2   1 -20    9.80    9.20
   2  -1  20    0.80    6.80
  -3   1 -20   -0.90    9.00
   3  -1  20    3.40    8.40
  -4   1 -20   11.60    9.40
   4  -1  20   36.00   11.80
   5  -1  20   10.70   13.00
  -4   0  20    3.10    8.70
   3   0 -20   -0.20   10.90
  -3   0  20   11.50    6.90
   2   0 -20   33.90   11.40
  -2   0  20   26.50    5.70
  -2   0  20   25.00    5.20
   1   0 -20   29.40   10.30
  -1   0  20   29.20    3.80
  -1   0  20   27.40    3.70
   0   0 -20  392.76   22.40
   0   0  20  398.96   14.10
   0   0  20  385.36   13.60
  -1   0 -20 1292.37   48.70
   1   0  20 1329.07   43.00
   1   0  20 1385.66   43.40
  -2   0 -20    0.80    8.60
  -2   0 -20   15.20    4.50
   2   0  20    4.80    6.10
   3   0  20    1.80    7.50
   4   0  20  116.19   14.80
   5   0  20   13.50   12.70
  -4   1  20   11.30    8.40
  -3   1  20    9.50    6.40
  -2   1  20   11.60    4.70
  -2   1  20   16.90    4.60
   1   1  20   29.40    4.90
   1   1  20   28.60    5.20
   2   1  20   42.70    7.50
   3   1  20   -2.30    7.40
   4   1  20   48.80   11.70
   5   1  20   13.70   12.40
  -4   2  20    8.20    8.70
  -3   2  20   91.69    9.70
  -2   2  20    2.70    5.00
  -1   2  20   15.40    3.90
  -1   2  20    6.10    3.90
   0   2  20  491.65   17.10
   1   2  20    1.80    4.40
   1   2  20    3.20    4.50
   2   2  20   20.60    6.90
   3   2  20  111.69   12.20
   4   2  20   22.30   10.90
   5   2  20  -14.30   13.40
  -4   3  20  -14.00    8.10
  -3   3  20    0.30    7.00
  -2   3  20   -2.30    6.00
  -1   3  20    8.90    5.60
   0   3  20  138.29   10.40
   1   3  20  231.38   13.40
   2   3  20   -3.00    6.90
   3   3  20   88.49   12.30
   4   3  20  115.79   15.50
  -3   4  20    0.60    8.50
  -2   4  20    3.90    8.10
  -1   4  20   -0.30    7.50
   0   4  20   15.00    7.50
   1   4  20   37.00    8.40
   2   4  20   80.39   10.50
   3   4  20   -8.50    9.00
   4   4  20    5.30   11.60
  -2   5  20    0.80    9.80
  -1   5  20   32.30   10.30
   0   5  20    2.70    8.70
   1   5  20   16.30    9.20
   2   5  20    2.80    9.70
   3   5  20   -4.70   10.40
  -2  -5  21   27.20   13.30
  -1  -5  21   51.29   13.20
   0  -5  21   12.30   11.90
   1  -5  21   14.80   13.40
   2  -5  21   31.80   15.20
  -3  -4  21   -0.50   11.00
  -2  -4  21   87.99   13.30
  -1  -4  21  130.89   14.50
   0  -4  21   -1.90    9.10
   1  -4  21   -5.30    9.90
   2  -4  21   20.10   11.20
   3  -4  21   16.20   13.40
   4   3 -21   23.40   16.40
  -4  -3  21   20.30   11.90
   3   3 -21    3.60   14.10
  -3  -3  21    3.40    9.70
  -2  -3  21   -3.10    7.90
  -1  -3  21   13.30    7.80
   0  -3  21   30.80    8.70
   1  -3  21   94.39   11.70
   2  -3  21   11.00   10.00
  -3   3 -21   72.69   14.00
   3  -3  21   54.29   13.40
   4  -3  21    1.70   13.10
   4   2 -21  -12.10   13.70
  -4  -2  21   -5.70    9.50
   3   2 -21    0.50   13.20
  -3  -2  21   17.30    8.40
   2   2 -21    0.50   11.50
  -2  -2  21   21.10    7.60
   1   2 -21   84.89   14.10
  -1  -2  21  100.59    9.20
   0   2 -21    4.90   10.30
   0  -2  21    4.30    6.10
  -1   2 -21   80.69   13.00
   1  -2  21   92.69   10.20
  -2   2 -21   96.59   14.10
   2  -2  21  107.49   11.40
  -3   2 -21   21.70   10.90
   3  -2  21   27.50   10.20
   4  -2  21    0.20   10.40
   4   1 -21   10.40   13.00
  -4  -1  21   15.40    9.70
   3   1 -21   15.40   12.20
  -3  -1  21   11.50    7.60
   2   1 -21  522.15   28.50
  -2  -1  21  509.25   20.80
   1   1 -21  125.19   14.50
  -1  -1  21  128.69    9.10
  -1  -1  21  128.29    9.30
   0   1 -21   12.90   10.10
   0  -1  21   28.20    5.60
   0  -1  21   29.20    5.10
  -1   1 -21   42.50   10.80
   1  -1  21   36.20    6.90
   1  -1  21   42.30    6.40
  -2   1 -21   31.70   10.50
   2  -1  21   26.50    7.60
  -3   1 -21   38.50   11.20
   3  -1  21   41.50    9.70
  -4   1 -21  147.59   14.50
   4  -1  21  133.99   15.10
  -4   0  21   14.20    8.90
   3   0 -21   20.30   12.40
  -3   0  21   27.40    7.60
   2   0 -21   17.80   10.90
  -2   0  21   17.10    5.10
  -2   0  21    9.20    5.10
   1   0 -21    2.00   10.20
  -1   0  21    1.30    3.10
  -1   0  21    3.30    3.20
   0   0 -21   16.30   10.00
   0   0  21   17.80    3.40
   0   0  21   16.50    3.80
  -1   0 -21   50.79   11.30
   1   0  21   49.70    5.80
   1   0  21   56.29    6.50
  -2   0 -21    5.70    9.50
   2   0  21   -3.30    6.00
   3   0  21   33.70    9.10
   4   0  21  -15.50    9.40
   5   0  21   16.40   12.90
  -4   1  21   -9.60    7.50
  -3   1  21    8.40    6.60
  -2   1  21   17.40    4.90
   1   1  21   80.69    6.80
   1   1  21   69.69    6.30
   2   1  21  185.38   13.00
   3   1  21  485.95   23.50
   4   1  21  -10.60    9.10
   5   1  21   28.10   12.80
  -4   2  21  -12.70    7.80
  -3   2  21    8.00    6.80
  -2   2  21    1.20    5.00
  -1   2  21   16.90    4.30
  -1   2  21   11.90    3.80
   0   2  21   97.29    6.40
   1   2  21   49.10    6.10
   1   2  21   47.40    6.00
   2   2  21   81.09    9.00
   3   2  21   13.00    8.90
   4   2  21   -6.80    9.80
  -3   3  21    3.10    7.60
  -2   3  21    9.60    6.30
  -1   3  21  156.98   11.20
   0   3  21  115.39   10.00
   1   3  21   50.99    7.40
   2   3  21    4.30    6.80
   3   3  21   12.60    8.90
   4   3  21   33.40   12.00
  -3   4  21    2.30    8.50
  -2   4  21   -8.50    7.20
  -1   4  21    3.00    7.30
   0   4  21   13.90    7.50
   1   4  21    8.60    7.50
   2   4  21   49.60    9.70
   3   4  21    5.20    9.50
  -1   5  21   58.19   11.50
   0   5  21   -2.00    8.70
   1   5  21   -2.00    8.70
   2   5  21    4.70    9.40
  -2  -5  22  -21.20   11.70
  -1  -5  22   12.10   11.70
   0  -5  22   17.50   12.00
   1  -5  22  117.39   16.60
  -3  -4  22   10.90   11.50
  -2  -4  22   12.00   10.90
  -1  -4  22   -8.80    8.80
   0  -4  22   12.10    9.40
   1  -4  22   14.00   10.60
   2  -4  22   14.60   11.10
   3  -4  22    3.90   13.00
   3   3 -22   27.40   15.80
  -3  -3  22   -0.10    9.30
  -2  -3  22   88.79   11.70
  -1  -3  22   10.60    8.40
   0  -3  22   94.39   11.20
   1  -3  22   54.29   10.30
   2  -3  22   14.10   10.00
  -3   3 -22  -13.20   11.20
   3  -3  22    8.20   11.30
   4   2 -22   -4.40   14.20
  -4  -2  22  -12.50    9.10
   3   2 -22   -2.80   13.50
  -3  -2  22   11.20    8.50
   2   2 -22   35.50   13.70
  -2  -2  22   26.50    7.70
   1   2 -22   48.20   13.20
  -1  -2  22   29.60    7.30
   0   2 -22    3.30   10.70
   0  -2  22    1.40    6.20
  -1   2 -22  129.99   15.10
   1  -2  22  116.69   11.00
  -2   2 -22   34.50   11.90
   2  -2  22   42.40    9.20
  -3   2 -22   -3.90   10.50
   3  -2  22   -1.10    9.60
   4  -2  22   12.60   11.70
   4   1 -22    8.80   13.00
  -4  -1  22    7.60    9.50
   3   1 -22   12.90   13.10
  -3  -1  22   35.90    8.50
   2   1 -22  145.89   17.70
  -2  -1  22  138.49   11.00
   1   1 -22    6.60   11.30
  -1  -1  22   -4.40    4.50
  -1  -1  22    7.20    4.90
   0   1 -22   -2.10    9.20
   0  -1  22    1.50    4.90
   0  -1  22    2.50    4.30
  -1   1 -22   63.69   12.30
   1  -1  22   75.79    8.20
   1  -1  22   48.10   10.60
  -2   1 -22    8.70   10.20
   2  -1  22   -3.50    6.70
  -3   1 -22   34.60   11.40
   3  -1  22   18.40    9.30
  -4   1 -22  -12.10    9.60
   4  -1  22   -3.60    9.90
  -4   0  22   -0.50    8.20
   3   0 -22   30.40   13.30
  -3   0  22   26.80    7.50
   2   0 -22  -13.60   10.50
  -2   0  22    4.50    5.10
   1   0 -22   -1.40   10.50
  -1   0  22    2.80    3.40
  -1   0  22   -0.50    3.20
   0   0 -22  154.18   15.50
   0   0  22  167.48    8.10
   0   0  22  154.88    7.90
  -1   0 -22   24.80   10.70
   1   0  22   25.10    5.10
   1   0  22   26.10    5.50
  -2   0 -22  129.99   14.70
   2   0  22  151.78   12.40
   3   0  22   58.89   10.00
   4   0  22   -1.50   10.10
  -4   1  22  -19.70    7.70
  -3   1  22    4.10    6.40
  -2   1  22   -5.60    4.30
   1   1  22   35.70    5.50
   1   1  22   24.70    4.90
   2   1  22   11.00    6.50
   3   1  22    7.80    8.10
   4   1  22   -1.70    9.70
  -4   2  22   18.70    9.30
  -3   2  22   55.09    8.40
  -2   2  22   62.59    6.80
  -1   2  22    1.90    3.70
  -1   2  22   -7.70    3.40
   0   2  22    1.50    3.20
   1   2  22  380.36   15.80
   2   2  22  130.99   12.30
   3   2  22  157.38   14.00
   4   2  22    1.50   10.00
  -3   3  22    3.80    7.60
  -2   3  22    1.60    6.30
  -1   3  22    6.60    5.70
   0   3  22   69.59    7.50
   2   3  22   -7.60    6.60
   3   3  22   30.80   10.00
   4   3  22   32.10   12.10
  -2   4  22    3.10    7.40
  -1   4  22   42.90    9.10
   0   4  22    3.90    7.20
   1   4  22   11.00    7.90
   2   4  22  255.37   17.80
   3   4  22    0.40    9.60
  -1   5  22    8.10    9.60
   0   5  22   18.90    9.70
   1   5  22   -0.40    8.70
   2   5  22   11.40   10.40
  -1  -5  23   14.80   11.90
   0  -5  23   26.10   12.20
   1  -5  23   -0.10   11.80
  -3  -4  23   10.10   11.50
  -2  -4  23   73.69   13.50
  -1  -4  23   66.79   11.80
   0  -4  23   13.00    9.70
   1  -4  23   92.09   14.00
   2  -4  23    6.30   11.20
   3   3 -23   -1.30   14.90
  -3  -3  23   20.50   10.10
   2   3 -23   24.10   15.00
  -2  -3  23    4.30    8.80
  -1  -3  23    7.70    8.00
   0  -3  23    6.00    8.00
   1  -3  23   18.50    9.00
  -2   3 -23  -12.20   12.00
   2  -3  23   -3.40    9.60
  -3   3 -23   12.60   13.00
   3  -3  23    0.40   11.10
   4   2 -23   11.20   15.10
  -4  -2  23    7.20    9.90
   3   2 -23   -2.00   13.50
  -3  -2  23   13.00    8.60
   2   2 -23   33.80   13.90
  -2  -2  23   22.70    7.80
   1   2 -23   25.30   12.50
  -1  -2  23   33.40    7.70
   0   2 -23  143.59   16.70
   0  -2  23  157.88   12.70
  -1   2 -23  117.99   15.80
   1  -2  23  122.69   11.10
  -2   2 -23   -6.60   10.40
   2  -2  23    5.80    8.30
  -3   2 -23   13.90   11.30
   3  -2  23   -5.70    9.80
   4  -2  23    2.30   11.30
   4   1 -23   -6.20   13.40
  -4  -1  23   -6.60    8.90
   3   1 -23   29.30   14.30
  -3  -1  23   29.40    8.60
   2   1 -23    5.80   12.20
  -2  -1  23   15.20    6.30
   1   1 -23    3.40   11.50
  -1  -1  23   18.20    5.20
   0   1 -23   26.30   11.40
   0  -1  23    5.20    4.70
   0  -1  23   18.70    5.50
  -1   1 -23   15.00   11.20
   1  -1  23    8.70    6.00
  -2   1 -23    5.80   10.50
   2  -1  23   -5.30    6.40
  -3   1 -23   79.09   13.70
   3  -1  23   75.69   11.30
  -4   1 -23    8.30   11.10
   4  -1  23   19.70   11.30
  -4   0  23    1.40    8.50
   3   0 -23   46.00   14.70
  -3   0  23   32.50    7.70
   2   0 -23   -2.70   11.40
  -2   0  23    3.30    5.00
   1   0 -23   15.70   11.70
  -1   0  23   39.90    4.40
  -1   0  23   46.60    4.50
   0   0 -23  187.78   17.80
   0   0  23  173.58    8.50
   0   0  23  191.48    8.90
  -1   0 -23   23.60   10.70
   1   0  23   23.10    5.60
   1   0  23   18.50    4.90
  -2   0 -23   18.20   10.50
   2   0  23    8.30    6.40
   3   0  23   51.09    9.90
   4   0  23    2.00   10.40
  -4   1  23   -9.50    8.00
  -3   1  23   -2.10    6.20
  -2   1  23    5.60    4.60
   1   1  23   51.29    6.10
   1   1  23   54.59    5.80
   2   1  23    4.70    6.20
   3   1  23   86.89   11.00
   4   1  23   53.89   11.40
  -3   2  23    1.80    6.80
  -2   2  23   14.80    5.30
  -1   2  23    0.30    4.00
  -1   2  23   -2.30    3.60
   0   2  23   25.90    4.10
   1   2  23   39.00    5.90
   2   2  23   -2.30    6.10
   3   2  23   41.90    9.80
   4   2  23   24.50   11.00
  -3   3  23   -7.00    6.80
  -2   3  23    2.70    6.20
  -1   3  23   91.49    8.40
   0   3  23   68.49    7.40
   2   3  23   53.39    9.00
   3   3  23   27.70   10.30
   4   3  23    6.40   11.40
  -2   4  23    2.60    7.40
  -1   4  23   47.40    8.80
   0   4  23   11.80    7.50
   1   4  23   17.70    7.90
   2   4  23   90.19   11.40
   3   4  23   61.29   12.30
  -1   5  23   -5.40    8.90
   0   5  23   -4.70    8.70
   1   5  23   94.09   12.80
   2   5  23   -4.50    9.60
  -1  -5  24    4.10   11.10
   0  -5  24   -2.10   10.90
  -2  -4  24    1.40   10.60
  -1  -4  24   21.70    9.70
   0  -4  24   12.20    9.70
   1  -4  24  -13.80    9.60
   2  -4  24   10.30   11.40
   3   3 -24   45.40   17.40
  -3  -3  24   64.19   12.10
   2   3 -24   95.59   18.30
  -2  -3  24  110.69   12.40
  -1  -3  24   -4.70    7.80
   0  -3  24   -2.70    7.30
   1  -3  24    8.70    9.10
  -2   3 -24  -18.10   11.30
   2  -3  24   10.40    9.60
  -3   3 -24  123.89   17.50
   3  -3  24  110.99   15.40
   3   2 -24   -9.50   14.40
  -3  -2  24   11.70    8.80
   2   2 -24   25.50   14.20
  -2  -2  24   16.80    7.80
   1   2 -24   49.70   13.80
  -1  -2  24   52.09    8.30
   0   2 -24   64.69   14.40
   0  -2  24   97.99    9.80
  -1   2 -24   30.60   12.60
   1  -2  24   24.00    8.10
  -2   2 -24   36.20   12.80
   2  -2  24   53.19   10.40
  -3   2 -24   17.10   12.50
   3  -2  24   14.50   10.40
   4  -2  24  -18.40   11.10
   4   1 -24   -3.30   14.10
  -4  -1  24   14.00    9.90
   3   1 -24   12.40   14.50
  -3  -1  24   37.90    9.00
   2   1 -24    1.40   12.70
  -2  -1  24   17.90    6.40
   1   1 -24   -2.50   12.10
  -1  -1  24   12.00    5.20
   0   1 -24  132.39   16.50
   0  -1  24  137.69   10.50
  -1   1 -24   51.89   12.50
   1  -1  24   35.10    7.10
  -2   1 -24  117.99   14.90
   2  -1  24   95.99   10.50
  -3   1 -24  107.99   14.80
   3  -1  24  111.39   12.70
   4  -1  24    7.00   10.50
  -4   0  24   -5.50    8.70
   3   0 -24  109.09   17.50
  -3   0  24  102.49   10.40
   2   0 -24   22.60   12.70
  -2   0  24   18.00    5.60
   1   0 -24   65.79   13.90
  -1   0  24   57.69    5.00
  -1   0  24   66.79    5.10
   0   0 -24  203.18   20.20
   0   0  24  204.68    9.40
   0   0  24  198.08    9.60
  -1   0 -24    1.50   10.60
   1   0  24   13.10    5.30
  -2   0 -24    8.30   10.50
   2   0  24    5.90    6.10
   3   0  24   80.79   11.30
   4   0  24   54.19   13.00
  -4   1  24   -8.90    8.00
  -3   1  24   -1.10    6.50
  -2   1  24    8.30    4.70
   1   1  24   76.99    7.10
   2   1  24    7.60    6.50
   3   1  24   -0.40    8.00
   4   1  24    2.60    9.70
  -3   2  24    6.60    6.80
  -2   2  24   -4.40    4.60
  -1   2  24   45.00    4.70
   0   2  24   -0.20    3.90
   0   2  24    1.70    3.60
   1   2  24   26.80    5.50
   2   2  24  321.17   17.40
   3   2  24    4.30    8.50
   4   2  24   15.50   10.90
  -3   3  24    7.90    7.40
  -2   3  24    7.10    6.30
  -1   3  24   -0.60    5.40
   0   3  24   64.39    7.40
   2   3  24    8.40    7.40
   3   3  24   -2.10    8.60
  -2   4  24   15.60    8.20
  -1   4  24   18.10    7.80
   0   4  24   89.79   10.10
   1   4  24    8.80    7.90
   2   4  24    1.50    7.90
   3   4  24   52.89   11.90
   0   5  24   -0.50    9.30
   1   5  24   23.90   10.30
  -2  -4  25   10.40   11.20
  -1  -4  25   16.50    9.90
   0  -4  25   99.59   13.20
   1  -4  25  148.79   15.70
   2  -4  25   43.70   13.70
   3   3 -25    0.30   16.10
  -3  -3  25  -10.10    9.60
   2   3 -25   -0.20   16.20
  -2  -3  25   -3.60    8.30
   1   3 -25    1.90   14.50
  -1  -3  25   15.30    8.80
   0   3 -25   51.69   15.50
   0  -3  25   33.40    9.30
  -1   3 -25   18.70   13.80
   1  -3  25   19.20    9.10
  -2   3 -25  -23.10   12.00
   2  -3  25   -5.10    9.50
  -3   3 -25   -2.20   13.40
   3  -3  25   -6.00   11.10
   3   2 -25   37.90   16.80
  -3  -2  25   32.90    9.80
   2   2 -25    7.80   14.60
  -2  -2  25   17.30    7.90
   1   2 -25   22.80   13.80
  -1  -2  25   35.70    7.80
   0   2 -25   47.50   14.10
   0  -2  25   40.30    7.80
  -1   2 -25  -12.20   11.40
   1  -2  25    1.80    7.20
  -2   2 -25   24.10   13.10
   2  -2  25   36.90    9.40
  -3   2 -25  133.19   17.20
   3  -2  25  106.29   13.90
   3   1 -25   34.40   15.80
  -3  -1  25   -4.60    7.90
   2   1 -25   20.60   14.50
  -2  -1  25   10.00    6.20
   1   1 -25    5.40   12.20
  -1  -1  25   -0.70    5.20
   0   1 -25   67.79   14.40
   0  -1  25   86.89    8.00
  -1   1 -25   11.90   11.20
   1  -1  25   15.80    6.40
  -2   1 -25   16.30   11.50
   2  -1  25   11.00    7.30
  -3   1 -25   57.29   13.80
   3  -1  25   39.70   10.10
   4  -1  25   18.50   11.30
  -4   0  25   -0.70    9.00
   3   0 -25   61.09   16.30
  -3   0  25   69.99    9.10
   2   0 -25    5.10   12.70
  -2   0  25   15.10    5.50
   1   0 -25   -3.50   11.40
  -1   0  25   10.50    3.70
   0   0 -25   17.50   11.50
   0   0  25   16.30    3.90
   0   0  25   12.00    4.00
  -1   0 -25   26.40   11.70
   1   0  25   32.30    6.20
  -2   0 -25  208.78   19.70
   2   0  25  213.48   14.50
   3   0  25   -0.50    8.20
   4   0  25  -10.70    9.20
  -3   1  25  -17.50    5.90
  -2   1  25    3.80    4.60
   1   1  25    1.50    4.80
   2   1  25   -2.70    6.30
   3   1  25    4.90    8.00
   4   1  25   58.49   12.30
  -3   2  25    5.00    6.90
  -2   2  25   17.50    5.30
   0   2  25    3.80    3.90
   1   2  25   98.29    9.20
   2   2  25   45.90    8.30
   3   2  25    2.60    8.30
   4   2  25   15.30   11.30
  -2   3  25   -5.30    5.90
  -1   3  25   51.79    6.90
   0   3  25  121.09   10.20
   2   3  25   25.30    8.00
   3   3  25  -10.80    8.60
  -2   4  25    6.20    7.90
  -1   4  25   13.10    7.80
   0   4  25    6.90    7.10
   1   4  25   12.30    8.00
   2   4  25    0.80    8.20
  -2  -4  26   11.20   11.00
  -1  -4  26   17.70   10.30
   0  -4  26   20.50   10.60
   1  -4  26   11.10   10.40
   3   3 -26   42.00   18.60
  -3  -3  26   58.99   12.60
   2   3 -26   48.20   18.60
  -2  -3  26   26.60   10.00
   1   3 -26   -2.40   14.20
  -1  -3  26   16.40    8.60
   0   3 -26   43.20   15.90
   0  -3  26   40.10    9.80
  -1   3 -26    8.40   13.50
   1  -3  26    7.00    8.90
  -2   3 -26   21.60   14.30
   2  -3  26   26.70   11.10
  -3   3 -26   99.39   17.60
   3  -3  26  122.09   15.60
   3   2 -26  -11.60   15.60
  -3  -2  26   12.70    9.60
   2   2 -26  -11.30   14.90
  -2  -2  26    3.80    7.40
   1   2 -26   -9.00   13.10
  -1  -2  26   -4.10    6.30
   0   2 -26   -2.10   12.60
   0  -2  26   16.00    7.10
  -1   2 -26    6.10   12.60
   1  -2  26   -1.30    7.40
  -2   2 -26   12.10   12.40
   2  -2  26    4.10    8.40
  -3   2 -26   22.60   13.50
   3  -2  26   13.80   10.30
   3   1 -26   21.30   16.30
  -3  -1  26   31.60    8.70
   2   1 -26   46.10   16.30
  -2  -1  26   38.70    7.30
   1   1 -26   87.29   16.20
  -1  -1  26   72.39    7.80
   0   1 -26   39.20   13.60
   0  -1  26   22.00    6.30
  -1   1 -26    6.90   12.10
   1  -1  26   10.90    6.50
  -2   1 -26   -0.50   11.60
   2  -1  26    9.20    7.60
  -3   1 -26   32.60   12.70
   3  -1  26   23.70    9.20
   4  -1  26   27.60   12.00
   3   0 -26   19.40   15.10
  -3   0  26    6.60    7.20
   2   0 -26    1.80   13.30
  -2   0  26    4.80    5.50
   1   0 -26  -14.20   11.70
  -1   0  26   -4.50    3.70
   0   0 -26   15.50   11.60
   0   0  26   15.20    4.30
  -1   0 -26   24.70   12.00
   1   0  26   38.80    6.40
  -2   0 -26  110.19   15.50
   2   0  26  129.19   11.10
   3   0  26   33.40    9.80
   4   0  26   12.20   10.70
  -3   1  26   12.90    6.80
  -2   1  26   15.50    4.90
   1   1  26   25.40    5.70
   2   1  26   98.79   10.10
   3   1  26    2.10    8.10
   4   1  26   36.30   11.40
  -3   2  26   17.10    7.20
  -2   2  26   10.10    5.00
   0   2  26    6.10    3.90
   1   2  26   28.90    5.70
   2   2  26  116.99   11.10
   3   2  26   70.09   11.20
  -2   3  26   -2.30    6.10
  -1   3  26    1.20    5.30
   0   3  26   10.70    5.90
   2   3  26  -13.60    6.70
   3   3  26   -0.50    8.70
  -1   4  26    4.00    7.20
   0   4  26    4.30    7.20
   1   4  26    4.30    7.80
   2   4  26   30.20    9.50
  -1  -4  27    3.80   10.10
   0  -4  27   97.59   13.90
   1  -4  27   19.00   11.00
   2   3 -27   13.00   18.40
  -2  -3  27    8.70    9.90
   1   3 -27   12.00   15.60
  -1  -3  27    2.50    8.10
   0   3 -27   14.10   14.90
   0  -3  27   12.50    8.90
  -1   3 -27   -0.40   13.70
   1  -3  27    6.20    9.20
  -2   3 -27   36.70   15.20
   2  -3  27   -0.10   10.30
   3   2 -27   16.60   17.20
  -3  -2  27   34.90   10.60
   2   2 -27  -15.20   14.90
  -2  -2  27    3.80    7.70
   1   2 -27   24.60   15.10
  -1  -2  27   11.30    7.10
   0   2 -27   18.00   13.80
   0  -2  27    5.00    7.20
  -1   2 -27   -9.10   12.50
   1  -2  27    7.70    7.70
  -2   2 -27  110.69   16.80
   2  -2  27  126.99   13.50
  -3   2 -27   12.10   13.40
   3  -2  27   20.60   10.90
   3   1 -27   -9.60   15.00
  -3  -1  27   12.10    8.40
   2   1 -27   39.10   16.10
  -2  -1  27   28.30    7.10
   1   1 -27   13.20   13.60
  -1  -1  27    5.00    5.50
   0   1 -27    4.80   12.70
   0  -1  27    1.30    5.40
  -1   1 -27   84.89   15.80
   1  -1  27   85.69    9.20
  -2   1 -27   19.60   12.80
   2  -1  27   20.90    8.40
  -3   1 -27  -10.10   11.40
   3  -1  27    0.00    8.50
   3   0 -27   -1.30   14.70
  -3   0  27    6.10    7.30
   2   0 -27   13.40   14.80
  -2   0  27   -2.90    5.00
   1   0 -27   34.00   13.50
  -1   0  27   10.20    4.30
   0   0 -27   58.59   13.90
   0   0  27   64.59    5.70
  -1   0 -27   32.90   12.30
   1   0  27   24.80    6.20
  -2   0 -27  156.98   17.90
   2   0  27  159.68   13.90
   3   0  27   57.79   10.90
  -3   1  27    8.80    6.90
  -2   1  27    4.30    4.80
   1   1  27   11.40    5.40
   2   1  27  120.39   10.90
   3   1  27   31.60    9.70
  -3   2  27    4.50    6.70
  -2   2  27   56.09    6.50
   0   2  27   -5.60    3.60
   1   2  27   28.60    6.10
   2   2  27    4.90    7.10
   3   2  27   -2.50    8.50
  -2   3  27   14.00    6.70
  -1   3  27   15.30    5.60
   0   3  27   31.10    6.20
   2   3  27   14.10    8.00
   3   3  27   23.10   10.00
  -1   4  27   17.20    7.50
   0   4  27    9.30    7.60
   1   4  27    0.40    7.60
   2   4  27    5.40    8.70
   0  -4  28    5.00   10.20
   2   3 -28   -0.20   18.20
  -2  -3  28   -0.40    9.60
   1   3 -28   36.30   18.20
  -1  -3  28   53.19    9.70
   0   3 -28  106.79   19.20
   0  -3  28  195.48   17.40
  -1   3 -28   69.99   17.30
   1  -3  28   19.30    9.80
  -2   3 -28  119.19   18.60
   2  -3  28  100.59   13.70
   2   2 -28    4.50   17.10
  -2  -2  28   19.10    8.00
   1   2 -28   58.59   16.80
  -1  -2  28   33.40    8.10
   0   2 -28   -1.10   13.80
   0  -2  28   14.80    7.70
  -1   2 -28   14.30   13.50
   1  -2  28   28.50    8.40
  -2   2 -28   59.49   15.60
   2  -2  28   68.89   11.20
  -3   2 -28    3.30   13.40
   3  -2  28   31.60   11.50
   3   1 -28   -3.20   16.10
  -3  -1  28  -10.70    7.70
   2   1 -28   13.90   15.90
  -2  -1  28   12.40    6.60
   1   1 -28   39.60   16.30
  -1  -1  28   54.19    7.10
   0   1 -28   -7.40   12.80
   0  -1  28    3.20    5.70
  -1   1 -28   14.70   13.30
   1  -1  28    4.30    6.40
  -2   1 -28   36.40   14.20
   2  -1  28   25.90    9.00
  -3   1 -28    1.70   12.60
   3  -1  28    6.10    8.90
   3   0 -28    5.50   15.10
  -3   0  28    4.80    7.40
   2   0 -28    5.60   15.00
  -2   0  28    1.90    5.30
   1   0 -28   12.90   14.00
  -1   0  28    6.60    4.00
   0   0 -28   25.20   13.60
   0   0  28   16.00    4.50
  -1   0 -28   -7.10   12.10
   1   0  28    6.10    5.80
  -2   0 -28    2.60   11.70
   2   0  28   11.70    7.10
   3   0  28  107.99   12.70
  -3   1  28   10.00    7.00
  -2   1  28   21.20    5.40
   1   1  28  138.59   10.60
   2   1  28   14.00    7.20
   3   1  28   12.80    8.60
  -2   2  28   22.30    5.50
   1   2  28    2.00    5.00
   2   2  28   -1.50    7.00
   3   2  28   51.39   10.80
  -2   3  28    9.20    6.20
  -1   3  28    1.30    5.10
   0   3  28   12.20    5.70
   1   3  28   31.20    7.30
   2   3  28    5.90    7.70
   0   4  28   24.60    8.00
   1   4  28   21.70    8.80
   1   3 -29   38.70   19.30
  -1  -3  29   48.60   10.30
   0   3 -29    4.60   15.80
   0  -3  29    8.40    9.00
  -1   3 -29   -3.40   15.20
   1  -3  29   28.20   10.50
  -2   3 -29   11.80   15.50
   2   2 -29  -20.40   16.70
  -2  -2  29    0.90    7.70
   1   2 -29   25.60   16.80
  -1  -2  29   21.10    7.50
   0   2 -29    4.50   14.20
   0  -2  29    4.10    7.30
  -1   2 -29   75.29   17.30
   1  -2  29   90.79   10.80
  -2   2 -29  237.38   24.80
   2  -2  29  260.97   19.30
   2   1 -29    0.50   15.90
  -2  -1  29    2.60    6.70
   1   1 -29    2.80   15.70
  -1  -1  29    4.30    5.50
   0   1 -29   14.90   14.50
   0  -1  29   -5.30    5.50
  -1   1 -29   18.90   13.60
   1  -1  29   17.20    7.00
  -2   1 -29    2.80   13.30
   2  -1  29   11.10    8.30
  -3   1 -29   20.80   13.70
   3  -1  29    3.20    9.10
  -3   0  29   10.20    7.90
   2   0 -29   13.80   15.80
  -2   0  29   21.90    5.80
   1   0 -29   23.30   14.40
  -1   0  29   17.70    5.00
   0   0 -29    0.30   13.20
   0   0  29   13.90    4.60
  -1   0 -29   32.00   13.80
   1   0  29   36.60    7.10
  -2   0 -29   58.59   14.70
   2   0  29   67.69    9.40
   3   0  29   45.80   10.70
   1   1  29    7.70    5.30
   2   1  29    5.60    6.90
   3   1  29    4.60    8.80
   1   2  29   -7.80    4.90
   2   2  29   -8.40    7.20
   3   2  29   43.40   10.80
  -1   3  29   -3.40    5.10
   0   3  29    9.60    5.70
   1   3  29    6.20    6.50
   2   3  29   90.09   11.30
   1   3 -30   52.19   19.30
  -1  -3  30   49.99   10.30
   0   3 -30   -6.70   16.80
   0  -3  30    2.30    8.80
  -1   3 -30   -4.20   14.90
   1  -3  30    8.30    9.50
   2   2 -30   10.30   17.90
  -2  -2  30   13.50    8.80
   1   2 -30   -4.20   17.10
  -1  -2  30   19.00    7.60
   0   2 -30    6.10   16.10
   0  -2  30   13.20    7.70
  -1   2 -30   54.69   17.00
   1  -2  30   26.00    8.80
  -2   2 -30    0.90   14.30
   2  -2  30   11.20    9.40
   2   1 -30  -15.60   16.30
  -2  -1  30    6.90    6.70
   1   1 -30   -3.30   15.20
  -1  -1  30    4.30    5.80
   0   1 -30   27.10   15.40
   0  -1  30   24.00    6.30
  -1   1 -30  135.89   19.40
   1  -1  30  133.29   11.10
  -2   1 -30   35.90   15.10
   2  -1  30   50.39    9.70
   2   0 -30   -9.80   15.80
  -2   0  30    0.30    5.10
   1   0 -30  -19.50   14.50
   0   0 -30   16.60   14.60
   0   0  30   20.20    4.90
  -1   0 -30   64.79   16.20
   1   0  30   58.99    7.90
  -2   0 -30   -4.40   12.70
   2   0  30   14.40    7.50
   3   0  30  -13.20    8.20
   1   1  30  265.17   13.60
   2   1  30   34.20    8.30
   3   1  30    1.40    8.80
   1   2  30   13.80    5.50
   2   2  30   14.30    7.90
   0   3  30    1.70    5.40
   1   3  30    9.60    6.70
   1   2 -31   38.30   19.50
  -1  -2  31   69.29    9.60
   0   2 -31  -15.20   15.90
   0  -2  31   26.80    8.30
  -1   2 -31   84.79   18.20
   1  -2  31   91.49   11.30
   2   1 -31    4.50   17.70
  -2  -1  31   21.40    7.00
   1   1 -31   25.00   17.30
  -1  -1  31   21.80    6.40
   0   1 -31   -2.70   14.70
   0  -1  31    5.70    6.10
  -1   1 -31   90.29   18.50
   1  -1  31   99.19   10.10
  -2   1 -31   37.50   15.20
   2  -1  31   30.90    9.40
   2   0 -31    9.00   17.00
  -2   0  31   18.20    5.80
   1   0 -31    9.80   16.00
   0   0 -31   31.10   15.60
   0   0  31    5.60    4.70
  -1   0 -31   26.00   14.60
   1   0  31    3.80    6.30
   2   0  31    7.50    7.50
   1   1  31   17.20    5.70
   2   1  31   42.90    8.70
   1   2  31   -0.20    5.20
   2   2  31    3.90    7.70
   1   2 -32    7.00   18.00
   0   2 -32    1.60   17.10
   0  -2  32    3.90    7.80
  -1   2 -32   -0.20   15.60
   1  -2  32   21.00    9.00
   1   1 -32   -2.30   16.40
  -1  -1  32   -4.70    6.00
   0   1 -32   54.89   18.30
   0  -1  32   37.30    7.50
  -1   1 -32   76.19   18.20
   1  -1  32  120.89   10.90
  -2   1 -32   18.20   14.90
   2  -1  32   28.70    9.70
   1   0 -32   -6.20   15.50
   0   0 -32   -4.00   14.80
   0   0  32   12.00    4.90
  -1   0 -32   12.10   14.70
   1   0  32    3.20    6.20
   2   0  32    5.80    7.90
   1   1  32   -1.50    5.30
   2   1  32  111.09   11.20
   1   2  32    3.90    5.60
   0   1 -33   93.99   21.10
   0  -1  33   78.09    8.70
  -1   1 -33   42.60   17.20
   1  -1  33   65.29    9.30
   1   0 -33   -9.30   17.10
   0   0 -33   11.60   16.10
   0   0  33   16.00    5.20
  -1   0 -33   20.80   15.70
   1   0  33   12.90    6.50
   1   1  33    2.40    5.50

_computing_structure_solution     'SHELXT 2014/4 (Sheldrick, 2014)'
;
_shelx_hkl_checksum              1244
loop_
_space_group_symop_operation_xyz
'x, y, z'
'-x, -y, -z'
loop_
_atom_site_label
_atom_site_type_symbol
_atom_site_fract_x
_atom_site_fract_y
_atom_site_fract_z
_atom_site_U_iso_or_equiv
_atom_site_adp_type
_atom_site_occupancy
_atom_site_site_symmetry_order
_atom_site_calc_flag
_atom_site_refinement_flags_posn
_atom_site_refinement_flags_adp
_atom_site_refinement_flags_occupancy
_atom_site_disorder_assembly
_atom_site_disorder_group
S5 S 0.5795(3) 0.0657(2) 0.84797(4) 0.0335(4) Uani 1 1 d . . . . .
S3 S 0.2184(3) -0.0451(2) 0.75668(4) 0.0366(4) Uani 1 1 d . . . . .
S6 S 0.7556(3) 0.4773(2) 0.79486(4) 0.0378(4) Uani 1 1 d . . . . .
S4 S 0.4052(3) 0.3590(2) 0.70383(4) 0.0398(4) Uani 1 1 d . . . . .
S1 S -0.1185(3) -0.1889(3) 0.67908(5) 0.0480(4) Uani 1 1 d . . . . .
S2 S 0.1053(4) 0.2901(3) 0.61519(5) 0.0518(5) Uani 1 1 d . . . . .
N1 N 1.5020(11) 0.7472(9) 0.95702(16) 0.0539(14) Uani 1 1 d . . . . .
C1 C -0.1886(14) -0.0958(12) 0.6185(2) 0.063(2) Uani 1 1 d . . . . .
H1A H -0.2334 -0.2314 0.5996 0.076 Uiso 1 1 calc R U . . .
H1B H -0.3507 0.0118 0.6206 0.076 Uiso 1 1 calc R U . . .
C2 C 0.0177(16) 0.0152(13) 0.5908(2) 0.080(3) Uani 1 1 d . . . . .
H2A H -0.0405 0.0407 0.5568 0.097 Uiso 1 1 calc R U . . .
H2B H 0.1812 -0.0908 0.5890 0.097 Uiso 1 1 calc R U . . .
C3 C 0.0929(11) 0.0111(9) 0.69856(17) 0.0330(13) Uani 1 1 d . . . . .
C4 C 0.1794(11) 0.1973(9) 0.67432(16) 0.0353(14) Uani 1 1 d . . . . .
C5 C 0.4145(10) 0.1884(9) 0.75721(15) 0.0296(13) Uani 1 1 d . . . . .
C6 C 0.5635(10) 0.2382(9) 0.79544(16) 0.0277(12) Uani 1 1 d . . . . .
C7 C 0.8035(10) 0.2270(8) 0.87756(16) 0.0264(12) Uani 1 1 d . . . . .
C8 C 0.8911(10) 0.4201(9) 0.85234(15) 0.0253(12) Uani 1 1 d . . . . .
C9 C 0.8989(10) 0.1705(9) 0.92365(15) 0.0340(14) Uani 1 1 d . . . . .
H9 H 0.8405 0.0397 0.9410 0.041 Uiso 1 1 calc R U . . .
C10 C 1.0694(10) 0.5555(9) 0.87292(16) 0.0288(12) Uani 1 1 d . . . . .
H10 H 1.1274 0.6876 0.8560 0.035 Uiso 1 1 calc R U . . .
C11 C 1.0777(10) 0.3057(9) 0.94365(16) 0.0347(14) Uani 1 1 d . . . . .
H11 H 1.1442 0.2680 0.9751 0.042 Uiso 1 1 calc R U . . .
C12 C 1.1630(10) 0.4968(9) 0.91859(16) 0.0291(12) Uani 1 1 d . . . . .
C13 C 1.3491(12) 0.6371(10) 0.94018(17) 0.0370(14) Uani 1 1 d . . . . .
Ag1 Ag 0.5000 0.5000 0.5000 0.1791(8) Uani 1 2 d S . P . .
C14 C 0.177(4) 0.432(4) 0.4899(7) 0.068(5) Uiso 0.375 1 d D . P . .
C15 C 0.518(4) 0.167(3) 0.4989(6) 0.069(6) Uiso 0.375 1 d D . P . .
N3 N -0.042(4) 0.452(3) 0.4983(7) 0.070(5) Uiso 0.375 1 d D . P . .
N4 N 0.553(5) -0.032(4) 0.4977(8) 0.081(5) Uiso 0.375 1 d D . P . .
loop_
_atom_site_aniso_label
_atom_site_aniso_U_11
_atom_site_aniso_U_22
_atom_site_aniso_U_33
_atom_site_aniso_U_23
_atom_site_aniso_U_13
_atom_site_aniso_U_12
S5 0.0405(9) 0.0321(8) 0.0304(7) 0.0028(6) -0.0113(6) -0.0153(7)
S3 0.0433(10) 0.0370(9) 0.0320(7) 0.0043(6) -0.0127(6) -0.0137(8)
S6 0.0493(10) 0.0348(9) 0.0323(7) 0.0058(6) -0.0163(6) -0.0148(8)
S4 0.0513(11) 0.0364(9) 0.0350(7) 0.0062(6) -0.0160(7) -0.0180(8)
S1 0.0557(11) 0.0447(10) 0.0482(8) 0.0016(7) -0.0218(7) -0.0242(8)
S2 0.0804(14) 0.0464(10) 0.0315(7) 0.0073(7) -0.0210(7) -0.0135(9)
N1 0.061(4) 0.054(4) 0.051(3) 0.007(3) -0.019(3) -0.025(3)
C1 0.080(6) 0.063(5) 0.051(4) 0.003(3) -0.032(4) -0.020(4)
C2 0.099(6) 0.114(7) 0.036(3) -0.020(4) -0.017(4) -0.047(6)
C3 0.034(3) 0.029(3) 0.037(3) -0.004(2) -0.010(2) -0.004(3)
C4 0.042(4) 0.035(4) 0.030(3) -0.004(2) -0.013(2) 0.004(3)
C5 0.034(3) 0.037(3) 0.019(2) -0.004(2) -0.001(2) -0.011(3)
C6 0.030(3) 0.027(3) 0.026(2) -0.003(2) -0.004(2) -0.004(3)
C7 0.027(3) 0.022(3) 0.030(3) -0.001(2) 0.000(2) -0.003(2)
C8 0.022(3) 0.028(3) 0.026(2) 0.003(2) -0.004(2) 0.001(2)
C9 0.042(4) 0.037(3) 0.025(2) 0.007(2) -0.009(2) -0.012(3)
C10 0.033(3) 0.025(3) 0.029(3) 0.001(2) -0.002(2) -0.009(3)
C11 0.037(4) 0.039(4) 0.031(3) 0.007(2) -0.010(2) -0.012(3)
C12 0.029(3) 0.031(3) 0.029(3) -0.006(2) -0.004(2) -0.007(3)
C13 0.042(4) 0.043(4) 0.029(3) 0.007(2) -0.012(2) -0.013(3)
Ag1 0.263(2) 0.1763(15) 0.0932(8) -0.0492(8) -0.0666(9) 0.0629(13)
loop_
_atom_type_symbol
_atom_type_description
_atom_type_scat_dispersion_real
_atom_type_scat_dispersion_imag
_atom_type_scat_source
C C 0.0033 0.0016 'International Tables Vol C Tables 4.2.6.8 and 6.1.1.4'
H H 0.0000 0.0000 'International Tables Vol C Tables 4.2.6.8 and 6.1.1.4'
N N 0.0061 0.0033 'International Tables Vol C Tables 4.2.6.8 and 6.1.1.4'
S S 0.1246 0.1234 'International Tables Vol C Tables 4.2.6.8 and 6.1.1.4'
Ag Ag -0.8971 1.1015 'International Tables Vol C Tables 4.2.6.8 and 6.1.1.4'
loop_
_geom_angle_atom_site_label_1
_geom_angle_atom_site_label_2
_geom_angle_atom_site_label_3
_geom_angle
_geom_angle_site_symmetry_1
_geom_angle_site_symmetry_3
_geom_angle_publ_flag
C7 S5 C6 95.7(2) . . ?
C5 S3 C3 96.1(2) . . ?
C6 S6 C8 95.5(2) . . ?
C4 S4 C5 95.4(2) . . ?
C3 S1 C1 103.2(3) . . ?
C4 S2 C2 98.1(3) . . ?
C2 C1 S1 117.4(5) . . ?
C2 C1 H1A 108.0 . . ?
S1 C1 H1A 108.0 . . ?
C2 C1 H1B 108.0 . . ?
S1 C1 H1B 108.0 . . ?
H1A C1 H1B 107.2 . . ?
C1 C2 S2 115.7(5) . . ?
C1 C2 H2A 108.4 . . ?
S2 C2 H2A 108.4 . . ?
C1 C2 H2B 108.4 . . ?
S2 C2 H2B 108.4 . . ?
H2A C2 H2B 107.4 . . ?
C4 C3 S1 128.8(4) . . ?
C4 C3 S3 116.6(4) . . ?
S1 C3 S3 114.5(3) . . ?
C3 C4 S2 127.6(4) . . ?
C3 C4 S4 117.2(4) . . ?
S2 C4 S4 115.1(3) . . ?
C6 C5 S3 123.5(4) . . ?
C6 C5 S4 121.8(4) . . ?
S3 C5 S4 114.7(3) . . ?
C5 C6 S5 122.0(4) . . ?
C5 C6 S6 122.1(4) . . ?
S5 C6 S6 115.9(3) . . ?
C9 C7 C8 119.9(5) . . ?
C9 C7 S5 123.3(4) . . ?
C8 C7 S5 116.8(3) . . ?
C10 C8 C7 120.5(4) . . ?
C10 C8 S6 123.4(4) . . ?
C7 C8 S6 116.1(4) . . ?
C11 C9 C7 119.2(5) . . ?
C11 C9 H9 120.4 . . ?
C7 C9 H9 120.4 . . ?
C8 C10 C12 119.0(5) . . ?
C8 C10 H10 120.5 . . ?
C12 C10 H10 120.5 . . ?
C9 C11 C12 120.7(4) . . ?
C9 C11 H11 119.7 . . ?
C12 C11 H11 119.7 . . ?
C10 C12 C11 120.8(5) . . ?
C10 C12 C13 119.2(5) . . ?
C11 C12 C13 119.9(4) . . ?
N1 C13 C12 178.7(7) . . ?
C14 Ag1 C14 180.0 2_666 . ?
C14 Ag1 C15 104.8(9) 2_666 . ?
C14 Ag1 C15 75.2(10) . . ?
C14 Ag1 C15 75.2(10) 2_666 2_666 ?
C14 Ag1 C15 104.8(10) . 2_666 ?
C15 Ag1 C15 180.0 . 2_666 ?
C14 Ag1 N3 157.2(7) 2_666 2_566 ?
C14 Ag1 N3 22.8(7) . 2_566 ?
C15 Ag1 N3 95.6(8) . 2_566 ?
C15 Ag1 N3 84.4(8) 2_666 2_566 ?
C14 Ag1 N3 22.8(7) 2_666 1_655 ?
C14 Ag1 N3 157.2(7) . 1_655 ?
C15 Ag1 N3 84.4(8) . 1_655 ?
C15 Ag1 N3 95.6(8) 2_666 1_655 ?
N3 Ag1 N3 180.0(9) 2_566 1_655 ?
N3 C14 N3 41(2) 2_566 . ?
N3 C14 Ag1 113(2) 2_566 . ?
N3 C14 Ag1 151(2) . . ?
N3 C14 C14 21.8(12) 2_566 2_566 ?
N3 C14 C14 18.9(10) . 2_566 ?
Ag1 C14 C14 134.2(19) . 2_566 ?
N4 C15 N4 33(3) 2_656 . ?
N4 C15 Ag1 153(3) 2_656 . ?
N4 C15 Ag1 174(2) . . ?
N4 C15 C15 18.7(15) 2_656 2_656 ?
N4 C15 C15 14.1(12) . 2_656 ?
Ag1 C15 C15 172(2) . 2_656 ?
N3 N3 C14 80(3) 2_566 2_566 ?
N3 N3 C14 59(2) 2_566 . ?
C14 N3 C14 139(2) 2_566 . ?
N3 N3 Ag1 122(4) 2_566 1_455 ?
C14 N3 Ag1 44(2) 2_566 1_455 ?
C14 N3 Ag1 169.2(16) . 1_455 ?
N4 N4 C15 98(5) 2_656 2_656 ?
N4 N4 C15 49(3) 2_656 . ?
C15 N4 C15 147(3) 2_656 . ?
loop_
_geom_bond_atom_site_label_1
_geom_bond_atom_site_label_2
_geom_bond_distance
_geom_bond_site_symmetry_2
_geom_bond_publ_flag
S5 C7 1.741(5) . ?
S5 C6 1.741(5) . ?
S3 C5 1.733(5) . ?
S3 C3 1.748(5) . ?
S6 C6 1.747(5) . ?
S6 C8 1.753(5) . ?
S4 C4 1.748(5) . ?
S4 C5 1.753(5) . ?
S1 C3 1.730(5) . ?
S1 C1 1.772(6) . ?
S2 C4 1.740(5) . ?
S2 C2 1.826(7) . ?
N1 C13 1.146(6) . ?
C1 C2 1.437(8) . ?
C1 H1A 0.9900 . ?
C1 H1B 0.9900 . ?
C2 H2A 0.9900 . ?
C2 H2B 0.9900 . ?
C3 C4 1.352(7) . ?
C5 C6 1.352(6) . ?
C7 C9 1.391(6) . ?
C7 C8 1.399(6) . ?
C8 C10 1.373(6) . ?
C9 C11 1.367(6) . ?
C9 H9 0.9500 . ?
C10 C12 1.380(6) . ?
C10 H10 0.9500 . ?
C11 C12 1.384(7) . ?
C11 H11 0.9500 . ?
C12 C13 1.430(7) . ?
Ag1 C14 1.73(2) 2_666 ?
Ag1 C14 1.73(2) . ?
Ag1 C15 1.934(18) . ?
Ag1 C15 1.934(18) 2_666 ?
Ag1 N3 2.29(2) 2_566 ?
Ag1 N3 2.29(2) 1_655 ?
C14 N3 0.96(3) 2_566 ?
C14 N3 1.108(17) . ?
C14 C14 1.94(3) 2_566 ?
C15 N4 0.89(3) 2_656 ?
C15 N4 1.164(18) . ?
C15 C15 1.97(4) 2_656 ?
N3 N3 0.73(3) 2_566 ?
N3 C14 0.96(3) 2_566 ?
N3 Ag1 2.29(2) 1_455 ?
N4 N4 0.64(4) 2_656 ?
N4 C15 0.89(3) 2_656 ?
