#------------------------------------------------------------------------------
#$Date: 2022-02-04 21:20:46 +0200 (Fri, 04 Feb 2022) $
#$Revision: 272618 $
#$URL: file:///home/coder/svn-repositories/cod/cif/7/24/41/7244139.cif $
#------------------------------------------------------------------------------
#
# This file is available in the Crystallography Open Database (COD),
# http://www.crystallography.net/
#
# All data on this site have been placed in the public domain by the
# contributors.
#
data_7244139
loop_
_publ_author_name
'Park, Jiwon'
'Koo, Jin Young'
'Choi, Hee Cheul'
_publ_section_title
;
 The solvent influenced coordination variation of flexible ligands to
 Y(iii) towards MOF structural diversity
;
_journal_issue                   4
_journal_name_full               CrystEngComm
_journal_page_first              846
_journal_page_last               853
_journal_paper_doi               10.1039/D1CE01429C
_journal_volume                  24
_journal_year                    2022
_chemical_formula_sum            'C12 H13 N O7 Y'
_chemical_formula_weight         372.14
_space_group_crystal_system      triclinic
_space_group_IT_number           2
_space_group_name_Hall           '-P 1'
_space_group_name_H-M_alt        'P -1'
_atom_sites_solution_hydrogens   geom
_audit_creation_method           SHELXL-2018/3
_audit_update_record
;
2021-12-10 deposited with the CCDC.	2021-12-20 downloaded from the CCDC.
;
_cell_angle_alpha                115.76(3)
_cell_angle_beta                 105.96(3)
_cell_angle_gamma                95.18(3)
_cell_formula_units_Z            2
_cell_length_a                   7.6350(15)
_cell_length_b                   10.112(2)
_cell_length_c                   11.216(2)
_cell_measurement_reflns_used    8711
_cell_measurement_temperature    100(2)
_cell_measurement_theta_max      33.749
_cell_measurement_theta_min      0.401
_cell_volume                     727.5(4)
_computing_cell_refinement       'HKL3000sm (Otwinowski & Minor, 1997)'
_computing_data_collection       'PAL BL2D-SMDC Program (Shin et. al, 2016)'
_computing_data_reduction        'HKL3000sm (Otwinowski & Minor, 1997)'
_computing_structure_refinement  'SHELXL-2018/3 (Sheldrick, 2018)'
_computing_structure_solution    'SHELXT 2014/5 (Sheldrick, 2014)'
_diffrn_ambient_temperature      100(2)
_diffrn_measured_fraction_theta_full 0.914
_diffrn_measured_fraction_theta_max 0.729
_diffrn_measurement_device_type  'Rayonix MX225HS CCD area detector'
_diffrn_measurement_method       'omega scan'
_diffrn_radiation_type           synchrotron
_diffrn_radiation_wavelength     0.700
_diffrn_reflns_av_R_equivalents  0.0206
_diffrn_reflns_av_unetI/netI     0.0329
_diffrn_reflns_Laue_measured_fraction_full 0.914
_diffrn_reflns_Laue_measured_fraction_max 0.729
_diffrn_reflns_limit_h_max       11
_diffrn_reflns_limit_h_min       -11
_diffrn_reflns_limit_k_max       14
_diffrn_reflns_limit_k_min       -14
_diffrn_reflns_limit_l_max       16
_diffrn_reflns_limit_l_min       -16
_diffrn_reflns_number            7014
_diffrn_reflns_point_group_measured_fraction_full 0.914
_diffrn_reflns_point_group_measured_fraction_max 0.729
_diffrn_reflns_theta_full        24.835
_diffrn_reflns_theta_max         33.348
_diffrn_reflns_theta_min         2.817
_diffrn_source                   'PLSII 2D bending magnet'
_exptl_absorpt_coefficient_mu    3.924
_exptl_absorpt_correction_T_max  1.000
_exptl_absorpt_correction_T_min  0.945
_exptl_absorpt_correction_type   empirical
_exptl_absorpt_process_details   'HKL3000sm Scalepack(Otwinowski et.al,2003)'
_exptl_crystal_colour            colorless
_exptl_crystal_density_diffrn    1.699
_exptl_crystal_description       'blunt rod'
_exptl_crystal_F_000             374
_exptl_crystal_size_max          0.048
_exptl_crystal_size_mid          0.005
_exptl_crystal_size_min          0.005
_refine_diff_density_max         1.254
_refine_diff_density_min         -2.627
_refine_diff_density_rms         0.169
_refine_ls_extinction_method     none
_refine_ls_goodness_of_fit_ref   1.185
_refine_ls_hydrogen_treatment    constr
_refine_ls_matrix_type           full
_refine_ls_number_parameters     225
_refine_ls_number_reflns         4293
_refine_ls_number_restraints     0
_refine_ls_restrained_S_all      1.185
_refine_ls_R_factor_all          0.0570
_refine_ls_R_factor_gt           0.0558
_refine_ls_shift/su_max          0.002
_refine_ls_shift/su_mean         0.000
_refine_ls_structure_factor_coef Fsqd
_refine_ls_weighting_details
'w=1/[\s^2^(Fo^2^)+(0.1161P)^2^+0.3779P] where P=(Fo^2^+2Fc^2^)/3'
_refine_ls_weighting_scheme      calc
_refine_ls_wR_factor_gt          0.1578
_refine_ls_wR_factor_ref         0.1591
_reflns_Friedel_coverage         0.000
_reflns_number_gt                4102
_reflns_number_total             4293
_reflns_threshold_expression     'I > 2\s(I)'
_cod_data_source_file            d1ce01429c2.cif
_cod_data_source_block           2
_cod_depositor_comments
'Adding full bibliography for 7244137--7244142.cif.'
_cod_original_cell_volume        727.5(3)
_cod_database_code               7244139
_shelx_shelxl_version_number     2018/3
_shelx_space_group_comment
;
The symmetry employed for this shelxl refinement is uniquely defined
by the following loop, which should always be used as a source of
symmetry information in preference to the above space-group names.
They are only intended as comments.
;
_shelx_estimated_absorpt_t_min   0.834
_shelx_estimated_absorpt_t_max   0.981
_shelx_res_file
;
TITL p-1_a_a.res in P-1
    2.res
    created by SHELXL-2018/3 at 15:46:53 on 12-Nov-2021
REM Old TITL p-1_a.res in P-1
REM SHELXT solution in P-1
REM R1 0.106, Rweak 0.011, Alpha 0.050, Orientation as input
REM Formula found by SHELXT: C12 N O7 Y
CELL 0.7 7.635 10.112 11.216 115.757 105.96 95.181
ZERR 2 0.0015 0.002 0.0022 0.03 0.03 0.03
LATT 1
SFAC C H N O Y
DISP C 0.0033 0.0016 10.9795
DISP H 0 0 0.6234
DISP N 0.0064 0.0033 18.7053
DISP O 0.011 0.006 30.8165
DISP Y -2.2915 3.4598 13899.7376
UNIT 24 26 2 14 2
SIZE 0.048 0.005 0.005
L.S. 10
PLAN 10
TEMP -173.15
EADP C2SA C2SB
CONF
LIST 6
acta
WGHT    0.116100    0.377900
FVAR       0.87018   0.77553
MOLE 1
O1SA  4    0.525143    0.209162    0.927332    11.00000    0.02207    0.03589 =
         0.02107    0.01461    0.00754    0.00697
PART 1
N1SA  3    0.341489   -0.027591    0.799285    21.00000    0.02668    0.03996 =
         0.03971    0.01639    0.00905    0.00856
C1SA  1    0.473181    0.085115    0.824176    21.00000    0.02500    0.03806 =
         0.02899    0.01196    0.01059    0.01281
AFIX  43
H1SA  2    0.531551    0.067328    0.755753    21.00000   -1.20000
AFIX   0
C2SA  1    0.289039   -0.173286    0.672167    21.00000    0.04432    0.04205 =
         0.05601    0.01055    0.01281    0.00385
AFIX 137
H2SA  2    0.153901   -0.198895    0.620391    21.00000   -1.50000
H2SB  2    0.319528   -0.251310    0.698393    21.00000   -1.50000
H2SC  2    0.358365   -0.167774    0.612110    21.00000   -1.50000
AFIX   0
C3SA  1    0.238676   -0.005209    0.895176    21.00000    0.03349    0.05333 =
         0.04375    0.02957    0.01681    0.01117
AFIX 137
H3SA  2    0.104239   -0.026629    0.843408    21.00000   -1.50000
H3SB  2    0.282215    0.099792    0.971489    21.00000   -1.50000
H3SC  2    0.260192   -0.073688    0.935343    21.00000   -1.50000
AFIX   0
PART -1
REM SAME N1SA > C3SA
N1SB  3    0.302752    0.028458    0.897175   -21.00000    0.02484    0.04654 =
         0.03951    0.02300    0.01515    0.00557
C1SB  1    0.394675    0.165977    0.954364   -21.00000    0.02253    0.03534 =
         0.01641    0.00614    0.00974    0.00087
AFIX  43
H1SB  2    0.357824    0.240558    1.023774   -21.00000   -1.20000
AFIX   0
C2SB  1    0.331378   -0.106299    0.789344   -21.00000    0.04432    0.04205 =
         0.05601    0.01055    0.01281    0.00385
AFIX 137
H2SD  2    0.237144   -0.136357    0.696967   -21.00000   -1.50000
H2SE  2    0.318947   -0.188935    0.812351   -21.00000   -1.50000
H2SF  2    0.457245   -0.084004    0.786380   -21.00000   -1.50000
AFIX   0
C3SB  1    0.140689   -0.006262    0.942810   -21.00000    0.04540    0.04583 =
         0.04060    0.01942    0.02152    0.02049
AFIX 137
H3SD  2    0.027232   -0.065457    0.859143   -21.00000   -1.50000
H3SE  2    0.117625    0.088770    1.005519   -21.00000   -1.50000
H3SF  2    0.173434   -0.064331    0.992988   -21.00000   -1.50000
AFIX   0
PART 0

MOLE 2
Y1    5    0.735394    0.427099    0.982579    11.00000    0.01559    0.03063 =
         0.00454    0.00855    0.00555    0.01168
MOLE 3
O1A   4    0.887940    0.542756    0.892763    11.00000    0.02925    0.03736 =
         0.00884    0.01188    0.00976    0.01176
O2A   4    1.109216    0.627006    0.834891    11.00000    0.02016    0.03926 =
         0.01133    0.01480    0.00700    0.01460
O3A   4    0.457686    0.685167    0.277873    11.00000    0.02706    0.04291 =
         0.00874    0.01022    0.00510    0.01869
O4A   4    0.538622    0.501918    0.123385    11.00000    0.01838    0.04219 =
         0.00537    0.01007    0.00539    0.01340
C1A   1    0.939366    0.595037    0.821215    11.00000    0.02048    0.03494 =
         0.00645    0.00992    0.00533    0.01286
C2A   1    0.794747    0.618238    0.717897    11.00000    0.02111    0.04191 =
         0.01097    0.01418    0.00661    0.01324
AFIX  43
H2A   2    0.681388    0.637500    0.733600    11.00000   -1.20000
AFIX   0
C3A   1    0.821364    0.612473    0.602654    11.00000    0.02067    0.03727 =
         0.00947    0.01221    0.00577    0.01220
AFIX  43
H3A   2    0.939157    0.598951    0.592945    11.00000   -1.20000
AFIX   0
C4A   1    0.685436    0.625157    0.491960    11.00000    0.02042    0.04086 =
         0.00940    0.01269    0.00570    0.01395
AFIX  43
H4A   2    0.578178    0.659532    0.508104    11.00000   -1.20000
AFIX   0
C5A   1    0.705144    0.590205    0.367376    11.00000    0.02062    0.04236 =
         0.00995    0.01385    0.00602    0.01557
AFIX  43
H5A   2    0.815416    0.560912    0.352710    11.00000   -1.20000
AFIX   0
C6A   1    0.560056    0.595868    0.251735    11.00000    0.01912    0.03498 =
         0.00617    0.00889    0.00486    0.00980
O1B   4    0.854387    0.233347    0.852650    11.00000    0.02483    0.03576 =
         0.01241    0.00916    0.01154    0.01544
O2B   4    1.118367    0.326336    0.832879    11.00000    0.02366    0.03411 =
         0.01075    0.00687    0.00981    0.01279
C1B   1    0.969414    0.228556    0.789761    11.00000    0.02533    0.02682 =
         0.00896    0.00507    0.00820    0.01197
C2B   1    0.919109    0.090772    0.649713    11.00000    0.03348    0.03124 =
         0.01494    0.00504    0.01342    0.01021
AFIX  43
H2B   2    0.805367    0.017752    0.615806    11.00000   -1.20000
AFIX   0
C3B   1    1.026946    0.065134    0.569400    11.00000    0.03472    0.03229 =
         0.01549    0.00452    0.01392    0.00970
AFIX  43
H3B   2    1.143697    0.135494    0.605156    11.00000   -1.20000
AFIX   0
HKLF 4




REM  p-1_a_a.res in P-1
REM wR2 = 0.1591, GooF = S = 1.185, Restrained GooF = 1.185 for all data
REM R1 = 0.0558 for 4102 Fo > 4sig(Fo) and 0.0570 for all 4293 data
REM 225 parameters refined using 0 restraints

END

WGHT      0.1166      0.3620

REM Highest difference peak  1.254,  deepest hole -2.627,  1-sigma level  0.169
Q1    1   0.8362  0.3994  1.0438  11.00000  0.05    1.25
Q2    1   0.6348  0.4673  0.9236  11.00000  0.05    1.11
Q3    1   0.8605  0.3771  0.9570  11.00000  0.05    1.09
Q4    1   0.6362  0.3621  0.8713  11.00000  0.05    1.08
Q5    1   0.8401  0.4823  1.0874  11.00000  0.05    1.07
Q6    1   0.6816  0.4642  1.0707  11.00000  0.05    1.06
Q7    1   0.5947  0.4052  0.9157  11.00000  0.05    0.94
Q8    1   0.6875  0.5154  1.0401  11.00000  0.05    0.87
Q9    1   0.6025  0.4769  0.9848  11.00000  0.05    0.82
Q10   1   0.6223  0.3009  0.9415  11.00000  0.05    0.82
;
_shelx_res_checksum              43456
_shelx_hkl_file
;
   0   0   2  190.88    7.75
   0   0  -2  193.06    5.81
   0   0   3   52.16    2.15
   0   0  -3   51.98    2.16
   0   0   4   86.96    3.27
   0   0  -4   88.08    4.53
   0   0   5  877.07   34.26
   0   0   6 1139.22   43.20
   0   0  -6 1203.32   41.37
   0   0   7  856.83   22.41
   0   0  -7  838.28   31.87
   0   0   8  567.87   14.55
   0   0  -8  570.19   22.04
   0   0   9   25.70    1.54
   0   0  10  178.97    6.51
   0   0 -10  176.46    7.77
   0   0  11  264.27    8.01
   0   0 -11  275.09   12.98
   0   0  12   73.40    4.29
   0   0 -12   71.67    5.20
   0   0  13   11.03    2.29
   0   0 -13    8.44    2.82
   0   1 -13   35.06    3.22
   0  -1  13   33.21    2.90
   0   1 -12  241.18   10.37
   0  -1  12  247.03   10.48
   0  -1  11  310.17    9.43
   0  -1  10  509.61   15.22
   0  -1   9  531.16   15.38
   0  -1   8 1879.12   65.99
   0  -1   7 2060.77   51.99
   0   1  -6 1686.44   42.49
   0  -1   6 1695.87   60.48
   0   1  -5 1113.05   42.16
   0  -1   4 1386.35   48.49
   0   1  -3 1297.08   43.86
   0  -1   3 1355.44   34.14
   0   1  -2 3679.97  136.33
   0   1   1  471.73   16.16
   0  -1  -1  503.60   21.15
   0   1   2  100.50    3.02
   0   1   3  226.63    9.15
   0  -1  -3  223.07    8.75
   0   1   4  329.49    9.20
   0  -1  -4  323.30   12.62
   0   1   5   37.64    1.45
   0  -1  -5   42.26    2.51
   0   1   6  265.35   11.17
   0  -1  -6  256.94    9.46
   0   1   7  334.91    8.87
   0   1   8  381.77   16.04
   0  -1  -8  390.42   16.89
   0   1   9  102.21    4.23
   0   1  10   45.22    2.51
   0  -1 -10   45.15    3.57
   0   1  11   25.85    1.80
   0   1  12   15.16    2.43
   0  -1 -12   13.41    2.48
   0   1  13   15.68    3.18
   0  -1 -13   10.52    4.44
   0  -2  14  107.36    5.28
   0   2 -13  140.57    8.20
   0  -2  13  138.21    7.91
   0  -2  12  404.38   11.95
   0   2 -11  995.46   43.47
   0  -2  11  973.85   26.68
   0  -2  10 1327.66   50.96
   0   2  -9 3085.41  105.55
   0   2  -8 1511.30   53.37
   0  -2   8 1512.72   39.19
   0   2  -7 1019.12   36.62
   0  -2   7 1035.85   27.11
   0   2  -6  817.41   21.37
   0  -2   6  839.92   21.93
   0  -2   5 1953.92   65.71
   0   2  -4  934.88   34.04
   0  -2   4  921.16   23.96
   0  -2   3   80.18    3.84
   0   2  -2 1292.04   44.65
   0  -2   2 1368.48   49.94
   0   2  -1  504.00   17.37
   0   2   0 2018.39   73.64
   0  -2   0 2648.06  110.65
   0   2   1 1540.19   53.28
   0  -2  -1 1613.73   61.62
   0   2   2 1605.09   58.86
   0  -2  -2 1574.75   57.06
   0   2   3  789.06   20.03
   0  -2  -3  826.75   31.17
   0   2   4  132.29    4.09
   0  -2  -4  121.81    5.30
   0   2   5   12.57    0.80
   0   2   6   17.29    1.09
   0   2   7    3.25    1.09
   0  -2  -7    2.11    1.41
   0   2   8   22.24    1.64
   0  -2  -8   26.77    2.40
   0   2   9   46.09    3.15
   0  -2  -9   41.69    3.41
   0   2  10   35.85    2.16
   0   2  11  104.10    4.60
   0   2  12  129.52    5.12
   0  -2 -12  132.68    7.90
   0   3 -14  506.94   23.65
   0  -3  14  536.92   24.01
   0   3 -13  615.87   24.79
   0  -3  13  635.60   18.27
   0  -3  12  602.13   16.87
   0  -3  11  294.33   13.56
   0   3 -10 1153.36   41.82
   0  -3  10 1152.54   32.62
   0   3  -9 3484.22  116.09
   0  -3   9 3647.39   91.44
   0   3  -8  650.89   19.13
   0  -3   8  635.18   18.36
   0   3  -7  371.28   14.12
   0  -3   7  371.67   14.31
   0   3  -6  683.25   26.65
   0  -3   6  701.03   18.35
   0   3  -5  469.57   18.22
   0  -3   5  467.60   13.09
   0   3  -4  232.10    6.85
   0  -3   4  237.37    7.07
   0  -3   3 1319.44   47.19
   0  -3   2   78.31    2.92
   0   3  -1   21.58    1.01
   0  -3   1   21.51    1.03
   0   3   0  125.83    5.15
   0  -3   0  127.45    5.07
   0   3   1 1418.12   49.04
   0  -3  -1 1487.76   52.93
   0   3   2 2507.06   87.33
   0  -3  -2 2356.20   84.14
   0   3   3   34.46    1.97
   0  -3  -3   39.15    2.36
   0   3   4  618.03   16.67
   0  -3  -4  594.95   21.43
   0   3   5  428.43   16.10
   0  -3  -5  432.91   16.14
   0   3   6  414.75   11.91
   0  -3  -6  407.79   14.75
   0   3   7  318.72    9.13
   0  -3  -7  310.03   12.19
   0   3   8   49.84    2.29
   0  -3  -8   51.04    3.22
   0   3   9  122.27    6.61
   0  -3  -9  118.06    5.83
   0   3  10  370.30   14.77
   0   3  11  253.60    8.32
   0   3  12  436.02   14.00
   0   4 -14  786.32   33.44
   0  -4  14  795.54   22.68
   0  -4  13  343.23   10.65
   0   4 -12   33.73    3.35
   0  -4  12   30.96    2.20
   0   4 -11  252.99   11.82
   0  -4  11  256.70    8.18
   0   4 -10  810.17   32.14
   0  -4  10  840.56   22.98
   0  -4   9 2327.94   56.52
   0   4  -8  160.86    9.19
   0  -4   8  169.77    5.81
   0   4  -7  195.63    5.86
   0  -4   7  194.85    6.13
   0   4  -6  255.48   10.33
   0  -4   6  258.81   10.90
   0  -4   5   42.92    1.81
   0  -4   4    7.69    1.07
   0  -4   3   92.81    4.27
   0  -4   2  210.90    8.09
   0   4  -1   64.17    2.60
   0   4   0  337.62   12.34
   0  -4   0  343.78   12.86
   0   4   1  587.08   22.98
   0  -4  -1  601.12   24.13
   0   4   2  191.93    7.48
   0  -4  -2  197.91    8.69
   0   4   3  555.31   14.89
   0  -4  -3  556.27   19.80
   0   4   4  916.12   31.91
   0   4   5  950.19   23.34
   0  -4  -5  963.55   35.21
   0   4   6 1052.41   25.93
   0   4   7  293.00    9.43
   0   4   8  225.86    7.20
   0   4   9  136.53    4.84
   0   4  10  313.52    9.24
   0  -4 -10  299.73   12.22
   0   4  11  411.78   16.38
   0  -4 -11  401.98   15.69
   0   5 -15  500.27   15.28
   0  -5  15  508.29   14.70
   0  -5  14  481.80   20.59
   0   5 -13   43.65    4.05
   0  -5  13   39.70    2.52
   0   5 -12   39.72    2.35
   0  -5  12   40.71    2.37
   0   5 -11   40.64    2.23
   0  -5  11   42.47    2.44
   0  -5  10  117.04    6.56
   0  -5   9  436.45   12.15
   0   5  -8  174.52    5.67
   0  -5   8  157.48    4.78
   0  -5   7  328.46    9.24
   0  -5   6   25.94    1.25
   0   5  -5  331.25   12.81
   0  -5   5  331.18   12.65
   0  -5   4  302.02   12.00
   0   5  -2  647.00   22.91
   0  -5   2  687.32   24.41
   0  -5   1  202.03    7.69
   0   5   0 1745.04   58.35
   0  -5   0 1837.07   61.93
   0   5   1 1038.03   37.92
   0   5   2  392.19   15.29
   0   5   3  585.91   20.63
   0   5   4  451.02   17.46
   0   5   5  422.18   16.03
   0  -5  -5  490.94   20.03
   0   5   6  498.00   12.90
   0   5   7  294.47    8.26
   0   5   8  466.42   13.29
   0   5   9  148.74    5.27
   0   5  10  299.69    9.78
   0   5  11   62.93    3.93
   0   6 -15  160.69    9.39
   0  -6  15  149.53    6.30
   0   6 -14   46.58    4.02
   0  -6  14   45.05    3.03
   0  -6  13   34.59    2.03
   0  -6  12    6.71    1.26
   0  -6  11    3.54    1.06
   0   6 -10   33.53    2.70
   0  -6  10   28.13    1.56
   0   6  -9   31.04    1.74
   0  -6   9   32.75    1.65
   0  -6   8   71.47    2.36
   0  -6   7    9.31    1.15
   0  -6   6  251.98   10.78
   0  -6   4  970.73   34.18
   0   6  -3 1800.25   59.77
   0  -6   3 1853.27   62.57
   0   6  -2 1104.60   36.05
   0  -6   2 1168.86   37.70
   0  -6   1  213.28    7.93
   0   6   0 1050.52   37.88
   0  -6   0 1035.08   35.77
   0   6   1  637.78   23.62
   0  -6  -1  598.54   21.65
   0   6   2  334.93   13.19
   0  -6  -2  328.29   13.43
   0   6   3  290.03   11.45
   0   6   4  348.38    9.34
   0  -6  -4  347.75   13.53
   0   6   5  606.34   22.19
   0   6   6  423.92   15.55
   0   6   7  300.40   12.07
   0   6   8  435.86   17.34
   0  -6  -8  467.26   18.39
   0   6   9  139.63    6.97
   0  -6  -9  140.78    7.16
   0   6  10   13.84    3.03
   0   7 -15   11.91    4.28
   0  -7  15   10.68    2.31
   0   7 -14   50.89    3.35
   0  -7  14   46.57    3.03
   0  -7  13    4.80    1.35
   0   7 -12   31.92    3.03
   0  -7  12   26.84    2.24
   0   7 -11  358.57   14.29
   0  -7  11  324.81   13.37
   0   7 -10  699.40   19.06
   0  -7  10  674.76   17.56
   0  -7   9  734.52   19.86
   0   7  -8   30.65    1.93
   0  -7   8   28.19    1.37
   0  -7   7  163.72    6.53
   0  -7   6  461.21   12.65
   0  -7   4 1224.17   44.14
   0  -7   2  777.25   26.17
   0   7  -1  593.02   20.67
   0  -7   1  595.41   21.19
   0   7   0  161.23    6.51
   0  -7   0  161.78    6.20
   0   7   1  461.27   17.01
   0  -7  -1  491.47   18.66
   0   7   2  492.89   18.71
   0   7   3  680.49   24.22
   0  -7  -3  640.77   24.61
   0   7   4  330.13   13.14
   0   7   5  315.89   13.08
   0   7   7  132.24    5.67
   0  -7  -7  134.05    7.08
   0   7   8  280.07   10.76
   0  -7  -8  287.52   11.56
   0   7   9    4.20    2.17
   0   8 -15    6.83    3.90
   0  -8  15    7.19    2.48
   0  -8  14  177.27    7.95
   0   8 -13  203.73    9.08
   0  -8  13  220.31    6.96
   0   8 -12  457.35   19.09
   0  -8  12  462.54   19.36
   0  -8  11  803.02   28.60
   0  -8  10  451.64   12.50
   0  -8   9  900.20   22.23
   0  -8   8  120.79    5.54
   0  -8   7  142.54    5.75
   0  -8   6  241.58    6.95
   0  -8   5 1094.73   38.46
   0  -8   4 1315.03   44.64
   0  -8   3 1211.32   41.15
   0  -8   2  335.68   12.69
   0   8   1  592.66   21.31
   0   8   2  376.40   14.14
   0   8   3  321.50   11.39
   0   8   4   43.31    2.24
   0   8   5   18.20    1.64
   0   8   6   36.32    2.52
   0   8   7   83.36    4.02
   0   8   8   -1.58    2.15
   0   9 -15  220.61   11.59
   0  -9  15  235.44    7.04
   0   9 -14  512.20   21.47
   0  -9  14  521.14   14.23
   0  -9  13  495.95   19.97
   0  -9  12  715.47   26.93
   0  -9  11  467.17   13.39
   0  -9  10  269.93    9.89
   0  -9   9  642.87   22.48
   0  -9   7  246.29    7.02
   0  -9   6  491.69   12.82
   0  -9   5  378.40    9.99
   0  -9   3  254.25    9.50
   0   9   0   97.15    4.23
   0   9   1   59.11    2.71
   0   9   2   30.56    2.03
   0   9   3    3.00    1.01
   0   9   4    0.48    0.95
   0   9   5    0.38    1.37
   0   9   6   -0.40    1.50
   0  10 -15  285.73   12.62
   0 -10  15  272.15    8.77
   0 -10  14  534.74   19.74
   0 -10  13  429.36   16.27
   0 -10  12  341.37   10.23
   0 -10  11  207.77    6.26
   0 -10  10  215.71    8.71
   0 -10   9  542.29   14.42
   0 -10   8  477.95   16.57
   0 -10   7  273.82   11.33
   0 -10   6  181.79    6.95
   0 -10   5   74.87    3.35
   0  10   2    0.74    0.89
   0  10   3    7.47    1.30
   0  10   4    7.20    1.19
   0  10   5    3.22    1.48
   0 -11  15  112.38    4.67
   0 -11  14  191.20    5.79
   0 -11  13  192.01    5.83
   0 -11  12  368.96    9.63
   0 -11  11  181.41    5.81
   0 -11  10  214.81    6.56
   0 -11   9  137.23    5.94
   0 -11   8  189.78    8.61
   0 -11   7   33.57    1.41
   0 -11   6   44.08    1.78
   0 -12  15   49.35    3.15
   0 -12  14  101.99    6.37
   0 -12  13  163.87    5.18
   0 -12  12   62.59    4.68
   0 -12  11   34.45    1.80
   0 -12  10   58.27    2.37
   0 -12   9    1.58    0.89
   0 -12   8   -0.12    0.76
   0 -12   7    0.79    0.59
   0 -13  14    2.36    2.41
   0 -13  13    1.58    1.64
   0 -13  12    0.62    1.73
   0 -13  11    1.62    1.25
   0 -13   8   20.79    1.15
   0 -14  10    4.01    0.90
   1 -14   8    4.23    0.86
   1 -14   9   27.39    1.82
   1 -14  10   26.44    1.76
   1 -14  11   34.46    3.49
   1 -13   6   58.98    2.94
   1 -13   8  122.03    5.41
   1 -13   9  121.51    3.78
   1 -13  10  112.19    5.73
   1 -13  11  105.71    5.31
   1 -13  12  128.22    4.57
   1 -13  13  157.48    7.19
   1 -13  14   39.97    3.86
   1 -12   4  114.58    4.79
   1 -12   5  203.89    9.39
   1 -12   6  162.50    7.03
   1 -12   7  315.10   11.47
   1 -12   8  313.04   12.50
   1 -12   9  268.80   11.00
   1 -12  10  167.88    5.15
   1 -12  11  151.45    4.71
   1 -12  12   86.94    3.31
   1 -12  13  108.42    4.18
   1 -12  14    7.42    1.74
   1 -12  15   16.12    5.10
  -1  11   3  112.74    5.45
  -1  11   1   46.18    2.37
   1 -11   2  334.46   14.46
   1 -11   4  183.53    7.43
   1 -11   5   57.39    2.95
   1 -11   6   48.03    2.27
   1 -11   8  718.45   27.60
   1 -11   9  155.97    7.15
   1 -11  10  106.42    4.87
   1 -11  11   36.85    2.70
   1 -11  12    7.79    1.78
   1 -11  13   30.23    2.48
   1 -11  14   18.35    2.44
   1 -11  15   42.90    6.68
  -1  10   5   77.96    4.55
  -1  10   4  320.28   12.80
  -1  10   3  136.65    6.05
  -1  10   2  140.76    6.57
   1 -10  -1  256.90   11.36
  -1  10   1  278.36   11.50
   1 -10   0  600.88   23.89
   1 -10   2  456.76   17.54
  -1  10  -2  463.79   18.23
   1 -10   3   93.99    4.49
   1 -10   4   94.75    4.31
   1 -10   5   11.05    1.17
  -1  10  -5   12.88    1.29
   1 -10   6   60.96    3.15
   1 -10   7  471.63   12.10
  -1  10  -7  494.38   18.36
   1 -10   8  400.66   15.57
   1 -10   9   28.76    1.76
   1 -10  10   61.34    2.35
  -1  10 -10   62.22    3.55
   1 -10  12   62.72    3.86
  -1  10 -12   68.37    4.29
   1 -10  13    4.67    1.69
   1 -10  14    2.20    2.21
  -1  10 -14   -1.44    2.96
   1 -10  15    4.28    2.66
  -1  10 -15    0.87    2.82
  -1   9   7   72.02    3.73
  -1   9   6  173.98    5.18
  -1   9   5  101.67    5.26
   1  -9  -4  257.84   10.44
  -1   9   4  271.87   10.77
  -1   9   3  170.76    6.63
  -1   9   2  414.02   14.67
   1  -9  -1  478.07   17.33
   1  -9   0  294.67   11.84
   1  -9   1  130.56    5.74
  -1   9  -1  129.01    5.49
   1  -9   2  122.90    5.38
   1  -9   3  257.45   10.53
  -1   9  -3  239.57    8.57
   1  -9   4   89.06    3.86
   1  -9   5   18.47    1.27
  -1   9  -5   19.13    1.50
   1  -9   6   15.41    1.19
   1  -9   7   -0.51    0.93
   1  -9   8  117.50    3.61
  -1   9  -8  119.70    5.15
   1  -9   9   11.41    1.21
   1  -9  10    1.33    1.02
  -1   9 -10    0.93    1.97
   1  -9  11  110.77    4.04
   1  -9  12  165.32    5.59
  -1   9 -12  166.66    5.67
   1  -9  13  231.43    7.28
  -1   9 -13  233.05    7.78
   1  -9  14  127.32    4.90
  -1   9 -14  120.49    7.30
   1  -9  15  111.97    4.31
  -1   8   8   76.51    3.14
  -1   8   7  216.89    8.95
  -1   8   6  244.25   10.29
  -1   8   5  131.21    6.69
   1  -8  -4   91.54    4.79
  -1   8   4   93.03    4.04
   1  -8  -3   48.11    2.80
  -1   8   3   43.39    2.78
   1  -8  -2  402.76   16.57
  -1   8   2  389.02   14.61
   1  -8  -1  227.59    9.87
  -1   8   1  244.62    9.64
   1  -8   0   15.40    1.23
  -1   8   0   20.40    1.27
   1  -8   1   30.21    1.66
   1  -8   2  104.97    4.39
  -1   8  -2  106.72    4.71
   1  -8   3    0.83    0.55
   1  -8   4    8.92    0.78
  -1   8  -4    8.83    1.05
   1  -8   5   28.84    1.74
  -1   8  -5   29.13    2.03
   1  -8   6   50.78    2.64
   1  -8   7   83.56    4.10
  -1   8  -7   75.52    4.23
   1  -8   8   39.74    2.54
   1  -8   9   23.02    1.45
  -1   8  -9   24.32    2.08
   1  -8  10  130.98    6.71
   1  -8  11  409.89   11.95
  -1   8 -11  431.18   17.93
   1  -8  12  436.38   11.87
   1  -8  13  917.74   31.31
   1  -8  14  542.75   20.56
   1  -8  15  334.83    9.68
  -1   7  10   31.25    4.87
  -1   7   9  100.97    3.73
  -1   7   8  232.38   11.12
   1  -7  -7  283.90   12.33
  -1   7   7  285.79   11.11
   1  -7  -6  195.05    8.34
  -1   7   6  198.50    8.18
  -1   7   5   14.77    1.72
   1  -7  -4   57.68    3.74
  -1   7   4   83.01    4.14
   1  -7  -3    8.52    1.33
  -1   7   3   16.43    1.46
  -1   7   2  175.90    6.69
   1  -7  -1  244.31   10.25
  -1   7   1  236.03   10.52
   1  -7   0   27.48    1.52
  -1   7   0   31.35    1.70
   1  -7   1  239.17    9.31
  -1   7  -1  271.60   10.33
   1  -7   2    2.15    0.55
  -1   7  -2    2.29    0.62
   1  -7   3  292.82   11.17
   1  -7   4   51.09    2.64
   1  -7   5  576.93   15.13
  -1   7  -5  598.48   22.19
   1  -7   6  457.40   17.88
   1  -7   7 1017.12   36.82
  -1   7  -7  964.27   35.44
   1  -7   8  756.97   27.67
  -1   7  -8  908.07   23.45
   1  -7   9  256.93   10.95
   1  -7  10  396.08   16.30
  -1   7 -10  412.56   15.95
   1  -7  11  413.19   11.62
   1  -7  12  465.83   12.11
  -1   7 -12  460.61   13.17
   1  -7  14  981.25   42.86
  -1   6   9  210.18    6.95
  -1   6   8   65.67    4.12
   1  -6  -7  189.15    8.49
  -1   6   7  188.13    7.82
   1  -6  -6   54.74    3.35
  -1   6   6   51.90    2.78
   1  -6  -5   27.48    1.99
  -1   6   5   26.42    1.44
   1  -6  -4  113.85    4.76
  -1   6   4  133.93    6.02
   1  -6  -3   20.25    1.42
  -1   6   3   27.23    1.68
   1  -6  -2    2.32    0.89
  -1   6   2    2.23    0.74
   1  -6  -1   74.59    3.55
  -1   6   1   79.42    3.35
   1  -6   0    7.31    0.82
  -1   6   0    6.64    0.78
   1  -6   1  277.77   10.52
  -1   6  -1  269.32   10.07
   1  -6   2 1550.97   53.25
  -1   6  -3 2018.78   65.78
   1  -6   4 1741.02   57.84
  -1   6  -4 1742.41   60.01
   1  -6   5  395.07   10.69
  -1   6  -5  386.74   14.22
   1  -6   6  886.85   34.27
  -1   6  -6  829.59   28.13
   1  -6   7 1154.27   38.25
   1  -6   8 1506.41   48.92
   1  -6   9  316.79   11.59
   1  -6  10  515.36   19.61
  -1   6 -10  539.79   21.53
   1  -6  11  441.13   12.78
  -1   6 -11  428.05   13.64
   1  -6  12  636.12   17.84
  -1   6 -12  627.87   24.26
   1  -6  14  395.65   13.59
  -1   6 -14  383.75   19.33
  -1   5  11   26.29    4.23
  -1   5  10   84.42    4.09
   1  -5  -9    0.97    2.76
  -1   5   9   -1.13    2.51
   1  -5  -8   41.62    3.39
  -1   5   8   36.90    2.20
  -1   5   7   28.21    1.49
   1  -5  -6   45.69    3.04
  -1   5   6   45.78    2.33
  -1   5   5   63.52    3.55
   1  -5  -4  705.68   25.81
  -1   5   4  692.71   25.78
  -1   5   3  630.93   22.25
   1  -5  -2 1010.83   37.80
  -1   5   2  985.29   33.99
   1  -5  -1  267.57   11.29
  -1   5   1  275.87   11.27
   1  -5   0  869.87   31.32
  -1   5   0  865.36   30.73
   1  -5   1  883.66   32.02
  -1   5  -1  846.06   28.06
   1  -5   2 1977.79   67.82
  -1   5  -2 1855.47   64.01
   1  -5   3 1238.84   43.79
  -1   5  -3 1258.24   42.28
   1  -5   4  977.35   35.16
   1  -5   5 1679.49   61.54
  -1   5  -5 1641.17   57.11
   1  -5   6  974.15   25.66
  -1   5  -6  978.30   24.96
   1  -5   7  631.45   23.97
   1  -5   8 1951.12   66.44
  -1   5  -8 1998.20   48.85
   1  -5   9  515.47   14.86
  -1   5  -9  526.94   21.98
   1  -5  10  508.28   15.61
  -1   5 -10  522.54   21.30
   1  -5  11  387.86   11.32
  -1   5 -11  402.22   17.85
   1  -5  12  504.98   14.37
  -1   5 -12  506.88   20.27
   1  -5  13  265.02    8.71
  -1   5 -13  270.50   14.18
   1  -5  14  285.78   14.59
  -1   4  11   80.98    5.11
  -1   4  10   22.70    2.09
   1  -4  -9  189.05    8.89
  -1   4   9  182.71    7.83
   1  -4  -8   56.01    3.31
  -1   4   8   57.05    2.70
   1  -4  -7  341.77   14.67
  -1   4   7  373.52    9.78
   1  -4  -6  467.65   18.66
  -1   4   6  494.18   19.26
   1  -4  -5  244.07    9.98
  -1   4   5  261.53    7.14
   1  -4  -4  876.40   33.26
  -1   4   4  864.80   30.92
   1  -4  -3 2005.42   71.84
  -1   4   3 1949.19   67.90
   1  -4  -2 2468.25   86.97
  -1   4   2 2331.49   82.64
   1  -4  -1 2022.26   73.92
  -1   4   1 2145.00   74.95
   1  -4   0  564.39   20.43
  -1   4   0  570.54   21.51
   1  -4   1  727.95   24.14
  -1   4  -1  703.80   23.77
   1  -4   2  728.97   25.94
  -1   4  -2  711.02   23.74
   1  -4   3  173.02    5.07
  -1   4  -3  152.55    6.42
   1  -4   4 5265.52  185.92
  -1   4  -4 4791.46  157.98
   1  -4   5 1951.28   73.67
  -1   4  -5 2025.11   69.02
   1  -4   6  937.33   24.34
  -1   4  -6  957.49   34.02
   1  -4   7  503.97   13.31
  -1   4  -7  520.32   20.43
   1  -4   8  808.17   20.87
  -1   4  -8  826.59   30.26
   1  -4   9  345.48   15.51
  -1   4  -9  346.17   14.22
   1  -4  10  308.01    9.64
  -1   4 -10  315.21   12.81
   1  -4  11  395.90   10.66
  -1   4 -11  404.80   16.06
   1  -4  12  232.30    7.54
  -1   4 -12  244.88   10.73
   1  -4  13   31.51    2.03
   1  -4  14    3.93    2.95
  -1   4 -14    8.02    3.68
  -1   3  12   40.15    2.66
   1  -3 -11  209.15   10.95
  -1   3  11  218.47    7.18
   1  -3 -10  131.74    6.83
  -1   3  10  147.37    6.84
  -1   3   9  749.30   20.29
  -1   3   8  520.67   19.15
   1  -3  -7  580.15   22.15
  -1   3   7  619.14   23.45
  -1   3   6  749.34   26.91
   1  -3  -5  325.94   12.76
  -1   3   5  348.06   13.37
   1  -3  -4 1027.22   37.60
  -1   3   4 1004.78   36.70
   1  -3  -3 2074.17   70.11
  -1   3   3 2251.97   78.20
   1  -3  -2 7527.03  249.06
  -1   3   2 5888.68  229.49
   1  -3  -1 4591.16  155.24
  -1   3   1 4535.42  159.87
   1  -3   0   29.64    1.46
  -1   3   0   30.33    1.64
   1  -3   1   29.19    1.60
  -1   3  -1   29.67    1.69
   1  -3   2  833.91   21.62
  -1   3  -2  844.63   30.39
   1  -3   3 2430.80   85.13
  -1   3  -3 2542.33   88.47
   1  -3   4 9999.00  363.64
  -1   3  -4 9306.69  311.43
  -1   3  -5 2374.17   81.93
  -1   3  -6  429.40   18.04
   1  -3   7   52.31    2.94
  -1   3  -7   56.87    3.41
   1  -3   8   72.81    2.88
  -1   3  -8   69.36    4.32
   1  -3   9  194.64    6.34
  -1   3  -9  194.75    9.07
   1  -3  10  147.88    4.87
  -1   3 -10  132.63    6.24
   1  -3  11   12.90    2.32
  -1   3 -11   12.86    2.41
   1  -3  12    4.68    2.60
  -1   3 -12    6.47    3.06
   1  -3  13  265.94    8.29
   1  -3  14   74.32    4.37
  -1   3 -14   69.86    7.99
   1  -2 -12  641.23   28.61
  -1   2  12  677.53   18.19
   1  -2 -11  560.04   22.19
  -1   2  11  548.52   21.82
  -1   2  10  393.86   14.98
  -1   2   9  808.71   21.39
   1  -2  -8  417.26   16.12
  -1   2   8  444.47   15.91
   1  -2  -7  891.18   31.19
  -1   2   7  917.22   35.95
   1  -2  -6  336.07   12.05
  -1   2   6  324.04   13.41
   1  -2  -5  765.30   28.56
  -1   2   5  756.57   27.31
   1  -2  -4 1755.48   63.40
  -1   2   4 1797.26   63.54
   1  -2  -3 3360.71  116.95
  -1   2   3 3490.52  123.48
   1  -2  -2 1396.82   47.99
  -1   2   2 1454.85   53.79
   1  -2  -1 4428.05  178.76
  -1   2   1 5075.89  177.85
   1  -2   0  143.86    5.66
  -1   2   0  143.01    5.77
   1  -2   1  347.55   12.98
  -1   2  -1  348.45   13.12
   1  -2   2 8665.22  216.62
  -1   2  -2 8388.28  340.39
   1  -2   3 3345.73  114.91
  -1   2  -3 3260.98  116.08
   1  -2   4  820.94   22.00
  -1   2  -4  791.30   29.70
   1  -2   5    7.47    0.85
  -1   2  -5    6.57    1.07
   1  -2   7   47.20    2.90
  -1   2  -7   44.33    1.92
   1  -2   8  300.68   12.98
  -1   2  -8  301.73   14.33
   1  -2   9   16.69    1.29
  -1   2  -9   20.46    2.68
   1  -2  10   56.60    2.64
  -1   2 -10   59.07    2.87
   1  -2  11   28.26    1.90
   1  -2  12  210.39    7.15
  -1   2 -12  219.96   12.10
   1  -2  13  334.61   13.82
  -1   2 -13  325.44   14.11
   1  -1 -13  865.97   32.98
  -1   1  13  909.82   25.46
   1  -1 -12  841.72   31.88
  -1   1  12  866.08   24.80
   1  -1 -11 1085.01   40.21
  -1   1  11 1083.93   27.54
   1  -1 -10  468.37   17.09
  -1   1  10  471.30   12.80
   1  -1  -9  265.45   10.96
  -1   1   9  264.68   11.31
  -1   1   8  456.68   12.55
   1  -1  -7  378.36   16.83
  -1   1   7  360.65   14.62
   1  -1  -6 1158.50   39.31
  -1   1   6 1204.73   44.02
   1  -1  -5 3722.09  125.37
  -1   1   5 3644.59  126.00
   1  -1  -4 1715.76   59.34
  -1   1   4 1836.29   66.23
   1  -1  -3  307.20   12.46
  -1   1   3  319.93   13.68
   1  -1  -2  781.77   26.72
  -1   1   2  778.77   27.54
   1  -1   0  294.06    7.57
   1  -1   1  587.83   15.18
   1  -1   2  555.48   21.80
  -1   1  -2  550.52   15.71
   1  -1   4 1257.32   47.83
  -1   1  -4 1259.04   46.81
   1  -1   5  424.11   11.71
  -1   1  -5  423.39   11.48
   1  -1   6   58.72    2.90
  -1   1  -6   65.87    3.80
   1  -1   7   15.52    1.23
  -1   1  -7   16.94    1.19
   1  -1   8 1120.91   41.55
  -1   1  -8 1068.74   38.09
   1  -1   9   79.55    3.38
  -1   1  -9   78.71    3.18
   1  -1  10  138.44    4.48
   1  -1  11  489.04   13.44
  -1   1 -11  512.50   21.23
   1  -1  12  419.75   12.02
   1  -1  13  255.25    8.24
   1   0 -13  474.69   18.99
  -1   0  13  471.94   20.92
   1   0 -12  780.22   22.09
  -1   0  12  766.90   27.34
   1   0 -11  867.73   23.08
  -1   0  11  856.82   21.29
   1   0 -10  682.37   25.97
  -1   0  10  671.88   19.15
   1   0  -9  541.02   14.79
  -1   0   9  526.51   13.79
  -1   0   8  397.93   15.80
   1   0  -7  346.09   12.51
  -1   0   7  316.42    9.51
  -1   0   6  865.94   22.00
   1   0  -5 2508.64   84.58
   1   0  -4   12.27    0.86
  -1   0   4   11.08    1.18
   1   0  -3  126.79    5.30
  -1   0   3  130.64    6.01
   1   0  -2   26.28    1.41
  -1   0   2   26.34    1.15
   1   0  -1  246.70    9.59
  -1   0   1  236.42    8.46
   1   0   0   16.53    0.93
  -1   0   0   16.08    0.97
   1   0   2   74.32    3.77
  -1   0  -2   78.05    3.53
   1   0   3 1208.77   43.97
  -1   0  -3 1150.74   28.82
   1   0   4 2575.89   63.79
  -1   0  -4 2548.29   61.78
   1   0   5   70.58    2.39
  -1   0  -5   68.26    3.72
   1   0   6   22.86    1.92
  -1   0  -6   19.73    1.41
   1   0   7  163.79    4.80
   1   0   8 1401.85   51.90
  -1   0  -8 1371.46   35.59
   1   0   9  447.71   13.86
  -1   0  -9  453.57   12.72
   1   0  10  671.01   27.22
  -1   0 -10  650.65   18.64
   1   0  11  627.72   26.49
  -1   0 -11  626.86   22.88
   1   0  12  307.34    8.91
   1   0  13  187.69    8.22
  -1   0 -13  165.53    8.87
  -1  -1  14   77.97    3.88
   1   1 -13  332.67   18.91
  -1  -1  13  313.57   10.73
   1   1 -12  566.69   15.85
  -1  -1  12  553.80   15.49
   1   1 -11 1073.62   27.13
  -1  -1  11 1064.70   26.20
  -1  -1  10 1564.59   59.18
   1   1  -7    2.29    0.80
   1   1  -6   76.84    4.25
  -1  -1   6   72.55    2.78
   1   1  -5   91.84    4.86
  -1  -1   5   92.60    3.10
   1   1  -4  311.68   12.22
  -1  -1   4  308.36    8.48
   1   1  -3  606.92   21.73
  -1  -1   3  626.17   15.67
   1   1  -2   75.85    3.37
  -1  -1   2   69.83    3.03
   1   1  -1   92.94    3.54
  -1  -1   1   87.48    3.25
   1   1   0  406.08   14.61
  -1  -1  -1  565.31   20.59
   1   1   2 1046.63   38.67
  -1  -1  -2 1024.08   35.26
   1   1   3 2055.76   50.62
  -1  -1  -3 2059.14   70.14
   1   1   4  521.03   14.29
  -1  -1  -4  515.23   20.86
   1   1   5  456.24   18.36
  -1  -1  -5  428.99   11.68
   1   1   6  646.98   16.35
   1   1   7 1064.68   36.85
  -1  -1  -7 1043.95   38.94
   1   1   8  934.36   25.28
   1   1   9  892.79   22.72
  -1  -1  -9  895.56   32.33
   1   1  10  651.61   17.88
  -1  -1 -10  654.67   19.03
   1   1  11  444.07   12.78
  -1  -1 -11  436.02   18.75
   1   1  12  207.37    6.68
  -1  -1 -12  213.74    9.82
  -1  -2  14  274.94    8.10
   1   2 -13   93.88    6.48
  -1  -2  13   92.09    5.08
  -1  -2  12   62.33    3.81
   1   2 -11  221.33    9.19
  -1  -2  11  213.75    6.42
  -1  -2  10  102.13    3.86
   1   2  -9  207.62    6.51
  -1  -2   9  207.27    6.51
  -1  -2   8   71.73    3.58
   1   2  -7  156.48    4.75
  -1  -2   7  152.57    4.67
   1   2  -6  418.26   16.34
  -1  -2   6  429.80   11.58
   1   2  -5 1239.91   30.56
  -1  -2   5 1245.94   30.74
  -1  -2   4  209.94    8.60
   1   2  -3   34.81    1.77
  -1  -2   3   33.69    1.49
   1   2  -2  668.66   23.22
  -1  -2   2  762.82   27.24
   1   2   0   30.29    1.46
   1   2   1  482.91   13.00
   1   2   2  930.30   22.96
  -1  -2  -2  913.09   32.14
   1   2   3  452.09   17.79
   1   2   4 1747.42   42.94
  -1  -2  -4 1731.47   60.28
   1   2   5 1678.79   56.99
  -1  -2  -5 1692.76   56.05
   1   2   6 1511.46   37.32
  -1  -2  -6 1475.62   51.98
   1   2   7 1319.12   46.40
  -1  -2  -7 1303.49   45.54
   1   2   8  465.81   12.55
   1   2   9  533.13   14.50
   1   2  10  261.74    8.91
   1   2  11  115.49    7.18
   1   2  12   40.29    2.49
  -1  -2 -12   44.14    4.90
  -1  -3  15   73.77    5.90
   1   3 -14   64.01    5.53
  -1  -3  14   61.14    3.50
   1   3 -13   67.54    4.72
  -1  -3  13   79.29    3.55
  -1  -3  12   49.59    4.09
  -1  -3  11  104.80    5.12
   1   3 -10    7.62    1.88
  -1  -3  10    8.85    1.45
   1   3  -9  411.32   16.59
  -1  -3   9  416.28   11.90
   1   3  -8  220.73    6.49
  -1  -3   8  215.66    6.52
   1   3  -7  413.11   15.67
  -1  -3   7  403.98   15.84
  -1  -3   6 1555.16   37.03
   1   3  -5 1571.37   55.37
  -1  -3   5 1608.40   54.08
  -1  -3   4  215.25    8.17
  -1  -3   3   94.76    3.43
  -1  -3   2 3075.78  115.61
   1   3   0  728.54   23.73
   1   3   1 2364.77   56.72
   1   3   2 2177.91   52.31
  -1  -3  -2 2139.59   73.41
   1   3   3 1473.49   36.38
  -1  -3  -3 1443.28   51.69
   1   3   4  666.03   24.56
   1   3   5 1101.88   26.73
  -1  -3  -5 1071.39   35.14
   1   3   6  720.21   26.16
   1   3   7  454.52   13.40
   1   3   8   23.18    1.90
   1   3   9  216.48    6.71
   1   3  10   45.77    4.13
   1   3  11    9.07    2.45
  -1  -3 -11    4.28    3.63
   1   4 -15    4.49    3.51
  -1  -4  15    6.95    2.25
  -1  -4  14   31.68    3.03
   1   4 -13  397.00   15.01
  -1  -4  13  413.56   16.55
   1   4 -12  787.77   30.21
  -1  -4  12  769.11   29.12
  -1  -4  11  350.71   10.74
  -1  -4  10  443.39   12.80
   1   4  -9  111.24    5.34
  -1  -4   9  119.02    4.84
   1   4  -8  132.40    4.21
  -1  -4   8  130.16    4.23
   1   4  -7 1167.24   39.62
  -1  -4   7 1171.79   42.55
   1   4  -6 2929.02  101.62
  -1  -4   6 2831.99   69.27
   1   4  -5 3033.64  103.27
  -1  -4   5 2942.69  100.25
  -1  -4   4 1099.75   37.78
  -1  -4   3 3586.83  118.72
   1   4   0 1798.51   61.93
   1   4   1 1004.63   35.88
   1   4   2  931.91   33.37
   1   4   3   64.18    2.40
   1   4   4   83.19    3.76
   1   4   5  135.71    4.36
  -1  -4  -5  132.21    5.66
   1   4   6  247.78   10.45
   1   4   7  310.17   10.90
   1   4   8   10.40    1.93
   1   4   9   37.95    2.32
  -1  -4  -9   40.64    4.01
   1   4  10   -2.51    2.17
   1   4  11   -0.52    3.68
   1   5 -15  231.15   11.90
  -1  -5  15  246.23    8.22
   1   5 -14  469.58   18.98
  -1  -5  14  490.51   14.06
   1   5 -13  681.51   17.41
  -1  -5  13  660.10   17.49
   1   5 -12  249.46   11.08
  -1  -5  12  256.88   10.01
   1   5 -11  619.88   17.06
  -1  -5  11  595.60   21.89
   1   5 -10 1173.29   29.24
  -1  -5  10 1145.36   29.75
   1   5  -9  185.20    7.74
  -1  -5   9  192.60    7.93
   1   5  -8 1449.78   48.74
  -1  -5   8 1418.78   34.20
  -1  -5   7 2063.47   48.89
  -1  -5   6 1913.48   63.70
  -1  -5   5 1740.56   41.62
  -1  -5   4 1507.17   35.50
  -1  -5   3  298.94    9.90
   1   5   0 1107.18   37.45
   1   5   1  727.76   24.65
   1   5   2    6.16    0.60
   1   5   3   11.92    1.35
   1   5   4   61.19    2.20
  -1  -5  -4   59.78    2.74
   1   5   5   78.70    3.88
   1   5   6   88.65    3.74
   1   5   7   53.56    3.19
   1   5   8   26.41    2.79
   1   5   9   32.69    2.62
  -1  -5  -9   29.90    3.57
   1   5  10    0.50    2.19
  -1  -6  15  813.83   21.64
   1   6 -14  816.81   23.10
  -1  -6  14  812.78   21.98
  -1  -6  13  187.89    5.73
  -1  -6  12  512.02   18.78
  -1  -6  11 1087.46   27.22
  -1  -6  10 2210.88   71.64
  -1  -6   9  601.77   16.06
  -1  -6   8 1003.52   33.99
  -1  -6   7  882.33   21.89
  -1  -6   6  149.76    5.61
  -1  -6   5  115.17    3.15
  -1  -6   4  438.52   10.92
   1   6   0  299.81   10.65
   1   6   2    3.65    0.76
   1   6   3    9.58    1.15
   1   6   4    4.06    1.27
   1   6   5   13.43    1.22
   1   6   6   23.19    1.76
  -1  -6  -6   23.66    2.64
   1   6   7   57.01    2.64
   1   6   8   38.90    2.37
   1   6   9   36.59    3.90
   1   6  10   41.41    5.83
   1   7 -15  935.98   40.78
  -1  -7  15  951.34   25.93
   1   7 -14  325.69   14.07
  -1  -7  14  320.35    9.42
   1   7 -13  271.74   10.60
  -1  -7  13  271.07    7.95
  -1  -7  12  445.96   16.54
   1   7 -11  804.59   29.62
  -1  -7  11  782.52   19.46
  -1  -7  10 1290.74   31.35
  -1  -7   9  194.34    6.20
  -1  -7   8  255.20   10.33
  -1  -7   7   24.24    1.07
  -1  -7   6    6.24    0.83
  -1  -7   5   40.31    1.27
  -1  -7   4  394.79    9.07
   1   7   1    9.01    0.91
   1   7   2   39.02    2.00
   1   7   3   42.44    2.31
   1   7   4  133.19    4.05
   1   7   5  275.72    9.83
   1   7   6   95.65    3.35
   1   7   7  142.62    4.87
   1   7   8   27.87    3.09
   1   8 -16  369.77   18.72
  -1  -8  16  362.16   12.70
   1   8 -15  229.03    7.93
  -1  -8  15  222.32    8.34
   1   8 -14  316.31    9.16
  -1  -8  14  325.05   13.79
  -1  -8  13  259.44    7.79
  -1  -8  12  247.45    7.79
  -1  -8  11  228.31    6.69
  -1  -8  10   90.14    3.38
  -1  -8   9   78.02    2.87
  -1  -8   8   21.35    1.09
  -1  -8   7    1.01    0.52
  -1  -8   6   37.57    2.04
  -1  -8   5   11.96    0.50
   1   8   1  112.63    4.41
   1   8   2  244.00    9.08
   1   8   3  292.54   10.30
   1   8   4  390.32   13.88
   1   8   5  195.91    8.13
   1   8   6   81.12    3.66
   1   8   7   59.42    3.06
  -1  -9  16   84.06    7.36
  -1  -9  15  107.05    4.57
  -1  -9  14   85.63    5.03
  -1  -9  13   71.72    3.29
  -1  -9  12    2.35    2.01
  -1  -9  11    2.49    1.17
  -1  -9  10    8.87    1.10
  -1  -9   9   70.10    2.44
  -1  -9   8   17.79    0.94
  -1  -9   7   38.20    1.44
  -1  -9   6   50.17    1.58
   1   9   2  272.93   10.62
   1   9   4  207.74    7.63
   1   9   5   31.67    2.12
  -1 -10  16   18.83    3.55
  -1 -10  15    3.80    1.93
  -1 -10  14    0.17    1.94
  -1 -10  13    2.48    1.27
  -1 -10  12   10.69    1.52
  -1 -10  11    0.52    1.09
  -1 -10  10  144.82    4.69
  -1 -10   9   15.67    1.54
  -1 -10   8  152.99    4.48
  -1 -10   7  127.41    3.77
   1  10   4   22.20    2.15
  -1 -11  16   12.82    2.47
  -1 -11  15   46.02    3.02
  -1 -11  14   42.91    2.21
  -1 -11  13  114.70    3.82
  -1 -11  12   67.83    3.85
  -1 -11  11  112.93    3.84
  -1 -11  10  326.03    8.48
  -1 -11   9  106.51    3.55
  -1 -11   8  124.25    4.01
  -1 -12  16   51.99    3.92
  -1 -12  15  130.36    5.03
  -1 -12  14  165.71    5.58
  -1 -12  13  118.40    5.90
  -1 -12  12  114.23    3.53
  -1 -12  11  130.38    4.05
  -1 -12  10  249.14    9.94
  -1 -12   9   94.87    3.76
  -1 -13  14   60.06    3.89
  -1 -13  13  125.90    4.12
  -1 -13  12   80.68    3.11
  -1 -13  11   68.15    4.05
   2 -14   5   13.84    1.80
   2 -14   7   37.45    2.66
   2 -14   8   27.07    2.05
   2 -14  11   24.10    2.66
   2 -14  12   32.14    2.23
   2 -13   3   13.64    1.60
   2 -13   4   37.48    2.82
   2 -13   5  100.37    5.67
   2 -13   6   87.25    4.71
   2 -13   7   23.98    1.50
   2 -13   9   10.44    1.80
   2 -13  10    1.64    1.72
   2 -13  11    0.80    1.85
   2 -13  12    2.49    2.17
   2 -13  13   28.46    4.33
   2 -13  14    2.78    2.40
  -2  12   0   19.78    1.78
   2 -12   1   17.16    1.92
   2 -12   2   55.64    3.17
   2 -12   3   58.60    3.43
   2 -12   4    1.11    1.38
   2 -12   5   32.49    2.48
   2 -12   6   -0.04    1.11
   2 -12   7    1.58    1.22
  -2  12  -7    2.82    1.96
   2 -12   8   64.06    2.52
   2 -12   9   11.76    1.70
   2 -12  10   62.20    2.74
   2 -12  12   65.79    3.27
   2 -12  13   51.60    2.78
   2 -12  14   45.86    3.03
   2 -11  -3   54.32    4.47
  -2  11   2   24.17    1.86
   2 -11   0    2.37    1.23
   2 -11   1    0.59    1.26
  -2  11  -1   -0.21    1.07
   2 -11   2    5.06    1.23
  -2  11  -2    3.76    1.15
   2 -11   3   -0.24    1.07
  -2  11  -3    0.32    1.19
   2 -11   4  244.54    9.76
  -2  11  -4  248.48    9.11
   2 -11   5   29.78    1.89
   2 -11   6   42.09    1.81
  -2  11  -6   49.92    3.02
   2 -11   7   65.91    3.38
  -2  11  -7   67.74    3.50
   2 -11   8  115.11    5.50
   2 -11   9  127.02    4.60
   2 -11  10  156.38    5.00
   2 -11  11  361.93   11.51
  -2  11 -11  382.11   16.50
   2 -11  12  413.86   15.76
   2 -11  13  133.43    7.61
   2 -11  14  152.92    5.93
  -2  11 -14  110.54    7.27
  -2  10   6   11.50    1.97
   2 -10  -5    4.10    2.12
  -2  10   5    5.78    1.70
   2 -10  -4    4.21    1.85
  -2  10   4    3.03    1.54
  -2  10   3   66.48    3.31
   2 -10  -2    2.70    1.53
  -2  10   2    0.38    1.21
   2 -10  -1   90.99    4.44
  -2  10   1   85.01    3.98
   2 -10   0  116.92    4.82
  -2  10   0  128.69    5.34
   2 -10   1  122.92    5.38
  -2  10  -1  123.55    5.34
   2 -10   2   38.83    2.70
   2 -10   3   94.80    4.37
  -2  10  -3  103.11    4.45
   2 -10   4  377.50   14.24
  -2  10  -4  375.93   13.20
   2 -10   5  152.96    6.24
  -2  10  -5  150.25    6.87
   2 -10   6  378.04    9.81
  -2  10  -6  370.57   16.44
   2 -10   7  266.86   11.27
   2 -10   8  262.39   10.44
  -2  10  -8  272.15   11.15
   2 -10   9  161.41    4.92
   2 -10  10  359.63   10.33
   2 -10  11  577.48   22.63
   2 -10  12  808.45   28.85
  -2  10 -12  802.68   33.60
   2 -10  13  216.14    6.79
   2 -10  14  285.38   11.35
  -2  10 -14  271.66   14.41
  -2   9   7   43.70    2.60
  -2   9   6    4.72    1.80
   2  -9  -5   55.06    3.50
  -2   9   5   56.46    2.76
  -2   9   4   41.03    2.45
   2  -9  -3    3.03    1.42
  -2   9   3    4.64    1.26
   2  -9  -2   97.80    4.76
  -2   9   2   97.88    4.65
   2  -9  -1  437.69   15.92
  -2   9   1  440.73   15.45
   2  -9   0  208.11    8.32
  -2   9   0  202.31    7.39
   2  -9   1  255.39    9.99
  -2   9  -1  262.63   10.58
   2  -9   2  504.36   18.20
  -2   9  -2  520.16   18.01
   2  -9   3   80.80    4.01
   2  -9   4  189.50    7.86
  -2   9  -4  185.88    7.73
   2  -9   5  255.90    9.87
   2  -9   6  736.95   18.50
  -2   9  -6  674.13   24.56
   2  -9   7 1031.89   35.73
   2  -9   8  289.66    9.48
  -2   9  -8  286.80   10.89
   2  -9   9  444.24   17.36
   2  -9  10  510.85   13.29
   2  -9  11  432.63   20.56
   2  -9  12  718.49   26.60
  -2   9 -12  705.01   28.27
   2  -9  13  178.70    6.17
   2  -9  14  221.46   11.07
  -2   9 -14  231.58   12.15
  -2   8   9   55.70    3.31
  -2   8   8   95.52    3.49
   2  -8  -7    3.66    2.43
  -2   8   7    5.00    1.33
  -2   8   6  122.33    5.19
  -2   8   5  406.79   14.78
   2  -8  -4   86.10    4.73
  -2   8   4   96.96    4.69
   2  -8  -3  147.64    5.69
  -2   8   3  139.00    5.54
   2  -8  -2  162.85    7.40
  -2   8   2  151.65    7.26
   2  -8  -1  448.30   17.01
  -2   8   1  472.79   16.82
   2  -8   0  272.31   10.30
  -2   8   0  255.61    9.20
   2  -8   1  632.30   23.19
  -2   8  -1  523.70   18.17
   2  -8   2  583.85   20.96
  -2   8  -2  615.37   21.22
   2  -8   3  680.38   22.70
  -2   8  -3  695.19   23.59
   2  -8   4  465.95   17.68
  -2   8  -4  484.26   16.82
   2  -8   5  947.79   23.62
  -2   8  -5  974.32   33.56
   2  -8   6 1792.72   44.13
  -2   8  -6 2042.17   65.82
   2  -8   7  697.15   24.26
   2  -8   8  184.24    5.23
  -2   8  -8  195.67    7.90
   2  -8   9  487.69   12.90
  -2   8  -9  483.65   19.07
   2  -8  10  153.85    5.08
  -2   8 -10  166.83    7.08
   2  -8  11   56.68    2.99
  -2   8 -11   53.67    2.74
   2  -8  12  216.80    7.16
  -2   8 -12  244.66   12.80
   2  -8  13  132.27    4.79
   2  -8  14  129.84    9.76
  -2   8 -14  125.52    5.57
   2  -7 -10  160.53    7.51
  -2   7  10  137.30    5.10
   2  -7  -9  280.58   12.98
  -2   7   9  264.86    8.41
   2  -7  -8   44.50    3.46
  -2   7   8   49.03    3.15
  -2   7   7   82.29    4.23
   2  -7  -6  133.06    6.22
  -2   7   6  123.21    5.37
  -2   7   5  562.63   22.51
  -2   7   4  360.65   13.63
   2  -7  -3  593.05   21.14
  -2   7   3  552.45   21.78
   2  -7  -2  802.32   30.85
  -2   7   2  820.70   28.11
   2  -7  -1  527.70   19.33
  -2   7   1  549.66   20.60
   2  -7   0  476.34   17.71
  -2   7   0  466.79   16.90
   2  -7   1  897.93   30.70
  -2   7  -1  973.98   33.39
   2  -7   2 1634.32   57.60
  -2   7  -2 1617.78   51.94
   2  -7   3 1326.93   42.79
   2  -7   4  332.98   12.59
  -2   7  -4  329.70   11.60
   2  -7   5  649.59   25.00
  -2   7  -5  662.56   23.42
  -2   7  -6  152.05    6.16
   2  -7   7  328.60   13.90
   2  -7   8  158.41    5.57
  -2   7  -8  158.69    6.96
   2  -7   9  296.36    8.85
  -2   7  -9  300.86   12.73
   2  -7  10   33.56    2.99
  -2   7 -10   40.94    3.00
   2  -7  11    4.61    1.64
  -2   7 -11    8.44    1.66
   2  -7  12    1.11    1.38
  -2   7 -12    3.04    2.32
   2  -7  13   17.80    1.65
   2  -7  14   25.57    2.43
  -2   7 -14   20.51    4.00
   2  -6 -10  495.35   18.82
  -2   6  10  489.61   12.66
   2  -6  -9   84.25    5.16
  -2   6   9   80.21    3.13
   2  -6  -8  292.41   13.79
  -2   6   8  317.03   12.18
  -2   6   7  366.96   10.90
  -2   6   6  347.72   12.85
   2  -6  -5  996.10   36.52
  -2   6   5 1135.53   37.40
   2  -6  -4  802.63   29.28
   2  -6  -3 1767.27   62.28
  -2   6   3 1765.23   61.70
   2  -6  -2  734.91   25.00
  -2   6   2  759.36   26.41
   2  -6  -1  158.45    7.12
  -2   6   1  174.48    7.54
   2  -6   0  162.00    6.34
  -2   6   0  167.65    6.65
   2  -6   1  924.09   33.14
   2  -6   2  884.48   31.19
  -2   6  -2  946.46   31.95
   2  -6   3  994.83   36.05
  -2   6  -3  990.54   34.35
   2  -6   4   92.98    4.39
  -2   6  -4   96.25    4.75
   2  -6   5   11.44    0.91
   2  -6   6    4.64    0.74
  -2   6  -6    5.37    1.21
   2  -6   7  246.82    7.48
  -2   6  -7  257.17    7.03
   2  -6   8  259.34   11.07
  -2   6  -8  250.93    8.21
   2  -6   9   52.83    3.27
  -2   6  -9   45.58    2.27
   2  -6  10  130.48    4.76
   2  -6  11  161.58    5.97
  -2   6 -11  158.13    8.22
   2  -6  12  322.17   10.21
  -2   6 -12  324.48   14.81
   2  -6  13   18.03    2.23
  -2   6 -13   17.60    2.45
   2  -6  14   26.69    4.83
  -2   5  11  321.18   13.10
  -2   5  10  351.99   15.25
  -2   5   9  414.01   16.04
  -2   5   8  671.64   16.51
   2  -5  -7  832.76   28.61
  -2   5   7  837.01   29.40
   2  -5  -6  574.50   19.96
  -2   5   6  623.16   23.51
   2  -5  -5  273.49   10.21
  -2   5   5  289.09   11.31
   2  -5  -4  726.26   25.83
  -2   5   4  687.08   23.70
   2  -5  -3 1079.55   38.55
  -2   5   3 1071.35   39.21
   2  -5  -2  213.38    8.96
  -2   5   2  206.83    9.21
   2  -5  -1    9.31    1.07
  -2   5   1   11.35    1.02
   2  -5   0 1359.69   47.70
  -2   5   0 1340.42   46.42
   2  -5   1  229.23    8.56
  -2   5  -1  233.76    8.38
   2  -5   2    6.06    0.82
  -2   5  -2    4.57    0.98
   2  -5   3   74.64    3.35
  -2   5  -3   70.93    2.91
   2  -5   4  682.05   26.21
  -2   5  -4  674.20   17.29
   2  -5   5   13.78    0.91
  -2   5  -5   13.76    1.38
   2  -5   6   82.88    2.95
  -2   5  -6   94.55    4.56
   2  -5   7  103.44    3.68
  -2   5  -7  112.13    3.84
   2  -5   8   14.65    1.70
   2  -5   9  463.53   19.78
  -2   5  -9  438.15   12.64
   2  -5  10  376.27   11.75
   2  -5  11  288.37   13.23
   2  -5  12  827.11   34.59
  -2   5 -12  859.44   36.55
   2  -5  13  383.20   13.10
  -2   5 -13  366.81   12.65
   2  -5  14  159.54   10.15
  -2   5 -14  146.11    9.60
   2  -4 -12  259.65   10.66
  -2   4  12  247.03    8.93
  -2   4  11  189.11    7.07
  -2   4  10  509.46   18.59
   2  -4  -9  293.64   11.63
  -2   4   9  302.20   11.91
   2  -4  -8  872.45   32.31
  -2   4   8  902.56   24.52
   2  -4  -7  673.92   25.06
  -2   4   7  675.33   24.44
   2  -4  -6   89.00    4.17
  -2   4   6   95.26    4.44
   2  -4  -5   32.33    1.99
  -2   4   5   34.32    2.17
   2  -4  -4   54.26    3.14
  -2   4   4   46.95    2.62
   2  -4  -3  118.52    4.71
  -2   4   3  117.16    5.19
   2  -4  -2  581.78   22.48
  -2   4   2  603.86   22.82
   2  -4  -1  409.12   15.92
  -2   4   1  416.14   13.95
   2  -4   0  309.83   13.69
  -2   4   0  300.04   11.70
   2  -4   1  605.59   21.69
  -2   4  -1  591.56   22.28
   2  -4   2 1135.77   28.66
  -2   4  -2 1115.27   36.73
   2  -4   3  151.93    7.14
  -2   4  -3  152.96    6.92
   2  -4   4  275.01   11.80
  -2   4  -4  241.95    9.13
   2  -4   5   28.74    1.44
  -2   4  -5   29.71    2.13
   2  -4   6   73.26    2.92
  -2   4  -6   69.79    3.84
   2  -4   7  556.71   15.33
  -2   4  -7  539.97   15.69
   2  -4   8  773.70   22.09
  -2   4  -8  778.47   22.39
   2  -4   9 1057.36   39.49
  -2   4  -9 1071.98   40.99
   2  -4  10  647.57   16.87
  -2   4 -10  631.79   25.24
   2  -4  11  796.03   20.50
  -2   4 -11  776.94   28.88
  -2   4 -13  340.99   15.65
  -2   3  12  291.20    8.17
   2  -3 -11  307.83   15.06
  -2   3  11  310.66   12.10
   2  -3 -10  108.27    5.66
  -2   3  10  112.75    3.76
   2  -3  -9  264.00   10.62
  -2   3   9  250.91    7.71
   2  -3  -8  337.35   16.07
  -2   3   8  350.29   15.05
   2  -3  -7   31.99    2.36
  -2   3   7   30.50    2.16
   2  -3  -6   47.63    3.70
  -2   3   6   47.09    2.55
   2  -3  -5  198.54    8.10
  -2   3   5  191.34    8.38
   2  -3  -4    3.33    1.01
  -2   3   4    1.92    0.97
   2  -3  -3   58.98    3.66
  -2   3   3   48.39    3.14
   2  -3  -2 1089.38   39.90
  -2   3   2 1042.15   37.01
   2  -3  -1  202.86    8.81
  -2   3   1  197.97    7.95
   2  -3   0   47.12    2.37
  -2   3   0   48.80    2.62
   2  -3   1 1091.52   39.74
  -2   3  -1 1105.82   39.76
   2  -3   2 2037.21   50.35
  -2   3  -2 1854.84   61.98
   2  -3   3 1404.48   36.22
  -2   3  -3 1411.03   47.80
   2  -3   4 1165.04   29.29
   2  -3   5  662.37   18.75
  -2   3  -5  650.12   25.18
  -2   3  -6  807.89   33.43
   2  -3   7 2448.15   88.37
  -2   3  -8  572.35   22.98
   2  -3   9  948.86   35.06
  -2   3  -9  923.89   36.97
   2  -3  10  641.53   18.74
  -2   3 -10  625.62   24.20
   2  -3  11  741.82   27.39
   2  -3  12  661.79   18.42
  -2   3 -12  644.32   26.20
   2  -3  13  461.10   19.69
  -2   3 -13  474.50   19.68
   2  -2 -13  115.43    6.45
  -2   2  13  133.49    7.26
  -2   2  12  483.93   15.40
   2  -2 -11    9.35    3.19
  -2   2  11    6.93    2.70
   2  -2 -10    5.10    2.33
  -2   2  10    8.73    1.60
   2  -2  -9   38.78    3.33
  -2   2   9   43.59    3.02
   2  -2  -8   19.57    2.01
  -2   2   8   17.38    1.64
   2  -2  -7   57.41    3.00
  -2   2   7   48.48    3.13
  -2   2   6   64.57    3.46
   2  -2  -5  462.00   17.06
  -2   2   5  434.08   18.19
   2  -2  -4  353.83   13.60
  -2   2   4  395.21   11.05
   2  -2  -3  189.05    8.22
  -2   2   3  184.83    7.65
   2  -2  -2   29.70    1.97
  -2   2   2   33.76    1.89
   2  -2  -1  456.26   12.19
  -2   2   1  467.26   16.78
   2  -2   0 2753.52   68.30
  -2   2   0 2761.21   91.93
   2  -2   1 6008.47  146.08
   2  -2   2 2323.31   81.08
   2  -2   3 5807.49  205.33
   2  -2   4  911.80   35.40
  -2   2  -4  963.37   25.54
   2  -2   5  692.87   27.09
  -2   2  -5  722.23   28.14
   2  -2   6 1211.33   43.20
  -2   2  -6 1192.66   41.49
   2  -2   7 1071.67   27.75
  -2   2  -7 1086.87   40.64
   2  -2   8  187.03    5.85
  -2   2  -8  189.46    8.22
   2  -2   9  381.90   11.07
  -2   2  -9  396.17   12.18
  -2   2 -10  888.53   23.78
   2  -2  11  862.40   32.41
   2  -2  12  484.11   19.89
  -2   2 -12  474.80   14.73
   2  -2  13  332.53   10.01
  -2   2 -13  305.03   15.57
   2  -1 -13   60.23    4.98
  -2   1  13   59.30    5.19
  -2   1  12   -0.31    3.10
   2  -1 -11    1.34    2.36
  -2   1  11    3.13    1.37
   2  -1 -10   47.60    3.19
  -2   1  10   42.71    2.17
  -2   1   9   13.65    1.41
   2  -1  -8   46.56    3.15
  -2   1   8   41.35    1.94
  -2   1   7  649.87   18.72
   2  -1  -6  521.72   19.11
  -2   1   6  501.00   20.56
   2  -1  -5 1658.63   55.25
  -2   1   5 1699.44   55.83
   2  -1  -4 1637.83   57.22
  -2   1   4 1709.68   42.10
   2  -1  -3 1260.21   42.79
   2  -1  -2 2295.25   81.31
   2  -1  -1 2291.55   82.09
   2  -1   0 1718.67   59.53
  -2   1   0 1830.13   44.37
   2  -1   1  117.11    5.23
  -2   1  -1  113.58    5.51
   2  -1   2 2717.13   66.13
  -2   1  -2 2997.11   75.84
   2  -1   3 8037.01  195.34
  -2   1  -3 7328.83  178.70
   2  -1   4 1750.45   62.13
  -2   1  -4 1794.04   61.86
   2  -1   5 1307.91   45.87
  -2   1  -5 1310.00   33.68
   2  -1   6  337.31   10.05
  -2   1  -6  333.14   15.08
   2  -1   7  251.35    7.46
  -2   1  -7  250.64   10.40
   2  -1   8  166.89    5.35
   2  -1   9  445.46   12.45
  -2   1  -9  441.72   16.93
   2  -1  10  710.04   18.81
  -2   1 -10  708.99   27.03
   2  -1  11  646.31   24.71
  -2   1 -11  594.31   28.66
   2  -1  12  110.24    4.48
  -2   0  14  119.66    4.91
  -2   0  13  189.14    7.20
   2   0 -12   58.95    3.37
  -2   0  12   58.05    3.23
  -2   0  11    9.86    2.51
   2   0 -10  253.74   10.93
  -2   0  10  259.52    8.03
  -2   0   9  195.85    8.40
   2   0  -8 1917.08   64.21
  -2   0   8 1858.52   44.26
   2   0  -7 1445.32   50.76
   2   0  -6 1763.75   43.45
  -2   0   6 1720.24   61.15
   2   0  -5 2017.03   69.35
  -2   0   5 1997.40   66.30
   2   0  -4 1435.57   48.56
  -2   0   4 1391.80   33.30
   2   0  -3 3695.37  132.64
  -2   0   3 3358.03  118.89
   2   0  -2 4309.67  144.80
  -2   0   2 4058.49  143.05
   2   0  -1   31.90    1.90
  -2   0   1   34.89    1.74
   2   0   0  598.21   22.09
  -2   0   0  601.37   23.26
   2   0   1 2481.30   87.52
  -2   0  -1 2690.78   68.64
   2   0   2 2431.25   59.14
  -2   0  -2 2338.78   82.13
   2   0   3 3401.25   81.94
   2   0   4  968.95   24.08
  -2   0  -4  964.43   35.13
   2   0   5  443.24   11.95
  -2   0  -5  423.20   15.92
   2   0   6  725.60   19.02
   2   0   7   34.95    2.43
  -2   0  -7   37.32    3.26
   2   0   8  148.51    7.36
  -2   0  -8  161.19    8.36
   2   0   9  149.80    4.64
   2   0  10  212.28    7.23
  -2   0 -10  221.08   10.17
   2   0  11   61.97    3.25
  -2   0 -11   59.23    5.89
   2   0  12    0.51    2.09
  -2  -1  14 1009.74   39.45
  -2  -1  13  518.29   15.65
   2   1 -12  392.31   15.81
  -2  -1  12  394.98   11.75
   2   1 -11  184.36    7.93
  -2  -1  11  193.24    9.32
   2   1 -10  330.27   13.21
   2   1  -9 1129.23   40.35
  -2  -1   9 1114.70   28.02
   2   1  -8 1493.84   53.49
  -2  -1   8 1464.79   36.09
   2   1  -7 2450.61   58.88
  -2  -1   7 2523.88   83.56
   2   1  -6 4269.44  151.49
  -2  -1   6 4405.67  151.50
   2   1  -5  751.93   27.81
  -2  -1   5  724.23   18.77
   2   1  -4  654.60   23.96
  -2  -1   4  657.63   23.43
   2   1  -3 1369.46   46.18
   2   1  -2 4449.37  154.24
  -2  -1   2 4322.89  158.33
   2   1  -1  198.01    8.22
  -2  -1   1  192.09    7.73
   2   1   0 1009.77   35.59
  -2  -1   0 1016.71   35.16
   2   1   2 1220.21   43.41
  -2  -1  -2 1230.86   43.71
   2   1   3  931.16   31.99
   2   1   4 1051.39   27.19
  -2  -1  -4 1060.00   38.68
   2   1   5 1062.63   26.81
  -2  -1  -5 1071.77   37.72
   2   1   6   91.48    4.40
  -2  -1  -6   96.74    5.51
   2   1   7  213.78    8.83
  -2  -1  -7  193.34    9.09
   2   1   8    3.22    1.22
   2   1   9   56.11    3.18
   2   1  10   58.32    4.90
  -2  -1 -10   55.64    5.10
   2   1  11   13.74    2.25
   2   1  12   13.27    2.47
  -2  -1 -12   15.96    4.76
  -2  -2  14 1106.69   39.68
   2   2 -13  707.36   26.17
  -2  -2  13  711.06   27.50
   2   2 -12  509.83   20.33
  -2  -2  12  511.04   15.93
   2   2 -11  509.15   14.79
  -2  -2  11  497.03   13.72
   2   2 -10 1376.49   49.71
  -2  -2  10 1301.28   43.14
   2   2  -9  882.05   33.13
  -2  -2   9  863.71   29.37
   2   2  -8  695.26   25.16
  -2  -2   8  674.94   19.25
   2   2  -7 1206.81   42.43
  -2  -2   7 1217.90   30.29
   2   2  -6 1718.39   60.44
  -2  -2   6 1645.17   39.42
   2   2  -5  563.68   19.97
  -2  -2   5  538.91   19.09
   2   2  -4 2069.22   72.11
  -2  -2   4 2572.43   85.72
   2   2  -3 2813.41   99.36
  -2  -2   3 2854.20   96.21
   2   2  -2  908.90   31.05
  -2  -2   2  980.14   33.68
   2   2  -1  215.00    7.87
   2   2   0  280.74   11.29
  -2  -2   0  271.43    9.99
   2   2   1  475.91   12.66
  -2  -2  -1  478.92   17.58
   2   2   3    0.40    0.62
   2   2   4  415.20   11.21
  -2  -2  -4  411.21   14.92
   2   2   5    8.60    1.02
   2   2   6  240.47    7.08
   2   2   7  716.99   27.03
   2   2   8   38.40    3.03
   2   2   9  131.65    4.64
  -2  -2  -9  131.11    6.45
   2   2  10  156.16    5.70
   2   2  11   56.58    3.17
   2   3 -15  391.66   22.99
  -2  -3  15  397.70   12.50
  -2  -3  14  652.52   24.53
  -2  -3  13  602.59   22.12
   2   3 -12 1089.71   39.42
  -2  -3  12 1084.24   28.91
   2   3 -11 1830.75   62.72
  -2  -3  11 1874.40   45.48
  -2  -3  10  108.51    5.34
   2   3  -9  163.64    6.40
  -2  -3   9  166.04    6.96
   2   3  -8   91.72    3.85
  -2  -3   8   88.31    4.31
   2   3  -7  669.99   23.39
  -2  -3   7  658.71   17.75
   2   3  -6 3369.05  112.59
  -2  -3   6 3630.42  124.37
   2   3  -5 1602.49   57.58
  -2  -3   5 1547.73   52.06
   2   3  -4 3010.37  103.78
  -2  -3   4 2473.34   81.23
   2   3  -3 1160.36   38.46
  -2  -3   3 1074.30   35.65
   2   3  -2  241.21    9.51
   2   3  -1 1329.54   46.09
  -2  -3   1 1247.51   42.29
   2   3   0  240.36    9.47
   2   3   1   22.90    1.70
   2   3   3   13.60    0.90
   2   3   4   49.36    2.64
   2   3   5  229.59    8.66
   2   3   6  310.98   13.29
   2   3   7  246.10    7.19
   2   3   8   89.18    3.15
   2   3   9  263.65    8.33
  -2  -3  -9  257.30   10.62
   2   3  10  315.42   12.78
   2   3  11  135.73    4.49
   2   4 -15  367.86   18.54
  -2  -4  15  359.29   11.09
  -2  -4  14  297.48   13.31
   2   4 -13  719.70   27.34
  -2  -4  13  688.81   20.13
  -2  -4  12 1513.54   39.29
  -2  -4  11  714.45   25.82
   2   4 -10   15.84    2.00
  -2  -4  10   17.40    1.49
  -2  -4   9   76.88    2.86
   2   4  -8  101.82    4.24
  -2  -4   8   99.98    4.76
  -2  -4   7  451.51   12.64
   2   4  -6  581.90   21.06
  -2  -4   6  562.24   19.41
  -2  -4   5  956.88   33.92
  -2  -4   4  171.54    6.59
   2   4  -3  425.57   14.77
  -2  -4   3  470.96   15.84
   2   4  -2 3649.15  118.53
   2   4  -1  101.85    3.58
   2   4   0  346.25    8.83
   2   4   1  217.32    8.34
   2   4   2   79.57    3.63
   2   4   3  479.01   17.67
   2   4   4  224.05    6.08
   2   4   5  212.41    6.42
   2   4   6  360.71   14.06
   2   4   7  183.59    8.66
   2   4   8  465.84   12.50
  -2  -4  -8  467.09   17.34
   2   4   9  339.73   13.56
   2   4  10  184.86    6.49
  -2  -5  15  455.75   13.57
   2   5 -14  244.58   12.15
  -2  -5  14  246.87   10.26
   2   5 -13  768.91   27.70
  -2  -5  13  758.34   20.68
   2   5 -12  328.53   12.89
  -2  -5  12  341.22   13.75
   2   5 -11  103.84    5.20
  -2  -5  11  113.22    6.14
  -2  -5  10  164.67    7.14
  -2  -5   9    1.01    0.85
  -2  -5   8    5.53    0.87
  -2  -5   7  121.63    4.94
   2   5  -6  116.29    4.76
  -2  -5   6  121.68    3.73
  -2  -5   5    6.25    0.64
  -2  -5   4   60.90    2.55
   2   5  -1   55.10    1.31
   2   5   0 1205.80   39.53
   2   5   1  687.52   17.69
   2   5   2  419.40   14.16
   2   5   3  262.95    7.00
   2   5   4  303.63    9.01
   2   5   5  203.99    5.74
   2   5   6  294.61   11.11
   2   5   7  283.84   10.58
   2   5   9  165.32    8.85
  -2  -6  16  101.69    4.44
  -2  -6  15  190.40    6.06
  -2  -6  14   15.81    2.35
   2   6 -13    8.10    2.82
  -2  -6  13    4.63    1.42
   2   6 -12    9.95    2.25
  -2  -6  12   15.41    2.31
   2   6 -11   76.41    3.69
  -2  -6  11   84.85    3.07
   2   6 -10  134.52    6.00
  -2  -6  10  145.68    4.52
  -2  -6   9   53.40    3.33
  -2  -6   8  542.87   19.48
  -2  -6   7  717.86   25.22
  -2  -6   6  397.43   14.58
  -2  -6   5   75.61    2.94
   2   6   0  855.01   28.14
   2   6   1 1832.71   60.55
   2   6   2  661.82   16.32
   2   6   3  300.15   10.70
   2   6   4  165.83    6.41
   2   6   5  103.35    4.17
   2   6   6  351.17    9.50
   2   6   7  205.21    6.71
   2   6   8  224.44    9.91
  -2  -7  16    9.55    2.32
   2   7 -15    3.42    2.44
  -2  -7  15    3.88    2.19
  -2  -7  14   48.85    2.60
  -2  -7  13    3.85    2.52
  -2  -7  12  144.39    6.22
  -2  -7  11  402.86   11.74
  -2  -7  10  147.96    4.53
  -2  -7   9  688.19   24.84
  -2  -7   8  529.30   13.63
  -2  -7   7  548.65   19.02
  -2  -7   6  626.36   21.49
  -2  -7   5  394.41   12.80
   2   7   0 1984.14   62.36
   2   7   1  706.54   23.81
   2   7   2  228.94    6.20
   2   7   3   65.83    2.55
   2   7   4   23.00    1.29
   2   7   5  135.84    4.32
   2   7   6  127.44    6.96
   2   7   7    6.77    2.66
  -2  -8  16  254.21    8.36
  -2  -8  15  178.10   10.03
  -2  -8  14   40.13    3.46
  -2  -8  13  161.78    5.50
  -2  -8  12  264.20   10.49
  -2  -8  11  403.83   10.62
  -2  -8  10  164.14    5.11
  -2  -8   9  774.61   19.37
  -2  -8   8  923.58   30.69
  -2  -8   7  611.64   22.27
  -2  -8   6  678.06   23.03
   2   8   1  105.16    4.01
   2   8   2   83.55    3.74
   2   8   3   44.91    2.40
   2   8   4   44.99    1.73
   2   9 -16  341.03   16.31
  -2  -9  16  339.82   10.60
   2   9 -15  144.81    7.48
  -2  -9  15  133.55    5.07
  -2  -9  14  105.20    3.76
  -2  -9  13  211.69    6.09
  -2  -9  12  337.92   13.79
  -2  -9  11  711.86   18.52
  -2  -9  10  264.68   10.97
  -2  -9   9 1080.32   37.99
  -2  -9   8  851.56   21.61
   2   9   3    4.23    0.99
   2  10 -16  216.09    9.79
  -2 -10  16  222.20    6.92
  -2 -10  15  357.06   10.60
  -2 -10  14  290.92    9.07
  -2 -10  13  333.06    9.52
  -2 -10  12  325.62    8.89
  -2 -10  11  143.70    5.07
  -2 -10  10  199.55    8.57
  -2 -10   9  410.46   11.35
  -2 -10   8  409.42   15.85
   2  11 -16  212.05   10.09
  -2 -11  16  202.57    6.32
  -2 -11  15  293.44   12.45
  -2 -11  14  173.04    8.80
  -2 -11  13   49.55    3.86
  -2 -11  12   14.59    1.38
  -2 -11  11   59.42    2.32
  -2 -11  10  116.75    5.63
  -2 -12  15   43.85    3.18
  -2 -12  14   17.88    2.90
  -2 -12  13    0.91    1.68
  -2 -12  12   16.61    1.44
  -2 -12  11    0.11    1.50
  -2 -12  10    7.97    0.72
   3 -14   3   17.37    2.09
   3 -14   5    8.46    2.21
   3 -14   6    4.25    1.93
   3 -14   7   40.72    3.46
   3 -14   8   78.83    4.14
   3 -14  10   85.08    4.47
   3 -14  12   53.21    3.86
   3 -13   0   15.09    2.39
   3 -13   2   48.58    3.14
  -3  13  -2   43.15    3.03
   3 -13   3  153.30    7.46
   3 -13   4  108.82    6.17
  -3  13  -4  101.31    4.87
   3 -13   5  104.80    5.11
  -3  13  -5   92.03    4.18
   3 -13   6   80.22    3.80
   3 -13   7   75.53    4.05
  -3  13  -7   78.47    4.59
   3 -13   8   90.40    3.29
  -3  13  -8   89.77    4.73
   3 -13   9  141.00    4.63
   3 -13  11  171.58    8.85
  -3  13 -11  176.68    7.67
   3 -13  12   32.31    2.64
   3 -13  13   30.70    6.55
   3 -12  -3   52.22    3.57
  -3  12   3   53.75    3.98
   3 -12  -2   47.13    3.72
  -3  12   2   46.15    3.27
   3 -12  -1   72.65    4.12
  -3  12   1   65.08    2.99
   3 -12   0   88.80    4.79
   3 -12   1  107.52    5.89
   3 -12   2  170.78    7.55
   3 -12   3  411.80   15.28
   3 -12   4  123.21    5.74
   3 -12   5  290.54   11.13
  -3  12  -5  308.19   11.55
   3 -12   6  181.74    7.57
  -3  12  -6  178.81    8.07
   3 -12   7  135.15    6.33
  -3  12  -7  140.53    6.83
   3 -12   8   82.25    4.00
   3 -12   9   86.11    3.45
   3 -12  10  323.55    9.28
   3 -12  11  270.66    8.17
   3 -12  12   22.15    2.51
  -3  12 -12   20.36    4.83
   3 -12  13   81.23    4.21
  -3  11   5  175.85    8.07
   3 -11  -4   66.48    4.13
  -3  11   4   54.48    3.23
   3 -11  -3   94.21    4.95
   3 -11  -2  158.85    7.18
  -3  11   2  164.32    6.79
   3 -11  -1  166.04    6.89
   3 -11   0  288.50   11.25
  -3  11   0  311.72   11.63
   3 -11   1  247.00    9.82
  -3  11  -1  248.18   10.17
   3 -11   2  214.77    9.09
  -3  11  -2  215.68    8.93
   3 -11   3  385.07   14.57
  -3  11  -3  371.91   15.77
   3 -11   4  303.75   11.71
   3 -11   5  278.85   10.65
   3 -11   6  117.19    5.24
  -3  11  -6  117.47    5.46
   3 -11   7   43.35    3.19
  -3  11  -7   41.07    2.79
   3 -11   8   26.37    2.39
  -3  11  -8   27.85    3.00
   3 -11   9  181.16    9.03
   3 -11  10  240.74    6.95
   3 -11  11  200.92    6.72
   3 -11  12   11.07    2.08
   3 -11  13   84.41    4.51
  -3  11 -13   68.70    5.07
   3 -10  -7  120.48    5.90
  -3  10   7  114.23    5.35
   3 -10  -6  446.61   17.02
  -3  10   6  439.76   15.37
   3 -10  -5  160.37    8.42
  -3  10   5  179.98    7.39
   3 -10  -4  220.30    8.97
  -3  10   4  224.31    8.61
   3 -10  -3  134.52    7.43
  -3  10   3  141.37    6.24
   3 -10  -2  123.00    5.90
  -3  10   2  119.90    5.67
   3 -10  -1  139.58    7.11
  -3  10   1  159.21    6.47
   3 -10   0  175.91    7.50
  -3  10   0  172.35    6.72
   3 -10   1  406.71   15.81
  -3  10  -1  432.35   15.16
   3 -10   2  342.77   13.01
  -3  10  -2  373.83   13.60
   3 -10   3  156.21    7.00
  -3  10  -3  147.72    6.85
   3 -10   4   94.86    4.06
  -3  10  -4   97.38    4.72
   3 -10   5  272.89   11.13
   3 -10   6  143.79    6.32
   3 -10   7   22.09    2.20
  -3  10  -7   27.09    2.41
   3 -10   8  168.51    7.30
  -3  10  -8  169.42    8.11
   3 -10   9    5.81    1.57
  -3  10  -9    8.58    2.39
   3 -10  10    0.78    2.12
  -3  10 -10    1.46    2.43
   3 -10  11    8.06    1.69
   3 -10  12    2.32    2.47
   3 -10  13    4.53    2.56
  -3  10 -13   -2.70    3.51
   3  -9  -8   64.07    5.15
  -3   9   8   58.28    2.75
  -3   9   7  371.99   13.20
  -3   9   6  473.03   20.51
   3  -9  -5  161.71    7.83
  -3   9   5  163.72    7.04
   3  -9  -4  186.98    8.28
   3  -9  -3   74.82    3.94
  -3   9   3   76.74    3.72
   3  -9  -2  115.59    5.18
  -3   9   2  114.66    5.04
   3  -9  -1   72.51    3.82
  -3   9   1   71.38    3.25
   3  -9   0  328.58   13.33
  -3   9   0  320.33   11.90
   3  -9   1  520.10   17.81
  -3   9  -1  475.94   16.90
   3  -9   2  283.65   10.58
  -3   9  -2  277.44   11.47
   3  -9   3    2.59    1.07
   3  -9   4  115.69    5.86
  -3   9  -4  145.68    6.64
   3  -9   5   91.77    2.86
  -3   9  -5  103.67    4.59
   3  -9   6    2.09    1.37
  -3   9  -6    3.33    1.60
   3  -9   7   19.92    1.46
  -3   9  -7   22.35    2.25
   3  -9   8   81.30    3.53
  -3   9  -8   88.25    5.20
   3  -9   9  219.09    6.77
  -3   9  -9  209.67    9.42
   3  -9  10  263.94   12.26
   3  -9  11   57.27    3.13
   3  -9  12    7.77    3.45
   3  -9  13   81.93    4.05
   3  -8  -9  134.52    8.58
  -3   8   9  132.05    6.68
   3  -8  -8  228.25    9.21
  -3   8   8  212.16    6.44
  -3   8   7   81.38    4.12
   3  -8  -6  357.81   14.50
  -3   8   6  378.10   14.69
   3  -8  -5  129.29    6.06
  -3   8   5  136.49    6.16
   3  -8  -4  350.41   13.32
  -3   8   4  349.24   13.76
   3  -8  -3  267.50   10.14
  -3   8   3  295.36   10.19
   3  -8  -2   45.59    2.71
  -3   8   2   50.86    2.60
   3  -8  -1   27.64    2.37
  -3   8   1   22.47    1.89
   3  -8   0   34.34    2.70
  -3   8   0   42.72    2.20
   3  -8   1   51.64    2.48
  -3   8  -1   47.05    2.23
   3  -8   2   12.76    1.23
  -3   8  -2   13.92    1.38
   3  -8   3   72.14    3.66
   3  -8   4   97.23    4.52
  -3   8  -4   90.97    3.85
   3  -8   5   28.26    2.09
   3  -8   6  131.91    5.46
  -3   8  -6  141.27    7.08
   3  -8   7  617.96   23.29
  -3   8  -7  653.07   25.38
   3  -8   8  429.80   11.86
  -3   8  -8  438.46   16.86
   3  -8   9  419.59   11.98
   3  -8  10  287.81   11.68
  -3   8 -10  283.93   13.79
   3  -8  11  198.72    6.41
  -3   8 -11  197.48    8.84
   3  -8  12   75.07    3.77
  -3   8 -12   78.57    6.02
   3  -8  13  461.53   13.29
   3  -7 -10  100.01    8.34
   3  -7  -8   63.81    4.48
  -3   7   8   67.60    4.71
   3  -7  -7  123.56    6.91
  -3   7   7  124.22    6.91
   3  -7  -6   65.27    3.65
  -3   7   6   71.98    3.63
   3  -7  -5  156.41    6.53
  -3   7   5  163.98    7.20
   3  -7  -4  502.75   18.54
  -3   7   4  548.10   20.75
   3  -7  -3    2.19    0.91
  -3   7   3    0.50    1.18
   3  -7  -2   65.24    3.51
  -3   7   2   65.54    2.96
   3  -7  -1   90.86    4.16
  -3   7   1   95.72    3.81
   3  -7   0  462.47   16.47
  -3   7   0  447.73   15.17
   3  -7   1  422.15   15.13
  -3   7  -1  437.62   15.41
   3  -7   2    3.53    0.71
   3  -7   3    8.11    0.91
  -3   7  -3    7.00    0.99
   3  -7   4    7.74    0.87
  -3   7  -4   11.27    1.25
   3  -7   5  508.98   19.40
  -3   7  -5  631.29   22.45
   3  -7   6 1675.14   57.05
  -3   7  -6 1733.45   57.30
   3  -7   7  718.15   25.42
  -3   7  -7  711.65   27.20
   3  -7   8  605.42   24.44
  -3   7  -8  600.20   22.32
   3  -7   9  441.04   12.70
   3  -7  10  338.03   14.51
  -3   7 -10  336.91   12.58
   3  -7  11  816.33   22.90
   3  -7  12  252.03    8.49
  -3   7 -12  249.65   11.91
   3  -7  13  548.00   15.25
   3  -6 -10   17.20    3.92
  -3   6  10   13.96    2.75
   3  -6  -9    8.33    2.04
  -3   6   9    3.89    2.00
   3  -6  -8   81.69    4.95
  -3   6   8   76.51    3.72
   3  -6  -7    1.33    1.77
  -3   6   7    2.80    1.57
   3  -6  -6   28.93    2.39
  -3   6   6   29.48    1.64
   3  -6  -5   93.32    4.28
  -3   6   5   90.57    4.18
   3  -6  -4    2.00    1.37
  -3   6   4    2.56    0.82
   3  -6  -3   85.16    3.86
  -3   6   3   80.83    3.77
   3  -6  -2  751.02   25.67
  -3   6   2  787.85   27.75
   3  -6  -1  577.72   19.97
  -3   6   1  607.32   21.89
   3  -6   0 1254.71   44.38
  -3   6   0 1262.50   42.84
   3  -6   1  779.92   28.21
  -3   6  -1  802.17   28.82
   3  -6   2   65.46    2.32
  -3   6  -2   62.32    2.70
   3  -6   3   56.59    2.99
  -3   6  -3   58.87    2.74
   3  -6   4  412.83   10.56
  -3   6  -4  417.26   14.61
   3  -6   5 1490.42   38.56
  -3   6  -5 1496.11   51.39
   3  -6   6  568.41   15.79
  -3   6  -6  561.53   20.54
   3  -6   7  616.76   16.50
  -3   6  -7  614.34   15.29
  -3   6  -8 1304.02   47.98
   3  -6   9  665.79   25.15
  -3   6  -9  663.19   24.36
   3  -6  10  814.14   22.57
  -3   6 -10  840.26   31.78
   3  -6  11 1093.82   42.36
  -3   6 -11 1072.99   27.75
   3  -6  12  345.98   11.59
   3  -6  13  420.69   16.63
   3  -5 -11   23.86    3.65
  -3   5  11   32.35    3.14
   3  -5 -10  101.51    4.92
  -3   5  10  112.85    8.01
   3  -5  -9    3.74    2.33
  -3   5   9    3.00    1.49
   3  -5  -8   11.16    2.19
  -3   5   8   14.29    1.53
   3  -5  -7  141.16    6.75
  -3   5   7  147.50    6.72
   3  -5  -6  274.63   10.54
  -3   5   6  286.60   11.09
   3  -5  -5   56.50    3.11
  -3   5   5   59.04    3.61
   3  -5  -4  223.73    9.68
  -3   5   4  224.25   10.54
   3  -5  -3  560.86   19.57
  -3   5   3  554.84   18.83
   3  -5  -2  695.53   25.81
  -3   5   2  661.85   24.48
   3  -5  -1  812.09   29.12
  -3   5   1  806.91   29.79
   3  -5   0 1731.45   42.96
  -3   5   0 1744.81   57.26
   3  -5   1 1114.00   38.83
  -3   5  -1 1168.84   40.52
   3  -5   2  419.44   16.24
  -3   5  -2  432.08   17.06
   3  -5   3  151.34    6.02
  -3   5  -3  164.06    7.06
   3  -5   4 1565.21   38.05
  -3   5  -4 1590.19   38.93
   3  -5   5  953.73   25.47
  -3   5  -5  996.46   36.22
   3  -5   6 1225.78   32.15
  -3   5  -6 1221.74   30.50
   3  -5   7 1162.68   29.62
  -3   5  -7 1165.82   41.17
   3  -5   8 1739.89   64.49
  -3   5  -8 1678.44   61.06
   3  -5   9 1081.24   37.84
  -3   5  -9 1052.08   38.44
   3  -5  10  557.79   16.02
  -3   5 -10  546.21   15.41
   3  -5  11  448.31   16.51
   3  -5  12   69.25    2.80
   3  -5  13   31.40    4.09
  -3   5 -13   17.02    4.48
   3  -4 -12   74.31    4.94
  -3   4  12   70.38    4.68
   3  -4 -11  214.17   10.90
  -3   4  11  220.49    8.64
   3  -4 -10   38.23    3.21
  -3   4  10   43.83    2.82
   3  -4  -9  440.61   17.84
  -3   4   9  466.77   19.25
   3  -4  -8  545.70   20.31
  -3   4   8  567.52   15.53
   3  -4  -7  387.51   15.47
  -3   4   7  398.93   15.08
   3  -4  -6  784.72   27.93
  -3   4   6  817.26   29.23
   3  -4  -5   22.86    2.01
  -3   4   5   20.05    1.53
   3  -4  -4  602.64   21.72
  -3   4   4  572.53   20.27
   3  -4  -3  799.99   28.13
  -3   4   3  811.55   27.98
   3  -4  -2 1064.43   39.03
  -3   4   2  969.36   33.64
   3  -4  -1 1724.38   61.28
  -3   4   1 1772.40   59.33
   3  -4   0 2362.23   80.21
  -3   4   0 2378.00   78.87
   3  -4   1 2020.33   68.09
  -3   4  -1 2065.86   70.63
   3  -4   2 3029.97  101.59
  -3   4  -2 3082.67   98.25
   3  -4   3 2059.24   50.38
  -3   4  -3 2041.79   69.29
   3  -4   4  866.29   22.47
  -3   4  -4  866.87   30.61
   3  -4   5  213.18    6.80
  -3   4  -5  214.66    6.45
   3  -4   6  418.91   11.74
  -3   4  -6  420.77   18.86
   3  -4   7  519.92   14.33
  -3   4  -7  513.75   20.25
   3  -4   8 1090.48   27.62
   3  -4   9  328.62   14.26
  -3   4  -9  349.23   14.24
   3  -4  10  118.00    6.64
  -3   4 -10  111.54    5.75
  -3   4 -11    6.30    2.75
   3  -4  12    2.24    2.86
  -3   4 -12    4.99    2.41
   3  -4  13    1.60    2.31
   3  -3 -12  173.47    8.42
  -3   3  12  183.49    6.37
   3  -3 -11  255.09   11.95
  -3   3  11  268.37    9.38
   3  -3 -10  588.26   25.19
  -3   3  10  607.24   23.16
  -3   3   9 1373.80   36.89
   3  -3  -8 1009.70   38.39
  -3   3   8 1023.39   39.10
   3  -3  -7  335.11   14.94
  -3   3   7  328.05   14.26
   3  -3  -6  105.63    5.78
  -3   3   6  104.61    4.64
   3  -3  -5  851.90   30.47
  -3   3   5  874.10   31.17
   3  -3  -4 1895.93   66.02
  -3   3   4 1978.94   71.20
   3  -3  -3 1394.76   50.41
  -3   3   3 1335.32   47.16
   3  -3  -2 1748.86   59.27
  -3   3   2 1770.03   59.39
   3  -3  -1 3526.65  119.54
  -3   3   1 3372.34  110.54
   3  -3   0 2182.14   75.70
  -3   3   0 2240.67   77.09
   3  -3   1 2692.91   65.34
  -3   3  -1 2717.70   90.74
   3  -3   2 2461.81   60.13
  -3   3  -2 2437.97   81.14
   3  -3   3  137.63    6.52
  -3   3  -3  130.77    6.42
   3  -3   4   53.36    3.07
   3  -3   5   67.12    3.80
  -3   3  -5   64.61    2.58
   3  -3   6  249.11    9.81
  -3   3  -6  248.67   11.09
   3  -3   7  265.97   12.62
  -3   3  -7  318.50   14.24
   3  -3   8   16.35    1.49
  -3   3  -8   17.92    1.68
   3  -3   9   66.23    2.80
  -3   3  -9   67.13    4.23
   3  -3  10   20.55    1.78
  -3   3 -10   21.01    3.15
   3  -3  11  129.57    4.52
   3  -3  12    5.82    2.00
  -3   3 -12    6.72    4.01
   3  -2 -13  109.22    6.41
  -3   2  13  102.41    5.50
   3  -2 -12  194.52    9.39
  -3   2  12  182.78    7.08
   3  -2 -11  743.02   29.78
  -3   2  11  747.09   20.88
   3  -2 -10  870.81   33.87
  -3   2  10  878.94   31.82
   3  -2  -9 1812.62   64.75
  -3   2   9 1890.99   52.63
   3  -2  -8 1545.51   57.34
  -3   2   8 1571.92   39.58
   3  -2  -7  407.98   15.06
  -3   2   7  419.94   16.66
   3  -2  -6  952.03   37.78
  -3   2   6  955.69   34.77
   3  -2  -5 1102.50   38.95
  -3   2   5 1047.57   25.44
   3  -2  -4 1003.60   34.18
  -3   2   4  953.50   33.35
   3  -2  -3 1156.04   41.61
  -3   2   3 1114.17   39.50
   3  -2  -2  926.39   33.45
  -3   2   2  926.73   23.22
   3  -2  -1 2814.27   67.25
   3  -2   0  252.17    9.62
   3  -2   1  237.39   10.41
  -3   2  -1  233.16    8.66
   3  -2   2  336.16   14.46
   3  -2   3   42.06    2.68
  -3   2  -3   44.64    2.54
   3  -2   4   15.72    1.01
  -3   2  -4   15.72    1.54
   3  -2   5    5.16    0.86
   3  -2   6   19.09    1.96
  -3   2  -6   15.14    1.39
   3  -2   7   81.10    4.24
  -3   2  -7   87.20    3.51
   3  -2   8   17.02    1.61
  -3   2  -8   15.17    1.66
   3  -2   9   16.57    2.76
  -3   2  -9   10.45    2.95
   3  -2  10   51.04    2.76
  -3   2 -10   51.72    4.32
   3  -2  11  346.13    9.85
   3  -2  12   41.00    2.78
   3  -1 -13  367.04   16.51
  -3   1  13  365.44   16.58
   3  -1 -12  662.30   25.43
  -3   1  12  655.70   20.21
   3  -1 -11  836.92   33.00
  -3   1  11  856.55   21.93
   3  -1 -10 1309.74   46.74
  -3   1  10 1307.46   32.90
   3  -1  -9 1607.69   55.50
  -3   1   9 1633.79   60.57
   3  -1  -8  512.36   19.31
  -3   1   8  518.81   21.34
   3  -1  -7 1108.49   40.31
  -3   1   7 1083.36   27.52
   3  -1  -6  502.95   18.17
   3  -1  -5  798.74   29.24
  -3   1   5  748.62   27.31
   3  -1  -4  242.97    9.95
   3  -1  -3   62.24    3.02
  -3   1   3   54.06    2.64
   3  -1  -2   10.85    1.01
  -3   1   2    9.40    1.06
   3  -1  -1  289.55   10.96
  -3   1   1  277.57   10.10
   3  -1   0  393.17   15.99
  -3   1   0  383.98   15.06
   3  -1   1  174.59    5.39
  -3   1  -1  172.49    7.54
   3  -1   2    4.69    0.70
  -3   1  -2    5.02    0.78
   3  -1   3  145.90    5.02
  -3   1  -3  144.37    5.00
   3  -1   4  147.46    6.72
  -3   1  -4  156.50    5.53
  -3   1  -5   78.91    4.14
   3  -1   6  403.87   15.83
   3  -1   7   21.07    1.60
  -3   1  -7   15.55    2.04
   3  -1   8  260.28   11.50
  -3   1  -8  271.59    8.49
   3  -1   9  245.86    7.98
  -3   1  -9  237.20    7.62
   3  -1  10  469.11   13.41
   3  -1  11  507.11   14.26
  -3   1 -11  462.74   13.84
   3  -1  12  147.54    5.43
  -3   1 -12  147.45    7.89
   3   0 -14  327.36   15.96
  -3   0  14  322.87    9.79
  -3   0  13  963.48   26.14
   3   0 -12  421.31   18.24
  -3   0  12  400.85   14.57
   3   0 -11  366.45    9.66
  -3   0  11  359.29   10.57
   3   0 -10  361.10   14.55
  -3   0  10  309.84   12.88
   3   0  -9  144.00    6.40
   3   0  -8 1550.62   54.31
  -3   0   8 1558.03   53.83
   3   0  -7 1590.25   53.45
  -3   0   7 1571.77   37.66
   3   0  -6   47.52    2.16
  -3   0   6   46.57    2.48
   3   0  -5   16.53    1.26
  -3   0   5   17.36    1.52
   3   0  -4 1360.94   48.29
  -3   0   4 1441.46   50.59
   3   0  -3  261.02   10.92
  -3   0   3  263.72   10.01
   3   0  -2   17.36    1.41
  -3   0   2   17.87    1.11
   3   0  -1  301.68    8.33
  -3   0   1  294.37   10.49
   3   0   0  325.79   12.74
  -3   0   0  312.58   11.74
   3   0   1  200.82    7.71
   3   0   2  875.05   31.44
  -3   0  -2  866.16   32.03
   3   0   3  352.47   14.10
  -3   0  -3  360.22   10.66
   3   0   4  508.49   17.50
   3   0   5 1037.90   37.19
  -3   0  -5  987.93   25.67
   3   0   6  637.39   17.26
  -3   0  -6  639.07   25.28
   3   0   7  194.96    6.38
   3   0   8  923.68   34.24
  -3   0  -8  924.42   23.31
   3   0   9  997.16   36.39
   3   0  10  584.96   16.63
  -3   0 -10  546.52   24.34
   3   0  11  160.93    5.61
  -3   0 -11  164.71    7.67
   3   1 -14  606.65   23.61
   3   1 -12   28.72    3.04
  -3  -1  12   24.89    1.85
   3   1 -11    8.81    2.11
  -3  -1  11    7.35    1.31
   3   1 -10  114.62    5.35
  -3  -1  10  108.83    3.66
   3   1  -9  323.75   12.84
  -3  -1   9  316.73   10.90
   3   1  -8  319.48   13.40
  -3  -1   8  296.50    8.91
   3   1  -7  229.61    8.65
  -3  -1   7  225.54    8.48
   3   1  -6  524.07   18.55
  -3  -1   6  503.06   19.25
   3   1  -5  551.05   20.09
  -3  -1   5  571.20   22.84
   3   1  -4   95.54    4.18
  -3  -1   4   82.61    3.85
   3   1  -3  492.18   18.51
  -3  -1   3  518.23   19.03
   3   1  -2  154.52    6.80
  -3  -1   2  161.21    7.31
   3   1  -1   15.41    0.98
  -3  -1   1   15.22    1.11
   3   1   0   19.85    1.03
  -3  -1   0   21.05    1.29
   3   1   1 1908.04   65.38
  -3  -1  -1 1859.83   46.25
   3   1   2 3415.21   80.28
  -3  -1  -2 3407.83  118.63
   3   1   3  749.62   18.67
  -3  -1  -3  758.80   26.84
   3   1   4 1395.84   35.60
  -3  -1  -4 1383.25   33.90
   3   1   5  624.84   17.53
  -3  -1  -5  647.05   23.96
   3   1   6  707.13   18.58
  -3  -1  -6  728.76   26.83
   3   1   7  410.05   11.23
  -3  -1  -7  397.83   15.63
   3   1   8  629.31   17.96
  -3  -1  -8  629.27   16.51
   3   1   9  586.77   21.98
   3   1  10  222.32    7.08
   3   1  11   65.63    3.15
  -3  -1 -11   56.48    5.03
   3   2 -15  100.00    6.53
  -3  -2  15   83.63    5.10
   3   2 -14   34.71    4.55
  -3  -2  14   29.44    2.40
   3   2 -13   24.33    3.61
  -3  -2  13   16.70    1.80
  -3  -2  12   35.81    3.14
   3   2 -11   95.66    5.28
  -3  -2  11  103.39    3.59
   3   2 -10  162.13    7.11
  -3  -2  10  157.19    4.94
   3   2  -9    4.25    1.54
  -3  -2   9    2.87    0.98
   3   2  -8   12.49    1.21
  -3  -2   8   12.29    1.57
   3   2  -7   66.19    3.42
  -3  -2   7   66.95    2.83
   3   2  -6  738.34   26.25
  -3  -2   6  731.30   19.09
   3   2  -5  250.04    9.83
  -3  -2   5  264.82   10.23
   3   2  -4  746.91   27.12
  -3  -2   4  788.09   27.35
   3   2  -3 1607.03   55.17
  -3  -2   3 1648.87   55.11
   3   2  -2 1147.99   39.18
  -3  -2   2 1128.96   37.17
   3   2  -1 2181.64   71.73
  -3  -2   1 2261.15   77.18
   3   2   0 1876.37   62.99
  -3  -2   0 1874.09   63.34
   3   2   1 1544.18   52.22
   3   2   2  990.71   35.28
   3   2   3  241.60    7.47
  -3  -2  -3  231.62   10.27
   3   2   4  591.78   16.63
  -3  -2  -4  594.87   21.93
   3   2   5 1231.88   30.85
   3   2   6  393.92   11.70
  -3  -2  -6  393.57   19.74
   3   2   7  378.02   11.62
  -3  -2  -7  360.64   14.39
   3   2   8  302.95    9.36
  -3  -2  -8  320.41   13.51
   3   2   9  196.44    6.04
   3   2  10  124.98    5.03
   3   2  11   60.86    2.91
   3   3 -15   62.09    5.50
  -3  -3  15   68.73    3.84
   3   3 -14   11.80    3.50
  -3  -3  14    9.19    2.39
  -3  -3  13   97.55    3.62
  -3  -3  12   73.22    4.60
   3   3 -11   56.05    3.51
  -3  -3  11   47.27    3.07
   3   3 -10   79.19    4.65
  -3  -3  10   90.11    3.26
   3   3  -9  191.30    8.09
  -3  -3   9  196.53    5.87
   3   3  -8  682.05   23.78
  -3  -3   8  670.27   16.94
   3   3  -7 1651.47   58.52
  -3  -3   7 1659.89   53.16
   3   3  -6  303.75   11.67
  -3  -3   6  283.17   11.25
   3   3  -5  945.55   33.90
  -3  -3   5  907.37   30.89
   3   3  -4 2264.67   77.37
  -3  -3   4 2730.31   95.15
   3   3  -3 3821.33  131.38
  -3  -3   3 3715.97  123.41
   3   3  -2  650.87   22.55
  -3  -3   2  640.63   22.75
   3   3  -1 3539.58  115.80
  -3  -3   1 3516.43  123.19
  -3  -3   0 1467.74   51.32
   3   3   1  519.48   19.54
   3   3   2  306.65   10.86
   3   3   4  637.46   16.74
  -3  -3  -4  622.84   21.92
   3   3   5  632.54   16.42
   3   3   6  217.52    6.79
   3   3   7  328.65    9.99
   3   3   8    9.95    1.70
   3   3   9   27.68    2.51
   3   3  10   51.83    2.99
   3   4 -15  273.80   12.06
  -3  -4  15  264.37    8.54
   3   4 -14   83.91    5.86
  -3  -4  14   78.48    4.13
   3   4 -13  255.91   10.72
  -3  -4  13  245.57   10.86
  -3  -4  12  508.56   19.64
  -3  -4  11 1166.84   41.63
   3   4 -10  542.82   19.78
  -3  -4  10  547.96   20.20
   3   4  -9  671.01   24.32
  -3  -4   9  677.97   18.34
  -3  -4   8 1177.03   42.49
   3   4  -7 1045.46   35.77
  -3  -4   7 1063.84   37.64
  -3  -4   6  623.93   22.20
   3   4  -5 1599.32   54.38
  -3  -4   5 1633.48   55.15
   3   4  -4 1623.48   53.69
  -3  -4   4 1553.21   51.61
   3   4  -3 1087.22   37.18
   3   4  -2  758.27   25.58
  -3  -4   2  752.06   25.93
   3   4  -1 1593.14   51.75
  -3  -4   1 1566.97   52.73
   3   4   0  723.96   24.17
   3   4   2    9.93    1.29
   3   4   3  669.13   17.62
   3   4   4  364.37   13.37
   3   4   5  154.92    5.02
   3   4   6   14.16    1.58
   3   4   7   42.06    2.33
   3   4   8    2.29    1.90
  -3  -4  -8    2.04    3.22
   3   4   9    1.93    1.80
   3   5 -16   93.13    6.48
  -3  -5  16   93.60    5.03
  -3  -5  15  412.03   19.72
   3   5 -14  325.65   13.56
  -3  -5  14  331.65    9.91
  -3  -5  13  672.47   24.20
   3   5 -12 1551.26   55.45
  -3  -5  12 1504.25   38.24
  -3  -5  11  716.05   24.59
   3   5 -10  912.53   32.45
  -3  -5  10  934.60   23.27
   3   5  -9  673.34   25.61
  -3  -5   9  645.70   23.31
  -3  -5   8  771.12   28.77
   3   5  -7  975.43   32.15
  -3  -5   7  976.36   32.26
  -3  -5   6  124.37    4.73
   3   5  -5 1200.68   39.77
  -3  -5   5 1269.52   43.98
   3   5  -4 1174.31   39.47
  -3  -5   4 1133.94   37.45
   3   5  -3  416.60   14.07
   3   5  -2  196.76    7.07
   3   5  -1  288.93   10.09
   3   5   0  171.33    6.92
   3   5   1  174.99    7.15
   3   5   2  481.05   12.26
   3   5   3  154.51    4.39
   3   5   4    3.22    1.46
   3   5   5   45.38    1.92
   3   5   6   54.04    2.47
   3   5   7   14.42    1.89
   3   5   8    6.01    3.09
   3   5   9   21.25    3.37
  -3  -6  16  306.22    9.97
  -3  -6  15  314.45    8.84
  -3  -6  14  514.31   18.91
   3   6 -13 1093.04   38.84
  -3  -6  13 1071.27   35.61
   3   6 -12  782.46   29.40
  -3  -6  12  851.62   31.20
   3   6 -11  366.25   13.49
  -3  -6  11  366.73   13.87
  -3  -6  10  830.44   28.96
   3   6  -9  258.87    9.62
  -3  -6   9  245.92    6.68
  -3  -6   8  300.23   12.19
  -3  -6   7  206.13    8.33
  -3  -6   6  323.32   11.44
  -3  -6   5  645.90   21.38
   3   6  -1   29.67    0.85
   3   6   0   46.45    1.53
   3   6   1   88.51    4.25
   3   6   2   13.84    1.25
   3   6   3   27.59    1.89
   3   6   4  136.36    4.32
   3   6   5  147.71    4.87
   3   6   6   11.36    1.73
   3   6   7   17.16    3.13
   3   6   8   18.00    4.45
   3   7 -16  279.29   13.43
  -3  -7  16  316.43   10.17
   3   7 -15  165.30    8.46
  -3  -7  15  177.20    8.37
  -3  -7  14  578.79   20.46
   3   7 -13  301.30   13.08
  -3  -7  13  289.16    8.64
  -3  -7  12  243.17    9.38
  -3  -7  11  105.67    5.45
  -3  -7  10  677.46   25.59
  -3  -7   9  628.30   23.03
  -3  -7   8   81.69    2.72
  -3  -7   7   49.76    2.54
  -3  -7   6  167.17    6.83
   3   7   0   25.39    1.07
   3   7   1   34.81    1.23
   3   7   2   60.76    2.96
   3   7   3   70.34    3.25
   3   7   4  123.21    4.12
   3   7   5  104.49    3.21
   3   7   6   55.49    5.06
   3   8 -16  172.67    9.75
  -3  -8  16  168.21    5.58
  -3  -8  15   54.78    3.09
  -3  -8  14  185.13    8.48
  -3  -8  13  218.38    9.23
  -3  -8  12  153.14    4.76
  -3  -8  11  225.66    9.42
  -3  -8  10  461.13   16.77
  -3  -8   9    0.50    0.79
  -3  -8   8   33.30    1.88
  -3  -8   7   12.73    0.85
   3   8   1   56.39    2.12
   3   8   2   85.82    3.90
   3   8   3   93.73    2.88
   3   8   4   23.61    2.15
   3   8   5   83.87    3.15
  -3  -9  16   43.90    3.00
  -3  -9  15    7.46    2.20
  -3  -9  14  129.10    4.45
   3   9 -13   68.23    4.21
  -3  -9  13   58.01    2.90
  -3  -9  12    0.13    2.04
  -3  -9  11    0.31    1.78
  -3  -9  10  145.17    6.75
  -3  -9   8   27.91    1.57
   3   9   3   14.51    1.57
  -3 -10  16    0.20    3.43
  -3 -10  15    4.98    1.81
   3  10 -14   -0.48    2.64
  -3 -10  14   -0.51    1.56
  -3 -10  13   18.77    1.74
  -3 -10  12  115.59    6.33
  -3 -10  11  150.03    4.69
  -3 -10  10  295.04   11.45
  -3 -10   9   67.29    3.25
  -3 -11  16    7.74    2.39
  -3 -11  15   22.80    2.12
  -3 -11  14   74.16    5.19
  -3 -11  13  102.74    6.42
  -3 -11  12  241.28    9.63
  -3 -11  11   50.70    3.02
  -3 -12  14   85.55    5.49
  -3 -12  12   37.84    2.12
  -4  14  -3   18.85    3.33
  -4  14  -5   14.70    2.24
   4 -14   6    9.52    2.05
   4 -14   7   21.15    2.41
  -4  14  -7   23.63    3.96
   4 -14   8   19.36    2.20
  -4  14  -8   20.28    4.23
   4 -14   9   24.91    2.58
   4 -14  10    5.83    1.90
   4 -13  -1   55.21    4.73
   4 -13   0   59.93    4.45
   4 -13   1   16.62    2.62
   4 -13   2   41.25    3.41
   4 -13   3    7.24    2.25
  -4  13  -3    6.57    2.11
  -4  13  -4    8.53    2.20
   4 -13   5    3.73    1.99
  -4  13  -5    4.47    2.32
   4 -13   6   32.65    2.16
  -4  13  -6   29.83    2.72
   4 -13   7    3.21    2.04
  -4  13  -7   -1.33    2.11
   4 -13   8    1.94    2.16
   4 -13   9   -0.40    2.32
   4 -13  10    4.90    2.75
   4 -13  11   21.27    4.10
  -4  13 -11   21.43    3.97
  -4  12   3   24.43    2.79
   4 -12  -2   86.58    4.88
  -4  12   2   88.39    4.84
   4 -12  -1   60.94    3.81
  -4  12   1   64.75    3.43
   4 -12   0   17.36    2.45
  -4  12   0   19.77    1.96
   4 -12   1    2.62    2.23
  -4  12  -1    0.59    1.89
   4 -12   2    6.83    2.24
  -4  12  -2    4.88    1.97
   4 -12   3    0.00    1.56
  -4  12  -4    1.19    1.84
   4 -12   5    1.44    1.88
  -4  12  -5    0.32    2.11
   4 -12   6   21.82    2.39
  -4  12  -6   19.42    2.49
   4 -12   7   52.12    3.58
  -4  12  -7   45.73    3.73
   4 -12   8   22.55    2.80
   4 -12   9   22.95    2.08
  -4  12  -9   23.49    3.13
  -4  12 -10    6.00    3.15
   4 -12  11   88.21    5.04
  -4  12 -11   73.77    4.95
   4 -12  12   53.80    3.26
  -4  12 -12   49.55    6.60
  -4  11   5   59.39    3.37
   4 -11  -4    2.36    2.51
   4 -11  -3    5.23    2.51
  -4  11   3    3.54    2.00
   4 -11  -2    0.25    2.25
  -4  11   2   -0.31    1.93
   4 -11  -1    5.27    2.23
   4 -11   0   10.46    2.25
  -4  11   0   15.16    2.05
   4 -11   1    1.38    2.04
  -4  11  -1    1.56    1.81
   4 -11   2   22.47    1.97
  -4  11  -2   23.96    2.25
   4 -11   3    1.48    1.11
  -4  11  -3   -0.23    1.80
   4 -11   4   31.83    2.49
   4 -11   5  121.62    5.28
  -4  11  -5  122.70    6.20
   4 -11   6  198.58    8.77
   4 -11   7  112.36    3.98
  -4  11  -7  121.50    6.00
   4 -11   8  107.99    4.80
   4 -11   9  150.63    6.95
  -4  11  -9  164.42    8.97
   4 -11  10  328.15   14.31
   4 -11  11  251.11    7.71
   4 -11  12  317.96    9.20
   4 -10  -7   30.41    5.78
  -4  10   7   25.90    4.32
   4 -10  -6   19.80    3.54
  -4  10   6   15.20    3.15
   4 -10  -5    0.55    2.41
  -4  10   5    2.24    2.07
   4 -10  -4   26.76    3.55
  -4  10   4   26.67    2.44
   4 -10  -3   26.38    3.14
  -4  10   3   27.97    2.09
   4 -10  -2   91.08    5.08
  -4  10   2   92.04    4.06
   4 -10  -1    2.01    1.89
  -4  10   1    2.95    1.72
   4 -10   0    4.92    1.86
  -4  10   0    7.73    1.76
  -4  10  -1   25.08    2.13
   4 -10   2  222.15    9.26
   4 -10   3   81.26    3.59
  -4  10  -3   83.79    4.09
  -4  10  -4  778.43   27.68
  -4  10  -5  741.21   26.53
   4 -10   6  435.36   11.91
  -4  10  -6  439.21   16.22
   4 -10   7  163.69    7.50
  -4  10  -7  174.79    8.34
   4 -10   8  156.60    8.69
  -4  10  -8  154.47    7.46
   4 -10   9  684.92   26.53
  -4  10  -9  700.64   26.93
  -4  10 -10  571.71   21.53
   4 -10  11  157.04    5.62
  -4  10 -11  149.93    9.20
   4 -10  12  435.31   12.23
   4  -9  -8   -0.07    3.30
   4  -9  -7    4.27    3.00
  -4   9   7    3.27    2.13
   4  -9  -6   54.12    3.84
  -4   9   6   44.75    3.78
   4  -9  -5   19.15    2.40
  -4   9   5   17.29    1.80
   4  -9  -4  128.31    5.50
  -4   9   4  128.34    5.31
   4  -9  -3  202.46    9.15
  -4   9   3  202.87    7.67
   4  -9  -2  121.93    5.59
  -4   9   2  134.98    5.38
   4  -9  -1  208.15    8.46
  -4   9   1  225.52    8.41
   4  -9   0  114.58    5.12
  -4   9   0  114.19    4.67
   4  -9   1  268.57   10.21
  -4   9  -1  275.09    9.85
   4  -9   2  701.00   28.54
   4  -9   3  440.35   15.99
   4  -9   5  557.93   20.52
   4  -9   6  292.49   12.25
  -4   9  -6  306.21   12.34
   4  -9   7  200.26    6.34
  -4   9  -7  204.05    9.21
   4  -9   9  685.55   25.39
  -4   9  -9  705.63   26.58
   4  -9  10  338.16   10.35
  -4   9 -10  329.78   14.49
   4  -9  11   61.93    3.11
  -4   9 -11   65.04    5.51
   4  -9  12  373.18   17.09
  -4   9 -12  377.25   21.76
   4  -8  -9    1.21    3.63
   4  -8  -8   37.32    5.42
  -4   8   8   33.10    2.64
   4  -8  -7  266.83   11.79
  -4   8   7  258.91   12.70
   4  -8  -6   88.19    5.02
  -4   8   6   92.51    5.04
   4  -8  -5  264.96   11.01
  -4   8   5  275.98   11.28
   4  -8  -4  447.30   19.06
  -4   8   4  471.94   18.98
   4  -8  -3  434.02   16.32
  -4   8   3  446.10   16.07
   4  -8  -2  482.24   18.34
  -4   8   2  486.40   16.90
   4  -8  -1  359.04   13.79
  -4   8   1  356.43   13.33
   4  -8   0  587.38   22.70
  -4   8   0  620.75   22.47
   4  -8   1  529.91   18.98
  -4   8  -1  580.98   19.70
   4  -8   2  500.67   13.47
  -4   8  -2  547.86   19.88
   4  -8   3  530.96   17.81
  -4   8  -3  552.23   20.80
  -4   8  -4  763.68   26.41
   4  -8   5  370.78   10.73
   4  -8   6  252.68    6.99
  -4   8  -6  246.10    9.59
   4  -8   8  360.39   10.05
  -4   8  -8  350.24   16.07
   4  -8   9  210.25    6.47
  -4   8  -9  216.34   10.77
   4  -8  11   15.06    2.31
  -4   8 -11   19.02    3.61
   4  -8  12  279.18    9.00
  -4   8 -12  277.88   12.19
   4  -7 -10   67.11    7.54
  -4   7  10   65.05    3.98
  -4   7   9   95.98    4.64
   4  -7  -8  517.47   22.72
  -4   7   8  517.88   18.85
   4  -7  -7  363.73   15.17
  -4   7   7  372.66   16.77
   4  -7  -6  141.54    6.96
  -4   7   6  133.21    5.73
   4  -7  -5  756.73   30.11
  -4   7   5  781.87   28.81
   4  -7  -4  662.53   25.20
  -4   7   4  717.36   24.18
   4  -7  -3  852.76   29.01
  -4   7   3  942.02   31.68
   4  -7  -2  323.58   11.80
  -4   7   2  302.01   11.66
   4  -7  -1  528.17   19.53
  -4   7   1  541.92   20.00
   4  -7   0  751.47   25.43
  -4   7   0  784.80   27.23
   4  -7   1  477.35   13.23
  -4   7  -1  531.56   18.95
   4  -7   2  162.50    6.49
   4  -7   3  508.75   17.05
  -4   7  -3  548.67   20.27
   4  -7   4  226.15    9.15
   4  -7   5   74.68    3.43
  -4   7  -5   81.23    3.55
   4  -7   6  497.07   13.02
  -4   7  -6  502.48   18.26
   4  -7   7  660.18   26.33
   4  -7   8  183.28    5.98
  -4   7  -8  183.44    6.00
   4  -7   9   12.25    1.86
  -4   7  -9   14.33    2.84
   4  -7  10   10.60    2.13
  -4   7 -10   11.37    2.08
   4  -7  11   46.37    4.28
  -4   7 -11   38.84    2.82
   4  -7  12    4.10    1.89
  -4   7 -12    2.11    3.57
  -4   6  10  321.18    9.52
   4  -6  -9  280.75   11.95
  -4   6   9  278.63   12.90
   4  -6  -8  215.75    9.64
  -4   6   8  211.39    9.78
   4  -6  -7  571.41   24.44
  -4   6   7  635.06   23.71
   4  -6  -6  306.30   12.59
  -4   6   6  315.49   11.86
   4  -6  -5 1238.08   43.28
  -4   6   5 1278.50   44.05
   4  -6  -4 1178.59   40.70
  -4   6   4 1259.11   44.33
   4  -6  -3  166.95    7.55
  -4   6   3  166.12    7.35
   4  -6  -2  174.84    7.58
  -4   6   2  163.76    6.57
   4  -6  -1  611.87   15.65
  -4   6   1  605.65   21.01
   4  -6   0  630.54   22.74
  -4   6   0  647.75   22.75
   4  -6   1  239.33    8.89
  -4   6  -1  246.98    8.80
   4  -6   2   52.03    2.51
  -4   6  -2   52.00    2.84
   4  -6   3  699.83   26.54
  -4   6  -3  699.04   17.58
   4  -6   4  143.31    5.06
  -4   6  -4  143.87    4.63
   4  -6   5  327.91    9.35
  -4   6  -5  338.03   13.06
   4  -6   6   75.15    4.65
  -4   6  -6   59.33    3.81
   4  -6   7   15.37    1.66
  -4   6  -7   18.75    2.27
   4  -6   8   57.45    2.71
  -4   6  -8   58.79    4.49
   4  -6   9  106.63    3.93
  -4   6  -9  106.67    5.53
  -4   6 -10   15.73    3.06
   4  -6  11   25.30    2.08
  -4   6 -11   24.81    3.68
   4  -6  12  346.95   16.93
  -4   6 -12  390.55   12.89
   4  -5 -11  444.97   19.31
  -4   5  11  433.27   17.68
   4  -5 -10  440.80   20.64
  -4   5  10  428.18   11.99
   4  -5  -9  241.10   10.41
  -4   5   9  236.42    7.77
   4  -5  -8  344.34   14.27
  -4   5   8  348.60    9.68
   4  -5  -7  459.75   17.84
  -4   5   7  472.29   18.24
   4  -5  -6  437.34   17.01
  -4   5   6  398.28   14.79
   4  -5  -5 1048.08   37.53
  -4   5   5 1078.27   35.75
   4  -5  -4   75.68    3.66
  -4   5   4   87.91    3.98
   4  -5  -3  235.55   10.26
  -4   5   3  249.08    9.87
   4  -5  -2  615.72   20.67
  -4   5   2  592.93   19.49
   4  -5  -1  305.73   12.39
  -4   5   1  295.26   10.93
   4  -5   0  210.69    9.30
  -4   5   0  219.61    8.81
   4  -5   1  101.93    4.90
  -4   5  -1   99.85    2.96
   4  -5   2   52.14    2.94
  -4   5  -2   54.27    2.70
   4  -5   3  385.55   10.49
  -4   5  -3  383.24   15.51
   4  -5   4   74.81    2.86
  -4   5  -4   78.40    3.69
   4  -5   5  538.97   15.01
  -4   5  -5  525.49   14.78
   4  -5   6  258.85   12.26
  -4   5  -6  263.30    8.41
   4  -5   7  247.08   11.36
  -4   5  -7  254.09    7.59
   4  -5   8  179.17    6.08
  -4   5  -8  175.98    8.37
   4  -5   9   61.42    3.14
  -4   5  -9   63.12    4.09
   4  -5  10  392.34   11.83
  -4   5 -10  407.06   18.77
   4  -5  11  157.30    7.74
  -4   5 -11  153.39    8.17
   4  -4 -12  313.59   17.97
  -4   4  12  318.94   13.12
   4  -4 -11  211.67   11.63
  -4   4  11  212.21    8.89
   4  -4 -10  185.72    9.91
  -4   4  10  182.61    6.37
   4  -4  -9  386.43   16.20
  -4   4   9  398.00   12.13
   4  -4  -8  188.21    8.03
  -4   4   8  180.80    7.43
   4  -4  -7  219.65    9.71
  -4   4   7  202.43    9.30
   4  -4  -6  801.02   31.25
  -4   4   6  778.39   29.09
   4  -4  -5  130.87    4.82
  -4   4   5  129.32    5.94
   4  -4  -4   39.33    2.67
  -4   4   4   39.06    2.12
   4  -4  -3   88.03    3.81
  -4   4   3   76.29    3.41
   4  -4  -2  378.90   14.58
  -4   4   2  397.90   15.00
   4  -4  -1    0.66    0.76
  -4   4   1    0.72    0.70
   4  -4   0  103.12    4.83
  -4   4   0  105.01    4.24
   4  -4   1   24.32    1.81
  -4   4  -1   27.43    1.29
   4  -4   2  346.89   12.50
  -4   4  -2  350.53   13.01
   4  -4   3  295.05   12.22
  -4   4  -3  288.81    8.41
   4  -4   4  670.75   25.30
  -4   4  -4  640.64   16.99
   4  -4   5  249.23    8.02
  -4   4  -5  240.86   11.23
   4  -4   6  492.92   19.73
   4  -4   7  873.36   34.38
  -4   4  -7  892.47   24.08
   4  -4   8  299.96   11.82
  -4   4  -8  325.99   12.93
   4  -4   9  523.14   19.22
  -4   4  -9  514.72   21.19
   4  -4  10  486.38   14.92
  -4   4 -10  484.36   13.35
   4  -4  11  140.10    5.03
  -4   4 -11  131.91    8.26
   4  -4  12  554.37   18.47
  -4   4 -12  550.95   17.68
   4  -3 -12   56.08    5.57
  -4   3  12   54.43    2.88
   4  -3 -11   44.64    4.05
  -4   3  11   38.19    2.59
  -4   3  10  520.79   14.24
   4  -3  -9  414.29   16.07
  -4   3   9  443.76   16.22
   4  -3  -8  180.14    7.82
  -4   3   8  187.03    5.67
   4  -3  -7   54.35    3.14
  -4   3   7   53.42    3.22
   4  -3  -6    3.19    1.45
  -4   3   6    8.87    1.50
   4  -3  -5  202.78    8.53
  -4   3   5  207.07    8.25
   4  -3  -4   72.35    3.74
  -4   3   4   77.11    3.19
   4  -3  -3   18.40    1.33
  -4   3   3   18.36    1.39
   4  -3  -2   95.23    4.64
  -4   3   2   93.05    4.32
   4  -3  -1 1099.65   42.01
  -4   3   1 1061.29   37.46
   4  -3   0 1293.78   44.24
   4  -3   1  840.87   21.76
   4  -3   2  394.55   13.94
  -4   3  -2  383.03   15.87
   4  -3   3  823.11   31.06
   4  -3   4  289.20   11.44
  -4   3  -4  291.48    8.92
   4  -3   5  624.61   16.97
  -4   3  -5  645.83   17.97
   4  -3   6 1185.63   43.42
  -4   3  -6 1208.19   31.41
   4  -3   7 1239.81   46.17
   4  -3   8  661.38   24.89
  -4   3  -8  673.90   24.59
   4  -3   9  434.60   12.42
  -4   3  -9  439.84   19.26
   4  -3  10  389.76   16.15
  -4   3 -10  384.35   11.43
   4  -3  11  149.95    5.49
  -4   3 -11  161.24    8.77
   4  -2 -13    2.04    4.57
  -4   2  13    4.63    1.65
   4  -2 -12    4.80    3.07
  -4   2  12    7.75    2.67
   4  -2 -10  146.57    7.14
  -4   2  10  139.93    4.71
   4  -2  -9    7.62    1.96
  -4   2   9    6.63    1.23
   4  -2  -8  144.25    6.61
  -4   2   8  179.82    8.48
   4  -2  -7  897.56   32.61
  -4   2   7  955.14   32.18
   4  -2  -6    6.38    1.52
  -4   2   6    7.55    1.06
   4  -2  -5  380.18   13.78
  -4   2   5  389.04   13.44
   4  -2  -4  200.45    8.56
   4  -2  -3  367.80   13.36
   4  -2  -2 2063.90   71.22
  -4   2   2 2087.73   69.48
   4  -2  -1 1789.96   60.39
  -4   2   1 1783.78   57.61
   4  -2   0  786.86   27.74
  -4   2   0  803.53   28.25
   4  -2   1  823.60   30.85
  -4   2  -1  851.32   22.45
   4  -2   2  637.09   16.50
  -4   2  -2  636.87   23.81
   4  -2   3  672.54   18.16
  -4   2  -3  673.33   17.52
   4  -2   4  500.90   14.45
  -4   2  -4  515.40   14.74
   4  -2   5 1074.61   28.21
  -4   2  -5 1117.18   28.29
   4  -2   6 1054.66   35.69
   4  -2   8  673.61   17.97
  -4   2  -8  646.53   26.22
   4  -2   9  467.06   13.68
  -4   2  -9  476.06   14.20
   4  -2  10  220.08    7.15
  -4   2 -10  218.55   11.96
   4  -2  11  166.36    6.53
  -4   2 -11  169.06    9.97
   4  -1 -13   17.20    3.66
  -4   1  13   15.77    2.32
   4  -1 -12   25.83    3.72
  -4   1  12   22.33    1.99
   4  -1 -11    7.06    2.79
  -4   1  11    5.94    1.33
   4  -1 -10  354.17   15.12
  -4   1  10  344.17   13.33
   4  -1  -9  538.04   21.27
  -4   1   9  534.30   20.40
   4  -1  -8  587.97   21.60
  -4   1   8  581.06   23.20
   4  -1  -7  293.76   12.15
  -4   1   7  299.41   13.05
   4  -1  -6  263.34   10.72
  -4   1   6  266.33    7.90
   4  -1  -5  824.74   28.58
  -4   1   5  878.51   30.88
   4  -1  -4 1158.58   40.84
  -4   1   4 1171.21   41.18
   4  -1  -3 2776.42   94.80
  -4   1   3 2727.97   91.77
   4  -1  -2 1947.77   65.30
  -4   1   2 1914.53   67.00
   4  -1  -1  746.56   26.06
  -4   1   1  741.08   27.51
   4  -1   0  598.35   16.22
  -4   1   0  599.69   21.62
   4  -1   1  818.04   30.56
  -4   1  -1  811.05   28.41
   4  -1   2  164.59    5.39
  -4   1  -2  167.38    7.58
   4  -1   3 2067.99   48.88
  -4   1  -3 2073.23   50.49
   4  -1   4 1710.27   56.50
  -4   1  -4 1721.82   58.51
   4  -1   5 1434.22   48.62
  -4   1  -5 1480.64   36.44
   4  -1   6  920.44   33.63
  -4   1  -6  902.68   24.79
   4  -1   7  305.69    9.52
  -4   1  -7  304.89   11.88
   4  -1   8  418.09   11.54
  -4   1  -8  417.34   19.70
   4  -1   9  234.06    8.57
  -4   1  -9  252.52   13.65
   4  -1  10   10.84    2.43
  -4   1 -10    8.83    3.51
   4  -1  11   57.09    3.76
  -4   1 -11   59.11    5.30
  -4   0  14  152.63    7.52
   4   0 -13  132.37    6.85
   4   0 -12  196.11   10.41
   4   0 -11  377.63   15.96
  -4   0  11  357.11   16.10
   4   0 -10 1342.19   46.79
  -4   0  10 1351.97   34.39
   4   0  -9 1253.22   45.55
  -4   0   9 1220.61   30.25
   4   0  -8  284.83   10.92
  -4   0   8  278.94   10.37
   4   0  -7  583.04   22.23
  -4   0   7  567.02   19.72
   4   0  -6  385.99   14.10
  -4   0   6  346.50   12.37
   4   0  -5  547.12   19.01
  -4   0   5  529.36   19.34
   4   0  -4 2251.32   76.67
  -4   0   4 2267.66   74.48
   4   0  -3 2982.65   96.01
  -4   0   3 2908.18   97.23
   4   0  -2 3303.09  110.86
  -4   0   2 3255.03  103.93
   4   0  -1  476.21   18.00
  -4   0   1  474.53   18.07
   4   0   0 1026.36   25.74
  -4   0   0 1018.26   37.21
   4   0   1  963.54   35.12
  -4   0  -1  958.37   33.94
   4   0   2  463.28   12.37
  -4   0  -2  459.56   18.09
   4   0   3 1485.52   50.34
  -4   0  -3 1447.01   50.85
   4   0   4  888.45   22.01
  -4   0  -5  247.22   11.45
  -4   0  -6   14.69    2.04
   4   0   7   70.92    3.69
  -4   0  -7   63.75    5.20
   4   0   8  167.13    6.08
   4   0   9   32.53    2.59
  -4   0  -9   28.14    4.67
   4   0  10    2.37    2.23
  -4   0 -10    3.96    3.68
   4   0  11    4.49    2.72
  -4   0 -11    4.17    3.06
  -4  -1  14  569.91   22.25
   4   1 -13  406.42   17.36
  -4  -1  13  411.52   13.74
   4   1 -12  571.21   23.54
  -4  -1  12  542.50   15.91
   4   1 -11  829.04   32.90
  -4  -1  11  842.11   22.23
   4   1 -10 1098.86   40.36
  -4  -1  10 1116.83   37.48
   4   1  -9  292.37   11.41
  -4  -1   9  295.55   11.29
   4   1  -8  756.83   26.49
  -4  -1   8  768.36   27.26
   4   1  -7  600.96   22.82
  -4  -1   7  600.19   15.49
   4   1  -6 1378.63   47.38
  -4  -1   6 1350.33   31.99
   4   1  -5 1947.20   65.82
  -4  -1   5 1939.93   64.14
   4   1  -4 1756.12   58.55
  -4  -1   4 1732.12   60.06
   4   1  -3 1888.92   60.65
  -4  -1   3 1806.12   61.27
   4   1  -2 2806.49   66.34
  -4  -1   2 2678.60   86.25
   4   1  -1 1003.16   24.60
  -4  -1   1  964.60   34.24
   4   1   0  311.12   12.19
   4   1   1  152.48    4.65
  -4  -1  -1  155.04    6.96
   4   1   2   49.47    1.97
  -4  -1  -2   49.91    3.19
   4   1   3  208.08    6.18
   4   1   4  201.47    8.29
   4   1   5   44.76    2.72
  -4  -1  -5   44.67    2.92
   4   1   6   14.26    1.60
  -4  -1  -6   15.47    2.28
   4   1   7    6.79    1.68
  -4  -1  -7    5.57    2.44
   4   1   8   27.19    2.19
   4   1   9   10.76    2.01
   4   1  10   86.77    3.82
  -4  -1 -10   96.21    6.91
   4   2 -15  118.64    7.15
  -4  -2  15  126.22    5.19
  -4  -2  14  596.31   16.32
   4   2 -13  615.76   23.59
  -4  -2  13  607.00   16.85
   4   2 -12  885.15   31.72
  -4  -2  12  882.09   31.64
   4   2 -11  905.15   32.08
  -4  -2  11  899.81   32.81
   4   2 -10  559.80   21.05
  -4  -2  10  552.93   20.46
   4   2  -9 1367.61   50.10
  -4  -2   9 1426.34   48.30
   4   2  -8 1307.99   44.93
  -4  -2   8 1403.33   50.22
   4   2  -7  659.35   23.86
  -4  -2   7  651.28   21.46
   4   2  -6 1468.90   48.35
  -4  -2   6 1295.20   44.25
   4   2  -5  319.07   11.36
  -4  -2   5  292.51   10.41
   4   2  -4  786.12   27.77
  -4  -2   4  786.83   27.58
   4   2  -3  262.20    9.50
  -4  -2   3  260.85    9.76
   4   2  -2  602.25   22.33
  -4  -2   2  595.95   21.21
   4   2  -1  452.90   15.59
  -4  -2   1  452.87   17.53
  -4  -2   0  274.93   11.27
   4   2   1   43.93    2.04
  -4  -2  -1   48.60    2.72
   4   2   2   17.91    1.05
  -4  -2  -2   16.51    1.85
   4   2   3  153.78    6.63
  -4  -2  -3  147.36    7.12
   4   2   4  245.19    7.75
  -4  -2  -4  253.17    7.20
   4   2   6  141.76    7.47
   4   2   7   41.74    3.57
   4   2   8  100.24    5.08
   4   2   9  241.61    7.73
  -4  -2  -9  253.44   12.22
   4   2  10   88.02    5.66
  -4  -2 -10   87.15    6.38
   4   3 -15  264.90   11.56
  -4  -3  15  253.86    9.47
  -4  -3  14  613.24   22.91
   4   3 -13  801.08   30.39
  -4  -3  13  773.26   19.76
   4   3 -12  965.55   35.21
  -4  -3  12  991.65   38.12
   4   3 -11  846.21   31.72
  -4  -3  11  829.39   21.47
   4   3 -10  727.76   28.34
  -4  -3  10  687.37   20.07
   4   3  -9  714.82   25.18
  -4  -3   9  747.34   25.10
   4   3  -8  476.58   15.96
  -4  -3   8  493.01   17.91
   4   3  -7   57.84    2.74
  -4  -3   7   43.66    2.60
   4   3  -6  345.31   12.89
  -4  -3   6  330.54   12.26
   4   3  -5  123.54    5.42
  -4  -3   5  108.58    4.41
   4   3  -4   94.55    4.52
  -4  -3   4   99.94    4.65
   4   3  -3   10.81    0.99
  -4  -3   3   11.05    0.86
   4   3  -2  268.37   10.13
   4   3  -1  372.20   13.51
   4   3   0   28.64    1.58
   4   3   1  437.55   16.46
  -4  -3  -1  420.91   16.47
   4   3   2  146.22    4.24
  -4  -3  -2  146.83    6.80
   4   3   3  476.21   12.88
  -4  -3  -3  502.24   18.20
   4   3   4   35.68    2.35
   4   3   5   17.93    1.38
   4   3   6   12.03    1.70
  -4  -3  -6   12.65    2.25
   4   3   7  281.58   12.15
   4   3   8  421.94   11.91
   4   3   9  128.34    4.71
   4   4 -15  337.03   15.08
  -4  -4  15  331.53   10.22
   4   4 -14  294.85   13.24
  -4  -4  14  280.80    9.39
  -4  -4  13  402.13   12.18
   4   4 -12  348.46   14.27
  -4  -4  12  346.36   13.74
   4   4 -11  901.42   31.60
  -4  -4  11  906.65   22.67
   4   4 -10  164.11    6.67
  -4  -4  10  178.60    7.77
   4   4  -9  108.31    5.16
  -4  -4   9  103.66    5.18
   4   4  -8    4.43    1.23
   4   4  -7  254.26    9.42
  -4  -4   7  316.54   12.31
   4   4  -6   31.02    2.03
  -4  -4   6   34.95    1.86
   4   4  -5   10.45    1.01
  -4  -4   5   12.65    0.99
   4   4  -4  214.57    9.24
  -4  -4   4  206.99    7.79
   4   4  -3   28.42    1.56
  -4  -4   3   26.72    1.39
   4   4  -2    8.05    0.71
   4   4  -1   12.22    0.93
   4   4   0  147.46    5.73
   4   4   1  188.40    7.30
   4   4   2  265.92    7.11
   4   4   3  693.74   24.44
   4   4   4  652.79   17.45
   4   4   5  151.43    6.72
   4   4   6  134.82    6.59
   4   4   7  226.55    6.41
   4   4   8  131.64    7.10
   4   4   9   64.56    3.13
  -4  -5  16   58.35    5.45
  -4  -5  15  160.26   10.02
  -4  -5  14   31.39    2.33
   4   5 -13   43.94    3.70
  -4  -5  13   39.82    2.71
   4   5 -12   61.86    4.16
  -4  -5  12   58.04    2.70
   4   5 -11   55.56    3.45
  -4  -5  11   55.89    2.44
  -4  -5  10    2.94    1.54
   4   5  -9   62.53    3.10
  -4  -5   9   60.76    3.55
   4   5  -8  188.39    7.30
  -4  -5   8  183.57    7.69
   4   5  -7    8.16    1.13
  -4  -5   7   14.77    1.15
   4   5  -6   77.47    3.31
  -4  -5   6   75.97    3.21
   4   5  -5  306.92   10.97
  -4  -5   5  347.66   12.89
   4   5  -4  390.69   14.39
  -4  -5   4  399.87   14.12
   4   5  -3   50.90    2.29
  -4  -5   3   54.18    2.33
   4   5  -2  390.85   14.14
   4   5  -1  158.73    6.04
   4   5   0  367.31    9.63
   4   5   2  346.05    9.50
   4   5   4  510.59   18.82
   4   5   5  139.16    5.94
   4   5   6  207.21    9.07
   4   5   7   25.58    4.80
   4   6 -16    8.26    3.86
  -4  -6  16    5.83    3.19
  -4  -6  15   73.71    3.62
   4   6 -14   17.46    3.18
  -4  -6  14   16.65    3.37
  -4  -6  13  101.50    4.12
   4   6 -12  148.01    6.56
  -4  -6  12  147.40    6.48
   4   6 -11    6.02    2.09
  -4  -6  11    5.66    1.14
   4   6 -10    7.81    1.70
  -4  -6  10    7.08    1.58
   4   6  -9   11.39    1.49
   4   6  -8   52.11    3.00
  -4  -6   8   57.60    2.70
  -4  -6   7  481.80   17.14
  -4  -6   6 1519.74   49.84
   4   6  -5  921.06   32.16
  -4  -6   5  986.86   34.28
   4   6  -3   99.87    3.68
   4   6  -2  909.01   30.46
   4   6   0  418.26   10.40
   4   6   1  165.96    4.44
   4   6   3  233.13    8.45
   4   6   4  244.17    9.44
   4   6   5  137.71    6.52
   4   6   6   39.06    2.12
   4   6   7    3.10    2.54
  -4  -7  16   25.74    2.84
  -4  -7  15    3.74    1.82
  -4  -7  14  179.04    7.86
  -4  -7  13  574.90   15.92
  -4  -7  12  132.40    4.80
   4   7 -11   44.67    2.59
  -4  -7  11   49.55    2.19
  -4  -7  10   59.93    3.58
  -4  -7   9  246.00    9.20
  -4  -7   8  963.27   34.58
  -4  -7   7  869.79   30.25
   4   7   0  109.25    3.09
   4   7   1  148.78    5.83
   4   7   2  127.48    3.53
   4   7   3   48.86    1.90
   4   7   4   49.84    2.41
   4   7   5   18.43    1.44
   4   8 -16  109.57    6.26
  -4  -8  16  111.85    4.55
   4   8 -15  184.57   10.22
  -4  -8  15  180.94    8.88
  -4  -8  14  510.51   13.61
  -4  -8  13  477.67   18.55
  -4  -8  12  243.21   10.30
  -4  -8  11  428.99   16.73
  -4  -8  10  130.85    5.42
  -4  -8   9  493.04   18.05
  -4  -8   8  486.64   17.77
  -4  -8   7  479.04   17.44
   4   8   1   25.44    0.87
   4   8   2   32.34    1.48
   4   8   3    9.68    1.62
   4   8   4    1.44    1.61
   4   9 -16  176.53    9.08
  -4  -9  16  179.47    6.48
  -4  -9  15  526.00   14.96
  -4  -9  14  364.17   11.13
  -4  -9  13  331.32   15.02
  -4  -9  12  214.76    9.51
  -4  -9  11  519.93   20.44
  -4  -9  10  402.92   16.22
  -4  -9   9  111.29    4.73
  -4 -10  16  185.10    6.17
  -4 -10  15  394.60   17.16
  -4 -10  14  161.63    8.96
  -4 -10  13   76.90    2.68
  -4 -10  12  131.37    7.23
  -4 -10  11  412.31   11.32
  -4 -10  10   33.94    2.49
  -4 -11  15  127.45    5.41
  -4 -11  14   64.72    3.15
  -4 -11  13   39.31    1.88
  -4 -11  12   94.82    4.20
  -4 -11  11   17.68    1.35
   5 -14   3   40.95    3.72
  -5  14  -3   34.66    4.60
   5 -14   4   51.53    4.00
   5 -14   5   20.99    3.89
   5 -14   6   34.47    4.12
   5 -14   7   25.81    2.45
   5 -14   8   29.15    3.11
   5 -13  -1   19.41    3.23
  -5  13   1   13.60    3.51
   5 -13   0   52.93    3.81
   5 -13   1   81.82    4.90
   5 -13   2   58.37    4.41
  -5  13  -2   51.09    3.58
   5 -13   3  125.94    4.39
   5 -13   4   49.09    3.31
  -5  13  -4   51.95    3.63
   5 -13   5   52.03    3.46
   5 -13   6   63.57    4.55
  -5  13  -6   78.25    4.57
   5 -13   7   69.51    4.20
   5 -13   8  118.81    4.09
   5 -13   9   79.00    7.82
  -5  13  -9   72.43    6.95
   5 -13  10   60.32    7.75
  -5  13 -10   65.08    7.15
   5 -12  -3   54.06    4.29
  -5  12   3   56.05    3.93
   5 -12  -2   74.54    4.53
  -5  12   2   58.90    4.21
   5 -12  -1   89.88    5.02
  -5  12   1   75.33    4.25
   5 -12   0  133.03    6.44
  -5  12   0  127.52    5.57
   5 -12   1   94.90    5.16
  -5  12  -1   85.00    5.10
   5 -12   2   64.80    2.76
   5 -12   3  193.94    7.52
   5 -12   4   98.88    4.67
   5 -12   5  190.00    9.39
  -5  12  -5  167.24    7.04
   5 -12   6  270.37   11.71
  -5  12  -6  253.66   11.09
   5 -12   7  235.92    7.08
  -5  12  -7  241.49   10.35
  -5  12  -8  218.03    8.58
   5 -12   9   94.29    4.14
   5 -12  10    8.21    2.40
  -5  12 -10    6.87    3.50
   5 -11  -6   41.80    3.41
  -5  11   6   34.99    4.90
   5 -11  -5   38.59    3.96
  -5  11   5   40.27    4.47
   5 -11  -4   96.99    5.51
  -5  11   4   86.05    6.05
   5 -11  -3  167.77    8.25
  -5  11   3  158.72    7.00
   5 -11  -2  164.04    7.65
  -5  11   2  147.73    7.14
   5 -11  -1  195.07    9.23
  -5  11   1  198.56    7.69
   5 -11   0  140.28    6.13
  -5  11   0  142.90    6.47
   5 -11   1  346.37   14.42
   5 -11   2   98.47    5.58
  -5  11  -2   99.47    5.07
   5 -11   3  223.75    8.58
  -5  11  -3  238.04    9.27
   5 -11   4  287.50   12.22
  -5  11  -4  281.01   10.96
   5 -11   5  417.20   11.33
  -5  11  -5  408.63   14.98
   5 -11   6  193.39    6.29
  -5  11  -6  213.74    8.68
   5 -11   7  142.90    4.76
  -5  11  -7  139.56    6.84
   5 -11   8   66.35    3.02
   5 -11   9    8.18    3.03
  -5  11  -9    4.91    3.47
   5 -11  10    2.66    3.04
  -5  11 -10    3.90    3.63
   5 -11  11   83.27    4.65
   5 -10  -7   63.67    5.03
  -5  10   7   52.10    5.51
   5 -10  -6  103.15    6.49
  -5  10   6   92.43    5.65
   5 -10  -5  172.72    7.87
  -5  10   5  171.19    7.14
   5 -10  -4  205.11    9.34
  -5  10   4  204.36    8.03
   5 -10  -3  330.57   13.32
  -5  10   3  325.05   12.26
   5 -10  -2  273.86   11.07
  -5  10   2  299.57   10.89
   5 -10  -1  256.73   11.88
  -5  10   1  264.04   10.68
   5 -10   0  302.60   11.95
  -5  10   0  315.17   11.72
   5 -10   1  185.07    7.97
   5 -10   2   64.11    3.63
  -5  10  -2   71.79    3.80
   5 -10   3   89.87    3.27
  -5  10  -3   98.96    4.63
   5 -10   4  152.83    7.94
   5 -10   5  173.34    7.66
  -5  10  -5  182.89    7.73
   5 -10   6   60.23    3.93
  -5  10  -6   61.31    3.90
   5 -10   7   33.79    2.48
  -5  10  -7   38.16    2.79
   5 -10   8    7.43    2.63
  -5  10  -8    5.47    3.03
   5 -10   9   21.29    2.20
  -5  10  -9   19.27    3.86
   5 -10  10   47.72    4.28
   5 -10  11   11.99    2.72
  -5  10 -11   11.15    4.16
   5  -9  -8  125.37    6.65
  -5   9   8  114.95    6.99
   5  -9  -7  109.04    6.67
  -5   9   7  106.57    7.27
   5  -9  -6  478.94   18.46
  -5   9   6  490.56   19.57
   5  -9  -5  133.49    7.58
  -5   9   5  135.07    5.58
   5  -9  -4  203.34   10.35
  -5   9   4  205.60    7.79
   5  -9  -3  243.33    9.78
  -5   9   3  248.00    9.32
   5  -9  -2  139.85    4.63
  -5   9   2  137.44    5.87
   5  -9  -1  404.97   15.52
  -5   9   1  411.91   14.26
   5  -9   0   71.68    4.32
  -5   9   0   65.95    3.68
   5  -9   1    4.27    1.69
  -5   9  -1    2.25    1.85
   5  -9   2   21.90    1.78
  -5   9  -2   23.29    2.25
   5  -9   3    2.82    1.89
  -5   9  -3    2.12    2.04
   5  -9   4    1.74    1.17
  -5   9  -4    1.53    2.01
   5  -9   5    1.02    1.48
  -5   9  -5    2.23    2.25
   5  -9   6    4.51    2.04
  -5   9  -6    3.98    1.77
   5  -9   7   14.77    1.90
   5  -9   8   31.43    2.13
   5  -9   9   72.43    4.41
  -5   9  -9   72.27    4.80
   5  -9  10  117.23    4.35
  -5   9 -10  108.11    8.18
   5  -9  11  138.45    7.18
   5  -8  -9  201.61   11.55
   5  -8  -8  235.50   10.64
  -5   8   8  242.81   11.23
   5  -8  -7   89.10    6.05
  -5   8   7   90.00    4.65
   5  -8  -6  116.25    6.14
  -5   8   6  113.49    5.15
   5  -8  -5   63.73    4.27
  -5   8   5   68.22    3.68
   5  -8  -4  118.69    6.52
  -5   8   4  117.89    5.22
   5  -8  -3   42.22    3.09
  -5   8   3   46.84    2.87
   5  -8  -2  210.44    8.72
  -5   8   2  231.36    9.13
   5  -8  -1   16.53    1.96
  -5   8   1   16.75    2.00
   5  -8   0   50.94    2.74
  -5   8   0   50.66    2.98
   5  -8   1   61.57    2.36
  -5   8  -1   64.21    3.29
   5  -8   2   13.64    1.81
  -5   8  -2   17.29    1.61
   5  -8   3  198.58    5.75
  -5   8  -3  204.35    8.13
   5  -8   4  200.35    5.85
  -5   8  -4  212.24    8.28
   5  -8   5   94.25    3.58
  -5   8  -5   95.35    3.50
   5  -8   6    6.51    1.30
  -5   8  -6    7.03    2.35
   5  -8   7   15.01    1.78
  -5   8  -7   11.88    2.94
   5  -8   8  270.65   10.74
  -5   8  -8  267.35   11.08
   5  -8   9  449.50   18.82
  -5   8  -9  424.96   18.74
   5  -8  10  511.10   16.44
  -5   8 -10  489.18   15.32
   5  -7  -9  172.69    7.82
  -5   7   9  176.71    8.89
  -5   7   8  115.97    5.81
   5  -7  -7   13.87    3.09
  -5   7   7   14.53    2.48
   5  -7  -6    8.01    2.83
  -5   7   6    9.28    1.64
   5  -7  -5   -1.30    2.04
  -5   7   5    1.31    1.13
   5  -7  -4    3.04    1.58
  -5   7   4    1.77    1.73
   5  -7  -3   25.94    2.16
  -5   7   3   23.04    2.15
   5  -7  -2    8.42    1.34
  -5   7   2    4.39    1.65
   5  -7  -1   24.30    2.01
  -5   7   1   25.31    1.66
   5  -7   0  214.80    5.93
  -5   7   0  217.51    8.91
   5  -7   1  293.47   11.78
  -5   7  -1  305.30   11.11
   5  -7   2   11.09    1.70
  -5   7  -2    7.93    1.22
   5  -7   3  719.90   17.68
  -5   7  -3  703.16   26.49
   5  -7   4  470.92   17.09
   5  -7   5  275.69    7.83
  -5   7  -5  262.88   10.72
   5  -7   6  213.67    6.67
  -5   7  -6  214.60    8.50
   5  -7   7  770.49   27.89
  -5   7  -7  753.62   27.43
  -5   7  -8  728.67   28.42
   5  -7   9  538.18   15.20
   5  -7  10  549.93   24.84
  -5   7 -10  528.65   23.27
   5  -6 -10  144.51    7.03
  -5   6  10  124.46    8.40
   5  -6  -9    4.51    2.37
  -5   6   9    5.12    2.55
   5  -6  -8  126.03    6.09
  -5   6   8  127.93    6.06
   5  -6  -7   82.52    5.14
  -5   6   7   98.69    4.95
   5  -6  -6   86.89    5.02
  -5   6   6   99.50    5.10
   5  -6  -5   57.54    3.30
  -5   6   5   65.38    3.82
   5  -6  -4   11.35    2.31
  -5   6   4   12.58    1.89
   5  -6  -3   39.88    1.89
  -5   6   3   36.93    2.48
   5  -6  -2  145.33    6.41
  -5   6   2  137.08    5.58
   5  -6  -1  531.16   14.03
  -5   6   1  541.10   18.32
   5  -6   0  591.48   22.55
  -5   6   0  606.41   21.50
   5  -6   1  370.57   10.06
  -5   6  -1  387.49   14.16
   5  -6   2  490.72   12.62
  -5   6  -2  505.34   18.01
   5  -6   3 1443.96   34.67
  -5   6  -3 1429.19   34.78
   5  -6   4 1291.82   32.30
  -5   6  -4 1316.60   44.67
   5  -6   5  845.07   30.82
   5  -6   6  865.58   31.88
  -5   6  -6  869.19   33.20
   5  -6   7  470.88   13.95
  -5   6  -7  474.01   20.48
   5  -6   8  307.51   13.90
  -5   6  -8  292.09   13.65
   5  -6   9  380.36   16.22
  -5   6  -9  390.55   17.84
   5  -6  10  372.44   10.74
  -5   6 -10  364.88   18.85
   5  -5 -11    7.89    3.63
  -5   5  11   11.41    2.05
   5  -5 -10    9.56    3.29
  -5   5  10   14.22    2.23
   5  -5  -9  338.88   13.61
  -5   5   9  355.53   10.57
   5  -5  -8  150.20    8.49
  -5   5   8  155.74    6.63
   5  -5  -7   13.44    2.41
  -5   5   7    6.64    1.46
   5  -5  -6  275.56   11.63
  -5   5   6  268.63   10.54
   5  -5  -5  192.96    5.90
  -5   5   5  210.69    8.91
   5  -5  -4  860.19   30.19
  -5   5   4  907.44   30.77
   5  -5  -3  463.84   17.16
  -5   5   3  466.19   16.00
   5  -5  -2  643.52   16.30
  -5   5   2  643.91   16.48
   5  -5  -1  704.26   25.63
   5  -5   0  378.43    9.81
  -5   5   0  396.92   15.72
   5  -5   1 1118.71   40.27
   5  -5   2 2447.86   88.34
  -5   5  -2 2499.00   59.30
   5  -5   3 1488.66   35.28
   5  -5   4  546.09   15.20
  -5   5  -4  530.53   19.61
   5  -5   5  803.60   32.31
  -5   5  -5  795.37   29.82
   5  -5   6  662.62   25.23
   5  -5   7  255.59    7.99
   5  -5   9  198.05    8.68
  -5   5  -9  189.15    9.13
   5  -5  10  334.03   13.98
  -5   5 -10  317.96   13.09
   5  -5  11  385.08   16.81
  -5   5 -11  408.87   11.79
   5  -4 -11   83.27    6.64
  -5   4  11   88.67    4.31
   5  -4 -10  250.26   11.52
  -5   4  10  258.11    8.14
   5  -4  -9  258.61   10.73
  -5   4   9  273.13    8.13
   5  -4  -8  146.04    8.22
  -5   4   8  147.13    7.08
   5  -4  -7   78.21    5.14
  -5   4   7   82.08    4.13
   5  -4  -6 2069.18   67.75
  -5   4   6 2239.76   72.15
   5  -4  -5 2831.80   96.23
  -5   4   5 2913.80   94.60
   5  -4  -4  894.02   29.70
  -5   4   4  906.49   32.70
   5  -4  -3  422.56   16.23
  -5   4   3  417.31   16.83
   5  -4  -2  437.04   11.40
  -5   4   2  434.33   16.65
   5  -4  -1  327.35   14.11
  -5   4   1  366.53   10.14
   5  -4   0 1010.66   39.31
  -5   4   0  995.93   36.09
   5  -4   1 1549.41   54.22
  -5   4  -1 1528.54   51.59
  -5   4  -2 2623.76   88.47
   5  -4   3  513.00   13.98
  -5   4  -3  506.80   20.29
   5  -4   4  455.50   19.05
  -5   4  -4  434.72   12.33
   5  -4   5  233.19   10.41
  -5   4  -5  231.28   10.90
   5  -4   6  219.65    6.63
  -5   4  -6  226.47   11.74
   5  -4   7   85.35    3.59
  -5   4  -7   83.74    3.55
   5  -4   8   95.07    3.70
  -5   4  -8   93.54    3.65
   5  -4   9  281.94    9.46
  -5   4  -9  268.16    8.79
   5  -4  10   73.10    3.94
  -5   4 -10   70.42    3.77
   5  -4  11    3.98    3.35
  -5   4 -11    3.39    4.32
   5  -3 -12  283.80   15.53
  -5   3  12  285.27    8.54
   5  -3 -11  356.09   16.40
  -5   3  11  334.44   15.18
   5  -3 -10  315.89   14.07
  -5   3  10  338.24   13.69
   5  -3  -9  378.90   16.20
  -5   3   9  388.26   14.82
   5  -3  -8  642.64   24.05
  -5   3   8  639.80   16.61
   5  -3  -7  815.70   31.96
  -5   3   7  771.81   20.15
   5  -3  -6 3370.89  110.70
  -5   3   6 3385.74  108.34
   5  -3  -5 1305.56   44.93
  -5   3   5 1335.09   44.48
   5  -3  -4 1032.53   36.89
  -5   3   4 1046.86   37.36
   5  -3  -3  669.22   25.51
   5  -3  -2  152.98    7.36
   5  -3  -1  252.02   11.16
   5  -3   0  328.82   13.83
  -5   3   0  337.65   12.49
   5  -3   1  966.14   35.48
  -5   3  -1 1017.97   37.73
   5  -3   2 1941.87   45.22
  -5   3  -2 2086.47   69.63
   5  -3   3  139.97    4.59
  -5   3  -3  145.35    6.57
   5  -3   4   38.09    3.35
  -5   3  -4   42.88    2.00
   5  -3   5   70.93    2.60
  -5   3  -5   74.07    3.10
   5  -3   6   58.31    2.63
  -5   3  -6   58.56    3.85
   5  -3   7   67.37    2.96
  -5   3  -7   70.14    3.35
   5  -3   8  109.08    4.01
  -5   3  -8  113.93    6.80
   5  -3   9   33.41    2.39
  -5   3  -9   33.52    3.78
   5  -3  10   18.90    2.62
  -5   3 -10   19.14    2.84
   5  -3  11  129.28    6.81
  -5   3 -11  127.48    5.12
   5  -2 -13  437.43   21.19
  -5   2  13  437.47   12.70
   5  -2 -12  433.74   18.79
  -5   2  12  452.01   16.18
   5  -2 -11  616.68   17.89
  -5   2  11  557.26   16.65
   5  -2 -10  589.84   22.33
  -5   2  10  627.79   23.12
   5  -2  -9  467.84   17.58
  -5   2   9  457.76   16.53
   5  -2  -8  936.12   32.80
  -5   2   8  889.07   32.18
   5  -2  -7 2106.12   70.20
   5  -2  -6 1092.54   37.28
   5  -2  -5  636.37   23.47
  -5   2   5  625.52   22.64
   5  -2  -4  601.74   24.65
  -5   2   4  571.99   21.02
   5  -2  -3  324.95   12.96
  -5   2   3  318.46   11.83
   5  -2  -2   51.76    2.01
  -5   2   2   48.34    2.67
   5  -2  -1   39.14    1.56
  -5   2   1   41.02    2.40
   5  -2   0  244.63    6.63
  -5   2   0  245.51    6.83
   5  -2   1  156.13    4.90
  -5   2  -1  155.77    4.35
   5  -2   2  677.45   18.16
  -5   2  -2  689.99   24.41
   5  -2   3   83.20    3.03
  -5   2  -3   84.05    3.04
   5  -2   4   40.74    2.03
  -5   2  -4   43.55    2.58
   5  -2   5    5.55    1.18
  -5   2  -5    5.70    1.38
   5  -2   6  110.91    3.73
  -5   2  -6  105.03    5.73
   5  -2   7   26.41    2.17
   5  -2   8  294.38   12.69
  -5   2  -8  286.01   11.45
   5  -2   9  333.33    9.21
   5  -2  10   64.53    3.37
  -5   2 -10   63.94    5.24
   5  -1 -13  610.38   26.28
  -5   1  13  593.94   16.71
   5  -1 -12  489.82   17.72
  -5   1  12  506.83   14.38
   5  -1 -11  436.96   17.03
   5  -1 -10  284.64   11.24
   5  -1  -9  363.34   13.65
  -5   1   9  360.29   14.31
   5  -1  -8  790.30   28.30
  -5   1   8  747.87   27.95
   5  -1  -7  483.32   16.78
  -5   1   7  469.33   16.83
   5  -1  -6   80.39    3.94
  -5   1   6   68.84    3.69
   5  -1  -5  156.12    8.50
  -5   1   5  187.86    7.54
  -5   1   4  704.25   25.43
   5  -1  -3 1259.87   43.78
  -5   1   3 1264.86   32.08
   5  -1  -2    1.14    1.07
  -5   1   2    1.46    1.02
   5  -1  -1    4.37    1.05
  -5   1   1    3.80    0.82
   5  -1   0   15.67    1.09
  -5   1   0   13.98    1.30
   5  -1   1   78.70    3.47
  -5   1  -1   77.55    3.69
   5  -1   2   48.73    3.53
  -5   1  -2   51.90    2.24
   5  -1   3   18.86    1.69
  -5   1  -3   20.74    1.77
   5  -1   4   13.04    1.56
  -5   1  -4   13.59    1.76
   5  -1   5  234.42    6.65
  -5   1  -5  227.53   10.25
   5  -1   6  431.58   12.34
  -5   1  -6  423.75   15.63
   5  -1   7  751.35   28.91
   5  -1   8  630.81   22.95
   5  -1   9  206.17    7.55
   5  -1  10   16.98    3.93
  -5   1 -10   18.59    3.17
   5   0 -14  405.43   17.76
  -5   0  13  341.71   13.96
   5   0 -12  252.72   10.68
  -5   0  12  234.70   11.15
   5   0 -11  165.69    8.45
  -5   0  11  157.19    5.15
   5   0 -10   65.71    4.60
  -5   0  10   55.54    3.42
   5   0  -9  110.03    6.08
  -5   0   9   92.15    3.55
   5   0  -8   97.10    4.33
  -5   0   8   94.67    4.39
   5   0  -7  862.05   31.17
  -5   0   7  854.38   21.80
   5   0  -6   19.17    2.07
  -5   0   6   20.32    1.69
   5   0  -5  248.49    9.28
  -5   0   5  229.27    9.24
   5   0  -4  209.41    7.87
  -5   0   4  220.69    8.54
   5   0  -3   19.84    1.42
  -5   0   3   17.26    1.21
   5   0  -2  104.43    5.46
  -5   0   2   92.63    4.41
   5   0  -1  347.09    9.46
  -5   0   1  382.79   14.71
   5   0   0 1370.95   49.63
  -5   0   0 1340.54   46.30
   5   0   1  800.14   19.49
  -5   0  -1  808.32   28.88
   5   0   2  233.39    8.89
  -5   0  -2  226.29    9.51
   5   0   3   12.86    1.66
  -5   0  -3   13.48    1.60
   5   0   4  124.66    5.67
  -5   0  -4  131.19    6.44
   5   0   5  453.47   12.02
  -5   0  -5  466.82   18.23
   5   0   7  602.44   16.32
  -5   0  -7  607.03   16.40
   5   0   8  378.08   11.20
  -5   0  -8  388.69   16.70
   5   0   9   99.94    4.23
   5   0  10   42.24    3.11
  -5   0 -10   52.16    6.30
   5   1 -14  276.55   11.33
  -5  -1  14  251.32   12.46
  -5  -1  13  348.49   13.41
   5   1 -12  223.56    9.09
  -5  -1  12  212.16    8.56
   5   1 -11    4.40    2.62
  -5  -1  11    1.97    1.23
   5   1 -10    2.43    1.70
  -5  -1  10    2.13    1.62
   5   1  -9   19.21    2.23
  -5  -1   9   32.07    2.37
   5   1  -8    4.95    1.37
  -5  -1   8    0.70    0.87
   5   1  -7  128.81    5.04
  -5  -1   7  132.62    5.35
   5   1  -6   59.93    3.46
  -5  -1   6   69.91    3.35
   5   1  -5   39.01    2.45
  -5  -1   5   35.97    1.89
   5   1  -4  464.03   15.45
  -5  -1   4  475.03   17.54
   5   1  -3  462.30   16.44
  -5  -1   3  443.29   16.34
   5   1  -2  666.54   23.11
  -5  -1   2  631.51   21.41
   5   1  -1 1036.02   35.83
  -5  -1   1  959.93   32.04
   5   1   0 1187.16   40.51
  -5  -1   0 1182.48   40.91
   5   1   1  454.60   17.21
  -5  -1  -1  466.75   17.05
   5   1   2  889.23   22.01
  -5  -1  -2  835.99   30.33
   5   1   3  294.33   11.20
  -5  -1  -3  298.87   12.17
   5   1   4  240.03    8.88
   5   1   5  345.68   13.52
  -5  -1  -5  355.01   15.98
   5   1   6  387.43   11.80
  -5  -1  -6  398.44   16.57
   5   1   7  568.69   15.30
  -5  -1  -7  549.83   23.07
   5   1   9  103.86    4.01
  -5  -1  -9   87.12    5.62
  -5  -2  15   39.78    4.05
   5   2 -14   68.89    5.16
  -5  -2  14   53.99    3.57
   5   2 -13  142.85    7.47
  -5  -2  13  145.96    5.12
   5   2 -12   13.17    3.10
  -5  -2  12   17.85    3.04
   5   2 -11  158.93    7.10
  -5  -2  11  185.02    6.32
   5   2 -10  280.15   10.65
  -5  -2  10  295.53   12.17
   5   2  -9  171.97    7.75
  -5  -2   9  178.45    7.67
   5   2  -8  407.64   15.73
  -5  -2   8  462.11   17.67
   5   2  -7   96.92    4.35
  -5  -2   7   83.20    4.20
   5   2  -6  243.11   10.49
  -5  -2   6  239.68    8.45
   5   2  -5 1159.10   40.28
  -5  -2   5 1129.26   39.96
   5   2  -4  746.68   24.76
  -5  -2   4  796.89   28.44
   5   2  -3  666.42   23.08
  -5  -2   3  667.79   22.67
   5   2  -2  459.09   18.01
  -5  -2   2  449.88   16.78
   5   2  -1 1336.74   43.71
   5   2   0  883.27   31.23
  -5  -2   0  869.95   30.02
   5   2   1  356.47   12.77
  -5  -2  -1  344.34   13.55
   5   2   2  871.91   21.81
   5   2   3  254.72    9.95
   5   2   4  266.18    8.06
  -5  -2  -4  295.29   12.55
   5   2   5  202.08    5.61
   5   2   7  370.22   15.16
   5   2   8  144.46    4.96
   5   2   9   87.05    5.87
   5   3 -15  153.34    8.01
  -5  -3  15  150.13    7.47
  -5  -3  14    8.41    2.08
   5   3 -13   27.64    3.46
  -5  -3  13   26.46    2.16
   5   3 -12   72.77    4.40
  -5  -3  12   74.00    4.86
   5   3 -11  305.36   13.05
  -5  -3  11  307.38    8.37
   5   3 -10  345.24   12.41
  -5  -3  10  357.01   14.02
   5   3  -9 1370.68   46.62
  -5  -3   9 1583.99   54.47
   5   3  -8 1437.91   48.01
  -5  -3   8 1531.11   54.40
   5   3  -7  986.69   33.72
  -5  -3   7  899.11   30.15
   5   3  -6  374.40   14.31
  -5  -3   6  352.91   13.71
   5   3  -5   58.33    3.21
  -5  -3   5   43.90    2.49
   5   3  -4  258.15   10.96
   5   3  -3 1146.92   39.43
  -5  -3   3 1139.77   39.02
   5   3  -2 1071.43   36.56
  -5  -3   2 1113.88   39.58
   5   3  -1 1042.38   36.50
   5   3   0  357.70   13.04
   5   3   1  159.98    6.12
   5   3   2  787.47   27.04
   5   3   3  818.12   28.87
  -5  -3  -3  836.79   28.61
   5   3   4   75.66    2.80
  -5  -3  -4   76.83    4.21
   5   3   5  127.60    4.45
   5   3   6   62.52    4.27
   5   3   7   63.90    2.96
   5   3   8   49.48    2.83
  -5  -4  15  435.28   18.05
   5   4 -14  235.41   12.03
  -5  -4  14  244.86    7.99
   5   4 -13  150.71    6.55
  -5  -4  13  143.66    6.96
   5   4 -12  165.76    8.03
  -5  -4  12  172.80    5.70
   5   4 -11  312.39   11.98
  -5  -4  11  301.23   12.50
   5   4 -10 1207.11   44.12
  -5  -4  10 1238.02   28.92
   5   4  -9 1508.93   52.02
  -5  -4   9 1633.56   56.75
   5   4  -8  681.20   24.14
  -5  -4   8  582.53   21.69
   5   4  -7  595.21   20.44
  -5  -4   7  536.81   19.13
   5   4  -6   23.79    1.58
  -5  -4   6   23.22    1.66
   5   4  -5  296.28   11.27
  -5  -4   5  293.80   10.96
   5   4  -4  613.80   21.76
  -5  -4   4  559.18   20.00
   5   4  -2  995.97   34.28
   5   4  -1  396.17   14.15
   5   4   0  192.22    5.37
  -5  -4   0  195.22    8.25
   5   4   1  356.59   13.00
   5   4   2  242.05    9.23
   5   4   3   57.68    3.39
   5   4   5   29.87    2.90
   5   4   6    1.62    2.31
   5   4   7    1.23    2.03
   5   5 -16   65.26    6.30
  -5  -5  16   70.71    4.64
   5   5 -15  348.42   15.32
  -5  -5  15  358.13   10.15
   5   5 -14  259.83   11.44
  -5  -5  14  263.48    8.18
   5   5 -13  236.34    9.97
  -5  -5  13  245.64    8.11
   5   5 -12  249.74   10.48
   5   5 -11  517.41   20.08
  -5  -5  11  546.65   15.28
  -5  -5  10  817.36   28.70
   5   5  -9  644.53   26.40
  -5  -5   9  673.65   23.53
   5   5  -8  516.60   19.88
  -5  -5   8  492.85   17.54
   5   5  -7  934.71   31.55
  -5  -5   7 1004.58   33.43
   5   5  -6  524.71   17.61
  -5  -5   6  497.83   16.91
   5   5  -5  244.55    9.59
  -5  -5   5  227.15    8.85
   5   5  -4  339.61   12.65
  -5  -5   4  329.98   11.99
   5   5  -3  578.70   20.48
   5   5  -2  318.03   11.59
   5   5  -1  103.64    4.44
   5   5   0   22.02    1.49
   5   5   1   75.27    3.57
   5   5   2   24.36    1.82
   5   5   3    3.18    1.53
   5   5   4   -0.20    1.31
   5   5   5   -0.83    1.54
   5   5   6   39.57    3.33
   5   5   7   17.53    3.14
   5   6 -16  186.40    9.32
  -5  -6  16  198.61    7.87
   5   6 -15  221.04    9.79
  -5  -6  15  247.25   12.13
  -5  -6  14  340.01    9.93
  -5  -6  13  345.47    9.83
   5   6 -12  672.80   23.33
  -5  -6  12  698.81   18.71
   5   6 -11  478.05   17.17
  -5  -6  11  474.49   12.19
   5   6 -10  566.71   22.27
  -5  -6  10  584.28   21.54
   5   6  -9  278.91   10.18
  -5  -6   9  255.82    9.86
   5   6  -8  120.03    5.35
  -5  -6   8   92.23    3.94
  -5  -6   7 1153.44   39.21
   5   6  -6  317.13   12.50
  -5  -6   6  273.78   10.99
   5   6  -5   17.53    1.27
   5   6  -4   22.84    1.52
  -5  -6   4   20.00    1.45
   5   6  -3    5.96    0.87
   5   6  -2    3.85    0.72
   5   6  -1    0.07    0.70
   5   6   0   11.94    1.01
   5   6   1   -0.12    1.05
   5   6   2   76.41    2.55
   5   6   3   37.69    1.81
   5   6   4    6.28    1.34
   5   6   5    6.04    2.33
  -5  -7  16  278.30    8.54
   5   7 -15  109.85    6.24
  -5  -7  15  113.09    7.08
   5   7 -14  211.08    9.91
  -5  -7  14  193.34    8.29
  -5  -7  13  310.81    9.08
  -5  -7  12  482.81   19.17
   5   7 -11  152.86    6.60
  -5  -7  11  144.26    5.70
   5   7 -10   39.26    2.79
  -5  -7  10   25.24    1.76
   5   7  -9    6.49    1.70
  -5  -7   9    2.52    1.27
   5   7  -8  269.69   10.50
  -5  -7   8  280.58   11.51
  -5  -7   7  213.99    8.75
   5   7  -1    2.27    0.63
   5   7   0    2.86    1.05
   5   7   1    5.31    1.37
   5   7   2  156.71    4.61
   5   7   3   60.90    2.45
   5   7   4   12.54    2.27
   5   8 -16  288.83   12.76
  -5  -8  16  277.69   13.27
   5   8 -15   47.13    4.23
  -5  -8  15   40.31    2.36
  -5  -8  14   42.57    3.65
  -5  -8  13   32.96    3.02
  -5  -8  12   42.12    2.58
   5   8 -11    2.71    1.62
  -5  -8  11    2.72    0.91
  -5  -8  10   13.72    1.57
  -5  -8   9    8.83    1.02
   5   8   1   61.86    2.52
  -5  -9  16  111.97    6.48
  -5  -9  15    3.53    1.74
  -5  -9  14   48.76    2.51
   5   9 -13   14.34    2.54
  -5  -9  13   15.92    1.42
  -5  -9  12   13.79    1.35
  -5  -9  10    1.07    0.75
  -5  -9   9   21.45    1.72
  -5 -10  15    5.92    1.56
  -5 -10  14   40.43    2.05
  -5 -10  13   33.91    2.20
  -5 -10  12   70.53    2.71
  -5 -10  11   13.12    1.56
  -5 -11  13   41.74    2.96
   6 -14   3    5.34    2.07
  -6  14  -3    9.19    3.34
   6 -14   4   19.29    3.23
   6 -14   5   15.04    4.14
  -6  14  -6    0.64    3.19
   6 -13   0   10.97    3.68
  -6  13   0    9.74    2.71
   6 -13   1   21.06    3.39
  -6  13  -1   18.81    2.64
  -6  13  -2   23.35    3.17
   6 -13   3   28.27    2.87
  -6  13  -3   28.17    3.23
   6 -13   4   25.81    2.32
  -6  13  -4   23.10    3.34
   6 -13   5    1.44    2.59
   6 -13   6    2.35    2.17
  -6  13  -6    2.86    3.06
   6 -13   7    6.72    2.13
  -6  13  -7    5.90    3.18
   6 -13   8    1.23    1.88
  -6  13  -8    1.02    3.34
   6 -12  -3   10.61    3.73
   6 -12  -2    8.33    3.41
  -6  12   2   11.25    2.68
   6 -12   0   28.70    3.04
  -6  12  -1    1.46    2.59
   6 -12   2    2.98    2.59
  -6  12  -2    4.57    2.86
   6 -12   3    4.04    2.45
   6 -12   4   -0.19    2.48
  -6  12  -4    1.05    2.72
   6 -12   5   36.04    2.36
  -6  12  -5   32.80    3.54
   6 -12   6   24.18    2.83
  -6  12  -6   32.46    3.58
   6 -12   7   66.53    3.30
  -6  12  -7   68.17    4.72
   6 -12   8   67.28    3.66
  -6  12  -8   57.74    4.52
   6 -11  -4   49.09    4.10
  -6  11   4   42.51    4.10
   6 -11  -3   -0.30    2.15
  -6  11   3    0.25    2.52
   6 -11  -2    5.94    2.17
   6 -11  -1   12.88    3.30
  -6  11   1   13.28    1.82
   6 -11   0   13.91    3.37
  -6  11   0   15.65    2.82
   6 -11   1    1.44    2.16
  -6  11  -1    3.29    2.60
   6 -11   2   69.31    4.20
  -6  11  -2   68.72    4.57
   6 -11   3   39.10    2.32
  -6  11  -3   40.04    3.22
   6 -11   4   84.26    3.23
  -6  11  -4   80.52    4.88
   6 -11   5  114.71    4.37
   6 -11   6   61.15    3.31
  -6  11  -6   57.90    4.04
   6 -11   7  248.91   10.31
  -6  11  -7  232.17   10.78
   6 -11   8  312.92   14.04
   6 -11   9  301.38   12.74
  -6  10   6    3.26    1.96
   6 -10  -5   33.01    3.37
  -6  10   5   33.13    3.04
   6 -10  -4   13.87    3.51
  -6  10   4   10.92    2.71
   6 -10  -3   89.09    6.91
  -6  10   3   77.70    4.92
   6 -10  -2  139.62    6.97
  -6  10   2  136.01    6.75
   6 -10  -1  213.24    9.35
  -6  10   1  204.60    9.75
   6 -10   0   39.43    3.04
   6 -10   1   83.74    4.21
  -6  10  -1   78.28    4.06
   6 -10   2  350.62   12.39
   6 -10   3  132.44    4.47
  -6  10  -3  131.86    6.33
   6 -10   4  273.07    7.63
  -6  10  -4  278.24   11.56
   6 -10   5  238.12    9.78
  -6  10  -5  232.29    9.93
   6 -10   6  210.14    6.34
  -6  10  -6  205.70   10.01
   6 -10   7  443.59   13.57
  -6  10  -7  414.16   15.71
   6 -10   8  297.97    9.38
   6 -10   9  139.24    7.87
  -6  10  -9  127.77    7.94
   6  -9  -7    3.42    2.72
  -6   9   7    3.09    2.40
   6  -9  -6    3.45    3.23
  -6   9   6    4.02    2.59
   6  -9  -5   28.65    3.07
  -6   9   5   22.33    2.75
   6  -9  -4  203.14    6.49
  -6   9   4  205.30    8.05
   6  -9  -3  255.13   10.14
  -6   9   3  259.80    9.67
   6  -9  -2  443.91   16.66
  -6   9   2  467.22   16.77
   6  -9  -1  280.20   10.70
  -6   9   1  282.33   10.97
   6  -9   0  338.84   12.73
  -6   9   0  328.54   14.02
   6  -9   1  105.83    5.30
  -6   9  -1  102.68    4.43
   6  -9   2  503.91   17.93
   6  -9   3  410.24   14.94
  -6   9  -3  404.10   16.97
   6  -9   4  324.96   11.94
  -6   9  -4  338.76   12.17
   6  -9   5  241.02    7.16
  -6   9  -5  248.37   11.35
   6  -9   6  345.75   14.85
  -6   9  -6  340.44   15.10
   6  -9   7  458.03   17.26
  -6   9  -7  433.50   17.25
   6  -9   8  261.62    8.01
  -6   9  -8  245.18   12.35
   6  -9   9  363.74   11.08
   6  -8  -8   81.51    6.21
  -6   8   8   77.26    5.03
   6  -8  -7   88.41    7.15
  -6   8   7  108.22    5.54
   6  -8  -6  218.19    9.76
  -6   8   6  224.68    9.15
   6  -8  -5  367.43   14.81
  -6   8   5  357.61   16.22
   6  -8  -4  397.43   16.44
  -6   8   4  398.57   14.82
   6  -8  -3  221.79    9.83
  -6   8   3  234.69    9.03
   6  -8  -2  265.07   10.60
  -6   8   2  257.39    9.82
   6  -8  -1  615.92   22.49
   6  -8   0  691.57   17.97
  -6   8   0  709.95   26.58
   6  -8   1  365.50   14.98
  -6   8  -1  367.92   13.08
  -6   8  -2  564.78   19.65
   6  -8   3  280.93    7.50
  -6   8  -3  287.58   12.66
   6  -8   4  322.12    9.52
  -6   8  -4  322.88   12.35
   6  -8   5  396.44   16.20
   6  -8   7  270.56    8.60
  -6   8  -7  279.17   12.49
   6  -8   8  104.56    4.55
  -6   8  -8  110.06    5.82
   6  -8   9  105.01    4.52
   6  -8  10  331.95   13.01
  -6   8 -10  305.39   14.75
   6  -7  -9  118.68    7.26
  -6   7   9  115.65    6.32
   6  -7  -8  268.63   14.04
  -6   7   8  276.94   12.05
   6  -7  -7  834.35   28.38
  -6   7   7  824.45   30.65
   6  -7  -6  339.58   14.49
  -6   7   6  349.32   13.59
   6  -7  -5  250.30   10.70
  -6   7   5  251.03    9.72
   6  -7  -4   89.94    4.96
  -6   7   4   85.72    4.20
   6  -7  -3   50.81    3.49
  -6   7   3   45.47    3.17
  -6   7   2 1242.85   40.68
  -6   7   1 1329.74   43.41
   6  -7   1  589.36   20.90
   6  -7   2   93.28    4.60
  -6   7  -2   89.02    4.23
   6  -7   3  135.11    6.51
  -6   7  -3  139.30    5.75
   6  -7   4  243.53   11.01
  -6   7  -4  240.34    9.35
   6  -7   5  321.43   12.76
  -6   7  -5  322.49   13.52
   6  -7   6  231.24    7.47
  -6   7  -6  235.83    7.75
   6  -7   7   27.26    2.52
  -6   7  -7   28.15    2.49
   6  -7   8    0.17    1.64
  -6   7  -8    6.59    3.10
   6  -7   9    0.67    1.82
  -6   7  -9   -0.48    2.86
   6  -7  10   17.25    2.68
  -6   7 -10    6.96    4.10
   6  -6 -10  307.66   13.90
  -6   6  10  291.66   12.06
   6  -6  -9  357.15   16.00
  -6   6   9  348.11   14.90
   6  -6  -8  372.94   15.68
  -6   6   8  384.69   14.42
   6  -6  -7  839.13   31.67
  -6   6   7  844.90   28.84
   6  -6  -6  241.20   10.69
  -6   6   6  245.11   10.29
   6  -6  -5  169.92    9.00
  -6   6   5  199.86    7.79
   6  -6  -4  164.45    6.76
  -6   6   4  167.96    7.74
   6  -6  -3  893.84   33.20
  -6   6   3  881.22   30.60
   6  -6  -2  833.88   30.31
  -6   6   2  830.72   27.11
   6  -6  -1  495.13   19.64
  -6   6   1  483.61   17.25
   6  -6   0  448.00   16.77
  -6   6   0  452.45   15.96
   6  -6   1  358.52   10.03
  -6   6  -1  375.64   13.69
   6  -6   2    5.19    1.96
  -6   6  -2    5.16    1.89
   6  -6   3    4.79    1.48
  -6   6  -3    6.13    1.56
   6  -6   4    3.82    1.18
  -6   6  -4    2.40    2.08
   6  -6   5   61.83    3.02
   6  -6   6   65.15    5.06
  -6   6  -6   54.40    2.67
   6  -6   7   53.89    2.67
  -6   6  -7   53.79    2.95
   6  -6   8   84.56    4.20
  -6   6  -8   98.51    5.54
   6  -6   9  125.82    5.55
  -6   6  -9  118.57    8.10
   6  -6  10  240.28   12.22
  -6   6 -10  241.09   11.31
   6  -5 -10  544.94   20.90
  -6   5  10  557.61   15.25
   6  -5  -9  534.49   22.12
  -6   5   9  544.35   20.03
   6  -5  -8  234.89   10.74
  -6   5   8  236.39    9.35
   6  -5  -7  580.83   23.88
  -6   5   7  591.70   20.90
   6  -5  -6  223.07    8.71
  -6   5   6  226.32    8.96
   6  -5  -5  145.69    7.31
  -6   5   5  129.07    5.11
   6  -5  -4  337.18   13.16
  -6   5   4  325.20   12.05
   6  -5  -3  271.94    7.50
  -6   5   3  271.12   10.49
   6  -5  -2  117.08    5.16
  -6   5   2  113.25    4.52
   6  -5  -1   15.91    1.61
  -6   5   1   16.00    1.50
   6  -5   0   35.95    1.78
  -6   5   0   33.18    2.19
   6  -5   1  292.89    9.03
  -6   5  -1  298.32   11.41
   6  -5   2  355.76   14.45
  -6   5  -2  376.07   16.19
   6  -5   3   74.36    4.94
  -6   5  -3   77.50    4.51
   6  -5   4   31.56    2.58
   6  -5   5   48.29    3.15
   6  -5   6  203.73    9.09
  -6   5  -6  205.78    8.92
   6  -5   7  199.74    7.67
  -6   5  -7  189.78    8.22
   6  -5   8  120.58    4.47
  -6   5  -8  113.48    7.75
   6  -5   9  201.22    7.28
  -6   5  -9  200.86   13.56
   6  -5  10  369.91   14.70
  -6   5 -10  356.94   15.75
   6  -4 -11  509.46   23.89
  -6   4  11  520.42   16.71
   6  -4 -10  465.99   20.46
  -6   4  10  468.44   18.66
   6  -4  -9  362.91   15.64
  -6   4   9  366.38    9.97
   6  -4  -8  187.64    8.10
  -6   4   8  183.92    7.42
   6  -4  -7   76.94    4.73
  -6   4   7   66.90    2.83
   6  -4  -6   11.91    2.36
  -6   4   6   11.70    1.52
   6  -4  -5  240.97   11.00
  -6   4   5  244.01    9.42
   6  -4  -4   78.29    4.82
  -6   4   4   71.75    3.46
   6  -4  -3    1.01    1.07
  -6   4   3    1.10    1.07
   6  -4  -2  273.41    8.14
  -6   4   2  279.24   10.58
   6  -4  -1  425.35   18.16
   6  -4   0    8.52    1.41
   6  -4   1   26.33    2.54
  -6   4  -1   26.06    1.85
   6  -4   2  278.70   12.76
  -6   4  -2  273.56    9.03
   6  -4   3  195.87    9.66
  -6   4  -3  201.69    6.25
   6  -4   4  307.01    8.61
  -6   4  -4  316.16   14.20
   6  -4   5  709.77   18.35
  -6   4  -5  707.56   18.87
   6  -4   6  566.40   16.44
  -6   4  -6  566.60   17.17
   6  -4   7  212.97    8.88
  -6   4  -7  203.97    8.56
   6  -4   8  242.63   11.76
  -6   4  -8  240.02   12.00
   6  -4   9  269.78   11.20
  -6   4 -10  920.85   39.15
   6  -3 -12  124.62    7.58
  -6   3  12  111.68    4.53
   6  -3 -11  258.43   12.03
  -6   3  11  236.41    9.83
   6  -3 -10  114.80    7.04
  -6   3  10  113.85    5.96
   6  -3  -9   79.08    4.35
  -6   3   9   68.98    3.63
   6  -3  -8   42.37    3.74
  -6   3   8   35.59    2.16
   6  -3  -7   98.83    5.37
  -6   3   7  104.58    3.66
   6  -3  -6    5.70    2.37
  -6   3   6    8.05    1.46
   6  -3  -5  121.55    4.25
   6  -3  -3  392.80   15.32
  -6   3   3  393.25   14.67
   6  -3  -2  577.79   20.47
  -6   3   2  580.51   21.26
   6  -3  -1   65.87    2.40
  -6   3   1   69.76    3.73
   6  -3   0  204.85    8.37
  -6   3   0  210.92    8.95
   6  -3   1  276.74    8.56
  -6   3  -1  276.79    8.85
   6  -3   2  251.31   11.40
   6  -3   3  438.38   16.42
  -6   3  -4 1322.61   48.76
   6  -3   5 1307.44   45.75
  -6   3  -5 1281.75   45.87
   6  -3   6  682.92   18.46
  -6   3  -6  684.05   18.64
   6  -3   7  319.61   12.94
  -6   3  -7  318.72   14.83
   6  -3   8  174.48    8.62
   6  -3   9  478.21   18.03
   6  -2 -12    3.30    3.77
  -6   2  12    4.88    2.11
   6  -2 -11   30.21    3.50
  -6   2  11   42.84    3.77
   6  -2 -10   59.11    4.28
   6  -2  -9    7.18    2.75
   6  -2  -8   14.98    2.05
  -6   2   8   15.73    2.24
   6  -2  -7  766.48   27.43
  -6   2   7  796.38   26.97
   6  -2  -6  485.68   19.34
  -6   2   6  498.66   18.93
   6  -2  -5  152.60    4.78
  -6   2   5  156.61    6.83
   6  -2  -4  189.90    8.42
  -6   2   4  203.34    8.28
   6  -2  -3  339.46   12.92
  -6   2   3  389.77   14.49
   6  -2  -2  280.23   12.61
  -6   2   2  269.26   11.43
   6  -2  -1  887.39   32.10
  -6   2   1  930.00   32.65
   6  -2   0 1066.43   37.69
   6  -2   1 1584.63   37.44
  -6   2  -1 1587.37   55.68
   6  -2   2  509.19   20.01
  -6   2  -2  491.19   13.09
   6  -2   3  882.16   22.86
  -6   2  -3  879.98   30.37
   6  -2   4  897.02   33.67
  -6   2  -4  947.09   33.65
   6  -2   5  754.79   26.71
   6  -2   7  349.60   10.15
  -6   2  -7  362.79   10.56
   6  -2   8  443.90   13.21
  -6   2  -8  439.42   18.03
   6  -2   9  163.16    5.86
  -6   2  -9  162.62    6.75
   6  -1 -13   40.37    3.84
   6  -1 -12   64.87    5.07
  -6   1  12   66.46    2.91
   6  -1 -11  292.74   11.13
  -6   1  11  297.02   12.11
   6  -1 -10  150.08    6.41
  -6   1  10  150.62    6.26
   6  -1  -9   41.30    3.15
  -6   1   9   49.43    2.95
   6  -1  -8   39.81    3.14
  -6   1   8   34.63    2.67
   6  -1  -7 1431.62   48.50
  -6   1   7 1491.16   50.92
   6  -1  -6  455.35   18.68
  -6   1   6  452.52   16.66
   6  -1  -5  739.80   28.68
  -6   1   5  754.06   26.69
   6  -1  -4 1194.46   40.28
  -6   1   4 1198.94   41.25
   6  -1  -3  742.66   28.85
  -6   1   3  771.71   26.95
   6  -1  -2  942.57   32.73
  -6   1   2  949.59   32.74
   6  -1  -1 1044.03   36.46
   6  -1   0 1588.56   38.07
  -6   1   0 1602.00   55.14
   6  -1   1 1796.78   43.71
  -6   1  -1 1770.66   60.69
   6  -1   2  236.82    6.97
  -6   1  -2  237.10    6.69
   6  -1   3  486.00   13.20
  -6   1  -3  492.33   19.91
   6  -1   4  402.73   18.66
  -6   1  -4  404.47   17.06
   6  -1   5  304.98    8.66
  -6   1  -5  314.61    9.52
   6  -1   6  252.60   10.65
  -6   1  -6  239.49   10.97
   6  -1   7  320.63   10.57
  -6   1  -7  333.20   15.57
   6  -1   8   61.43    3.45
  -6   1  -8   66.65    5.46
  -6   1  -9   44.55    6.33
   6   0 -13   60.02    5.46
  -6   0  13   57.35    3.61
   6   0 -12  436.04   17.92
  -6   0  12  445.10   13.32
   6   0 -11  722.59   25.86
  -6   0  11  703.56   24.14
   6   0 -10  558.26   20.11
  -6   0  10  601.94   21.43
   6   0  -9  581.25   23.50
  -6   0   9  606.37   16.51
   6   0  -8  641.91   23.02
  -6   0   8  645.16   22.92
   6   0  -7  567.94   22.87
  -6   0   7  563.89   20.37
   6   0  -6  747.19   27.99
  -6   0   6  712.87   25.79
   6   0  -5 1571.97   52.81
  -6   0   5 1471.43   48.39
   6   0  -4 1595.03   53.65
  -6   0   4 1574.21   51.21
   6   0  -3 1366.16   48.19
  -6   0   3 1386.57   45.82
   6   0  -2  545.84   14.08
  -6   0   2  397.16   15.22
   6   0  -1  302.88   11.76
  -6   0   1  312.61   11.70
   6   0   0  395.54   13.91
  -6   0   0  403.82   15.29
   6   0   1 1303.98   31.19
  -6   0  -1 1279.98   44.45
   6   0   2  292.77   11.25
  -6   0  -2  293.67   11.96
   6   0   3  194.61    5.74
  -6   0  -3  203.34    9.01
   6   0   4   23.37    2.31
  -6   0  -4   18.24    2.08
   6   0   5    3.41    1.89
   6   0   6  159.89    5.55
  -6   0  -6  156.12    7.03
   6   0   7   75.18    3.68
   6   0   8   15.93    2.56
   6   0   9   11.37    3.76
  -6   0  -9   11.55    4.40
   6   1 -14  120.05    7.43
  -6  -1  14  128.90    5.07
   6   1 -13  530.97   20.72
  -6  -1  13  550.46   16.10
   6   1 -12  757.64   27.63
  -6  -1  12  741.56   18.90
   6   1 -11 1073.17   38.72
  -6  -1  11 1087.58   37.65
   6   1 -10 1063.40   36.75
  -6  -1  10 1056.70   36.99
   6   1  -9  964.85   34.07
  -6  -1   9  981.09   34.62
   6   1  -8  434.27   16.03
  -6  -1   8  415.38   14.37
   6   1  -7  341.20   13.83
  -6  -1   7  320.02   11.67
   6   1  -6 1122.58   40.00
  -6  -1   6 1164.22   41.08
   6   1  -5 1909.20   63.59
  -6  -1   5 1925.94   63.20
   6   1  -4 1386.52   46.46
  -6  -1   4 1417.32   49.37
   6   1  -3   31.88    2.45
  -6  -1   3   28.33    1.65
   6   1  -2   38.68    2.36
  -6  -1   2   35.92    2.07
   6   1  -1   86.98    3.57
  -6  -1   1   75.96    3.69
   6   1   0  161.83    6.96
  -6  -1   0  178.86    7.38
   6   1   1  542.20   21.02
  -6  -1  -1  546.27   20.23
   6   1   2  147.06    6.51
   6   1   3    1.06    1.58
   6   1   4   -0.16    1.35
  -6  -1  -4    0.64    1.99
   6   1   5   15.06    2.44
  -6  -1  -5   15.21    3.00
   6   1   6    1.76    1.52
   6   1   7   15.20    1.85
   6   1   8    5.89    2.41
  -6  -1  -8    6.37    3.85
   6   2 -14  682.02   24.85
  -6  -2  14  684.31   25.91
   6   2 -13  846.13   30.80
  -6  -2  13  823.30   29.64
   6   2 -12  756.77   28.33
  -6  -2  12  773.07   27.00
   6   2 -11  529.99   20.84
  -6  -2  11  508.20   15.04
   6   2 -10  646.23   23.73
  -6  -2  10  616.21   23.30
   6   2  -9  567.00   21.34
  -6  -2   9  538.94   18.03
   6   2  -8  927.00   33.44
  -6  -2   8  875.57   29.74
   6   2  -7  134.56    6.91
  -6  -2   7  110.81    4.71
   6   2  -6  369.30   14.67
  -6  -2   6  338.09   11.29
   6   2  -5  215.91    8.41
  -6  -2   5  211.47    8.56
   6   2  -4   12.80    1.50
  -6  -2   4   12.22    1.31
   6   2  -3   73.44    3.42
  -6  -2   3   72.58    3.53
   6   2  -2  111.96    5.22
  -6  -2   2   99.70    4.61
   6   2  -1   20.40    1.70
  -6  -2   1   20.91    1.61
   6   2   0   49.27    2.05
  -6  -2   0   45.63    2.59
   6   2   1   23.31    1.97
   6   2   2   50.38    2.29
  -6  -2  -2   52.38    3.29
   6   2   3    9.01    1.99
  -6  -2  -3   12.39    2.11
   6   2   4   43.38    2.27
  -6  -2  -4   48.26    3.62
   6   2   5  229.62    6.44
   6   2   6  119.22    6.10
   6   2   7   91.33    4.09
   6   2   8   13.17    3.54
   6   3 -15  395.59   16.50
  -6  -3  15  392.24   11.66
   6   3 -14  502.67   18.31
  -6  -3  14  475.28   19.09
   6   3 -13  485.96   18.87
  -6  -3  13  421.92   17.72
   6   3 -12  172.10    7.83
  -6  -3  12  152.04    6.29
   6   3 -11  105.80    5.78
  -6  -3  11  100.32    4.87
   6   3 -10  125.98    5.98
  -6  -3  10  102.85    5.31
   6   3  -9  365.68   13.28
  -6  -3   9  339.59   13.14
   6   3  -8  643.93   22.59
  -6  -3   8  646.97   23.29
   6   3  -7   29.12    1.80
  -6  -3   7   24.92    1.88
   6   3  -6  138.13    5.63
  -6  -3   6  131.10    5.20
   6   3  -5    5.82    1.34
   6   3  -4    2.76    1.13
  -6  -3   4    3.14    1.02
   6   3  -3   34.02    2.01
  -6  -3   3   29.64    1.81
   6   3  -2    9.17    1.18
  -6  -3   2    9.90    1.17
   6   3  -1    6.05    1.11
  -6  -3   1    5.71    1.18
   6   3   0   20.82    1.66
  -6  -3   0   20.09    1.65
   6   3   1  233.01    6.72
  -6  -3  -1  241.21    8.91
   6   3   2   87.43    4.52
   6   3   3  122.41    6.06
  -6  -3  -3  122.80    6.20
   6   3   4  167.40    6.92
   6   3   5  209.77    6.44
  -6  -3  -5  202.04   10.74
   6   3   6  186.97    6.04
   6   3   7  102.03    4.52
   6   4 -15  136.16    7.61
  -6  -4  15  125.79    5.85
   6   4 -14  345.50   14.18
  -6  -4  14  329.52   10.14
   6   4 -13  164.19    7.78
  -6  -4  13  154.84    5.77
   6   4 -12   17.58    3.03
  -6  -4  12   12.93    2.45
   6   4 -11   11.82    2.35
  -6  -4  11    7.54    1.76
   6   4 -10   52.90    2.94
  -6  -4  10   43.91    2.71
   6   4  -9  143.67    6.71
  -6  -4   9  139.43    6.04
   6   4  -8  421.62   15.96
  -6  -4   8  481.10   17.24
   6   4  -7    3.21    1.15
  -6  -4   7    1.70    1.09
   6   4  -6  308.92   10.99
  -6  -4   6  336.23   12.61
   6   4  -5  128.55    6.28
  -6  -4   5  142.35    5.37
  -6  -4   4   63.78    2.88
   6   4  -3   34.39    2.08
  -6  -4   3   32.33    1.70
   6   4  -2  102.87    4.04
  -6  -4   2  108.35    5.16
   6   4  -1  294.82   11.76
  -6  -4   1  296.98   11.17
   6   4   0  318.42   11.71
  -6  -4   0  335.87   12.33
  -6  -4  -1  677.50   24.48
   6   4   3  103.19    4.86
   6   4   4   92.64    3.39
  -6  -4  -4   89.60    5.15
   6   4   5  186.43    5.87
   6   4   6  131.40    8.07
   6   4   7   37.70    4.08
   6   5 -15  138.72    8.13
  -6  -5  15  127.43    4.78
  -6  -5  14   46.50    2.82
   6   5 -13   14.30    3.49
  -6  -5  13    4.78    2.56
  -6  -5  12    0.36    2.01
   6   5 -11    3.54    2.36
  -6  -5  11    0.48    1.31
   6   5 -10   15.13    2.13
  -6  -5  10   24.17    1.99
   6   5  -9   14.10    2.01
  -6  -5   9   24.85    1.69
   6   5  -8   22.44    2.11
  -6  -5   8   33.96    2.08
   6   5  -7  243.84   10.34
  -6  -5   7  258.78   10.66
   6   5  -6  140.72    5.86
  -6  -5   6  146.32    5.55
   6   5  -5  173.47    7.40
  -6  -5   5  174.53    6.81
   6   5  -4  349.65   12.89
  -6  -5   4  334.23   12.29
   6   5  -3  444.81   16.20
  -6  -5   3  441.78   17.33
   6   5  -2  877.76   30.23
   6   5  -1  244.20    9.15
   6   5   0  138.68    5.54
  -6  -5   0  129.77    6.51
   6   5   1  330.14   12.11
   6   5   2   87.76    3.19
   6   5   3   24.52    2.17
   6   5   4  124.70    6.53
   6   5   5   90.77    4.47
  -6  -6  16   19.91    3.70
  -6  -6  15    2.96    2.80
   6   6 -14    9.00    3.57
  -6  -6  14   12.84    2.87
   6   6 -13    8.68    3.06
  -6  -6  13    8.38    2.32
   6   6 -12   16.38    3.06
  -6  -6  12   19.26    2.32
   6   6 -11  136.91    5.98
  -6  -6  11  154.40    7.71
   6   6 -10  409.89   17.28
  -6  -6  10  444.50   17.76
   6   6  -9  303.22   12.07
  -6  -6   9  310.31   11.03
   6   6  -8  474.06   16.63
  -6  -6   8  489.30   17.50
   6   6  -7   45.15    2.43
  -6  -6   7   46.29    2.44
   6   6  -6  197.20    7.79
   6   6  -5  269.07   10.52
   6   6  -4  700.17   23.93
   6   6  -1   91.44    2.83
   6   6   0   85.20    2.64
   6   6   1  106.02    4.98
   6   6   2   73.10    2.90
   6   6   3   63.75    2.31
   6   6   4   70.31    4.16
   6   7 -16   95.01    6.37
  -6  -7  16  104.45    5.31
  -6  -7  15   97.34    6.09
   6   7 -14  121.76    6.05
  -6  -7  14  119.91    5.02
   6   7 -13  156.28    8.14
  -6  -7  13  167.29    8.24
  -6  -7  12  277.30   10.68
   6   7 -11  380.67   14.07
  -6  -7  11  393.02   17.33
   6   7 -10  412.12   17.28
  -6  -7  10  419.31   16.50
   6   7  -9  393.23   15.52
  -6  -7   9  391.25   13.69
   6   7  -7   61.87    3.25
  -6  -7   7   57.62    3.06
   6   7  -6   91.89    3.98
  -6  -7   6   85.25    4.69
   6   7  -5  198.85    8.64
   6   7  -3  265.84    9.50
   6   7  -2  172.96    6.30
   6   7  -1   90.51    3.77
   6   7   0   90.65    4.06
   6   7   1   17.09    1.22
   6   7   2   29.32    1.72
  -6  -8  16  138.75    7.52
  -6  -8  15  209.86    7.58
  -6  -8  14  197.01    7.73
  -6  -8  13  226.24    8.81
  -6  -8  12  216.10    8.25
   6   8 -11  267.97   11.39
  -6  -8  11  254.65    6.97
  -6  -8   9  142.03    5.65
   6   9 -16   51.51    6.75
  -6  -9  16   55.80    3.92
  -6  -9  15   92.18    6.02
  -6  -9  14   87.00    4.52
  -6  -9  13  248.88    9.71
  -6  -9  12  188.31    9.63
  -6  -9  11  173.19    7.57
  -6  -9  10   94.16    4.20
  -6 -10  14   55.22    3.38
  -6 -10  12   71.17    4.45
   7 -13   0   24.22    2.90
   7 -13   1   68.81    7.35
   7 -13   2   51.06    2.78
  -7  13  -2   47.54    5.87
   7 -13   3   36.78    2.92
  -7  13  -3   34.32    3.62
   7 -13   4   46.29    2.91
  -7  13  -4   42.21    3.41
   7 -12  -2   26.77    5.85
  -7  12   2   26.38    4.98
   7 -12  -1   34.89    4.88
   7 -12   0  115.62    7.15
  -7  12   0   95.69    5.70
   7 -12   1  219.04   10.02
   7 -12   2   54.66    3.62
  -7  12  -2   56.12    4.44
   7 -12   3  107.44    5.39
  -7  12  -3  102.25    4.95
   7 -12   4  102.97    6.64
  -7  12  -4   93.50    5.16
   7 -12   5   34.43    3.53
  -7  12  -5   31.43    4.04
   7 -12   6   60.87    3.74
  -7  12  -6   60.00    4.06
   7 -11  -4   49.52    7.24
  -7  11   4   42.21    5.69
   7 -11  -3  135.79    6.65
  -7  11   3  106.06    6.09
   7 -11  -2  106.11    6.37
  -7  11   2   94.35    5.14
   7 -11  -1  176.56    8.73
  -7  11   1  144.74    7.07
   7 -11   0  170.80    7.36
  -7  11   0  171.68    7.65
   7 -11   1  124.55    6.65
  -7  11  -1  107.10    5.94
   7 -11   2   66.42    3.57
   7 -11   3  139.03    6.42
  -7  11  -3  129.96    7.44
   7 -11   4  108.22    5.14
   7 -11   5   63.44    4.53
  -7  11  -5   53.85    4.51
   7 -11   6   16.00    2.66
  -7  11  -6    9.54    3.81
   7 -11   7   16.03    2.83
  -7  11  -7   18.27    4.39
   7 -10  -5   57.19    5.24
  -7  10   5   41.97    2.83
   7 -10  -4  127.21    6.52
  -7  10   4  122.42    6.13
   7 -10  -3  348.60   14.04
   7 -10  -2  218.15   12.23
  -7  10   2  228.05   10.92
   7 -10  -1  207.39    9.76
  -7  10   1  205.76    9.20
   7 -10   0    7.07    2.70
  -7  10   0    5.18    2.78
   7 -10   1   22.96    2.40
  -7  10  -1   29.37    3.34
   7 -10   2  100.33    5.38
  -7  10  -2   91.37    4.64
   7 -10   3  153.76    6.95
  -7  10  -3  145.64    6.80
   7 -10   4   57.48    3.13
  -7  10  -4   62.17    4.29
   7 -10   5   14.50    2.55
  -7  10  -5   14.04    3.50
   7 -10   6   11.20    3.26
  -7  10  -6   11.76    2.66
   7 -10   7    1.90    1.84
  -7  10  -7    0.60    3.47
   7  -9  -6  100.52    6.73
  -7   9   6   94.32    5.45
   7  -9  -5  176.30    6.00
  -7   9   5  171.21    7.22
   7  -9  -4   95.01    3.84
  -7   9   4   81.98    4.68
   7  -9  -3  150.54    7.52
  -7   9   3  147.14    6.28
   7  -9  -2   43.58    4.67
  -7   9   2   42.45    3.73
   7  -9  -1    8.14    1.99
  -7   9   1    8.02    2.00
   7  -9   0   15.84    1.86
  -7   9   0   18.17    3.14
   7  -9   1   18.31    2.20
  -7   9  -1   21.93    3.22
   7  -9   2   71.49    3.11
  -7   9  -2   71.95    5.11
   7  -9   3   16.34    2.01
  -7   9  -3   16.12    3.35
   7  -9   4    7.51    1.89
  -7   9  -4    5.18    2.29
   7  -9   5    0.66    2.05
  -7   9  -5    3.68    3.26
   7  -9   6  142.57    4.80
   7  -9   7  128.31    7.93
  -7   9  -7  127.41    5.20
   7  -9   8   93.73    4.37
  -7   9  -8   82.54    5.87
   7  -8  -7   30.84    3.42
  -7   8   7   27.47    2.51
   7  -8  -6  161.74    7.95
  -7   8   6  136.94    6.48
   7  -8  -5   47.25    3.35
  -7   8   5   50.90    3.50
   7  -8  -4    3.47    2.21
  -7   8   4    2.27    2.49
   7  -8  -3    3.17    3.10
  -7   8   3    3.38    1.89
  -7   8   2    2.98    2.41
   7  -8  -1   73.48    4.00
  -7   8   1   78.95    4.16
   7  -8   0   10.76    1.89
  -7   8   0   13.51    2.63
   7  -8   1   49.39    4.13
  -7   8  -1   38.54    2.70
   7  -8   2    7.69    1.96
  -7   8  -2    9.05    2.23
   7  -8   3  233.58    7.11
  -7   8  -3  224.47   10.02
   7  -8   4  120.06    4.02
  -7   8  -4  122.88    6.52
   7  -8   5  120.50    5.46
  -7   8  -5  123.68    6.36
   7  -8   6  486.67   22.31
   7  -8   7  291.44   13.14
  -7   8  -7  262.55   12.31
   7  -8   8  147.93    5.65
  -7   8  -8  141.01    8.50
   7  -7  -8   28.89    3.02
  -7   7   8   23.34    3.45
   7  -7  -7   52.28    3.88
  -7   7   7   40.28    3.63
   7  -7  -6   72.36    5.07
  -7   7   6   73.57    3.00
   7  -7  -5    1.21    2.17
  -7   7   5    0.19    2.28
   7  -7  -4   26.61    3.15
  -7   7   4   26.36    2.35
   7  -7  -3  262.82    9.98
  -7   7   3  282.21   11.33
   7  -7  -2   72.22    3.06
  -7   7   2   71.85    3.89
   7  -7  -1   13.14    1.45
  -7   7   1   17.28    2.54
   7  -7   0   10.35    1.65
  -7   7   0    7.79    2.47
   7  -7   1  346.82   14.65
  -7   7  -1  350.35   13.39
   7  -7   2  422.25   13.02
  -7   7  -2  417.46   11.99
  -7   7  -3  613.40   23.02
   7  -7   4  498.38   14.81
  -7   7  -4  488.07   13.08
   7  -7   5  388.03   15.99
  -7   7  -5  379.65   11.17
   7  -7   6  398.45   16.00
  -7   7  -6  385.94   11.13
   7  -7   7  241.50   10.78
  -7   7  -7  249.11    8.56
   7  -7   8  416.43   19.15
  -7   7  -8  406.89   11.63
   7  -6  -9   15.10    2.51
  -7   6   9   14.04    3.25
   7  -6  -8    1.84    3.35
  -7   6   8    0.94    2.48
   7  -6  -7    3.93    3.78
  -7   6   7    3.03    2.55
   7  -6  -6   29.63    2.52
  -7   6   6   27.47    2.98
   7  -6  -5  156.14    7.32
  -7   6   5  175.30    6.95
   7  -6  -4  277.00   12.18
  -7   6   4  284.72   11.41
   7  -6  -3  416.79   16.43
  -7   6   3  429.42   16.12
   7  -6  -2  402.70   14.55
  -7   6   2  415.90   14.74
   7  -6  -1  205.11    8.42
  -7   6   1  217.17    9.20
   7  -6   0  153.77    6.17
  -7   6   0  149.76    6.93
   7  -6   1 1091.42   39.05
  -7   6  -1 1167.98   42.05
   7  -6   2  545.30   23.15
  -7   6  -2  538.59   21.10
   7  -6   3  592.45   25.39
  -7   6  -3  568.48   15.60
  -7   6  -4  619.34   23.38
   7  -6   6  251.91    8.48
  -7   6  -6  241.30   10.88
   7  -6   7  289.39   13.64
  -7   6  -7  278.15   10.82
  -7   6  -8  177.54    9.75
   7  -5 -10   10.70    4.18
  -7   5  10   12.74    2.03
   7  -5  -9   89.71    4.29
  -7   5   9   82.65    3.88
   7  -5  -8  202.30    7.18
  -7   5   8  193.74    8.84
   7  -5  -7  197.07    8.68
  -7   5   7  225.05    9.03
   7  -5  -6  432.07   17.85
  -7   5   6  431.42   15.20
   7  -5  -5  275.59   12.94
  -7   5   5  295.43   11.72
   7  -5  -4  226.98   10.22
  -7   5   4  208.33    9.72
   7  -5  -3 1624.86   54.42
  -7   5   3 1614.65   53.25
  -7   5   2 1140.51   39.81
   7  -5  -1  783.46   30.92
  -7   5   1  784.67   27.24
   7  -5   0  547.35   14.50
  -7   5   0  541.11   20.28
   7  -5   1  189.64    5.70
   7  -5   2  298.78    8.66
   7  -5   3  480.78   20.54
  -7   5  -3  492.97   17.37
   7  -5   4  741.75   31.32
  -7   5  -4  752.44   29.25
   7  -5   5  912.91   32.59
  -7   5  -5  905.59   33.30
   7  -5   6  317.45   10.45
  -7   5  -6  315.65   11.00
   7  -5   7  301.49   13.36
   7  -5   8  341.61   14.65
  -7   5  -8  334.55   14.15
   7  -4 -11  185.48   12.37
  -7   4  11  192.95    5.83
   7  -4 -10  179.78    9.28
  -7   4  10  191.20    6.44
   7  -4  -9  253.78   13.05
  -7   4   9  262.39    8.03
   7  -4  -8  977.50   36.24
  -7   4   8  990.97   34.07
   7  -4  -7  382.65   15.73
  -7   4   7  377.12   15.25
   7  -4  -6  534.21   19.86
  -7   4   6  535.20   17.95
   7  -4  -5  375.72   16.85
  -7   4   5  377.04   15.40
   7  -4  -3 1035.71   35.12
   7  -4  -2  633.83   21.69
  -7   4   2  655.57   22.79
   7  -4  -1  727.72   27.48
  -7   4   1  718.50   26.18
   7  -4   0  507.27   19.15
  -7   4   0  489.88   16.98
   7  -4   1  145.22    5.11
  -7   4  -1  140.85    4.75
   7  -4   2  253.70    7.70
  -7   4  -2  262.66   11.79
   7  -4   3  419.00   17.69
  -7   4  -3  438.81   16.57
   7  -4   4  743.69   29.25
   7  -4   5  662.22   25.02
  -7   4  -5  678.32   26.16
   7  -4   6  160.81    8.25
  -7   4  -6  157.62    8.60
   7  -4   7   80.88    3.76
  -7   4  -7   85.47    3.82
   7  -4   8   13.12    2.31
  -7   4  -8   13.79    3.82
   7  -3 -11  537.18   23.35
  -7   3  11  551.99   21.14
   7  -3 -10  186.85    7.54
  -7   3  10  158.10    8.07
   7  -3  -9  209.82    7.97
  -7   3   9  180.35    8.50
   7  -3  -8  805.17   32.49
  -7   3   8  816.73   30.33
   7  -3  -7  367.88   13.36
   7  -3  -6  454.21   17.02
  -7   3   6  454.22   17.42
   7  -3  -5  839.29   27.90
  -7   3   5  850.29   31.49
   7  -3  -4  673.84   17.72
  -7   3   4  686.90   23.79
   7  -3  -3  413.98   15.45
  -7   3   3  400.52   14.93
   7  -3  -2  623.54   21.64
  -7   3   2  629.96   22.53
   7  -3  -1  934.52   25.19
  -7   3   1  923.11   32.30
   7  -3   0 1155.89   41.66
  -7   3   0 1195.76   42.06
   7  -3   1   10.56    1.45
  -7   3  -1   11.56    2.11
   7  -3   2   99.69    5.77
  -7   3  -2  100.09    3.81
   7  -3   3   51.06    2.29
  -7   3  -3   54.03    3.63
   7  -3   4   67.45    3.17
  -7   3  -4   65.20    3.15
   7  -3   5  110.89    4.12
  -7   3  -5  111.30    4.56
   7  -3   6   52.35    3.35
  -7   3  -6   53.01    3.51
   7  -3   7    3.09    2.19
  -7   3  -7    1.18    3.03
   7  -3   8   63.75    3.27
  -7   3  -8   59.22    4.88
   7  -2 -12  148.35    8.95
  -7   2  12  747.37   29.39
   7  -2 -11  257.18   12.55
  -7   2  11  263.61   10.66
   7  -2 -10  363.35   15.12
  -7   2  10  342.40   15.71
   7  -2  -9  333.08   15.06
  -7   2   9  314.28   12.86
   7  -2  -8  595.92   23.53
  -7   2   8  612.51   23.02
   7  -2  -7  415.90   17.48
  -7   2   7  400.26   14.81
   7  -2  -6  841.25   32.25
  -7   2   6  863.51   29.91
   7  -2  -5  525.19   22.16
  -7   2   5  568.67   22.06
   7  -2  -4  360.81    9.97
  -7   2   4  359.57   13.69
   7  -2  -3   92.23    3.10
  -7   2   3   88.63    4.73
   7  -2  -2  214.74    9.36
  -7   2   2  224.21    9.48
   7  -2  -1 1038.72   39.74
   7  -2   0  320.07    9.20
   7  -2   1  294.85    8.54
  -7   2  -1  288.10   10.61
   7  -2   2   48.23    2.51
  -7   2  -2   47.39    3.21
   7  -2   3   45.28    3.15
  -7   2  -3   47.29    2.23
   7  -2   4   22.20    1.99
   7  -2   5    2.37    2.54
  -7   2  -5    4.73    1.65
   7  -2   6    4.08    1.74
  -7   2  -6    2.28    2.80
   7  -2   7   76.25    3.78
  -7   2  -7   76.19    5.62
   7  -2   8   66.77    3.35
   7  -1 -12  445.20   17.25
  -7   1  12  459.01   12.43
   7  -1 -11  527.58   23.90
  -7   1  11  529.99   19.38
   7  -1 -10  607.11   23.57
  -7   1  10  585.66   21.50
   7  -1  -9  578.50   21.68
  -7   1   9  567.95   20.75
   7  -1  -8  151.15    7.12
  -7   1   8  149.87    6.73
   7  -1  -7  170.55    9.19
  -7   1   7  141.92    5.87
   7  -1  -6   58.15    3.86
  -7   1   6   53.32    3.35
   7  -1  -5  130.44    5.46
  -7   1   5  127.34    5.66
   7  -1  -4  110.23    6.29
  -7   1   4  112.85    4.92
   7  -1  -3   39.98    2.35
  -7   1   3   40.19    2.62
   7  -1  -2  215.43    9.15
  -7   1   2  217.53    8.41
   7  -1  -1   24.32    1.85
  -7   1   1   23.06    1.74
   7  -1   0  142.89    6.36
  -7   1   0  137.47    6.13
   7  -1   1  273.86    7.61
  -7   1  -1  280.46   11.16
   7  -1   2  166.69    7.70
  -7   1  -2  174.68    5.37
   7  -1   3  200.98    9.97
  -7   1  -3  197.72    8.76
   7  -1   4  249.73   10.72
   7  -1   5  157.79    7.24
  -7   1  -5  169.84    8.32
   7  -1   6   38.63    2.68
  -7   1  -6   38.74    3.77
   7  -1   7   23.84    2.47
  -7   1  -7   25.86    3.51
   7  -1   8  119.08    4.52
  -7   1  -8  109.85    6.87
   7   0 -13   98.64    5.97
  -7   0  13   93.18    6.04
   7   0 -12  328.86   14.57
  -7   0  12  315.83   13.90
   7   0 -11  439.42   18.22
  -7   0  11  441.00   16.74
   7   0 -10  752.12   28.52
  -7   0  10  757.12   29.00
   7   0  -9  223.11   11.17
  -7   0   9  214.97    6.67
   7   0  -8  170.92    7.30
  -7   0   8  173.79    7.62
   7   0  -7   52.34    3.21
  -7   0   7   55.84    2.82
   7   0  -6   29.50    2.36
  -7   0   6   36.23    2.21
   7   0  -5    7.12    2.16
  -7   0   5    8.97    1.26
   7   0  -4    7.11    1.26
  -7   0   4    8.21    1.65
   7   0  -3    3.69    1.17
  -7   0   3    3.57    1.39
   7   0  -2  183.93    8.53
  -7   0   2  196.18    7.71
   7   0  -1  300.88   11.67
  -7   0   1  308.68   10.92
   7   0   0  380.04   10.26
  -7   0   0  378.13   15.26
   7   0   1  130.27    5.07
   7   0   2  245.60    9.66
   7   0   3  361.04   10.54
  -7   0  -3  380.71   15.84
   7   0   4  284.65    8.18
  -7   0  -4  291.44   12.33
   7   0   5  270.28    8.24
  -7   0  -5  283.64   12.15
   7   0   6  173.65    6.04
   7   0   7  155.03    7.27
   7   1 -13   64.48    5.33
  -7  -1  13   57.44    4.27
   7   1 -12    3.33    3.25
  -7  -1  12    1.89    1.60
   7   1 -11  102.89    5.37
  -7  -1  11   78.65    3.90
   7   1 -10  181.78    6.29
  -7  -1  10  142.10    7.23
   7   1  -9    1.05    2.75
  -7  -1   9    1.39    2.09
   7   1  -8 1006.65   35.44
  -7  -1   8 1078.74   35.96
   7   1  -7  216.64    9.05
  -7  -1   7  223.49    9.35
   7   1  -6  320.86   12.61
  -7  -1   6  365.56   15.38
   7   1  -5  201.40    8.30
  -7  -1   5  199.78    7.75
   7   1  -4   18.20    2.03
  -7  -1   4   15.30    1.45
   7   1  -3   83.55    4.39
  -7  -1   3   71.73    3.25
   7   1  -2  307.35   13.16
  -7  -1   2  339.69   12.19
   7   1  -1  507.10   19.72
   7   1   0  507.59   13.47
  -7  -1   0  549.67   20.17
   7   1   1   60.72    3.53
  -7  -1  -1   55.37    3.46
   7   1   3  615.45   23.12
  -7  -1  -3  619.04   22.33
   7   1   4  610.37   22.59
   7   1   5  386.76   10.64
   7   1   6  205.45    6.51
   7   1   7   41.59    2.71
   7   2 -14    0.66    3.98
  -7  -2  14    2.43    2.23
   7   2 -13   72.31    6.08
  -7  -2  13   92.46    4.39
   7   2 -12   53.84    4.12
  -7  -2  12   65.31    4.60
   7   2 -11    4.87    3.18
  -7  -2  11    4.90    2.36
   7   2 -10   31.12    3.57
  -7  -2  10   35.30    3.02
   7   2  -9  164.49    7.71
  -7  -2   9  169.03    7.97
   7   2  -8  465.05   17.05
  -7  -2   8  481.65   18.82
   7   2  -7  187.82    7.89
  -7  -2   7  185.38    7.61
   7   2  -6  286.63   12.29
  -7  -2   6  300.67   11.66
   7   2  -5  339.76   13.17
  -7  -2   5  367.82   14.11
   7   2  -4  782.27   27.56
  -7  -2   4  793.01   29.01
   7   2  -3  362.21   13.65
   7   2  -2  284.67   11.47
  -7  -2   2  318.05   11.36
   7   2  -1  260.22   10.18
  -7  -2   1  310.96   11.05
  -7  -2   0  512.03   17.54
   7   2   1  372.05   13.92
  -7  -2  -1  378.76   14.06
  -7  -2  -3  495.74   18.70
   7   2   4  205.60    6.40
  -7  -2  -4  196.96    9.38
   7   2   5  162.72    5.47
   7   2   6   32.02    3.03
   7   2   7    6.80    2.58
  -7  -3  14  137.34    5.02
  -7  -3  13   74.83    3.35
   7   3 -12  194.40    9.03
  -7  -3  12  228.83    9.11
   7   3 -11  241.60   10.93
  -7  -3  11  273.78   10.92
   7   3 -10  260.95   10.19
  -7  -3  10  267.19   10.23
   7   3  -9  129.44    6.57
  -7  -3   9  138.12    5.31
   7   3  -8  167.34    7.38
  -7  -3   8  167.57    7.77
   7   3  -7  611.09   22.17
  -7  -3   7  632.06   23.77
   7   3  -6 1066.60   34.97
  -7  -3   6 1144.88   39.34
   7   3  -5 1388.97   45.77
  -7  -3   5 1489.13   50.11
   7   3  -4  429.29   16.91
  -7  -3   4  490.22   16.79
   7   3  -3  211.87    8.83
  -7  -3   3  229.26    8.40
   7   3  -2   89.12    4.47
  -7  -3   2  103.07    4.60
   7   3  -1  171.39    6.57
   7   3   1  300.78   10.42
  -7  -3  -1  307.43   11.87
   7   3   2  229.58    9.94
   7   3   3  128.55    6.55
  -7  -3  -3  124.90    6.18
   7   3   4   48.65    2.64
   7   3   5    6.22    2.74
   7   3   6    3.35    2.78
   7   4 -15  260.99   12.09
  -7  -4  15  307.51   10.23
   7   4 -14  240.61   10.93
  -7  -4  14  249.10    8.10
   7   4 -13  214.30   10.69
  -7  -4  13  216.80    8.68
   7   4 -12  292.86   12.57
  -7  -4  12  313.18   11.25
   7   4 -11  399.20   14.89
  -7  -4  11  395.17   14.53
   7   4 -10  297.17   11.17
  -7  -4  10  319.66   12.51
   7   4  -9  378.17   13.69
  -7  -4   9  403.58   15.16
   7   4  -8  284.21   11.59
  -7  -4   8  284.52   10.58
   7   4  -7  855.73   31.20
  -7  -4   7  913.05   30.17
   7   4  -6  935.34   32.51
  -7  -4   6 1084.86   35.92
  -7  -4   5  529.73   17.34
   7   4  -4  392.89   14.03
  -7  -4   4  401.72   14.75
   7   4  -3  146.28    5.96
  -7  -4   3  140.14    5.67
   7   4  -2   27.26    1.81
  -7  -4   2   25.08    1.99
   7   4  -1  112.40    4.92
  -7  -4   1  117.75    5.19
   7   4   0  110.59    4.94
  -7  -4   0  110.47    5.50
   7   4   1   82.77    2.90
  -7  -4  -1   88.31    4.16
   7   4   2   19.46    2.19
   7   4   3   34.39    2.07
   7   5 -15  258.35   11.19
  -7  -5  15  259.68   10.60
   7   5 -14  376.19   17.38
  -7  -5  14  366.76   10.52
   7   5 -13  279.58   11.84
  -7  -5  13  290.72   10.60
  -7  -5  12  338.66   14.08
   7   5 -11  480.51   17.57
  -7  -5  11  490.37   20.05
   7   5 -10  423.47   15.37
  -7  -5  10  419.74   15.29
   7   5  -9  443.40   16.77
  -7  -5   9  449.38   16.20
   7   5  -8  123.91    5.55
  -7  -5   8  115.09    4.90
   7   5  -7  619.03   22.41
  -7  -5   7  648.69   22.08
   7   5  -6  188.03    7.99
  -7  -5   6  161.07    6.04
   7   5  -5  222.99    9.01
  -7  -5   5  193.30    8.11
   7   5  -4  138.06    6.55
  -7  -5   4  130.42    5.41
   7   5  -3   14.78    1.49
   7   5  -2   11.23    1.38
  -7  -5   2   13.43    1.50
   7   5  -1   12.61    1.69
   7   5   0   -0.32    1.26
   7   5   1   19.65    1.42
   7   5   2    5.27    1.76
   7   5   3    0.80    1.88
   7   6 -15  346.15   15.65
  -7  -6  15  333.22    9.09
   7   6 -14  454.14   18.68
  -7  -6  14  434.67   12.70
  -7  -6  13  354.62   12.29
   7   6 -12  238.45   11.33
  -7  -6  12  225.18   11.29
  -7  -6  11   74.11    3.70
   7   6 -10   86.39    4.24
  -7  -6  10   77.02    3.92
   7   6  -9  202.03    8.54
  -7  -6   9  181.88    7.10
   7   6  -8   22.80    2.11
  -7  -6   8   15.81    1.61
   7   6  -7   36.70    2.68
   7   6  -6  114.39    5.46
  -7  -6   6  108.66    4.56
   7   6  -5   58.96    3.41
  -7  -6   5   59.46    3.21
   7   6  -4   31.57    2.29
   7   6  -3   24.10    2.07
   7   6  -2    2.52    1.42
   7   6  -1   -0.35    1.35
   7   6   0   34.26    2.17
   7   6   1    1.64    1.64
   7   6   2    7.85    1.33
   7   7 -15  211.28   10.05
  -7  -7  15  209.92    9.64
   7   7 -14  261.76   13.99
  -7  -7  14  251.51   10.17
  -7  -7  13  143.28    6.81
  -7  -7  12   13.51    2.24
  -7  -7  10   12.59    1.56
   7   7  -9   62.81    4.21
  -7  -7   9   61.83    3.13
   7   7  -8   -0.12    1.64
  -7  -7   8    0.56    0.95
   7   7  -7   19.40    1.97
  -7  -7   7   19.58    1.57
   7   7  -6   17.17    1.88
   7   7  -5    0.00    1.17
  -7  -7   5   -0.51    0.93
   7   7  -4    7.91    1.26
   7   7  -3   40.99    2.39
   7   7  -2    6.29    1.49
   7   7   0   60.01    2.19
  -7  -8  16   47.03    3.04
  -7  -8  15   48.97    4.59
   7   8 -14   75.99    6.61
  -7  -8  14   75.42    3.70
  -7  -8  13   16.77    1.99
  -7  -8  11   11.37    1.45
   7   8 -10    0.60    1.96
  -7  -8  10    0.36    1.11
  -7  -8   9   21.73    1.84
  -7  -9  14    0.28    1.50
   7   9 -13    0.52    2.82
  -7  -9  12    3.51    1.61
  -7  -9  11   14.24    1.56
  -7  -9  10   22.79    2.07
   8 -11  -1   15.61    4.35
  -8  11   1   11.98    3.27
  -8  11   0   50.58    3.62
   8 -11   1  110.14    7.59
   8 -11   2   55.38    4.23
  -8  11  -2   45.50    3.81
   8 -11   3   36.58    3.09
   8 -11   4   20.17    4.57
   8 -10  -3    3.65    3.74
  -8  10   3    1.84    3.03
  -8  10   2    5.81    2.27
   8 -10  -1   72.47    5.63
  -8  10   1   66.52    4.99
   8 -10   0  235.78    6.85
  -8  10   0  206.50    9.56
   8 -10   1  116.91    5.63
  -8  10  -1  108.39    5.34
   8 -10   2  259.97   11.50
  -8  10  -2  227.33    9.75
   8 -10   3  122.65    4.36
  -8  10  -3  112.46    7.67
   8 -10   4   28.17    3.03
  -8  10  -4   33.71    2.88
   8 -10   5  141.51    5.41
  -8  10  -5  134.48    7.83
   8  -9  -5  127.00    7.23
  -8   9   5  108.26    5.77
   8  -9  -4   84.74    6.57
  -8   9   4   76.46    4.88
   8  -9  -3   15.33    3.31
  -8   9   3    9.24    3.21
   8  -9  -2   64.61    3.57
  -8   9   2   46.29    4.27
   8  -9  -1  301.82    9.27
  -8   9   1  288.64   11.27
   8  -9   0  375.25   17.33
  -8   9   0  341.70   14.46
   8  -9   1  291.64   15.09
  -8   9  -1  254.61   10.29
   8  -9   2  447.58   19.74
   8  -9   3  239.63    8.99
  -8   9  -3  223.03    9.39
   8  -9   4  211.89   12.46
  -8   9  -4  178.17    6.10
   8  -9   5  200.39    8.30
  -8   9  -5  179.60    8.29
   8  -9   6  176.12    6.12
  -8   9  -6  156.34    7.42
   8  -8  -6  152.25    7.95
  -8   8   6  129.38    6.12
   8  -8  -5  148.73    5.81
  -8   8   5  134.96    7.93
   8  -8  -4  344.61   13.53
  -8   8   4  323.12   12.21
   8  -8  -3  233.94    7.89
  -8   8   3  223.49    9.17
   8  -8  -2  400.60   11.74
  -8   8   2  389.99   15.06
   8  -8  -1  103.99    3.84
  -8   8   1   95.57    5.46
   8  -8   0  267.58   10.85
  -8   8   0  254.78    9.81
   8  -8   1  378.17   14.96
  -8   8  -1  365.68   13.04
   8  -8   2  586.13   15.76
  -8   8  -2  565.51   23.07
   8  -8   3  564.72   20.91
  -8   8  -3  551.78   24.20
   8  -8   4  250.96    8.11
  -8   8  -4  240.53   10.44
   8  -8   5   35.92    2.91
  -8   8  -5   31.88    3.85
   8  -8   6   42.73    3.85
  -8   8  -6   42.51    2.98
   8  -7  -7  311.05    9.76
  -8   7   7  288.83   12.45
   8  -7  -6  258.03   11.58
  -8   7   6  245.74    9.34
   8  -7  -5  311.64   14.37
  -8   7   5  294.58   11.16
   8  -7  -4  676.91   18.15
   8  -7  -3  310.33    8.92
  -8   7   3  308.30    9.54
   8  -7  -2  173.43    7.62
  -8   7   2  177.78    7.51
   8  -7  -1  145.59    4.63
  -8   7   1  144.15    6.36
   8  -7   0  280.48   12.25
  -8   7   0  287.30   11.03
   8  -7   1  396.53   14.31
  -8   7  -1  401.36   14.86
   8  -7   2  349.45   16.06
   8  -7   3  146.93    5.04
   8  -7   4  176.21    6.08
  -8   7  -4  179.29    8.54
   8  -7   5   19.52    2.19
  -8   7  -5   14.73    3.72
   8  -7   6    2.35    1.80
   8  -6  -8  352.62   12.14
  -8   6   8  325.51   10.31
   8  -6  -7  608.90   22.80
  -8   6   7  604.28   21.82
   8  -6  -6  334.61   13.59
  -8   6   6  357.47   12.89
   8  -6  -5  196.49    9.67
  -8   6   5  176.14    7.00
   8  -6  -4  335.99   13.45
  -8   6   4  338.64   12.97
   8  -6  -3  124.78    6.65
  -8   6   3  136.16    6.01
   8  -6  -2  202.45    6.25
  -8   6   2  200.33    9.63
   8  -6  -1   57.35    2.70
  -8   6   1   64.81    4.09
   8  -6   0    8.81    2.03
  -8   6   0    9.07    2.96
   8  -6   1   54.32    3.80
  -8   6  -1   57.89    3.92
   8  -6   2    1.45    2.33
  -8   6  -2    1.23    2.94
   8  -6   3  134.84    5.16
   8  -6   4   82.81    3.61
  -8   6  -4   88.59    5.71
   8  -6   5   89.36    5.61
  -8   6  -5   80.79    5.71
   8  -6   6   27.09    3.42
   8  -6   7   35.73    2.98
  -8   6  -7   30.89    3.00
   8  -5  -9  384.74   17.81
  -8   5   9  344.87   13.36
   8  -5  -8  180.13    8.17
  -8   5   8  154.48    7.00
   8  -5  -7  275.36   12.50
  -8   5   7  257.37   10.29
   8  -5  -6  101.94    6.36
  -8   5   6  105.00    5.03
   8  -5  -5   72.97    3.46
  -8   5   5   67.23    4.28
   8  -5  -4    9.36    2.12
  -8   5   4    8.75    2.86
   8  -5  -3   63.10    3.77
  -8   5   3   63.94    3.51
   8  -5  -2   43.39    3.37
  -8   5   2   58.68    5.24
   8  -5  -1    4.23    2.21
   8  -5   0   55.50    3.45
  -8   5   0   56.17    4.00
   8  -5   1    3.53    2.25
  -8   5  -1    6.71    1.92
   8  -5   2    0.93    1.44
  -8   5  -2    4.76    2.62
   8  -5   3   16.32    2.23
  -8   5  -3   15.43    2.47
   8  -5   4   15.80    2.16
  -8   5  -4   16.04    2.48
   8  -5   5  246.74    8.14
  -8   5  -5  234.68    7.89
   8  -5   6  186.27    9.17
   8  -5   7  221.34    9.86
   8  -4 -10   17.34    3.02
  -8   4  10   11.96    4.06
   8  -4  -9   12.94    2.78
  -8   4   9    9.83    2.36
   8  -4  -8   35.95    3.98
  -8   4   8   35.49    2.55
   8  -4  -7   81.91    4.91
  -8   4   7   81.24    4.23
   8  -4  -6  101.89    6.00
   8  -4  -5   74.97    3.47
   8  -4  -4    5.42    2.37
  -8   4   4    3.70    2.32
   8  -4  -3   11.72    1.85
  -8   4   3   12.81    2.49
   8  -4  -2   23.30    2.70
  -8   4   2   25.35    2.62
   8  -4  -1   79.23    3.53
  -8   4   1   75.05    4.25
  -8   4   0  607.89   21.50
   8  -4   1   10.70    1.49
  -8   4  -1   11.44    2.55
   8  -4   2   99.23    3.69
  -8   4  -2  107.51    6.26
   8  -4   3  308.45   11.62
   8  -4   4  454.60   13.19
  -8   4  -4  435.63   17.30
   8  -4   5  261.89   11.19
  -8   4  -5  251.67   10.74
   8  -4   6  253.72    7.97
  -8   4  -6  238.30    7.55
   8  -4   7  347.67   10.06
  -8   4  -7  320.60   14.55
   8  -3 -10   49.33    4.52
   8  -3  -9   16.22    3.30
  -8   3   9   12.69    2.86
   8  -3  -8    4.90    3.51
  -8   3   8    4.71    2.43
   8  -3  -7   10.13    2.31
  -8   3   7    9.74    2.51
   8  -3  -6   87.15    5.49
  -8   3   6   86.77    4.94
   8  -3  -5    8.85    1.78
  -8   3   5    7.94    2.47
   8  -3  -4  580.52   15.77
  -8   3   4  583.92   21.47
   8  -3  -3  372.18   10.38
  -8   3   3  375.50   14.74
   8  -3  -2  425.77   16.36
  -8   3   2  416.81   16.18
   8  -3  -1  455.36   16.82
  -8   3   1  471.81   16.75
   8  -3   0  280.44   11.00
  -8   3   0  274.07   11.28
   8  -3   1  301.45   13.47
  -8   3  -1  291.20   10.89
   8  -3   2  522.56   19.45
  -8   3  -2  529.58   19.97
   8  -3   3  753.27   19.99
  -8   3  -3  711.77   29.03
   8  -3   5  125.59    6.25
  -8   3  -5  125.01    4.43
   8  -3   6  276.26   12.74
  -8   3  -6  254.18    7.89
   8  -2 -11   25.99    4.57
  -8   2  11   30.77    2.33
   8  -2 -10   69.61    4.63
  -8   2  10   78.57    4.24
   8  -2  -9  326.83   14.42
  -8   2   9  338.03   12.61
   8  -2  -8   42.44    3.96
  -8   2   8   53.21    3.30
   8  -2  -7   80.68    4.45
  -8   2   7   84.78    4.69
   8  -2  -6   43.11    3.84
  -8   2   6   37.93    3.07
   8  -2  -5  315.79    9.40
  -8   2   5  303.42   13.56
   8  -2  -4  993.78   36.63
  -8   2   4 1019.60   35.32
   8  -2  -3  645.08   23.92
  -8   2   3  694.23   25.87
   8  -2  -1  619.00   16.93
  -8   2   1  619.51   23.49
   8  -2   0  380.76   11.72
  -8   2   0  397.75   16.86
  -8   2  -1  481.30   17.58
   8  -2   2  594.39   23.74
  -8   2  -2  565.15   19.45
   8  -2   4  334.47    9.34
   8  -2   5   66.96    4.21
  -8   2  -5   71.63    4.69
   8  -2   6  150.03    5.39
  -8   2  -6  146.35    7.97
   8  -1 -12   87.88    5.14
  -8   1  12   77.93    4.35
   8  -1 -11   40.28    4.10
  -8   1  11   42.36    2.94
   8  -1 -10  383.64   14.82
  -8   1  10  405.51   16.86
   8  -1  -9  865.32   31.53
  -8   1   9  899.64   30.56
   8  -1  -8  213.18   10.14
  -8   1   8  220.22    9.56
   8  -1  -7  442.84   17.44
  -8   1   7  469.98   16.90
   8  -1  -6  758.46   31.28
  -8   1   6  777.60   27.18
   8  -1  -5  721.87   29.15
  -8   1   5  757.86   25.83
   8  -1  -4  596.18   14.51
  -8   1   4  621.94   24.05
   8  -1  -3  522.08   14.29
  -8   1   3  519.91   18.63
   8  -1  -2  333.89   15.26
  -8   1   2  341.65   12.10
   8  -1  -1  682.06   25.63
  -8   1   1  692.70   26.54
   8  -1   0  249.15   10.54
  -8   1   0  251.46   10.40
   8  -1   1  708.95   24.61
  -8   1  -1  754.81   29.75
   8  -1   2  337.23    9.44
  -8   1  -2  338.40   13.98
   8  -1   3  104.58    4.14
  -8   1  -3  106.84    5.49
   8  -1   4  132.59    4.82
  -8   1  -4  124.68    7.00
   8  -1   5  118.88    5.93
   8  -1   6  184.12    6.08
  -8   1  -6  183.21    6.47
   8   0 -12  129.07    7.16
  -8   0  12  135.96    6.33
   8   0 -11  442.26   19.25
  -8   0  11  443.94   13.20
   8   0 -10  488.52   13.33
  -8   0  10  476.46   20.28
   8   0  -9  696.06   18.67
  -8   0   9  711.85   27.01
   8   0  -8  418.83   16.38
  -8   0   8  389.68   13.98
   8   0  -7  955.97   24.69
  -8   0   7  969.34   36.35
   8   0  -6  773.30   19.50
  -8   0   6  784.04   29.67
  -8   0   5  247.49    9.11
   8   0  -4   27.32    2.83
  -8   0   4   24.47    2.01
   8   0  -3  169.17    5.42
  -8   0   3  167.05    8.01
  -8   0   2 1233.46   43.11
   8   0  -1  909.96   34.26
   8   0   0  156.85    7.16
  -8   0   0  157.39    6.45
   8   0   1  387.02   11.20
  -8   0  -1  408.20   15.67
   8   0   2   27.54    2.71
  -8   0  -2   27.04    2.41
   8   0   3   43.19    3.59
  -8   0  -3   43.31    3.50
   8   0   4  122.65    6.29
  -8   0  -4  128.35    7.06
   8   0   5   76.46    3.57
  -8   0  -5   78.87    5.20
   8   0   6    6.02    3.19
   8   1 -13  326.44   14.20
  -8  -1  13  304.36    8.62
   8   1 -12  307.13   12.97
  -8  -1  12  300.67   11.40
   8   1 -11  378.00   14.43
  -8  -1  11  365.91   14.71
   8   1 -10  513.39   19.46
  -8  -1  10  540.00   21.10
   8   1  -9  485.11   12.58
  -8  -1   9  507.50   19.85
   8   1  -8  554.47   22.75
  -8  -1   8  547.78   21.50
   8   1  -7  508.71   18.56
  -8  -1   7  501.52   22.00
   8   1  -6  337.44   12.38
  -8  -1   6  334.07   13.63
  -8  -1   5  203.12    8.57
   8   1  -4   96.29    5.34
  -8  -1   4  106.33    4.47
   8   1  -3  663.39   16.36
  -8  -1   3  623.87   22.43
   8   1  -2  335.52    9.16
  -8  -1   2  325.12   11.66
   8   1  -1  159.29    7.46
   8   1   0   12.51    2.16
   8   1   1   38.55    2.29
  -8  -1  -1   38.42    2.98
   8   1   2   13.67    2.59
   8   1   3    3.73    2.39
  -8  -1  -3    4.09    2.64
   8   1   4    1.70    1.62
   8   1   5   -0.94    1.73
  -8  -1  -5    0.86    3.37
   8   2 -13  355.36   15.33
  -8  -2  13  350.46   17.12
   8   2 -12  302.87   11.86
  -8  -2  12  287.90   13.43
   8   2 -11  473.50   16.53
  -8  -2  11  448.66   16.63
   8   2 -10  360.85   15.53
  -8  -2  10  344.89   12.92
   8   2  -9  120.91    7.28
  -8  -2   9  114.56    5.18
   8   2  -8  403.68   15.33
  -8  -2   8  411.78   14.58
   8   2  -7  238.63    9.55
  -8  -2   7  258.81   10.07
   8   2  -6  179.09    7.95
  -8  -2   6  182.74    7.26
   8   2  -5   97.31    4.82
  -8  -2   5   79.82    3.76
   8   2  -4   82.95    4.45
  -8  -2   4   93.44    4.04
   8   2  -3   41.77    2.79
  -8  -2   3   40.36    2.62
   8   2  -2   10.72    1.97
   8   2  -1   -0.07    1.82
  -8  -2   1   -0.25    1.94
   8   2   0   14.06    1.74
  -8  -2   0   14.43    2.31
   8   2   1   17.72    1.86
  -8  -2  -1   19.13    2.43
   8   2   2   33.24    2.12
   8   2   3   30.85    2.33
   8   2   4   50.04    2.64
  -8  -2  -4   55.29    4.01
   8   2   5   15.68    2.66
  -8  -3  14  179.64    9.70
   8   3 -13   43.50    3.93
  -8  -3  13   36.35    3.94
   8   3 -12  174.16    7.90
  -8  -3  12  144.07    8.45
   8   3 -11  266.08   11.04
  -8  -3  11  250.05    7.99
   8   3 -10  187.48    8.05
  -8  -3  10  182.96    6.99
   8   3  -9   52.83    3.14
  -8  -3   9   50.70    3.68
   8   3  -8  285.82   11.55
  -8  -3   8  294.03   10.72
   8   3  -7    3.76    2.44
  -8  -3   7    2.00    1.72
   8   3  -6   -0.42    2.32
  -8  -3   6    3.76    1.78
   8   3  -5   49.31    3.94
  -8  -3   5   42.49    2.56
   8   3  -4   20.32    2.11
  -8  -3   4   18.13    2.05
   8   3  -3   53.16    3.15
  -8  -3   3   46.93    2.76
   8   3  -2   90.42    4.33
  -8  -3   2   89.71    4.55
   8   3  -1  212.14    8.48
   8   3   0   16.85    2.28
  -8  -3   0   16.42    2.40
   8   3   1  135.86    5.97
   8   3   2   48.64    3.30
  -8  -3  -2   51.16    3.70
   8   3   3   36.28    3.03
   8   3   4   46.65    2.39
   8   3   5   20.00    2.64
   8   4 -14    5.57    3.93
  -8  -4  14    4.53    2.21
   8   4 -13    3.98    3.37
  -8  -4  13    4.09    2.59
   8   4 -12   76.94    5.08
  -8  -4  12   74.60    4.45
   8   4 -11   91.83    5.15
  -8  -4  11   74.42    4.20
   8   4 -10   43.23    4.00
  -8  -4  10   39.21    2.88
   8   4  -9   30.81    3.09
  -8  -4   9   33.73    2.58
   8   4  -8    1.02    1.65
  -8  -4   8    1.86    1.80
   8   4  -7  100.55    5.07
  -8  -4   7  112.43    5.35
   8   4  -6   81.23    4.52
  -8  -4   6   83.52    3.97
   8   4  -5  120.83    5.49
   8   4  -4   53.02    2.37
  -8  -4   4   52.43    3.17
   8   4  -3  112.09    4.91
  -8  -4   3  102.38    4.76
   8   4  -2  110.14    5.15
   8   4  -1   94.17    4.56
  -8  -4   1   82.97    4.45
   8   4   0   79.46    3.82
   8   4   1  172.18    5.69
  -8  -4  -1  171.30    7.52
   8   4   2   55.20    2.86
   8   4   3   46.76    3.58
   8   5 -14    2.00    3.98
  -8  -5  14    2.79    2.11
   8   5 -13   24.59    3.02
  -8  -5  13   34.04    3.54
   8   5 -12    0.86    2.04
  -8  -5  12    4.59    2.20
   8   5 -11    3.27    2.16
  -8  -5  11    9.94    2.17
   8   5 -10   49.29    3.55
  -8  -5  10   51.17    3.62
   8   5  -9  116.37    5.73
  -8  -5   9  106.07    5.14
   8   5  -8   98.94    5.03
   8   5  -7  103.12    4.98
  -8  -5   7  106.50    4.87
   8   5  -6  180.26    8.40
   8   5  -5  100.01    5.04
   8   5  -4   75.66    4.13
   8   5  -3  114.01    5.27
  -8  -5   3  108.96    5.11
   8   5  -2  127.87    5.37
   8   5   0   70.51    3.81
   8   5   1  109.80    4.13
   8   5   2   60.36    3.10
   8   6 -14   16.07    4.05
  -8  -6  14   21.07    1.86
   8   6 -13   50.70    3.76
  -8  -6  13   56.74    3.65
   8   6 -12   47.00    4.13
  -8  -6  12   48.74    2.98
   8   6 -11  111.40    6.40
  -8  -6  11  108.37    5.94
   8   6 -10  158.88    7.55
  -8  -6  10  156.99    6.13
   8   6  -9  128.82    6.42
   8   6  -8  197.12    8.24
  -8  -6   8  196.65    7.06
   8   6  -7  182.24    8.80
  -8  -6   7  190.00    7.18
   8   6  -6  130.16    5.97
  -8  -6   6  126.90    6.20
   8   6  -5  169.72    7.95
   8   6  -4  128.06    6.72
   8   6  -3  104.62    5.90
   8   7 -15   43.31    6.63
  -8  -7  15   38.70    3.09
  -8  -7  14   24.56    2.27
  -8  -7  12  191.49    7.74
   8   7 -11  152.45    7.52
  -8  -7  11  163.05    6.88
   8   7 -10  219.33   11.17
  -8  -7  10  232.64    8.83
   8   7  -9  108.00    6.04
  -8  -7   9  106.30    4.49
   8   7  -8  209.70   10.70
  -8  -7   7   46.33    3.10
   8   7  -6   98.48    4.43
   8   7  -4   75.01    3.80
   8   7  -3   96.40    4.29
   8   7  -2   35.05    3.22
  -8  -8  14   41.04    2.99
   8   8 -13   83.36    6.55
  -8  -8  13   95.19    4.52
  -8  -8  12   92.47    5.31
   9  -9  -2    8.18    3.33
  -9   9   2    9.35    2.86
   9  -9  -1    6.79    3.30
  -9   9   1    5.03    2.27
   9  -9   0   -2.08    3.31
  -9   9   0    0.93    2.55
   9  -9   1    5.46    3.35
  -9   9  -1    3.22    2.54
   9  -9   2    1.48    2.20
  -9   9  -2   -0.74    3.46
  -9   8   4   17.29    2.40
   9  -8  -3    5.67    3.07
  -9   8   3    7.27    3.46
   9  -8  -2   16.32    2.27
  -9   8   2   16.20    3.62
   9  -8  -1   37.92    2.55
  -9   8   1   35.85    4.20
   9  -8   0   10.86    2.48
  -9   8   0   12.09    3.82
   9  -8   1   63.50    3.92
  -9   8  -1   64.89    4.73
   9  -8   2   43.14    2.96
  -9   8  -2   50.80    4.27
   9  -8   3   38.38    3.93
  -9   8  -3   35.77    3.39
   9  -7  -5   41.65    5.27
  -9   7   5   36.05    2.91
   9  -7  -4   19.23    4.52
  -9   7   4   14.07    2.63
   9  -7  -3   70.55    3.21
  -9   7   3   67.05    4.10
   9  -7  -2  208.07    8.99
  -9   7   2  178.01    7.58
   9  -7  -1   93.54    5.83
   9  -7   0  110.01    6.29
  -9   7   0   94.21    5.50
   9  -7   1  316.34    9.36
  -9   7  -1  290.06   14.47
   9  -7   2  116.79    6.37
  -9   7  -2  110.23    5.34
   9  -7   3  188.19    8.81
  -9   7  -3  171.18    9.31
   9  -7   4   22.71    3.66
  -9   7  -4  214.24   11.32
   9  -6  -7   96.43    7.00
  -9   6   7  100.93    4.75
   9  -6  -6  154.86    8.69
  -9   6   6  138.28    8.37
   9  -6  -5  285.12   12.25
  -9   6   5  269.15   10.18
   9  -6  -4   99.70    5.82
  -9   6   4  101.87    5.49
   9  -6  -3  200.85    8.76
  -9   6   3  212.32    9.44
   9  -6  -2   67.24    4.61
  -9   6   2   66.69    4.06
   9  -6  -1  196.50    6.87
  -9   6   1  193.32   10.45
   9  -6   0  279.18    8.64
  -9   6  -1  534.10   21.85
   9  -6   3  245.35   12.43
  -9   6  -3  243.23    9.86
   9  -6   4  143.76    7.55
  -9   6  -4  132.91    7.04
   9  -5  -8  179.78    7.14
  -9   5   8  162.47    7.12
   9  -5  -7  127.84    7.14
  -9   5   7  113.41    5.61
   9  -5  -6  269.07    8.14
  -9   5   6  268.85   10.99
   9  -5  -4  148.85    5.50
   9  -5  -3  241.44    9.99
  -9   5   3  231.31    9.20
   9  -5  -2  250.60    9.68
  -9   5   2  265.54   13.05
   9  -5  -1  592.51   22.86
  -9   5   1  595.91   21.60
   9  -5   2  380.25   10.99
  -9   5  -2  380.42   16.99
   9  -5   3  323.59   10.80
  -9   5  -3  296.95    9.74
   9  -5   4   50.57    3.62
  -9   5  -4   50.49    4.27
   9  -4  -9  269.74   11.48
   9  -4  -8  387.04   16.70
   9  -4  -7  283.10   12.29
  -9   4   7  262.99    9.93
   9  -4  -6  321.25   14.46
  -9   4   6  316.24   12.46
   9  -4  -5  560.01   22.16
  -9   4   5  601.93   21.93
   9  -4  -4  164.06    6.91
  -9   4   4  165.84    8.09
   9  -4  -3  455.16   18.28
  -9   4   3  466.27   17.79
   9  -4  -2  612.85   27.77
  -9   4   2  618.13   26.53
   9  -4  -1  593.24   27.08
   9  -4   1  151.11    6.49
  -9   4  -1  149.60    6.81
   9  -4   2  232.25    7.85
  -9   4  -2  226.95   12.14
   9  -4   3  140.58    4.69
  -9   4  -3  134.79    6.65
   9  -4   4    5.30    2.47
  -9   4  -4    6.06    2.33
   9  -4   5  116.13    7.31
  -9   4  -5  108.73    5.30
   9  -3  -9  293.61   12.92
  -9   3   9  271.79   11.88
   9  -3  -8  684.65   19.33
  -9   3   8  678.93   26.67
   9  -3  -7  401.91   12.34
  -9   3   7  398.34   16.71
   9  -3  -6  285.86    8.45
  -9   3   6  287.19   11.45
   9  -3  -5  251.74    8.75
  -9   3   5  258.43   11.83
   9  -3  -4  370.63   15.06
  -9   3   4  359.97   12.94
   9  -3  -3  574.30   24.13
   9  -3  -2  500.39   21.21
   9  -3  -1  129.49    4.82
  -9   3   1  126.77    6.83
   9  -3   0   13.14    3.02
  -9   3   0   15.47    2.67
   9  -3   1    9.21    2.03
  -9   3  -1    8.88    2.12
   9  -3   2   92.71    4.90
  -9   3  -2   97.00    5.78
   9  -3   3   46.28    2.95
  -9   3  -3   40.48    4.29
   9  -3   4   -0.52    2.31
  -9   3  -4   -1.31    2.98
   9  -3   5    1.05    2.79
  -9   3  -5    0.44    4.21
   9  -2 -10  316.56   14.27
  -9   2  10  302.29    8.77
   9  -2  -9  408.87   11.99
  -9   2   9  397.15   18.31
   9  -2  -8  389.26   11.87
  -9   2   8  370.90   17.16
   9  -2  -7  248.77   11.56
  -9   2   7  240.69    9.60
   9  -2  -6  173.38    8.61
  -9   2   6  169.72    6.92
   9  -2  -5   58.39    3.38
  -9   2   5   58.37    4.04
   9  -2  -4  179.54    6.00
  -9   2   4  175.38    9.12
   9  -2  -3   68.72    3.25
  -9   2   3   63.10    4.32
   9  -2  -2    4.88    2.51
  -9   2   2    1.89    1.72
   9  -2  -1   87.16    3.54
   9  -2   0  146.22    5.16
  -9   2   0  150.38    8.80
   9  -2   1   32.62    3.00
  -9   2  -1   32.53    3.50
   9  -2   2    1.82    2.07
   9  -2   3   11.50    2.51
  -9   2  -3    7.18    2.87
   9  -2   4   60.08    3.06
   9  -1 -11   72.87    3.82
  -9   1  11   70.65    3.72
   9  -1 -10  160.01    8.62
  -9   1  10  157.18    6.89
   9  -1  -9   90.77    5.47
  -9   1   9   82.76    4.51
   9  -1  -8  124.14    6.91
  -9   1   8  125.01    6.41
   9  -1  -7  179.92    8.21
  -9   1   7  178.88    8.11
   9  -1  -6   41.66    2.66
  -9   1   6   38.40    3.86
  -9   1   5   35.33    3.21
   9  -1  -4   11.50    2.15
  -9   1   4    9.39    2.39
   9  -1  -3    4.90    2.15
  -9   1   3    5.18    1.86
   9  -1  -2   50.21    3.73
  -9   1   2   53.67    3.68
   9  -1  -1    2.72    1.85
   9  -1   0   27.16    2.92
   9  -1   1   21.70    2.35
  -9   1  -1   20.07    3.15
   9  -1   2  103.12    4.00
  -9   1  -2  117.11    7.79
   9  -1   3  198.17    9.27
   9  -1   4   67.92    3.29
  -9   1  -4   67.56    4.72
   9   0 -11   76.19    5.43
  -9   0  11   72.11    4.76
   9   0 -10    9.31    4.13
  -9   0  10   10.23    2.33
   9   0  -9   29.86    2.88
  -9   0   9   23.33    3.18
   9   0  -8    0.34    3.33
  -9   0   8    2.20    2.39
   9   0  -7    7.51    2.19
  -9   0   7    9.93    2.37
   9   0  -6    3.50    3.33
  -9   0   6    3.78    2.15
  -9   0   5   77.42    4.75
   9   0  -4    6.61    1.96
  -9   0   4    8.45    2.20
   9   0  -3  311.00   12.85
  -9   0   3  299.53   12.55
   9   0  -2  203.76    8.60
  -9   0   2  207.52    8.18
   9   0  -1  103.71    3.69
  -9   0   1  100.87    6.52
   9   0   0   51.21    2.80
  -9   0   0   59.43    4.05
   9   0   1  101.44    4.08
  -9   0  -1   98.96    5.55
   9   0   2  327.74   13.40
  -9   0  -2  314.73   13.00
  -9   0  -3  226.19    9.74
   9   0   4  117.87    4.05
   9   1 -12   40.39    3.96
  -9  -1  12   49.47    3.37
   9   1 -11   12.82    4.31
  -9  -1  11   20.58    3.19
   9   1 -10  115.55    7.83
  -9  -1  10  104.78    5.74
   9   1  -9    1.14    2.68
  -9  -1   9    3.66    1.69
   9   1  -8   56.13    3.66
  -9  -1   8   60.68    3.55
   9   1  -7    9.44    2.31
  -9  -1   7   14.08    2.36
   9   1  -6   50.74    4.36
  -9  -1   6   57.26    3.62
  -9  -1   5  262.80   10.40
   9   1  -4  326.26   12.21
  -9  -1   4  336.64   13.32
   9   1  -3  309.37   12.25
   9   1  -1  188.96    7.59
   9   1   0  345.76   13.09
   9   1   1  226.16    6.42
  -9  -1  -1  235.32   11.36
   9   1   2  105.79    3.82
  -9  -1  -2  115.34    6.79
   9   1   3  121.26    5.70
  -9  -1  -3  111.09    5.94
   9   1   4   71.56    3.77
  -9  -1  -4   63.32    4.37
   9   2 -12   90.53    6.28
  -9  -2  12   98.39    4.12
   9   2 -11  190.12    8.29
  -9  -2  11  192.80   10.48
   9   2 -10  196.19    9.50
  -9  -2  10  192.30    6.09
   9   2  -9   25.78    3.68
  -9  -2   9   26.21    2.35
   9   2  -8  159.44    7.63
  -9  -2   8  166.81    8.95
   9   2  -7  281.82   12.18
  -9  -2   7  306.40   12.38
   9   2  -6  313.61   13.32
  -9  -2   6  314.03   12.68
   9   2  -5  328.61   13.24
  -9  -2   5  323.46   13.04
   9   2  -1  147.80    6.81
  -9  -2   1  128.07    7.32
   9   2   0  296.54    7.93
  -9  -2   0  295.65   11.32
   9   2   1   21.11    2.15
   9   2   2   50.81    3.58
   9   2   3   61.04    3.00
  -9  -2  -3   63.10    4.43
   9   2   4   28.21    2.47
   9   3 -13   71.60    3.82
  -9  -3  13   71.43    5.51
   9   3 -12  330.94   14.23
  -9  -3  12  349.36   13.06
   9   3 -11  423.27   16.67
  -9  -3  11  458.30   17.28
   9   3 -10  315.50   13.44
  -9  -3  10  325.55   12.23
   9   3  -9  132.90    4.56
  -9  -3   9  127.49    6.71
   9   3  -8  272.02   11.33
  -9  -3   8  284.73   10.66
   9   3  -7  305.73   12.85
  -9  -3   7  292.93   13.10
   9   3  -6  283.13   11.21
  -9  -3   6  268.49   10.38
   9   3  -5  196.11    8.46
  -9  -3   5  188.56    8.66
   9   3  -3  238.47    9.05
  -9  -3   3  244.37   10.29
   9   3  -2  128.98    6.00
  -9  -3   2  127.36    6.02
   9   3  -1   70.81    3.81
  -9  -3   1   74.00    4.20
   9   3   0  122.76    5.57
   9   3   1   48.58    3.41
   9   3   2   18.63    2.44
   9   3   3   16.82    1.86
   9   4 -13  204.46    9.07
  -9  -4  13  239.05   10.21
   9   4 -12  453.08   18.86
  -9  -4  12  482.85   17.96
   9   4 -11  376.87   16.46
  -9  -4  11  394.90   13.56
   9   4 -10  108.93    5.57
  -9  -4  10  111.01    5.14
   9   4  -9  203.13    9.35
  -9  -4   9  185.88    7.34
   9   4  -8  148.50    7.82
  -9  -4   8  144.12    6.30
   9   4  -7  187.50    8.36
  -9  -4   7  161.86    7.59
   9   4  -6  206.12   10.45
  -9  -4   5  219.10    8.50
   9   4  -3   93.02    4.64
  -9  -4   3  101.24    5.16
   9   4  -2   55.49    3.29
  -9  -4   2   59.26    3.49
   9   4  -1   22.08    1.85
  -9  -4   1   23.94    2.71
   9   4   0   60.55    3.74
   9   4   1   15.55    3.49
  -9  -4  -1   16.32    3.82
   9   5 -13  220.30   12.31
  -9  -5  13  195.08    9.63
   9   5 -12  199.56    9.74
  -9  -5  12  201.99    7.75
   9   5 -11  123.87    8.02
  -9  -5  11  130.71    5.67
   9   5 -10  136.33    6.09
  -9  -5  10  132.20    5.77
   9   5  -9  237.67   10.78
   9   5  -8   52.37    5.19
  -9  -5   8   48.09    3.33
   9   5  -7   64.18    3.85
  -9  -5   7   67.94    4.13
   9   5  -6   97.62    5.27
   9   5  -5   14.00    2.86
   9   5  -4   37.49    4.61
   9   5  -3   35.42    2.27
  -9  -5   3   30.86    2.80
   9   5  -1   28.66    2.20
  -9  -6  14   37.28    3.78
   9   6 -13   78.35    7.65
  -9  -6  13   90.93    4.55
   9   6 -12   52.47    4.95
   9   6 -11  111.36    7.42
  -9  -6  11  110.65    4.87
   9   6 -10   67.64    4.68
  -9  -6  10   68.15    4.00
   9   6  -9  150.58    6.30
   9   6  -8    5.30    2.55
  -9  -6   8    5.58    1.85
   9   6  -7    5.26    2.62
  -9  -6   7    2.71    1.62
   9   6  -6    0.72    2.11
   9   6  -5    0.75    2.17
   9   6  -4    7.95    2.40
   9   6  -3    9.63    2.56
   9   7 -12   52.59    4.37
  -9  -7  12   58.95    3.30
   9   7 -11   29.50    3.55
  -9  -7  11   35.12    2.86
   9   7 -10   16.63    2.60
  -9  -7  10   18.22    2.80
   9   7  -7   22.59    2.54
  10  -6  -3   25.08    2.99
  10  -6  -2   44.21    3.30
  10  -6  -1   16.77    2.52
  10  -6   0    5.58    2.20
 -10   6   0   -1.34    2.16
  10  -5  -5   78.95    8.25
  10  -5  -4   13.27    2.03
 -10   5   4    1.56    3.57
  10  -5  -3    7.11    2.39
 -10   5   3    6.10    3.26
  10  -5  -2   18.19    2.58
 -10   5   2   14.79    2.78
  10  -5  -1    1.38    1.73
 -10   5   1    4.92    3.15
  10  -5   0   16.58    2.68
 -10   5   0   18.87    2.75
  10  -5   1    8.92    3.21
 -10   5  -1   11.58    2.72
  10  -4  -6    7.03    2.92
 -10   4   6    5.78    3.42
  10  -4  -5    1.44    2.68
 -10   4   5    0.30    3.17
  10  -4  -4   45.79    4.47
 -10   4   4   45.56    3.82
  10  -4  -3    5.47    1.86
 -10   4   3    5.73    3.13
  10  -4  -2   20.15    3.45
 -10   4   2   12.68    2.48
  10  -4  -1   46.62    4.75
 -10   4   1   49.67    3.53
  10  -4   0  251.26    8.34
 -10   4   0  235.33   10.21
  10  -4   1  348.31   15.64
 -10   4  -1  331.69   16.48
  10  -4   2  213.67    7.74
 -10   4  -2  200.30   10.54
  10  -3  -8   14.54    4.94
  10  -3  -7   81.57    4.08
 -10   3   7   86.06    6.56
  10  -3  -6  192.26    9.52
 -10   3   6  200.90    8.32
  10  -3  -5   43.35    4.39
 -10   3   5   45.82    3.34
  10  -3  -4  206.23    6.93
 -10   3   4  207.33    9.34
  10  -3  -3  115.61    6.12
 -10   3   3  119.03    4.47
  10  -3  -2  124.09    4.78
  10  -3  -1   73.52    3.63
 -10   3   1   81.79    5.51
  10  -3   1  284.35   11.56
 -10   3  -1  275.37   11.37
  10  -3   2  243.54   10.13
 -10   3  -2  266.57   11.66
  10  -2  -8   62.67    3.89
 -10   2   8   57.96    4.71
  10  -2  -7  248.69   11.64
 -10   2   7  245.50   10.52
 -10   2   6  453.24   16.53
  10  -2  -5  132.17    5.46
 -10   2   5  142.34    6.89
 -10   2   4  289.55   11.03
  10  -2  -3  167.34    7.99
 -10   2   3  174.33    7.50
  10  -2  -2  148.58    7.50
 -10   2   2  157.18    7.34
 -10   2   1  260.20   10.38
  10  -2   0  238.46    7.36
 -10   2   0  242.59   11.51
  10  -2   1  373.13   17.02
 -10   2  -2  214.93   11.13
  10  -1  -9  170.08    8.10
 -10   1   9  171.80    7.22
  10  -1  -8  278.08    9.55
 -10   1   8  274.18   13.13
  10  -1  -7  501.55   13.28
 -10   1   7  508.12   20.24
 -10   1   6  453.39   17.77
  10  -1  -5  136.99    4.56
 -10   1   5  133.96    6.44
  10  -1  -4  246.94   11.50
 -10   1   4  245.78   10.29
  10  -1  -2  267.55   13.37
 -10   1   2  271.04   11.03
  10  -1  -1  153.67    7.00
 -10   1   1  162.33    6.89
  10  -1   0  166.20    5.23
 -10   1   0  174.04    7.58
  10  -1   1  209.29    8.45
 -10   1  -1  221.40    9.87
  10  -1   2  121.60    6.72
 -10   1  -2  132.00    9.01
  10   0 -10   70.58    4.69
 -10   0  10   74.83    3.76
  10   0  -9  242.44   10.09
 -10   0   9  266.55   11.08
 -10   0   8  402.36   15.93
  10   0  -6  259.08   11.75
 -10   0   6  280.97   11.54
  10   0  -5  349.36    8.33
  10   0  -4  224.40    9.95
 -10   0   4  215.64    8.71
  10   0  -3  151.26    7.28
 -10   0   3  165.79    8.60
  10   0  -2   77.18    4.98
 -10   0   2   76.00    3.97
  10   0  -1  251.59    7.81
 -10   0   1  263.34   11.66
  10   0   0   67.40    3.11
 -10   0   0   73.88    6.17
  10   0   1   43.63    2.66
 -10   0  -1   38.50    3.41
  10   0   2   11.83    2.36
  10   1 -10  100.46    6.33
 -10  -1  10  107.53    4.32
  10   1  -9  293.72   12.33
 -10  -1   9  333.45   13.79
  10   1  -7  274.47    8.62
 -10  -1   7  288.79   15.00
  10   1  -6  127.56    4.59
 -10  -1   6  129.58    7.86
  10   1  -5  250.67   11.04
  10   1  -4   36.38    3.49
 -10  -1   4   42.35    3.66
  10   1  -3    4.23    2.72
 -10  -1   3    3.37    2.49
 -10  -1   2   27.30    2.27
  10   1  -1   66.57    4.44
  10   1   0    1.73    2.83
  10   1   1    1.07    2.23
 -10  -1  -1   -1.50    3.02
 -10  -1  -2    3.49    2.90
  10   2 -11   94.93    8.56
  10   2 -10  150.91    8.79
 -10  -2  10  145.84    6.47
  10   2  -9  128.75    7.39
 -10  -2   9  130.48    6.45
  10   2  -8   48.01    4.43
 -10  -2   8   46.97    4.05
  10   2  -7   26.34    4.13
 -10  -2   7   26.01    2.94
  10   2  -6   24.17    3.15
 -10  -2   6   21.35    2.23
  10   2  -5  119.27    6.72
 -10  -2   5  119.95    6.22
  10   2  -4    3.76    1.84
 -10  -2   4    4.10    2.37
  10   2  -3    3.45    2.66
 -10  -2   3    2.03    2.39
  10   2  -2    2.40    2.64
  10   2  -1    3.00    2.52
  10   2   1   20.03    4.31
  10   3 -11   25.36    2.94
 -10  -3  11   25.70    3.17
  10   3 -10   27.55    4.73
 -10  -3  10   29.75    3.15
  10   3  -9   16.48    3.82
 -10  -3   9   24.53    3.96
  10   3  -8    0.07    3.43
 -10  -3   8   -1.15    1.52
  10   3  -7    0.82    2.40
 -10  -3   7    0.72    2.19
  10   3  -6    7.10    3.39
 -10  -3   6    1.84    2.29
  10   3  -5   27.71    4.78
 -10  -3   5   33.10    3.11
  10   3  -4   11.87    2.70
  10   3  -3   70.26    3.84
 -10  -3   3   79.98    4.88
  10   3  -2   41.27    3.07
 -10  -3   2   42.67    3.11
  10   3  -1   51.36    3.51
  10   3   0   15.55    4.00
 -10  -4  12    2.43    2.07
  10   4 -11    1.64    3.59
 -10  -4  11    4.23    2.54
  10   4 -10   -0.48    3.50
 -10  -4  10    3.69    1.68
  10   4  -9   38.28    4.00
 -10  -4   9   47.95    2.82
  10   4  -8   26.32    2.86
 -10  -4   8   27.48    3.02
  10   4  -7    4.43    3.14
 -10  -4   7    7.82    2.39
  10   4  -6    5.75    2.37
 -10  -4   6    5.81    2.29
  10   4  -5   13.63    3.34
  10   4  -4   47.55    5.47
 -10  -4   4   47.75    3.39
  10   4  -3   75.68    3.84
  10   4  -2   40.12    4.55
 -10  -4   2   48.52    3.42
 -10  -5  12   33.48    4.90
  10   5 -11   19.99    4.16
  10   5 -10    1.21    3.61
 -10  -5  10    2.68    2.28
 -10  -5   9   47.32    3.22
  10   5  -8   37.64    3.50
  10   5  -7   43.20    3.11
 -10  -5   7   42.96    3.22
  10   5  -6   37.92    5.30
  10   5  -5   84.29    6.73
 -10  -5   5   84.72    4.35
  10   5  -4   41.67    5.35
  10   6 -10   47.23    6.06
 -10  -6  10   67.39    3.81
  10   6  -9   63.35    6.26
 -10  -6   9   55.66    3.65
  10   6  -8   54.34    4.31
  11  -2  -4   57.50    4.64
 -11   2   4   56.23    4.80
  11  -1  -6   86.64    5.79
 -11   1   6   74.28    6.93
  11  -1  -5    3.15    3.42
 -11   1   5    5.00    2.49
  11  -1  -4    0.13    1.96
 -11   1   4    2.40    2.98
  11  -1  -3   14.81    3.46
 -11   1   3   17.67    3.77
  11  -1  -2    4.36    3.23
 -11   1   2    4.80    3.51
  11   0  -7    2.59    4.28
 -11   0   7   -0.71    3.17
  11   0  -6    7.87    4.33
 -11   0   6    4.86    3.18
  11   0  -5  173.62    5.78
 -11   0   5  195.43    9.40
  11   0  -4  106.43    5.85
 -11   0   4  107.08    6.29
  11   0  -3   59.06    4.84
 -11   0   3   64.10    5.87
  11   0  -2   39.89    3.68
 -11   0   2   38.76    6.01
  11   1  -8   84.53    5.92
 -11  -1   8   77.97    6.92
  11   1  -7   95.94    5.93
 -11  -1   7   97.26    5.75
  11   1  -6   29.87    2.49
 -11  -1   6   25.57    3.23
  11   1  -5  166.52    5.57
 -11  -1   5  196.03    8.57
  11   1  -4  115.03    5.14
  11   1  -3   55.66    3.54
 -11  -1   3   55.41    4.20
  11   1  -2   40.86    3.41
 -11  -1   2   47.74    3.85
  11   2  -9  104.27    9.55
 -11  -2   9  115.76    7.77
  11   2  -8  224.66   12.45
  11   2  -7   92.97    6.77
 -11  -2   7   87.84    4.79
  11   2  -6   73.24    4.45
 -11  -2   6   76.72    4.76
  11   2  -5   65.78    4.00
 -11  -2   5   79.89    4.72
  11   2  -4   71.96    3.51
 -11  -2   4   76.44    4.59
  11   2  -3   50.67    3.80
  11   2  -2   79.12    6.79
 -11  -2   2  101.54    7.54
  11   3  -9  156.67    7.89
  11   3  -8   88.47    5.35
 -11  -3   8   90.69    5.08
  11   3  -7   71.14    5.33
 -11  -3   7   77.88    4.45
  11   3  -6   81.27    6.10
 -11  -3   6   99.39    5.30
  11   3  -5   18.15    4.52
 -11  -3   5   26.76    3.27
  11   3  -4   22.27    5.39
 -11  -3   4   23.73    4.79
  11   3  -3   41.94    5.27
 -11  -3   3   34.49    4.21
  11   4 -10   52.31    7.83
 -11  -4  10   54.23    4.47
 -11  -4   9   50.08    4.10
  11   4  -8   97.90    7.40
  11   4  -7   98.71    7.61
 -11  -4   7   86.14    6.63
  11   4  -6   82.29    5.63
   0   0   0    0.00    0.00


_computing_structure_solution     'SHELXT 2018/2 (Sheldrick, 2018)'
_computing_structure_solution     'SHELXT 2014/5 (Sheldrick, 2014)'
;
_shelx_hkl_checksum              91453
loop_
_space_group_symop_operation_xyz
'x, y, z'
'-x, -y, -z'
loop_
_atom_site_label
_atom_site_type_symbol
_atom_site_fract_x
_atom_site_fract_y
_atom_site_fract_z
_atom_site_U_iso_or_equiv
_atom_site_adp_type
_atom_site_occupancy
_atom_site_site_symmetry_order
_atom_site_calc_flag
_atom_site_refinement_flags_posn
_atom_site_refinement_flags_adp
_atom_site_refinement_flags_occupancy
_atom_site_disorder_assembly
_atom_site_disorder_group
O1SA O 0.5251(3) 0.2092(3) 0.9273(3) 0.0260(5) Uani 1 1 d . . . . .
N1SA N 0.3415(6) -0.0276(7) 0.7993(5) 0.0371(11) Uani 0.776(8) 1 d . . P A 1
C1SA C 0.4732(7) 0.0851(6) 0.8242(5) 0.0317(10) Uani 0.776(8) 1 d . . P A 1
H1SA H 0.531551 0.067328 0.755753 0.038 Uiso 0.776(8) 1 calc R U P A 1
C2SA C 0.2890(10) -0.1733(8) 0.6722(8) 0.0542(17) Uani 0.776(8) 1 d . . P A 1
H2SA H 0.153901 -0.198895 0.620391 0.081 Uiso 0.776(8) 1 calc R U P A 1
H2SB H 0.319528 -0.251310 0.698393 0.081 Uiso 0.776(8) 1 calc R U P A 1
H2SC H 0.358365 -0.167774 0.612110 0.081 Uiso 0.776(8) 1 calc R U P A 1
C3SA C 0.2387(11) -0.0052(11) 0.8952(8) 0.0402(14) Uani 0.776(8) 1 d . . P A 1
H3SA H 0.104239 -0.026629 0.843408 0.060 Uiso 0.776(8) 1 calc R U P A 1
H3SB H 0.282215 0.099792 0.971489 0.060 Uiso 0.776(8) 1 calc R U P A 1
H3SC H 0.260192 -0.073688 0.935343 0.060 Uiso 0.776(8) 1 calc R U P A 1
N1SB N 0.303(3) 0.028(3) 0.897(2) 0.035(4) Uani 0.224(8) 1 d . . P A -1
C1SB C 0.395(2) 0.1660(19) 0.9544(15) 0.027(3) Uani 0.224(8) 1 d . . P A -1
H1SB H 0.357824 0.240558 1.023774 0.032 Uiso 0.224(8) 1 calc R U P A -1
C2SB C 0.331(4) -0.106(4) 0.789(3) 0.0542(17) Uani 0.224(8) 1 d . . P A -1
H2SD H 0.237144 -0.136357 0.696967 0.081 Uiso 0.224(8) 1 calc R U P A -1
H2SE H 0.318947 -0.188935 0.812351 0.081 Uiso 0.224(8) 1 calc R U P A -1
H2SF H 0.457245 -0.084004 0.786380 0.081 Uiso 0.224(8) 1 calc R U P A -1
C3SB C 0.141(3) -0.006(3) 0.943(2) 0.042(5) Uani 0.224(8) 1 d . . P A -1
H3SD H 0.027232 -0.065457 0.859143 0.063 Uiso 0.224(8) 1 calc R U P A -1
H3SE H 0.117625 0.088770 1.005519 0.063 Uiso 0.224(8) 1 calc R U P A -1
H3SF H 0.173434 -0.064331 0.992988 0.063 Uiso 0.224(8) 1 calc R U P A -1
Y1 Y 0.73539(3) 0.42710(3) 0.98258(2) 0.01596(11) Uani 1 1 d . . . . .
O1A O 0.8879(3) 0.5428(3) 0.8928(2) 0.0238(5) Uani 1 1 d . . . . .
O2A O 1.1092(3) 0.6270(3) 0.8349(2) 0.0216(4) Uani 1 1 d . . . . .
O3A O 0.4577(3) 0.6852(3) 0.2779(2) 0.0266(5) Uani 1 1 d . . . . .
O4A O 0.5386(3) 0.5019(3) 0.1234(2) 0.0218(4) Uani 1 1 d . . . . .
C1A C 0.9394(4) 0.5950(4) 0.8212(3) 0.0200(5) Uani 1 1 d . . . . .
C2A C 0.7947(4) 0.6182(4) 0.7179(3) 0.0234(6) Uani 1 1 d . . . . .
H2A H 0.681388 0.637500 0.733600 0.028 Uiso 1 1 calc R U . . .
C3A C 0.8214(4) 0.6125(4) 0.6027(3) 0.0216(5) Uani 1 1 d . . . . .
H3A H 0.939157 0.598951 0.592945 0.026 Uiso 1 1 calc R U . . .
C4A C 0.6854(4) 0.6252(4) 0.4920(3) 0.0227(6) Uani 1 1 d . . . . .
H4A H 0.578178 0.659532 0.508104 0.027 Uiso 1 1 calc R U . . .
C5A C 0.7051(4) 0.5902(4) 0.3674(3) 0.0231(6) Uani 1 1 d . . . . .
H5A H 0.815416 0.560912 0.352710 0.028 Uiso 1 1 calc R U . . .
C6A C 0.5601(4) 0.5959(4) 0.2517(3) 0.0201(5) Uani 1 1 d . . . . .
O1B O 0.8544(3) 0.2333(3) 0.8526(2) 0.0235(4) Uani 1 1 d . . . . .
O2B O 1.1184(3) 0.3263(3) 0.8329(2) 0.0231(4) Uani 1 1 d . . . . .
C1B C 0.9694(4) 0.2286(4) 0.7898(3) 0.0208(5) Uani 1 1 d . . . . .
C2B C 0.9191(5) 0.0908(4) 0.6497(3) 0.0276(6) Uani 1 1 d . . . . .
H2B H 0.805367 0.017752 0.615806 0.033 Uiso 1 1 calc R U . . .
C3B C 1.0269(5) 0.0651(4) 0.5694(3) 0.0289(7) Uani 1 1 d . . . . .
H3B H 1.143697 0.135494 0.605156 0.035 Uiso 1 1 calc R U . . .
loop_
_atom_site_aniso_label
_atom_site_aniso_U_11
_atom_site_aniso_U_22
_atom_site_aniso_U_33
_atom_site_aniso_U_23
_atom_site_aniso_U_13
_atom_site_aniso_U_12
O1SA 0.0221(10) 0.0359(14) 0.0211(10) 0.0146(9) 0.0075(8) 0.0070(9)
N1SA 0.0267(18) 0.040(3) 0.040(2) 0.0164(19) 0.0091(16) 0.0086(18)
C1SA 0.0250(19) 0.038(3) 0.029(2) 0.0120(17) 0.0106(16) 0.0128(17)
C2SA 0.044(3) 0.042(3) 0.056(4) 0.011(3) 0.013(3) 0.004(3)
C3SA 0.033(3) 0.053(5) 0.044(3) 0.030(3) 0.017(3) 0.011(3)
N1SB 0.025(8) 0.047(12) 0.040(8) 0.023(8) 0.015(7) 0.006(8)
C1SB 0.023(6) 0.035(8) 0.016(6) 0.006(5) 0.010(5) 0.001(5)
C2SB 0.044(3) 0.042(3) 0.056(4) 0.011(3) 0.013(3) 0.004(3)
C3SB 0.045(10) 0.046(11) 0.041(10) 0.019(8) 0.022(8) 0.020(9)
Y1 0.01559(15) 0.03063(18) 0.00454(15) 0.00855(11) 0.00555(10) 0.01168(11)
O1A 0.0293(11) 0.0374(13) 0.0088(8) 0.0119(8) 0.0098(8) 0.0118(9)
O2A 0.0202(9) 0.0393(13) 0.0113(9) 0.0148(8) 0.0070(7) 0.0146(9)
O3A 0.0271(11) 0.0429(14) 0.0087(9) 0.0102(8) 0.0051(8) 0.0187(10)
O4A 0.0184(9) 0.0422(13) 0.0054(8) 0.0101(8) 0.0054(7) 0.0134(8)
C1A 0.0205(12) 0.0349(16) 0.0064(10) 0.0099(9) 0.0053(9) 0.0129(11)
C2A 0.0211(12) 0.0419(18) 0.0110(11) 0.0142(11) 0.0066(9) 0.0132(12)
C3A 0.0207(12) 0.0373(16) 0.0095(11) 0.0122(10) 0.0058(9) 0.0122(11)
C4A 0.0204(12) 0.0409(17) 0.0094(11) 0.0127(10) 0.0057(9) 0.0139(12)
C5A 0.0206(12) 0.0424(18) 0.0100(11) 0.0138(11) 0.0060(9) 0.0156(12)
C6A 0.0191(11) 0.0350(16) 0.0062(10) 0.0089(10) 0.0049(9) 0.0098(11)
O1B 0.0248(10) 0.0358(13) 0.0124(9) 0.0092(8) 0.0115(8) 0.0154(9)
O2B 0.0237(9) 0.0341(12) 0.0107(9) 0.0069(8) 0.0098(7) 0.0128(9)
C1B 0.0253(12) 0.0268(14) 0.0090(11) 0.0051(9) 0.0082(9) 0.0120(11)
C2B 0.0335(16) 0.0312(17) 0.0149(13) 0.0050(11) 0.0134(11) 0.0102(13)
C3B 0.0347(16) 0.0323(17) 0.0155(13) 0.0045(11) 0.0139(12) 0.0097(13)
loop_
_atom_type_symbol
_atom_type_description
_atom_type_scat_dispersion_real
_atom_type_scat_dispersion_imag
_atom_type_scat_source
C C 0.0033 0.0016 'International Tables Vol C Tables 4.2.6.8 and 6.1.1.4'
H H 0.0000 0.0000 'International Tables Vol C Tables 4.2.6.8 and 6.1.1.4'
N N 0.0064 0.0033 'International Tables Vol C Tables 4.2.6.8 and 6.1.1.4'
O O 0.0110 0.0060 'International Tables Vol C Tables 4.2.6.8 and 6.1.1.4'
Y Y -2.2915 3.4598 'International Tables Vol C Tables 4.2.6.8 and 6.1.1.4'
loop_
_geom_angle_atom_site_label_1
_geom_angle_atom_site_label_2
_geom_angle_atom_site_label_3
_geom_angle
_geom_angle_site_symmetry_1
_geom_angle_site_symmetry_3
_geom_angle_publ_flag
C1SB O1SA C1SA 85.1(8) . . ?
C1SB O1SA Y1 142.5(8) . . ?
C1SA O1SA Y1 130.5(3) . . ?
C2SB N1SA N1SB 100(3) . . ?
C2SB N1SA C1SA 139(2) . . ?
N1SB N1SA C1SA 100.0(13) . . ?
C2SB N1SA C2SA 49(2) . . ?
N1SB N1SA C2SA 138.9(13) . . ?
C1SA N1SA C2SA 121.1(5) . . ?
C2SB N1SA C3SA 85(2) . . ?
N1SB N1SA C3SA 20.6(11) . . ?
C1SA N1SA C3SA 120.3(6) . . ?
C2SA N1SA C3SA 118.5(6) . . ?
C2SB N1SA C1SB 135(2) . . ?
N1SB N1SA C1SB 41.8(13) . . ?
C1SA N1SA C1SB 58.6(5) . . ?
C2SA N1SA C1SB 175.1(7) . . ?
C3SA N1SA C1SB 61.7(6) . . ?
O1SA C1SA N1SA 125.1(5) . . ?
O1SA C1SA C1SB 47.6(6) . . ?
N1SA C1SA C1SB 77.9(6) . . ?
O1SA C1SA N1SB 88.8(8) . . ?
N1SA C1SA N1SB 36.3(8) . . ?
C1SB C1SA N1SB 41.9(9) . . ?
O1SA C1SA C2SB 130.8(9) . . ?
N1SA C1SA C2SB 14.5(8) . . ?
C1SB C1SA C2SB 86.3(10) . . ?
N1SB C1SA C2SB 44.7(11) . . ?
C2SB C2SA N1SA 30.3(18) . . ?
N1SB C3SA C3SB 146(4) . . ?
N1SB C3SA N1SA 45(3) . . ?
C3SB C3SA N1SA 167.0(15) . . ?
N1SB C3SA C2SB 68(3) . . ?
C3SB C3SA C2SB 145(2) . . ?
N1SA C3SA C2SB 28.2(13) . . ?
N1SB C3SA C1SB 28(3) . . ?
C3SB C3SA C1SB 119.0(16) . . ?
N1SA C3SA C1SB 71.3(6) . . ?
C2SB C3SA C1SB 95.6(14) . . ?
C3SA N1SB N1SA 114(4) . . ?
C3SA N1SB C1SB 140(4) . . ?
N1SA N1SB C1SB 102.1(17) . . ?
C3SA N1SB C2SB 92(4) . . ?
N1SA N1SB C2SB 30.3(15) . . ?
C1SB N1SB C2SB 128(2) . . ?
C3SA N1SB C3SB 22(2) . . ?
N1SA N1SB C3SB 136(2) . . ?
C1SB N1SB C3SB 118.8(19) . . ?
C2SB N1SB C3SB 113(2) . . ?
C3SA N1SB C1SA 156(3) . . ?
N1SA N1SB C1SA 43.7(8) . . ?
C1SB N1SB C1SA 58.8(11) . . ?
C2SB N1SB C1SA 70.0(16) . . ?
C3SB N1SB C1SA 169.9(17) . . ?
O1SA C1SB N1SB 125.5(16) . . ?
O1SA C1SB C1SA 47.3(5) . . ?
N1SB C1SB C1SA 79.3(12) . . ?
O1SA C1SB C3SA 137.2(12) . . ?
N1SB C1SB C3SA 11.9(11) . . ?
C1SA C1SB C3SA 90.5(8) . . ?
O1SA C1SB N1SA 90.6(8) . . ?
N1SB C1SB N1SA 36.1(10) . . ?
C1SA C1SB N1SA 43.5(4) . . ?
C3SA C1SB N1SA 47.1(5) . . ?
N1SA C2SB C2SA 101(4) . . ?
N1SA C2SB N1SB 49.8(19) . . ?
C2SA C2SB N1SB 140(3) . . ?
N1SA C2SB C3SA 66(2) . . ?
C2SA C2SB C3SA 135(2) . . ?
N1SB C2SB C3SA 20.7(8) . . ?
N1SA C2SB C1SA 26.4(15) . . ?
C2SA C2SB C1SA 101(2) . . ?
N1SB C2SB C1SA 65.2(16) . . ?
C3SA C2SB C1SA 85.3(15) . . ?
C3SA C3SB N1SB 11.7(13) . . ?
O1A Y1 O1B 79.63(9) . . ?
O1A Y1 O1SA 144.53(9) . . ?
O1B Y1 O1SA 76.64(10) . . ?
O1A Y1 O2B 74.34(9) . 2_767 ?
O1B Y1 O2B 131.92(9) . 2_767 ?
O1SA Y1 O2B 140.67(9) . 2_767 ?
O1A Y1 O2A 123.67(9) . 2_767 ?
O1B Y1 O2A 81.83(8) . 2_767 ?
O1SA Y1 O2A 78.47(9) . 2_767 ?
O2B Y1 O2A 80.11(9) 2_767 2_767 ?
O1A Y1 O4A 133.57(9) . 1_556 ?
O1B Y1 O4A 146.57(9) . 1_556 ?
O1SA Y1 O4A 72.02(9) . 1_556 ?
O2B Y1 O4A 72.26(9) 2_767 1_556 ?
O2A Y1 O4A 80.81(7) 2_767 1_556 ?
O1A Y1 O4A 85.19(8) . 2_666 ?
O1B Y1 O4A 123.34(8) . 2_666 ?
O1SA Y1 O4A 86.22(9) . 2_666 ?
O2B Y1 O4A 94.11(9) 2_767 2_666 ?
O2A Y1 O4A 146.64(7) 2_767 2_666 ?
O4A Y1 O4A 66.25(8) 1_556 2_666 ?
O1A Y1 O3A 72.98(9) . 2_666 ?
O1B Y1 O3A 71.05(8) . 2_666 ?
O1SA Y1 O3A 74.56(10) . 2_666 ?
O2B Y1 O3A 134.32(9) 2_767 2_666 ?
O2A Y1 O3A 145.29(9) 2_767 2_666 ?
O4A Y1 O3A 110.48(8) 1_556 2_666 ?
O4A Y1 O3A 52.32(8) 2_666 2_666 ?
O1A Y1 O1A 73.91(9) . 2_767 ?
O1B Y1 O1A 65.44(9) . 2_767 ?
O1SA Y1 O1A 117.94(9) . 2_767 ?
O2B Y1 O1A 68.80(9) 2_767 2_767 ?
O2A Y1 O1A 50.05(8) 2_767 2_767 ?
O4A Y1 O1A 120.64(7) 1_556 2_767 ?
O4A Y1 O1A 155.76(8) 2_666 2_767 ?
O3A Y1 O1A 128.83(8) 2_666 2_767 ?
O1A Y1 C6A 76.98(9) . 2_666 ?
O1B Y1 C6A 96.74(9) . 2_666 ?
O1SA Y1 C6A 80.02(10) . 2_666 ?
O2B Y1 C6A 115.29(9) 2_767 2_666 ?
O2A Y1 C6A 158.19(9) 2_767 2_666 ?
O4A Y1 C6A 89.14(8) 1_556 2_666 ?
O4A Y1 C6A 26.65(8) 2_666 2_666 ?
O3A Y1 C6A 25.69(8) 2_666 2_666 ?
O1A Y1 C6A 148.07(8) 2_767 2_666 ?
O1A Y1 C1A 99.15(9) . 2_767 ?
O1B Y1 C1A 71.76(9) . 2_767 ?
O1SA Y1 C1A 98.02(10) . 2_767 ?
O2B Y1 C1A 73.40(9) 2_767 2_767 ?
O2A Y1 C1A 24.72(8) 2_767 2_767 ?
O4A Y1 C1A 101.15(8) 1_556 2_767 ?
O4A Y1 C1A 164.89(8) 2_666 2_767 ?
O3A Y1 C1A 142.79(8) 2_666 2_767 ?
O1A Y1 C1A 25.33(8) 2_767 2_767 ?
C6A Y1 C1A 168.43(9) 2_666 2_767 ?
O1A Y1 Y1 41.07(6) . 2_767 ?
O1B Y1 Y1 67.31(7) . 2_767 ?
O1SA Y1 Y1 141.26(7) . 2_767 ?
O2B Y1 Y1 66.45(7) 2_767 2_767 ?
O2A Y1 Y1 82.75(6) 2_767 2_767 ?
O4A Y1 Y1 137.52(6) 1_556 2_767 ?
O4A Y1 Y1 125.18(6) 2_666 2_767 ?
O3A Y1 Y1 105.28(7) 2_666 2_767 ?
O1A Y1 Y1 32.84(5) 2_767 2_767 ?
C6A Y1 Y1 116.95(7) 2_666 2_767 ?
C1A Y1 Y1 58.11(7) 2_767 2_767 ?
C1A O1A Y1 167.7(2) . . ?
C1A O1A Y1 85.21(17) . 2_767 ?
Y1 O1A Y1 106.09(9) . 2_767 ?
C1A O2A Y1 103.03(18) . 2_767 ?
C6A O3A Y1 91.69(17) . 2_666 ?
C6A O4A Y1 136.9(2) . 1_554 ?
C6A O4A Y1 95.11(18) . 2_666 ?
Y1 O4A Y1 113.75(8) 1_554 2_666 ?
O2A C1A O1A 121.7(3) . . ?
O2A C1A C2A 119.7(3) . . ?
O1A C1A C2A 118.7(3) . . ?
O2A C1A Y1 52.25(14) . 2_767 ?
O1A C1A Y1 69.46(16) . 2_767 ?
C2A C1A Y1 171.8(2) . 2_767 ?
C3A C2A C1A 121.0(3) . . ?
C2A C3A C4A 125.3(3) . . ?
C5A C4A C3A 122.4(3) . . ?
C4A C5A C6A 122.0(3) . . ?
O3A C6A O4A 120.8(3) . . ?
O3A C6A C5A 120.9(3) . . ?
O4A C6A C5A 118.3(3) . . ?
O3A C6A Y1 62.62(15) . 2_666 ?
O4A C6A Y1 58.25(14) . 2_666 ?
C5A C6A Y1 173.8(2) . 2_666 ?
C1B O1B Y1 132.6(2) . . ?
C1B O2B Y1 137.43(19) . 2_767 ?
O2B C1B O1B 126.9(3) . . ?
O2B C1B C2B 118.2(3) . . ?
O1B C1B C2B 114.9(3) . . ?
C3B C2B C1B 123.1(3) . . ?
C2B C3B C3B 122.8(5) . 2_756 ?
loop_
_geom_bond_atom_site_label_1
_geom_bond_atom_site_label_2
_geom_bond_distance
_geom_bond_site_symmetry_2
_geom_bond_publ_flag
O1SA C1SB 1.216(15) . ?
O1SA C1SA 1.211(6) . ?
O1SA Y1 2.333(3) . ?
N1SA C2SB 0.75(3) . ?
N1SA N1SB 1.13(2) . ?
N1SA C1SA 1.323(8) . ?
N1SA C2SA 1.455(9) . ?
N1SA C3SA 1.452(9) . ?
N1SA C1SB 1.879(16) . ?
C1SA C1SB 1.641(15) . ?
C1SA N1SB 1.88(2) . ?
C1SA C2SB 1.95(3) . ?
C2SA C2SB 1.12(3) . ?
C3SA N1SB 0.559(17) . ?
C3SA C3SB 1.03(2) . ?
C3SA C2SB 1.58(3) . ?
C3SA C1SB 1.746(19) . ?
N1SB C1SB 1.28(3) . ?
N1SB C2SB 1.46(4) . ?
N1SB C3SB 1.53(3) . ?
Y1 O1A 2.272(2) . ?
Y1 O1B 2.314(2) . ?
Y1 O2B 2.343(3) 2_767 ?
Y1 O2A 2.378(2) 2_767 ?
Y1 O4A 2.407(2) 1_556 ?
Y1 O4A 2.439(2) 2_666 ?
Y1 O3A 2.538(2) 2_666 ?
Y1 O1A 2.753(3) 2_767 ?
Y1 C6A 2.857(3) 2_666 ?
Y1 C1A 2.930(3) 2_767 ?
Y1 Y1 4.0258(12) 2_767 ?
O1A C1A 1.258(4) . ?
O2A C1A 1.258(4) . ?
O3A C6A 1.239(4) . ?
O4A C6A 1.287(3) . ?
C1A C2A 1.482(4) . ?
C2A C3A 1.340(4) . ?
C3A C4A 1.445(4) . ?
C4A C5A 1.340(4) . ?
C5A C6A 1.483(4) . ?
O1B C1B 1.261(4) . ?
O2B C1B 1.258(4) . ?
C1B C2B 1.492(4) . ?
C2B C3B 1.342(5) . ?
C3B C3B 1.448(6) 2_756 ?
loop_
_geom_torsion_atom_site_label_1
_geom_torsion_atom_site_label_2
_geom_torsion_atom_site_label_3
_geom_torsion_atom_site_label_4
_geom_torsion
_geom_torsion_site_symmetry_1
_geom_torsion_site_symmetry_2
_geom_torsion_site_symmetry_3
_geom_torsion_site_symmetry_4
_geom_torsion_publ_flag
C1SB O1SA C1SA N1SA -7.9(10) . . . . ?
Y1 O1SA C1SA N1SA -174.5(4) . . . . ?
Y1 O1SA C1SA C1SB -166.6(9) . . . . ?
C1SB O1SA C1SA N1SB -8.0(11) . . . . ?
Y1 O1SA C1SA N1SB -174.6(7) . . . . ?
C1SB O1SA C1SA C2SB -24.9(15) . . . . ?
Y1 O1SA C1SA C2SB 168.5(12) . . . . ?
C2SB N1SA C1SA O1SA -118(4) . . . . ?
N1SB N1SA C1SA O1SA -0.2(13) . . . . ?
C2SA N1SA C1SA O1SA -179.7(5) . . . . ?
C3SA N1SA C1SA O1SA 3.8(8) . . . . ?
C1SB N1SA C1SA O1SA 6.0(7) . . . . ?
C2SB N1SA C1SA C1SB -124(4) . . . . ?
N1SB N1SA C1SA C1SB -6.1(13) . . . . ?
C2SA N1SA C1SA C1SB 174.3(8) . . . . ?
C3SA N1SA C1SA C1SB -2.2(8) . . . . ?
C2SB N1SA C1SA N1SB -118(4) . . . . ?
C2SA N1SA C1SA N1SB -179.5(14) . . . . ?
C3SA N1SA C1SA N1SB 3.9(13) . . . . ?
C1SB N1SA C1SA N1SB 6.1(13) . . . . ?
N1SB N1SA C1SA C2SB 118(4) . . . . ?
C2SA N1SA C1SA C2SB -61(4) . . . . ?
C3SA N1SA C1SA C2SB 122(4) . . . . ?
C1SB N1SA C1SA C2SB 124(4) . . . . ?
N1SB N1SA C2SA C2SB -49(3) . . . . ?
C1SA N1SA C2SA C2SB 130(3) . . . . ?
C3SA N1SA C2SA C2SB -53(3) . . . . ?
C2SB N1SA C3SA N1SB 135(4) . . . . ?
C1SA N1SA C3SA N1SB -11(4) . . . . ?
C2SA N1SA C3SA N1SB 172(4) . . . . ?
C1SB N1SA C3SA N1SB -13(4) . . . . ?
C2SB N1SA C3SA C3SB -68(7) . . . . ?
N1SB N1SA C3SA C3SB 157(9) . . . . ?
C1SA N1SA C3SA C3SB 146(7) . . . . ?
C2SA N1SA C3SA C3SB -31(7) . . . . ?
C1SB N1SA C3SA C3SB 144(7) . . . . ?
N1SB N1SA C3SA C2SB -135(4) . . . . ?
C1SA N1SA C3SA C2SB -146(2) . . . . ?
C2SA N1SA C3SA C2SB 37(2) . . . . ?
C1SB N1SA C3SA C2SB -148(2) . . . . ?
C2SB N1SA C3SA C1SB 148(2) . . . . ?
N1SB N1SA C3SA C1SB 13(4) . . . . ?
C1SA N1SA C3SA C1SB 2.1(7) . . . . ?
C2SA N1SA C3SA C1SB -174.5(8) . . . . ?
C3SB C3SA N1SB N1SA -171(3) . . . . ?
C2SB C3SA N1SB N1SA 21(2) . . . . ?
C1SB C3SA N1SB N1SA -153(7) . . . . ?
C3SB C3SA N1SB C1SB -18(9) . . . . ?
N1SA C3SA N1SB C1SB 153(7) . . . . ?
C2SB C3SA N1SB C1SB 174(5) . . . . ?
C3SB C3SA N1SB C2SB 168(4) . . . . ?
N1SA C3SA N1SB C2SB -21(2) . . . . ?
C1SB C3SA N1SB C2SB -174(5) . . . . ?
N1SA C3SA N1SB C3SB 171(3) . . . . ?
C2SB C3SA N1SB C3SB -168(4) . . . . ?
C1SB C3SA N1SB C3SB 18(9) . . . . ?
C3SB C3SA N1SB C1SA -154(5) . . . . ?
N1SA C3SA N1SB C1SA 17(6) . . . . ?
C2SB C3SA N1SB C1SA 38(8) . . . . ?
C1SB C3SA N1SB C1SA -136(12) . . . . ?
C2SB N1SA N1SB C3SA -46(4) . . . . ?
C1SA N1SA N1SB C3SA 170(3) . . . . ?
C2SA N1SA N1SB C3SA -10(5) . . . . ?
C1SB N1SA N1SB C3SA 162(5) . . . . ?
C2SB N1SA N1SB C1SB 152(2) . . . . ?
C1SA N1SA N1SB C1SB 7.9(16) . . . . ?
C2SA N1SA N1SB C1SB -172.7(11) . . . . ?
C3SA N1SA N1SB C1SB -162(5) . . . . ?
C1SA N1SA N1SB C2SB -144(2) . . . . ?
C2SA N1SA N1SB C2SB 35(2) . . . . ?
C3SA N1SA N1SB C2SB 46(4) . . . . ?
C1SB N1SA N1SB C2SB -152(2) . . . . ?
C2SB N1SA N1SB C3SB -50(4) . . . . ?
C1SA N1SA N1SB C3SB 165(3) . . . . ?
C2SA N1SA N1SB C3SB -15(4) . . . . ?
C3SA N1SA N1SB C3SB -4.9(18) . . . . ?
C1SB N1SA N1SB C3SB 158(4) . . . . ?
C2SB N1SA N1SB C1SA 144(2) . . . . ?
C2SA N1SA N1SB C1SA 179.4(18) . . . . ?
C3SA N1SA N1SB C1SA -170(3) . . . . ?
C1SB N1SA N1SB C1SA -7.9(16) . . . . ?
O1SA C1SA N1SB C3SA 157(9) . . . . ?
N1SA C1SA N1SB C3SA -23(8) . . . . ?
C1SB C1SA N1SB C3SA 148(10) . . . . ?
C2SB C1SA N1SB C3SA -41(9) . . . . ?
O1SA C1SA N1SB N1SA 179.9(11) . . . . ?
C1SB C1SA N1SB N1SA 171.0(19) . . . . ?
C2SB C1SA N1SB N1SA -18.3(13) . . . . ?
O1SA C1SA N1SB C1SB 8.9(11) . . . . ?
N1SA C1SA N1SB C1SB -171.0(19) . . . . ?
C2SB C1SA N1SB C1SB 171(2) . . . . ?
O1SA C1SA N1SB C2SB -161.8(14) . . . . ?
N1SA C1SA N1SB C2SB 18.3(13) . . . . ?
C1SB C1SA N1SB C2SB -171(2) . . . . ?
O1SA C1SA N1SB C3SB 88(10) . . . . ?
N1SA C1SA N1SB C3SB -92(10) . . . . ?
C1SB C1SA N1SB C3SB 79(11) . . . . ?
C2SB C1SA N1SB C3SB -110(11) . . . . ?
C1SA O1SA C1SB N1SB 14.6(18) . . . . ?
Y1 O1SA C1SB N1SB 177.8(12) . . . . ?
Y1 O1SA C1SB C1SA 163.2(10) . . . . ?
C1SA O1SA C1SB C3SA 12.1(16) . . . . ?
Y1 O1SA C1SB C3SA 175.3(7) . . . . ?
C1SA O1SA C1SB N1SA 4.5(5) . . . . ?
Y1 O1SA C1SB N1SA 167.8(6) . . . . ?
C3SA N1SB C1SB O1SA -172(4) . . . . ?
N1SA N1SB C1SB O1SA -17(3) . . . . ?
C2SB N1SB C1SB O1SA 0(4) . . . . ?
C3SB N1SB C1SB O1SA -179.5(16) . . . . ?
C1SA N1SB C1SB O1SA -10.9(14) . . . . ?
C3SA N1SB C1SB C1SA -161(5) . . . . ?
N1SA N1SB C1SB C1SA -6.4(13) . . . . ?
C2SB N1SB C1SB C1SA 11(2) . . . . ?
C3SB N1SB C1SB C1SA -168.7(18) . . . . ?
N1SA N1SB C1SB C3SA 155(6) . . . . ?
C2SB N1SB C1SB C3SA 172(7) . . . . ?
C3SB N1SB C1SB C3SA -8(4) . . . . ?
C1SA N1SB C1SB C3SA 161(5) . . . . ?
C3SA N1SB C1SB N1SA -155(6) . . . . ?
C2SB N1SB C1SB N1SA 17.5(18) . . . . ?
C3SB N1SB C1SB N1SA -162(3) . . . . ?
C1SA N1SB C1SB N1SA 6.4(13) . . . . ?
N1SA C1SA C1SB O1SA 173.4(8) . . . . ?
N1SB C1SA C1SB O1SA 168.0(15) . . . . ?
C2SB C1SA C1SB O1SA 161.4(11) . . . . ?
O1SA C1SA C1SB N1SB -168.0(15) . . . . ?
N1SA C1SA C1SB N1SB 5.4(11) . . . . ?
C2SB C1SA C1SB N1SB -6.6(14) . . . . ?
O1SA C1SA C1SB C3SA -171.8(11) . . . . ?
N1SA C1SA C1SB C3SA 1.6(6) . . . . ?
N1SB C1SA C1SB C3SA -3.9(11) . . . . ?
C2SB C1SA C1SB C3SA -10.4(10) . . . . ?
O1SA C1SA C1SB N1SA -173.4(8) . . . . ?
N1SB C1SA C1SB N1SA -5.4(11) . . . . ?
C2SB C1SA C1SB N1SA -12.0(9) . . . . ?
N1SB C3SA C1SB O1SA 10(5) . . . . ?
C3SB C3SA C1SB O1SA 178(2) . . . . ?
N1SA C3SA C1SB O1SA -10.4(16) . . . . ?
C2SB C3SA C1SB O1SA 4(2) . . . . ?
C3SB C3SA C1SB N1SB 168(5) . . . . ?
N1SA C3SA C1SB N1SB -20(5) . . . . ?
C2SB C3SA C1SB N1SB -6(5) . . . . ?
N1SB C3SA C1SB C1SA 19(5) . . . . ?
C3SB C3SA C1SB C1SA -172.8(16) . . . . ?
N1SA C3SA C1SB C1SA -1.5(5) . . . . ?
C2SB C3SA C1SB C1SA 13.0(14) . . . . ?
N1SB C3SA C1SB N1SA 20(5) . . . . ?
C3SB C3SA C1SB N1SA -171.3(16) . . . . ?
C2SB C3SA C1SB N1SA 14.4(12) . . . . ?
C2SB N1SA C1SB O1SA 125(3) . . . . ?
N1SB N1SA C1SB O1SA 166(2) . . . . ?
C1SA N1SA C1SB O1SA -4.9(6) . . . . ?
C3SA N1SA C1SB O1SA 173.0(11) . . . . ?
C2SB N1SA C1SB N1SB -41(3) . . . . ?
C1SA N1SA C1SB N1SB -170.9(19) . . . . ?
C3SA N1SA C1SB N1SB 6.9(18) . . . . ?
C2SB N1SA C1SB C1SA 130(3) . . . . ?
N1SB N1SA C1SB C1SA 170.9(19) . . . . ?
C3SA N1SA C1SB C1SA 177.8(8) . . . . ?
C2SB N1SA C1SB C3SA -48(3) . . . . ?
N1SB N1SA C1SB C3SA -6.9(18) . . . . ?
C1SA N1SA C1SB C3SA -177.8(8) . . . . ?
N1SB N1SA C2SB C2SA 149.6(19) . . . . ?
C1SA N1SA C2SB C2SA -92(3) . . . . ?
C3SA N1SA C2SB C2SA 135(2) . . . . ?
C1SB N1SA C2SB C2SA 176.0(9) . . . . ?
C1SA N1SA C2SB N1SB 118(3) . . . . ?
C2SA N1SA C2SB N1SB -149.6(19) . . . . ?
C3SA N1SA C2SB N1SB -14.6(12) . . . . ?
C1SB N1SA C2SB N1SB 26(2) . . . . ?
N1SB N1SA C2SB C3SA 14.6(11) . . . . ?
C1SA N1SA C2SB C3SA 133(3) . . . . ?
C2SA N1SA C2SB C3SA -135(2) . . . . ?
C1SB N1SA C2SB C3SA 41(2) . . . . ?
N1SB N1SA C2SB C1SA -118(3) . . . . ?
C2SA N1SA C2SB C1SA 92(3) . . . . ?
C3SA N1SA C2SB C1SA -133(3) . . . . ?
C1SB N1SA C2SB C1SA -92(3) . . . . ?
N1SA C2SA C2SB N1SB 37(3) . . . . ?
N1SA C2SA C2SB C3SA 67(4) . . . . ?
N1SA C2SA C2SB C1SA -26.9(17) . . . . ?
C3SA N1SB C2SB N1SA 139(4) . . . . ?
C1SB N1SB C2SB N1SA -36(3) . . . . ?
C3SB N1SB C2SB N1SA 144(2) . . . . ?
C1SA N1SB C2SB N1SA -25.6(16) . . . . ?
C3SA N1SB C2SB C2SA 88(5) . . . . ?
N1SA N1SB C2SB C2SA -51(4) . . . . ?
C1SB N1SB C2SB C2SA -87(5) . . . . ?
C3SB N1SB C2SB C2SA 93(5) . . . . ?
C1SA N1SB C2SB C2SA -76(4) . . . . ?
N1SA N1SB C2SB C3SA -139(4) . . . . ?
C1SB N1SB C2SB C3SA -175(4) . . . . ?
C3SB N1SB C2SB C3SA 4.9(18) . . . . ?
C1SA N1SB C2SB C3SA -165(3) . . . . ?
C3SA N1SB C2SB C1SA 165(3) . . . . ?
N1SA N1SB C2SB C1SA 25.6(16) . . . . ?
C1SB N1SB C2SB C1SA -10(2) . . . . ?
C3SB N1SB C2SB C1SA 169.7(18) . . . . ?
N1SB C3SA C2SB N1SA -33(3) . . . . ?
C3SB C3SA C2SB N1SA 159(3) . . . . ?
C1SB C3SA C2SB N1SA -30(2) . . . . ?
N1SB C3SA C2SB C2SA -114(5) . . . . ?
C3SB C3SA C2SB C2SA 77(6) . . . . ?
N1SA C3SA C2SB C2SA -81(5) . . . . ?
C1SB C3SA C2SB C2SA -111(4) . . . . ?
C3SB C3SA C2SB N1SB -168(4) . . . . ?
N1SA C3SA C2SB N1SB 33(3) . . . . ?
C1SB C3SA C2SB N1SB 3(3) . . . . ?
N1SB C3SA C2SB C1SA -14(3) . . . . ?
C3SB C3SA C2SB C1SA 178(3) . . . . ?
N1SA C3SA C2SB C1SA 19.1(12) . . . . ?
C1SB C3SA C2SB C1SA -10.9(11) . . . . ?
N1SA C3SA C3SB N1SB -150(11) . . . . ?
C2SB C3SA C3SB N1SB 160(7) . . . . ?
C1SB C3SA C3SB N1SB -10(5) . . . . ?
N1SA N1SB C3SB C3SA 12(4) . . . . ?
C1SB N1SB C3SB C3SA 167(7) . . . . ?
C2SB N1SB C3SB C3SA -13(5) . . . . ?
C1SA N1SB C3SB C3SA 93(11) . . . . ?
Y1 O2A C1A O1A -2.1(4) 2_767 . . . ?
Y1 O2A C1A C2A 178.2(2) 2_767 . . . ?
Y1 O1A C1A O2A -155.0(9) . . . . ?
Y1 O1A C1A O2A 1.8(3) 2_767 . . . ?
Y1 O1A C1A C2A 24.6(12) . . . . ?
Y1 O1A C1A C2A -178.6(3) 2_767 . . . ?
Y1 O1A C1A Y1 -156.8(10) . . . 2_767 ?
O2A C1A C2A C3A 27.3(5) . . . . ?
O1A C1A C2A C3A -152.3(3) . . . . ?
C1A C2A C3A C4A 176.4(3) . . . . ?
C2A C3A C4A C5A -167.0(4) . . . . ?
C3A C4A C5A C6A 176.7(3) . . . . ?
Y1 O3A C6A O4A 3.3(3) 2_666 . . . ?
Y1 O3A C6A C5A -174.2(3) 2_666 . . . ?
Y1 O4A C6A O3A 130.0(3) 1_554 . . . ?
Y1 O4A C6A O3A -3.4(3) 2_666 . . . ?
Y1 O4A C6A C5A -52.4(5) 1_554 . . . ?
Y1 O4A C6A C5A 174.1(3) 2_666 . . . ?
Y1 O4A C6A Y1 133.4(3) 1_554 . . 2_666 ?
C4A C5A C6A O3A 29.2(5) . . . . ?
C4A C5A C6A O4A -148.3(4) . . . . ?
Y1 O2B C1B O1B -9.5(5) 2_767 . . . ?
Y1 O2B C1B C2B 170.5(2) 2_767 . . . ?
Y1 O1B C1B O2B 40.5(5) . . . . ?
Y1 O1B C1B C2B -139.5(3) . . . . ?
O2B C1B C2B C3B 1.4(5) . . . . ?
O1B C1B C2B C3B -178.6(3) . . . . ?
C1B C2B C3B C3B -176.9(4) . . . 2_756 ?
