#------------------------------------------------------------------------------
#$Date: 2022-09-23 01:37:45 +0300 (Fri, 23 Sep 2022) $
#$Revision: 278090 $
#$URL: file:///home/coder/svn-repositories/cod/cif/7/24/55/7245530.cif $
#------------------------------------------------------------------------------
#
# This file is available in the Crystallography Open Database (COD),
# http://www.crystallography.net/
#
# All data on this site have been placed in the public domain by the
# contributors.
#
data_7245530
loop_
_publ_author_name
'Stoesser, Julian'
'Engelage, Elric'
'Huber, Stefan'
_publ_section_title
;
 Co-crystallization studies of the syn- and anti-atropisomers of
 triphenyl-based perfluorinated halogen bond donors with halides
;
_journal_name_full               CrystEngComm
_journal_paper_doi               10.1039/D2CE00973K
_journal_year                    2022
_chemical_formula_sum            'C18 F12 I2'
_chemical_formula_weight         697.98
_space_group_crystal_system      monoclinic
_space_group_IT_number           14
_space_group_name_Hall           '-P 2yn'
_space_group_name_H-M_alt        'P 1 21/n 1'
_atom_sites_solution_primary     'dual space'
_atom_sites_solution_secondary   difmap
_audit_creation_method           SHELXL-2017/1
_audit_update_record
;
2022-08-27 deposited with the CCDC.	2022-09-16 downloaded from the CCDC.
;
_cell_angle_alpha                90
_cell_angle_beta                 101.119(11)
_cell_angle_gamma                90
_cell_formula_units_Z            2
_cell_length_a                   7.6232(9)
_cell_length_b                   8.0459(7)
_cell_length_c                   15.3895(17)
_cell_measurement_reflns_used    1589
_cell_measurement_temperature    170(2)
_cell_measurement_theta_max      25.0
_cell_measurement_theta_min      3.3
_cell_volume                     926.20(17)
_computing_cell_refinement
;
CrysAlisPro, Agilent Technologies,
Version 1.171.36.24 (release 03-12-2012 CrysAlis171 .NET)
(compiled Dec  3 2012,18:21:49)
;
_computing_data_collection
;
CrysAlisPro, Agilent Technologies,
Version 1.171.36.24 (release 03-12-2012 CrysAlis171 .NET)
(compiled Dec  3 2012,18:21:49)
;
_computing_data_reduction
;
CrysAlisPro, Agilent Technologies,
Version 1.171.36.24 (release 03-12-2012 CrysAlis171 .NET)
(compiled Dec  3 2012,18:21:49)
;
_computing_molecular_graphics
;
 Diamond 4 - Crystal and Molecular Structure Visualization
  Crystal Impact - Dr. H. Putz & Dr. K. Brandenburg GbR, 
  Kreuzherrenstr. 102, 53227 Bonn, Germany
  http://www.crystalimpact.com/diamond
 Mercury CSD 2.0 - New Features for the Visualization 
 and Investigation of Crystal Structures
  C. F. Macrae, I. J. Bruno, J. A. Chisholm, P. R. Edgington, P. McCabe,
  E. Pidcock, 
  L. Rodriguez-Monge, R. Taylor, J. van de Streek and P. A. Wood, 
  J. Appl. Cryst., 41, 466-470, 2008
;
_computing_publication_material
'WinGX L. J. Farrugia, J. Appl. Crystallogr., 1999, 32, 837-838.'
_computing_structure_refinement  'SHELXL-2018/3 (Sheldrick, 2018)'
_computing_structure_solution
;
 shelXT  G. M. Sheldrick, Acta Crystallogr., Sect. A: Found. Crystallogr.,
 2008, 64, 112-122.
 shelXle C. B. Huebschle, G. M. Sheldrick and B. Dittrich J. Appl. Cryst.
  (2011). 44, 1281-1284
;
_diffrn_ambient_temperature      170(2)
_diffrn_detector_area_resol_mean 8.4171
_diffrn_measured_fraction_theta_full 0.977
_diffrn_measured_fraction_theta_max 0.977
_diffrn_measurement_device_type  'Xcalibur, Sapphire2, large Be window'
_diffrn_radiation_monochromator  graphite
_diffrn_radiation_source         'Enhance (Mo) X-ray Source'
_diffrn_radiation_type           'Mo K\a'
_diffrn_radiation_wavelength     0.7107
_diffrn_reflns_av_R_equivalents  0.0402
_diffrn_reflns_av_unetI/netI     0.0333
_diffrn_reflns_Laue_measured_fraction_full 0.977
_diffrn_reflns_Laue_measured_fraction_max 0.977
_diffrn_reflns_limit_h_max       8
_diffrn_reflns_limit_h_min       -8
_diffrn_reflns_limit_k_max       9
_diffrn_reflns_limit_k_min       -8
_diffrn_reflns_limit_l_max       18
_diffrn_reflns_limit_l_min       -17
_diffrn_reflns_number            6649
_diffrn_reflns_point_group_measured_fraction_full 0.977
_diffrn_reflns_point_group_measured_fraction_max 0.977
_diffrn_reflns_theta_full        24.986
_diffrn_reflns_theta_max         24.986
_diffrn_reflns_theta_min         3.264
_diffrn_source                   'fine-focus sealed X-ray tube'
_exptl_absorpt_coefficient_mu    3.516
_exptl_absorpt_correction_T_max  1.00000
_exptl_absorpt_correction_T_min  0.70796
_exptl_absorpt_correction_type   multi-scan
_exptl_absorpt_process_details
;
CrysAlisPro, Agilent Technologies,
Version 1.171.36.24 (release 03-12-2012 CrysAlis171 .NET)
(compiled Dec  3 2012,18:21:49)
Empirical absorption correction using spherical harmonics,
 implemented in SCALE3 ABSPACK scaling algorithm.
;
_exptl_crystal_colour            'translucent colorless'
_exptl_crystal_density_diffrn    2.503
_exptl_crystal_description       needle
_exptl_crystal_F_000             644
_exptl_crystal_size_max          0.42
_exptl_crystal_size_mid          0.21
_exptl_crystal_size_min          0.2
_refine_diff_density_max         1.051
_refine_diff_density_min         -0.819
_refine_diff_density_rms         0.149
_refine_ls_extinction_method     none
_refine_ls_goodness_of_fit_ref   1.111
_refine_ls_hydrogen_treatment    undef
_refine_ls_matrix_type           full
_refine_ls_number_parameters     145
_refine_ls_number_reflns         1589
_refine_ls_number_restraints     0
_refine_ls_restrained_S_all      1.111
_refine_ls_R_factor_all          0.0537
_refine_ls_R_factor_gt           0.0400
_refine_ls_shift/su_max          0.000
_refine_ls_shift/su_mean         0.000
_refine_ls_structure_factor_coef Fsqd
_refine_ls_weighting_details
'w=1/[\s^2^(Fo^2^)+(0.0581P)^2^+1.5341P] where P=(Fo^2^+2Fc^2^)/3'
_refine_ls_weighting_scheme      calc
_refine_ls_wR_factor_gt          0.1024
_refine_ls_wR_factor_ref         0.1135
_reflns_Friedel_coverage         0.000
_reflns_number_gt                1293
_reflns_number_total             1589
_reflns_threshold_expression     'I > 2\s(I)'
_cod_data_source_file            d2ce00973k2.cif
_cod_data_source_block           anti-p-1
_cod_depositor_comments
;
The following automatic conversions were performed:

data item '_atom_sites_solution_secondary' value 'diffmap' was
changed to 'difmap'.

Automatic conversion script
Id: cif_fix_values 7556 2019-12-06 15:28:31Z antanas 
;
_cod_original_cell_volume        926.21(18)
_cod_original_sg_symbol_H-M      'P 21/n'
_cod_database_code               7245530
_shelx_shelxl_version_number     2017/1
_shelx_space_group_comment
;
The symmetry employed for this shelxl refinement is uniquely defined
by the following loop, which should always be used as a source of
symmetry information in preference to the above space-group names.
They are only intended as comments.
;
_shelx_res_file
;
TITL shelxt_a.res in P2(1)/n
    js-d01c14anti.res
    created by SHELXL-2017/1 at 10:41:35 on 29-Apr-2018
REM Old TITL JS-D01c14anti in P2(1)/n
REM SHELXT solution in P2(1)/n
REM R1 0.144,  Rweak 0.088,  Alpha 0.041,  Orientation as input
REM Formula found by SHELXT:  C9 F6 I
CELL 0.71073   7.623247   8.045890  15.389468  90.0000 101.1185  90.0000
ZERR    2.00   0.000937   0.000717   0.001685   0.0000   0.0113   0.0000
LATT  1
SYMM 1/2-X, 1/2+Y, 1/2-Z
SFAC C F I
UNIT 36 24 4
L.S. 10
BOND $H
LIST 4
acta
temp -103
omit -4 50
FMAP 2
PLAN 20
WGHT    0.058100    1.534100
FVAR       1.71294
I001  3    0.097774    0.986427    0.276205    11.00000    0.05381    0.04098 =
         0.04747    0.01032    0.00120   -0.00020
F1    2   -0.115399    0.651210    0.241593    11.00000    0.05085    0.05061 =
         0.05888   -0.00369   -0.01989   -0.00666
F2    2   -0.096740    0.362391    0.328346    11.00000    0.06332    0.03678 =
         0.08324   -0.01175    0.00194   -0.01683
F3    2    0.149808    0.318850    0.479144    11.00000    0.07848    0.03173 =
         0.07888    0.01308    0.01460    0.00148
F4    2    0.370934    0.568466    0.544236    11.00000    0.06245    0.05245 =
         0.04088    0.01036   -0.00748    0.00457
F5    2    0.567528    0.809324    0.365582    11.00000    0.05299    0.05965 =
         0.04623   -0.02277    0.01610   -0.01196
F6    2    0.196729    0.957442    0.563593    11.00000    0.04367    0.06265 =
         0.05466   -0.01397    0.01944   -0.01476
C1    1    0.120052    0.765165    0.347697    11.00000    0.03677    0.03200 =
         0.03205   -0.00075    0.00886   -0.00036
C2    1    0.006098    0.636383    0.315852    11.00000    0.03429    0.03742 =
         0.04018   -0.00326   -0.00124    0.00114
C3    1    0.015800    0.486104    0.360164    11.00000    0.03883    0.03018 =
         0.05368   -0.01102    0.01026   -0.00279
C4    1    0.141611    0.464998    0.436468    11.00000    0.04759    0.02822 =
         0.05015    0.00389    0.01163    0.00203
C5    1    0.253858    0.593760    0.469302    11.00000    0.04220    0.04592 =
         0.02934    0.00177   -0.00066    0.00359
C6    1    0.246956    0.744395    0.425537    11.00000    0.03513    0.03173 =
         0.03635   -0.00191    0.00780   -0.00139
C7    1    0.377013    0.875744    0.463395    11.00000    0.03498    0.03727 =
         0.02834   -0.00059   -0.00385   -0.00543
C8    1    0.532621    0.903468    0.432337    11.00000    0.03341    0.04093 =
         0.03269   -0.00762    0.00562   -0.00187
C9    1    0.347588    0.977555    0.531379    11.00000    0.02852    0.03991 =
         0.03596    0.00457    0.00547   -0.00191
HKLF 4




REM  shelxt_a.res in P2(1)/n
REM R1 =  0.0400 for    1293 Fo > 4sig(Fo)  and  0.0537 for all    1589 data
REM    145 parameters refined using      0 restraints

END

WGHT      0.0581      1.5341

REM Highest difference peak  1.051,  deepest hole -0.819,  1-sigma level  0.149
Q1    1   0.2206  0.9883  0.2597  11.00000  0.05    1.05
Q2    1   0.0057  0.9940  0.3168  11.00000  0.05    1.01
Q3    1  -0.0205  0.9891  0.2977  11.00000  0.05    0.92
Q4    1  -0.2124  0.4808  0.3278  11.00000  0.05    0.91
Q5    1  -0.1743  0.3894  0.3738  11.00000  0.05    0.56
Q6    1   0.3369  0.9887  0.2468  11.00000  0.05    0.45
Q7    1   0.4609  0.8067  0.4083  11.00000  0.05    0.42
Q8    1   0.1506  1.0144  0.6845  11.00000  0.05    0.42
Q9    1  -0.1086  0.3272  0.2374  11.00000  0.05    0.38
Q10   1   0.1225  0.5379  0.4250  11.00000  0.05    0.35
Q11   1   0.1525  0.4402  0.3869  11.00000  0.05    0.35
Q12   1   0.2441  0.2962  0.4339  11.00000  0.05    0.34
Q13   1   0.1871  0.7603  0.3986  11.00000  0.05    0.33
Q14   1   0.4244  0.9353  0.4048  11.00000  0.05    0.32
Q15   1   0.1442  0.9267  0.5163  11.00000  0.05    0.31
Q16   1   0.4335  0.9199  0.5808  11.00000  0.05    0.31
Q17   1   0.3175  0.9015  0.6144  11.00000  0.05    0.30
Q18   1  -0.1042  0.6271  0.3232  11.00000  0.05    0.30
Q19   1   0.0303  0.9519  0.6237  11.00000  0.05    0.29
Q20   1   0.1219  0.4625  0.3222  11.00000  0.05    0.28
;
_shelx_res_checksum              30991
_shelx_hkl_file
;
   0   0  -4 68767.1 812.153   1
   0   0  -6 12521.7 316.528   3
   0   0  -6 12099.6 419.977   1
   0   0  -8 47.7011 35.5395   3
   0   0  -8 29.9357 48.3304   1
   0   0 -10 9433.70 485.488   1
   0   0 -10 8307.70 335.666   3
   0   0 -12 3556.39 333.246   1
   0   0 -12 3214.86 227.287   3
   0   0  12 3749.80 356.469   1
   0   0  14 2990.03 363.130   1
   0   0 -14 2853.56 329.997   1
   0   0 -16 2793.99 367.158   1
   0   0  16 2755.03 378.772   4
   0   0  16 2981.00 385.333   1
   0  -1  -2 8523.78 225.692   1
   0   1  -2 6467.12 142.459   1
   0   1  -3 10534.2 241.059   1
   0  -1   3 10285.9 254.932   1
   0   1  -3 11314.4 290.825   3
   0  -1  -3 12086.9 316.795   1
   0  -1  -4 110.140 57.7965   1
   0   1  -4 121.230 40.1360   3
   0   1  -4 80.2202 37.4731   1
   0   1  -5 18628.9 439.507   3
   0   1  -5 19054.8 452.810   1
   0  -1  -5 20165.5 515.331   1
   0   1  -6 1702.73 143.741   3
   0   1  -6 1507.36 142.193   1
   0  -1  -6 1889.14 177.062   1
   0   1  -7 54082.0 852.988   3
   0  -1  -7 56859.7 1001.35   1
   0   1  -8 50.6353 37.1959   3
   0  -1  -8 75.7974 69.4808   1
   0   1  -8 54.8601 59.0077   1
   0  -1  -8 47.4858 29.4843   3
   0  -1   8 94.2498 51.2658   1
   0  -1   9 35320.5 894.527   1
   0  -1  -9 36887.9 923.664   1
   0   1  -9 34505.9 850.302   1
   0   1  -9 32908.0 734.258   3
   0   1 -10 33.7420 50.5108   3
   0   1 -10 36.3827 60.5234   1
   0  -1 -10 28.1169 69.1615   1
   0  -1 -10 4.94830 27.9537   3
   0  -1  10 133.738 97.7652   1
   0   1 -11 19419.0 715.011   1
   0  -1  11 21041.8 781.856   1
   0   1 -11 18340.1 596.384   3
   0  -1 -11 20085.9 774.588   1
   0  -1  12 753.805 170.723   1
   0  -1 -12 645.588 165.237   1
   0   1 -12 632.188 142.003   1
   0   1 -12 552.875 120.903   3
   0   1  12 872.662 199.843   1
   0  -1 -13 10936.5 623.256   1
   0   1  13 11138.0 660.211   1
   0   1 -13 9407.57 451.289   3
   0  -1  13 11500.5 652.788   1
   0   1 -13 10159.1 586.122   1
   0  -1 -14 57.8194 103.547   1
   0  -1  14-65.4360 82.5476   4
   0   1 -14 123.719 101.298   1
   0   1  14-47.4779 99.9529   1
   0  -1  14-103.209 103.452   1
   0  -1 -15 1748.22 271.244   1
   0   1  15 1727.08 285.941   1
   0  -1  15 1872.26 291.009   4
   0   1 -15 1972.83 285.859   1
   0  -1  15 1669.34 276.661   1
   0   1  15 1782.28 288.519   4
   0   1  16 26.0405 105.619   4
   0  -1 -16 112.637 101.895   1
   0  -1  16 132.647 100.271   1
   0   1 -16 66.0932 106.902   1
   0   1  16 256.280 147.243   1
   0  -1  16 32.1782 97.9125   4
   0   1  17 258.312 113.903   1
   0  -1  17 304.775 147.733   1
   0  -1 -17 455.352 171.869   1
   0  -1  17 348.262 155.275   4
   0   1 -17 554.020 182.018   1
   0   1  17 267.756 148.480   4
   0   2   0 136996. 989.929   3
   0  -2   0 133994. 669.551   1
   0   2  -1 7398.67 254.680   3
   0  -2  -1 7789.65 204.243   1
   0   2   2 42052.6 675.515   2
   0   2  -2 39241.8 669.386   2
   0  -2  -2 39569.8 545.902   1
   0   2  -3 5799.64 278.615   2
   0   2   3 6073.56 275.701   2
   0  -2   3 5335.36 168.696   1
   0   2  -3 5325.97 250.346   3
   0  -2  -3 6005.40 248.185   1
   0   2  -4 62695.5 893.209   3
   0  -2  -4 62867.9 875.479   1
   0   2  -5 27.5172 57.7695   2
   0   2  -5-26.1249 45.3716   3
   0  -2  -5 30.6920 45.1734   1
   0   2  -5 26.3867 34.4710   1
   0  -2   5 37.8225 35.4968   1
   0  -2  -6 23226.6 623.983   1
   0   2  -6 23197.6 608.654   3
   0   2  -6 21677.7 508.895   1
   0  -2  -7 1569.96 184.279   1
   0   2  -7 1619.58 167.933   3
   0   2  -7 1503.73 148.654   1
   0   2  -8 114.344 49.2926   1
   0  -2  -8 188.850 69.2738   1
   0   2  -8 180.728 76.4138   3
   0  -2   8 128.628 66.7778   1
   0  -2  -9 1154.90 173.480   1
   0   2  -9 1060.46 155.934   1
   0   2  -9 867.936 144.755   3
   0  -2   9 1034.60 161.708   1
   0  -2  10 41.2592 55.9699   1
   0  -2 -10 12.5601 70.5561   1
   0   2 -10 60.3856 49.7436   3
   0   2 -10 83.7226 63.5111   1
   0  -2  11 85.2131 112.813   1
   0   2 -11 76.8545 87.3799   3
   0  -2 -11-28.0551 91.2951   1
   0   2 -11 138.665 109.141   1
   0  -2 -12 4518.37 391.433   1
   0   2 -12 4285.28 354.652   1
   0   2 -12 4538.20 337.127   3
   0  -2  12 4358.39 374.304   1
   0  -2 -13 400.787 168.518   1
   0  -2  13 329.332 132.846   4
   0   2  13 385.873 179.357   1
   0  -2  13 423.904 153.924   1
   0   2 -13 594.178 151.724   3
   0   2 -13 736.402 173.262   1
   0   2 -14 2083.76 275.256   1
   0  -2  14 2300.09 306.336   4
   0  -2 -14 2164.33 302.727   1
   0  -2  14 1979.50 285.098   1
   0   2 -14 1723.67 222.187   3
   0   2  14 2213.78 323.420   1
   0   2  14 2028.64 316.306   4
   0  -2  15 249.399 134.310   1
   0  -2 -15 18.4192 122.969   1
   0   2  15 34.2593 88.9983   1
   0   2  15 64.0793 89.2490   4
   0   2 -15 126.364 83.2313   3
   0  -2  15 115.135 124.211   4
   0  -2 -16 2829.93 367.174   1
   0  -2  16 2507.04 346.105   4
   0   2  16 3043.89 411.812   4
   0   2  16 2674.26 392.990   1
   0  -2  16 2444.47 361.347   1
   0  -2  17 82.2597 101.632   4
   0   2  17 512.383 189.522   1
   0  -2  17 369.099 191.507   1
   0  -2 -17 415.022 187.789   1
   0   2  17 222.628 158.394   4
   0   3  -1 4980.58 241.495   3
   0   3   1 5365.48 217.661   4
   0   3   1 5526.12 232.840   3
   0   3  -1 5668.51 289.081   2
   0  -3  -1 5098.64 186.878   1
   0   3   1 5823.93 291.402   2
   0  -3  -2 6884.47 257.398   1
   0   3   2 6821.52 244.664   3
   0   3  -2 6220.54 291.846   3
   0   3  -2 6855.29 326.036   2
   0   3   2 7587.12 335.770   2
   0   3  -3 4986.92 273.766   3
   0   3   3 5785.72 305.933   2
   0  -3  -3 5589.52 250.418   1
   0  -3   3 4568.67 119.118   1
   0   3   3 5184.43 198.068   3
   0   3  -3 5440.23 310.447   2
   0   3  -4 2229.93 196.732   2
   0  -3   4 2336.03 117.458   1
   0   3  -4 1992.17 176.394   3
   0   3   4 2570.52 217.689   2
   0  -3  -4 2652.99 188.390   1
   0   3   5 51642.9 1005.34   2
   0  -3  -5 52920.9 909.240   1
   0  -3   5 52346.9 678.347   1
   0   3  -5 50362.1 958.224   3
   0   3  -5 51567.7 1078.06   2
   0  -3  -6 2167.57 204.695   1
   0   3  -6 1899.27 193.859   3
   0   3  -6 2187.18 243.010   2
   0  -3   6 1956.23 147.626   1
   0  -3  -7 32833.4 823.331   1
   0  -3   7 30527.4 662.927   1
   0   3  -7 30643.3 920.236   2
   0   3  -7 29391.0 792.104   3
   0  -3   8 1945.31 187.119   1
   0   3  -8 1877.16 210.642   3
   0  -3  -8 1780.61 205.607   1
   0   3  -9 15857.0 619.502   3
   0  -3  -9 16247.8 647.578   1
   0  -3   9 16253.4 580.058   1
   0   3 -10 2542.79 262.055   3
   0  -3 -10 2601.65 286.549   1
   0  -3  10 2598.39 255.648   1
   0   3 -11 4209.27 337.731   3
   0  -3  11 4375.63 343.895   4
   0  -3 -11 4719.63 385.078   1
   0  -3  11 4542.72 349.980   1
   0  -3 -12 71.4143 87.9319   1
   0   3 -12 37.9744 57.1943   3
   0  -3  12 10.2294 60.4928   4
   0  -3  12-55.0013 64.6064   1
   0  -3  13 3816.20 360.091   4
   0   3  13 3641.26 393.084   1
   0   3 -13 3024.01 307.426   3
   0   3  13 3838.59 410.316   4
   0  -3 -13 3491.91 370.905   1
   0  -3  13 3762.30 362.114   1
   0  -3  14 714.921 190.177   1
   0   3 -14 514.559 140.408   3
   0   3  14 750.198 208.072   1
   0   3  14 846.827 215.403   4
   0  -3  14 727.546 163.747   4
   0  -3 -14 719.783 193.371   1
   0  -3  15 2464.92 327.431   1
   0   3 -15 1577.65 236.983   3
   0  -3 -15 2141.32 310.870   1
   0   3  15 2070.91 327.247   1
   0  -3  15 1846.92 269.602   4
   0   3  15 2155.98 331.253   4
   0  -3 -16 232.119 135.963   1
   0   3 -16 66.5615 76.0471   3
   0  -3  16 240.966 124.494   4
   0   3  16 263.701 140.984   1
   0   3  16 17.6031 150.563   4
   0  -3  16 285.688 147.231   1
   0   3  17 432.139 193.133   1
   0  -3 -17 354.989 170.851   1
   0   3  17 193.762 114.689   4
   0  -3  17 295.469 146.800   1
   0   4   0 38427.1 739.467   3
   0   4   0 38045.5 846.683   2
   0   4   0 37281.1 507.420   4
   0  -4  -1 4931.68 206.214   1
   0   4   1 5048.53 223.666   4
   0   4   1 5353.80 315.396   2
   0   4  -1 5054.26 281.831   3
   0   4   1 5040.31 261.015   3
   0   4  -1 5223.18 318.164   2
   0   4  -2 26355.1 739.586   2
   0   4   2 26951.3 722.867   2
   0  -4  -2 25691.3 533.994   1
   0   4   2 26189.9 566.410   3
   0   4  -2 24362.0 646.809   3
   0   4   2 27001.7 574.665   4
   0   4  -3 10902.3 449.039   3
   0   4   3 11616.9 355.211   3
   0  -4  -3 11647.8 388.451   1
   0   4   3 12139.8 490.240   2
   0   4   3 12456.2 437.169   4
   0   4  -3 11689.0 517.062   2
   0   4  -4 8801.89 462.104   2
   0  -4  -4 8817.82 360.769   1
   0   4  -4 8728.87 419.889   3
   0   4   4 9343.23 445.593   2
   0   4   4 9256.11 310.562   3
   0   4   4 8979.37 398.136   4
   0   4   5 7981.19 261.952   3
   0  -4  -5 8591.54 389.998   1
   0  -4   5 7414.26 206.816   1
   0   4   5 8535.67 438.164   2
   0   4  -5 8087.38 415.563   3
   0   4  -5 8217.15 460.064   2
   0  -4   6 11051.5 318.395   1
   0   4  -6 11503.5 584.777   2
   0  -4  -6 11905.4 490.482   1
   0   4   6 11682.3 547.696   2
   0   4  -6 10965.0 503.976   3
   0   4   7 2994.40 286.860   2
   0   4  -7 3022.18 279.253   3
   0  -4   7 2660.21 167.559   4
   0  -4  -7 3493.11 285.548   1
   0   4  -7 3322.21 329.466   2
   0  -4   7 3122.08 202.555   1
   0  -4   8 1043.97 131.483   1
   0   4  -8 1304.50 232.322   2
   0  -4   8 1043.88 125.537   4
   0   4  -8 918.923 148.662   3
   0   4   8 1387.37 209.015   2
   0  -4  -8 1303.19 174.585   1
   0   4  -9 91.9341 82.0687   3
   0  -4   9-43.7307 58.4437   1
   0  -4  -9-24.8185 67.7751   1
   0  -4 -10-43.8412 75.6794   1
   0   4 -10-35.5908 88.1570   3
   0  -4  10 46.5517 61.7802   1
   0   4  10 3.68212 126.518   4
   0  -4  10-0.14727 62.6322   4
   0  -4  11 258.405 82.3819   4
   0   4 -11 486.139 148.399   3
   0  -4  11 418.712 116.887   1
   0  -4 -11 632.103 161.053   1
   0   4  11 400.656 136.734   4
   0   4 -12 1346.60 213.965   3
   0  -4  12 1960.85 248.516   1
   0   4  12 2025.98 300.527   4
   0  -4 -12 1842.74 270.614   1
   0   4  13 18.0878 82.4209   4
   0  -4 -13 132.766 110.321   1
   0   4 -13 127.815 109.889   3
   0   4  13 374.555 180.821   1
   0   4  14 4914.09 490.816   4
   0  -4 -14 5444.68 489.154   1
   0   4  14 4604.00 466.903   1
   0   4 -14 5081.57 436.916   3
   0   4  15-83.9370 105.073   4
   0   4  15 125.982 136.409   1
   0   4 -15 63.2991 99.5139   3
   0  -4 -15 16.5164 86.9425   1
   0   4  16 2258.26 362.385   1
   0   4 -16 2117.51 296.338   3
   0  -4 -16 2374.43 351.475   1
   0   4  16 2258.74 359.923   4
   0   5   1 975.336 130.084   3
   0   5   1 1050.11 110.614   4
   0  -5   1 708.932 58.7468   1
   0   5  -1 919.891 129.634   3
   0   5  -1 981.722 159.864   2
   0   5   1 1081.21 167.641   2
   0  -5  -1 1072.62 103.171   1
   0  -5  -2 38.3759 39.7572   1
   0   5   2 86.9294 52.8187   2
   0   5   2 46.9061 36.2156   3
   0   5   2 14.4755 41.3157   4
   0   5  -2 83.6864 68.1056   3
   0   5  -2-0.98289 70.2485   2
   0   5  -3 12622.3 600.751   2
   0   5   3 12249.9 419.838   3
   0   5   3 13520.2 478.459   4
   0  -5  -3 12520.9 429.389   1
   0   5  -3 11225.7 502.791   3
   0   5   3 12756.1 566.437   2
   0  -5  -4 7677.06 357.876   1
   0   5  -4 7464.67 476.301   2
   0   5   4 7115.54 306.136   3
   0   5   4 7178.67 370.039   4
   0   5  -4 6681.82 403.280   3
   0   5   4 7591.06 443.412   2
   0  -5  -5 14874.7 530.366   1
   0   5   5 14009.0 418.036   3
   0   5  -5 14024.9 601.044   3
   0   5   5 14621.5 620.825   2
   0   5   5 15160.4 579.669   4
   0   5  -5 14376.7 667.974   2
   0   5   6 142.170 58.3570   4
   0  -5  -6 330.366 96.2891   1
   0   5  -6 180.074 84.8582   3
   0   5   6 222.479 81.3760   2
   0   5  -6 103.453 87.5829   2
   0  -5  -7 11684.5 529.062   1
   0   5  -7 10572.7 626.228   2
   0   5  -7 10757.7 561.797   3
   0   5   7 10447.3 568.903   2
   0   5   7 11868.2 583.220   4
   0   5   8 3786.51 349.953   4
   0  -5  -8 3921.86 322.906   1
   0   5  -8 3758.77 407.743   2
   0   5   8 3469.07 341.331   2
   0   5  -8 3222.24 323.168   3
   0  -5  -9 10030.7 540.612   1
   0   5  -9 10048.9 664.598   2
   0   5  -9 9026.76 544.895   3
   0   5   9 9644.30 590.456   2
   0   5   9 10361.8 601.919   4
   0   5 -10 1236.62 218.264   3
   0  -5 -10 1721.52 240.766   1
   0   5  10 1748.50 263.721   4
   0   5  10 1675.07 280.325   2
   0   5  11 7641.71 558.948   4
   0  -5 -11 8062.12 530.602   1
   0   5 -11 7159.16 518.533   3
   0   5  11 7243.61 562.779   2
   0  -5 -12 1226.76 219.763   1
   0   5  12 1205.43 232.957   4
   0   5  12 1463.91 279.523   2
   0   5  12 1203.55 235.966   1
   0   5 -12 1241.00 223.719   3
   0  -5 -13 1089.82 213.388   1
   0   5  13 1186.92 247.819   1
   0   5  13 907.809 197.625   4
   0   5 -13 1150.96 220.185   3
   0   5 -14 2220.46 311.449   3
   0   5  14 2354.69 349.653   1
   0   5  14 2389.52 353.679   4
   0  -5 -14 2456.69 344.373   1
   0  -5 -15 1219.09 242.422   1
   0   5  15 1267.55 261.571   1
   0   5  15 995.680 243.470   4
   0   5 -15 779.491 195.670   3
   0   6   0 24136.6 727.554   3
   0   6   0 24312.8 865.547   2
   0  -6  -1 7671.69 289.677   1
   0   6   1 8147.27 490.972   2
   0   6   1 8706.93 422.647   3
   0   6  -1 8179.18 438.269   3
   0   6  -1 8134.34 508.543   2
   0   6   1 8427.35 319.098   4
   0   6   2 22809.3 817.195   2
   0   6   2 21817.5 647.901   3
   0  -6  -2 23404.5 558.825   1
   0   6  -2 22989.7 867.800   2
   0   6   2 23962.5 620.385   4
   0   6  -2 23745.3 769.592   3
   0   6   3 5068.29 386.096   2
   0   6  -3 4960.83 414.972   2
   0   6   3 5163.64 304.628   4
   0   6  -3 4691.57 355.836   3
   0  -6  -3 5177.68 287.486   1
   0   6   3 4932.14 295.417   3
   0  -6  -4 11115.2 449.799   1
   0   6   4 10927.4 482.722   4
   0   6  -4 11110.5 636.455   2
   0   6   4 10518.5 568.733   2
   0   6  -4 10356.1 537.730   3
   0   6   4 10021.9 421.904   3
   0   6   5 1559.34 162.898   3
   0   6   5 1853.83 250.465   2
   0   6  -5 1453.94 227.862   2
   0   6  -5 1644.71 219.936   3
   0  -6  -5 1965.44 203.167   1
   0   6   5 1805.01 212.021   4
   0   6   6 383.293 101.431   2
   0   6  -6 480.612 114.042   2
   0   6  -6 408.620 109.388   3
   0   6   6 553.024 121.720   4
   0  -6  -7 2538.73 256.515   1
   0   6  -7 2147.37 275.275   3
   0   6   7 2297.85 269.350   2
   0   6   7 2281.37 260.962   4
   0   6  -7 2483.88 321.371   2
   0   6   8 1493.11 213.372   2
   0   6  -8 1576.92 274.825   2
   0   6  -8 1268.20 208.413   3
   0  -6  -8 1793.28 229.292   1
   0   6   8 1652.22 232.331   4
   0   6  -9 1515.57 305.948   2
   0   6   9 1475.14 246.258   2
   0  -6  -9 1176.62 203.138   1
   0   6   9 1138.52 208.731   4
   0   6  -9 1240.42 225.150   3
   0   6 -10 27.7782 100.931   3
   0   6  10 100.775 81.9120   4
   0   6  10 178.689 111.097   2
   0  -6 -10 67.8220 73.8964   1
   0   6  11-35.1495 84.1678   2
   0  -6 -11 99.8139 70.4928   1
   0   6 -11-18.3753 94.6557   3
   0   6  11-8.37114 79.2608   1
   0   6  11-12.0540 139.820   4
   0  -6 -12 1007.23 215.791   1
   0   6  12 900.891 203.907   4
   0   6  12 1034.78 228.058   2
   0   6 -12 682.234 181.428   3
   0   6  12 728.245 195.364   1
   0  -6 -13-41.0324 108.506   1
   0   6  13-41.3861 87.7248   2
   0   6  13 13.3492 80.0258   1
   0   6  13 30.3489 94.1437   4
   0   6 -13-148.607 110.939   3
   0  -6 -14 1029.97 228.024   1
   0   6  14 911.963 223.262   1
   0   6  14 923.674 246.440   4
   0   6  14 1089.93 275.036   2
   0   6 -14 625.413 178.381   3
   0   7  -1 196.776 72.0119   3
   0   7   1 352.498 116.055   2
   0   7  -1 256.708 96.4517   2
   0   7   1 242.011 90.1498   3
   0   7  -2 319.317 129.959   2
   0   7  -2 170.912 61.5806   3
   0   7   2 323.730 93.8757   3
   0   7   2 439.692 141.247   2
   0   7  -3-143.587 93.1158   3
   0   7   3-33.7614 89.5295   3
   0   7   3 136.505 121.415   2
   0   7  -3-1.25067 84.4703   2
   0   7  -4 5833.77 439.031   3
   0   7   4 5056.39 329.111   3
   0   7  -4 6739.64 551.212   2
   0  -7  -4 5780.16 341.318   1
   0   7   4 6277.17 474.705   2
   0  -7  -5 5604.61 358.651   1
   0   7   5 5602.54 454.702   2
   0   7  -5 5458.57 495.564   2
   0   7  -5 4840.21 413.491   3
   0   7   6-75.5998 87.1024   2
   0   7  -6-154.524 119.279   3
   0  -7  -6-74.8972 68.1703   1
   0   7   6-13.1623 69.0294   4
   0   7  -6-318.266 190.952   2
   0   7   7 7493.42 487.569   4
   0  -7  -7 7973.63 468.118   1
   0   7   7 7444.79 532.615   2
   0   7  -7 7561.19 542.296   3
   0   7  -7 7775.96 623.660   2
   0   7  -8 3853.59 409.459   3
   0   7   8 3660.30 360.064   4
   0  -7  -8 3775.62 340.054   1
   0   7  -8 3652.44 449.723   2
   0   7   8 3462.39 378.376   2
   0   7   8 3356.99 338.526   1
   0   7   9 4212.00 418.718   2
   0   7  -9 4145.69 423.701   3
   0  -7  -9 4269.58 373.435   1
   0   7  -9 4269.84 493.650   2
   0   7   9 4398.60 410.223   4
   0   7   9 3815.01 372.215   1
   0   7 -10 1740.92 348.151   2
   0   7  10 1504.69 257.798   1
   0   7  10 1526.84 260.218   4
   0  -7 -10 1528.07 238.016   1
   0   7 -10 1466.00 265.812   3
   0   7  10 1185.04 222.586   2
   0   7  11 3484.81 386.059   1
   0  -7 -11 3929.76 389.963   1
   0   7  11 3884.14 422.718   4
   0   7 -11 3969.94 439.661   3
   0   7 -11 4099.03 529.933   2
   0   7  11 3797.60 427.128   2
   0   7  12 902.058 214.089   4
   0  -7 -12 764.692 191.347   1
   0   7  12 625.409 191.461   1
   0   7 -12 809.056 210.515   3
   0   7  12 730.926 203.234   2
   0   8   0 6748.19 547.270   2
   0   8   0 6797.57 452.043   3
   0   8   1 2103.19 302.339   2
   0   8  -1 2618.28 294.388   3
   0   8  -1 2393.75 330.502   2
   0   8   1 2052.75 242.291   3
   0   8  -2 7029.72 486.348   3
   0   8  -2 6897.00 570.118   2
   0   8   2 7095.45 553.908   2
   0   8   2 6726.80 422.872   3
   0   8   3 1977.73 289.221   2
   0   8   3 1791.25 217.395   3
   0   8  -3 1948.99 312.864   2
   0   8  -3 2251.27 282.600   3
   0   8  -4 1415.49 230.272   3
   0   8  -4 1222.82 245.930   2
   0   8  -5 562.503 147.815   2
   0   8  -5 818.271 185.763   3
   0   8  -6 118.909 89.6032   3
   0   8  -6 46.3132 153.207   2
   0   8  -7 177.170 99.9428   2
   0   8   7 391.507 153.384   2
   0   8  -7 427.064 136.196   3
   0   8  -8-126.033 152.103   2
   0   8  -8-62.0488 112.159   3
   0   8   8 80.4814 74.7185   2
   0   8  -9 285.017 180.247   2
   0   8   9 129.790 75.1713   2
   0  -8  -9-4.50031 67.1890   1
   0   8  -9 198.951 98.0576   3
   0   9  -1 325.215 114.897   3
   0   9   1 292.473 104.858   3
   0   9  -1 320.517 119.181   2
   0   9   2-253.308 142.533   3
   0   9  -2-128.319 102.637   3
   0   9  -3 128.469 83.9503   3
   0   9  -4 429.857 147.322   3
   0   9  -5 1530.86 266.551   3
   0   9  -6 503.729 172.210   2
   0   9  -6 1110.87 249.112   3
  -1   0  17 2283.76 351.338   4
  -1   0  17 2082.33 358.217   1
  -1   0  15 8345.15 594.197   4
  -1   0  15 8346.82 624.300   1
   1   0 -13 10611.0 598.130   1
  -1   0  13 10943.6 620.418   4
  -1   0  13 10842.1 643.146   1
   1   0 -13 9600.58 441.913   3
  -1   0  11 9644.15 530.768   4
   1   0 -11 9121.31 405.452   3
   1   0 -11 10210.5 536.928   1
  -1   0  11 9943.07 567.274   1
   1   0  -9 11776.6 430.814   3
   1   0  -9 11573.4 513.909   1
  -1   0   9 12278.4 555.710   1
  -1   0   9 12184.9 536.469   4
   1   0  -7 9538.60 400.540   1
   1   0  -7 9944.67 361.524   3
  -1   0   7 9592.36 429.635   1
  -1   0   7 9868.86 416.952   4
   1   0  -5 12582.4 370.689   3
  -1   0   5 11348.5 382.490   4
  -1   0   3 10672.0 315.648   1
  -1   0   3 10909.9 302.503   4
  -1   0  -1 30059.9 394.170   1
  -1   0  -1 29375.1 397.185   4
  -1   0  -3 107877. 984.021   1
  -1   0  -3 109416. 985.579   4
  -1   0  -5 80480.8 759.367   3
  -1   0  -5 77792.7 1016.11   4
  -1   0  -5 81429.6 1039.88   1
  -1   0  -7 24956.7 679.909   1
  -1   0  -7 24085.8 475.920   3
  -1   0  -9 11914.1 530.128   1
  -1   0  -9 13362.4 395.383   3
  -1   0 -11 231.603 73.8708   1
  -1   0 -11 266.173 63.0367   3
  -1   0 -13 3848.79 372.764   1
   1   0  15 272.599 141.224   1
  -1   0 -15 313.606 121.781   1
   1   0  17 23.6234 88.5705   1
  -1   0 -17-45.5843 109.357   1
  -1  -1  18 2947.89 430.275   1
  -1   1  18 2456.00 401.155   1
  -1   1  18 2481.98 380.352   4
  -1  -1  18 2241.14 367.082   4
  -1  -1  17 604.065 217.508   1
  -1   1  17 255.939 179.487   1
  -1   1  17 191.732 147.391   4
  -1  -1  17 98.0042 94.2606   4
  -1  -1  16 431.465 144.494   4
  -1   1  16 361.741 141.843   4
  -1   1  16 490.284 181.359   1
  -1  -1  16 738.822 213.872   1
   1  -1 -16 448.781 166.588   1
  -1  -1  15 688.917 217.086   1
  -1   1  15 251.936 128.241   4
   1  -1 -15 882.605 230.226   1
  -1   1  15 467.006 176.725   1
  -1  -1  15 352.870 149.662   4
   1  -1 -14 161.467 97.3241   1
   1   1 -14 115.057 66.8325   3
  -1   1  14-29.4805 92.4130   1
  -1  -1  14 105.479 101.415   1
  -1   1  14 65.0547 84.0324   4
  -1  -1  14 99.9265 71.7513   4
  -1   1  13 488.730 145.560   1
   1  -1 -13 510.107 141.122   1
  -1  -1  13 404.123 120.461   4
   1   1 -13 513.502 120.209   3
  -1  -1  13 346.081 132.188   1
  -1   1  13 406.772 148.073   4
   1  -1 -12-6.90321 81.8862   1
   1   1 -12-3.69694 49.7510   3
  -1  -1  12 43.2789 93.5014   1
  -1   1  12-24.6625 85.7181   1
  -1  -1  12-2.29216 67.7516   4
  -1   1  12 21.0567 92.3967   4
  -1   1  11 372.715 104.397   4
   1  -1 -11 632.165 100.464   3
  -1  -1  11 473.759 126.125   1
  -1  -1  11 322.694 87.5369   4
   1   1 -11 681.327 130.012   3
  -1   1  11 580.346 152.386   1
   1  -1 -11 783.201 161.437   1
  -1  -1  10 3455.37 293.669   4
   1  -1 -10 2982.17 205.445   3
  -1   1  10 3422.21 317.836   1
  -1   1  10 3796.45 327.011   4
   1  -1 -10 3412.94 302.451   1
   1   1 -10 3276.16 259.472   3
  -1  -1  10 3418.95 312.885   1
   1  -1  -9 1360.92 180.264   1
   1  -1  -9 1277.65 130.303   3
  -1  -1   9 1289.80 181.753   1
  -1   1   9 1338.19 186.584   4
   1   1  -9 1268.51 157.125   3
  -1   1   9 1362.74 199.433   1
  -1  -1   9 1254.07 172.057   4
   1  -1  -8 18876.5 619.264   1
  -1  -1   8 18854.6 629.904   1
   1  -1  -8 18019.7 473.000   3
   1   1  -8 18836.6 567.452   3
  -1   1   8 19466.7 655.424   4
  -1   1   7 5699.22 341.596   1
  -1  -1   7 6042.76 331.864   1
  -1   1   7 6139.65 345.626   4
  -1  -1   7 5655.36 300.348   4
   1  -1  -7 5660.79 316.849   1
   1   1  -7 5999.40 305.922   3
   1   1  -6 44663.5 790.357   3
  -1   1   6 43577.0 855.114   4
  -1  -1   6 41794.6 746.285   4
  -1  -1   6 44595.7 829.951   1
   1  -1  -6 43517.9 820.256   1
  -1   1   5 1649.17 164.664   4
   1   1  -5 1905.43 161.968   3
  -1  -1   5 1670.78 139.912   4
   1  -1  -5 1762.55 158.309   1
  -1   1   5 1671.94 167.568   1
  -1  -1   5 1692.93 156.837   1
  -1   1   4 152029. 1337.27   1
   1  -1  -4 149413. 1253.71   1
  -1   1   4 148557. 1327.27   4
  -1  -1   4 147200. 1260.89   1
   1   1  -4 150602. 1306.47   3
  -1   1   3 17619.9 415.302   1
   1   1  -3 18960.8 435.958   3
  -1  -1   3 18141.4 396.584   1
  -1   1   3 18689.4 434.876   4
  -1  -1   3 16595.4 335.004   4
  -1  -1   2 53189.3 531.150   4
  -1  -1   2 54148.9 615.128   1
  -1   1   2 53535.3 656.784   4
   1   1  -2 57040.5 705.062   3
  -1   1   2 54656.5 639.712   1
  -1   1   1 7229.62 217.524   4
  -1  -1   1 7726.55 181.818   4
  -1  -1   1 7995.20 214.542   1
  -1   1   1 7554.37 209.324   1
  -1  -1   0 8752.63 225.790   1
  -1   1   0 8290.18 183.942   1
  -1   1   0 8247.62 207.456   4
  -1  -1   0 8878.11 207.187   4
  -1  -1  -1 2090.77 120.881   4
  -1   1  -1 1911.23 103.859   4
  -1   1  -1 2227.19 128.198   3
  -1  -1  -1 2121.48 121.471   1
  -1   1  -1 1875.73 85.9436   1
  -1  -1  -2 44430.3 593.485   4
  -1   1  -2 41921.3 527.823   4
  -1   1  -2 43165.7 480.104   1
  -1   1  -2 45108.3 592.473   3
  -1  -1  -2 44871.4 619.026   1
  -1   1  -3 6900.33 245.092   3
  -1   1  -3 5534.93 196.932   1
  -1   1  -3 5933.86 223.083   4
  -1  -1  -3 6235.53 253.386   4
  -1  -1  -3 6422.03 259.936   1
  -1   1  -3 6484.14 290.493   2
  -1  -1  -4 435.906 93.9065   4
  -1   1  -4 452.339 68.3498   1
  -1   1  -4 410.289 68.3894   4
  -1  -1  -4 333.190 67.9872   1
  -1   1  -4 401.837 66.9831   3
  -1   1  -5 772.849 91.8759   3
  -1   1  -5 827.545 107.461   4
  -1   1  -5 817.446 101.187   1
  -1  -1  -5 765.321 117.797   1
  -1   1  -6 2231.22 188.542   4
  -1  -1  -6 2342.44 195.786   1
  -1   1  -6 2469.02 191.432   1
  -1   1  -6 2067.79 155.339   3
  -1   1  -7 202.157 68.0890   1
  -1   1  -7 168.494 50.5647   3
  -1  -1  -7 178.234 60.1361   1
  -1   1  -8 3926.02 273.701   1
  -1   1  -8 4456.42 251.091   3
  -1  -1  -8 4805.31 330.658   1
  -1  -1  -9 220.754 44.6239   3
  -1   1  -9 484.464 117.932   1
  -1  -1  -9 486.022 133.803   1
  -1   1  -9 359.185 80.6996   3
  -1   1 -10 10321.8 511.971   1
  -1   1 -10 8963.92 390.617   3
  -1  -1 -10 9543.25 519.619   1
  -1   1 -11-18.0904 47.1007   3
  -1  -1 -11-41.6588 89.8491   1
  -1   1 -11 33.3484 66.7911   1
  -1   1 -12 9038.51 526.955   1
  -1  -1 -12 9722.35 568.368   1
  -1  -1 -13-62.6395 96.9141   1
  -1   1 -13-88.2239 79.5720   1
  -1   1 -14 5452.67 459.884   1
   1  -1  14 6446.57 520.292   1
  -1  -1 -14 6405.05 510.925   1
  -1  -1 -15 123.454 112.334   1
  -1   1 -15 82.2089 77.4755   1
   1  -1  15 3.98071 90.8820   1
  -1  -1 -16 5588.97 516.845   1
  -1   1 -16 5225.06 493.996   1
   1   1  16 5632.06 542.035   1
   1  -1  17-59.9249 93.0831   1
   1   1  17 338.633 169.513   1
  -1   1 -17 141.505 155.170   1
  -1  -1 -17-86.2803 122.709   1
   1  -2 -17 2944.33 397.058   1
  -1   2  17 2417.60 371.897   1
  -1  -2  17 2237.25 327.966   4
  -1  -2  17 2318.61 369.128   1
  -1   2  17 2437.50 371.431   4
  -1  -2  16 77.5997 80.0774   4
   1  -2 -16 126.983 123.546   1
  -1  -2  16 43.8485 84.3422   1
  -1   2  16-76.2752 115.700   4
  -1   2  16 365.556 184.764   1
   1   2 -16-25.0455 83.3228   3
   1   2 -15 1509.58 224.823   3
  -1   2  15 1540.61 283.079   4
  -1  -2  15 1688.50 265.957   4
  -1  -2  15 2032.91 310.400   1
  -1   2  15 1814.03 305.506   1
   1  -2 -15 1845.53 292.732   1
  -1   2  14 1517.32 261.155   4
   1   2 -14 1301.24 201.309   3
  -1  -2  14 1673.54 280.069   1
   1  -2 -14 1496.44 263.071   1
  -1   2  14 1556.09 277.453   1
  -1  -2  14 1273.19 222.290   4
  -1  -2  13 10661.5 596.357   4
  -1   2  13 10734.5 656.658   1
  -1   2  13 11099.7 658.774   4
   1   2 -13 10532.0 555.758   3
  -1  -2  13 11387.5 647.034   1
   1  -2 -13 10143.7 615.945   1
   1  -2 -12 214.711 144.954   1
  -1   2  12 10.7993 90.6095   1
  -1   2  12 104.321 137.241   4
   1   2 -12 148.454 103.250   3
  -1  -2  12 88.3831 109.587   1
  -1  -2  12 38.4431 76.4117   4
   1  -2 -11 18390.2 751.215   1
  -1  -2  11 20447.3 777.478   1
  -1   2  11 20185.0 809.597   4
  -1  -2  11 18379.1 686.018   4
   1   2 -11 18143.1 683.300   3
  -1   2  11 18913.9 795.040   1
  -1   2  10 291.091 128.869   4
   1  -2 -10 282.292 64.9484   3
  -1  -2  10 424.935 132.993   1
  -1   2  10 501.543 148.222   1
   1  -2 -10 471.953 126.600   1
  -1  -2  10 315.590 103.378   4
   1   2 -10 557.371 139.501   3
  -1   2   9 18959.3 708.373   4
  -1   2   9 18925.8 713.167   1
   1   2  -9 18361.9 642.919   3
   1  -2  -9 18894.4 676.732   1
  -1  -2   9 20313.1 689.596   1
  -1  -2   9 18893.5 614.407   4
  -1   2   8 29.3341 62.2714   1
   1  -2  -8 45.4353 79.1123   1
  -1   2   8-91.6286 114.561   4
  -1  -2   8-3.94913 41.4246   4
  -1  -2   8 53.9739 55.1735   1
   1   2  -8-2.60976 53.3517   3
   1  -2  -7 2318.37 214.424   1
  -1  -2   7 2015.12 192.039   1
  -1  -2   7 2033.26 173.238   4
  -1   2   7 2130.94 215.056   4
   1   2  -7 2038.45 200.656   3
  -1   2   7 2235.00 220.151   1
   1   2  -6 1717.44 173.083   3
   1  -2  -6 1794.25 181.125   1
  -1  -2   6 1948.43 172.756   1
  -1   2   6 1752.29 183.549   4
  -1   2   6 1719.28 183.797   1
  -1   2   5 3665.89 248.881   4
  -1  -2   5 3835.31 229.549   1
   1  -2  -5 3701.11 233.688   1
   1   2  -5 3598.18 241.122   3
   1   2  -5 3971.11 262.299   2
  -1   2   4-7.48656 42.2718   2
  -1   2   4 40.6733 45.4958   4
   1   2  -4 84.5682 56.8804   2
  -1   2   4 56.2601 51.8911   1
  -1  -2   4 46.7060 30.5379   4
   1   2  -4-16.7833 46.7123   3
  -1  -2   4 40.7127 44.6301   1
   1  -2  -4 134.072 71.9168   1
   1   2  -3 3649.15 207.661   2
   1  -2  -3 3305.39 180.440   1
  -1   2   3 3343.59 215.701   2
  -1  -2   3 3435.90 138.535   4
  -1   2   3 3338.78 205.868   4
   1   2  -3 3118.26 208.217   3
  -1  -2   3 3379.65 170.622   1
  -1   2   2 2339.70 168.286   2
   1   2  -2 2179.55 165.859   3
  -1   2   2 2288.74 136.784   3
  -1   2   2 2136.43 144.559   1
  -1   2   2 2278.59 157.480   4
  -1  -2   2 2406.39 98.1959   4
  -1  -2   2 2235.87 127.694   1
  -1   2   1 14104.3 303.433   1
   1   2  -1 14367.7 380.727   3
  -1  -2   1 15090.1 249.666   4
  -1   2   1 14503.8 341.688   4
  -1  -2   1 15005.5 315.885   1
  -1   2   1 13572.6 377.079   2
  -1   2   1 14933.1 368.551   3
  -1   2   0 3243.20 181.751   3
  -1   2   0 2918.56 174.822   2
  -1   2   0 2580.39 107.969   1
   1   2   0 3279.28 166.343   3
  -1  -2   0 3110.13 140.830   4
  -1  -2   0 2995.55 152.232   1
  -1   2   0 3084.58 142.896   4
  -1   2  -1 30690.3 587.745   2
  -1  -2  -1 33041.9 539.504   1
  -1   2  -1 32237.3 586.048   3
  -1   2  -1 31028.7 411.167   4
  -1   2  -2 86.8149 44.0409   2
  -1   2  -2 131.935 57.4849   3
  -1  -2  -2 82.3675 47.8607   1
  -1   2  -2 76.2288 24.1257   4
  -1  -2  -2 146.891 53.3395   4
  -1   2  -2 80.9016 22.7905   1
  -1  -2  -3 148498. 1312.01   1
  -1   2  -3 149161. 1494.94   2
  -1   2  -3 146480. 1334.98   3
  -1   2  -3 143696. 915.901   1
  -1   2  -3 144718. 1045.22   4
  -1  -2  -3 149273. 1295.87   4
  -1   2  -4 18370.9 371.887   1
  -1   2  -4 20855.8 621.160   2
  -1  -2  -4 19965.5 529.930   1
  -1   2  -4 19392.9 510.309   3
  -1   2  -4 18642.7 407.089   4
  -1   2  -5 15467.8 418.588   4
  -1  -2  -5 17392.3 526.079   1
  -1   2  -5 16993.7 618.492   2
  -1   2  -5 15864.3 479.166   3
  -1   2  -6 3424.34 230.183   3
  -1   2  -6 3292.46 200.206   1
  -1   2  -6 3402.54 215.843   4
  -1  -2  -6 3791.26 263.536   1
  -1   2  -7 49499.3 914.975   3
  -1   2  -7 45477.2 837.597   1
  -1   2  -8 3483.60 248.491   1
  -1  -2  -8 3943.41 306.834   1
  -1   2  -8 3165.66 241.622   3
  -1  -2  -9 21650.5 747.117   1
  -1   2  -9 20242.8 642.726   1
  -1   2  -9 19750.9 620.578   3
  -1   2 -10 754.042 129.184   3
  -1  -2 -10 926.921 170.262   1
  -1   2 -10 783.751 142.615   1
  -1  -2 -11 5998.91 419.738   1
  -1   2 -11 5965.52 366.053   3
  -1   2 -11 6320.12 410.099   1
  -1   2 -12 311.553 95.7594   3
  -1  -2 -12 387.929 126.986   1
   1  -2  12 442.155 131.356   1
  -1   2 -12 265.770 98.6238   1
  -1   2 -13 1346.73 210.591   1
  -1   2 -13 1256.23 181.404   3
   1  -2  13 1607.79 248.117   1
  -1  -2 -13 1989.00 283.369   1
  -1   2 -14 657.022 160.438   1
  -1   2 -14 510.146 122.186   3
   1  -2  14 614.777 170.913   1
  -1  -2 -14 588.495 169.579   1
  -1   2 -15-51.4749 84.8729   1
  -1  -2 -15-30.2947 102.382   1
   1  -2  15 97.9172 99.6634   1
   1   2  16 15.3674 91.6351   1
   1  -2  16 26.7383 85.4145   1
  -1  -2 -16 100.233 89.3220   1
  -1   2 -16 204.001 134.412   1
  -1   2 -17 310.742 177.569   1
   1   2  17 0.42716 120.232   1
   1  -2  17-1.52732 89.1317   1
  -1  -2 -17-58.4679 120.031   1
  -1   3  17-156.618 121.862   4
   1  -3 -17 136.381 149.464   1
  -1   3  17-80.9892 110.232   1
  -1  -3  17 63.5039 137.041   1
   1   3 -17 126.294 123.331   3
  -1  -3  16 477.029 151.823   4
   1  -3 -16 628.540 185.242   1
  -1  -3  16 549.891 166.683   1
  -1   3  16 324.126 147.731   4
   1   3 -16 279.439 117.947   3
  -1   3  16 511.696 184.998   1
  -1   3  15 877.880 225.773   1
  -1  -3  15 854.785 189.223   4
  -1   3  15 672.426 209.544   4
   1  -3 -15 906.604 225.550   1
  -1  -3  15 1088.69 230.467   1
   1   3 -15 943.833 205.391   3
  -1   3  14-39.0257 109.919   4
  -1  -3  14 29.8896 75.0565   4
  -1   3  14-50.0479 89.2014   1
   1  -3 -14 46.4608 103.300   1
  -1  -3  14 13.1246 96.0593   1
   1   3 -14 4.10532 70.6894   3
  -1  -3  13 115.335 65.6365   4
  -1   3  13 96.4724 98.1901   4
  -1   3  13-4.59882 106.351   1
   1   3 -13 102.763 98.5465   3
  -1  -3  13-11.6343 81.9491   1
   1  -3 -13 45.4925 93.2728   1
  -1  -3  12 70.5163 71.6878   1
  -1   3  12 189.492 120.643   1
   1  -3 -12 90.3708 94.8355   1
  -1  -3  12 154.876 85.4404   4
  -1   3  12 199.183 79.7067   4
   1   3 -12 167.169 85.1156   3
  -1  -3  11 536.441 140.761   1
  -1   3  11 454.101 148.726   4
   1  -3 -11 461.032 140.748   1
  -1  -3  11 307.796 98.4463   4
   1   3 -11 490.617 151.063   3
  -1   3  11 493.946 159.513   1
  -1  -3  10 10078.7 512.048   1
  -1   3  10 9800.52 551.717   1
   1   3 -10 9586.71 525.256   3
  -1  -3  10 8875.09 431.740   4
  -1   3  10 10593.4 578.030   4
   1  -3 -10 9767.02 524.274   1
  -1   3   9 1602.20 219.173   4
  -1  -3   9 1394.86 158.205   4
  -1  -3   9 1506.44 192.761   1
  -1   3   9 1547.73 229.420   1
   1   3  -9 1469.88 204.008   3
   1  -3  -9 1471.01 195.605   1
  -1  -3   8 14676.6 476.953   4
  -1   3   8 16182.0 645.219   4
   1  -3  -8 17198.2 625.920   1
  -1  -3   8 16622.3 572.160   1
  -1   3   8 16223.0 634.749   1
   1   3  -8 15612.9 614.543   3
   1   3  -7 2961.82 284.779   2
  -1  -3   7 2951.83 228.810   1
   1   3  -7 2803.42 252.695   3
   1  -3  -7 2989.36 245.566   1
  -1   3   7 2867.75 268.758   4
  -1  -3   7 2443.15 180.724   4
  -1   3   7 2752.94 257.541   1
  -1   3   6 20351.0 643.544   4
   1   3  -6 19225.8 672.569   2
   1   3  -6 19569.1 638.300   3
  -1  -3   6 20527.8 533.793   1
  -1  -3   6 18984.7 438.801   4
  -1   3   6 19529.8 655.646   2
   1  -3  -6 20210.1 596.492   1
  -1   3   5 9464.45 398.380   1
  -1  -3   5 9411.70 261.156   4
  -1   3   5 11246.6 476.672   2
   1   3  -5 10564.7 461.576   2
   1   3  -5 9983.66 437.641   3
   1  -3  -5 10129.8 390.645   1
  -1   3   5 10284.7 428.301   4
  -1  -3   5 10612.5 351.153   1
   1   3  -4 73089.4 1115.42   2
  -1  -3   4 73837.5 833.963   1
  -1   3   4 74579.2 1073.38   4
   1   3  -4 72045.3 1126.39   3
  -1  -3   4 68981.8 592.544   4
   1  -3  -4 72721.8 971.259   1
  -1   3   4 74798.4 1169.56   2
   1   3  -3 1176.87 135.615   2
  -1   3   3 971.760 114.143   1
   1  -3  -3 1087.31 112.164   1
  -1  -3   3 933.796 85.3462   1
  -1  -3   3 848.481 52.9832   4
  -1   3   3 1087.89 124.784   4
  -1   3   3 1080.66 136.110   2
   1   3  -3 977.895 130.163   3
  -1   3   3 1075.53 110.657   3
  -1   3   2 53867.1 717.940   1
  -1   3   2 58377.4 813.891   4
  -1   3   2 59237.6 965.829   2
   1   3  -2 55482.6 906.062   3
   1   3  -2 59321.1 899.058   2
  -1  -3   2 56419.4 631.737   1
  -1   3   2 57932.8 817.318   3
  -1  -3   1 14212.0 323.177   1
  -1   3   1 14496.9 365.847   4
  -1   3   1 14315.5 465.203   2
  -1   3   1 14928.7 427.806   3
   1   3  -1 15015.7 442.162   3
  -1  -3   1 13704.8 247.331   4
   1   3  -1 14731.1 430.033   2
  -1   3   1 13485.0 308.994   1
  -1   3   0 116318. 1335.48   2
   1   3   0 117251. 1152.90   3
  -1   3   0 115523. 1217.09   3
  -1  -3   0 117592. 992.819   1
   1   3   0 121046. 1219.98   2
  -1  -3   0 115605. 869.122   4
  -1   3   0 117013. 932.571   4
  -1   3  -1 946.820 72.6246   4
  -1  -3  -1 989.055 101.277   1
   1   3   1 922.211 107.915   2
  -1   3  -1 979.252 118.526   3
  -1   3  -1 917.087 123.735   2
   1   3   1 1180.19 108.572   3
   1   3   2 42722.0 777.644   2
  -1   3  -2 40383.7 776.428   3
  -1   3  -2 39843.2 846.005   2
  -1   3  -2 40348.4 475.014   4
   1   3   2 42453.4 583.877   3
  -1  -3  -2 41453.4 696.353   1
  -1   3  -3 12129.2 490.145   2
  -1   3  -3 12279.1 286.659   4
   1   3   3 12660.2 451.499   2
  -1   3  -3 12271.6 435.892   3
  -1  -3  -3 12603.9 408.014   1
  -1  -3  -4 5113.53 276.874   1
  -1   3  -4 4961.22 327.706   2
  -1   3  -4 4995.26 292.096   3
  -1   3  -4 4003.57 152.346   1
  -1   3  -4 4872.78 196.059   4
  -1   3  -5-38.9401 61.2394   2
  -1   3  -5 14.2715 45.5447   3
  -1  -3  -5 2.52226 41.0231   1
  -1   3  -5 35.9331 24.5805   1
  -1   3  -5 59.2040 34.2159   4
  -1   3  -6 49.9687 35.8734   1
  -1  -3  -6 148.184 79.6335   1
  -1   3  -6 27.7419 56.4269   3
  -1   3  -7 97.6631 101.921   2
  -1   3  -7 111.782 46.2049   1
  -1  -3  -7 110.083 56.7971   1
  -1   3  -7 0.31623 46.0431   3
  -1   3  -8 3582.32 240.401   1
  -1   3  -8 3386.82 272.599   3
  -1  -3  -8 3762.69 308.627   1
  -1   3  -9 339.383 82.1151   1
  -1  -3  -9 424.643 109.813   1
   1  -3   9 203.903 64.8696   1
  -1   3  -9 221.758 70.9835   3
  -1  -3 -10 8495.12 503.027   1
  -1   3 -10 7572.88 397.715   1
   1  -3  10 8897.86 457.348   1
  -1   3 -10 8379.28 464.076   3
  -1  -3 -11 3007.23 310.074   1
  -1   3 -11 2538.93 259.983   3
  -1   3 -11 2958.11 264.597   1
   1  -3  11 3298.63 295.089   1
  -1   3 -12 4929.46 378.245   3
  -1   3 -12 4243.44 336.792   1
   1  -3  12 4885.12 393.713   1
  -1  -3 -12 5668.72 451.802   1
   1  -3  13 112.804 73.9422   1
  -1   3 -13 255.087 106.335   1
  -1   3 -13 272.971 105.933   3
  -1  -3 -13 227.439 114.811   1
  -1   3 -14 3995.58 366.294   1
  -1   3 -14 4188.10 371.098   3
   1  -3  14 3890.43 396.716   1
  -1  -3 -14 4798.03 460.462   1
  -1   3 -15 321.595 106.200   3
   1  -3  15 328.628 141.039   1
  -1  -3 -15 282.535 156.177   1
  -1  -3 -16 2009.62 333.244   1
   1  -3  16 1737.32 282.007   1
  -1   4  16 152.922 131.702   1
   1   4 -16 49.0807 72.2448   3
  -1   4  16 161.990 135.923   4
   1  -4 -16-15.6167 92.3736   1
   1  -4 -15 2691.27 356.150   1
   1   4 -15 2604.53 333.033   3
  -1   4  15 2498.98 366.418   1
  -1   4  15 2954.67 389.603   4
   1  -4 -14 734.175 171.837   1
   1   4 -14 1135.55 227.853   3
  -1   4  14 1038.49 235.732   4
  -1   4  14 942.910 221.190   1
  -1  -4  14 871.455 187.261   1
   1   4 -13 8839.62 588.113   3
  -1  -4  13 8457.68 544.323   1
  -1   4  13 8732.37 613.938   1
   1  -4 -13 9299.20 599.215   1
  -1   4  13 8906.33 612.715   4
  -1  -4  12 468.568 136.714   1
   1   4 -12 572.215 166.368   3
  -1   4  12 432.989 151.873   4
  -1   4  12 388.575 160.404   1
   1  -4 -12 365.318 138.294   1
   1  -4 -11 7878.01 504.462   1
  -1  -4  11 8097.75 476.621   1
  -1   4  11 8008.02 541.382   4
  -1  -4  11 7589.85 413.395   4
   1   4 -11 8021.46 525.984   3
  -1   4  11 7777.81 527.321   1
  -1   4  10 1150.98 215.741   4
  -1  -4  10 1277.18 189.114   1
   1   4 -10 1267.68 220.725   3
  -1  -4  10 1011.91 148.305   4
  -1   4  10 982.957 192.787   1
   1  -4 -10 1243.43 196.150   1
   1  -4  -9 10978.2 545.901   1
  -1  -4   9 11009.8 484.512   1
  -1   4   9 11741.1 594.362   4
  -1   4   9 11074.2 571.026   1
  -1   4   9 11241.9 613.578   2
   1   4  -9 11509.0 600.221   3
  -1  -4   9 11317.0 421.587   4
   1   4  -8 2282.47 287.334   2
   1  -4  -8 1944.46 220.840   1
  -1  -4   8 1663.16 144.433   4
  -1   4   8 2102.00 250.620   2
  -1  -4   8 1700.86 179.944   1
  -1   4   8 1805.49 230.652   4
   1   4  -8 2084.82 252.640   3
  -1   4   8 1461.33 194.298   1
  -1   4   7 4572.40 336.594   4
  -1  -4   7 3752.87 187.895   4
  -1   4   7 4820.91 372.621   2
   1   4  -7 4233.27 340.949   3
  -1   4   7 4374.46 323.904   1
   1  -4  -7 4517.34 313.606   1
  -1  -4   7 4180.07 253.345   1
   1   4  -7 4680.47 382.876   2
  -1   4   6 3266.96 292.032   2
  -1  -4   6 2776.37 136.020   4
   1   4  -6 3513.40 300.054   3
  -1  -4   6 3235.42 200.410   1
  -1   4   6 3054.53 262.379   1
   1  -4  -6 3263.19 251.202   1
  -1   4   6 3261.33 273.831   4
   1   4  -6 3304.58 303.987   2
   1   4  -5 1032.37 160.233   2
  -1   4   5 981.025 159.188   2
  -1  -4   5 671.045 47.1687   4
  -1   4   5 856.924 132.321   4
  -1  -4   5 941.873 97.2380   1
   1  -4  -5 1024.04 133.031   1
  -1   4   5 830.621 133.147   1
   1   4  -5 994.212 155.130   3
   1   4  -4 5565.57 356.032   2
   1  -4  -4 5585.64 288.198   1
   1   4  -4 5692.53 353.430   3
  -1   4   4 5833.11 325.266   4
  -1   4   4 5718.56 360.269   2
  -1   4   4 5708.19 270.805   3
  -1  -4   4 5303.48 210.569   1
  -1  -4   3 2863.14 148.073   1
   1  -4  -3 3063.40 195.370   1
  -1   4   3 3363.59 232.432   4
  -1   4   3 3139.49 210.024   3
   1   4  -3 3136.11 255.534   3
  -1   4   3 3308.94 269.452   2
   1   4  -3 3358.81 265.239   2
  -1  -4   2 1193.02 97.6824   1
  -1   4   2 1345.79 166.236   2
  -1   4   2 1446.01 139.055   4
   1   4  -2 1263.68 152.702   2
  -1   4   2 1164.31 116.030   1
   1   4  -2 1446.33 169.580   3
  -1   4   2 1419.13 144.678   3
  -1   4   1 10013.4 287.945   1
  -1  -4   1 10233.8 305.642   1
   1   4  -1 11175.5 446.171   2
  -1   4   1 11182.0 346.228   4
  -1   4   1 11143.7 413.188   3
   1   4  -1 11353.5 434.363   3
  -1   4   1 11511.1 482.364   2
   1   4   0 530.260 91.7072   3
  -1  -4   0 591.116 78.5413   1
   1   4   0 650.454 109.733   2
  -1   4   0 475.893 54.1465   4
  -1   4   0 579.317 125.011   2
  -1   4   0 566.231 57.2763   1
  -1   4   0 745.656 117.903   3
  -1   4  -1 48521.7 558.264   4
  -1   4  -1 48279.7 916.655   3
  -1  -4  -1 48346.7 747.993   1
   1   4   1 52154.9 836.786   3
   1   4   1 51671.6 951.850   2
  -1   4  -1 49809.3 1042.31   2
  -1   4  -2 4736.79 323.272   2
  -1   4  -2 4390.26 152.968   4
   1   4   2 5084.93 306.254   2
  -1   4  -2 4503.03 289.127   3
   1   4   2 5240.83 244.105   3
  -1  -4  -2 4636.32 245.325   1
  -1   4  -3 27984.8 401.445   4
   1   4   3 30172.1 761.774   2
  -1   4  -3 29575.6 760.391   3
  -1   4  -3 31493.8 880.578   2
  -1  -4  -3 31275.1 702.355   1
   1   4   3 29854.5 536.720   3
  -1   4  -4 1323.55 185.899   2
   1   4   4 1593.89 186.792   2
  -1   4  -4 1195.57 158.253   3
  -1  -4  -4 1234.08 143.896   1
   1   4   4 1422.47 106.325   3
  -1   4  -4 1148.79 85.8461   4
  -1  -4  -5 15978.6 549.108   1
  -1   4  -5 15050.4 652.968   2
  -1   4  -5 14178.9 562.725   3
   1   4   5 15646.3 598.093   2
  -1   4  -6 763.495 136.477   3
  -1  -4  -6 1055.35 151.761   1
   1  -4   6 889.168 90.5178   1
  -1   4  -6 1017.95 180.539   2
   1   4   6 1090.47 171.031   2
  -1  -4  -7 30907.6 857.183   1
   1   4   7 28067.2 864.655   2
  -1   4  -7 29186.2 858.293   3
  -1   4  -7 29300.0 1010.16   2
   1  -4   8 1370.28 142.340   1
  -1   4  -8 1802.34 287.600   2
  -1  -4  -8 1672.40 207.274   1
  -1   4  -8 1416.83 195.090   3
  -1   4  -9 5252.37 383.498   3
  -1  -4  -9 5764.41 410.398   1
  -1  -4 -10 1967.54 258.062   1
  -1   4 -10 1572.58 219.726   3
   1  -4  10 1427.28 184.052   1
  -1  -4 -11 15003.0 717.967   1
  -1   4 -11 14247.9 672.186   3
  -1   4 -12 765.748 169.472   3
  -1  -4 -12 1110.78 211.911   1
  -1  -4 -13 1465.54 248.890   1
  -1   4 -13 674.576 143.304   3
  -1  -4 -14-13.5597 96.1985   1
  -1   4 -14-66.9942 102.372   3
  -1  -4 -15 96.3404 102.542   1
  -1   4 -15-61.8626 82.0610   3
   1  -5 -15 142.635 125.077   1
  -1   5  15-72.0663 126.038   1
  -1   5  15 50.0871 104.820   4
   1   5 -15 121.774 112.683   3
   1   5 -14-160.349 115.809   3
  -1   5  14-131.033 123.670   4
   1  -5 -14-77.9449 90.6345   1
  -1   5  14-105.839 124.330   1
   1  -5 -13 813.949 199.412   1
  -1   5  13 381.410 153.811   1
  -1   5  13 647.943 213.557   2
  -1   5  13 280.122 138.754   4
   1   5 -13 618.321 197.561   3
   1  -5 -12 324.118 111.961   1
  -1   5  12 294.438 127.999   1
  -1   5  12 492.540 165.061   2
  -1   5  12 289.608 121.938   4
   1   5 -12 276.036 110.084   3
  -1   5  11 549.926 145.747   4
   1  -5 -11 656.890 159.341   1
  -1   5  11 453.910 138.650   1
   1   5 -11 652.595 188.316   3
  -1   5  11 736.354 206.506   2
  -1   5  10 576.085 166.901   1
  -1   5  10 571.837 153.761   4
   1  -5 -10 517.373 134.304   1
  -1   5  10 598.357 175.951   2
   1   5 -10 573.380 152.707   3
   1   5  -9 2903.39 368.510   2
  -1   5   9 2623.78 322.043   2
   1   5  -9 2487.57 301.546   3
   1  -5  -9 2324.45 256.610   1
  -1   5   9 2186.02 271.237   4
  -1   5   9 2143.30 266.419   1
   1   5  -8 4560.29 421.945   2
  -1   5   8 4061.47 346.771   1
  -1   5   8 4361.43 361.251   4
  -1  -5   8 3550.48 234.649   1
   1   5  -8 4464.04 392.277   3
   1  -5  -8 4392.99 335.876   1
  -1   5   8 4188.73 374.695   2
  -1  -5   7 384.679 66.8363   1
  -1   5   7 486.775 123.554   4
   1   5  -7 555.938 153.915   2
  -1   5   7 447.329 127.120   1
  -1   5   7 686.714 158.290   2
   1  -5  -7 580.598 127.554   1
   1   5  -7 460.027 148.691   3
  -1   5   6 11271.6 582.393   2
  -1  -5   6 9757.98 308.561   1
   1   5  -6 11751.3 587.070   3
   1   5  -6 11218.9 597.021   2
   1  -5  -6 11525.0 484.752   1
  -1   5   6 11771.0 538.576   4
  -1  -5   5 1361.67 103.929   1
  -1   5   5 1563.71 193.215   4
   1  -5  -5 1639.47 173.072   1
   1   5  -5 1701.86 221.219   2
  -1   5   5 1628.64 158.709   3
  -1   5   5 1612.70 183.976   1
   1   5  -5 1743.39 224.127   3
  -1   5   5 1544.85 207.446   2
  -1   5   4 33666.3 822.157   4
  -1   5   4 31510.8 920.435   2
  -1   5   4 30271.0 706.823   3
   1   5  -4 32465.4 942.361   2
  -1   5   4 28153.1 710.408   1
   1   5  -4 31851.7 901.424   3
   1  -5  -4 29816.8 690.142   1
  -1  -5   3 31.0191 44.6554   1
  -1   5   3 96.1884 50.4170   4
  -1   5   3 113.048 51.3581   1
  -1   5   3 249.439 76.6906   3
   1   5  -3 17.6025 91.8224   2
   1   5  -3 339.289 103.608   3
  -1   5   3 142.007 76.9028   2
   1  -5  -3 313.370 68.0350   1
  -1   5   2 21191.4 552.892   4
  -1   5   2 19942.5 600.867   3
   1   5  -2 20913.3 678.683   3
   1   5  -2 20612.3 706.482   2
  -1   5   2 19854.8 719.446   2
  -1   5   1 12948.2 491.551   3
  -1   5   1 12817.0 387.142   4
  -1  -5   1 11053.2 323.674   1
   1   5  -1 12615.8 504.704   3
  -1   5   1 12303.2 557.296   2
  -1   5   1 11095.8 320.470   1
   1   5  -1 12574.1 546.563   2
   1   5   0 13180.1 548.492   2
  -1   5   0 12762.9 349.507   4
  -1  -5   0 11379.4 352.946   1
  -1   5   0 12432.4 495.119   3
  -1   5   0 12895.5 579.772   2
   1   5   0 13201.6 489.314   3
  -1   5  -1-41.8849 36.1242   4
   1   5   1-8.94295 39.9746   3
  -1  -5  -1 39.2987 34.7073   1
   1   5   1 35.2172 71.8928   2
  -1   5  -1 59.9933 60.6632   3
  -1   5  -1 11.8775 79.8286   2
  -1   5  -2 19954.8 746.728   2
  -1   5  -2 18347.8 639.604   3
  -1  -5  -2 19351.2 547.911   1
   1   5   2 19525.7 671.964   2
   1   5   2 19070.1 530.259   3
  -1  -5  -3 2201.17 197.225   1
  -1   5  -3 2499.10 278.281   2
  -1   5  -3 2268.05 228.369   3
   1   5   3 2359.68 175.137   3
   1   5   3 2622.10 249.040   2
   1   5   4 895.555 109.869   3
   1   5   4 1069.71 168.366   2
  -1   5  -4 485.149 116.165   3
  -1  -5  -4 609.782 112.945   1
  -1   5  -4 806.313 174.375   2
  -1   5  -5 17.0082 70.5855   3
   1   5   5 63.0757 36.5511   3
   1   5   5 13.6434 77.9397   2
  -1  -5  -5-9.92424 69.9228   1
  -1   5  -6 310.788 126.721   2
  -1  -5  -6 325.578 93.4190   1
   1   5   6 497.445 139.386   2
  -1   5  -7 929.997 170.605   3
  -1  -5  -7 1018.68 157.331   1
  -1   5  -7 1125.16 229.228   2
   1   5   7 1193.57 194.030   2
  -1   5  -8 8478.24 620.361   2
  -1   5  -8 7477.51 483.529   3
  -1  -5  -8 8489.58 487.864   1
   1   5   8 7763.85 511.665   2
  -1   5  -9 294.323 104.265   3
  -1  -5  -9 284.383 76.0330   1
   1   5   9 454.389 138.399   2
   1   5  10 4226.81 416.797   2
  -1  -5 -10 3779.66 355.621   1
  -1   5 -10 3370.03 346.235   3
  -1   5 -11 384.817 122.778   3
   1   5  11 1110.30 249.065   2
  -1  -5 -11 871.109 174.734   1
  -1  -5 -12 2573.36 321.835   1
  -1   5 -12 2111.12 292.475   3
   1   5  12 2161.48 332.235   2
  -1  -5 -13 602.065 182.428   1
   1   5  13 829.819 251.252   2
  -1   5 -13 371.979 155.517   3
  -1   5 -14 2932.87 356.668   3
   1   5  14 3270.33 425.084   4
  -1  -5 -14 3224.32 394.862   1
   1   6 -14 1061.91 248.363   3
   1  -6 -14 1103.36 241.088   1
  -1   6  14 938.508 212.908   1
  -1   6  14 723.194 234.570   2
  -1   6  14 926.938 227.402   4
  -1   6  13 2095.50 319.776   1
  -1   6  13 2564.22 367.089   2
   1   6 -13 2591.11 356.403   3
   1  -6 -13 2625.29 336.343   1
  -1   6  13 2356.12 343.428   4
  -1   6  12 350.542 139.949   4
   1   6 -12 575.574 178.537   3
  -1   6  12 493.877 173.789   1
  -1   6  12 511.736 182.954   2
   1  -6 -12 717.001 187.208   1
  -1   6  11 4273.74 416.326   1
   1   6 -11 4946.66 468.531   3
  -1   6  11 4407.62 430.786   4
  -1   6  11 4008.55 432.401   2
   1  -6 -11 4205.31 389.079   1
  -1   6  10 388.259 137.245   1
   1   6 -10 581.437 195.981   3
  -1   6  10 610.214 183.957   2
   1  -6 -10 468.020 140.190   1
   1   6 -10 874.719 253.960   2
  -1   6  10 473.909 160.544   4
  -1   6   9 3951.72 372.889   4
  -1   6   9 3477.10 372.493   2
   1  -6  -9 3445.22 328.721   1
  -1   6   9 3451.69 342.865   1
   1   6  -9 4259.38 414.841   3
   1   6  -9 3846.14 425.470   2
  -1   6   8 722.670 156.331   4
   1   6  -8 1218.09 256.739   2
  -1   6   8 644.907 144.469   2
   1  -6  -8 946.407 172.483   1
  -1   6   8 717.469 155.460   1
   1   6  -8 1080.69 221.483   3
  -1   6   7 4120.69 362.842   4
  -1   6   7 4452.86 401.542   2
  -1   6   7 4074.53 334.599   1
   1   6  -7 4396.56 397.001   3
   1  -6  -7 4342.65 330.319   1
   1   6  -7 4155.86 413.075   2
   1   6  -6 945.926 184.482   3
   1   6  -6 636.096 130.380   2
  -1   6   6 896.515 171.992   4
  -1   6   6 667.773 135.128   1
  -1   6   6 1056.04 212.301   2
   1  -6  -6 1159.03 165.499   1
   1   6  -5 879.553 177.733   3
  -1   6   5 935.355 193.987   2
   1  -6  -5 469.122 87.7237   1
  -1   6   5 831.010 147.091   4
  -1   6   5 630.697 126.585   1
  -1   6   5 1138.39 157.125   3
   1   6  -5 650.109 123.900   2
  -1   6   4 416.609 136.968   2
   1   6  -4 334.804 120.830   3
   1  -6  -4 210.379 55.5987   1
   1   6  -4 318.806 128.036   2
  -1   6   4 189.876 75.1418   1
  -1   6   4 217.906 79.4506   4
  -1   6   4 384.151 96.3341   3
   1   6  -3 330.346 100.697   3
  -1   6   3 110.010 70.7893   3
  -1   6   3 100.754 47.6044   1
  -1   6   3 347.541 123.759   2
  -1   6   3 274.441 83.4923   4
   1   6  -3 327.483 116.454   2
   1   6  -2 1.60774 55.1450   2
   1   6  -2-3.38671 65.4767   3
  -1   6   2 64.8075 68.3296   2
  -1  -6   2-29.2982 41.6439   1
  -1   6   2-44.3958 53.7803   4
  -1   6   2 7.48793 48.0078   1
  -1   6   1-29.9451 55.3305   4
   1   6  -1-9.92578 66.5426   3
  -1   6   1-152.369 112.012   3
  -1   6   1 40.2053 76.6395   2
   1   6  -1 73.8916 60.3511   2
  -1  -6   1 27.8032 36.1557   1
  -1   6   0 4507.54 326.912   3
  -1  -6   0 4589.56 242.229   1
   1   6   0 4765.14 325.092   3
   1   6   0 5088.83 391.196   2
  -1   6   0 5053.18 419.411   2
  -1   6  -1 8894.47 469.475   3
  -1   6  -1 9860.31 575.907   2
   1   6   1 9003.59 422.984   3
   1   6   1 9063.41 517.949   2
  -1  -6  -1 8890.89 359.202   1
   1   6   1 8513.79 351.304   4
  -1   6  -2 1156.09 172.094   3
   1   6   2 1431.50 166.845   3
  -1   6  -2 1498.02 229.139   2
   1   6   2 1292.49 188.973   2
  -1  -6  -2 1476.18 158.574   1
  -1  -6  -3 8584.59 402.087   1
  -1   6  -3 9961.16 608.312   2
   1   6   3 8987.33 389.927   3
  -1   6  -3 8835.82 494.763   3
   1   6   3 9148.89 517.873   2
  -1   6  -4 1893.10 284.030   2
   1   6   4 1794.04 227.427   2
  -1  -6  -4 1964.86 203.688   1
  -1   6  -4 1863.07 230.316   3
   1   6   4 1816.39 167.924   3
  -1  -6  -5 14973.8 590.920   1
  -1   6  -5 13301.5 723.974   2
   1   6   5 14439.1 657.555   2
  -1   6  -5 14416.1 665.584   3
   1   6   6 4461.78 367.713   2
  -1   6  -6 4465.74 434.065   2
  -1  -6  -6 4982.40 356.979   1
  -1   6  -6 4490.98 382.350   3
  -1  -6  -7 9391.81 504.080   1
   1   6   7 8695.31 540.445   2
  -1   6  -7 9260.85 652.447   2
  -1   6  -7 8967.90 550.829   3
  -1   6  -8 563.631 152.587   3
   1   6   8 611.787 140.494   2
  -1   6  -8 892.411 236.032   2
  -1  -6  -8 545.328 132.927   1
  -1   6  -9 2400.34 397.918   2
  -1  -6  -9 2160.98 267.172   1
   1   6   9 1806.53 272.056   2
  -1   6  -9 1862.82 269.502   3
  -1  -6 -10 1856.24 266.227   1
   1   6  10 1510.90 254.555   2
  -1   6 -10 1411.65 235.132   3
  -1   6 -10 2233.70 388.887   2
  -1   6 -11 308.039 130.555   3
   1   6  11 505.281 178.508   2
  -1  -6 -11 717.422 178.819   1
  -1   6 -12 858.066 194.614   3
   1   6  12 777.313 211.962   2
  -1  -6 -12 1212.30 229.373   1
   1   6  12 841.715 201.164   4
  -1  -6 -13-111.330 125.935   1
  -1   6 -13 83.9897 85.7360   3
   1   6  13-13.5541 84.4922   4
   1   6  13 84.7351 115.145   2
   1   7 -12-88.7450 96.3918   3
  -1   7  12-60.0005 105.677   4
  -1   7  12 204.414 113.935   2
  -1   7  12-26.8141 96.1514   1
   1  -7 -12-135.025 108.957   1
   1   7 -11 351.069 156.994   3
  -1   7  11-30.4866 144.741   4
   1  -7 -11 377.119 131.923   1
  -1   7  11 190.447 95.0088   1
  -1   7  11 118.203 86.7911   2
   1   7 -10 172.460 110.176   3
  -1   7  10-119.510 127.027   4
   1  -7 -10-28.1718 103.847   1
  -1   7  10-33.3763 106.454   1
  -1   7  10-174.227 156.143   2
   1   7  -9 916.844 222.634   3
  -1   7   9 754.086 171.161   1
  -1   7   9 878.709 189.590   4
   1   7  -9 1066.26 271.346   2
   1  -7  -9 959.667 180.567   1
  -1   7   9 708.276 189.587   2
   1   7  -8 2557.08 332.366   3
   1  -7  -8 2415.99 261.830   1
  -1   7   8 2442.99 327.618   2
   1   7  -8 2315.08 347.228   2
  -1   7   8 2423.33 301.254   4
  -1   7   8 1866.36 246.626   1
  -1   7   7 2937.15 355.186   2
   1   7  -7 2712.71 354.278   2
  -1   7   7 2388.96 276.634   1
   1  -7  -7 2626.61 261.790   1
   1   7  -7 2912.76 355.593   3
  -1   7   7 2723.99 293.733   4
   1   7  -6 6485.00 524.859   2
   1   7  -6 7159.36 520.226   3
  -1   7   6 7172.57 531.737   2
  -1   7   6 6992.42 459.609   4
   1  -7  -6 6403.72 384.643   1
  -1   7   5 4462.35 317.614   3
  -1   7   5 4428.92 413.525   2
   1   7  -5 4637.19 450.216   2
   1   7  -5 4473.50 401.607   3
   1   7  -4 6713.21 532.799   2
  -1   7   4 6187.22 477.435   2
   1   7  -4 6260.12 460.565   3
  -1   7   4 5854.95 369.520   3
   1   7  -3 5213.24 456.287   2
   1   7  -3 5173.79 406.677   3
  -1   7   3 4807.95 334.642   3
  -1   7   3 5506.83 451.507   2
   1   7  -2 7278.95 524.539   2
  -1   7   2 6465.51 404.245   3
  -1   7   2 7413.31 532.363   2
   1   7  -2 7548.71 467.171   3
  -1   7   1 240.707 61.0130   3
  -1   7   1 431.750 139.779   2
   1   7  -1 522.140 127.410   3
   1   7  -1 278.784 93.5602   2
  -1   7   0 1359.13 186.365   3
   1   7   0 1218.54 193.771   2
   1   7   0 1598.21 209.238   3
  -1   7   0 1436.13 240.086   2
  -1   7  -1 3952.38 404.557   2
   1   7   1 3967.38 374.658   2
  -1   7  -1 3692.78 324.640   3
   1   7   1 3786.41 302.250   3
   1   7   2 1023.61 152.991   3
  -1   7  -2 1030.27 180.036   3
  -1   7  -2 1075.05 210.866   2
  -1  -7  -2 908.532 133.040   1
   1   7   2 1000.77 185.738   2
  -1   7  -3 1223.41 197.620   3
   1   7   3 1783.83 247.429   2
   1   7   3 1550.10 183.826   3
  -1  -7  -3 1284.39 163.551   1
  -1   7  -3 1821.70 288.551   2
  -1   7  -4-35.8951 90.9423   3
  -1   7  -4 267.507 118.648   2
   1   7   4 258.270 120.543   2
  -1  -7  -4 133.178 70.5557   1
  -1   7  -5 1206.92 207.523   3
   1   7   5 1425.32 236.668   2
  -1  -7  -5 1306.99 184.144   1
  -1   7  -5 1200.47 222.812   2
  -1   7  -6-10.7353 92.2587   3
  -1  -7  -6 139.536 94.3305   1
  -1   7  -6 138.523 138.592   2
   1   7   6 274.174 122.776   2
   1   7   6 151.397 100.195   4
  -1   7  -7 16.0479 136.033   2
  -1  -7  -7-17.6054 70.4630   1
   1   7   7 66.4861 92.4946   2
   1   7   7 45.7966 81.7816   4
  -1   7  -7-166.763 131.499   3
  -1   7  -8 847.482 246.339   2
   1   7   8 673.395 172.014   2
   1   7   8 933.770 199.753   4
  -1  -7  -8 518.164 142.551   1
  -1   7  -8 408.268 159.295   3
  -1   7  -9 517.709 160.636   3
   1   7   9 396.017 138.421   4
  -1   7  -9 428.114 259.679   2
  -1  -7  -9 444.520 138.433   1
   1   7   9 454.442 140.750   2
   1   7  10 2484.56 341.307   4
  -1   7 -10 2845.67 462.452   2
  -1   7 -10 2384.89 335.165   3
   1   7  10 2155.20 314.027   2
  -1  -7 -10 2745.51 321.405   1
  -1   7 -11 493.207 168.172   3
  -1   7 -11 724.641 270.498   2
   1   7  11 324.462 132.618   4
   1   7  11 389.668 165.517   2
  -1  -7 -11 582.351 165.587   1
   1   8 -10 415.494 165.896   3
   1   8 -10 592.103 238.953   2
  -1   8  10 182.811 105.273   2
   1   8  -9 1349.14 267.592   3
   1   8  -9 1413.78 315.006   2
  -1   8   9 1017.57 222.605   2
   1   8  -8 227.017 132.988   3
   1   8  -8 388.894 198.423   2
   1   8  -7 411.956 150.695   3
   1   8  -7 484.590 172.133   2
   1   8  -6-88.0095 112.138   3
   1   8  -6-235.896 188.571   2
   1   8  -5 142.689 101.933   3
   1   8  -5-87.7401 145.775   2
   1   8  -4 592.140 151.979   3
  -1   8   4 891.845 165.997   3
   1   8  -4 609.799 196.965   2
   1   8  -3 1352.29 268.524   2
   1   8  -3 1178.26 204.489   3
  -1   8   3 1120.46 176.308   3
   1   8  -2-17.8301 77.0351   3
   1   8  -2-31.3196 146.421   2
  -1   8   2-60.8871 100.425   3
   1   8  -1 583.354 144.302   3
   1   8  -1 664.595 179.710   2
  -1   8   1 467.344 146.237   2
  -1   8   1 499.870 108.700   3
  -1   8   0 3040.61 306.174   3
   1   8   0 3208.25 374.552   2
   1   8   0 3166.73 310.988   3
  -1   8  -1 3335.31 331.387   3
   1   8   1 3474.10 320.010   3
  -1   8  -2 795.867 209.798   2
   1   8   2 1304.21 192.281   3
  -1   8  -2 1175.37 206.779   3
  -1   8  -3 6303.06 581.490   2
   1   8   3 5598.46 478.343   2
  -1   8  -3 6526.12 490.474   3
  -1   8  -4 2821.51 390.690   2
   1   8   4 2551.59 323.314   2
  -1   8  -4 2789.84 333.387   3
  -1   8  -5 4875.04 447.767   3
  -1   8  -5 3834.68 453.657   2
   1   8   5 3706.39 395.155   2
  -1   8  -6 4230.42 427.390   3
   1   8   6 3607.69 389.174   2
  -1   8  -6 3221.63 427.044   2
  -1  -8  -7 2043.23 260.904   1
  -1   8  -7 1576.39 316.170   2
   1   8   7 1960.23 295.384   2
  -1   8  -7 1994.92 306.547   3
  -1   8  -8 1376.68 265.249   3
  -1   8  -8 1550.75 333.899   2
  -1  -8  -8 1545.08 227.021   1
   1   8   8 1304.13 257.603   2
  -1   8  -9 854.846 213.530   3
   1   8   9 899.572 228.683   2
  -1   8  -9 809.283 270.359   2
  -1  -8  -9 562.162 155.973   1
   1   9  -6 1058.86 228.036   3
   1   9  -5 1805.51 296.958   3
   1   9  -4 2108.40 354.057   2
   1   9  -4 2183.98 308.931   3
  -1   9   3 2101.11 264.449   3
   1   9  -3 2541.63 327.564   3
  -1   9   2 2795.02 313.310   3
   1   9  -2 3110.47 350.346   3
  -1   9   1 2557.95 302.489   3
   1   9  -1 2952.90 329.555   3
   1   9   0 1337.08 223.500   3
  -1   9   0 998.624 188.635   3
   1   9   1 528.197 140.290   3
  -1   9  -1 255.835 94.1841   3
  -1   9  -2 548.099 152.287   3
  -1   9  -3 221.955 93.3133   3
  -1   9  -4-44.8160 91.9594   3
  -1   9  -5-39.7899 161.705   2
  -1   9  -5 50.8343 88.6013   3
  -2   0  18 64.5492 100.869   4
  -2   0  18-39.2274 110.975   1
  -2   0  16 221.326 133.246   1
  -2   0  16 328.914 158.811   4
  -2   0  14 1414.64 239.140   4
  -2   0  14 1450.03 266.447   1
   2   0 -14 1198.58 182.309   3
   2   0 -12 9309.57 478.326   3
  -2   0  12 10761.6 630.845   1
  -2   0  12 10595.5 584.756   4
  -2   0  10 37424.3 1003.13   4
   2   0 -10 34639.9 865.565   3
  -2   0  10 36598.9 1047.70   1
  -2   0   8 33105.6 866.654   4
   2   0  -8 30284.3 772.325   3
  -2   0   8 31174.4 867.722   1
  -2   0   6 33140.2 752.307   4
  -2   0   6 34976.1 807.622   1
  -2   0   4 5208.36 285.418   1
  -2   0   4 4847.05 262.895   4
  -2   0   2 158400. 1305.93   4
  -2   0   2 155129. 1331.76   1
  -2   0   0 11216.2 326.491   1
  -2   0   0 11029.3 337.979   4
  -2   0  -2 1802.49 148.236   1
  -2   0  -2 1991.66 156.839   4
  -2   0  -4 8545.51 349.559   1
  -2   0  -4 9017.08 364.357   4
  -2   0  -6 37160.0 816.576   1
  -2   0  -6 34043.4 604.564   3
  -2   0  -6 35455.3 818.459   4
  -2   0  -8 6377.41 381.554   1
  -2   0  -8 6650.88 294.917   3
  -2   0 -10 26999.7 627.046   3
  -2   0 -10 31897.2 945.628   1
  -2   0 -12 14373.9 699.807   1
  -2   0 -14 6953.99 530.757   1
  -2   0 -16 796.579 203.333   1
  -2  -1  18 38.8619 115.700   4
  -2   1  18-17.6454 95.8371   4
  -2   1  18 246.572 169.639   1
  -2  -1  18 199.197 141.638   1
  -2  -1  17 1735.91 306.910   4
  -2   1  17 1791.65 321.174   4
  -2   1  17 1812.43 325.559   1
  -2  -1  17 2177.88 352.077   1
  -2   1  16-21.2447 107.761   4
  -2   1  16 156.792 120.687   1
  -2  -1  16 138.614 125.776   1
  -2  -1  16 166.300 124.017   4
  -2  -1  15 6068.89 510.551   4
  -2   1  15 6355.33 535.808   4
  -2   1  15 6780.30 581.210   1
  -2  -1  15 6859.68 571.624   1
   2   1 -15 5714.84 426.996   3
  -2  -1  14 319.578 132.234   4
  -2   1  14 239.964 127.029   4
   2   1 -14 302.861 107.069   3
  -2   1  14 280.678 160.117   1
  -2  -1  14 316.597 125.016   1
  -2   1  13 2975.48 336.732   4
  -2  -1  13 2971.07 329.646   4
   2  -1 -13 2602.45 241.312   3
  -2   1  13 3174.45 363.840   1
  -2  -1  13 3434.49 370.074   1
   2   1 -13 2621.26 274.514   3
  -2  -1  12 123.967 100.047   4
  -2   1  12-39.0495 83.3153   4
  -2   1  12 128.329 138.580   1
  -2  -1  12 19.0705 76.4228   1
   2   1 -12-9.81286 63.2183   3
   2  -1 -12-23.0316 47.2453   3
  -2  -1  11 5209.40 395.494   4
  -2   1  11 5354.09 410.634   4
   2  -1 -11 4748.88 317.158   3
  -2   1  11 5370.91 434.511   1
  -2  -1  11 5461.74 422.302   1
   2   1 -11 5122.21 365.949   3
  -2  -1  10 65.3923 59.3527   4
  -2   1  10 102.317 95.5103   4
   2  -1 -10-16.5405 51.8451   3
   2   1 -10 58.2065 60.2349   3
  -2   1  10 135.349 101.411   1
  -2  -1  10 6.31554 76.1092   1
  -2  -1   9 2392.07 241.180   4
  -2   1   9 2430.76 255.701   4
   2   1  -9 2272.17 232.353   3
  -2   1   9 2494.90 270.576   1
  -2  -1   9 2020.33 235.576   1
  -2  -1   8-41.1477 65.6489   4
  -2   1   8 12.6017 55.6370   4
  -2  -1   8-49.2969 74.2821   1
  -2   1   8-15.7880 60.8910   1
   2   1  -8-19.9538 50.8938   3
  -2  -1   7 3573.63 276.718   1
  -2  -1   7 3219.66 242.938   4
  -2   1   7 3384.89 275.022   1
   2   1  -7 3724.77 287.580   3
  -2   1   7 3647.06 280.655   4
  -2  -1   6 492.236 91.5157   4
  -2   1   6 588.584 116.542   4
  -2   1   6 492.507 109.688   1
   2   1  -6 496.922 117.913   3
  -2  -1   6 553.705 116.763   1
  -2   1   5 325.489 94.4386   4
  -2  -1   5 273.347 66.6994   4
  -2   1   5 351.553 111.025   1
  -2  -1   5 357.709 98.9454   1
  -2  -1   4 19479.7 485.963   4
  -2   1   4 19376.9 540.165   4
  -2   1   4 19946.2 548.720   1
  -2  -1   4 19641.9 541.732   1
  -2  -1   3 110066. 1097.83   4
  -2  -1   3 111593. 1194.69   1
  -2   1   3 110116. 1194.76   1
  -2   1   3 109524. 1200.62   4
  -2   1   2 3611.31 221.366   4
  -2  -1   2 4089.65 247.081   1
  -2  -1   2 3908.39 214.838   4
  -2   1   2 3386.99 206.380   1
  -2  -1   1 82809.2 884.736   4
  -2   1   1 81061.9 882.610   1
  -2   1   1 82592.9 941.374   4
  -2  -1   1 84340.4 955.892   1
  -2  -1   0 35.2109 51.3966   4
  -2   1   0 51.7739 56.3157   1
  -2  -1   0-9.71890 45.1835   1
  -2   1   0 12.6548 50.7494   4
  -2   1  -1 87814.4 867.558   1
  -2  -1  -1 90955.0 1004.51   1
  -2  -1  -1 90080.9 969.234   4
  -2  -1  -2 11663.6 377.731   1
  -2   1  -2 11164.3 322.949   1
  -2   1  -2 11170.8 349.811   3
  -2   1  -2 11044.2 348.788   4
  -2  -1  -2 10945.5 372.164   4
  -2  -1  -3 87295.3 1107.36   1
  -2   1  -3 88560.0 1165.62   2
  -2   1  -3 88362.6 1063.09   4
  -2  -1  -3 91369.0 1117.39   4
  -2   1  -3 89707.4 975.006   1
  -2   1  -3 88841.8 1031.33   3
  -2   1  -4 8358.95 324.739   1
  -2  -1  -4 8356.71 361.229   1
  -2  -1  -4 8321.32 363.355   4
  -2   1  -4 8212.92 342.274   4
  -2   1  -4 7777.29 319.645   3
  -2  -1  -5 15632.1 526.995   1
  -2   1  -5 14165.0 447.410   1
  -2   1  -5 14824.8 485.099   4
  -2   1  -5 13657.0 440.350   3
  -2  -1  -5 15831.6 531.384   4
  -2   1  -6 1125.63 141.083   1
  -2  -1  -6 1361.43 168.229   1
  -2  -1  -6 1127.87 157.353   4
  -2   1  -6 1058.07 122.833   3
  -2   1  -6 1132.35 148.111   4
  -2   1  -7 28100.9 759.975   4
  -2   1  -7 28664.4 741.776   1
  -2  -1  -7 27503.8 782.358   4
  -2  -1  -7 29031.1 800.526   1
  -2   1  -7 27644.6 659.638   3
  -2   1  -8 34.2029 36.8137   3
  -2   1  -8 68.1461 52.6996   1
  -2   1  -8 45.5992 54.0918   4
  -2  -1  -8 34.5041 67.5148   1
  -2  -1  -9 5562.45 379.645   1
  -2   1  -9 5094.14 360.382   1
  -2   1  -9 5305.66 319.345   3
  -2   1 -10-34.8224 66.5577   3
  -2   1 -10 94.9410 58.2778   1
  -2  -1 -10-12.5586 65.0538   1
  -2  -1 -11 401.918 154.459   1
  -2   1 -11 617.951 184.950   1
  -2   1 -11 369.343 116.144   3
  -2   1 -12 78.0784 73.2261   1
  -2  -1 -12 202.682 94.6975   1
  -2  -1 -13 9.02726 140.860   1
  -2   1 -13 394.824 159.561   1
  -2  -1 -14 740.481 192.417   1
  -2   1 -14 886.075 197.216   1
  -2   1 -15 1444.75 271.561   1
  -2  -1 -15 1611.97 289.000   1
  -2   1 -16-60.5852 117.304   1
  -2  -1 -16-28.8957 101.379   1
  -2   2  17-177.144 162.239   4
  -2   2  17-90.7022 103.965   1
  -2  -2  17 261.882 154.584   1
  -2  -2  17-223.606 169.308   4
   2   2 -17-38.6663 89.2577   3
  -2  -2  16 254.409 146.294   1
  -2  -2  16 358.026 139.122   4
  -2   2  16 174.711 124.329   4
  -2   2  16 363.476 188.058   1
   2   2 -16 283.511 117.925   3
  -2   2  15 312.909 171.162   1
  -2   2  15 117.600 89.3372   4
  -2  -2  15 196.436 151.304   1
  -2  -2  15-31.6941 126.331   4
   2   2 -15 451.973 139.388   3
  -2  -2  14 170.880 79.9788   4
   2   2 -14 338.542 122.159   3
  -2   2  14 359.049 135.476   4
  -2  -2  14 472.181 158.061   1
  -2   2  14 306.758 144.136   1
  -2  -2  13-212.386 140.879   4
  -2   2  13-60.2121 108.570   4
  -2   2  13 173.054 112.371   1
  -2  -2  13 4.32038 104.010   1
   2   2 -13 114.547 80.9581   3
   2   2 -12 6405.23 437.962   3
  -2  -2  12 6459.84 441.296   4
  -2   2  12 6683.14 484.120   4
  -2  -2  12 7164.89 507.772   1
  -2   2  12 6998.27 514.598   1
  -2  -2  11 2268.47 276.942   1
  -2   2  11 1881.63 265.967   1
  -2  -2  11 1784.77 209.102   4
   2   2 -11 1924.67 244.659   3
  -2   2  11 2160.99 265.557   4
  -2  -2  10 10337.6 502.788   4
  -2   2  10 10980.5 571.913   4
  -2  -2  10 11313.2 574.344   1
   2   2 -10 10169.6 522.901   3
  -2   2  10 11303.7 592.667   1
  -2  -2   9 1033.53 147.574   4
  -2   2   9 1100.73 180.096   4
  -2   2   9 1125.67 192.070   1
   2   2  -9 1063.47 178.417   3
  -2  -2   9 1143.03 184.023   1
  -2   2   8 29970.4 875.135   4
  -2  -2   8 28848.7 730.152   4
  -2   2   8 29467.2 864.658   1
  -2  -2   8 30539.9 846.712   1
   2   2  -8 28531.9 821.577   3
  -2   2   7 493.573 130.971   4
  -2   2   7 317.204 105.561   1
   2   2  -7 365.302 108.626   3
  -2  -2   7 644.373 139.173   1
  -2  -2   7 349.597 80.4959   4
  -2  -2   6 56310.3 892.019   4
   2   2  -6 56425.8 1069.40   3
  -2   2   6 58186.7 1076.80   1
  -2   2   6 59571.6 1104.23   4
  -2  -2   6 58524.4 1032.43   1
  -2   2   5 226.657 82.6511   2
  -2  -2   5 151.769 66.4748   1
  -2   2   5 212.397 82.7654   4
  -2  -2   5 225.131 61.0867   4
  -2   2   5 237.271 82.7774   1
   2   2  -5 244.264 89.8404   3
  -2   2   4 20568.5 587.982   4
  -2  -2   4 21677.6 492.605   4
   2   2  -4 21644.6 613.878   3
  -2   2   4 20087.7 576.507   2
  -2  -2   4 21509.4 556.408   1
  -2   2   4 20274.4 567.743   1
   2   2  -4 21672.3 527.071   2
  -2   2   3 8005.12 349.483   4
  -2   2   3 8210.82 339.611   2
  -2  -2   3 8084.10 278.344   4
   2   2  -3 8497.15 371.533   3
  -2  -2   3 8774.01 338.680   1
  -2   2   3 8230.69 336.372   1
   2   2  -2 19787.9 544.403   3
  -2   2   2 18315.4 473.610   2
  -2  -2   2 20262.2 431.324   4
  -2   2   2 19334.9 473.810   1
  -2   2   2 20492.7 519.516   4
  -2  -2   2 19957.4 484.947   1
  -2  -2   1 9546.99 331.783   1
  -2   2   1 8354.93 307.958   2
   2   2  -1 10021.9 372.266   3
  -2   2   1 9549.09 338.972   4
  -2   2   1 9206.75 298.266   1
  -2  -2   1 9452.15 303.617   4
  -2  -2   0 4473.21 244.375   1
  -2   2   0 4303.41 225.422   2
  -2   2   0 4448.93 218.280   4
  -2   2   0 4506.94 240.050   3
  -2  -2   0 4536.08 227.412   4
  -2   2   0 4370.52 193.352   1
  -2   2  -1 477.988 86.7574   3
  -2   2  -1 385.330 67.1164   4
  -2   2  -1 495.294 81.0573   2
  -2   2  -1 435.615 61.2743   1
  -2  -2  -1 477.355 86.8985   4
  -2  -2  -1 459.550 86.3991   1
  -2   2  -2 923.085 86.6839   1
  -2   2  -2 988.311 128.822   2
  -2   2  -2 1152.43 137.562   3
  -2  -2  -2 1096.47 125.383   4
  -2   2  -2 1019.28 112.870   4
  -2  -2  -2 861.303 112.529   1
  -2  -2  -3 62.3802 44.5515   1
  -2   2  -3 93.1597 41.3479   3
  -2   2  -3 69.4639 38.6867   4
  -2   2  -3 95.3656 60.6228   2
  -2  -2  -3 78.4217 54.7210   4
  -2   2  -3 99.1811 37.6975   1
  -2   2  -4 2682.51 253.428   2
  -2   2  -4 2085.44 151.485   1
  -2  -2  -4 2252.56 200.073   1
  -2   2  -4 2045.14 169.950   4
  -2   2  -5 1329.25 203.916   2
  -2  -2  -5 1341.47 161.694   1
  -2   2  -5 1209.49 122.295   1
  -2  -2  -5 1284.71 164.503   4
  -2   2  -5 1161.95 134.849   4
  -2   2  -5 1143.80 147.353   3
  -2   2  -6 19052.0 540.727   1
  -2   2  -6 19908.4 599.041   3
  -2   2  -6 19136.7 565.963   4
  -2  -2  -6 20986.3 674.847   4
  -2  -2  -6 19878.5 660.346   1
  -2   2  -7 354.224 89.1933   3
  -2   2  -7 450.638 97.9139   4
  -2  -2  -7 566.266 125.796   4
  -2  -2  -7 358.051 106.335   1
  -2   2  -7 271.169 66.7877   1
  -2   2  -8 12984.8 506.920   1
  -2   2  -8 13825.0 533.523   3
  -2   2  -8 15949.6 592.730   4
  -2  -2  -8 15022.1 617.337   1
  -2  -2  -9 44.4977 73.6785   1
  -2   2  -9-91.3566 81.2595   3
  -2   2  -9 51.8131 73.4564   1
  -2   2 -10 13923.7 594.015   1
  -2  -2 -10 15479.9 690.363   1
  -2   2 -10 13794.2 561.443   3
  -2  -2 -11 417.833 132.432   1
  -2   2 -11 345.873 112.584   1
  -2   2 -11 262.028 85.8514   3
  -2   2 -12 6245.90 441.960   1
  -2   2 -12 5457.10 382.273   3
  -2  -2 -12 5872.74 473.740   1
  -2   2 -13 460.705 111.417   3
  -2  -2 -13 782.152 214.101   1
  -2   2 -13 542.077 136.155   1
  -2  -2 -14 4718.81 469.521   1
  -2   2 -14 4703.88 418.269   1
  -2  -2 -15 36.2942 92.0053   1
  -2   2 -15-72.2835 98.1504   1
   2  -2  15-41.0350 106.533   1
   2  -2  16 1886.94 314.670   1
  -2   2 -16 1588.95 264.010   1
  -2  -2 -16 2216.84 339.874   1
  -2   3  17 3379.80 443.533   4
   2   3 -17 2952.83 369.919   3
  -2   3  17 3317.08 456.273   1
  -2  -3  17 3135.18 406.554   1
  -2  -3  16 208.261 142.128   1
  -2   3  16-16.9018 112.460   4
  -2  -3  16 64.8947 88.0691   4
  -2   3  16 212.950 159.908   1
   2   3 -16-6.91074 88.3201   3
  -2  -3  15 5490.58 464.668   4
  -2   3  15 5665.04 518.397   4
  -2  -3  15 5925.09 528.536   1
   2   3 -15 5485.11 477.895   3
  -2   3  15 5638.27 538.253   1
  -2   3  14 189.831 112.203   4
  -2  -3  14 137.026 84.2894   4
  -2   3  14 188.341 134.214   1
  -2  -3  14 273.211 137.114   1
   2   3 -14 176.791 105.305   3
  -2   3  13 1554.40 266.777   4
   2   3 -13 1805.59 264.862   3
  -2  -3  13 1773.17 276.054   1
  -2   3  13 1846.02 284.221   1
  -2  -3  13 1761.84 240.984   4
  -2   3  12 102.607 97.9648   4
  -2  -3  12-42.9104 63.3998   4
  -2   3  12 51.7845 97.3787   1
   2   3 -12 105.811 104.167   3
  -2  -3  12-53.2785 79.1442   1
   2   3 -11 5502.99 425.990   3
  -2  -3  11 5431.85 371.874   4
  -2   3  11 5729.62 447.933   4
  -2   3  11 5610.45 452.175   1
  -2  -3  11 6007.38 444.436   1
  -2   3  10 34.0837 97.4313   4
  -2   3  10 112.273 71.5956   1
  -2  -3  10 93.9218 59.6297   4
  -2  -3  10 131.771 67.7055   1
   2   3 -10 37.9999 68.1333   3
  -2  -3   9 688.945 111.752   4
  -2   3   9 908.135 175.268   4
  -2   3   9 869.726 173.823   1
  -2  -3   9 983.077 170.343   1
   2   3  -9 649.217 144.145   3
  -2  -3   8 824.305 146.546   1
  -2  -3   8 676.501 112.563   4
  -2   3   8 764.928 154.488   4
  -2   3   8 738.181 147.874   1
   2   3  -8 707.334 141.248   3
  -2   3   7 1478.21 190.661   1
  -2  -3   7 1241.37 140.691   4
  -2   3   7 1488.18 192.677   2
  -2   3   7 1173.97 171.860   4
  -2  -3   7 1270.62 168.987   1
   2   3  -7 1003.49 158.491   3
  -2  -3   6 31.7645 43.3777   1
   2   3  -6 40.7215 53.3495   2
  -2   3   6-52.0548 62.0878   4
  -2   3   6 112.665 77.2935   2
   2   3  -6-32.9014 78.3783   3
  -2   3   6 41.9987 64.3699   1
  -2  -3   6 28.1385 34.1665   4
  -2  -3   5 4954.26 229.514   4
   2   3  -5 5024.80 312.444   2
  -2   3   5 4883.26 330.249   2
   2   3  -5 4852.87 335.442   3
  -2   3   5 4741.46 306.648   1
  -2   3   5 5310.28 338.344   4
  -2  -3   5 4953.05 281.716   1
   2   3  -4 4398.09 266.039   2
  -2  -3   4 4503.06 207.345   4
  -2   3   4 4477.18 296.183   2
  -2   3   4 4684.49 296.512   4
   2   3  -4 4410.29 300.568   3
  -2   3   4 4670.85 282.012   1
  -2  -3   4 4532.66 257.416   1
  -2   3   3 12929.1 428.006   1
   2   3  -3 12543.2 414.495   2
  -2   3   3 13866.6 474.503   4
  -2   3   3 12875.1 486.558   2
  -2  -3   3 12936.1 333.947   4
   2   3  -3 12221.8 485.919   3
  -2  -3   3 12892.4 407.941   1
  -2  -3   2 2654.42 192.663   1
  -2   3   2 2440.79 198.957   4
  -2   3   2 2563.97 183.283   1
  -2   3   2 2133.30 192.460   2
  -2  -3   2 2657.76 162.038   4
  -2   3   2 2551.11 203.337   3
   2   3  -2 2325.17 211.471   3
   2   3  -2 2295.83 167.895   2
  -2  -3   1 27220.3 507.642   4
  -2  -3   1 26923.6 581.063   1
   2   3  -1 26249.8 540.875   2
  -2   3   1 27844.4 604.652   4
  -2   3   1 25575.6 653.462   2
   2   3  -1 26495.3 654.263   3
  -2   3   1 27221.6 647.120   3
  -2   3   1 25835.3 502.764   1
  -2   3   0-13.0931 48.1759   4
  -2   3   0-19.7116 39.3574   1
  -2   3   0-19.7218 56.8314   2
   2   3   0 10.6301 29.3820   2
  -2  -3   0 17.4796 34.5446   4
  -2  -3   0-0.68219 45.4314   1
   2   3   0-26.7910 50.8696   3
  -2   3   0 74.6025 61.9733   3
  -2   3  -1 5747.84 193.001   1
  -2  -3  -1 6507.53 304.930   1
  -2   3  -1 5997.67 329.707   2
   2   3   1 6169.71 276.347   2
  -2  -3  -1 6359.71 282.843   4
  -2   3  -1 6167.97 257.898   4
   2   3   1 6142.69 277.134   3
  -2   3  -1 5958.35 306.109   3
  -2   3  -2 11284.7 274.375   1
  -2  -3  -2 12563.7 448.553   1
  -2   3  -2 12893.1 508.861   2
  -2   3  -2 12342.6 367.583   4
   2   3   2 11696.7 395.643   2
  -2  -3  -2 12772.9 420.865   4
   2   3   2 12553.8 364.923   3
  -2   3  -2 11314.9 445.992   3
  -2  -3  -3 44406.0 841.972   4
  -2   3  -3 41371.5 569.563   1
  -2   3  -3 42160.9 962.726   2
  -2  -3  -3 44532.7 876.029   1
  -2   3  -3 42130.1 689.033   4
   2   3   3 41500.5 803.386   2
   2   3   3 42904.0 614.641   3
  -2   3  -3 43471.9 904.310   3
  -2   3  -4 144.587 65.1095   3
  -2  -3  -4 96.5708 65.0662   4
  -2   3  -4 44.9703 54.9021   2
   2   3   4 196.187 81.1749   2
  -2   3  -4 22.8001 25.4916   1
  -2   3  -4 23.5768 39.8565   4
  -2  -3  -4 110.412 55.3250   1
  -2   3  -5 37362.9 875.607   3
  -2   3  -5 37712.3 1010.90   2
  -2  -3  -5 39542.2 887.137   1
  -2   3  -5 37284.7 639.298   1
  -2  -3  -5 37959.5 865.660   4
  -2   3  -5 37650.1 739.549   4
  -2   3  -6 3316.40 326.715   2
  -2   3  -6 3343.13 234.394   4
  -2   3  -6 3246.77 203.457   1
  -2  -3  -6 3478.66 283.513   1
  -2   3  -6 3460.30 280.013   3
  -2   3  -7 7351.39 413.586   3
  -2   3  -7 8649.24 555.864   2
  -2  -3  -7 8752.02 476.586   1
  -2   3  -7 8014.00 384.587   4
  -2   3  -7 7608.18 344.574   1
  -2   3  -8 1268.54 171.280   4
  -2  -3  -8 1639.39 213.425   1
  -2   3  -8 1439.97 164.393   1
  -2   3  -8 1525.02 196.400   3
  -2  -3  -9 2165.47 263.507   1
  -2   3  -9 2126.44 215.248   1
  -2   3  -9 2007.75 240.064   3
  -2  -3 -10 1760.50 244.852   1
  -2   3 -10 1965.04 236.512   3
  -2   3 -10 1770.04 205.509   1
  -2   3 -11 3289.40 320.209   3
  -2  -3 -11 2427.50 294.913   1
  -2   3 -11 2625.14 264.915   1
  -2   3 -12 1306.77 194.521   1
  -2   3 -12 1656.44 230.283   3
  -2  -3 -12 1505.68 239.030   1
  -2   3 -13 408.560 152.395   3
  -2  -3 -13 103.225 102.008   1
  -2   3 -13 214.915 100.862   1
   2  -3  13 338.431 140.597   1
  -2   3 -14-20.2316 66.6571   3
   2  -3  14 5.33526 71.4505   1
  -2  -3 -14 154.040 128.840   1
  -2  -3 -15 1228.63 265.698   1
   2   4 -16-55.0822 116.072   3
  -2   4  16-71.2461 100.679   4
  -2   4  16 201.185 150.557   1
  -2   4  15 206.648 110.246   4
  -2   4  15 1.55795 100.628   1
  -2  -4  15 182.530 128.426   1
   2   4 -15 208.717 119.844   3
  -2   4  14 787.230 190.337   4
  -2   4  14 907.488 220.222   1
  -2  -4  14 858.363 189.517   1
   2   4 -14 882.332 211.259   3
  -2   4  13 780.519 191.264   1
  -2   4  13 418.599 134.890   4
  -2  -4  13 946.176 193.978   1
   2   4 -13 909.389 211.091   3
  -2   4  12 1151.93 222.732   4
  -2   4  12 1183.84 232.181   1
   2   4 -12 1385.52 236.218   3
  -2  -4  12 1197.10 202.137   1
  -2   4  11 2033.03 298.653   2
  -2   4  11 1336.45 225.132   4
  -2  -4  11 1384.81 180.040   4
   2   4 -11 1539.24 247.192   3
  -2   4  11 1535.38 254.507   1
  -2  -4  11 1441.61 211.324   1
  -2   4  10 9095.22 566.622   4
  -2  -4  10 8402.47 401.582   4
  -2   4  10 8485.05 551.839   2
   2   4 -10 8707.15 542.563   3
  -2   4  10 7951.26 523.969   1
  -2  -4  10 8666.14 480.157   1
  -2  -4   9 53.7431 60.6187   1
  -2   4   9-47.8866 95.1063   4
  -2   4   9 194.050 121.439   2
  -2   4   9 150.439 90.3368   1
  -2  -4   9 76.9126 52.7133   4
   2   4  -9 31.9607 72.4822   3
  -2   4   8 16244.7 672.669   1
  -2  -4   8 16309.0 487.140   4
  -2   4   8 17000.2 730.371   2
  -2  -4   8 16492.4 595.060   1
   2   4  -8 17266.9 730.224   3
  -2   4   8 18736.3 761.758   4
  -2  -4   7 6403.63 277.660   4
   2   4  -7 6733.69 438.837   2
  -2   4   7 6432.00 427.163   2
  -2   4   7 6792.75 432.023   4
   2   4  -7 6967.62 452.913   3
  -2   4   7 6375.95 406.254   1
  -2  -4   7 6496.11 354.609   1
   2   4  -6 16929.8 650.817   2
  -2   4   6 17478.0 659.058   4
  -2   4   6 16174.0 655.969   2
  -2   4   6 16490.7 617.343   1
  -2  -4   6 16933.4 536.097   1
   2   4  -6 17182.4 674.219   3
  -2  -4   6 15775.3 390.398   4
  -2  -4   5 5021.14 200.327   4
  -2   4   5 5709.97 384.865   2
   2   4  -5 5554.07 350.509   2
  -2   4   5 5854.54 364.341   4
   2   4  -5 5545.39 379.227   3
  -2   4   5 5615.11 340.393   1
  -2  -4   5 5275.63 281.564   1
  -2  -4   4 22147.2 554.044   1
  -2   4   4 23486.8 743.088   2
   2   4  -4 22620.7 668.787   2
  -2   4   4 24177.3 692.756   4
   2   4  -4 22989.1 730.962   3
  -2   4   4 21631.3 622.295   1
  -2  -4   4 20877.4 389.783   4
  -2   4   3 189.606 72.2218   3
   2   4  -3 106.162 45.9652   2
  -2  -4   3 403.715 100.198   1
  -2   4   3 152.533 59.4978   2
  -2  -4   3 164.251 51.6403   4
  -2   4   3 223.909 70.4911   4
  -2   4   3 158.815 64.3481   1
   2   4  -3 357.219 117.790   3
  -2  -4   2 24615.9 569.032   1
  -2   4   2 26485.7 649.542   4
  -2   4   2 24962.7 741.507   2
  -2  -4   2 25312.7 465.618   4
   2   4  -2 26570.0 726.784   3
   2   4  -2 25667.0 661.889   2
  -2   4   2 24449.6 556.179   1
  -2   4   2 25772.6 670.708   3
  -2  -4   1 1327.59 133.051   1
  -2   4   1 1259.71 167.284   2
  -2  -4   1 1413.14 118.922   4
  -2   4   1 1677.01 185.334   3
   2   4  -1 1277.51 135.817   2
   2   4  -1 1472.87 168.695   3
  -2   4   1 1587.91 153.191   4
  -2   4   1 1361.71 118.237   1
  -2   4   0 421.781 106.188   3
  -2   4   0 462.009 77.1910   4
   2   4   0 423.619 87.7291   2
  -2   4   0 436.406 112.732   2
  -2  -4   0 461.412 75.1619   4
  -2  -4   0 440.617 87.3892   1
  -2   4   0 310.790 52.1004   1
   2   4   0 339.104 80.2295   3
  -2   4  -1 63.2075 63.2506   3
  -2   4  -1 79.9590 59.5751   2
  -2   4  -1 70.0224 39.1333   4
   2   4   1 91.3740 43.8844   2
  -2   4  -1 103.732 27.0675   1
  -2  -4  -1 114.032 50.3909   4
   2   4   1 111.793 53.1759   3
  -2  -4  -1 2.38345 67.2577   1
  -2   4  -2 1047.84 71.9963   1
  -2  -4  -2 1631.78 174.322   1
  -2   4  -2 1456.65 197.640   2
  -2  -4  -2 1596.82 162.300   4
  -2   4  -2 1546.69 132.247   4
   2   4   2 1639.65 147.323   3
  -2   4  -2 1337.53 165.959   3
   2   4   2 1828.36 188.740   2
  -2   4  -3 124.622 51.2147   3
  -2   4  -3 261.524 98.8759   2
  -2   4  -3 66.3724 20.7321   1
  -2   4  -3 88.0367 29.7824   4
   2   4   3 241.296 76.4322   2
  -2  -4  -3 179.656 66.7136   4
  -2  -4  -3 164.668 63.3488   1
   2   4   3 157.422 51.2220   3
  -2   4  -4 4327.57 355.460   2
  -2  -4  -4 4454.08 304.620   1
  -2   4  -4 4549.64 237.418   4
  -2   4  -4 3117.24 135.302   1
   2   4   4 4253.11 299.856   2
   2   4   4 4390.97 197.502   3
  -2   4  -4 3874.42 297.238   3
  -2   4  -5 955.404 160.264   3
  -2  -4  -5 943.329 151.798   1
  -2   4  -5 728.120 76.2384   1
  -2   4  -5 864.634 164.571   2
   2   4   5 1047.01 161.712   2
  -2   4  -5 887.394 112.183   4
  -2   4  -6 11124.7 620.998   2
  -2   4  -6 9687.56 309.575   1
   2   4   6 10873.1 519.417   2
  -2   4  -6 11042.7 416.529   4
  -2   4  -6 10716.3 527.195   3
  -2   4  -7 7387.78 532.524   2
   2   4   7 7154.77 436.822   2
  -2   4  -7 6556.37 285.799   1
  -2   4  -7 7382.77 361.147   4
  -2  -4  -7 8175.13 471.912   1
  -2   4  -7 7941.92 460.771   3
  -2   4  -8 1436.62 282.640   2
  -2   4  -8 1191.35 197.444   3
  -2  -4  -8 1191.74 188.841   1
  -2   4  -9 124.065 90.5571   3
  -2  -4  -9 158.353 90.3832   1
  -2  -4 -10 10599.3 617.215   1
  -2   4 -10 10041.2 573.846   3
  -2   4 -11 1313.89 213.359   3
  -2  -4 -11 1321.70 239.778   1
  -2   4 -12 5943.97 453.238   3
  -2  -4 -12 6680.85 522.543   1
  -2   4 -13 468.730 147.085   3
  -2  -4 -13 932.173 224.045   1
  -2  -4 -14 3131.38 393.954   1
  -2   4 -14 2830.86 337.562   3
  -2   4 -15 572.108 161.982   3
  -2  -4 -15 385.569 165.746   1
  -2   5  15 2359.92 377.270   2
  -2   5  15 1322.29 286.994   1
  -2   5  15 1737.80 315.200   4
   2   5 -15 1479.63 274.901   3
  -2   5  14 430.304 184.823   1
  -2   5  14 643.688 232.721   2
  -2   5  14 405.891 159.465   4
   2   5 -14 326.603 145.442   3
  -2   5  13 2877.74 370.495   4
  -2   5  13 3317.19 397.619   1
  -2   5  13 3122.97 405.722   2
   2   5 -13 3028.70 386.649   3
  -2   5  12 19.1352 83.3415   1
  -2   5  12 63.5415 97.3524   4
  -2   5  12-16.9957 87.6920   2
   2   5 -12-31.4991 108.147   3
  -2   5  11 1894.65 284.288   4
  -2   5  11 2093.62 312.405   2
   2   5 -11 2123.29 300.620   3
  -2   5  11 1824.59 269.211   1
  -2  -5  10 21.0132 68.0116   1
  -2   5  10-0.89286 93.8087   4
  -2   5  10 7.54955 87.0749   2
  -2   5  10 43.2679 76.6086   1
   2   5 -10 67.9592 109.478   3
   2   5  -9 611.901 185.062   2
  -2   5   9 404.977 131.979   1
  -2   5   9 460.054 148.140   4
  -2   5   9 436.129 132.191   2
  -2  -5   9 491.344 114.176   1
   2   5  -9 565.115 151.306   3
   2   5  -8 1605.95 287.789   2
  -2   5   8 799.062 164.110   4
  -2   5   8 957.075 197.037   2
  -2   5   8 936.987 184.581   1
  -2  -5   8 1030.83 151.505   1
   2   5  -8 1019.02 200.788   3
   2   5  -7 117.088 84.3499   2
  -2  -5   7 56.2108 65.7253   1
  -2   5   7 95.1618 80.7895   4
  -2   5   7 0.71341 95.0339   2
  -2   5   7 33.1476 57.2739   1
   2   5  -7 36.4725 85.0879   3
  -2   5   6 877.372 160.564   4
   2   5  -6 953.693 172.186   2
  -2  -5   6 920.646 123.610   1
  -2   5   6 932.109 168.501   2
  -2   5   6 849.289 144.312   1
   2   5  -6 930.013 172.132   3
  -2  -5   5 1257.65 139.735   1
  -2   5   5 1273.73 198.886   2
   2   5  -5 1041.33 171.494   2
  -2   5   5 1130.80 172.834   4
   2   5  -5 1295.50 198.751   3
  -2   5   5 1251.85 165.672   1
  -2  -5   4 4620.97 252.439   1
   2   5  -4 5392.80 372.629   2
  -2   5   4 5211.35 338.101   4
  -2   5   4 5141.10 383.853   2
   2   5  -4 4956.94 374.572   3
  -2   5   4 4961.27 304.039   1
  -2   5   4 5245.34 313.665   3
  -2  -5   3 4146.16 236.329   1
   2   5  -3 4511.53 326.653   2
  -2   5   3 5028.06 311.092   4
   2   5  -3 4754.96 346.161   3
  -2   5   3 4084.95 254.114   1
  -2   5   3 4835.72 315.781   3
  -2   5   3 4306.14 343.276   2
  -2  -5   2 5155.61 275.446   1
   2   5  -2 5222.52 346.401   2
  -2  -5   2 4556.37 193.154   4
  -2   5   2 5190.53 307.836   4
  -2   5   2 5182.89 384.522   2
  -2   5   2 4541.11 249.546   1
   2   5  -2 5490.77 364.876   3
  -2   5   2 5080.65 330.569   3
  -2  -5   1 20364.8 549.308   1
   2   5  -1 22555.2 699.238   2
  -2   5   1 22084.6 578.061   4
  -2   5   1 21997.4 785.659   2
  -2   5   1 22131.2 697.689   3
   2   5  -1 21962.3 686.124   3
  -2   5   1 19730.8 438.856   1
  -2  -5   0 4417.04 267.906   1
  -2   5   0 4695.27 365.989   2
   2   5   0 4833.64 325.448   2
  -2   5   0 3496.43 148.416   1
  -2   5   0 4334.79 307.635   3
  -2   5   0 4623.85 242.560   4
   2   5   0 5054.85 318.452   3
  -2  -5  -1 18159.4 559.130   1
  -2   5  -1 19102.9 752.692   2
  -2   5  -1 18085.4 455.989   4
   2   5   1 19312.2 593.438   3
  -2   5  -1 17883.3 658.956   3
   2   5   1 19145.4 637.332   2
  -2  -5  -2 5339.18 319.292   1
  -2   5  -2 5048.36 397.564   2
   2   5   2 5154.98 337.164   2
   2   5   2 5334.06 295.726   3
  -2   5  -2 5016.73 353.410   3
  -2   5  -2 5011.31 232.443   4
  -2   5  -3 21847.4 851.526   2
  -2  -5  -3 20604.8 640.996   1
   2   5   3 21312.5 700.995   2
  -2   5  -3 20238.4 462.098   4
   2   5   3 21223.5 545.102   3
  -2   5  -3 21326.1 739.730   3
  -2  -5  -4 5610.81 355.579   1
  -2   5  -4 5302.32 429.288   2
  -2   5  -4 5458.00 250.005   4
   2   5   4 5065.37 241.177   3
  -2   5  -4 5488.70 384.570   3
   2   5   4 5437.25 360.835   2
  -2   5  -5 10179.5 615.156   2
   2   5   5 10933.0 529.385   2
  -2  -5  -5 12082.4 547.758   1
  -2   5  -5 11208.0 561.534   3
   2   5   6 4942.64 366.986   2
  -2   5  -6 5041.24 452.269   2
  -2  -5  -6 5509.53 384.633   1
  -2   5  -6 5517.14 402.743   3
  -2   5  -7 4570.46 455.891   2
  -2  -5  -7 4503.75 358.169   1
   2   5   7 4620.38 374.960   2
  -2   5  -7 4498.26 377.713   3
  -2   5  -8 4001.55 447.695   2
  -2  -5  -8 3838.93 346.186   1
   2   5   8 3475.35 340.316   2
  -2   5  -8 3625.87 346.045   3
  -2   5  -9 3779.91 460.510   2
   2   5   9 3566.97 376.752   2
  -2  -5  -9 2809.11 308.236   1
  -2   5  -9 2527.86 298.639   3
  -2   5 -10 438.535 148.250   3
  -2  -5 -10 279.852 100.694   1
  -2   5 -11 157.928 101.493   3
  -2  -5 -11 188.220 120.540   1
   2   5  11 233.231 125.418   2
  -2   5 -12 532.593 168.017   3
  -2  -5 -12 392.901 147.260   1
  -2   5 -13 628.458 188.469   3
   2   5  13 969.357 263.536   2
  -2  -5 -13 365.758 150.039   1
  -2   5 -14 154.110 124.586   3
  -2  -5 -14-107.351 128.198   1
   2   6 -14 263.892 152.804   3
  -2   6  14 226.852 134.010   4
  -2   6  14 60.8902 108.698   2
  -2   6  14 168.943 133.371   1
  -2   6  13 277.111 144.942   4
  -2   6  13 263.643 106.481   1
  -2   6  13 551.335 194.547   2
   2   6 -13 239.200 107.538   3
  -2   6  12 891.832 231.705   4
  -2   6  12 618.414 191.174   2
  -2   6  12 816.869 205.386   1
   2   6 -12 795.833 215.903   3
  -2   6  11 2340.40 327.393   4
  -2   6  11 2439.71 336.513   2
   2   6 -11 2310.36 332.365   3
  -2   6  11 2155.69 305.654   1
   2   6 -10 6862.43 568.796   2
  -2   6  10 6272.83 527.206   2
  -2   6  10 6517.56 517.521   4
   2   6 -10 6884.63 556.689   3
  -2   6  10 5745.61 464.854   1
  -2   6   9 486.387 132.696   2
   2   6  -9 1106.23 257.245   2
  -2   6   9 757.186 186.834   4
  -2   6   9 630.219 165.419   1
   2   6  -9 815.107 196.023   3
   2   6  -8 7056.78 539.302   2
  -2   6   8 7175.99 499.713   4
   2   6  -8 7784.37 554.838   3
  -2   6   8 6199.58 446.794   1
  -2   6   8 6117.20 477.634   2
   2   6  -7 2505.05 307.221   2
  -2   6   7 2756.83 323.350   2
   2   6  -7 2813.08 331.785   3
  -2   6   7 2490.32 273.169   1
  -2   6   7 2434.82 287.285   4
   2   6  -6 7591.72 517.276   2
  -2   6   6 7956.10 480.838   4
  -2   6   6 8161.81 536.893   2
   2   6  -6 8758.43 566.354   3
  -2   6   6 7403.25 441.156   1
   2   6  -5 1571.20 208.140   2
  -2   6   5 1957.62 261.756   2
  -2   6   5 1962.36 233.048   4
  -2   6   5 1843.59 211.519   1
   2   6  -5 2040.79 266.526   3
  -2  -6   4 4623.70 250.440   1
   2   6  -4 5816.07 436.763   2
  -2   6   4 5382.66 429.805   2
  -2   6   4 5908.56 373.130   4
   2   6  -4 6325.79 448.937   3
  -2   6   4 5083.87 330.781   1
  -2   6   4 5845.68 370.500   3
  -2  -6   3 1450.00 142.461   1
  -2   6   3 1735.02 194.058   4
   2   6  -3 1444.08 209.104   2
  -2   6   3 1425.47 224.384   2
   2   6  -3 1793.24 238.808   3
  -2   6   3 1482.46 164.522   1
  -2   6   3 1862.16 219.405   3
  -2   6   2 4851.87 347.898   3
  -2  -6   2 4216.01 251.637   1
  -2   6   2 4975.03 417.073   2
   2   6  -2 4921.61 382.786   2
  -2   6   2 4871.36 300.559   4
   2   6  -2 5619.95 398.365   3
  -2   6   1 7998.22 452.053   3
  -2  -6   1 7165.66 341.721   1
   2   6  -1 7761.03 473.317   2
  -2   6   1 7778.78 347.158   4
  -2   6   1 8525.81 544.134   2
   2   6  -1 8312.49 460.364   3
  -2  -6   0 3975.48 262.430   1
  -2   6   0 4380.22 397.487   2
   2   6   0 4197.27 346.223   2
   2   6   0 4760.21 339.516   3
  -2   6   0 4052.55 324.627   3
  -2   6  -1 234.964 72.9757   3
  -2   6  -1 246.433 113.002   2
   2   6   1 191.259 85.9492   2
  -2  -6  -1 195.354 71.2169   1
   2   6   1 465.966 118.720   3
   2   6   2 129.887 65.4302   3
  -2   6  -2 33.9206 97.8267   2
  -2  -6  -2 112.756 59.8531   1
   2   6   2 135.956 80.4447   2
   2   6   3 170.048 72.8064   3
  -2   6  -3-22.9782 164.678   3
  -2  -6  -3 159.006 52.6390   1
   2   6   3 258.465 100.727   2
  -2   6  -3 245.385 140.102   2
  -2   6  -4 2574.92 328.588   2
  -2  -6  -4 2456.32 252.850   1
   2   6   4 2545.44 272.966   2
  -2   6  -4 2226.44 264.901   3
  -2   6  -5 761.996 164.801   3
  -2   6  -5 495.916 128.407   2
   2   6   5 895.743 167.051   2
  -2  -6  -5 831.781 156.134   1
  -2   6  -6 5176.28 489.590   2
  -2  -6  -6 4960.47 376.360   1
   2   6   6 4389.23 366.263   2
  -2   6  -6 5235.06 422.388   3
  -2   6  -7 426.320 136.301   3
  -2   6  -7 525.292 167.798   2
   2   6   7 465.245 114.217   2
  -2  -6  -7 582.842 141.753   1
  -2   6  -8 6531.10 598.502   2
  -2  -6  -8 5725.41 436.630   1
   2   6   8 5136.12 423.896   2
  -2   6  -8 5841.41 468.179   3
  -2   6  -9 323.412 133.762   3
  -2  -6  -9 320.649 125.931   1
  -2   6  -9 367.285 192.187   2
   2   6   9 284.094 122.436   2
  -2   6 -10 6478.30 647.806   2
   2   6  10 5196.19 459.661   2
  -2  -6 -10 5690.93 471.565   1
  -2   6 -10 5485.58 476.427   3
  -2  -6 -11 1552.50 259.553   1
   2   6  11 1740.29 276.822   2
  -2   6 -11 2077.27 317.847   3
  -2  -6 -12 1953.46 296.873   1
   2   6  12 2358.60 344.681   2
  -2   6 -12 2232.45 326.818   3
   2   7 -12 330.171 183.433   3
  -2   7  12 26.4831 104.989   4
  -2   7  12 45.3722 101.850   2
  -2   7  12 247.958 128.053   1
   2   7 -11 596.495 196.817   3
  -2   7  11 653.170 156.860   4
  -2   7  11 678.753 169.977   2
  -2   7  11 973.680 224.296   1
   2   7 -10 182.054 130.830   3
  -2   7  10-131.929 142.092   4
  -2   7  10-276.902 188.102   2
  -2   7  10 95.4023 90.4550   1
   2   7  -9 641.464 199.135   3
   2   7  -9 1059.07 256.394   2
  -2   7   9 500.057 153.529   4
  -2   7   9 673.149 172.851   2
  -2   7   9 773.608 180.535   1
   2   7  -8 176.091 113.304   2
  -2   7   8 80.4007 81.8897   4
  -2   7   8 190.806 97.4887   2
  -2   7   8-91.5407 106.806   1
   2   7  -8 71.5135 106.920   3
   2   7  -7 133.228 107.614   2
  -2   7   7 138.417 84.8234   4
  -2   7   7 204.827 124.240   2
   2   7  -7 234.453 129.830   3
  -2   7   6 125.714 79.3455   4
   2   7  -6 166.045 104.479   2
  -2   7   6 204.093 114.094   2
   2   7  -6 352.796 137.725   3
   2   7  -5 1814.39 265.025   2
  -2   7   5 1721.28 275.411   2
   2   7  -5 1735.12 263.142   3
   2   7  -4 1397.22 228.224   2
  -2   7   4 1808.41 231.596   3
  -2   7   4 1469.08 247.013   2
   2   7  -4 1706.35 253.964   3
   2   7  -3 4465.34 402.434   2
  -2   7   3 5211.44 453.377   2
   2   7  -3 5280.78 421.289   3
  -2   7   3 4497.67 353.434   3
  -2   7   2 2372.95 336.569   2
   2   7  -2 1660.03 242.544   2
   2   7  -2 2411.72 282.510   3
  -2   7   2 2012.82 245.031   3
   2   7  -1 10770.5 612.799   2
  -2   7   1 11672.4 688.380   2
   2   7  -1 11038.6 563.680   3
  -2   7   1 9818.34 528.234   3
   2   7   0 801.338 157.073   3
  -2   7   0 493.692 106.911   3
  -2   7   0 823.205 188.101   2
   2   7   0 471.276 112.833   2
  -2  -7  -1 5613.95 336.874   1
  -2   7  -1 6780.40 544.697   2
  -2   7  -1 5808.80 427.363   3
   2   7   1 6751.04 486.098   2
   2   7   1 6356.97 398.140   3
  -2   7  -2 4929.81 480.058   2
  -2  -7  -2 5577.14 360.020   1
   2   7   2 5518.71 427.406   2
   2   7   2 5308.50 348.405   3
  -2   7  -2 4660.89 387.236   3
  -2   7  -3 6407.11 550.973   2
  -2  -7  -3 5508.68 367.805   1
   2   7   3 5603.82 431.246   2
   2   7   3 5482.59 333.933   3
  -2   7  -3 5100.13 411.770   3
  -2   7  -4 690.828 125.789   3
  -2   7  -4 817.681 195.249   2
   2   7   4 739.485 157.242   2
  -2  -7  -4 663.342 133.311   1
   2   7   5 5510.96 440.895   2
  -2  -7  -5 5270.52 391.122   1
  -2   7  -5 5789.33 545.398   2
  -2   7  -5 5927.79 459.982   3
  -2   7  -6 3575.06 432.889   2
   2   7   6 3853.09 369.787   2
  -2   7  -6 3991.25 388.159   3
  -2  -7  -6 3656.41 342.705   1
  -2   7  -7 1201.19 227.229   3
  -2  -7  -7 1387.88 223.532   1
   2   7   7 1522.95 245.055   2
  -2   7  -7 1268.87 273.474   2
  -2   7  -8 998.614 215.559   3
  -2  -7  -8 735.804 164.699   1
  -2   7  -8 754.354 242.011   2
   2   7   8 675.274 168.206   2
  -2   7  -9 635.549 184.934   3
  -2  -7  -9 686.376 183.805   1
  -2   7  -9 801.238 273.171   2
   2   7   9 370.333 107.930   2
  -2   7 -10 469.145 169.622   3
  -2   7 -10 572.453 236.793   2
  -2  -7 -10 327.879 123.191   1
   2   7  10 520.263 153.281   2
   2   8  -9 1971.99 326.603   3
   2   8  -9 2053.80 359.000   2
  -2   8   9 1513.82 280.307   2
   2   8  -8 2669.01 388.317   2
  -2   8   8 2705.93 370.639   2
   2   8  -8 3159.56 409.077   3
   2   8  -7 1945.03 326.914   2
   2   8  -7 2146.75 319.828   3
   2   8  -6 894.224 211.589   3
   2   8  -6 523.136 150.348   2
   2   8  -5 712.669 187.141   3
   2   8  -5 295.611 117.953   2
   2   8  -4 3850.06 425.510   2
  -2   8   4 3950.28 344.624   3
   2   8  -4 3738.14 385.093   3
   2   8  -3 750.353 176.182   3
   2   8  -3 787.038 194.470   2
  -2   8   3 741.248 164.830   3
   2   8  -2 928.871 180.122   3
  -2   8   2 1036.76 190.136   3
   2   8  -2 671.234 178.778   2
   2   8  -1 287.302 96.8377   3
  -2   8   1 328.966 100.786   3
   2   8  -1 260.023 109.796   2
   2   8   0 662.161 148.913   3
  -2   8   0 748.436 160.990   3
   2   8   0 598.346 166.803   2
   2   8   1 82.6671 63.4484   3
  -2   8  -1 105.491 131.703   2
   2   8   1-42.2856 118.670   2
  -2   8  -1 3.84619 106.447   3
   2   8   2 95.8680 62.6096   3
  -2   8  -2-105.118 142.040   3
  -2   8  -2 161.058 142.110   2
   2   8   2 61.0906 91.0069   2
  -2   8  -3-259.308 164.342   3
  -2   8  -3 303.679 184.730   2
  -2   8  -4-58.7884 162.873   3
  -2   8  -4 1061.78 263.045   2
  -2   8  -5 35.4866 108.425   3
  -2   8  -5 249.659 130.853   2
  -2   8  -6 940.243 208.790   3
  -2  -8  -6 909.770 185.878   1
   2   8   6 1038.46 212.655   2
  -2   8  -6 1221.36 276.389   2
  -2   8  -7 670.369 186.521   3
  -2  -8  -7 696.081 181.333   1
  -2   8  -7 399.739 184.915   2
   2   8   7 589.466 156.600   2
  -2   8  -8 3494.03 493.687   2
  -2  -8  -8 3560.58 376.846   1
  -2   8  -8 3855.19 433.638   3
   2   8   8 3209.94 379.750   2
   2   9  -5 75.1416 98.4707   3
   2   9  -4 249.195 109.244   3
   2   9  -4-21.8720 160.462   2
   2   9  -3 118.583 89.7353   3
   2   9  -3-7.73787 157.514   2
   2   9  -2 1519.92 245.035   3
  -2   9   2 1495.40 235.798   3
   2   9  -1 1272.72 224.965   3
  -2   9   1 1081.76 207.820   3
  -2   9   0 1412.26 241.933   3
   2   9   0 1454.58 234.788   3
  -2   9  -1 2162.80 302.189   3
  -2   9  -2 947.346 205.904   3
  -2   9  -3 201.973 135.073   3
  -3   0  17 1526.60 293.505   4
  -3   0  17 1802.34 336.698   1
  -3   0  15 4784.43 467.458   4
   3   0 -15 3977.82 365.137   3
  -3   0  15 4918.31 502.857   1
  -3   0  13 51.1136 83.5088   4
  -3   0  13 72.9549 92.6422   1
   3   0 -13 114.671 101.198   3
  -3   0  11-10.8472 89.2724   4
  -3   0  11 12.6642 73.3550   1
   3   0 -11-2.09741 73.6733   3
  -3   0   9 116.001 80.8069   1
  -3   0   9 112.265 58.9744   4
  -3   0   7 16784.1 642.216   1
  -3   0   7 15258.8 583.512   4
  -3   0   5 15724.1 543.364   4
  -3   0   5 16499.0 583.769   1
  -3   0   3 44326.4 857.981   4
  -3   0   3 43936.6 869.186   1
  -3   0   1 35925.4 734.697   4
  -3   0   1 35770.3 732.909   1
  -3   0  -1 10488.7 393.551   1
  -3   0  -1 10345.6 405.385   4
  -3   0  -3 28362.0 686.376   1
  -3   0  -3 28638.9 724.216   4
  -3   0  -5 9751.53 443.484   1
  -3   0  -5 9724.28 454.238   4
  -3   0  -7 99.3162 64.6855   1
  -3   0  -7 38.3141 71.9052   4
  -3   0  -9 1370.67 230.212   4
  -3   0  -9 1335.32 222.539   1
  -3   0 -13 9515.96 644.544   1
  -3   0 -15 1755.02 295.297   1
  -3  -1  18 176.340 111.113   4
  -3   1  18 29.8035 127.293   1
  -3  -1  18 145.367 103.781   1
  -3   1  18 44.5456 105.123   4
  -3  -1  17 19.8930 88.0754   4
  -3   1  17-12.1825 105.173   4
  -3   1  17 252.683 165.891   1
  -3  -1  17 169.685 153.403   1
  -3  -1  16 1341.61 262.814   4
  -3   1  16 1210.05 267.492   4
  -3   1  16 1082.62 270.450   1
  -3  -1  16 1729.18 319.546   1
   3   1 -16 1158.96 222.056   3
  -3   1  15 924.677 224.085   4
  -3  -1  15 1200.21 244.412   4
  -3   1  15 954.586 253.697   1
  -3  -1  15 900.606 226.650   1
   3   1 -15 864.161 183.889   3
   3  -1 -14 6251.11 433.644   3
   3   1 -14 6769.81 486.880   3
  -3  -1  14 7996.79 575.269   4
  -3   1  14 7626.68 571.314   4
  -3   1  14 7264.16 591.477   1
  -3  -1  14 7541.96 588.507   1
  -3   1  13 433.521 161.566   4
  -3  -1  13 205.801 111.853   4
  -3   1  13 336.320 147.940   1
  -3  -1  13 384.018 153.104   1
   3  -1 -13 319.879 124.628   3
   3   1 -13 134.186 70.7974   3
  -3   1  12 8867.78 571.168   4
  -3  -1  12 8252.56 521.526   4
   3  -1 -12 7465.61 470.367   3
   3   1 -12 7606.79 495.834   3
  -3   1  12 8935.91 600.619   1
  -3  -1  12 9011.87 591.806   1
  -3  -1  11 214.093 99.8847   4
  -3   1  11 181.511 113.992   1
   3   1 -11 236.903 101.285   3
  -3  -1  11 154.371 116.589   1
  -3   1  11 302.022 127.465   4
  -3   1  10 11296.4 593.035   4
  -3  -1  10 10920.2 547.563   4
   3   1 -10 10160.5 547.856   3
  -3   1  10 11825.8 630.414   1
  -3  -1  10 11717.8 621.460   1
  -3   1   9 187.466 72.0381   4
  -3   1   9 204.254 98.5376   1
  -3  -1   9 201.167 75.8659   4
   3   1  -9 247.023 90.0652   3
  -3  -1   9 225.280 109.012   1
  -3   1   8 19788.2 717.135   4
  -3  -1   8 19153.1 662.973   4
  -3   1   8 20320.2 752.454   1
   3   1  -8 18210.0 683.291   3
  -3  -1   8 20203.4 735.709   1
  -3  -1   7 918.077 161.595   1
  -3  -1   7 1021.94 151.387   4
  -3   1   7 1033.29 169.337   4
  -3   1   7 1198.41 192.995   1
  -3  -1   6 22575.1 659.223   4
  -3   1   6 24033.0 716.706   4
  -3   1   6 23263.5 729.222   1
  -3  -1   6 24037.1 735.350   1
  -3  -1   5 4315.44 284.750   4
  -3   1   5 4332.76 296.538   4
  -3   1   5 4484.45 302.031   1
  -3  -1   5 4287.29 302.058   1
  -3  -1   4 12099.3 447.314   4
  -3   1   4 10869.1 369.180   2
  -3   1   4 11806.8 474.346   4
  -3   1   4 11900.4 467.812   1
  -3  -1   4 11838.6 472.734   1
  -3   1   3 430.547 92.1028   1
  -3  -1   3 379.733 95.6588   1
  -3   1   3 427.574 101.362   4
  -3  -1   3 340.594 83.1291   4
  -3  -1   2 720.585 115.797   1
  -3   1   2 847.072 129.085   4
  -3  -1   2 715.783 108.831   4
  -3   1   2 768.221 128.073   1
  -3  -1   1 2684.51 218.763   1
  -3   1   1 2819.33 217.205   1
  -3  -1   1 2306.57 200.804   4
  -3   1   1 2483.89 218.112   4
  -3   1   0 8304.03 341.536   1
  -3  -1   0 8451.40 372.934   1
  -3   1   0 8335.84 365.389   4
  -3  -1   0 8500.40 368.689   4
  -3   1  -1 69.4747 58.1422   4
  -3  -1  -1 93.7160 56.8608   4
  -3   1  -1 27.4580 38.2547   1
  -3  -1  -1 46.1046 47.3067   1
  -3   1  -2 19657.8 528.679   1
  -3  -1  -2 20342.8 587.189   1
  -3   1  -2 18937.3 533.200   2
  -3   1  -2 19959.6 578.312   4
  -3  -1  -2 19494.1 577.096   4
  -3   1  -3 2166.52 179.896   1
  -3  -1  -3 2360.30 208.514   1
  -3  -1  -3 2225.95 206.507   4
  -3   1  -3 2140.59 196.564   4
  -3   1  -4 8558.53 375.958   1
  -3  -1  -4 8788.53 419.924   1
  -3   1  -4 8589.34 405.321   4
  -3  -1  -4 8949.85 428.557   4
  -3   1  -5 2254.47 204.904   1
  -3  -1  -5 2511.45 239.341   1
  -3  -1  -5 2484.99 245.504   4
  -3   1  -5 2540.27 212.741   3
  -3   1  -5 2882.57 260.968   4
  -3  -1  -6 41626.3 983.121   1
  -3   1  -6 41655.7 917.909   1
  -3   1  -6 41595.0 956.894   4
  -3  -1  -6 41418.3 991.709   4
  -3   1  -6 38752.6 827.667   3
  -3  -1  -7 1473.34 191.943   1
  -3   1  -7 1599.41 187.444   1
  -3  -1  -7 1641.13 208.450   4
  -3   1  -7 1599.76 199.728   4
  -3   1  -7 1537.33 182.289   3
  -3  -1  -8 7859.94 485.166   4
  -3   1  -8 8036.16 463.801   4
  -3   1  -8 8373.59 463.553   1
  -3  -1  -8 8270.16 481.097   1
  -3   1  -8 7331.41 383.654   3
  -3   1  -9 221.161 84.9746   3
  -3   1  -9 265.666 107.111   4
  -3  -1  -9 125.980 80.0141   1
  -3   1  -9 179.724 89.8245   1
  -3  -1  -9 175.409 98.1150   4
  -3   1 -10 12913.8 613.137   1
  -3   1 -10 13253.9 647.166   4
  -3  -1 -10 14189.8 682.825   1
  -3   1 -10 11851.9 522.299   3
  -3   1 -11 631.284 157.588   1
  -3   1 -11 747.202 144.119   3
  -3  -1 -11 568.090 153.818   1
  -3  -1 -12 2871.17 340.598   1
  -3   1 -12 3035.51 328.739   1
  -3  -1 -13-35.7803 95.8029   1
  -3   1 -13 128.082 112.535   1
  -3   1 -14 375.837 130.248   1
  -3  -1 -14 530.244 169.841   1
  -3   1 -15 438.225 136.756   1
  -3  -1 -15 503.876 169.506   1
  -3  -2  17 89.8135 91.8146   4
  -3   2  17 40.7247 96.4772   4
  -3   2  17 68.6483 117.849   1
  -3  -2  17 201.355 155.892   1
   3   2 -17-29.0842 85.2651   3
  -3  -2  16 448.699 168.424   4
  -3   2  16 548.200 185.568   4
  -3   2  16 462.014 181.194   1
  -3  -2  16 411.761 192.042   1
   3   2 -16 266.510 115.351   3
  -3  -2  15 2482.69 366.146   1
  -3  -2  15 2576.59 331.680   4
   3   2 -15 1930.50 291.020   3
  -3   2  15 2282.81 369.896   1
  -3   2  15 2872.21 379.386   4
  -3   2  14 415.801 163.162   4
  -3   2  14 666.576 201.314   1
  -3  -2  14 450.923 153.185   1
  -3  -2  14 527.897 159.012   4
   3   2 -14 296.325 122.995   3
  -3   2  13 715.925 185.729   4
  -3   2  13 710.992 201.778   1
   3   2 -13 737.312 180.256   3
  -3  -2  13 713.350 163.278   4
  -3  -2  13 1118.08 236.787   1
  -3   2  12-101.725 134.362   4
  -3  -2  12-32.8533 74.3825   4
  -3   2  12-91.0153 103.076   1
   3   2 -12-154.109 121.343   3
  -3  -2  12 117.983 126.202   1
  -3  -2  11-67.0441 85.8014   4
  -3   2  11-111.778 125.431   4
  -3   2  11-90.0362 125.119   1
   3   2 -11-152.663 121.880   3
  -3  -2  11 25.1571 85.2947   1
  -3   2  10-118.131 123.069   4
  -3  -2  10-58.0157 85.6419   4
  -3   2  10 12.3607 73.9576   1
   3   2 -10-104.275 98.7004   3
  -3  -2  10 54.8813 90.0184   1
  -3  -2   9 332.626 114.384   1
  -3  -2   9 300.310 104.861   4
  -3   2   9 231.954 82.3283   4
  -3   2   9 200.465 81.3909   1
   3   2  -9 319.350 114.620   3
  -3  -2   8 2191.32 223.078   4
  -3   2   8 2199.51 267.410   4
   3   2  -8 1921.30 241.298   3
  -3   2   8 2404.96 266.796   1
  -3  -2   8 2335.12 259.134   1
  -3   2   7 39397.7 997.450   4
  -3  -2   7 37819.8 856.513   4
   3   2  -7 36068.2 969.210   3
  -3   2   7 38490.5 988.037   1
  -3  -2   7 39582.6 979.922   1
  -3   2   6 2446.50 244.706   4
  -3   2   6 2773.11 247.880   2
  -3  -2   6 2540.65 217.373   4
   3   2  -6 2631.25 272.445   3
  -3   2   6 2832.08 263.861   1
  -3  -2   6 2492.19 244.030   1
  -3   2   5 15996.3 583.714   4
  -3  -2   5 15854.4 509.601   4
  -3   2   5 14748.7 523.934   2
   3   2  -5 15175.3 601.266   3
  -3   2   5 16190.7 586.008   1
  -3  -2   5 16282.7 580.566   1
  -3   2   4 18764.4 616.960   4
  -3  -2   4 17542.3 518.514   4
  -3   2   4 16346.8 511.911   2
  -3   2   4 17954.1 582.831   1
  -3  -2   4 18625.0 596.397   1
  -3   2   3 31473.7 764.234   4
  -3   2   3 31582.9 729.380   1
  -3  -2   3 30689.1 662.484   4
  -3  -2   3 31357.9 742.260   1
  -3  -2   2 4701.66 310.175   1
  -3  -2   2 4271.65 276.645   4
  -3   2   2 3895.12 302.405   4
  -3   2   2 4364.59 292.110   1
  -3  -2   1 45170.5 870.137   1
  -3  -2   1 46020.7 815.075   4
  -3   2   1 44475.7 852.456   4
  -3   2   1 43725.0 787.125   1
  -3  -2   0 592.792 151.817   1
  -3  -2   0 578.517 141.168   4
  -3   2  -1 63284.8 892.714   1
  -3  -2  -1 66184.3 1070.54   1
  -3  -2  -1 64515.2 1028.45   4
  -3   2  -1 63638.7 1016.75   4
  -3   2  -2-14.5862 48.8219   4
  -3   2  -2-71.4758 56.5783   2
  -3  -2  -2-61.6569 57.3308   4
  -3   2  -2-27.7652 47.0582   1
  -3  -2  -2-17.6796 66.1040   1
  -3   2  -3 13851.2 442.518   1
  -3  -2  -3 15211.5 547.232   1
  -3   2  -3 13788.3 535.525   2
  -3   2  -3 13797.0 485.371   4
  -3  -2  -3 15274.4 544.239   4
  -3   2  -3 14275.8 518.058   3
  -3   2  -4 2543.92 227.997   4
  -3   2  -4 2747.15 266.970   2
  -3   2  -4 2471.14 195.745   1
  -3  -2  -4 2659.88 236.139   1
  -3  -2  -4 2633.47 244.549   4
  -3   2  -4 2608.34 234.346   3
  -3   2  -5 9313.62 497.724   2
  -3   2  -5 9291.13 395.327   1
  -3  -2  -5 9893.17 476.646   1
  -3   2  -5 9315.52 444.380   4
  -3  -2  -5 10001.3 475.946   4
  -3   2  -5 8759.72 434.481   3
  -3   2  -6 1135.17 152.955   1
  -3  -2  -6 1139.49 171.888   1
  -3  -2  -6 1267.23 181.357   4
  -3   2  -6 1253.88 168.833   4
  -3   2  -6 1274.50 175.664   3
  -3   2  -7 46.2587 65.2853   3
  -3  -2  -7 71.9232 80.0142   1
  -3   2  -7-40.3548 64.6774   1
  -3   2  -7 85.6890 57.7768   4
  -3  -2  -7 2.90839 78.2226   4
  -3   2  -8 875.505 156.506   3
  -3  -2  -8 836.327 146.835   1
  -3   2  -8 1074.84 171.415   4
  -3   2  -8 1076.82 167.274   1
  -3  -2  -8 959.352 183.764   4
  -3   2  -9 897.471 162.064   3
  -3  -2  -9 702.037 152.634   1
  -3   2  -9 946.247 177.797   4
  -3  -2  -9 1110.90 219.349   4
  -3   2  -9 550.717 122.988   1
  -3   2 -10-0.19886 65.4628   3
  -3   2 -10 46.5482 60.7246   4
  -3  -2 -10 61.0216 74.4253   1
  -3   2 -10-47.2774 78.9781   1
  -3   2 -11 502.674 171.642   1
  -3   2 -11 332.987 132.983   3
  -3  -2 -11 247.571 131.596   1
  -3  -2 -12-37.0343 91.3173   1
  -3   2 -12-24.7616 71.5646   3
  -3   2 -12 13.5191 82.3606   1
  -3  -2 -13 6125.23 538.389   1
  -3   2 -13 5568.39 466.232   1
  -3  -2 -14 7.15897 87.8603   1
  -3   2 -14 6.81712 86.6518   1
  -3  -2 -15 1734.67 329.036   1
  -3   2 -15 1232.95 245.866   1
  -3   3  17 45.8235 143.810   4
  -3   3  17 74.1684 124.744   1
  -3  -3  17 133.818 108.328   1
   3   3 -17 332.577 170.707   3
  -3   3  16 989.580 241.778   4
  -3  -3  16 733.156 189.114   4
  -3   3  16 1082.12 262.938   1
  -3  -3  16 837.166 216.153   1
   3   3 -16 920.412 220.924   3
  -3   3  15-17.8133 129.427   4
  -3  -3  15 277.807 112.683   4
  -3   3  15 362.539 157.102   1
   3   3 -15 220.433 130.579   3
  -3  -3  15 489.700 183.785   1
  -3   3  14 3096.07 394.992   4
  -3  -3  14 2978.90 326.577   4
   3   3 -14 2801.76 345.845   3
  -3   3  14 2877.70 381.605   1
  -3  -3  14 3276.15 386.637   1
  -3  -3  13 144.670 81.9034   4
  -3   3  13 299.140 146.166   4
  -3   3  13 216.651 143.842   1
   3   3 -13 85.5216 94.1911   3
  -3  -3  13 164.417 120.499   1
  -3   3  12 9511.00 627.827   4
  -3  -3  12 9024.55 525.063   4
   3   3 -12 8482.41 566.687   3
  -3   3  12 9282.29 614.690   1
  -3  -3  12 9517.08 597.812   1
  -3  -3  11 1190.14 213.791   1
  -3   3  11 1381.87 239.603   4
  -3   3  11 1063.12 201.392   1
  -3  -3  11 1167.36 184.099   4
   3   3 -11 829.887 175.022   3
  -3   3  10 13481.3 684.497   4
  -3  -3  10 11998.3 540.724   4
   3   3 -10 12417.2 654.588   3
  -3   3  10 13605.2 689.980   1
  -3  -3  10 13614.9 656.395   1
  -3  -3   9 231.486 95.6195   1
  -3   3   9 94.1992 86.2982   4
  -3  -3   9 273.578 94.0963   4
  -3   3   9 214.045 101.542   2
  -3   3   9 201.049 110.660   1
   3   3  -9 250.471 114.893   3
  -3   3   8 12251.0 605.062   4
  -3  -3   8 11730.1 489.455   4
   3   3  -8 11051.4 583.263   3
  -3   3   8 11525.1 580.401   1
  -3  -3   8 11722.3 556.280   1
  -3   3   8 11682.9 575.134   2
  -3  -3   7 345.097 114.730   1
  -3  -3   7 387.419 91.3092   4
  -3   3   7 326.750 99.0193   2
  -3   3   7 378.460 118.842   1
   3   3  -7 297.198 108.554   3
  -3   3   7 406.270 120.669   4
  -3   3   6 7918.48 452.584   4
  -3  -3   6 7558.73 353.488   4
  -3   3   6 7365.10 416.077   2
   3   3  -6 7165.77 444.746   3
  -3   3   6 7511.76 433.237   1
  -3  -3   6 7346.37 403.778   1
   3   3  -5 102.829 56.7491   2
  -3   3   5 53.0272 53.0900   4
  -3  -3   5 115.961 66.6212   1
  -3  -3   5 20.9829 54.3568   4
  -3   3   5 7.28175 62.9471   2
   3   3  -5-2.04348 52.8870   3
  -3   3   5 52.3504 61.8208   1
   3   3  -4 803.507 113.957   2
  -3  -3   4 836.536 110.113   4
  -3   3   4 759.575 120.865   2
  -3  -3   4 795.630 126.536   1
   3   3  -4 722.790 139.242   3
  -3   3   4 767.479 137.520   4
  -3   3   4 674.957 129.617   1
  -3   3   3 198.543 74.2216   1
   3   3  -3 88.8829 29.0799   2
  -3   3   3 133.701 55.9600   4
  -3  -3   3 176.349 68.0401   1
  -3  -3   3 125.925 55.2699   4
  -3   3   3 76.1727 38.8877   2
   3   3  -3 310.442 107.571   3
  -3   3   2 678.693 111.615   1
  -3  -3   2 812.607 114.828   4
  -3   3   2 691.858 119.404   4
  -3   3   2 591.624 109.048   2
  -3  -3   2 805.561 128.581   1
   3   3  -2 941.757 159.052   3
  -3   3   1 548.031 119.548   2
  -3  -3   1 459.699 102.693   4
  -3  -3   1 486.571 118.485   1
  -3   3   1 643.647 128.218   4
  -3   3   1 726.014 119.939   1
  -3  -3   0 7381.06 368.605   1
  -3   3   0 6967.51 372.186   2
  -3  -3   0 7739.78 353.833   4
  -3   3   0 7818.80 357.160   4
   3   3   0 7501.71 371.580   3
  -3   3   0 7675.33 389.294   3
  -3   3   0 7471.53 303.330   1
  -3   3  -1 448.808 123.617   3
  -3   3  -1 185.378 80.3949   2
  -3   3  -1 256.912 77.0707   4
   3   3   1 182.990 49.0895   2
  -3   3  -1 304.745 69.7421   1
  -3  -3  -1 248.180 78.7899   4
  -3  -3  -1 228.264 82.9716   1
   3   3   1 369.984 100.787   3
  -3   3  -2 7047.78 285.615   1
  -3  -3  -2 7524.39 391.990   1
  -3   3  -2 7618.16 409.876   2
   3   3   2 6805.84 295.258   2
  -3  -3  -2 7538.32 375.905   4
   3   3   2 7172.87 334.699   3
  -3   3  -2 7887.63 415.793   3
  -3   3  -2 7249.03 348.065   4
  -3  -3  -3 823.121 128.611   1
  -3   3  -3 1027.47 116.855   1
   3   3   3 1207.84 139.061   2
  -3   3  -3 1001.90 157.367   2
  -3  -3  -3 884.500 141.243   4
   3   3   3 1163.07 135.708   3
  -3   3  -3 983.474 130.187   4
  -3   3  -3 1046.17 163.486   3
  -3   3  -4 22310.6 555.681   1
  -3   3  -4 20715.2 751.988   2
  -3  -3  -4 22990.4 729.853   1
  -3  -3  -4 21929.5 695.980   4
  -3   3  -4 22021.9 641.726   4
   3   3   4 20030.6 585.568   2
   3   3   4 20514.5 505.705   3
  -3   3  -4 21220.1 710.670   3
  -3   3  -5 3800.01 351.709   2
  -3   3  -5 3306.45 220.226   1
  -3  -3  -5 3487.07 298.820   1
  -3   3  -5 3552.62 270.936   4
  -3  -3  -5 3946.71 309.676   4
   3   3   5 3497.48 190.486   3
  -3   3  -5 3637.08 306.881   3
  -3   3  -6 17780.2 773.100   2
  -3  -3  -6 19243.0 705.967   1
  -3   3  -6 18248.4 549.088   1
  -3   3  -6 18289.5 625.712   4
  -3  -3  -6 18743.9 713.682   4
  -3   3  -6 19045.9 701.218   3
  -3   3  -7 1304.13 187.124   3
  -3   3  -7 1469.08 170.087   1
  -3  -3  -7 1602.29 221.079   1
  -3   3  -7 1380.62 180.057   4
  -3  -3  -7 1479.33 210.423   4
  -3   3  -8 22372.2 753.194   4
  -3  -3  -8 23422.4 850.703   4
  -3   3  -8 21882.7 679.300   1
  -3  -3  -8 24123.6 873.565   1
  -3   3  -8 22512.7 795.051   3
  -3  -3  -9 1802.04 252.151   1
  -3   3  -9 1826.16 234.153   4
  -3   3  -9 1683.84 219.816   3
  -3   3  -9 1384.21 175.047   1
  -3  -3 -10 14506.5 718.836   1
  -3   3 -10 13225.2 583.260   1
  -3   3 -10 13102.7 632.592   4
  -3   3 -10 13332.3 638.057   3
  -3   3 -11 388.271 138.659   3
  -3   3 -11 388.675 129.765   1
  -3  -3 -11 555.178 175.130   1
  -3  -3 -12 4982.70 467.076   1
  -3   3 -12 4087.22 381.307   3
  -3   3 -13 7.09676 101.631   3
  -3  -3 -13 91.7361 134.178   1
  -3  -3 -14 764.804 207.963   1
  -3  -4  16-99.1710 117.813   1
  -3   4  16-260.310 180.261   4
  -3   4  16-8.64539 109.062   1
   3   4 -16-5.37024 92.8302   3
  -3  -4  15 856.611 214.175   1
  -3   4  15 1195.01 266.299   4
  -3   4  15 898.396 226.808   1
   3   4 -15 834.591 218.333   3
  -3  -4  14-7.94269 76.3005   1
  -3   4  14 54.2948 91.1686   4
  -3   4  14 97.0248 136.553   2
  -3   4  14-82.9166 136.018   1
   3   4 -14 118.523 121.214   3
  -3  -4  13 346.572 131.098   1
  -3   4  13 483.075 142.520   4
  -3   4  13 513.059 194.166   2
  -3   4  13 334.318 141.804   1
   3   4 -13 597.699 189.606   3
  -3  -4  12-78.6515 73.9666   1
  -3   4  12-115.442 136.972   4
  -3   4  12 237.476 141.317   2
  -3   4  12-4.44580 96.6879   1
   3   4 -12-31.8889 90.5744   3
  -3  -4  11 329.290 122.128   1
  -3   4  11 83.5667 96.9864   4
  -3  -4  11 341.038 113.317   4
  -3   4  11 244.546 141.040   2
  -3   4  11 21.6795 92.0715   1
   3   4 -11 124.162 85.2939   3
  -3  -4  10-57.9122 72.3268   1
  -3   4  10-120.996 105.678   4
  -3  -4  10-38.5912 67.3943   4
  -3   4  10 91.6198 108.844   2
  -3   4  10-41.9107 71.0800   1
   3   4 -10-236.114 156.571   3
  -3  -4   9 990.983 182.572   1
  -3   4   9 837.983 173.411   4
  -3  -4   9 882.053 134.605   4
  -3   4   9 813.338 176.905   2
  -3   4   9 862.886 169.842   1
   3   4  -9 701.394 157.993   3
  -3   4   8 4850.05 403.950   4
  -3  -4   8 4100.76 271.491   4
  -3   4   8 4452.42 377.016   2
   3   4  -8 4268.90 385.637   3
  -3   4   8 4387.19 375.922   1
  -3  -4   8 4491.96 350.594   1
  -3   4   7 6680.57 447.295   4
  -3  -4   7 6150.33 313.784   4
  -3   4   7 6380.56 434.548   2
   3   4  -7 6452.54 459.126   3
  -3   4   7 6653.00 427.120   1
  -3  -4   7 6193.57 390.052   1
  -3   4   6-43.2054 68.0697   4
   3   4  -6 13.0556 66.2466   2
  -3  -4   6-39.1002 66.9054   1
  -3  -4   6 4.48321 52.4655   4
  -3   4   6 33.3957 60.9296   2
  -3   4   6-3.76466 65.3487   1
   3   4  -6 48.8024 67.1030   3
   3   4  -5 10859.7 473.043   2
  -3  -4   5 11335.0 393.487   4
  -3   4   5 11667.8 549.570   2
  -3   4   5 12065.6 552.628   4
   3   4  -5 10859.7 559.152   3
  -3   4   5 11167.5 506.017   1
  -3  -4   5 11112.8 481.344   1
  -3  -4   4 1159.27 176.769   1
   3   4  -4 888.587 131.162   2
  -3   4   4 905.208 170.577   4
  -3  -4   4 1125.06 138.499   4
  -3   4   4 640.040 144.060   2
  -3   4   4 1083.63 173.467   1
   3   4  -4 953.001 178.935   3
  -3  -4   3 26177.9 707.592   1
   3   4  -3 25481.3 649.553   2
  -3   4   3 27793.8 773.958   4
  -3  -4   3 25378.6 573.885   4
  -3   4   3 25598.5 780.538   2
   3   4  -3 26270.1 808.214   3
  -3   4   3 25325.4 664.521   1
  -3  -4   2 3114.70 276.438   1
   3   4  -2 1876.46 188.080   2
  -3   4   2 2051.04 258.160   2
  -3  -4   2 2595.13 215.446   4
   3   4  -2 3673.55 318.866   3
  -3   4   2 2476.58 232.839   1
  -3  -4   1 41343.2 889.020   1
   3   4  -1 40297.0 770.777   2
  -3   4   1 40708.4 988.721   2
  -3   4   1 41516.9 873.521   4
  -3  -4   1 40883.0 784.593   4
   3   4  -1 40602.1 929.559   3
  -3   4   1 39069.7 921.246   3
  -3   4   1 39183.3 724.351   1
  -3  -4   0 2240.32 224.894   1
  -3   4   0 2723.76 298.235   2
   3   4   0 2355.67 201.687   2
  -3  -4   0 2650.66 233.521   4
  -3   4   0 2793.73 243.578   4
   3   4   0 3174.86 282.630   3
  -3   4   0 3209.21 304.533   3
  -3   4   0 2212.23 172.942   1
  -3   4  -1 27865.7 535.643   1
  -3  -4  -1 30126.0 781.594   1
  -3   4  -1 29669.9 869.537   2
   3   4   1 28427.6 658.594   2
  -3   4  -1 29611.3 703.868   4
  -3  -4  -1 29287.9 722.513   4
   3   4   1 28933.9 731.015   3
  -3   4  -1 30101.3 849.733   3
  -3   4  -2 5450.18 229.193   1
   3   4   2 5832.65 314.173   2
  -3  -4  -2 6853.33 396.137   1
  -3   4  -2 5797.46 412.760   2
  -3   4  -2 6267.98 320.838   4
  -3  -4  -2 6155.11 348.194   4
   3   4   2 6678.59 332.724   3
  -3   4  -2 6811.93 414.391   3
  -3   4  -3 12083.3 354.453   1
  -3  -4  -3 14230.5 577.072   1
  -3   4  -3 12692.5 620.846   2
  -3   4  -3 13319.0 472.057   4
  -3  -4  -3 13307.8 532.288   4
   3   4   3 12834.8 483.697   2
   3   4   3 12750.6 431.451   3
  -3   4  -3 13485.6 591.968   3
  -3   4  -4-13.7899 62.8906   3
  -3  -4  -4 20.8557 75.5358   4
  -3   4  -4-0.84313 35.7447   1
  -3  -4  -4-49.9760 68.3349   1
  -3   4  -4-20.7869 88.4730   2
  -3   4  -4-37.4899 64.8182   4
   3   4   4 38.7473 61.5725   2
   3   4   4 90.7818 55.7196   3
  -3   4  -5 2016.91 209.261   4
  -3   4  -5 1908.41 274.951   2
  -3  -4  -5 1957.48 236.753   1
  -3   4  -5 1699.35 140.586   1
   3   4   5 1655.75 195.382   2
  -3  -4  -5 2026.82 238.155   4
  -3   4  -5 1830.92 232.619   3
  -3   4  -6 68.7049 98.4709   3
  -3   4  -6 159.049 109.006   2
  -3  -4  -6 12.3223 92.6921   1
  -3   4  -6 162.880 74.4668   4
  -3  -4  -6 60.4968 66.4498   4
   3   4   6 211.208 94.5507   2
  -3  -4  -7 116.088 63.5072   1
  -3   4  -7 136.463 68.4319   4
   3   4   7 127.755 76.3666   2
  -3   4  -8-117.353 121.623   3
  -3   4  -8 217.653 158.219   2
  -3  -4  -8 45.2519 78.0913   1
  -3   4  -8 75.3552 65.5233   4
  -3   4  -9-215.460 127.573   3
  -3   4  -9 136.378 92.1080   4
  -3  -4  -9-172.892 138.691   1
  -3   4 -10-196.928 145.588   3
  -3  -4 -10-83.0938 92.4233   1
  -3   4 -11 720.574 198.807   3
  -3  -4 -11 728.739 204.230   1
  -3  -4 -12 217.960 114.974   1
  -3   4 -12-90.4986 141.561   3
  -3   4 -13 1294.17 249.271   3
  -3  -4 -13 1794.06 320.226   1
  -3   4 -14-46.1012 118.438   3
  -3  -4 -14-14.1958 99.4330   1
  -3   5  15 656.627 212.620   4
  -3   5  15 836.620 248.015   2
  -3   5  15 373.046 180.469   1
   3   5 -15 743.435 228.580   3
  -3   5  14 2404.62 368.904   4
  -3   5  14 2248.77 363.740   2
   3   5 -14 2715.56 378.380   3
  -3   5  14 2011.31 325.392   1
  -3   5  13 267.129 159.419   4
  -3   5  13 191.140 165.948   2
  -3   5  13 182.420 118.123   1
   3   5 -13 142.988 114.442   3
  -3   5  12 4684.40 476.309   4
  -3   5  12 4827.23 477.126   2
   3   5 -12 4866.13 476.288   3
  -3   5  12 4780.36 459.984   1
  -3   5  11 3110.87 372.850   4
  -3   5  11 2896.43 357.057   2
   3   5 -11 3319.74 391.987   3
  -3   5  11 2608.18 340.710   1
  -3  -5  11 2559.80 294.703   1
  -3   5  10 2451.03 321.711   4
   3   5 -10 2648.42 339.298   3
  -3   5  10 2554.29 317.127   1
  -3   5  10 2079.50 292.660   2
  -3  -5  10 2479.94 278.265   1
  -3  -5   9 511.463 137.639   1
  -3   5   9 729.502 173.274   4
  -3   5   9 464.374 155.715   2
  -3   5   9 637.017 167.331   1
   3   5  -9 594.765 183.441   3
   3   5  -8 7833.89 506.355   2
  -3   5   8 7514.97 510.918   2
  -3   5   8 8140.36 532.608   4
   3   5  -8 8406.22 555.802   3
  -3   5   8 7819.20 501.005   1
  -3  -5   8 7829.99 445.327   1
  -3   5   7 795.113 164.987   4
  -3  -5   7 726.609 138.399   1
  -3   5   7 634.053 144.368   2
  -3   5   7 777.762 162.961   1
   3   5  -7 929.236 189.502   3
  -3  -5   6 5173.69 333.599   1
   3   5  -6 4985.38 374.041   2
  -3   5   6 4960.05 402.131   2
  -3   5   6 5561.85 409.983   4
   3   5  -6 5745.12 435.644   3
  -3   5   6 5218.52 372.143   1
  -3  -5   5 1243.47 167.458   1
  -3   5   5 1240.61 208.529   2
  -3  -5   5 927.381 103.257   4
   3   5  -5 1019.49 162.348   2
  -3   5   5 1168.46 190.655   4
   3   5  -5 1361.07 221.581   3
  -3   5   5 1283.04 188.329   1
  -3  -5   4 6245.38 352.070   1
   3   5  -4 6167.17 377.269   2
  -3  -5   4 5812.89 262.130   4
  -3   5   4 7214.98 429.064   4
  -3   5   4 6422.48 436.572   2
   3   5  -4 6542.40 440.828   3
  -3   5   4 6285.23 360.595   1
  -3   5   3-12.5616 50.0346   1
   3   5  -3-15.3198 48.6618   2
  -3   5   3 15.5534 73.2312   2
  -3  -5   3 7.78624 42.0363   4
  -3  -5   3-19.2431 56.8169   1
  -3   5   3 76.8947 69.6812   4
   3   5  -3 95.0059 83.4096   3
  -3  -5   2 1564.58 179.562   1
   3   5  -2 1597.80 189.677   2
  -3   5   2 1733.68 232.323   2
  -3   5   2 1726.32 197.924   4
  -3  -5   2 1642.81 156.626   4
   3   5  -2 1796.75 220.361   3
  -3   5   2 1935.90 225.389   3
  -3   5   2 1548.80 156.689   1
  -3  -5   1 1059.90 153.474   1
  -3  -5   1 936.220 125.882   4
   3   5  -1 819.694 126.265   2
  -3   5   1 874.161 177.290   2
  -3   5   1 957.288 144.116   4
  -3   5   1 1232.21 193.361   3
  -3   5   1 975.537 112.782   1
   3   5  -1 870.708 145.424   3
  -3   5   0 436.916 135.835   3
  -3   5   0 210.475 43.8929   1
  -3   5   0 229.855 86.2228   2
   3   5   0 340.371 74.1726   2
  -3  -5   0 364.304 85.8603   4
  -3   5   0 252.976 72.9539   4
  -3  -5   0 190.855 66.4531   1
   3   5   0 345.559 86.2590   3
  -3  -5  -1 81.8533 73.7789   4
  -3   5  -1 70.2202 53.4776   4
  -3   5  -1 89.6027 92.1567   2
   3   5   1 0.61995 49.2716   2
   3   5   1 51.0376 59.6936   3
  -3  -5  -1-71.8814 86.7458   1
  -3  -5  -2 5212.13 354.111   1
  -3   5  -2 5301.46 431.451   2
   3   5   2 5102.10 328.473   2
  -3   5  -2 5065.89 292.079   4
   3   5   2 5005.31 306.752   3
  -3   5  -2 5033.64 386.223   3
  -3   5  -3 479.890 122.803   3
  -3  -5  -3 359.986 119.372   1
  -3   5  -3 227.657 119.867   2
  -3   5  -3 208.646 64.8779   4
   3   5   3 397.890 110.239   2
  -3  -5  -3 417.567 120.034   4
   3   5   3 304.065 82.5281   3
  -3   5  -4 4947.83 431.205   2
  -3  -5  -4 5525.58 386.964   1
  -3   5  -4 5127.45 305.132   4
   3   5   4 5343.80 358.651   2
   3   5   4 4909.47 261.169   3
  -3   5  -4 5342.29 407.309   3
  -3   5  -5 1048.80 150.509   4
  -3  -5  -5 983.006 177.721   1
  -3   5  -5 577.794 141.523   2
   3   5   5 982.703 170.971   2
  -3   5  -6 6408.39 541.930   2
  -3  -5  -6 6689.65 454.853   1
   3   5   6 6487.65 426.708   2
  -3   5  -6 6735.36 472.888   3
  -3   5  -7 187.498 107.068   2
  -3  -5  -7 69.4757 69.8038   1
   3   5   7 29.3065 61.6932   2
  -3   5  -8 13338.4 819.479   2
  -3  -5  -8 14462.6 723.135   1
   3   5   8 12480.2 643.511   2
  -3   5  -8 12705.8 683.974   3
  -3   5  -9 3121.47 422.871   2
  -3  -5  -9 2926.61 340.598   1
   3   5   9 2683.13 320.265   2
  -3   5  -9 2398.78 297.808   3
  -3  -5 -10 2374.26 313.343   1
   3   5  10 2243.98 300.464   2
  -3   5 -10 2069.47 279.303   3
  -3  -5 -11 422.410 150.080   1
   3   5  11 638.185 190.869   2
  -3   5 -12 1415.24 243.179   3
  -3  -5 -12 1936.39 303.702   1
   3   5  12 2263.15 341.313   2
  -3   6  13 377.396 162.876   4
  -3   6  13 644.262 194.479   2
  -3   6  13 602.734 186.786   1
   3   6 -13 891.183 238.464   3
  -3   6  12 317.645 120.898   4
  -3   6  12-23.5535 130.016   2
  -3   6  12 114.668 111.310   1
   3   6 -12 408.344 167.473   3
  -3   6  11 27.4311 87.1936   4
  -3   6  11 111.222 89.0042   2
  -3   6  11 57.8310 82.1888   1
   3   6 -11 72.3428 100.915   3
  -3   6  10 450.892 153.537   4
  -3   6  10 619.226 141.188   2
  -3   6  10 548.913 146.894   1
   3   6 -10 724.048 191.161   3
  -3   6   9 130.441 73.8804   4
  -3   6   9-83.1979 112.326   1
   3   6  -9 62.3098 87.7984   3
   3   6  -8 228.009 139.639   2
  -3   6   8 130.364 87.0021   4
  -3   6   8-43.5130 113.302   2
  -3   6   8 81.1113 81.3360   1
   3   6  -8-93.8063 118.746   3
   3   6  -7 950.004 194.874   2
  -3   6   7 877.408 176.392   4
  -3   6   7 864.994 193.677   2
  -3   6   7 669.609 157.015   1
   3   6  -7 1232.02 233.064   3
  -3   6   6 693.359 169.777   2
   3   6  -6 906.827 171.926   2
  -3   6   6 1075.92 194.034   4
  -3  -6   6 741.630 126.830   1
  -3   6   6 891.051 167.336   1
   3   6  -6 1070.16 211.511   3
  -3  -6   5 9840.11 446.971   1
   3   6  -5 10226.4 554.482   2
  -3   6   5 11120.0 569.940   4
  -3   6   5 11523.9 645.306   2
   3   6  -5 11364.4 627.223   3
  -3   6   5 10096.4 504.908   1
   3   6  -4 566.401 128.378   2
  -3   6   4 928.897 159.748   4
  -3   6   4 774.319 165.520   2
  -3  -6   4 484.869 92.0831   1
   3   6  -4 962.887 182.194   3
  -3  -6   3 2086.71 209.333   1
   3   6  -3 1864.28 225.178   2
  -3   6   3 2051.85 274.322   2
  -3   6   3 2147.72 234.225   4
   3   6  -3 2145.97 262.489   3
  -3   6   3 2946.77 297.221   3
  -3  -6   2 3424.59 272.717   1
   3   6  -2 2812.92 275.716   2
  -3   6   2 2967.80 342.205   2
  -3   6   2 3082.62 277.024   4
   3   6  -2 3540.24 329.479   3
  -3  -6   1 7878.71 414.008   1
   3   6  -1 7671.86 448.945   2
  -3   6   1 7668.03 533.897   2
  -3   6   1 7864.44 397.312   4
   3   6  -1 8537.95 481.686   3
  -3   6   1 9009.20 523.586   3
  -3  -6   0 2389.62 240.680   1
  -3   6   0 2567.30 312.471   2
   3   6   0 2036.51 229.177   2
  -3  -6   0 2203.93 199.174   4
   3   6   0 2701.51 270.101   3
  -3   6   0 2803.71 297.992   3
  -3  -6  -1 4951.17 347.611   1
  -3   6  -1 5410.89 466.846   2
   3   6   1 5308.46 356.885   3
  -3   6  -1 5443.11 414.381   3
   3   6   1 5397.40 380.796   2
  -3  -6  -2 3662.65 307.257   1
  -3   6  -2 3836.74 411.599   2
   3   6   2 3646.67 311.969   2
   3   6   2 3652.01 282.232   3
  -3   6  -2 4176.82 368.384   3
   3   6   3 4154.91 339.000   2
  -3   6  -3 4526.09 441.706   2
  -3  -6  -3 3776.03 322.165   1
   3   6   3 4023.13 278.630   3
  -3   6  -3 4177.02 364.779   3
  -3   6  -4 708.152 138.509   3
  -3  -6  -4 1368.00 202.618   1
   3   6   4 1416.91 200.767   2
  -3   6  -4 1043.20 220.825   2
  -3   6  -5 2652.80 345.553   2
   3   6   5 2657.38 285.105   2
  -3  -6  -5 2963.50 313.367   1
  -3   6  -5 2609.87 301.022   3
  -3   6  -6-193.913 179.609   3
  -3   6  -6 54.4458 132.230   2
   3   6   6-196.251 136.541   2
  -3  -6  -6 102.974 86.5193   1
  -3   6  -7-151.654 143.614   3
  -3   6  -7 122.064 141.733   2
   3   6   7-17.7437 104.825   2
  -3  -6  -7 45.7579 91.5498   1
  -3   6  -8-228.040 157.467   3
  -3   6  -8 223.827 179.843   2
   3   6   8 56.0106 96.3383   2
  -3  -6  -8 145.789 98.7790   1
  -3   6  -9 122.776 157.012   3
   3   6   9 609.399 162.611   2
  -3  -6  -9 525.749 160.472   1
  -3  -6 -10 110.200 98.0084   1
  -3   6 -10-142.370 161.194   3
  -3   6 -10 389.273 238.643   2
   3   6  10 142.051 102.397   2
  -3   6 -11 1070.58 230.048   3
  -3  -6 -11 1416.40 274.822   1
   3   6  11 1447.95 258.057   2
  -3   7  11 884.959 219.273   4
  -3   7  11 926.590 224.828   2
  -3   7  11 849.626 204.603   1
   3   7 -11 1151.46 268.094   3
   3   7 -10 2529.96 375.839   2
  -3   7  10 2602.07 349.745   4
  -3   7  10 2765.49 371.523   2
   3   7 -10 2612.54 379.501   3
  -3   7  10 2545.02 329.897   1
  -3   7   9 423.049 144.215   4
   3   7  -9 972.610 266.041   2
  -3   7   9 466.235 139.530   2
   3   7  -9 443.938 175.295   3
   3   7  -8 2390.48 343.633   2
  -3   7   8 2484.96 343.625   2
  -3   7   8 2472.95 316.153   4
   3   7  -8 2848.67 368.430   3
  -3   7   7 967.690 215.120   2
   3   7  -7 1048.54 217.535   2
  -3   7   7 1174.81 211.263   4
   3   7  -7 963.052 229.763   3
   3   7  -6 2057.90 290.988   2
  -3   7   6 2166.20 314.070   2
  -3   7   6 2232.25 276.289   4
   3   7  -6 2437.70 328.448   3
  -3   7   5 821.883 202.964   2
   3   7  -5 565.692 142.776   2
   3   7  -5 800.158 188.124   3
   3   7  -4 2275.83 292.013   2
  -3   7   4 2292.55 314.797   2
   3   7  -4 2630.62 318.808   3
  -3   7   3 82.6617 77.4888   2
   3   7  -3 318.695 121.998   2
   3   7  -3 349.720 126.367   3
   3   7  -2-85.7836 93.7586   2
  -3   7   2-98.4098 98.3783   2
   3   7  -2 83.3669 82.1847   3
  -3   7   1 406.368 165.046   3
  -3  -7   1 150.019 69.4461   1
   3   7  -1 312.742 109.185   2
  -3   7   1 152.470 106.898   2
   3   7  -1 166.576 98.7056   3
  -3   7   0 338.822 160.976   3
  -3  -7   0 68.3980 71.8401   1
   3   7   0-4.96807 100.101   2
  -3   7   0-12.8873 89.8186   2
   3   7   0 104.377 84.3335   3
  -3   7  -1 397.434 167.421   3
  -3  -7  -1 273.287 107.201   1
  -3   7  -1 241.026 145.546   2
   3   7   1 339.433 119.358   2
   3   7   1 345.379 116.152   3
  -3   7  -2 3538.28 427.495   2
  -3  -7  -2 2845.49 277.722   1
   3   7   2 3041.03 320.855   2
   3   7   2 2907.57 266.645   3
  -3   7  -2 2871.88 324.296   3
  -3   7  -3 933.118 198.744   3
  -3  -7  -3 967.302 178.092   1
  -3   7  -3 1173.23 271.925   2
   3   7   3 983.891 188.400   2
  -3   7  -4 3310.38 420.846   2
  -3  -7  -4 2805.63 297.358   1
   3   7   4 3083.60 327.345   2
  -3   7  -4 3221.06 355.576   3
  -3   7  -5 363.648 107.413   3
  -3   7  -5 304.349 149.110   2
   3   7   5 415.423 135.375   2
  -3  -7  -5 466.030 128.630   1
  -3   7  -6 1813.88 265.194   3
   3   7   6 1877.25 263.061   2
  -3  -7  -6 1957.00 276.078   1
  -3   7  -6 1856.57 326.648   2
  -3   7  -7 1804.47 254.758   3
  -3  -7  -7 2365.14 304.160   1
  -3   7  -7 2404.26 385.957   2
   3   7   7 2480.45 308.762   2
  -3   7  -8 2207.68 313.691   3
  -3   7  -8 3071.87 461.497   2
   3   7   8 2125.16 295.944   2
  -3  -7  -8 2486.13 319.189   1
  -3   7  -9 1845.09 286.204   3
  -3   7  -9 2735.84 447.635   2
   3   7   9 2036.33 285.047   2
  -3  -7  -9 2038.98 304.068   1
   3   8  -9 784.381 246.472   2
   3   8  -9 422.806 176.269   3
   3   8  -8 880.503 226.178   2
   3   8  -8 495.782 182.935   3
   3   8  -7 463.912 169.031   2
   3   8  -7 699.489 197.978   3
   3   8  -6 2586.62 353.344   2
   3   8  -6 2952.62 377.993   3
   3   8  -5 250.407 88.9743   2
   3   8  -5 899.161 219.061   3
   3   8  -4 2044.37 300.937   3
   3   8  -3 3061.91 353.255   3
  -3   8   3 3762.72 377.705   3
  -3   8   2 1171.01 224.499   2
   3   8  -2 1131.98 200.472   2
   3   8  -2 1671.76 255.423   3
  -3   8   1 1342.58 264.058   2
   3   8  -1 1526.55 245.323   3
   3   8   0 1873.55 254.658   3
  -3   8   0 1973.90 295.181   3
   3   8   1 3401.29 321.251   3
  -3   8  -1 3444.13 371.091   3
  -3   8  -2 1622.88 265.345   3
  -3   8  -2 1815.91 334.324   2
  -3   8  -3 762.440 185.703   3
  -3   8  -3 998.917 248.506   2
   3   8   3 841.910 183.139   2
  -3   8  -4 891.660 202.584   3
  -3   8  -4 954.602 238.088   2
   3   8   4 852.857 192.323   2
  -3  -8  -4 676.129 149.543   1
  -3   8  -5 82.0002 112.587   3
  -3   8  -5-24.4868 160.653   2
   3   8   5 283.816 118.816   2
  -3  -8  -5-13.5028 85.6273   1
  -3   8  -6 159.180 119.387   3
  -3   8  -6 201.792 123.073   2
   3   8   6 499.883 150.460   2
  -3  -8  -6 253.320 98.2807   1
   3   9  -2 48.2921 77.4310   3
   3   9  -2 181.938 82.3624   2
   3   9  -1 29.2514 85.4937   3
  -3   9   1 21.3430 102.306   2
   3   9   0 211.432 109.261   3
  -3   9   0 611.972 202.181   3
  -4   0  16 3075.08 393.965   4
   4   0 -16 2621.42 331.481   3
  -4   0  16 3347.86 459.357   1
  -4   0  14 738.101 182.462   4
   4   0 -14 772.539 197.159   3
  -4   0  14 890.309 231.690   1
  -4   0  12 16233.7 781.305   4
   4   0 -12 14908.0 738.490   3
  -4   0  12 17131.9 853.653   1
  -4   0  10 1481.91 228.763   4
  -4   0  10 1537.40 253.475   1
  -4   0   8 2454.37 268.427   4
  -4   0   8 2331.99 283.097   1
  -4   0   6 179.743 86.6570   1
  -4   0   6 82.2788 71.8377   4
  -4   0   4 13410.7 545.965   4
  -4   0   4 12978.1 552.543   1
  -4   0   2 2064.46 215.441   4
  -4   0   2 1934.66 206.889   1
  -4   0   0 51427.8 1015.03   1
  -4   0   0 54092.6 1069.31   4
  -4   0  -2 37947.9 887.503   1
  -4   0  -2 38816.9 919.266   4
  -4   0  -4 41751.1 977.582   1
  -4   0  -4 42884.9 1035.36   4
  -4   0  -6 12202.9 570.206   1
  -4   0  -6 12853.5 600.669   4
  -4   0  -8 15953.0 720.708   4
  -4   0  -8 16342.3 694.810   1
  -4   0 -10 7392.19 519.696   1
  -4   0 -10 7232.60 532.078   4
  -4   0 -12 1009.74 217.172   1
  -4   0 -14 90.8007 131.461   1
  -4   1  17 130.693 168.045   4
  -4  -1  17 171.918 110.994   4
  -4   1  17 558.367 223.163   1
   4   1 -17 162.885 128.660   3
  -4  -1  17 403.841 204.198   1
  -4   1  16 129.673 109.146   4
  -4  -1  16 70.9943 114.953   4
  -4   1  16 133.092 145.983   1
   4   1 -16-56.9491 86.4746   3
  -4  -1  16-18.7019 97.0458   1
  -4   1  15 253.621 131.873   4
  -4  -1  15 289.482 138.060   4
   4  -1 -15 123.258 86.6907   3
  -4   1  15 309.685 152.903   1
   4   1 -15 244.942 113.491   3
  -4  -1  15 200.397 168.507   1
  -4   1  14 76.9389 99.8518   4
  -4  -1  14-24.2700 95.6954   4
   4  -1 -14 5.51550 92.7220   3
  -4   1  14 16.4189 101.013   1
   4   1 -14-77.4891 100.879   3
  -4  -1  14 143.051 135.431   1
  -4   1  13-103.706 104.262   4
  -4  -1  13-29.0016 100.792   4
   4   1 -13 128.536 123.175   3
  -4   1  13 160.329 134.037   1
  -4  -1  13 80.0773 110.431   1
  -4   1  12 195.416 107.372   4
  -4  -1  12 36.1437 90.4466   4
   4   1 -12 160.229 122.606   3
  -4   1  12 273.589 152.342   1
  -4  -1  12 102.573 109.057   1
  -4   1  11 9235.12 577.826   4
  -4  -1  11 8475.38 528.690   4
   4   1 -11 7936.50 537.461   3
  -4   1  11 9121.75 614.184   1
  -4  -1  11 8771.85 579.225   1
  -4  -1  10 493.780 147.264   1
  -4   1  10 583.131 157.157   4
  -4  -1  10 491.394 135.112   4
   4   1 -10 701.081 173.952   3
  -4   1  10 705.373 193.870   1
  -4   1   9 12137.5 620.994   4
  -4  -1   9 11969.8 587.294   4
  -4   1   9 12495.1 656.422   1
  -4  -1   9 12780.3 648.712   1
  -4   1   8 506.090 139.664   1
  -4  -1   8 483.658 147.621   1
  -4   1   8 554.370 146.187   4
  -4  -1   8 534.316 145.455   4
  -4   1   7 9667.43 526.226   4
  -4   1   7 10085.5 542.930   1
  -4  -1   7 10255.2 547.311   1
  -4  -1   7 9745.05 501.326   4
  -4  -1   6 4002.27 319.357   4
  -4   1   6 4259.93 353.983   4
  -4   1   6 3967.37 262.729   2
  -4   1   6 4344.79 355.710   1
  -4  -1   6 4171.91 345.479   1
  -4   1   5 43525.1 1045.57   4
  -4  -1   5 42207.5 970.929   4
  -4   1   5 44686.9 1042.75   1
  -4  -1   5 44216.7 1048.44   1
  -4   1   4 216.221 119.732   1
  -4  -1   4 365.020 156.371   1
  -4   1   4 136.945 118.508   4
  -4  -1   4 226.772 122.627   4
  -4   1   4-50.7705 54.5262   2
  -4   1   3 20042.4 671.316   4
  -4  -1   3 21229.3 655.820   4
  -4   1   3 21265.5 679.513   1
  -4  -1   3 19964.3 673.889   1
  -4  -1   1 23991.5 728.550   1
  -4   1   1 25126.6 725.363   4
  -4  -1   1 25082.1 728.817   4
  -4   1   1 23944.4 682.622   1
  -4   1   0 3549.99 270.953   1
  -4  -1   0 3972.35 306.802   1
  -4  -1   0 3616.12 282.850   4
  -4   1   0 3609.16 286.347   4
  -4   1  -1 16610.3 563.918   1
  -4  -1  -1 16365.2 596.573   1
  -4   1  -1 14433.9 460.598   2
  -4   1  -1 16355.7 596.103   4
  -4  -1  -1 16868.4 601.726   4
  -4   1  -2 616.007 109.340   2
  -4   1  -2 798.762 140.953   4
  -4  -1  -2 628.816 132.606   4
  -4   1  -2 745.287 122.456   1
  -4  -1  -2 812.850 138.918   1
  -4   1  -3 21.3291 75.5297   4
  -4  -1  -3 155.747 91.4391   4
  -4   1  -3 153.602 76.0849   1
  -4  -1  -3 142.050 71.5237   1
  -4   1  -4 1105.04 156.129   1
  -4   1  -4 920.574 159.776   4
  -4  -1  -4 752.750 153.748   4
  -4  -1  -4 866.790 154.108   1
  -4  -1  -5 310.006 85.1179   1
  -4   1  -5 273.213 101.077   4
  -4  -1  -5 368.475 120.606   4
  -4   1  -5 413.110 109.966   1
  -4   1  -6 71.0118 59.2711   1
  -4  -1  -6 329.879 107.635   1
  -4   1  -6 369.054 125.413   4
  -4  -1  -6 188.678 108.111   4
  -4  -1  -7 1776.66 238.599   1
  -4   1  -7 1607.82 210.906   1
  -4   1  -7 1458.24 213.417   4
  -4  -1  -7 1675.43 239.010   4
  -4  -1  -8 139.087 127.408   1
  -4   1  -8 208.297 122.974   1
  -4   1  -8 61.5428 117.977   4
  -4  -1  -8 243.904 172.064   4
  -4  -1  -9 11095.5 618.611   1
  -4   1  -9 9667.33 561.813   1
  -4   1  -9 10114.8 593.958   4
  -4  -1  -9 9668.83 599.712   4
  -4  -1 -10 72.1886 93.5726   1
  -4   1 -10 25.9547 93.8756   4
  -4  -1 -10 211.638 116.904   4
  -4   1 -10 167.049 113.571   1
  -4  -1 -11 4235.64 413.445   1
  -4   1 -11 3905.13 385.402   1
  -4   1 -11 4067.43 401.728   4
  -4  -1 -11 4078.00 412.737   4
  -4  -1 -12 186.511 128.577   1
  -4   1 -12 59.6928 72.2620   1
  -4  -1 -13 4268.97 444.011   1
  -4   1 -13 4250.34 438.259   1
  -4  -1 -14 30.1063 103.199   1
  -4   1 -14 194.226 131.757   1
  -4   2  17 142.316 151.298   4
  -4  -2  17 67.6601 100.225   4
  -4   2  17 71.5475 140.746   1
   4   2 -17 186.073 121.469   3
  -4  -2  17 279.643 127.384   1
  -4   2  16 1748.51 324.965   4
  -4  -2  16 1474.85 279.437   4
  -4   2  16 1709.95 315.859   1
   4   2 -16 1250.30 251.248   3
  -4  -2  16 1784.77 327.456   1
  -4  -2  15 227.647 155.939   1
  -4   2  15-2.29537 93.3107   4
  -4  -2  15-91.6049 97.8019   4
  -4   2  15 99.7199 127.137   1
   4   2 -15-62.5293 113.051   3
  -4   2  14 3111.66 411.296   4
  -4  -2  14 3327.82 372.276   4
   4   2 -14 3055.63 362.534   3
  -4   2  14 3328.51 422.343   1
  -4  -2  14 3086.47 396.552   1
  -4  -2  13-63.4059 100.977   1
  -4   2  13 66.6021 126.605   4
  -4  -2  13 80.7093 104.226   4
  -4   2  13 194.375 141.124   1
   4   2 -13 54.0006 88.4566   3
  -4   2  12 6942.09 543.158   4
  -4  -2  12 6526.03 475.953   4
   4   2 -12 6065.06 496.135   3
  -4   2  12 6895.86 556.565   1
  -4  -2  12 7126.64 548.078   1
  -4  -2  11 874.928 198.577   1
  -4   2  11 1072.13 210.838   4
   4   2 -11 1291.01 231.497   3
  -4   2  11 1388.04 267.532   1
  -4  -2  11 1257.97 211.669   4
  -4  -2  10 3208.83 317.703   4
  -4   2  10 2931.88 327.789   4
   4   2 -10 3143.26 337.826   3
  -4   2  10 3278.48 358.287   1
  -4  -2  10 3443.60 363.377   1
  -4  -2   9 12.8545 82.8588   1
  -4   2   9 110.545 111.889   4
  -4  -2   9 124.338 82.3382   4
   4   2  -9 73.7945 91.0922   3
  -4   2   9 149.808 110.861   1
  -4   2   8 8627.42 523.010   4
  -4  -2   8 8069.28 458.148   4
  -4   2   8 8281.97 461.052   2
   4   2  -8 7647.42 497.537   3
  -4   2   8 8581.20 524.848   1
  -4  -2   8 8547.61 517.308   1
  -4   2   7 3260.31 322.020   4
  -4  -2   7 3102.05 278.033   4
  -4   2   7 3003.26 264.257   2
   4   2  -7 3020.40 313.603   3
  -4   2   7 3124.18 308.439   1
  -4  -2   7 2737.43 286.655   1
  -4   2   6 10.5569 61.6979   1
  -4  -2   6-5.42940 63.8752   1
  -4   2   6-43.7073 88.6474   4
  -4  -2   6 27.5888 61.5568   4
  -4   2   6 65.9670 52.9228   2
  -4   2   5 1081.79 174.569   1
  -4   2   5 1143.52 188.260   4
  -4  -2   5 1280.59 173.167   4
  -4   2   5 1025.31 138.772   2
  -4  -2   5 1385.31 197.302   1
  -4   2   4 4780.51 354.309   4
  -4   2   4 4446.90 272.196   2
  -4  -2   4 4822.16 317.554   4
  -4   2   4 4758.53 335.989   1
  -4  -2   4 4828.22 344.453   1
  -4   2   3 1410.79 143.675   2
  -4   2   3 1762.91 208.969   4
  -4  -2   3 1673.35 185.526   4
  -4   2   3 1827.57 210.874   1
  -4  -2   3 1832.59 207.886   1
  -4  -2   2 3168.39 280.210   1
  -4   2   2 2312.53 187.283   2
  -4   2   2 3296.83 294.098   4
  -4  -2   2 3051.16 265.034   4
  -4   2   2 2877.29 249.140   1
  -4  -2   1 3433.62 305.930   1
  -4   2   1 3908.78 320.179   4
  -4  -2   1 3492.73 290.342   4
  -4   2   1 3337.29 270.721   1
  -4   2   0 15139.8 523.869   1
  -4  -2   0 14665.7 575.976   1
  -4   2   0 15442.1 575.110   4
  -4  -2   0 15229.6 564.602   4
  -4   2  -1 1149.42 155.025   1
  -4   2  -1 865.879 133.939   2
  -4   2  -1 1112.94 167.694   4
  -4  -2  -1 1086.54 156.190   4
  -4  -2  -1 877.101 156.911   1
  -4   2  -2 14779.7 522.751   1
  -4  -2  -2 15677.9 623.209   1
  -4   2  -2 13969.9 544.144   2
  -4   2  -2 15663.6 590.682   4
  -4  -2  -2 16369.4 620.062   4
  -4   2  -3 161.156 81.5997   2
  -4   2  -3 103.979 57.4565   4
  -4  -2  -3 269.763 107.626   4
  -4   2  -3 14.4552 53.6045   1
  -4  -2  -3 201.540 91.8743   1
  -4   2  -4 21713.8 659.744   1
  -4   2  -4 20956.1 750.868   2
  -4  -2  -4 24109.2 796.959   1
  -4   2  -4 22560.3 736.508   4
  -4  -2  -4 22226.7 773.195   4
  -4   2  -5 42.9277 49.3185   1
  -4  -2  -5 61.4632 74.7004   1
  -4   2  -5 16.3688 61.5373   4
  -4  -2  -5 189.023 110.415   4
  -4   2  -6 25210.0 765.286   1
  -4  -2  -6 25051.5 868.059   1
  -4   2  -6 27014.6 877.879   4
  -4  -2  -6 25197.3 861.095   4
  -4  -2  -7 2290.64 265.626   1
  -4   2  -7 2236.37 237.580   1
  -4   2  -7 2599.21 281.608   4
  -4  -2  -7 2375.92 276.226   4
  -4   2  -7 2248.29 244.939   3
  -4  -2  -8 3946.47 367.018   1
  -4   2  -8 3612.16 313.167   1
  -4  -2  -8 3900.25 379.347   4
  -4   2  -8 4287.49 349.679   3
  -4   2  -8 4023.16 361.964   4
  -4   2  -9 929.529 186.020   3
  -4   2  -9 596.243 135.630   1
  -4  -2  -9 432.290 115.604   1
  -4   2  -9 443.354 134.392   4
  -4  -2  -9 668.860 167.780   4
  -4   2 -10 1131.89 202.671   3
  -4  -2 -10 1069.13 215.795   1
  -4   2 -10 876.826 177.805   4
  -4  -2 -10 895.541 194.757   4
  -4   2 -10 1090.46 196.299   1
  -4   2 -11 143.066 99.2563   3
  -4   2 -11 126.941 115.289   4
  -4  -2 -11-68.5618 105.520   1
  -4   2 -11-63.9695 87.8546   1
  -4   2 -12 159.916 102.290   1
  -4  -2 -12 192.726 106.953   1
  -4   2 -13-169.550 144.121   1
  -4  -2 -13-161.843 158.459   1
  -4  -2 -14 83.0456 144.548   1
  -4   2 -14 124.969 124.408   1
  -4  -3  16-71.6036 103.484   1
  -4   3  16-75.2485 128.950   4
  -4  -3  16 250.414 136.162   4
  -4   3  16-68.0124 143.745   1
   4   3 -16 7.40409 100.229   3
  -4  -3  15 156.212 157.112   1
  -4   3  15-35.9827 129.961   4
  -4  -3  15-8.17504 90.2959   4
  -4   3  15-132.692 119.470   1
   4   3 -15-59.5292 107.298   3
  -4  -3  14 80.8403 82.0095   1
  -4   3  14 81.9796 86.8506   4
  -4  -3  14 177.444 99.8705   4
  -4   3  14 264.148 167.707   1
   4   3 -14 187.450 118.121   3
  -4  -3  13 251.440 136.062   1
  -4   3  13 274.937 160.810   4
  -4  -3  13 334.803 116.563   4
  -4   3  13 181.415 124.161   1
   4   3 -13 233.754 118.725   3
  -4  -3  12 405.675 155.670   1
  -4   3  12 505.591 163.819   4
  -4  -3  12 389.204 132.230   4
  -4   3  12 556.567 207.889   2
  -4   3  12 497.662 164.326   1
   4   3 -12 400.191 146.212   3
  -4   3  11 3002.12 348.943   4
  -4  -3  11 2827.85 299.138   4
  -4   3  11 2738.42 323.850   2
   4   3 -11 2445.01 320.033   3
  -4   3  11 3199.09 368.747   1
  -4  -3  11 2658.76 323.892   1
  -4  -3  10 223.073 124.560   1
  -4   3  10 349.199 158.091   4
  -4  -3  10 198.272 76.8472   4
  -4   3  10 386.376 142.080   2
  -4   3  10 437.851 174.505   1
   4   3 -10 291.963 121.077   3
  -4   3   9 3321.63 344.615   4
  -4  -3   9 3606.35 314.975   4
  -4   3   9 3272.94 323.909   2
   4   3  -9 3566.45 356.998   3
  -4   3   9 3564.46 366.025   1
  -4  -3   9 3162.01 331.204   1
  -4   3   8 1954.48 271.556   4
  -4  -3   8 1828.26 216.676   4
  -4   3   8 1956.29 242.234   2
   4   3  -8 1848.56 251.148   3
  -4   3   8 2080.50 277.293   1
  -4  -3   8 2203.27 269.169   1
  -4   3   7 8015.56 503.975   4
  -4  -3   7 7584.08 417.325   4
  -4   3   7 7619.34 451.158   2
   4   3  -7 7438.74 496.237   3
  -4   3   7 7706.47 482.028   1
  -4  -3   7 8613.86 506.554   1
  -4   3   6 193.187 114.668   1
  -4  -3   6 156.667 98.9335   1
  -4  -3   6 262.054 99.0220   4
  -4   3   6 83.8714 66.5455   2
  -4   3   6 370.613 149.350   4
   4   3  -6 423.724 149.034   3
  -4   3   5 29352.0 907.406   4
  -4   3   5 28409.5 799.352   2
  -4  -3   5 28673.1 759.153   4
   4   3  -5 26255.4 874.487   3
  -4   3   5 28202.2 845.128   1
  -4  -3   5 28381.2 855.959   1
  -4  -3   4 1641.86 230.048   1
  -4   3   4 1076.57 157.459   2
  -4   3   4 1332.18 223.701   4
   4   3  -4 1437.44 231.689   3
  -4   3   4 1442.61 212.259   1
  -4  -3   3 17223.5 648.461   1
  -4  -3   3 18617.3 613.924   4
  -4   3   3 17638.1 662.955   4
  -4   3   3 15655.1 553.886   2
   4   3  -3 16628.5 667.319   3
  -4   3   3 17327.2 609.375   1
  -4   3   2 191.501 104.115   1
  -4   3   2 134.849 111.503   4
  -4   3   2-36.6082 58.3286   2
  -4  -3   2 175.607 91.7646   4
  -4  -3   2 271.414 138.613   1
  -4  -3   1 7871.65 431.085   1
  -4   3   1 7084.12 386.522   2
  -4   3   1 7782.34 429.881   4
  -4  -3   1 7972.26 401.277   4
  -4   3   1 7835.89 379.815   1
  -4   3   0 235.804 75.9147   2
  -4   3   0 184.014 59.6173   1
  -4   3   0 227.718 86.5220   4
  -4  -3   0 268.096 93.0828   4
  -4  -3   0 284.174 119.607   1
  -4   3  -1 1710.27 173.479   1
  -4  -3  -1 1838.56 220.478   1
  -4   3  -1 1745.08 209.574   2
  -4   3  -1 1814.62 210.004   4
  -4  -3  -1 1863.67 207.154   4
  -4   3  -2 2093.29 192.780   1
  -4  -3  -2 2260.07 250.145   1
  -4   3  -2 1554.73 197.327   2
   4   3   2 1900.35 152.697   2
  -4  -3  -2 2432.92 253.848   4
  -4   3  -2 2088.98 228.762   4
  -4   3  -3 497.929 132.731   3
  -4   3  -3 554.167 126.224   4
  -4   3  -3 412.509 114.606   2
  -4  -3  -3 623.800 142.084   4
   4   3   3 461.572 84.1804   2
  -4   3  -3 488.008 97.7424   1
  -4  -3  -3 517.362 110.244   1
  -4  -3  -4 213.162 87.9239   1
  -4   3  -4 322.586 121.838   3
  -4   3  -4 354.232 120.986   2
  -4   3  -4 318.877 101.189   4
  -4  -3  -4 294.794 99.5278   4
   4   3   4 187.366 62.3687   2
  -4   3  -4 310.358 90.9141   1
  -4   3  -5-57.9830 74.5215   1
  -4   3  -5 293.161 141.759   3
  -4  -3  -5-55.4404 85.3889   1
  -4   3  -5 177.116 131.052   2
  -4   3  -5 84.7984 80.5388   4
  -4  -3  -5-0.43274 79.6049   4
  -4   3  -6 386.192 153.386   3
  -4   3  -6 314.165 163.551   2
  -4   3  -6 334.883 113.673   1
  -4  -3  -6 840.514 212.079   1
  -4   3  -6 416.498 149.565   4
  -4  -3  -6 336.008 174.187   4
  -4   3  -7 665.946 178.878   3
  -4   3  -7 598.498 131.803   1
  -4  -3  -7 554.958 141.866   1
  -4   3  -7 679.072 152.745   4
  -4  -3  -7 653.959 161.212   4
  -4  -3  -8 2057.07 277.266   1
  -4   3  -8 1811.44 255.967   4
  -4  -3  -8 2066.18 294.979   4
  -4   3  -8 1076.19 156.601   1
  -4   3  -8 1788.19 261.919   3
  -4   3  -9 6937.85 433.553   1
  -4  -3  -9 7704.06 550.023   1
  -4   3  -9 7685.83 504.095   4
  -4  -3  -9 7790.13 543.386   4
  -4   3  -9 7608.32 498.056   3
  -4   3 -10 225.431 116.463   3
  -4  -3 -10 245.471 124.573   1
  -4   3 -10 137.020 126.696   4
  -4   3 -10 1.11263 79.9569   1
  -4   3 -11 2978.43 342.215   4
  -4  -3 -11 3276.90 379.990   1
  -4   3 -11 2791.22 325.303   3
  -4   3 -12 474.539 171.177   3
  -4  -3 -12 135.639 111.973   1
  -4  -3 -13 3916.02 447.105   1
  -4  -4  15 155.788 122.097   1
  -4   4  15 112.196 120.558   4
  -4   4  15 370.513 191.999   2
  -4   4  15 214.056 129.821   1
   4   4 -15 189.445 141.298   3
  -4   4  14 2104.89 348.681   2
  -4   4  14 1921.36 319.203   4
  -4   4  14 2201.81 349.778   1
  -4  -4  14 2077.14 321.247   1
   4   4 -14 1685.18 292.965   3
  -4  -4  13 277.978 141.184   1
  -4   4  13 348.178 157.414   4
  -4   4  13 373.798 181.135   2
  -4   4  13 231.321 130.649   1
   4   4 -13 440.443 191.377   3
  -4   4  12 3591.62 404.545   4
  -4   4  12 4270.73 439.390   2
   4   4 -12 4023.40 430.404   3
  -4   4  12 3531.05 414.446   1
  -4  -4  12 3655.98 406.080   1
  -4  -4  11 86.4932 92.5405   1
  -4   4  11 7.40906 101.578   4
  -4  -4  11-13.7205 77.7366   4
  -4   4  11-30.8192 99.3238   2
  -4   4  11 104.407 110.601   1
   4   4 -11-38.3242 94.8777   3
  -4   4  10 3649.32 383.943   4
  -4  -4  10 2989.41 281.504   4
  -4   4  10 3406.14 365.931   2
   4   4 -10 2750.65 343.364   3
  -4   4  10 3181.61 361.733   1
  -4  -4  10 3076.22 338.443   1
  -4  -4   9 239.180 111.834   1
  -4   4   9 178.683 108.194   4
  -4  -4   9 238.257 94.1152   4
  -4   4   9 212.690 118.116   2
  -4   4   9 272.697 133.233   1
   4   4  -9 44.4353 96.6629   3
  -4   4   8 2443.88 300.354   4
  -4  -4   8 1933.27 217.124   4
  -4   4   8 2185.88 274.626   2
   4   4  -8 2110.73 282.685   3
  -4   4   8 2658.10 306.512   1
  -4  -4   8 2219.51 267.223   1
  -4  -4   7-46.1206 82.3944   1
  -4   4   7 28.4992 79.9890   4
  -4  -4   7 1.43266 53.6492   4
  -4   4   7-148.445 137.090   2
   4   4  -7 65.4684 80.6576   3
  -4   4   7 57.5437 71.5435   1
  -4   4   6 192.570 82.1616   1
  -4   4   6 273.647 105.423   4
  -4  -4   6 309.958 119.029   1
  -4  -4   6 278.179 89.6002   4
  -4   4   6 234.621 89.8973   2
   4   4  -6 267.145 111.001   3
  -4   4   5 211.587 81.0584   1
   4   4  -5 344.847 97.8997   2
  -4   4   5 247.850 96.3185   4
  -4  -4   5 335.916 106.004   1
  -4  -4   5 330.115 89.2462   4
  -4   4   5 250.692 84.1738   2
   4   4  -5 331.469 119.110   3
  -4   4   4 82.3020 67.9559   1
   4   4  -4 81.8310 33.3730   2
  -4   4   4 93.4820 94.9401   4
  -4   4   4 60.9019 77.3884   2
  -4  -4   4 110.814 68.3319   4
  -4  -4   4 159.388 94.5587   1
   4   4  -4 36.9819 74.0124   3
   4   4  -3 761.662 106.585   2
  -4   4   3 1032.71 154.506   1
  -4   4   3 1041.19 182.565   4
  -4   4   3 1053.47 171.062   2
  -4  -4   3 814.109 132.521   4
  -4  -4   3 876.164 163.211   1
   4   4  -3 1014.89 179.646   3
  -4  -4   2 1880.74 217.452   1
   4   4  -2 1212.58 115.952   2
  -4   4   2 1711.01 212.554   2
  -4   4   2 2037.32 231.487   4
  -4  -4   2 1625.77 176.633   4
   4   4  -2 1786.69 228.099   3
  -4   4   2 1967.79 203.693   1
  -4  -4   1 2191.08 248.505   1
   4   4  -1 1422.93 134.672   2
  -4   4   1 1733.75 230.433   2
  -4  -4   1 1981.92 221.041   4
  -4   4   1 2248.20 248.438   4
   4   4  -1 1979.67 240.279   3
  -4   4   1 1931.31 194.675   1
  -4   4   0 6638.31 332.248   1
  -4  -4   0 7124.95 425.295   1
  -4   4   0 6871.91 430.210   2
   4   4   0 6561.47 292.673   2
  -4   4   0 7281.07 411.474   4
  -4  -4   0 7433.44 407.819   4
   4   4   0 6894.25 413.904   3
  -4   4  -1 1151.54 143.369   1
  -4  -4  -1 1530.93 212.455   1
   4   4   1 1272.26 140.449   2
  -4  -4  -1 1560.02 216.112   4
  -4   4  -1 1134.78 189.668   2
  -4   4  -1 1409.41 195.119   4
   4   4   1 1389.34 193.537   3
  -4   4  -2 12521.2 437.499   1
  -4  -4  -2 12887.7 593.583   1
  -4   4  -2 12476.9 618.525   2
  -4   4  -2 12637.6 540.304   4
   4   4   2 12165.0 438.450   2
  -4  -4  -2 13550.6 578.050   4
   4   4   2 12040.5 506.649   3
  -4   4  -2 13676.3 624.544   3
  -4  -4  -3 1084.42 182.068   1
  -4  -4  -3 1388.04 202.959   4
   4   4   3 943.099 130.801   2
  -4   4  -3 832.671 169.505   2
  -4   4  -3 959.003 152.185   4
   4   4   3 1087.54 155.181   3
  -4   4  -3 902.296 123.525   1
  -4   4  -4 13308.8 472.173   1
  -4   4  -4 13352.3 680.827   2
  -4  -4  -4 15181.4 680.314   1
   4   4   4 13157.1 508.864   2
  -4   4  -4 14376.1 586.422   4
  -4  -4  -4 13883.7 628.732   4
   4   4   4 12772.3 476.284   3
  -4   4  -4 14008.3 658.870   3
  -4   4  -5 6762.29 511.816   2
  -4  -4  -5 7386.79 490.308   1
   4   4   5 6694.50 389.067   2
  -4   4  -5 7210.37 430.176   4
  -4  -4  -5 7558.37 480.130   4
  -4   4  -5 8260.19 524.425   3
  -4   4  -6 4792.30 459.307   2
  -4  -4  -6 5966.01 446.027   1
   4   4   6 5094.18 355.411   2
  -4  -4  -6 5662.20 435.798   4
  -4   4  -6 5562.12 395.415   4
  -4   4  -6 5738.62 440.494   3
  -4   4  -7 1282.64 232.462   3
   4   4   7 1476.92 232.313   2
  -4  -4  -7 805.949 172.180   1
  -4   4  -7 1198.57 265.758   2
  -4   4  -7 758.095 148.154   4
  -4  -4  -7 1235.81 218.807   4
  -4  -4  -8 3219.67 351.603   1
  -4   4  -8 2837.88 299.206   4
   4   4   8 3048.23 316.723   2
  -4  -4  -8 2913.80 339.674   4
  -4   4  -8 2818.60 330.457   3
  -4   4  -9 1460.82 244.219   3
  -4  -4  -9 1021.69 198.224   1
  -4   4  -9 1112.62 195.560   4
  -4   4 -10 885.537 203.528   3
  -4   4 -10 651.148 163.116   4
  -4  -4 -10 612.662 170.745   1
  -4   4 -11 422.887 171.257   3
  -4  -4 -11 300.255 142.401   1
  -4   4 -12 33.7051 92.7408   3
  -4  -4 -12 61.7294 82.5111   1
  -4   5  14 452.300 179.389   4
  -4   5  14 715.922 202.222   2
  -4   5  14 396.148 179.304   1
   4   5 -14 471.808 177.287   3
  -4  -5  13-43.7137 114.711   1
  -4   5  13 285.990 146.399   4
  -4   5  13 311.195 154.297   2
  -4   5  13-4.53567 99.3477   1
   4   5 -13 275.095 146.299   3
  -4  -5  12 247.105 114.311   1
  -4   5  12 284.215 144.585   4
  -4   5  12 116.904 123.924   2
  -4   5  12 197.432 127.836   1
   4   5 -12 140.215 102.917   3
  -4  -5  11 881.362 191.942   1
  -4   5  11 620.697 181.872   4
  -4   5  11 964.220 220.826   2
  -4   5  11 918.750 207.871   1
   4   5 -11 813.221 186.820   3
  -4  -5  10 314.828 130.224   1
  -4   5  10 600.065 170.968   4
  -4   5  10 225.441 106.653   2
  -4   5  10 713.102 191.251   1
   4   5 -10 241.215 88.9141   3
  -4   5   9 3850.91 399.037   4
  -4   5   9 3059.05 342.130   2
   4   5  -9 3063.32 365.235   3
  -4   5   9 3763.31 394.919   1
  -4  -5   9 3287.87 334.156   1
  -4   5   8 1787.37 277.676   4
  -4   5   8 1664.83 248.916   2
  -4  -5   8 1333.45 213.464   1
  -4   5   8 1582.16 243.294   1
   4   5  -8 1411.28 231.657   3
  -4  -5   7 5947.59 415.296   1
   4   5  -7 6174.14 410.081   2
  -4   5   7 7489.81 512.991   4
  -4   5   7 6738.54 488.742   2
   4   5  -7 6415.61 494.847   3
  -4   5   7 7090.30 477.262   1
  -4   5   6 844.638 170.630   1
   4   5  -6 766.639 148.621   2
  -4   5   6 893.657 188.674   4
  -4  -5   6 957.163 176.981   1
  -4  -5   6 840.689 121.791   4
  -4   5   6 698.790 162.030   2
   4   5  -6 722.129 166.587   3
  -4  -5   5 5901.40 409.458   1
   4   5  -5 4676.13 325.367   2
  -4   5   5 5864.72 439.655   4
  -4   5   5 4877.68 410.757   2
  -4  -5   5 4947.63 305.394   4
   4   5  -5 5350.89 432.403   3
  -4   5   5 5260.98 382.667   1
  -4  -5   4 9852.50 512.561   1
   4   5  -4 7981.95 405.602   2
  -4   5   4 9483.36 556.352   2
  -4   5   4 10369.1 564.110   4
  -4  -5   4 8504.64 394.084   4
   4   5  -4 9947.23 573.850   3
  -4   5   4 9218.97 477.073   1
  -4  -5   3 12094.9 561.844   1
   4   5  -3 11448.6 473.408   2
  -4   5   3 12871.0 637.634   2
  -4  -5   3 11857.2 477.482   4
  -4   5   3 12608.3 594.620   4
   4   5  -3 12652.4 630.612   3
  -4   5   3 12116.6 507.637   1
  -4  -5   2 1855.54 225.687   1
   4   5  -2 2071.15 201.759   2
  -4   5   2 2421.94 295.323   2
  -4   5   2 2104.94 254.899   4
  -4  -5   2 2064.33 215.256   4
   4   5  -2 2638.20 294.937   3
  -4   5   2 2263.85 222.152   1
  -4  -5   1 6969.90 431.908   1
   4   5  -1 6885.89 358.479   2
  -4   5   1 7280.63 496.555   2
  -4   5   1 7620.86 432.310   4
  -4  -5   1 6977.81 392.500   4
   4   5  -1 7408.54 454.224   3
  -4   5   1 6631.11 332.967   1
  -4   5   0-56.5588 84.6706   2
   4   5   0-146.305 104.498   2
  -4   5   0 87.8171 68.7448   4
  -4  -5   0 161.795 84.7427   4
  -4  -5   0 23.9390 57.6305   1
   4   5   0 199.245 102.160   3
  -4  -5  -1 2615.21 276.402   1
  -4   5  -1 2606.40 310.104   2
   4   5   1 2318.17 209.612   2
  -4   5  -1 2927.51 263.191   4
  -4  -5  -1 2590.89 256.655   4
   4   5   1 2393.89 246.185   3
  -4  -5  -2 255.676 109.705   1
   4   5   2 185.747 66.0048   2
  -4   5  -2 219.161 84.2240   4
  -4  -5  -2 219.267 96.9438   4
  -4   5  -2 62.9231 87.3372   2
   4   5   2 73.8829 57.1585   3
  -4  -5  -3 107.526 77.7471   1
  -4   5  -3-122.839 137.339   2
   4   5   3 95.7935 63.8684   2
  -4   5  -3 30.9600 65.5666   4
  -4  -5  -3 98.6776 75.7224   4
   4   5   3-45.6284 70.4988   3
  -4  -5  -4 584.387 142.603   1
  -4   5  -4 553.933 133.303   2
  -4   5  -4 565.721 116.538   4
   4   5   4 551.200 121.442   2
  -4  -5  -4 613.774 146.997   4
  -4   5  -5 225.082 146.383   3
  -4   5  -5 112.433 81.1404   2
  -4  -5  -5 51.5134 83.0906   1
  -4   5  -5 52.2088 65.9714   4
  -4  -5  -5 25.0627 67.4090   4
  -4   5  -6 539.725 185.385   3
  -4  -5  -6 1067.52 224.755   1
  -4   5  -6 445.662 197.500   2
   4   5   6 450.362 129.115   2
  -4  -5  -6 631.939 190.313   4
  -4   5  -7 1379.46 254.807   3
  -4  -5  -7 1610.36 258.544   1
  -4   5  -7 1301.65 271.941   2
   4   5   7 1283.79 202.085   2
  -4   5  -8 146.207 117.843   3
  -4   5  -8-8.66533 123.116   2
  -4  -5  -8-52.6932 76.1889   1
   4   5   8 75.2026 83.8568   2
  -4   5  -9 1163.57 231.854   3
   4   5   9 1172.66 220.204   2
  -4  -5  -9 1251.65 238.376   1
  -4   5 -10 309.502 139.686   3
   4   5  10 395.159 145.197   2
  -4  -5 -10 291.384 124.352   1
  -4  -5 -11 3482.64 411.227   1
   4   5  11 3394.15 389.574   2
  -4   5 -11 3049.82 373.125   3
  -4   6  13 254.753 147.749   4
  -4   6  13 435.453 163.100   2
  -4   6  13 525.663 195.960   1
   4   6 -13 246.193 142.713   3
  -4   6  12 1170.87 248.171   4
  -4   6  12 1417.48 281.500   2
  -4   6  12 1452.50 283.309   1
   4   6 -12 1749.23 314.344   3
  -4   6  11-19.5887 97.0665   4
  -4   6  11-300.974 191.832   2
  -4   6  11 23.8768 113.810   1
   4   6 -11 42.9133 119.610   3
  -4   6  10 2072.84 314.891   4
  -4   6  10 2111.22 321.221   2
   4   6 -10 2407.35 347.726   3
  -4   6  10 2495.92 335.207   1
  -4   6   9 364.037 135.498   4
  -4   6   9 118.917 74.8256   2
  -4   6   9 487.043 174.553   1
   4   6  -9 287.393 145.949   3
   4   6  -8 1334.52 233.446   2
  -4   6   8 1448.06 254.255   4
  -4  -6   8 1169.56 193.581   1
  -4   6   8 1066.46 226.385   2
  -4   6   8 1327.40 230.451   1
   4   6  -8 1218.81 243.199   3
   4   6  -7 894.080 184.230   2
  -4   6   7 865.039 199.823   4
  -4   6   7 509.037 159.038   2
  -4  -6   7 873.176 168.803   1
   4   6  -7 730.629 176.969   3
  -4   6   7 840.311 181.568   1
  -4   6   6 181.350 108.905   1
   4   6  -6 204.501 86.8809   2
  -4   6   6 119.648 93.9866   4
  -4   6   6 286.343 133.278   2
   4   6  -6 30.9669 81.1402   3
   4   6  -5 197.300 68.9809   2
  -4   6   5 354.026 133.551   4
  -4   6   5 258.124 128.023   2
   4   6  -5 202.599 101.587   3
   4   6  -4 503.255 114.601   2
  -4   6   4 707.447 161.760   4
  -4   6   4 408.580 120.588   2
   4   6  -4 353.200 102.103   3
   4   6  -3-193.537 122.107   2
  -4   6   3-8.54062 66.2513   4
  -4   6   3-29.2686 103.213   2
   4   6  -3-64.3762 107.570   3
  -4   6   2 530.180 128.589   2
  -4   6   2 691.305 148.949   4
   4   6  -2 525.995 108.268   2
  -4  -6   2 867.470 162.934   1
   4   6  -2 629.140 129.856   3
  -4  -6   1 1266.30 219.439   1
  -4  -6   1 1188.28 178.104   4
   4   6  -1 1077.81 170.218   2
  -4   6   1 1101.08 235.173   2
  -4   6   1 1086.33 179.368   4
   4   6  -1 1087.85 194.284   3
  -4  -6   0 6146.08 425.483   1
  -4   6   0 5759.02 491.749   2
   4   6   0 5805.23 376.995   2
  -4   6   0 5830.73 375.231   4
  -4  -6   0 5480.98 354.502   4
   4   6   0 6264.83 423.616   3
  -4   6   0 7277.18 501.246   3
  -4  -6  -1 1060.82 185.100   1
  -4   6  -1 936.040 229.379   2
   4   6   1 1069.35 170.871   2
  -4  -6  -1 1102.16 178.101   4
   4   6   1 1183.12 186.193   3
  -4   6  -1 1793.88 279.993   3
  -4  -6  -2 3704.38 344.528   1
  -4   6  -2 3794.59 422.215   2
   4   6   2 3282.97 289.766   2
  -4  -6  -2 3418.56 309.605   4
   4   6   2 3641.71 298.498   3
  -4   6  -2 4571.15 425.464   3
  -4   6  -3 2379.62 356.573   2
  -4  -6  -3 2845.93 311.165   1
   4   6   3 2574.58 267.559   2
  -4  -6  -3 2587.33 280.826   4
  -4   6  -4 9834.13 682.296   2
  -4  -6  -4 10040.8 588.307   1
   4   6   4 9753.00 518.190   2
  -4  -6  -4 9154.75 532.195   4
  -4   6  -4 10367.6 643.856   3
  -4   6  -5 3165.60 406.835   2
  -4  -6  -5 3000.02 331.781   1
   4   6   5 3084.08 303.712   2
  -4   6  -5 3932.03 404.728   3
  -4   6  -6 4065.80 471.168   2
  -4  -6  -6 4704.66 427.308   1
   4   6   6 4596.77 377.699   2
  -4   6  -6 4898.57 457.801   3
  -4   6  -7 1367.82 260.968   3
  -4   6  -7 1259.20 279.881   2
  -4  -6  -7 836.249 195.969   1
   4   6   7 985.269 184.920   2
  -4   6  -8 2333.33 393.913   2
  -4  -6  -8 1993.66 297.971   1
   4   6   8 2356.02 296.052   2
  -4   6  -8 2137.53 323.997   3
  -4   6  -9 1168.65 240.333   3
  -4   6  -9 1362.83 337.818   2
   4   6   9 1057.55 208.799   2
  -4  -6  -9 1149.51 229.167   1
  -4   6 -10 519.771 181.803   3
   4   6  10 295.626 114.754   2
  -4  -6 -10 402.055 137.786   1
  -4   7  10 417.517 164.766   4
  -4   7  10 115.466 109.680   2
   4   7 -10 245.510 139.775   3
  -4   7   9 636.954 197.755   4
  -4   7   9 671.739 201.844   2
   4   7  -9 785.763 214.925   3
   4   7  -8 2750.40 350.206   2
  -4   7   8 2926.02 370.327   4
   4   7  -8 2984.08 388.037   3
   4   7  -7 3031.87 355.442   2
  -4   7   7 3169.06 366.522   4
   4   7  -7 2979.41 373.738   3
   4   7  -6 314.465 112.886   2
  -4   7   6 476.696 159.406   4
   4   7  -6 194.464 117.689   3
   4   7  -5 2538.98 296.775   2
   4   7  -5 3118.58 365.889   3
   4   7  -4 1338.11 206.076   2
   4   7  -4 1917.83 288.529   3
   4   7  -3 3171.85 317.038   2
   4   7  -3 3892.71 387.055   3
   4   7  -2 998.740 177.586   2
  -4   7   2 1027.69 229.052   2
   4   7  -2 1333.34 225.830   3
  -4  -7   1 3029.44 308.771   1
   4   7  -1 2914.15 297.720   2
  -4   7   1 3774.63 422.770   2
   4   7  -1 3400.58 342.379   3
  -4   7   1 3461.18 363.323   3
  -4  -7   0 765.069 168.722   1
  -4   7   0 1187.03 242.947   3
  -4   7   0 777.051 196.154   2
   4   7   0 510.709 104.680   2
   4   7   0 923.025 178.535   3
  -4  -7  -1 365.604 117.840   1
  -4   7  -1 355.106 143.197   2
   4   7   1 255.649 71.4332   2
   4   7   1 480.562 124.627   3
  -4  -7  -2 325.097 121.857   1
  -4   7  -2 175.689 128.760   2
   4   7   2 59.2977 61.6243   2
  -4   7  -3 971.872 235.091   3
  -4  -7  -3 655.560 166.928   1
  -4   7  -3 629.481 191.342   2
   4   7   3 522.178 142.232   2
  -4  -7  -4-0.81133 65.6411   1
  -4   7  -4-261.824 203.804   2
   4   7   4-101.710 89.6287   2
  -4   7  -5 482.703 192.240   3
  -4   7  -5 272.034 136.702   2
  -4  -7  -5 231.492 130.862   1
   4   7   5 324.761 113.740   2
  -4   7  -6 158.616 119.056   3
  -4   7  -6 6.84773 110.462   2
   4   7   6 77.5363 68.1168   2
  -4  -7  -6-136.431 127.872   1
  -4   7  -7 1421.34 270.401   3
  -4   7  -7 1032.17 289.333   2
   4   7   7 1144.49 211.378   2
  -4  -7  -7 955.761 211.471   1
   4   8  -7 20.3964 121.318   3
   4   8  -6 268.378 148.894   3
   4   8  -5 99.4375 102.251   3
   4   8  -4 26.0628 95.1378   3
   4   8  -3 289.276 126.297   3
   4   8  -2 908.704 205.212   3
  -4   8   1 1189.70 248.965   3
   4   8  -1 637.955 175.024   3
  -4   8   0 1284.38 256.713   3
   4   8   0 606.814 151.242   3
  -4   8  -1 983.437 248.428   3
  -4   8  -2 2444.75 348.924   3
  -4   8  -3 1565.41 302.883   3
  -4  -8  -3 801.135 173.550   1
  -4   8  -4 1823.18 322.199   3
  -4   8  -4 1116.25 265.724   2
  -4  -8  -4 1330.59 225.924   1
  -5   0  15 1756.09 322.737   1
  -5   0  15 1710.66 307.155   4
   5   0 -15 1366.95 268.344   3
  -5   0  13 5192.89 486.460   4
  -5   0  13 5463.18 523.227   1
  -5   0  11 2485.57 323.003   4
  -5   0  11 2375.40 325.742   1
  -5   0   9 10705.6 610.319   4
  -5   0   9 10774.2 637.484   1
  -5   0   7 8420.08 514.260   4
  -5   0   7 8268.02 528.563   1
  -5   0   5 20738.2 776.008   4
  -5   0   5 21094.1 798.775   1
  -5   0   3 10430.1 532.735   4
  -5   0   3 10140.3 531.064   1
  -5   0   1 29.2343 59.8586   4
  -5   0   1-60.4504 86.6609   1
  -5   0  -1 273.964 106.286   4
  -5   0  -1 263.523 105.254   1
  -5   0  -3 3286.55 306.335   1
  -5   0  -3 3222.46 316.691   4
  -5   0  -5 3000.32 302.560   1
  -5   0  -5 3064.58 324.684   4
  -5   0  -7 7174.80 500.800   1
  -5   0  -7 6982.84 505.283   4
  -5   0  -9 6292.23 487.718   1
  -5   0  -9 5803.60 501.600   4
  -5   0 -11 3166.71 388.244   1
  -5   0 -11 2823.21 371.012   4
  -5   0 -13 2088.02 331.115   1
  -5  -1  16 1820.79 343.340   1
  -5   1  16 1750.80 314.925   4
  -5  -1  16 1747.16 319.897   4
  -5   1  16 2240.55 395.914   1
   5  -1 -16 1369.91 267.274   3
   5   1 -16 1534.45 284.591   3
  -5  -1  15 142.012 105.567   1
  -5   1  15 25.3823 104.473   4
  -5  -1  15 204.787 138.951   4
   5  -1 -15 161.609 115.797   3
   5   1 -15 210.276 125.757   3
  -5   1  15 405.846 188.823   1
  -5  -1  14 1938.62 328.804   1
  -5   1  14 1928.56 328.519   4
  -5  -1  14 1971.42 307.242   4
   5   1 -14 1630.15 286.642   3
  -5   1  14 2034.73 346.018   1
  -5   1  13 159.132 148.594   1
  -5  -1  13 15.6229 93.0426   1
  -5   1  13 47.4552 107.380   4
  -5  -1  13 67.8282 108.489   4
   5   1 -13 275.728 150.000   3
  -5   1  12 1195.61 263.045   1
  -5  -1  12 825.706 221.811   1
  -5   1  12 1158.43 234.790   4
  -5  -1  12 1000.75 212.309   4
   5   1 -12 1132.61 261.782   3
  -5   1  11 1184.07 240.028   1
  -5  -1  11 1029.04 206.714   1
  -5   1  11 1161.92 226.152   4
  -5  -1  11 1348.46 240.987   4
  -5   1  10 223.264 124.080   1
  -5  -1  10 390.066 153.724   1
  -5   1  10 308.535 111.842   4
  -5  -1  10 315.125 127.504   4
  -5   1   9 10.0969 93.4454   1
  -5  -1   9 93.4039 107.891   1
  -5   1   9-128.124 131.760   4
  -5  -1   9 158.089 110.045   4
  -5   1   8 412.803 151.348   1
  -5  -1   8 465.542 158.735   1
  -5   1   8 446.310 129.603   4
  -5  -1   8 644.687 156.830   4
  -5   1   8 403.165 109.211   2
  -5   1   7 50.1197 111.411   1
  -5  -1   7 178.967 91.2219   1
  -5   1   7 47.3109 76.3148   4
  -5  -1   7 150.501 96.3552   4
  -5   1   7 78.9412 62.1292   2
  -5   1   6 1316.87 218.085   1
  -5   1   6 1299.24 148.254   2
  -5   1   6 1439.26 216.684   4
  -5  -1   6 1289.85 196.987   4
  -5  -1   6 1513.07 233.908   1
  -5  -1   5 574.951 166.550   1
  -5   1   5 671.892 172.725   4
  -5  -1   5 559.087 163.749   4
  -5   1   5 628.848 163.803   1
  -5   1   5 455.268 88.9294   2
  -5   1   4 6121.38 262.890   2
  -5   1   4 8142.87 491.672   4
  -5  -1   4 7478.70 461.009   4
  -5   1   4 7913.23 480.472   1
  -5  -1   4 7747.42 477.885   1
  -5   1   3 827.042 92.3586   2
  -5   1   3 3252.16 343.492   1
  -5  -1   2 22048.0 784.015   1
  -5   1   2 21884.8 779.600   4
  -5  -1   2 22446.5 776.133   4
  -5   1   2 21916.8 746.344   1
  -5   1   1 52.5981 60.3694   2
  -5   1   1 222.424 154.043   1
  -5   1   1 379.992 191.534   4
  -5  -1   1 247.493 182.567   4
  -5  -1   1 328.951 177.696   1
  -5   1   0 14790.0 609.151   1
  -5  -1   0 14756.6 634.594   1
  -5   1   0 14921.1 655.143   4
  -5  -1   0 14694.7 630.920   4
  -5   1  -1 135.096 76.0246   2
  -5   1  -1 133.021 97.1786   4
  -5  -1  -1 237.432 121.946   4
  -5   1  -1 173.934 99.4466   1
  -5  -1  -1 151.909 101.542   1
  -5   1  -2 12895.7 580.388   1
  -5  -1  -2 14417.5 636.584   1
  -5   1  -2 13257.0 618.268   4
  -5  -1  -2 14537.6 639.083   4
  -5   1  -3-20.4869 73.8614   4
  -5  -1  -3-59.7628 88.9517   4
  -5   1  -3-58.1095 72.0646   1
  -5  -1  -3-96.1656 94.2992   1
  -5   1  -4 9831.50 526.051   1
  -5  -1  -4 9914.77 553.323   1
  -5   1  -4 10087.6 567.826   4
  -5  -1  -4 9526.77 560.012   4
  -5   1  -5 1702.25 226.232   1
  -5  -1  -5 1710.35 247.382   1
  -5   1  -5 1490.25 222.094   4
  -5  -1  -5 1456.86 236.489   4
  -5   1  -6 2570.53 282.564   1
  -5  -1  -6 2430.23 293.439   1
  -5   1  -6 2693.33 319.068   4
  -5  -1  -6 2776.33 318.200   4
  -5   1  -7 787.446 176.025   1
  -5  -1  -7 1088.09 221.307   1
  -5   1  -7 1016.86 221.782   4
  -5  -1  -7 908.313 203.415   4
  -5  -1  -8 1618.45 256.906   1
  -5   1  -8 1619.25 244.201   1
  -5   1  -8 1620.21 260.102   4
  -5  -1  -8 1839.58 283.328   4
  -5  -1  -9 185.520 133.882   1
  -5   1  -9 381.302 134.087   1
  -5   1  -9 230.218 134.119   4
  -5  -1  -9 232.941 149.081   4
  -5  -1 -10 36.3320 110.303   1
  -5   1 -10 7.10000 83.4067   1
  -5   1 -10 21.6421 104.556   4
  -5  -1 -10 127.316 124.474   4
  -5  -1 -11-88.3932 110.586   1
  -5   1 -11 132.026 126.491   4
  -5  -1 -11 49.7323 113.864   4
  -5   1 -11-23.7490 105.731   1
  -5   1 -12 768.687 200.799   4
  -5  -1 -12 600.947 179.505   4
  -5  -1 -12 439.565 168.157   1
  -5   1 -12 650.751 188.974   1
  -5  -2  16 22.2007 101.603   1
  -5   2  16-72.9146 102.180   4
  -5  -2  16 100.943 101.383   4
   5   2 -16 11.0220 115.151   3
  -5   2  16 13.4340 104.920   1
  -5  -2  15 907.533 253.081   1
  -5   2  15 663.506 209.177   4
  -5  -2  15 797.995 206.665   4
   5   2 -15 604.226 196.399   3
  -5   2  15 900.366 266.178   1
  -5  -2  14 382.971 176.184   1
  -5   2  14 226.537 138.478   4
  -5  -2  14 151.542 103.001   4
   5   2 -14 138.759 123.213   3
  -5   2  14 280.309 153.846   1
  -5  -2  13 1770.75 310.569   1
  -5   2  13 2157.70 332.838   4
  -5  -2  13 2091.44 297.594   4
   5   2 -13 1673.83 294.959   3
  -5   2  13 1948.82 328.926   1
  -5  -2  12 647.118 199.510   1
  -5   2  12 354.888 149.542   4
  -5  -2  12 412.054 143.073   4
   5   2 -12 301.702 179.866   3
  -5   2  12 445.517 182.524   1
  -5  -2  11 1499.60 263.234   1
  -5   2  11 1912.98 296.515   4
  -5  -2  11 1782.67 259.075   4
  -5   2  11 2035.04 276.640   2
   5   2 -11 1939.20 320.136   3
  -5   2  11 1831.50 305.790   1
  -5   2  10 943.712 234.006   1
  -5  -2  10 543.202 188.366   1
  -5   2  10 735.531 217.692   4
  -5  -2  10 826.783 189.648   4
  -5   2  10 527.662 160.773   2
   5   2 -10 743.146 225.607   3
  -5   2   9 25929.4 997.945   4
  -5  -2   9 24717.8 895.951   4
  -5   2   9 23038.1 813.744   2
   5   2  -9 22670.3 934.454   3
  -5   2   9 25527.6 979.569   1
  -5  -2   9 25308.0 975.970   1
  -5   2   8 599.898 176.881   1
  -5  -2   8 309.155 133.566   1
  -5   2   8 501.821 163.656   4
  -5  -2   8 357.461 106.436   4
  -5   2   8 253.797 97.0554   2
  -5   2   7 6236.84 478.190   4
  -5  -2   7 6124.17 420.509   4
  -5   2   7 5795.97 357.580   2
  -5   2   7 5944.70 451.314   1
  -5  -2   7 6382.27 473.271   1
  -5   2   6 1014.40 191.165   1
  -5  -2   6 1148.88 200.227   1
  -5   2   6 1196.05 211.519   4
  -5  -2   6 1062.66 185.488   4
  -5   2   6 909.655 140.806   2
  -5   2   5 7471.42 483.410   4
  -5   2   5 6279.31 339.432   2
  -5  -2   5 7424.86 446.572   4
  -5   2   5 7126.20 458.992   1
  -5  -2   5 7557.36 480.314   1
  -5   2   4 404.922 132.802   1
  -5  -2   4 439.019 138.796   1
  -5   2   4 394.250 146.428   4
  -5   2   4 292.528 82.1834   2
  -5  -2   4 429.618 131.179   4
  -5  -2   3 3038.61 309.884   1
  -5   2   3 2409.26 202.356   2
  -5   2   3 3178.93 319.220   4
  -5  -2   3 3314.98 302.974   4
  -5   2   3 2911.29 288.514   1
  -5  -2   2 2152.47 257.108   1
  -5   2   2 1559.82 162.715   2
  -5   2   2 2235.12 251.739   4
  -5  -2   2 2005.92 243.663   4
  -5   2   2 2042.07 225.232   1
  -5   2   1 210.535 66.3339   2
  -5   2   1 394.862 120.976   1
  -5   2   1 379.240 128.696   4
  -5  -2   1 547.521 146.994   4
  -5  -2   1 553.938 159.441   1
  -5   2   0 2868.28 264.819   1
  -5  -2   0 2709.84 287.965   1
  -5   2   0 2501.76 223.292   2
  -5   2   0 2757.99 285.990   4
  -5  -2   0 2764.55 276.325   4
  -5   2  -1 263.798 87.2125   2
  -5   2  -1 374.498 106.893   4
  -5  -2  -1 301.081 101.084   4
  -5   2  -1 407.935 115.128   1
  -5  -2  -1 389.285 119.726   1
  -5   2  -2 101.469 71.4141   2
  -5   2  -2 80.3629 64.8107   4
  -5  -2  -2 141.230 104.472   4
  -5   2  -2 84.0946 74.2122   1
  -5  -2  -2 75.6436 81.3700   1
  -5   2  -3 3469.56 297.025   1
  -5  -2  -3 3686.43 346.711   1
  -5   2  -3 2960.94 287.585   2
  -5   2  -3 3309.06 307.136   4
  -5  -2  -3 4015.69 355.571   4
  -5   2  -4 1992.81 233.837   1
  -5  -2  -4 1743.95 255.928   1
  -5   2  -4 1863.52 243.349   4
  -5  -2  -4 2216.38 301.686   4
  -5   2  -5 7735.23 460.850   1
  -5  -2  -5 7969.04 531.669   1
  -5   2  -5 7656.08 498.905   4
  -5  -2  -5 7492.94 511.127   4
  -5   2  -6 292.922 97.9604   1
  -5  -2  -6 178.387 111.851   1
  -5   2  -6 287.826 124.986   4
  -5  -2  -6 175.749 119.604   4
  -5   2  -7 11563.4 595.583   1
  -5  -2  -7 13012.2 695.164   1
  -5   2  -7 12615.7 668.805   4
  -5  -2  -7 12806.6 690.145   4
  -5  -2  -8 615.874 161.205   1
  -5   2  -8 637.197 142.234   1
  -5   2  -8 877.865 205.844   4
  -5  -2  -8 596.227 172.125   4
  -5  -2  -9 3969.64 408.514   1
  -5   2  -9 4148.41 382.447   1
  -5   2  -9 4081.73 404.439   4
  -5  -2  -9 3983.06 425.247   4
  -5  -2 -10-180.305 158.721   1
  -5   2 -10-201.781 138.545   1
  -5   2 -10 137.708 103.428   4
  -5  -2 -10 19.1548 107.221   4
  -5  -2 -11 5930.64 547.327   1
  -5   2 -11 5145.69 444.866   1
  -5   2 -11 5222.47 500.671   4
  -5  -2 -11 5273.60 506.953   4
  -5   2 -12 97.4218 84.9283   4
  -5  -2 -12-33.5000 118.281   1
  -5   2 -12 86.5608 79.7401   1
  -5  -3  15 257.707 165.067   1
  -5   3  15-57.8450 94.9494   4
  -5  -3  15-14.8768 84.3172   4
  -5   3  15 116.877 109.269   2
   5   3 -15-74.2933 133.860   3
  -5   3  15 127.297 169.884   1
  -5  -3  14 686.434 211.582   1
  -5   3  14 599.538 193.552   4
  -5  -3  14 400.463 137.661   4
  -5   3  14 631.429 197.421   2
   5   3 -14 288.482 130.165   3
  -5   3  14 437.511 200.891   1
  -5  -3  13 128.921 133.116   1
  -5   3  13 173.592 133.504   4
  -5  -3  13-29.8770 74.6050   4
  -5   3  13-5.90320 90.7730   2
   5   3 -13 269.740 126.507   3
  -5   3  13 266.671 161.226   1
  -5  -3  12 1741.58 292.270   1
  -5   3  12 1842.07 311.514   4
  -5  -3  12 1819.88 269.633   4
  -5   3  12 1648.43 274.048   2
   5   3 -12 1375.80 268.146   3
  -5   3  12 1714.22 304.475   1
  -5  -3  11 113.543 79.0230   1
  -5   3  11 97.0567 105.365   4
  -5  -3  11 27.6032 76.7786   4
  -5   3  11-8.11790 76.1788   2
   5   3 -11 11.2802 86.2086   3
  -5   3  11 122.273 135.217   1
  -5   3  10-21.1965 88.2247   1
  -5  -3  10 137.981 124.036   1
  -5   3  10-81.7922 111.384   4
  -5  -3  10 232.282 111.770   4
  -5   3  10 103.687 85.3260   2
   5   3 -10 192.523 141.276   3
  -5   3   9-14.3652 90.8636   1
  -5  -3   9-35.8273 75.7745   1
  -5   3   9 51.2278 105.566   4
  -5  -3   9 60.1608 92.7473   4
  -5   3   9 11.7615 91.3892   2
   5   3  -9 53.8419 103.609   3
  -5   3   8 2146.84 314.906   4
  -5  -3   8 1821.94 235.620   4
  -5   3   8 1697.79 217.175   2
   5   3  -8 2717.48 347.868   3
  -5   3   8 2081.98 286.284   1
  -5  -3   8 2164.80 284.924   1
  -5   3   7 1910.27 273.486   4
  -5  -3   7 1876.82 241.699   4
  -5   3   7 1681.88 208.947   2
   5   3  -7 2177.98 294.891   3
  -5   3   7 2328.44 284.767   1
  -5  -3   7 2048.41 279.074   1
  -5   3   6 1251.71 181.294   2
  -5  -3   6 819.496 174.315   1
  -5   3   6 1372.54 232.531   4
  -5  -3   6 1051.69 171.069   4
   5   3  -6 1441.40 253.224   3
  -5   3   6 1381.80 222.094   1
  -5  -3   5 2431.25 304.770   1
  -5   3   5 1865.68 213.784   2
  -5   3   5 2243.69 300.026   4
  -5  -3   5 2247.91 257.575   4
   5   3  -5 2364.88 315.050   3
  -5   3   5 2317.40 283.696   1
  -5  -3   4 9454.43 542.007   1
  -5   3   4 7915.75 415.146   2
  -5   3   4 9371.07 541.023   4
  -5  -3   4 9105.36 490.643   4
  -5   3   4 8895.61 502.196   1
  -5  -3   3 822.306 223.165   1
  -5   3   3 726.386 231.789   4
  -5   3   3 528.659 180.622   1
  -5   3   3 301.344 103.335   2
  -5  -3   3 601.927 173.094   4
  -5  -3   2 12348.3 617.444   1
  -5   3   2 12660.1 613.613   4
  -5  -3   2 12651.6 579.872   4
  -5   3   2 12041.9 546.384   1
  -5   3   1 2636.51 283.621   1
  -5  -3   1 3354.32 353.322   1
  -5   3   1 3352.01 351.779   4
  -5   3   0 19165.3 664.326   1
  -5  -3   0 21212.8 793.717   1
  -5   3   0 20204.3 755.417   4
  -5  -3   0 19936.2 735.381   4
  -5   3  -1-55.4701 82.9510   2
  -5   3  -1 196.173 136.561   4
  -5  -3  -1 266.487 142.290   4
  -5   3  -1 204.167 106.618   1
  -5  -3  -1 128.717 126.419   1
  -5   3  -2 20345.8 678.805   1
  -5  -3  -2 20871.8 813.684   1
  -5   3  -2 18748.8 721.953   2
  -5   3  -2 21027.0 783.354   4
  -5  -3  -2 20990.0 800.773   4
  -5   3  -3 583.860 142.854   2
  -5   3  -3 910.589 170.477   4
  -5  -3  -3 749.766 158.161   4
  -5   3  -3 670.841 117.691   1
  -5  -3  -3 897.134 193.280   1
  -5   3  -4 5805.18 380.394   1
  -5   3  -4 5563.02 444.460   2
  -5  -3  -4 6407.30 470.593   1
  -5   3  -4 6157.91 432.433   4
  -5  -3  -4 6507.50 470.916   4
  -5   3  -5 1885.85 282.489   2
  -5   3  -5 2352.87 246.737   1
  -5  -3  -5 2601.27 313.904   1
  -5   3  -5 2245.44 278.511   4
  -5  -3  -5 2607.94 309.755   4
  -5   3  -6 2689.71 267.898   1
  -5  -3  -6 2842.33 329.137   1
  -5   3  -6 3133.95 337.453   4
  -5  -3  -6 2857.93 333.838   4
  -5  -3  -7 222.254 126.672   1
  -5   3  -7 67.1206 88.1622   1
  -5   3  -7 176.087 126.531   4
  -5  -3  -7 223.498 134.834   4
  -5  -3  -8 1495.89 248.726   1
  -5   3  -8 1246.69 198.329   1
  -5   3  -8 1220.58 230.425   4
  -5  -3  -8 1360.36 245.176   4
  -5  -3  -9 611.502 193.634   1
  -5   3  -9 251.854 127.454   4
  -5  -3  -9 614.912 192.613   4
  -5  -3 -10 161.091 130.526   1
  -5   3 -10 203.126 124.588   4
  -5  -3 -10 54.1299 87.4897   4
  -5   3 -11 187.777 138.113   4
  -5  -3 -11-161.245 149.897   1
  -5  -4  14 150.249 138.843   1
  -5   4  14 76.1647 122.133   4
  -5   4  14 120.821 118.741   2
  -5   4  14 242.496 158.964   1
   5   4 -14-202.192 129.908   3
  -5  -4  13 1054.93 246.963   1
  -5   4  13 1053.39 253.930   4
  -5   4  13 1040.18 229.490   2
   5   4 -13 686.564 185.251   3
  -5   4  13 864.849 247.366   1
  -5  -4  12 697.725 197.290   1
  -5   4  12 665.827 209.870   4
  -5   4  12 629.175 177.496   2
   5   4 -12 366.891 132.234   3
  -5   4  12 862.541 232.969   1
  -5   4  11 3205.26 395.419   4
  -5  -4  11 2929.80 312.458   4
  -5   4  11 2806.92 350.370   2
   5   4 -11 2677.84 357.316   3
  -5   4  11 2986.22 380.872   1
  -5  -4  11 3581.30 399.105   1
  -5   4  10 440.911 171.857   1
  -5  -4  10 319.888 141.817   1
  -5   4  10 521.674 176.740   4
  -5  -4  10 341.053 122.062   4
  -5   4  10 474.531 141.865   2
   5   4 -10 333.242 154.964   3
  -5   4   9 5476.25 486.574   4
  -5  -4   9 5031.82 390.730   4
  -5   4   9 4727.75 416.241   2
   5   4  -9 4696.78 447.489   3
  -5   4   9 4658.34 442.473   1
  -5  -4   9 5370.82 464.946   1
  -5   4   8 2452.95 333.686   4
  -5  -4   8 1978.27 241.052   4
  -5   4   8 1823.84 250.017   2
   5   4  -8 2353.08 307.117   3
  -5   4   8 2348.07 304.200   1
  -5  -4   8 2199.74 282.337   1
  -5   4   7 5197.82 456.705   4
  -5   4   7 5252.88 408.791   2
  -5  -4   7 5039.43 374.423   4
   5   4  -7 5059.63 443.288   3
  -5   4   7 5277.78 435.296   1
  -5  -4   7 5317.43 435.588   1
  -5   4   6 165.185 118.187   1
  -5   4   6 171.048 130.492   4
  -5  -4   6 172.976 129.876   1
  -5  -4   6 53.6431 85.1888   4
  -5   4   6 54.1843 67.1309   2
   5   4  -6 112.210 121.492   3
  -5  -4   5 9001.23 550.091   1
  -5   4   5 8450.25 493.818   2
  -5   4   5 9534.51 575.298   4
  -5  -4   5 9167.61 490.152   4
   5   4  -5 8605.53 552.468   3
  -5   4   5 9234.90 525.942   1
  -5   4   4 55.1072 75.7013   1
  -5   4   4-40.4957 94.1346   4
  -5   4   4-163.817 111.637   2
  -5  -4   4-122.940 112.212   4
  -5  -4   4-124.874 126.388   1
   5   4  -4 7.87222 73.4604   3
  -5   4   3 808.877 149.311   1
  -5   4   3 673.482 138.794   2
  -5   4   3 888.003 175.266   4
  -5  -4   3 886.312 164.213   4
  -5  -4   3 944.947 181.378   1
   5   4  -3 568.637 140.642   3
  -5   4   2 405.360 119.662   1
  -5   4   2 283.063 97.6528   2
  -5   4   2 373.049 109.773   4
  -5  -4   2 466.234 119.691   4
  -5  -4   2 409.093 132.816   1
   5   4  -2 273.993 100.272   3
  -5   4   1 326.147 111.467   2
  -5   4   1 241.910 77.3368   1
  -5   4   1 338.473 117.356   4
  -5  -4   1 306.880 105.132   4
  -5  -4   1 431.083 128.216   1
   5   4  -1 446.215 137.763   3
  -5   4   0 360.483 117.669   2
  -5   4   0 567.317 137.741   4
  -5   4   0 440.142 118.660   1
  -5  -4   0 520.050 131.337   4
  -5  -4   0 568.224 149.779   1
   5   4   0 556.327 146.847   3
  -5   4  -1 32.2747 70.1188   2
  -5   4  -1 46.3095 67.2031   4
  -5  -4  -1 123.317 94.5819   4
  -5   4  -1-38.6679 64.0730   1
  -5  -4  -1 116.917 111.660   1
   5   4   1 281.790 133.427   3
  -5   4  -2-83.9636 102.401   2
  -5   4  -2 127.316 90.1644   4
  -5  -4  -2-26.8222 69.2392   4
  -5   4  -2-7.16615 52.8517   1
   5   4   2 261.736 124.245   3
  -5  -4  -2 119.503 116.765   1
  -5   4  -3 2596.93 243.410   1
  -5  -4  -3 2446.84 288.469   1
  -5   4  -3 2162.63 281.067   2
  -5   4  -3 2516.33 275.761   4
  -5  -4  -3 2537.19 293.820   4
   5   4   3 2340.36 242.763   3
  -5  -4  -4-65.9268 83.6001   1
  -5   4  -4-45.2821 96.0969   2
  -5   4  -4-95.7121 96.4337   4
  -5  -4  -4 34.4324 75.0065   4
  -5   4  -5 3390.25 388.034   2
  -5  -4  -5 3765.84 387.999   1
  -5   4  -5 3460.36 338.330   4
  -5  -4  -5 3422.13 360.243   4
  -5  -4  -6 429.590 160.781   1
  -5   4  -6 731.287 220.599   2
  -5   4  -6 522.781 151.152   4
  -5  -4  -6 411.373 152.071   4
  -5  -4  -7 5941.95 500.848   1
  -5   4  -7 5196.74 436.324   4
  -5  -4  -7 5141.00 476.084   4
  -5   4  -7 5135.30 452.693   3
  -5   4  -8 658.832 201.995   3
  -5  -4  -8 300.224 146.692   1
  -5   4  -8 177.386 95.1732   4
  -5  -4  -8 249.544 151.441   4
  -5  -4  -9 4916.37 482.302   1
  -5   4  -9 4237.57 406.661   4
  -5  -4  -9 4489.18 457.356   4
  -5   4  -9 4998.58 466.829   3
  -5   4 -10 297.617 153.698   3
  -5  -4 -10 37.1814 123.454   1
  -5   4 -10 90.2960 82.8002   4
  -5  -4 -11 3013.43 402.756   1
  -5   4 -11 3053.31 374.791   3
  -5  -5  13-8.36851 89.0822   1
  -5   5  13-17.4578 102.029   4
  -5   5  13 203.983 109.082   2
  -5   5  13 250.638 135.364   1
  -5  -5  12 136.567 109.825   1
  -5   5  12 337.277 152.529   4
  -5   5  12 237.975 121.546   2
   5   5 -12-82.3047 143.496   3
  -5   5  12 189.814 102.402   1
  -5  -5  11 4.23538 101.429   1
  -5   5  11 46.3938 86.2669   4
  -5   5  11 35.3339 82.8495   2
   5   5 -11 120.353 91.6539   3
  -5   5  11 146.732 128.486   1
  -5   5  10 250.355 126.839   1
  -5  -5  10 84.1182 95.3836   1
  -5   5  10 90.7374 100.839   4
  -5   5  10-50.2341 112.395   2
   5   5 -10 45.1101 91.9698   3
  -5   5   9 79.8030 85.6362   1
  -5   5   9 138.052 100.551   4
  -5  -5   9 204.786 91.1933   1
  -5   5   9-69.2443 115.200   2
   5   5  -9 267.376 135.343   3
  -5   5   8 631.186 161.131   1
  -5   5   8 692.641 174.748   4
  -5  -5   8 424.015 139.197   1
  -5   5   8 411.970 134.865   2
   5   5  -8 345.677 130.385   3
  -5   5   7 447.129 145.495   1
  -5   5   7 406.815 152.936   4
  -5   5   7 292.970 137.279   2
   5   5  -7 201.260 90.8430   3
  -5   5   6 257.105 116.693   1
  -5   5   6 260.537 129.782   4
  -5   5   6 200.875 98.1049   2
  -5  -5   6 203.827 88.9620   4
   5   5  -6-13.2706 96.9813   3
  -5   5   5 827.527 188.299   1
  -5   5   5 1136.61 224.935   4
  -5   5   5 811.054 199.516   2
  -5  -5   5 1012.03 185.432   4
   5   5  -5 848.517 202.853   3
  -5   5   4 6496.03 469.472   2
  -5   5   4 7437.99 508.138   4
  -5  -5   4 6401.47 394.169   4
   5   5  -4 6760.20 494.716   3
  -5   5   4 6569.41 431.714   1
  -5   5   3 168.881 103.897   1
  -5   5   3-106.364 115.505   2
  -5   5   3 451.769 175.601   4
  -5  -5   3 114.705 87.9576   4
   5   5  -3 561.344 173.471   3
  -5  -5   2 5447.33 431.402   1
  -5   5   2 4767.79 410.846   2
  -5   5   2 5848.82 436.074   4
  -5  -5   2 5211.42 380.883   4
   5   5  -2 5532.63 434.326   3
  -5   5   2 4735.85 339.772   1
  -5  -5   1 3085.78 340.629   1
  -5   5   1 2658.17 316.212   2
  -5   5   1 3395.18 344.956   4
  -5  -5   1 3400.39 334.220   4
   5   5  -1 3077.75 328.626   3
  -5  -5   0 7011.23 493.648   1
  -5   5   0 6688.58 497.439   2
  -5   5   0 7081.91 463.758   4
  -5  -5   0 7534.55 472.179   4
   5   5   0 6635.60 454.275   3
  -5  -5  -1 2511.30 317.888   1
  -5   5  -1 2254.50 308.800   2
  -5   5  -1 2344.85 275.793   4
  -5  -5  -1 2509.78 287.613   4
   5   5   1 2453.37 276.474   3
  -5  -5  -2 7951.29 533.971   1
  -5   5  -2 7451.87 551.450   2
  -5   5  -2 8089.07 493.551   4
  -5  -5  -2 7600.71 494.381   4
   5   5   2 7309.42 448.177   3
  -5  -5  -3 523.569 167.298   1
  -5   5  -3 228.385 107.947   2
  -5   5  -3 277.040 101.963   4
  -5  -5  -3 359.285 113.800   4
  -5  -5  -4 1089.90 217.018   1
  -5   5  -4 1373.30 214.242   4
  -5   5  -4 1009.18 216.815   2
  -5  -5  -4 1167.93 226.567   4
  -5   5  -4 1779.43 289.669   3
  -5   5  -5 286.033 153.829   3
  -5  -5  -5 158.886 107.232   1
  -5   5  -5-111.811 80.6404   2
  -5   5  -5 210.684 102.375   4
  -5  -5  -5 175.326 122.650   4
  -5   5  -6 3371.64 428.534   2
  -5  -5  -6 3757.12 402.909   1
  -5  -5  -6 3481.71 389.207   4
  -5   5  -6 3783.17 402.756   3
  -5   5  -7 812.542 246.394   3
  -5  -5  -7 154.741 99.8855   1
  -5   5  -7 707.313 248.173   2
  -5  -5  -7 31.1135 87.9086   4
  -5  -5  -8-135.325 112.273   1
  -5  -5  -8 68.7771 98.2894   4
  -5   5  -9 765.665 226.288   3
  -5  -5  -9-95.4861 126.011   1
  -5   6  11 1259.32 264.356   4
  -5   6  11 1038.51 233.572   2
   5   6 -11 1081.37 244.719   3
  -5   6  11 1190.90 246.767   1
  -5   6  10 371.328 149.424   1
  -5   6  10 528.206 195.183   4
  -5   6  10 312.916 149.968   2
   5   6 -10 538.290 186.223   3
  -5  -6   9 1858.82 278.854   1
  -5   6   9 2254.71 339.571   4
  -5   6   9 1827.67 292.114   2
  -5   6   9 1859.84 288.695   1
   5   6  -9 1828.16 308.060   3
  -5   6   8 491.827 151.949   1
  -5   6   8 587.647 183.916   4
  -5   6   8 589.774 172.937   2
   5   6  -8 531.367 183.437   3
  -5   6   7 4316.65 432.015   2
  -5   6   7 4773.94 458.598   4
   5   6  -7 4512.51 458.722   3
  -5   6   6 927.957 214.711   4
  -5   6   6 832.136 197.595   2
   5   6  -6 804.682 189.544   3
  -5   6   5 1841.86 288.059   2
  -5   6   5 2027.22 287.120   4
   5   6  -5 2132.50 306.492   3
  -5   6   4 20.7085 87.2816   4
  -5   6   4 33.2687 73.9728   2
   5   6  -4 186.659 107.859   3
  -5   6   3 1364.05 249.999   2
  -5   6   3 1381.22 219.398   4
   5   6  -3 1013.02 207.467   3
  -5   6   2-8.87773 90.7693   2
  -5   6   2-13.4139 83.1474   4
   5   6  -2-34.2397 91.0421   3
  -5   6   1 142.211 99.8740   2
  -5   6   1 144.180 85.8693   4
  -5  -6   1 33.9123 59.7154   4
   5   6  -1 115.650 79.5650   3
  -5   6   0 44.1904 79.2724   2
  -5   6   0 33.8400 67.4566   4
  -5  -6   0 35.8634 69.4017   4
  -5  -6   0-194.137 125.747   1
   5   6   0-28.1234 88.2309   3
  -5   6  -1-82.2748 120.979   2
  -5  -6  -1-52.5454 71.6459   4
   5   6   1-78.0710 89.6192   3
  -5  -6  -1-199.685 139.796   1
  -5  -6  -2-211.982 137.062   1
  -5   6  -2-31.6187 128.382   2
  -5  -6  -2 1.76460 73.9241   4
  -5  -6  -3 74.1485 90.2759   1
  -5  -6  -3 153.948 94.7181   4
  -5  -6  -4 204.765 128.405   1
  -5   6  -4-76.1129 155.878   2
  -5  -6  -4 102.751 115.296   4
  -5  -6  -5 1795.76 285.780   1
  -5  -6  -5 1650.14 269.099   4
  -5   6  -5 1304.19 281.505   2
  -5   6  -6 725.399 221.116   3
  -5  -6  -6 452.550 153.761   1
  -5   6  -6 556.902 213.802   2
  -5  -6  -6 349.330 134.412   4
  -5   6  -7 1512.48 322.427   2
  -5  -6  -7 1718.80 289.626   1
  -5   6  -7 2231.48 336.260   3
  -5   7   9 68.5030 103.046   4
  -5   7   9-11.0098 75.2129   2
   5   7  -9-19.0990 102.946   3
  -5   7   8-0.36009 117.362   4
   5   7  -8 91.6364 98.0077   3
  -5   7   7 111.406 99.9023   4
   5   7  -7-12.0997 124.668   3
  -5   7   6 159.208 113.234   4
   5   7  -6 63.7472 101.235   3
   5   7  -5 377.202 132.322   3
   5   7  -4 1028.13 214.360   3
   5   7  -3 697.326 176.134   3
   5   7  -2 1294.50 230.524   3
  -5   7   1 724.533 191.268   2
   5   7  -1 1225.12 236.905   3
  -5  -7   0 1776.48 269.881   1
  -5   7   0 1372.61 260.789   2
   5   7   0 1606.64 244.764   3
  -5  -7  -1 1392.60 243.661   1
  -5   7  -1 1524.40 304.021   2
  -5   7  -2 2894.67 421.017   2
  -5  -7  -2 2912.98 353.844   1
  -5   7  -3 1464.22 294.892   3
  -5  -7  -3 1117.02 231.098   1
  -5   7  -3 591.737 195.682   2
  -5  -7  -4 610.664 169.204   1
  -5   7  -4 205.721 128.097   2
  -5  -7  -5 1059.77 229.424   1
  -5   7  -5 402.159 183.321   2
  -6   0  14 120.276 124.918   1
  -6   0  14 178.746 144.753   4
  -6   0  12 543.166 195.294   1
  -6   0  12 449.245 155.655   4
  -6   0  10 1179.30 243.106   1
  -6   0  10 1040.33 226.593   4
  -6   0   8 4603.40 428.056   4
  -6   0   8 4378.36 430.360   1
  -6   0   6 14658.6 728.548   4
  -6   0   6 15322.0 761.891   1
  -6   0   4 4132.43 390.860   4
  -6   0   4 4358.31 402.665   1
  -6   0   2 17144.3 750.604   1
  -6   0   2 17978.9 783.923   4
  -6   0   0 9003.97 538.795   1
  -6   0   0 8331.42 538.293   4
  -6   0  -2 6668.12 476.029   1
  -6   0  -2 6132.17 469.705   4
  -6   0  -4 1759.93 258.672   1
  -6   0  -4 1801.76 278.220   4
  -6   0  -6-82.1647 119.554   1
  -6   0  -6 168.140 119.449   4
  -6   0  -8-45.2178 118.962   1
  -6   0  -8 183.870 131.426   4
  -6   0 -10 1069.40 220.499   1
  -6   0 -10 999.189 237.835   4
  -6   1  15 859.229 259.291   1
  -6  -1  15 881.613 242.649   1
  -6   1  15 850.203 249.491   4
  -6  -1  15 739.017 224.838   4
   6   1 -15 459.646 181.723   3
  -6   1  14-30.1717 137.800   1
  -6  -1  14 200.628 162.148   1
  -6   1  14 1.20113 93.5893   4
  -6  -1  14 39.0295 89.6710   4
   6   1 -14 402.772 186.209   3
  -6   1  13 2707.69 386.721   4
  -6  -1  13 2444.38 351.077   4
   6   1 -13 2447.53 364.470   3
  -6   1  13 2741.11 401.004   1
  -6  -1  13 2778.91 403.666   1
  -6   1  12 62.8031 120.388   1
  -6  -1  12 83.7519 138.544   1
  -6   1  12 27.5280 98.8902   4
  -6  -1  12 16.7947 101.727   4
  -6   1  11 3254.47 401.737   4
  -6  -1  11 3052.71 372.417   4
  -6   1  11 2840.02 388.228   1
  -6  -1  11 3015.58 390.750   1
  -6   1  10 820.692 220.880   1
  -6  -1  10 631.650 195.577   1
  -6   1  10 511.072 180.702   4
  -6  -1  10 588.200 178.482   4
  -6   1   9 5547.52 487.533   4
  -6  -1   9 5308.42 462.316   4
  -6   1   9 5013.57 467.123   1
  -6  -1   9 5373.15 481.080   1
  -6   1   8-107.385 113.608   1
  -6  -1   8-3.36921 94.6159   1
  -6   1   8 198.409 128.397   4
  -6  -1   8-2.78957 77.4991   4
  -6   1   7 945.486 182.765   1
  -6  -1   7 1094.27 218.389   1
  -6   1   7 1151.57 219.354   4
  -6  -1   7 913.068 197.500   4
  -6   1   6 188.124 85.7164   1
  -6  -1   6 94.2523 96.0987   1
  -6   1   6 231.368 136.695   4
  -6  -1   6 265.688 95.4932   4
  -6   1   5 1024.32 196.471   1
  -6  -1   5 944.693 203.571   1
  -6   1   5 1067.05 223.045   4
  -6  -1   5 1086.24 187.190   4
  -6   1   4-44.6961 92.7184   1
  -6  -1   4-55.4769 106.606   1
  -6   1   4-233.988 113.654   4
  -6  -1   4 134.036 74.3176   4
  -6   1   3-20.1638 72.8061   1
  -6  -1   3 24.9483 89.6191   1
  -6   1   3 133.847 100.970   4
  -6  -1   3 48.1141 73.0356   4
  -6   1   2 325.098 148.034   1
  -6   1   2 138.759 136.047   4
  -6  -1   2 303.566 148.712   4
  -6  -1   2 235.201 144.715   1
  -6   1   1 3303.75 333.284   1
  -6  -1   1 3395.76 338.945   1
  -6   1   1 3382.43 345.292   4
  -6  -1   1 2955.34 323.364   4
  -6   1   0 726.370 187.432   4
  -6  -1   0 723.055 180.185   4
  -6   1   0 665.203 173.063   1
  -6  -1   0 706.067 191.284   1
  -6   1  -1 4678.91 387.645   1
  -6  -1  -1 5338.09 436.827   1
  -6   1  -1 4780.35 417.491   4
  -6  -1  -1 4850.85 412.056   4
  -6   1  -2 1161.68 238.508   4
  -6  -1  -2 923.479 197.116   4
  -6   1  -2 866.956 183.554   1
  -6  -1  -2 953.542 202.608   1
  -6   1  -3 14492.6 697.077   1
  -6  -1  -3 13975.1 715.396   1
  -6   1  -3 14454.2 717.037   4
  -6  -1  -3 15838.8 779.298   4
  -6   1  -4 1270.00 236.393   4
  -6  -1  -4 1316.67 230.914   4
  -6   1  -4 1172.01 203.725   1
  -6  -1  -4 1341.95 233.910   1
  -6   1  -5 5590.40 446.172   1
  -6  -1  -5 5223.47 455.669   1
  -6   1  -5 5212.97 469.676   4
  -6  -1  -5 5445.05 478.300   4
  -6   1  -6 128.160 74.6527   1
  -6  -1  -6-43.1444 115.210   1
  -6   1  -6 100.182 122.979   4
  -6  -1  -6 125.196 102.374   4
  -6   1  -7 6822.68 520.472   1
  -6  -1  -7 7454.00 563.075   1
  -6   1  -7 7100.05 557.305   4
  -6  -1  -7 7266.87 573.461   4
  -6  -1  -8-132.431 105.665   1
  -6   1  -8 20.1546 76.3936   1
  -6   1  -8 29.8056 83.4240   4
  -6  -1  -8 47.0971 80.3647   4
  -6  -1  -9 4037.45 434.228   1
  -6   1  -9 3859.21 404.453   1
  -6   1  -9 3982.46 443.096   4
  -6  -1  -9 3767.25 446.095   4
  -6  -1 -10 12.6722 84.9759   1
  -6   1 -10-183.456 121.132   1
  -6   1 -10 34.9901 110.649   4
  -6  -1 -10 25.3803 96.1556   4
  -6  -1 -11 1718.03 295.342   1
  -6   1 -11 1606.21 288.372   1
  -6   1 -11 1728.40 307.961   4
  -6  -1 -11 1963.55 337.583   4
  -6   2  15 2.72846 134.152   1
  -6  -2  15 30.4357 118.275   1
  -6   2  15 39.8296 128.265   4
  -6  -2  15 221.345 139.537   4
  -6   2  15 51.5485 92.0794   2
   6   2 -15-42.2806 111.091   3
  -6   2  14-31.2472 128.758   1
  -6  -2  14 68.6566 101.659   1
  -6   2  14 154.015 140.679   4
  -6  -2  14 166.609 124.184   4
  -6   2  14 128.118 118.708   2
   6   2 -14 20.3135 111.192   3
  -6   2  13 18.1359 98.1952   1
  -6  -2  13 78.9913 133.972   1
  -6   2  13 48.3580 119.971   4
  -6  -2  13 130.887 121.108   4
  -6   2  13-90.4107 108.979   2
   6   2 -13-45.5623 114.536   3
  -6   2  12 104.069 124.869   1
  -6  -2  12 68.4825 121.440   1
  -6   2  12 108.789 111.571   4
  -6  -2  12 139.745 116.677   4
  -6   2  12 17.4075 78.3757   2
   6   2 -12-39.9953 89.7197   3
  -6   2  11 149.944 133.010   1
  -6  -2  11 182.920 129.202   1
  -6   2  11-14.3103 86.9924   4
  -6  -2  11 91.0853 107.271   4
   6   2 -11 65.2188 121.757   3
  -6   2  10 83.6103 104.101   1
  -6  -2  10 160.713 116.225   1
  -6   2  10 96.4220 89.1183   4
  -6  -2  10 25.8348 80.2817   4
  -6   2   9 44.4270 82.1637   1
  -6  -2   9 110.365 95.7180   1
  -6   2   9-11.1098 85.8249   4
  -6  -2   9 153.208 116.295   4
  -6   2   8 4083.96 418.662   4
  -6  -2   8 3937.69 383.001   4
  -6   2   8 3587.54 392.909   1
  -6  -2   8 3479.67 387.701   1
  -6   2   7 166.163 123.395   1
  -6  -2   7 143.355 116.716   1
  -6   2   7-34.2259 78.9892   4
  -6  -2   7 107.708 100.959   4
  -6   2   6 8027.42 553.897   4
  -6  -2   6 7358.71 504.179   4
  -6   2   6 7433.16 525.778   1
  -6  -2   6 7228.07 536.062   1
  -6   2   5 168.200 153.016   1
  -6  -2   5 43.6242 149.506   1
  -6   2   5 228.499 165.329   4
  -6  -2   5 23.7588 104.350   4
  -6  -2   4 7786.62 541.161   1
  -6   2   4 7996.49 542.664   4
  -6  -2   4 7486.14 505.955   4
  -6   2   4 7047.30 487.468   1
  -6  -2   3 1413.55 300.109   1
  -6   2   3 1118.86 267.298   4
  -6  -2   3 1218.38 261.307   4
  -6   2   3 1073.91 245.661   1
  -6   2   2 12795.4 629.656   1
  -6  -2   2 13581.3 698.644   1
  -6   2   2 13411.2 693.387   4
  -6  -2   2 12435.0 652.563   4
  -6   2   1 252.455 140.161   4
  -6  -2   1 206.656 120.175   4
  -6   2   1 200.808 109.088   1
  -6  -2   1 311.778 142.049   1
  -6   2   0 2450.47 278.236   1
  -6  -2   0 2528.58 312.442   1
  -6   2   0 2472.72 296.849   4
  -6  -2   0 2651.80 299.956   4
  -6   2  -1 1411.35 217.351   1
  -6   2  -1 1420.75 245.215   4
  -6  -2  -1 1344.66 234.064   4
  -6  -2  -1 1451.50 242.558   1
  -6   2  -2 4273.23 364.007   1
  -6  -2  -2 4141.26 402.818   1
  -6   2  -2 4226.69 400.190   4
  -6  -2  -2 4504.60 422.762   4
  -6   2  -3 20.9920 79.7504   4
  -6  -2  -3 456.090 153.887   4
  -6   2  -3 328.808 110.976   1
  -6  -2  -3 315.072 130.489   1
  -6   2  -4 4289.24 377.534   1
  -6  -2  -4 4564.91 427.659   1
  -6   2  -4 4312.79 407.906   4
  -6  -2  -4 4754.27 459.774   4
  -6   2  -5 259.020 126.473   4
  -6  -2  -5 315.129 133.180   4
  -6   2  -5 443.661 139.021   1
  -6  -2  -5 359.898 149.855   1
  -6   2  -6 21.5839 101.680   1
  -6  -2  -6 177.799 82.8685   1
  -6   2  -6 311.838 113.669   4
  -6  -2  -6 345.438 132.280   4
  -6   2  -7-11.3752 88.9418   1
  -6  -2  -7 50.7088 107.491   1
  -6   2  -7 37.7960 86.2918   4
  -6  -2  -7 23.1053 94.7911   4
  -6  -2  -8 136.668 86.9200   1
  -6   2  -8 272.904 123.689   1
  -6   2  -8 117.377 98.0887   4
  -6  -2  -8 405.476 172.344   4
  -6  -2  -9 375.206 187.547   1
  -6   2  -9 244.506 131.913   1
  -6   2  -9 355.695 166.528   4
  -6  -2  -9 430.857 189.797   4
  -6  -2 -10 1533.43 279.619   1
  -6   2 -10 1539.20 279.441   1
  -6   2 -10 1345.37 273.065   4
  -6  -2 -10 1585.92 295.574   4
  -6   3  14-6.49846 110.704   1
  -6  -3  14 70.9925 140.414   1
  -6   3  14 365.668 211.542   4
  -6  -3  14 174.762 130.636   4
  -6   3  14 29.2788 102.158   2
   6   3 -14 141.291 121.753   3
  -6   3  13 3863.13 468.926   4
  -6  -3  13 3126.72 380.315   4
  -6   3  13 2774.30 357.438   2
   6   3 -13 2896.82 397.394   3
  -6   3  13 3298.52 427.598   1
  -6  -3  13 2999.88 421.368   1
  -6   3  12 292.071 164.945   1
  -6  -3  12 78.0495 128.408   1
  -6   3  12 244.685 183.974   4
  -6  -3  12 144.795 130.055   4
  -6   3  12 85.0588 120.158   2
   6   3 -12 283.697 174.794   3
  -6   3  11 2820.60 401.208   4
  -6  -3  11 3100.10 364.193   4
  -6   3  11 2682.64 330.657   2
   6   3 -11 2792.71 369.619   3
  -6   3  11 3045.15 402.000   1
  -6  -3  11 3132.42 403.879   1
  -6   3  10 1444.20 278.242   1
  -6  -3  10 1584.80 285.067   1
  -6   3  10 1520.25 280.092   4
  -6  -3  10 1428.85 246.366   4
  -6   3  10 1320.60 224.501   2
   6   3 -10 1598.98 298.703   3
  -6   3   9 1512.48 269.919   1
  -6  -3   9 1608.62 282.680   1
  -6   3   9 1502.51 274.585   4
  -6  -3   9 1439.24 246.532   4
  -6   3   9 1210.05 201.085   2
   6   3  -9 1998.65 325.283   3
  -6   3   8 301.100 132.363   1
  -6  -3   8 393.951 154.436   1
  -6   3   8 285.851 144.292   4
  -6  -3   8 295.773 119.820   4
  -6   3   8 192.912 81.9499   2
  -6   3   7 2938.10 357.637   4
  -6   3   7 2483.59 264.213   2
  -6  -3   7 3032.62 329.071   4
  -6   3   7 2866.98 345.116   1
  -6   3   6 443.477 146.637   1
  -6   3   6 717.025 182.312   4
  -6  -3   6 516.981 141.175   4
  -6   3   6 421.756 103.476   2
  -6   3   5 211.397 110.679   1
  -6   3   5 219.900 134.641   4
  -6   3   5 131.135 59.4735   2
  -6  -3   5 201.442 102.593   1
  -6  -3   5 218.955 97.1270   4
  -6   3   4 7.27938 66.0504   1
  -6   3   4-186.115 107.783   2
  -6   3   4 10.6061 88.1017   4
  -6  -3   4 40.7761 78.0607   4
  -6  -3   4 130.143 110.627   1
  -6   3   3 943.699 182.015   1
  -6   3   3 325.843 94.8809   2
  -6   3   3 732.851 179.700   4
  -6  -3   3 918.757 200.741   4
  -6  -3   3 1012.40 221.168   1
  -6   3   2 1517.58 227.534   1
  -6  -3   2 1657.92 247.219   4
  -6   3   2 783.791 140.870   2
  -6   3   2 1293.85 230.418   4
  -6  -3   2 1467.35 247.976   1
  -6   3   1 1607.44 224.168   1
  -6  -3   1 1653.73 255.235   1
  -6   3   1 1681.63 245.859   4
  -6  -3   1 1610.12 238.462   4
  -6   3   1 910.320 151.268   2
  -6   3   0 212.633 83.0941   2
  -6   3   0 475.609 157.603   4
  -6  -3   0 389.426 132.902   4
  -6   3   0 451.918 131.301   1
  -6  -3   0 459.300 156.513   1
  -6   3  -1 1518.59 218.313   1
  -6  -3  -1 1705.52 260.634   1
  -6   3  -1 1625.29 252.713   4
  -6  -3  -1 1842.43 265.770   4
  -6   3  -1 1089.02 186.497   2
  -6   3  -2 408.819 138.143   2
  -6   3  -2 421.655 138.135   4
  -6  -3  -2 619.848 166.266   4
  -6   3  -2 628.381 160.247   1
  -6  -3  -2 626.654 165.974   1
  -6   3  -3 2880.54 291.805   1
  -6  -3  -3 3505.21 378.869   1
  -6   3  -3 3234.55 338.895   2
  -6   3  -3 3196.44 347.070   4
  -6  -3  -3 3664.92 392.716   4
  -6   3  -4 92.0525 109.507   2
  -6   3  -4 40.0235 81.7869   4
  -6  -3  -4 10.9962 86.1184   4
  -6   3  -4 142.239 96.4597   1
  -6  -3  -4-4.62007 99.7243   1
  -6   3  -5 4367.56 377.045   1
  -6  -3  -5 4793.83 464.155   1
  -6   3  -5 4240.47 421.984   4
  -6  -3  -5 4660.06 452.719   4
  -6   3  -6 56.6663 75.5589   1
  -6  -3  -6 45.4465 90.8390   1
  -6   3  -6 210.747 87.5265   4
  -6  -3  -6 131.504 108.925   4
  -6  -3  -7 3383.30 400.324   1
  -6   3  -7 2914.97 367.081   4
  -6  -3  -7 2767.86 360.577   4
  -6  -3  -8 306.661 145.680   1
  -6   3  -8 386.698 138.826   4
  -6  -3  -8 469.019 168.690   4
  -6  -3  -9 2141.13 333.576   1
  -6   3  -9 2470.96 339.301   4
  -6  -3  -9 2532.12 370.809   4
  -6   4  13-165.537 136.483   1
  -6  -4  13 262.158 143.734   1
  -6   4  13 169.788 144.459   4
  -6   4  13 47.6375 88.7862   2
   6   4 -13-74.8115 133.109   3
  -6   4  12 324.206 161.748   1
  -6  -4  12 170.545 140.309   1
  -6   4  12 194.366 134.673   4
  -6   4  12 88.1985 85.6330   2
   6   4 -12-9.20979 95.6427   3
  -6   4  11 264.917 144.244   1
  -6  -4  11 459.456 175.900   1
  -6   4  11 190.478 139.944   4
  -6  -4  11 338.095 141.801   4
  -6   4  11-28.8744 129.237   2
   6   4 -11 201.933 144.243   3
  -6   4  10-12.3263 104.886   1
  -6  -4  10-96.1054 122.256   1
  -6   4  10-2.24180 92.0135   4
  -6  -4  10 30.9435 100.406   4
  -6   4  10-220.878 141.544   2
   6   4 -10-24.8256 97.7813   3
  -6   4   9 272.471 135.933   1
  -6  -4   9 276.145 150.347   1
  -6   4   9 304.073 174.638   4
  -6  -4   9 276.899 104.509   4
  -6   4   9 123.117 79.4477   2
   6   4  -9 292.029 144.765   3
  -6   4   8 441.844 157.553   1
  -6   4   8 464.595 164.550   4
  -6  -4   8 372.387 141.990   4
  -6   4   8 305.866 121.347   2
   6   4  -8 326.293 149.072   3
  -6   4   7 445.749 176.891   1
  -6   4   7 417.452 181.126   4
  -6   4   7 304.231 138.264   2
   6   4  -7 645.491 210.726   3
  -6   4   6 5607.44 416.703   2
  -6   4   6 6842.33 539.164   4
   6   4  -6 6971.44 552.607   3
  -6   4   6 6455.98 492.675   1
  -6   4   5 1544.47 273.524   4
  -6   4   5 1104.64 183.922   2
   6   4  -5 1834.21 298.356   3
  -6   4   5 1561.35 260.002   1
  -6   4   4 2516.88 279.946   2
  -6   4   4 4050.00 412.343   4
  -6  -4   4 3608.21 348.616   4
   6   4  -4 3982.61 409.075   3
  -6   4   4 3813.08 366.843   1
  -6  -4   3 1957.26 294.763   4
  -6   4   3 1381.97 216.436   2
  -6   4   3 1724.89 260.655   1
  -6   4   2 9513.65 534.249   1
  -6   4   2 8313.30 502.919   2
  -6   4   2 9720.55 594.883   4
  -6  -4   2 9551.31 565.203   4
   6   4  -2 9919.01 614.889   3
  -6   4   1 101.478 101.288   4
  -6   4   1 215.723 101.543   1
  -6  -4   1 86.5147 83.0973   4
  -6   4   0 2604.96 278.664   1
  -6  -4   0 3052.82 352.227   1
  -6   4   0 2090.34 262.273   2
  -6   4   0 3000.36 343.044   4
  -6  -4   0 2858.03 326.838   4
   6   4   0 2703.11 320.040   3
  -6   4  -1 81.2543 67.6769   2
  -6   4  -1 277.195 106.794   4
  -6  -4  -1 475.623 171.292   4
  -6   4  -1 214.979 84.7898   1
  -6  -4  -1 319.505 141.494   1
  -6   4  -2 1580.67 261.855   4
  -6   4  -2 939.145 193.788   2
  -6  -4  -2 1349.88 247.937   4
  -6  -4  -2 1310.66 250.089   1
  -6   4  -3 167.694 81.3637   2
  -6   4  -3 154.196 91.1673   4
  -6  -4  -3 211.161 118.647   4
  -6  -4  -3 249.643 145.017   1
  -6  -4  -4 469.733 155.887   1
  -6   4  -4 619.942 176.811   2
  -6   4  -4 408.206 147.701   4
  -6  -4  -4 303.717 142.936   4
  -6  -4  -5 209.089 117.493   1
  -6   4  -5 265.969 139.281   2
  -6   4  -5 476.009 158.023   4
  -6  -4  -5 360.539 155.034   4
  -6  -4  -6-42.3595 107.832   1
  -6   4  -6 19.0990 81.3936   4
  -6  -4  -6-33.0992 86.6781   4
  -6  -4  -7-24.6770 82.0172   1
  -6   4  -7 142.312 124.061   4
  -6  -4  -7 161.748 126.022   4
  -6  -4  -8 121.056 99.9194   1
  -6   4  -8 37.2633 115.622   4
  -6  -4  -8 72.8497 99.6618   4
  -6   5  12 396.862 179.525   1
  -6  -5  12 317.862 151.236   1
  -6   5  12 264.608 159.617   4
  -6   5  12 145.264 83.2563   2
   6   5 -12 383.715 172.281   3
  -6  -5  11 1818.58 317.396   1
  -6   5  11 1716.74 322.378   4
  -6   5  11 1488.25 271.975   2
  -6   5  11 2037.18 338.246   1
   6   5 -11 1824.36 325.603   3
  -6   5  10 198.196 153.811   1
  -6   5  10 87.8909 111.083   4
  -6  -5  10 17.1417 86.6447   1
  -6   5  10-174.698 141.561   2
   6   5 -10 134.513 118.030   3
  -6   5   9 1555.58 273.915   1
  -6   5   9 1496.92 297.376   4
  -6   5   9 1214.42 226.290   2
   6   5  -9 1203.79 255.789   3
  -6   5   8 228.691 139.525   1
  -6   5   8 135.824 158.557   4
  -6   5   8 124.383 74.3805   2
   6   5  -8-25.5154 95.9977   3
  -6   5   7 619.131 180.770   1
  -6   5   7 1085.16 243.092   4
  -6   5   7 868.763 195.653   2
   6   5  -7 635.814 193.484   3
  -6   5   6 558.628 156.793   1
  -6   5   6 547.743 181.385   4
  -6   5   6 419.613 124.277   2
   6   5  -6 464.525 154.358   3
  -6   5   5-19.0467 77.5914   1
  -6   5   5-25.4217 96.9203   2
  -6   5   5-89.8772 122.384   4
   6   5  -5-225.755 110.055   3
  -6   5   4-21.6883 74.6017   1
  -6   5   4-56.0659 86.8065   2
  -6   5   4 28.9680 72.5807   4
   6   5  -4 52.2980 80.8198   3
  -6   5   3 129.888 108.091   2
  -6   5   3 53.9182 84.7825   4
   6   5  -3 205.463 106.961   3
  -6   5   2-82.9552 92.5697   2
  -6   5   2-17.5077 78.3561   4
   6   5  -2 149.421 94.5980   3
  -6   5   1 246.869 120.362   2
  -6   5   1 260.236 122.284   4
  -6  -5   1 306.438 137.501   4
   6   5  -1 429.443 135.762   3
  -6   5   0 391.103 160.906   2
  -6   5   0 392.967 163.568   4
  -6  -5   0 477.904 178.611   4
   6   5   0 342.452 142.249   3
  -6  -5  -1 3199.12 378.204   1
  -6   5  -1 2500.57 328.637   2
  -6   5  -1 2872.10 337.311   4
  -6  -5  -1 2802.97 335.795   4
   6   5   1 2817.83 316.669   3
  -6  -5  -2 3037.97 377.259   1
  -6   5  -2 2445.69 324.551   2
  -6   5  -2 3229.61 357.734   4
  -6  -5  -2 3012.90 350.948   4
  -6  -5  -3 1881.73 297.293   1
  -6   5  -3 1914.64 270.643   4
  -6  -5  -3 1845.05 277.217   4
  -6   5  -3 1713.50 284.534   2
  -6  -5  -4 264.471 118.699   1
  -6   5  -4 468.763 185.162   2
  -6   5  -4 473.575 159.707   4
  -6  -5  -4 606.666 188.400   4
  -6   5  -5 3625.04 443.381   2
  -6  -5  -5 4070.36 448.385   1
  -6   5  -5 3702.59 392.171   4
  -6  -5  -5 3891.30 424.479   4
  -6  -5  -6 825.067 218.244   1
  -6   5  -6 819.395 219.339   2
  -6  -5  -6 673.481 182.613   4
  -6  -5  -7 894.153 228.170   1
  -6  -5  -7 1062.38 253.900   4
  -6   6   9 426.114 193.647   4
  -6   6   9 272.958 133.288   2
   6   6  -9 223.760 132.365   3
  -6   6   8 1190.62 267.104   4
  -6   6   8 1069.93 237.044   2
   6   6  -8 1213.43 266.690   3
  -6   6   7 1142.73 248.636   4
   6   6  -7 780.525 207.990   3
  -6   6   6 1962.09 309.149   4
   6   6  -6 2068.09 316.988   3
  -6   6   5 990.871 215.294   2
  -6   6   5 1186.46 243.713   4
   6   6  -5 1048.46 228.840   3
  -6   6   4 711.893 166.126   2
   6   6  -4 1012.45 216.956   3
  -6   6   3 136.825 114.259   2
  -6   6   3 681.085 201.796   4
   6   6  -3 662.433 182.591   3
  -6   6   2 2936.14 361.678   2
  -6   6   2 3079.26 349.458   4
   6   6  -2 2837.17 344.216   3
  -6   6   1 838.102 188.870   4
  -6  -6   1 804.075 182.246   4
   6   6  -1 709.606 180.643   3
  -6   6   0 774.661 176.284   4
  -6  -6   0 894.729 196.218   4
   6   6   0 628.998 164.321   3
  -6   6  -1-392.046 160.605   2
  -6  -6  -1 191.407 121.170   4
  -6  -6  -2 2209.54 326.779   1
  -6   6  -2 2187.86 333.129   2
  -6  -6  -2 2201.76 307.545   4
  -6  -6  -3 170.667 127.202   1
  -6   6  -3 249.315 118.167   2
  -6  -6  -3 302.897 150.912   4
  -6  -6  -4 263.772 149.272   1
  -6   6  -4 133.808 97.8183   2
  -6  -6  -4 269.037 125.868   4
  -6  -6  -5 163.647 127.180   1
  -6   6  -5 287.414 179.791   2
  -6  -6  -5 44.9432 95.6807   4
   6   7  -5 135.077 120.360   3
   6   7  -4 83.4513 79.1955   3
   6   7  -3-121.528 126.496   3
   6   7  -2-54.1017 87.6806   3
   6   7  -1 359.894 166.838   3
  -7   0  13 1221.66 285.914   1
  -7   0  13 1426.76 300.085   4
  -7   0  11 189.944 114.610   1
  -7   0  11 335.182 153.119   4
  -7   0   9 205.118 140.328   1
  -7   0   9 122.616 102.837   4
  -7   0   7 1118.35 241.713   1
  -7   0   7 1220.50 251.112   4
  -7   0   3 1123.82 236.970   1
  -7   0   1 4066.63 403.411   1
  -7   0  -1 5512.70 481.668   1
  -7   0  -1 5557.81 497.981   4
  -7   0  -3 291.944 133.851   4
  -7   0  -3 306.626 118.417   1
  -7   0  -5 6120.26 530.613   1
  -7   0  -5 5806.93 543.870   4
  -7   0  -7 1724.62 285.451   1
  -7   0  -7 2075.20 338.091   4
  -7   1  14 221.714 168.767   1
  -7  -1  14 196.963 150.768   1
  -7   1  14 23.1676 109.953   4
  -7  -1  14 101.227 131.016   4
   7   1 -14 85.2743 151.498   3
  -7   1  13 438.424 188.507   1
  -7  -1  13 192.958 156.201   1
  -7   1  13 308.566 160.961   4
  -7  -1  13 317.148 176.048   4
  -7   1  12 1420.28 317.897   1
  -7  -1  12 1415.90 315.460   1
  -7   1  12 1229.06 272.213   4
  -7  -1  12 1306.13 275.510   4
  -7   1  11 166.676 145.351   1
  -7  -1  11 97.5447 120.810   1
  -7   1  11 88.8310 123.150   4
  -7  -1  11-54.6713 90.4965   4
  -7   1  10 1775.34 308.384   1
  -7   1  10 2310.94 338.703   4
  -7  -1  10 1963.39 309.735   4
  -7  -1  10 2088.41 342.827   1
  -7   1   9 84.4003 97.4077   1
  -7  -1   9 92.8051 135.856   1
  -7   1   9 98.7556 101.640   4
  -7  -1   9 66.4872 89.4792   4
  -7  -1   8 1725.95 296.762   4
  -7   1   8 1652.43 297.524   1
  -7   1   7 165.527 164.080   1
  -7   1   6 6635.53 544.395   1
  -7   1   5 601.498 194.007   1
  -7   1   4 3604.62 392.078   1
  -7  -1   4 4166.50 408.581   4
  -7   1   3 220.301 150.309   1
  -7   1   3 148.999 158.325   4
  -7  -1   3 304.371 184.269   4
  -7   1   2 4020.33 408.974   1
  -7  -1   2 3816.72 404.010   1
  -7   1   2 3708.24 394.217   4
  -7  -1   2 3516.53 388.672   4
  -7   1   1 35.5639 128.085   4
  -7  -1   1 77.2863 136.786   4
  -7   1   1 169.818 151.225   1
  -7  -1   1 142.936 134.896   1
  -7   1   0 3455.99 372.187   1
  -7  -1   0 3152.69 364.591   1
  -7   1   0 3278.82 386.947   4
  -7  -1   0 3131.17 376.675   4
  -7   1  -1 1633.56 291.606   4
  -7  -1  -1 1210.38 231.221   4
  -7   1  -1 1286.33 240.081   1
  -7  -1  -1 1260.68 239.858   1
  -7   1  -2 407.244 156.566   4
  -7  -1  -2 322.389 119.163   4
  -7   1  -2 373.440 134.129   1
  -7  -1  -2 397.469 144.513   1
  -7   1  -3-99.6233 128.601   4
  -7  -1  -3 126.209 137.359   4
  -7   1  -3 64.2242 90.8231   1
  -7  -1  -3 26.9826 101.938   1
  -7   1  -4 3.87560 98.1639   4
  -7  -1  -4 143.660 146.640   4
  -7   1  -4 72.2007 104.945   1
  -7  -1  -4-16.5595 88.9972   1
  -7   1  -5 81.6084 99.4387   4
  -7  -1  -5-37.1586 95.1194   4
  -7   1  -5 243.539 154.442   1
  -7  -1  -5-11.1203 109.912   1
  -7   1  -6 1269.17 249.497   1
  -7  -1  -6 1056.96 235.776   1
  -7   1  -6 1659.61 301.688   4
  -7  -1  -6 1764.02 305.855   4
  -7   1  -7 50.4531 88.6521   1
  -7  -1  -7 123.174 102.003   1
  -7   1  -7 137.953 142.816   4
  -7  -1  -7-135.772 127.809   4
  -7   1  -8 1113.27 242.780   1
  -7  -1  -8 1170.09 254.438   1
  -7   1  -8 1301.65 291.503   4
  -7  -1  -8 1145.90 261.839   4
  -7   2  13 531.822 209.582   1
  -7  -2  13 399.870 179.349   1
  -7   2  13 732.316 253.047   4
  -7  -2  13 584.865 211.826   4
   7   2 -13 739.067 228.530   3
  -7   2  12-133.028 106.236   1
  -7  -2  12-66.6786 111.224   1
  -7   2  12 92.9998 134.220   4
  -7  -2  12 300.639 159.965   4
   7   2 -12 189.931 161.854   3
  -7   2  11 1638.69 309.899   1
  -7   2  11 1822.56 324.559   4
  -7  -2  11 1868.22 307.472   4
   7   2 -11 1748.83 333.059   3
  -7  -2  11 2073.38 351.585   1
  -7   2  10 83.3974 122.010   1
  -7  -2  10 113.027 126.133   1
  -7   2  10 73.1726 90.6312   4
  -7  -2  10 84.0853 102.465   4
  -7   2   9-150.330 175.520   1
  -7   2   9 448.138 180.096   4
  -7  -2   9 372.990 182.454   4
  -7   2   8-174.552 151.774   1
  -7   2   8-53.8481 113.398   4
  -7  -2   8 83.5313 94.9789   4
  -7   2   7-67.1156 122.123   1
  -7   2   7 47.8919 112.525   4
  -7   2   6-1.60315 97.2055   1
  -7   2   5 979.384 216.737   1
  -7   2   4 222.193 135.823   1
  -7   2   3 2513.72 328.309   1
  -7   2   2 546.147 183.191   4
  -7   2   2 671.081 197.815   1
  -7  -2   2 487.543 184.862   1
  -7   2   1 1939.30 283.711   1
  -7   2   1 1752.87 297.535   4
  -7  -2   1 1572.70 275.868   1
  -7   2   0 476.177 214.841   4
  -7  -2   0 346.804 197.427   4
  -7   2   0 411.619 177.446   1
  -7  -2   0 219.663 197.176   1
  -7   2  -1 6450.28 498.639   1
  -7  -2  -1 6303.71 531.334   1
  -7   2  -1 6851.98 554.874   4
  -7  -2  -1 6739.21 550.698   4
  -7   2  -2 496.046 152.217   4
  -7  -2  -2 480.531 166.633   4
  -7   2  -2 208.938 105.018   1
  -7  -2  -2 413.281 165.269   1
  -7   2  -3 3613.21 379.405   1
  -7  -2  -3 3961.09 438.137   1
  -7   2  -3 4036.09 423.054   4
  -7  -2  -3 4386.76 454.157   4
  -7   2  -4 642.696 200.608   4
  -7  -2  -4 414.548 191.125   4
  -7   2  -4 381.782 153.064   1
  -7  -2  -4 541.591 190.608   1
  -7   2  -5 5301.33 468.743   1
  -7  -2  -5 5848.65 538.707   1
  -7   2  -5 5681.87 528.876   4
  -7  -2  -5 5426.04 521.275   4
  -7   2  -6 532.810 164.087   1
  -7  -2  -6 877.417 219.630   1
  -7   2  -6 1063.47 248.929   4
  -7  -2  -6 995.698 244.456   4
  -7   2  -7 1064.11 219.212   1
  -7  -2  -7 1426.25 286.047   1
  -7   2  -7 1272.23 279.219   4
  -7  -2  -7 1125.44 269.064   4
  -7  -2  -8 57.6541 119.018   1
  -7   2  -8 105.027 115.916   1
  -7   2  -8 58.1441 96.7825   4
  -7  -2  -8 312.151 180.492   4
  -7   3  12 612.792 215.834   1
  -7  -3  12 613.548 213.287   1
  -7   3  12 686.864 220.236   4
  -7  -3  12 673.990 194.583   4
   7   3 -12 512.051 203.323   3
  -7   3  11 157.323 125.229   1
  -7  -3  11 373.564 201.010   1
  -7   3  11 432.254 205.828   4
  -7  -3  11 561.960 200.269   4
   7   3 -11 531.716 205.681   3
  -7   3  10 2823.54 405.312   4
  -7  -3  10 2911.58 369.990   4
   7   3 -10 3528.75 449.928   3
  -7   3  10 3295.57 419.532   1
  -7  -3  10 2811.64 399.016   1
  -7   3   9 397.127 172.119   1
  -7   3   9 534.923 210.883   4
  -7  -3   9 436.039 170.368   4
   7   3  -9 539.554 211.505   3
  -7   3   8 3143.48 412.676   4
   7   3  -8 3014.54 406.534   3
  -7   3   8 3319.84 405.335   1
  -7   3   7 758.943 222.769   1
  -7   3   7 584.246 207.161   4
  -7   3   6 3895.41 415.697   1
  -7   3   5 23.5296 78.8840   1
  -7   3   4 810.044 187.646   1
  -7   3   4 934.910 203.469   4
  -7   3   3 10.5637 90.0895   1
  -7   3   3 123.183 126.380   4
  -7   3   2 1928.80 309.463   4
  -7   3   2 1520.55 250.187   1
  -7   3   1 238.968 127.339   4
  -7  -3   1 197.076 131.301   4
  -7   3   1 263.238 127.712   1
  -7   3   0 1275.54 242.815   4
  -7  -3   0 1286.35 246.122   4
  -7   3   0 1371.85 233.875   1
  -7   3  -1-45.8536 105.053   4
  -7  -3  -1 77.8498 109.642   4
  -7   3  -1 1.90502 71.5469   1
  -7   3  -2 140.605 114.609   4
  -7  -3  -2-0.69929 85.2901   4
  -7   3  -2-20.2851 87.3015   1
  -7  -3  -2-114.488 131.013   1
  -7   3  -3 18.2009 118.818   4
  -7  -3  -3 215.911 144.809   4
  -7   3  -3 11.7605 74.4585   1
  -7  -3  -3 81.9088 117.424   1
  -7   3  -4 372.506 135.388   4
  -7  -3  -4 697.900 209.515   4
  -7   3  -4 399.256 145.449   1
  -7  -3  -4 473.467 164.502   1
  -7  -3  -5 255.864 131.395   1
  -7   3  -5 295.794 128.894   4
  -7  -3  -5 200.634 124.100   4
  -7   3  -5 97.0508 93.8522   1
  -7  -3  -6 714.281 191.129   1
  -7   3  -6 771.568 202.832   4
  -7  -3  -6 654.061 204.182   4
  -7  -3  -7-89.0442 91.3250   1
  -7   3  -7 153.075 141.299   4
  -7  -3  -7 114.251 128.549   4
  -7   4  11 92.5916 90.7488   1
  -7  -4  11 218.878 143.455   1
  -7   4  11 177.372 139.705   4
  -7  -4  11 22.8453 84.5792   4
   7   4 -11 130.322 146.198   3
  -7   4  10 392.981 180.850   1
  -7   4  10 274.130 172.046   4
  -7  -4  10 363.328 142.869   4
   7   4 -10 515.886 187.167   3
  -7   4   9 446.076 174.615   1
  -7   4   9 711.993 211.661   4
   7   4  -9 499.878 200.376   3
  -7   4   8-189.665 135.563   1
  -7   4   8-106.043 83.8616   4
   7   4  -8 140.489 146.727   3
  -7   4   7 29.9275 84.9215   1
  -7   4   7 61.9546 116.640   4
   7   4  -7 213.562 146.030   3
  -7   4   6 450.335 167.329   1
  -7   4   6 377.130 170.384   4
   7   4  -6 285.998 168.986   3
  -7   4   5-63.8973 114.621   1
   7   4  -5 361.931 174.603   3
  -7   4   4 33.6972 92.3423   1
   7   4  -4 360.946 168.665   3
  -7   4   3 1499.95 250.770   1
  -7   4   3 1829.00 296.540   4
   7   4  -3 1879.69 307.600   3
  -7   4   2 601.045 222.041   4
  -7   4   2 721.345 208.017   1
  -7   4   1 3813.09 380.047   1
  -7   4   1 3821.89 421.905   4
  -7   4   0 151.455 159.465   4
  -7   4   0 161.424 113.075   1
  -7  -4  -1 3899.64 447.628   1
  -7   4  -1 4124.00 440.603   4
  -7  -4  -1 4027.94 442.106   4
  -7   4  -2 717.100 208.998   4
  -7  -4  -2 599.186 193.274   4
  -7  -4  -2 396.485 184.660   1
  -7  -4  -3 2922.60 394.249   1
  -7   4  -3 2522.71 346.283   4
  -7  -4  -3 2974.80 380.021   4
  -7  -4  -4 74.7570 131.542   1
  -7   4  -4 190.722 101.732   4
  -7  -4  -4 371.060 170.716   4
  -7  -4  -5 2529.61 377.322   1
  -7   4  -5 2357.27 341.420   4
  -7  -4  -5 2717.58 376.326   4
  -7   5   9 67.6832 101.155   1
  -7   5   9 269.004 158.766   4
   7   5  -9 25.4895 86.9562   3
  -7   5   8 445.172 172.406   1
  -7   5   8 753.078 224.680   4
   7   5  -8 521.320 173.104   3
  -7   5   7 281.166 140.525   1
  -7   5   7 553.141 205.458   4
   7   5  -7 532.592 170.319   3
  -7   5   6 1659.38 281.086   1
   7   5  -6 1453.32 271.219   3
   7   5  -5 64.1065 105.679   3
  -7   5   4 2307.97 345.434   4
   7   5  -4 2674.52 359.530   3
  -7   5   3 489.896 172.320   4
   7   5  -3 576.216 179.686   3
   7   5  -2 735.942 192.384   3
   7   5  -1 285.416 142.781   3
  -7   5   0 379.240 143.899   4
  -7  -5   0 568.131 183.549   4
   7   5   0 365.286 159.996   3
  -7   5  -1 177.115 117.286   4
  -7  -5  -1 242.549 108.883   4
   7   5   1 158.834 115.045   3
  -7   5  -2 98.9352 118.857   4
  -7  -5  -2-135.631 117.593   4
  -7  -5  -3-59.5316 97.4223   1
  -7   5  -3 98.8309 88.9335   4
  -7  -5  -3 275.578 152.627   4
  -7   6   4-134.266 103.542   4
   7   6  -4 14.7006 87.7357   3
  -7   6   3 656.816 212.241   4
   7   6  -3 680.601 194.681   3
   7   6  -2 1327.30 252.046   3
   7   6  -1 608.224 165.938   3
  -8   0  -2-42.6991 106.828   4
  -8   0  -2 39.4028 109.686   1
  -8   0  -4 3556.49 432.647   1
  -8   0  -4 3263.23 441.574   4
  -8   1  11-100.077 144.572   1
  -8  -1  11 36.9874 99.4881   1
  -8   1  11-89.7743 131.101   4
  -8  -1  11-25.3806 128.375   4
  -8   1  10-18.3839 115.692   1
  -8   1   9 619.461 223.062   1
  -8  -1   0 277.053 196.412   1
  -8  -1  -1 5290.64 524.240   1
  -8   1  -1 5468.75 525.628   4
  -8   1  -2-24.4594 124.328   4
  -8  -1  -2-62.5632 115.062   4
  -8   1  -2 62.1169 112.107   1
  -8  -1  -2 8.80054 107.098   1
  -8   1  -3 2228.72 337.106   1
  -8  -1  -3 2620.43 392.028   4
  -8   1  -3 2060.65 349.779   4
  -8  -1  -3 1879.80 319.795   1
  -8   1  -4 110.635 144.387   4
  -8  -1  -4-85.7262 112.362   4
  -8   1  -4 220.153 144.189   1
  -8  -1  -4 153.190 128.234   1
  -8   1  -5 270.405 152.991   4
  -8  -1  -5 531.624 211.033   4
  -8   1  -5 337.130 141.154   1
  -8  -1  -5 446.585 181.032   1
  -8   2  10 1282.19 299.692   1
  -8  -2  10 1499.33 301.949   4
  -8   2   9 137.696 132.217   1
  -8   2   0-142.767 130.761   4
  -8   2  -1 103.106 104.684   4
  -8  -2  -1 191.371 120.203   4
  -8   2  -1 273.988 131.070   1
  -8   2  -2 15.0326 134.404   4
  -8   2  -2-38.0768 81.9694   1
  -8   2  -3-19.9589 122.126   4
  -8  -2  -3 313.593 168.463   4
  -8   2  -3 73.3566 84.3164   1
  -8  -2  -3 70.6573 110.008   1
  -8   2  -4 1823.96 313.709   1
  -8   2  -4 1533.91 301.555   4
  -8  -2  -4 1709.46 324.427   4
  -8  -2  -4 1802.36 332.735   1
  -8   3   9-164.609 145.842   1
   8   3  -9 444.238 225.460   3
  -8   3   8 278.276 162.622   1
  -8   3   7 743.908 218.309   1
  -8   3   6 31.9568 121.730   1
  -8   3   5 1160.94 237.488   1
  -8   3   4 38.5267 117.221   1
  -8   3   0 6.59217 78.9023   1
  -8   3  -1 2090.91 342.499   4
  -8   3  -1 1607.60 273.630   1
  -8   3  -2-17.9475 120.632   4
  -8  -3  -2 237.608 157.392   4
  -8   3  -2 40.4242 89.5168   1
  -8   3  -3 838.200 233.757   4
  -8  -3  -3 569.619 212.439   4
  -8   3  -3 535.540 187.887   1
  -8  -3  -3 664.192 231.198   1
  -8   4   7 50.0278 87.3985   1
   8   4  -7 237.421 169.608   3
  -8   4   6 655.451 203.960   1
   8   4  -6 729.689 220.560   3
  -8   4   5 68.5107 97.1778   1
   8   4  -5 408.008 202.153   3
  -8   4   4 1145.66 234.799   1
   8   4  -4 1470.03 300.193   3
  -8   4   3-36.3466 88.2232   1
   8   4  -3 483.248 181.920   3
  -8   4   2-0.32822 108.087   1
  -8   4   0 169.516 155.033   4
   0   0   0    0.00    0.00   0
;
_shelx_hkl_checksum              45861
loop_
_space_group_symop_operation_xyz
'x, y, z'
'-x+1/2, y+1/2, -z+1/2'
'-x, -y, -z'
'x-1/2, -y-1/2, z-1/2'
loop_
_atom_site_label
_atom_site_type_symbol
_atom_site_fract_x
_atom_site_fract_y
_atom_site_fract_z
_atom_site_U_iso_or_equiv
_atom_site_adp_type
_atom_site_occupancy
_atom_site_site_symmetry_order
_atom_site_calc_flag
_atom_site_refinement_flags_posn
_atom_site_refinement_flags_adp
_atom_site_refinement_flags_occupancy
_atom_site_disorder_assembly
_atom_site_disorder_group
I001 I 0.09777(6) 0.98643(5) 0.27621(3) 0.0486(2) Uani 1 1 d . . . . .
F1 F -0.1154(5) 0.6512(5) 0.2416(3) 0.0575(11) Uani 1 1 d . . . . .
F2 F -0.0967(6) 0.3624(5) 0.3283(3) 0.0627(12) Uani 1 1 d . . . . .
F3 F 0.1498(6) 0.3189(5) 0.4791(3) 0.0631(12) Uani 1 1 d . . . . .
F4 F 0.3709(6) 0.5685(5) 0.5442(3) 0.0543(10) Uani 1 1 d . . . . .
F5 F 0.5675(5) 0.8093(5) 0.3656(2) 0.0521(10) Uani 1 1 d . . . . .
F6 F 0.1967(6) 0.9574(5) 0.5636(3) 0.0523(10) Uani 1 1 d . . . . .
C1 C 0.1201(8) 0.7652(7) 0.3477(4) 0.0333(13) Uani 1 1 d . . . . .
C2 C 0.0061(8) 0.6364(8) 0.3159(4) 0.0384(15) Uani 1 1 d . . . . .
C3 C 0.0158(9) 0.4861(7) 0.3602(5) 0.0407(16) Uani 1 1 d . . . . .
C4 C 0.1416(10) 0.4650(7) 0.4365(5) 0.0417(16) Uani 1 1 d . . . . .
C5 C 0.2539(9) 0.5938(8) 0.4693(4) 0.0402(15) Uani 1 1 d . . . . .
C6 C 0.2470(8) 0.7444(7) 0.4255(4) 0.0343(14) Uani 1 1 d . . . . .
C7 C 0.3770(8) 0.8757(7) 0.4634(4) 0.0349(14) Uani 1 1 d . . . . .
C8 C 0.5326(8) 0.9035(8) 0.4323(4) 0.0358(14) Uani 1 1 d . . . . .
C9 C 0.3476(9) 0.9776(7) 0.5314(4) 0.0349(14) Uani 1 1 d . . . . .
loop_
_atom_site_aniso_label
_atom_site_aniso_U_11
_atom_site_aniso_U_22
_atom_site_aniso_U_33
_atom_site_aniso_U_23
_atom_site_aniso_U_13
_atom_site_aniso_U_12
I001 0.0538(4) 0.0410(3) 0.0475(3) 0.01032(18) 0.0012(2) -0.00020(19)
F1 0.051(3) 0.051(2) 0.059(3) -0.0037(19) -0.020(2) -0.0067(18)
F2 0.063(3) 0.037(2) 0.083(3) -0.012(2) 0.002(2) -0.0168(19)
F3 0.078(3) 0.032(2) 0.079(3) 0.0131(19) 0.015(2) 0.0015(19)
F4 0.062(3) 0.052(2) 0.041(2) 0.0104(18) -0.007(2) 0.005(2)
F5 0.053(3) 0.060(2) 0.046(2) -0.0228(19) 0.0161(19) -0.0120(19)
F6 0.044(3) 0.063(2) 0.055(2) -0.014(2) 0.019(2) -0.0148(19)
C1 0.037(4) 0.032(3) 0.032(3) -0.001(2) 0.009(3) 0.000(3)
C2 0.034(4) 0.037(3) 0.040(4) -0.003(3) -0.001(3) 0.001(3)
C3 0.039(4) 0.030(3) 0.054(4) -0.011(3) 0.010(3) -0.003(3)
C4 0.048(4) 0.028(3) 0.050(4) 0.004(3) 0.012(3) 0.002(3)
C5 0.042(4) 0.046(4) 0.029(3) 0.002(3) -0.001(3) 0.004(3)
C6 0.035(4) 0.032(3) 0.036(3) -0.002(2) 0.008(3) -0.001(3)
C7 0.035(4) 0.037(3) 0.028(3) -0.001(2) -0.004(3) -0.005(3)
C8 0.033(4) 0.041(3) 0.033(3) -0.008(3) 0.006(3) -0.002(3)
C9 0.029(3) 0.040(3) 0.036(3) 0.005(3) 0.005(3) -0.002(3)
loop_
_atom_type_symbol
_atom_type_description
_atom_type_scat_dispersion_real
_atom_type_scat_dispersion_imag
_atom_type_scat_source
C C 0.0033 0.0016 'International Tables Vol C Tables 4.2.6.8 and 6.1.1.4'
F F 0.0171 0.0103 'International Tables Vol C Tables 4.2.6.8 and 6.1.1.4'
I I -0.4742 1.8119 'International Tables Vol C Tables 4.2.6.8 and 6.1.1.4'
loop_
_geom_angle_atom_site_label_1
_geom_angle_atom_site_label_2
_geom_angle_atom_site_label_3
_geom_angle
_geom_angle_site_symmetry_1
_geom_angle_site_symmetry_3
_geom_angle_publ_flag
C2 C1 C6 119.9(5) . . ?
C2 C1 I001 118.2(4) . . ?
C6 C1 I001 121.9(4) . . ?
F1 C2 C1 121.6(6) . . ?
F1 C2 C3 117.7(6) . . ?
C1 C2 C3 120.7(6) . . ?
F2 C3 C4 120.7(6) . . ?
F2 C3 C2 119.9(6) . . ?
C4 C3 C2 119.4(6) . . ?
F3 C4 C3 119.0(6) . . ?
F3 C4 C5 120.8(6) . . ?
C3 C4 C5 120.1(6) . . ?
F4 C5 C4 117.9(6) . . ?
F4 C5 C6 120.8(6) . . ?
C4 C5 C6 121.2(6) . . ?
C5 C6 C1 118.5(5) . . ?
C5 C6 C7 118.1(5) . . ?
C1 C6 C7 123.3(5) . . ?
C8 C7 C9 116.3(5) . . ?
C8 C7 C6 122.1(5) . . ?
C9 C7 C6 121.6(6) . . ?
F5 C8 C9 119.5(6) . 3_676 ?
F5 C8 C7 118.9(5) . . ?
C9 C8 C7 121.6(5) 3_676 . ?
F6 C9 C8 119.0(6) . 3_676 ?
F6 C9 C7 118.9(5) . . ?
C8 C9 C7 122.1(6) 3_676 . ?
loop_
_geom_bond_atom_site_label_1
_geom_bond_atom_site_label_2
_geom_bond_distance
_geom_bond_site_symmetry_2
_geom_bond_publ_flag
I001 C1 2.082(6) . ?
F1 C2 1.330(7) . ?
F2 C3 1.343(7) . ?
F3 C4 1.342(7) . ?
F4 C5 1.331(7) . ?
F5 C8 1.344(7) . ?
F6 C9 1.347(8) . ?
C1 C2 1.380(8) . ?
C1 C6 1.397(8) . ?
C2 C3 1.383(9) . ?
C3 C4 1.376(10) . ?
C4 C5 1.376(10) . ?
C5 C6 1.383(8) . ?
C6 C7 1.489(8) . ?
C7 C8 1.380(9) . ?
C7 C9 1.381(9) . ?
C8 C9 1.366(9) 3_676 ?
