#------------------------------------------------------------------------------
#$Date: 2022-09-28 01:31:32 +0300 (Wed, 28 Sep 2022) $
#$Revision: 278225 $
#$URL: file:///home/coder/svn-repositories/cod/cif/7/24/55/7245570.cif $
#------------------------------------------------------------------------------
#
# This file is available in the Crystallography Open Database (COD),
# http://www.crystallography.net/
#
# All data on this site have been placed in the public domain by the
# contributors.
#
data_7245570
loop_
_publ_author_name
'Xu, Xi'
'Yang, Mengle'
'Lu, Qinghai'
'Yu, Shuang'
'Ma, Shufang'
'Tian, Aixiang'
'Ying, Jun'
_publ_section_title
;
 Three Photochromic Materials based on POMs and Viologens for UV Probing,
 Visual Detection of Metal Ions and Amine Detecting
;
_journal_name_full               CrystEngComm
_journal_paper_doi               10.1039/D2CE01244H
_journal_year                    2022
_chemical_formula_moiety         'C7 H8 Cu2 N2 O11'
_chemical_formula_sum            'C7 H8 Cu2 N2 O11'
_chemical_formula_weight         423.23
_space_group_crystal_system      triclinic
_space_group_IT_number           2
_space_group_name_Hall           '-P 1'
_space_group_name_H-M_alt        'P -1'
_atom_sites_solution_hydrogens   mixed
_audit_creation_method           SHELXL-2016/6
_audit_update_record
;
2022-08-04 deposited with the CCDC.	2022-09-27 downloaded from the CCDC.
;
_cell_angle_alpha                105.515(6)
_cell_angle_beta                 92.979(5)
_cell_angle_gamma                97.637(5)
_cell_formula_units_Z            2
_cell_length_a                   6.9081(4)
_cell_length_b                   8.0731(5)
_cell_length_c                   11.5005(8)
_cell_measurement_reflns_used    2470
_cell_measurement_temperature    293(2)
_cell_measurement_theta_max      76.1438
_cell_measurement_theta_min      4.0028
_cell_volume                     609.95(7)
_computing_structure_refinement  'SHELXL-2016/6 (Sheldrick, 2016)'
_computing_structure_solution    'SHELXT 2014/5 (Sheldrick, 2014)'
_diffrn_ambient_temperature      293(2)
_diffrn_detector_area_resol_mean 10.3503
_diffrn_measured_fraction_theta_full 1.000
_diffrn_measured_fraction_theta_max 0.981
_diffrn_measurement_device_type  'SuperNova, Dual, Cu at zero, Atlas'
_diffrn_measurement_method       '\w scans'
_diffrn_radiation_type           CuK\a
_diffrn_radiation_wavelength     1.54178
_diffrn_reflns_av_R_equivalents  0.0282
_diffrn_reflns_av_unetI/netI     0.0341
_diffrn_reflns_Laue_measured_fraction_full 1.000
_diffrn_reflns_Laue_measured_fraction_max 0.981
_diffrn_reflns_limit_h_max       8
_diffrn_reflns_limit_h_min       -6
_diffrn_reflns_limit_k_max       10
_diffrn_reflns_limit_k_min       -10
_diffrn_reflns_limit_l_max       13
_diffrn_reflns_limit_l_min       -14
_diffrn_reflns_number            4908
_diffrn_reflns_point_group_measured_fraction_full 1.000
_diffrn_reflns_point_group_measured_fraction_max 0.981
_diffrn_reflns_theta_full        67.679
_diffrn_reflns_theta_max         76.328
_diffrn_reflns_theta_min         4.006
_exptl_absorpt_coefficient_mu    5.005
_exptl_absorpt_correction_T_max  1.00000
_exptl_absorpt_correction_T_min  0.69521
_exptl_absorpt_correction_type   multi-scan
_exptl_absorpt_process_details
;
CrysAlisPro 1.171.40.84a (Rigaku Oxford Diffraction, 2020)
Empirical absorption correction using spherical harmonics,
implemented in SCALE3 ABSPACK scaling algorithm.
;
_exptl_crystal_colour            green
_exptl_crystal_density_diffrn    2.304
_exptl_crystal_description       block
_exptl_crystal_F_000             420
_refine_diff_density_max         0.453
_refine_diff_density_min         -0.730
_refine_diff_density_rms         0.095
_refine_ls_extinction_method     none
_refine_ls_goodness_of_fit_ref   1.032
_refine_ls_hydrogen_treatment    mixed
_refine_ls_matrix_type           full
_refine_ls_number_parameters     218
_refine_ls_number_reflns         2517
_refine_ls_number_restraints     8
_refine_ls_restrained_S_all      1.031
_refine_ls_R_factor_all          0.0388
_refine_ls_R_factor_gt           0.0327
_refine_ls_shift/su_max          0.000
_refine_ls_shift/su_mean         0.000
_refine_ls_structure_factor_coef Fsqd
_refine_ls_weighting_details
'w=1/[\s^2^(Fo^2^)+(0.0523P)^2^+0.2802P] where P=(Fo^2^+2Fc^2^)/3'
_refine_ls_weighting_scheme      calc
_refine_ls_wR_factor_gt          0.0860
_refine_ls_wR_factor_ref         0.0912
_reflns_Friedel_coverage         0.000
_reflns_number_gt                2190
_reflns_number_total             2517
_reflns_threshold_expression     'I > 2\s(I)'
_cod_data_source_file            d2ce01244h2.cif
_cod_data_source_block           3
_cod_database_code               7245570
_shelx_shelxl_version_number     2016/6
_shelx_space_group_comment
;
The symmetry employed for this shelxl refinement is uniquely defined
by the following loop, which should always be used as a source of
symmetry information in preference to the above space-group names.
They are only intended as comments.
;
_shelx_res_file
;
TITL bt_a.res in P-1
    x.res
    created by SHELXL-2016/6 at 10:10:31 on 18-Jul-2022
CELL 1.54178 6.9081 8.0731 11.5005 105.515 92.979 97.637
ZERR 2 0.0004 0.0005 0.0008 0.006 0.005 0.005
LATT 1
SFAC C H Cu N O
UNIT 14 16 4 4 22
EQIV $1 +X,1+Y,+Z
EQIV $2 1-X,2-Y,1-Z
EQIV $3 1-X,1-Y,-Z
EQIV $4 -X,1-Y,1-Z
EQIV $5 -X,-Y,1-Z
DFIX 0.82 0.01 O1W H1Wa O1W H1Wb O2W H2Wa O2W H2Wb
DFIX 0.82 O1 H1 O2 H2
DANG 1.39 0.01 H1Wa H1Wb H2Wa H2Wb

L.S. 20
PLAN  40
HTAB O1W O2_$1
HTAB O1W O5_$2
HTAB O2W O1W_$3
HTAB O1 O7_$4
HTAB O2 O8_$5
list 4
CONF
HTAB
fmap 2 53
acta
REM <olex2.extras>
REM <HklSrc "%.\\x.hkl">
REM </olex2.extras>

WGHT    0.052300    0.280200
FVAR       0.70837
CU1   3    0.151975    0.574756    0.102602    11.00000    0.02685    0.01844 =
         0.01396    0.00530   -0.00347   -0.00223
CU2   3    0.026831    0.180935    0.074258    11.00000    0.03732    0.01564 =
         0.01388    0.00268   -0.00389    0.00113
O1    5   -0.073940    0.390084    0.054773    11.00000    0.02666    0.01709 =
         0.01550    0.00365    0.00100    0.00033
H1    2   -0.155741    0.403553    0.101954    11.00000   -1.20000
O1W   5    0.356777    0.778087    0.132290    11.00000    0.03622    0.02689 =
         0.02428    0.00729   -0.00633   -0.00803
H1WA  2    0.306497    0.850110    0.107967    11.00000   -1.50000
H1WB  2    0.411813    0.811842    0.201087    11.00000   -1.50000
O2W   5    0.323126    0.337634    0.030242    11.00000    0.02827    0.04641 =
         0.02401    0.00297    0.00086    0.00378
H2WA  2    0.356463    0.299248   -0.037616    11.00000   -1.20000
H2WB  2    0.410555    0.360874    0.085650    11.00000    0.04757
O2    5    0.079634   -0.043096    0.088317    11.00000    0.04629    0.02088 =
         0.01645    0.00522   -0.00211    0.00374
H2    2   -0.002019   -0.069532    0.130385    11.00000   -1.50000
O4    5    0.105544    0.283233    0.246140    11.00000    0.05366    0.01963 =
         0.01555    0.00336   -0.00613    0.00143
O3    5    0.206929    0.566769    0.266932    11.00000    0.03969    0.02463 =
         0.01684    0.00676   -0.00400   -0.00265
O5    5    0.514563    0.923937    0.664540    11.00000    0.06047    0.03735 =
         0.03504    0.00124    0.00058   -0.01625
O6    5    0.360091    0.877779    0.813928    11.00000    0.08462    0.04651 =
         0.02610   -0.00796    0.01061   -0.01162
O7    5    0.358372    0.537304    0.807880    11.00000    0.02956    0.05293 =
         0.01416    0.00769   -0.00244    0.00161
O8    5    0.136930    0.228229    0.766024    11.00000    0.08370    0.05608 =
         0.03489    0.02754    0.01573    0.00476
O9    5    0.166828    0.058445    0.591633    11.00000    0.13272    0.03583 =
         0.04529    0.01700    0.00039    0.00125
N1    4    0.408925    0.829000    0.711617    11.00000    0.03975    0.03173 =
         0.02077   -0.00099   -0.00597   -0.00727
N2    4    0.172383    0.202922    0.660476    11.00000    0.04741    0.03621 =
         0.02627    0.01715   -0.00390    0.00028
C1    1    0.174132    0.435200    0.307072    11.00000    0.02691    0.02438 =
         0.01413    0.00554   -0.00018    0.00393
C2    1    0.221342    0.463900    0.439307    11.00000    0.02452    0.02361 =
         0.01467    0.00546    0.00003    0.00367
C3    1    0.296891    0.628699    0.514630    11.00000    0.02379    0.02612 =
         0.01666    0.00525    0.00039    0.00114
AFIX  43
H3    2    0.321508    0.722273    0.481975    11.00000   -1.20000
AFIX   0
C4    1    0.335059    0.653116    0.637085    11.00000    0.02536    0.02864 =
         0.01734    0.00026   -0.00244   -0.00193
C5    1    0.307622    0.517121    0.696388    11.00000    0.02034    0.03603 =
         0.01503    0.00582   -0.00099    0.00242
C6    1    0.223353    0.352789    0.613526    11.00000    0.02695    0.02905 =
         0.01872    0.00976   -0.00004    0.00265
C7    1    0.184560    0.325886    0.490147    11.00000    0.02721    0.02433 =
         0.01694    0.00538   -0.00192    0.00301
AFIX  43
H7    2    0.133789    0.215340    0.441054    11.00000   -1.20000
AFIX   0
HKLF 4




REM  bt_a.res in P-1
REM R1 =  0.0327 for    2190 Fo > 4sig(Fo)  and  0.0388 for all    2517 data
REM    218 parameters refined using      8 restraints

END

WGHT      0.0525      0.2619

REM Instructions for potential hydrogen bonds
HTAB O1 O7_$4
HTAB O1W O2_$1
HTAB O1W O5_$2
HTAB O2W O1W_$3
EQIV $8 x, y, z-1
HTAB O2W O8_$8
EQIV $9 -x+1, -y+1, -z+1
HTAB O2W O7_$9
HTAB O2 O8_$5

REM Highest difference peak  0.453,  deepest hole -0.730,  1-sigma level  0.095
Q1    1   0.2398  0.1794  0.7606  11.00000  0.05    0.45
Q2    1   0.0288  0.1133  0.6227  11.00000  0.05    0.41
Q3    1   0.2089  0.4042  0.4577  11.00000  0.05    0.41
Q4    1   0.2587  0.4384  0.6553  11.00000  0.05    0.39
Q5    1   0.0543  0.1178  0.7926  11.00000  0.05    0.35
Q6    1   0.2653  0.4969  0.4550  11.00000  0.05    0.34
Q7    1   0.3189  0.1424 -0.0025  11.00000  0.05    0.32
Q8    1   0.2827  0.1138  0.6234  11.00000  0.05    0.32
Q9    1   0.3018  0.5862  0.6629  11.00000  0.05    0.31
Q10   1   0.2335  0.3389  0.0012  11.00000  0.05    0.31
Q11   1  -0.0937  0.3923  0.0270  11.00000  0.05    0.31
Q12   1   0.3762  0.6111  0.8216  11.00000  0.05    0.31
Q13   1   0.4613  0.8593  0.8155  11.00000  0.05    0.31
Q14   1   0.4496  0.5353  0.8153  11.00000  0.05    0.30
Q15   1  -0.1489  0.2559  0.0335  11.00000  0.05    0.30
Q16   1   0.2988  0.4767  0.8256  11.00000  0.05    0.29
Q17   1   0.2118  0.3162  0.6254  11.00000  0.05    0.28
Q18   1   0.2083  0.4360  0.0675  11.00000  0.05    0.28
Q19   1   0.1348  0.2460  0.2775  11.00000  0.05    0.28
Q20   1   0.3591  0.7106  0.6631  11.00000  0.05    0.27
Q21   1  -0.0828  0.5127  0.0966  11.00000  0.05    0.27
Q22   1   0.1128  0.7245  0.1405  11.00000  0.05    0.27
Q23   1   0.3034  0.8176  0.8404  11.00000  0.05    0.27
Q24   1   0.2256  0.3573  0.1120  11.00000  0.05    0.26
Q25   1   0.3850  0.9340  0.0656  11.00000  0.05    0.26
Q26   1   0.0046  0.3354  0.1136  11.00000  0.05    0.26
Q27   1   0.2203  0.3534  0.5500  11.00000  0.05    0.26
Q28   1   0.2659  0.8007  0.8435  11.00000  0.05    0.25
Q29   1   0.1906  0.5256  0.2631  11.00000  0.05    0.25
Q30   1   0.4074  0.4604 -0.0335  11.00000  0.05    0.25
Q31   1   0.1264  0.3784  0.2843  11.00000  0.05    0.25
Q32   1   0.1292 -0.1640  0.1033  11.00000  0.05    0.25
Q33   1   0.0303  0.2121  0.7183  11.00000  0.05    0.24
Q34   1   0.4365  0.9530  0.6599  11.00000  0.05    0.24
Q35   1  -0.0215  0.5184  0.1396  11.00000  0.05    0.24
Q36   1  -0.0630  0.1121  0.1164  11.00000  0.05    0.24
Q37   1   0.3664  0.7540  0.6755  11.00000  0.05    0.24
Q38   1   0.2790  0.3130  0.8192  11.00000  0.05    0.24
Q39   1  -0.0720  0.2399  0.2825  11.00000  0.05    0.23
Q40   1   0.5285  0.8789  0.6165  11.00000  0.05    0.23
;
_shelx_res_checksum              58900
_shelx_hkl_file
;
   0   0   1 2534.85    9.90
   0   0  -1 2548.34    8.50
   0   0  -2   30.70    1.40
   0   0   2   30.80    1.70
   0   0  -3   36.80    1.90
   0   0  -4  601.54   10.00
   0   0   4  645.34   17.00
   0   0   5 3097.89   42.60
   0   0   6 1744.23   35.80
   0   0   7 1187.08   32.50
   0   0   8  105.29   11.00
   0   0  -9    6.10    3.90
   0   0  -9    4.40    3.70
   0   0   9    1.10    3.10
   0   0 -10  232.08   16.20
   0   0 -10  242.48   16.20
   0   0 -11  146.99   12.00
   0   0 -11  150.68   13.20
   0   0 -12   97.99    8.50
   0   0 -12  106.39    9.10
   0   0 -13   -4.30    2.80
   0   0 -13    0.00    0.70
   0   1 -14  107.39    6.30
   0   1 -13   24.30    3.90
   0   1 -13   25.10    4.80
   0   1 -12    6.80    2.50
   0   1 -12    3.80    1.90
   0   1 -11  322.17   17.60
   0   1 -11  317.27   18.10
   0   1 -10 1092.79   34.30
   0   1 -10 1025.70   32.60
   0  -1   9  420.56   21.50
   0   1  -9  389.06   19.40
   0   1  -9  406.36   19.80
   0  -1   8  151.58   12.20
   0  -1   7  423.66   18.10
   0  -1   6  588.04   19.00
   0  -1   5 2951.50   37.30
   0  -1   4  304.97   10.40
   0  -1   3  355.86    9.30
   0  -1   2   20.00    2.00
   0  -1   2   21.20    1.50
   0  -1   1   74.19    2.40
   0  -1   1   71.69    3.20
   0   1   0 2027.60   12.50
   0  -1   0 2018.70   18.40
   0  -1  -1  260.87    7.40
   0  -1  -2  136.69    6.10
   0   1   3    0.80    2.10
   0  -1  -3    0.70    0.30
   0  -1  -3    0.70    1.70
   0  -1  -4 1311.17   22.00
   0   1   4 1317.67   26.80
   0   1   5  268.47   14.00
   0  -1  -5  258.37   10.40
   0   1   6  257.47   15.30
   0   1   7  905.31   30.60
   0  -1  -8  164.48   13.00
   0  -1  -8  158.88   13.10
   0   1   8  159.48   14.30
   0  -1  -9    1.80    2.30
   0  -1  -9   -0.30    3.00
   0  -1 -10   59.69    9.40
   0  -1 -10   64.29    8.50
   0  -1 -11   63.89    8.60
   0  -1 -11   37.10    6.40
   0  -1 -12  259.47   13.50
   0  -1 -13  146.19    7.10
   0   2 -14   33.70    4.00
   0   2 -13   20.60    4.70
   0   2 -12    9.50    3.70
   0   2 -12   15.60    4.60
   0   2 -11   75.49    8.80
   0   2 -11   72.19    8.30
   0   2 -10   27.20    5.60
   0   2 -10   32.40    6.40
   0   2  -9  135.29   11.00
   0   2  -9  130.99   11.50
   0  -2   9  131.99   11.30
   0  -2   8  597.54   21.90
   0  -2   7   75.19    7.40
   0  -2   6  210.58   10.70
   0  -2   5   68.19    5.40
   0  -2   4   21.10    1.80
   0  -2   4   22.20    2.90
   0  -2   4   18.10    1.20
   0  -2   3  148.89    5.60
   0  -2   3  139.29    5.60
   0   2  -2  967.20   16.50
   0  -2   2  946.81   11.70
   0  -2   2  963.20   16.30
   0   2  -1   89.59    4.50
   0  -2   1   75.09    5.50
   0  -2   0    0.30    2.90
   0   2   0    1.00    1.20
   0  -2  -1  671.43   17.00
   0   2   2 1210.58   22.00
   0  -2  -2 1340.87   25.40
   0  -2  -3  395.36   14.80
   0   2   3  373.26   14.10
   0   2   4 1597.04   32.70
   0  -2  -4 1695.33   32.30
   0  -2  -5   20.50    4.20
   0   2   5   18.40    4.50
   0   2   6  137.99   12.30
   0   2   7 1097.89   35.60
   0  -2  -8  108.49   11.30
   0  -2  -8   98.79   10.70
   0  -2  -8   90.39    9.70
   0   2   8  107.49   12.20
   0  -2  -9  936.31   31.70
   0  -2  -9  946.91   33.70
   0  -2 -10  676.53   25.70
   0  -2 -10  720.53   28.30
   0  -2 -11   73.09    8.70
   0  -2 -12  102.59    7.50
   0   3 -14  198.98    8.80
   0   3 -14  159.88    7.50
   0   3 -13  443.06   16.10
   0   3 -13  456.95   18.30
   0   3 -13  467.45   17.90
   0   3 -12  323.47   17.10
   0   3 -12  295.17   16.20
   0   3 -11  240.78   15.90
   0   3 -11  239.48   14.40
   0   3 -11  238.58   15.50
   0   3 -10   25.10    5.70
   0   3 -10   21.50    4.80
   0   3 -10   32.90    5.60
   0   3 -10   31.00    6.10
   0   3  -9   85.39   10.70
   0   3  -9   95.29    8.70
   0   3  -9   96.59    9.10
   0   3  -9   85.79    9.40
   0   3  -9   90.99    8.60
   0  -3   8 1570.04   32.50
   0   3  -8 1530.05   41.00
   0  -3   7 2715.93   38.90
   0  -3   6 1193.88   23.30
   0  -3   5   26.00    3.30
   0  -3   4   34.60    3.30
   0   3  -4   32.00    4.70
   0  -3   4   37.30    3.90
   0   3  -3  737.13   18.10
   0  -3   3  704.63   17.10
   0   3  -2   20.60    3.10
   0  -3   2   20.70    4.20
   0   3  -1  965.30   16.60
   0  -3   1  893.71   22.40
   0  -3   0  892.91   23.40
   0   3   0  931.01   14.20
   0   3   1  596.14   15.60
   0  -3  -1  603.74   20.40
   0   3   2 1896.61   31.70
   0  -3  -2 1998.60   38.40
   0   3   3  945.81   25.00
   0  -3  -3  918.71   27.40
   0  -3  -4  718.23   25.10
   0   3   4  688.03   23.70
   0  -3  -5 1116.09   31.80
   0   3   5 1109.59   33.00
   0   3   6    0.50    2.70
   0  -3  -7  875.51   29.90
   0  -3  -7  873.81   29.80
   0  -3  -7  903.61   32.00
   0  -3  -8  138.79   12.50
   0  -3  -8  155.58   13.80
   0  -3  -9   49.60    8.40
   0  -3  -9   47.40    6.90
   0  -3 -10   79.19    9.50
   0  -3 -10   86.19    8.60
   0  -3 -11   19.40    4.60
   0   4 -14   13.00    2.70
   0   4 -14   11.60    2.50
   0   4 -13  308.07   14.90
   0   4 -13  325.37   14.10
   0   4 -12  458.15   21.40
   0   4 -12  466.85   19.40
   0   4 -11   82.79    9.30
   0   4 -11   76.89    8.80
   0   4 -11   93.19    8.40
   0   4 -10  246.38   16.30
   0   4 -10  246.08   13.70
   0   4 -10  214.88   14.30
   0   4  -9 1712.73   39.00
   0   4  -9 1645.34   41.70
   0   4  -9 1615.34   44.70
   0   4  -9 1745.73   35.70
   0   4  -8  104.99   11.40
   0   4  -8  116.99   10.60
   0   4  -7   38.80    7.70
   0   4  -6  353.36   17.80
   0   4  -5  225.58   13.10
   0   4  -4   18.80    4.40
   0  -4   4   15.90    3.50
   0   4  -3  727.63   19.20
   0  -4   3  674.93   20.70
   0   4  -2  418.36   13.40
   0  -4   2  373.36   16.60
   0   4  -1   -0.40    1.60
   0  -4   1   -0.70    3.30
   0  -4   0  232.98   14.60
   0  -4  -1  219.18   14.80
   0   4   1  225.78   11.00
   0   4   2  381.86   16.00
   0  -4  -2  364.06   19.50
   0   4   3  109.09    9.40
   0  -4  -3  103.09   11.40
   0   4   4  104.99   10.10
   0  -4  -4  105.79   11.50
   0  -4  -5  454.15   22.70
   0  -4  -5  435.96   21.10
   0   4   5  463.55   22.30
   0  -4  -6  106.69    9.80
   0   4   6  129.29   12.60
   0  -4  -6  132.79   12.70
   0  -4  -7  504.35   23.50
   0  -4  -7  494.85   24.50
   0  -4  -8   56.49    8.60
   0  -4  -8   66.29    8.90
   0  -4  -9  184.08   13.70
   0  -4  -9  195.48   12.90
   0  -4 -10  337.17   15.50
   0  -4 -11  161.98    7.80
   0   5 -13    2.30    2.50
   0   5 -13   11.70    3.70
   0   5 -12   -0.20    2.10
   0   5 -12   -1.90    3.80
   0   5 -11   46.60    6.40
   0   5 -11   49.40    7.70
   0   5 -10  210.98   13.70
   0   5 -10  204.98   15.60
   0   5  -9   39.50    6.60
   0   5  -9   52.59    8.40
   0   5  -8   75.49    9.00
   0   5  -8   68.69    8.20
   0   5  -8   72.09    9.80
   0   5  -7   10.80    3.60
   0   5  -7    9.70    4.50
   0   5  -6  496.05   21.20
   0   5  -5 2614.94   44.70
   0  -5   4 1949.70   38.00
   0   5  -4 2054.59   36.80
   0   5  -3 1060.39   24.30
   0  -5   3  986.70   29.20
   0  -5   2  285.47   17.00
   0   5  -2  301.47   11.80
   0  -5   1  139.59   12.70
   0  -5   0 1275.37   38.00
   0  -5  -1 2878.41   58.99
   0  -5  -2 2116.39   51.79
   0  -5  -3  843.92   33.10
   0   5   3  865.51   25.00
   0  -5  -3  834.02   28.60
   0  -5  -4    7.20    5.00
   0  -5  -4    9.90    3.90
   0   5   4   -1.30    2.70
   0   5   5  234.68   13.30
   0  -5  -5  222.78   16.70
   0  -5  -6  512.35   24.70
   0  -5  -6  579.34   25.20
   0  -5  -7  556.24   23.30
   0  -5  -7  525.95   24.10
   0  -5  -8  154.28   10.80
   0  -5  -8  145.39   12.00
   0  -5  -9   15.10    4.00
   0  -5 -10   19.70    3.00
   0   6 -13   90.39    6.40
   0   6 -12    4.30    3.10
   0   6 -11   -3.30    1.80
   0   6 -11    1.40    3.20
   0   6 -10  300.47   17.80
   0   6 -10  283.47   13.90
   0   6  -9  447.66   18.30
   0   6  -9  486.75   23.00
   0   6  -8  346.37   16.00
   0   6  -8  345.87   16.60
   0   6  -7  145.29   10.90
   0   6  -7  153.88   12.90
   0   6  -7  141.89   10.90
   0   6  -6   33.50    5.20
   0   6  -6   25.10    5.50
   0   6  -6   26.20    5.30
   0   6  -6   22.60    5.70
   0   6  -6   24.30    4.80
   0   6  -5  243.28   14.40
   0   6  -5  243.18   13.50
   0   6  -5  238.88   13.90
   0   6  -5  253.57   14.80
   0  -6   4  900.61   28.80
   0   6  -4  937.31   27.80
   0  -6   3  573.04   24.80
   0  -6   2  549.85   25.60
   0   6  -1  117.69    9.90
   0  -6   1  128.99   13.30
   0   6  -1  139.39   10.90
   0  -6   0    5.80    4.20
   0   6   0    7.30    3.30
   0  -6  -1   29.40    8.20
   0   6   1   29.60    5.60
   0   6   2    2.20    2.80
   0  -6  -2   11.00    3.30
   0  -6  -2    4.20    4.80
   0  -6  -3   15.60    4.20
   0   6   3   18.80    4.30
   0  -6  -4   48.20    8.00
   0   6   4   44.50    6.20
   0   6   5    4.20    2.10
   0  -6  -5    0.60    2.80
   0  -6  -6    1.30    2.50
   0  -6  -6   -1.10    2.90
   0  -6  -7   32.70    5.10
   0  -6  -7   37.30    6.40
   0  -6  -8   25.60    4.30
   0   7 -12    2.40    2.20
   0   7 -11   51.89    6.30
   0   7 -10    7.00    1.90
   0   7 -10    7.10    3.50
   0   7  -9   -1.40    2.20
   0   7  -9   -1.00    2.30
   0   7  -9    3.00    1.50
   0   7  -8    4.60    3.10
   0   7  -8    9.90    3.70
   0   7  -8    2.90    3.00
   0   7  -7    7.60    3.20
   0   7  -7    4.60    3.10
   0   7  -7    9.30    3.70
   0   7  -6  206.18   13.80
   0   7  -6  206.08   13.80
   0   7  -6  215.58   13.40
   0   7  -5   34.90    6.40
   0   7  -5   31.40    5.60
   0   7  -5   27.00    5.50
   0   7  -5   30.20    5.50
   0   7  -5   35.50    5.80
   0   7  -4   96.89    9.70
   0   7  -4  102.49    9.30
   0   7  -4   80.59    8.30
   0   7  -4   87.79    9.10
   0   7  -4   94.09   10.10
   0   7  -3    6.00    3.50
   0   7  -3   12.60    4.40
   0   7  -3    3.60    3.60
   0   7  -2   22.20    5.50
   0   7  -2   16.90    5.00
   0   7  -1  492.75   20.20
   0   7   0    6.70    3.80
   0   7   0   15.70    4.60
   0   7   1   13.90    4.40
   0  -7  -1   12.10    4.50
   0   7   2  182.08   12.80
   0  -7  -2  164.88   13.60
   0   7   2  160.88   11.70
   0  -7  -3  252.57   16.30
   0   7   3  260.87   13.90
   0  -7  -4   69.29    8.80
   0  -7  -5  261.07   14.00
   0  -7  -5  252.17   14.40
   0  -7  -6   69.39    6.80
   0  -7  -6   53.99    5.20
   0  -7  -7    9.40    2.20
   0   8 -11  308.87   10.00
   0   8 -10   95.39    6.90
   0   8 -10   82.29    5.00
   0   8  -9   -0.20    1.60
   0   8  -9    0.90    2.40
   0   8  -8  107.79    7.90
   0   8  -8   99.69    8.40
   0   8  -8  102.69    8.30
   0   8  -7   83.09    7.80
   0   8  -7   85.69    8.30
   0   8  -7   74.89    7.50
   0   8  -6  600.04   19.10
   0   8  -6  615.74   20.80
   0   8  -6  607.44   20.00
   0   8  -6  628.64   22.80
   0   8  -5  575.44   20.80
   0   8  -5  596.44   22.80
   0   8  -5  596.54   19.30
   0   8  -5  576.64   19.20
   0   8  -5  577.64   20.80
   0   8  -4  165.28   11.30
   0   8  -4  169.68   11.90
   0   8  -4  156.18   10.00
   0   8  -4  169.28   12.50
   0   8  -4  141.19   10.80
   0   8  -3  103.29    9.30
   0   8  -3   90.49    8.90
   0   8  -3   84.99    9.20
   0   8  -2   57.19    7.10
   0   8  -2   61.49    8.00
   0   8  -2   58.29    7.30
   0   8  -1  217.98   14.20
   0   8  -1  220.98   13.80
   0   8   0  659.23   23.80
   0  -8   0  598.84   23.50
   0  -8  -1  142.49   11.40
   0   8   1  152.38   10.90
   0   8   2   23.30    4.60
   0   8   2   18.20    4.30
   0  -8  -2   16.70    4.60
   0   8   3    4.90    2.30
   0  -8  -3    6.30    3.10
   0   8   3    6.60    3.10
   0  -8  -4   46.60    5.30
   0   8   4   48.50    4.40
   0  -8  -4   43.00    5.00
   0  -8  -5  105.19    5.70
   0   9  -9   84.99    4.50
   0   9  -8   45.60    3.90
   0   9  -7    6.70    2.40
   0   9  -6    4.20    1.70
   0   9  -5   14.70    3.10
   0   9  -4   51.29    5.40
   0   9  -4   48.20    5.60
   0   9  -3   15.50    3.60
   0   9  -3   19.90    4.20
   0   9  -2   14.20    3.50
   0   9  -2    8.20    2.80
   0  -9   2    9.90    3.60
   0   9  -1    0.70    2.10
   0   9  -1    1.60    1.90
   0  -9   1    0.10    1.80
   0  -9   0    0.20    2.00
   0   9   0    1.00    1.60
   0   9   0    4.50    2.20
   0   9   1   41.50    4.20
   0  -9  -1   38.90    4.40
   0   9   1   42.20    4.50
   0   9   2   14.60    2.60
   0  -9  -2   15.30    2.30
   0  -9  -2    9.90    2.50
   0  10  -5  110.49    5.20
   0  10  -4  114.49    5.10
   0  10  -3  129.49    5.40
  -1  10  -2   78.49    4.50
   1 -10   3   32.30    3.20
  -1  10  -3   45.80    3.50
   1 -10   4    8.00    2.10
  -1   9   3    7.20    1.60
  -1   9   2    1.90    1.70
   1  -9  -2   -1.60    2.00
  -1   9   2    3.30    1.50
  -1   9   1   -0.50    1.30
   1  -9  -1    0.30    2.00
  -1   9   1   -2.00    1.90
  -1   9   0   20.70    3.90
  -1   9   0   19.60    3.90
   1  -9   0   12.40    3.80
  -1   9  -1   73.19    6.40
   1  -9   1   65.79    7.20
  -1   9  -1   74.49    7.10
  -1   9  -2   75.79    7.40
  -1   9  -2   78.19    6.70
  -1   9  -3  123.19    8.90
  -1   9  -3  119.89    7.90
  -1   9  -3  115.29    8.50
  -1   9  -4   99.69    8.20
  -1   9  -4   95.99    7.70
  -1   9  -5  101.09    7.20
  -1   9  -5  112.39    8.50
  -1   9  -6   -0.60    1.70
  -1   9  -6   -0.20    2.40
  -1   9  -7   62.59    5.70
  -1   9  -7   67.29    6.30
  -1   9  -8   58.89    5.00
  -1   9  -9  237.58    7.90
   1  -8  -5   45.60    4.60
  -1   8   5   43.90    3.60
   1  -8  -4   -0.70    2.40
   1  -8  -3    3.50    3.20
  -1   8   3    9.00    2.90
   1  -8  -2  319.47   16.90
  -1   8   2  334.27   15.30
   1  -8  -1  681.63   25.60
  -1   8   1  661.73   21.90
  -1   8  -1    7.50    3.70
  -1   8  -2   54.69    7.00
  -1   8  -3   44.80    6.10
  -1   8  -3   44.30    6.90
  -1   8  -3   42.00    6.60
  -1   8  -4  505.65   20.60
  -1   8  -4  520.95   18.40
  -1   8  -4  491.75   20.30
  -1   8  -4  497.35   21.00
  -1   8  -5  857.11   24.70
  -1   8  -5  880.11   26.60
  -1   8  -5  855.81   27.50
  -1   8  -6  561.44   20.80
  -1   8  -6  535.95   21.30
  -1   8  -7  120.69    9.90
  -1   8  -7  131.19   10.00
  -1   8  -7  114.19    8.50
  -1   8  -8    7.10    3.20
  -1   8  -8   10.10    3.60
  -1   8  -8    6.60    3.00
  -1   8  -9   33.50    4.30
  -1   8  -9   28.20    4.40
  -1   8  -9   32.00    4.60
  -1   8 -10  253.37   10.30
  -1   8 -10  277.47   10.60
  -1   8 -11  104.49    5.50
  -1   8 -11   98.29    4.80
   1  -7  -7   64.69    5.50
   1  -7  -6   71.39    7.40
  -1   7   5  139.69    9.10
   1  -7  -5  147.69   11.50
  -1   7   4   18.70    4.00
   1  -7  -4   18.80    5.10
  -1   7   4   10.40    3.20
   1  -7  -3   44.90    7.30
  -1   7   3   43.60    5.80
   1  -7  -2    0.90    3.10
  -1   7   2    0.60    2.80
  -1   7   1  258.67   15.10
  -1   7   0  336.67   15.70
  -1   7   0  315.97   16.50
  -1   7  -1   61.69    7.90
  -1   7  -1   65.69    7.70
  -1   7  -1   61.99    7.80
  -1   7  -2  363.06   17.80
  -1   7  -2  343.07   16.50
  -1   7  -2  368.36   18.00
  -1   7  -3   -2.30    2.70
  -1   7  -4   44.60    7.00
  -1   7  -5   42.40    6.70
  -1   7  -6   30.60    6.00
  -1   7  -6   23.70    4.40
  -1   7  -7  109.69    9.90
  -1   7  -7  103.09    9.80
  -1   7  -7  102.19    9.50
  -1   7  -8   25.40    5.10
  -1   7  -8   36.40    5.60
  -1   7  -8   26.70    5.60
  -1   7  -9    0.40    2.20
  -1   7  -9    0.60    2.70
  -1   7  -9    5.90    2.20
  -1   7 -10   23.00    4.50
  -1   7 -10   22.60    4.80
  -1   7 -11  168.08   10.20
  -1   7 -11  158.58    8.50
  -1   7 -12   73.89    5.80
  -1   7 -12   63.89    4.10
   1  -6  -8   15.50    3.70
   1  -6  -7    1.70    3.00
  -1   6   6    9.90    3.00
   1  -6  -6   17.40    5.30
  -1   6   5   16.20    3.90
   1  -6  -5   12.60    4.50
   1  -6  -4  297.57   18.90
  -1   6   4  308.57   16.30
   1  -6  -3   89.39   10.50
  -1   6   3   95.49    9.00
  -1   6   2  289.47   15.80
   1  -6  -2  297.87   20.40
  -1   6   1   91.49    9.20
   1  -6  -1   87.29   11.20
   1  -6   0   15.90    5.30
  -1   6   0   19.50    4.70
  -1   6   0   26.40    5.10
   1  -6   1  589.84   26.60
   1  -6   2  610.94   26.10
   1  -6   3  435.56   21.20
   1  -6   4   81.99    8.40
  -1   6  -4  108.19    9.40
  -1   6  -5    6.40    3.70
  -1   6  -6  255.37   14.80
  -1   6  -7  686.03   25.60
  -1   6  -8  413.76   17.80
  -1   6  -8  421.46   20.60
  -1   6  -9  346.97   19.10
   1  -6  10   77.19    7.20
  -1   6 -10   77.89    9.30
  -1   6 -11  126.19   11.00
   1  -6  11  115.29    8.50
  -1   6 -12  318.57   11.90
  -1   6 -12  300.27   14.30
  -1   6 -13   30.60    4.10
   1  -5 -10   77.99    5.50
   1  -5  -9  424.46   17.20
   1  -5  -8 1017.00   30.90
   1  -5  -7  633.74   22.60
  -1   5   7  685.73   20.10
   1  -5  -7  721.63   28.60
   1  -5  -6  129.29   12.40
  -1   5   6  128.69   10.00
   1  -5  -6  106.09    9.90
   1  -5  -5   -6.20    3.90
   1  -5  -4  243.28   17.00
  -1   5   4  220.18   15.60
   1  -5  -4  264.57   16.90
  -1   5   3 1585.84   39.40
   1  -5  -3 1660.93   44.30
   1  -5  -3 1635.54   39.80
  -1   5   2 1645.34   37.90
   1  -5  -2 1704.13   44.70
   1  -5  -1  624.94   26.40
   1  -5   0  364.66   19.70
   1  -5   1  325.37   18.00
   1  -5   2  967.80   29.40
   1  -5   3  506.75   20.40
  -1   5  -4  733.13   20.80
   1  -5   4  715.13   22.60
   1  -5   5   27.60    4.20
  -1   5  -5   32.80    5.20
  -1   5  -6    2.50    3.10
  -1   5  -7   13.20    3.60
  -1   5  -7    8.10    4.70
  -1   5  -8   15.30    4.30
  -1   5  -8   14.40    5.40
  -1   5  -8    6.30    4.00
  -1   5  -9  623.24   22.30
  -1   5  -9  640.34   27.40
  -1   5 -10   -0.40    2.70
  -1   5 -10    5.90    2.80
  -1   5 -11    6.60    3.90
  -1   5 -11   13.10    4.90
  -1   5 -11   15.90    3.50
  -1   5 -12    1.40    2.30
  -1   5 -12   -2.50    3.10
  -1   5 -13   -0.30    2.70
   1  -5  13    2.50    2.00
   1  -4 -11  111.39    6.90
   1  -4 -10   21.30    4.80
   1  -4  -9   -2.10    3.60
   1  -4  -8  160.18   12.70
   1  -4  -8  161.38   13.90
   1  -4  -7  164.38   12.90
   1  -4  -7  178.18   14.40
  -1   4   6  117.19   11.80
   1  -4  -6   91.89    9.50
   1  -4  -6   95.69   10.60
  -1   4   5   42.20    7.80
   1  -4  -5   33.60    6.20
   1  -4  -4  179.28   13.80
  -1   4   4  195.98   14.40
  -1   4   3  529.05   21.70
   1  -4  -3  547.95   23.20
   1  -4  -2   59.49    8.00
   1  -4  -1   48.90    7.40
   1  -4   0  924.61   27.40
   1  -4   1    0.40    2.80
   1  -4   2  191.08   11.50
  -1   4  -2  199.08    8.30
   1  -4   3 2604.54   38.90
  -1   4  -3 2538.75   34.10
  -1   4  -4   57.39    6.10
   1  -4   4   64.99    6.10
   1  -4   5  167.78    9.20
   1  -4   5  166.58    8.70
   1  -4   6  710.93   20.00
   1  -4   7    6.00    2.80
  -1   4  -8  313.07   17.90
  -1   4  -9  100.59   12.50
  -1   4  -9  108.89   11.10
  -1   4  -9  119.99    9.80
  -1   4 -10  893.41   27.50
  -1   4 -10  932.31   33.20
  -1   4 -11  604.94   22.30
  -1   4 -11  625.14   26.40
  -1   4 -12  344.87   18.20
  -1   4 -12  343.07   15.40
  -1   4 -13    2.10    2.00
  -1   4 -13    2.80    2.30
  -1   4 -14  104.49    6.20
   1  -3 -12   11.20    2.60
   1  -3 -11   80.69    7.80
   1  -3 -10   11.10    4.20
   1  -3  -9  118.39   12.10
   1  -3  -9  113.09   11.90
   1  -3  -8   51.39    8.10
   1  -3  -8   50.19    8.70
  -1   3   7  770.62   31.50
   1  -3  -7  715.43   27.40
   1  -3  -7  695.53   27.70
  -1   3   6  523.55   24.90
   1  -3  -5  768.92   23.70
  -1   3   5  771.02   27.90
  -1   3   4  335.67   17.10
   1  -3  -4  298.57   15.10
   1  -3  -3    7.60    3.40
  -1   3   3    8.10    3.50
   1  -3  -2  134.09   10.10
   1  -3  -1  118.69    9.10
  -1   3   0 2833.72   16.30
   1  -3   0 2960.60   40.80
  -1   3  -1 6786.72   37.30
   1  -3   1 6721.93   58.19
   1  -3   2 1874.41   29.00
   1  -3   3    0.30    1.90
   1  -3   3    0.70    1.40
   1  -3   4   17.30    3.10
   1  -3   4   12.60    2.60
   1  -3   5 1667.73   28.70
   1  -3   6 1599.94   30.70
   1  -3   7 1764.72   35.10
   1  -3   8  239.28   14.10
   1  -3   9    2.90    2.90
  -1   3  -9    7.30    3.70
  -1   3  -9    1.80    1.80
  -1   3 -10   14.00    4.00
  -1   3 -10   23.60    4.80
  -1   3 -11  489.85   20.90
  -1   3 -11  523.05   24.30
  -1   3 -12  590.24   23.90
  -1   3 -12  602.54   21.60
  -1   3 -13  183.48   10.10
  -1   3 -13  188.18   11.50
  -1   3 -14    1.80    1.70
   1  -2 -12    6.60    2.80
   1  -2 -11   63.69    6.50
   1  -2 -11   71.29    8.20
   1  -2 -10  326.87   18.90
   1  -2  -9  294.27   18.50
   1  -2  -9  296.27   18.70
   1  -2  -8  269.77   17.30
  -1   2   8  272.47   19.40
   1  -2  -8  278.27   17.70
  -1   2   7  101.29   11.90
  -1   2   6  409.86   20.80
  -1   2   5 1042.80   29.80
   1  -2  -5  917.71   20.90
  -1   2   4  999.40   26.70
   1  -2  -4  906.41   21.30
   1  -2  -3 1079.89   22.60
   1  -2  -2  485.45   14.70
   1  -2  -1  500.25   14.20
  -1   2   0  134.49    3.10
   1  -2   0  137.99    7.30
   1  -2   1    2.20    2.20
   1  -2   2 2959.20   28.00
   1  -2   2 2846.62   27.50
   1  -2   3  372.16    9.50
   1  -2   3  363.16   10.90
   1  -2   4 1121.79   14.70
   1  -2   4 1164.38   21.70
   1  -2   5  495.05   16.00
   1  -2   6   41.80    5.60
   1  -2   7   54.19    6.80
   1  -2   8  284.37   16.40
  -1   2  -9   49.60    7.80
   1  -2   9   49.70    7.60
  -1   2 -10   17.00    5.10
  -1   2 -11   66.09    8.70
  -1   2 -12  102.29   10.00
  -1   2 -12   79.19    8.30
  -1   2 -13  198.98   10.90
  -1   2 -13  206.28   11.80
   1  -1 -13   90.29    6.50
   1  -1 -13   95.59    6.80
   1  -1 -12   69.39    8.00
   1  -1 -11   11.90    4.70
   1  -1 -11   11.30    3.20
   1  -1 -10    8.00    4.10
   1  -1  -9   -0.50    3.70
   1  -1  -9    1.10    4.30
   1  -1  -8   11.00    4.20
  -1   1   8   15.10    5.80
   1  -1  -8    7.20    2.70
  -1   1   7    4.10    3.70
  -1   1   6   21.20    5.10
  -1   1   5   24.70    5.00
   1  -1  -4    1.40    1.30
  -1   1   4   -0.20    2.00
   1  -1  -3  253.97    8.00
  -1   1   3  235.48   10.20
   1  -1  -2  368.76    9.20
   1  -1  -2  323.97    5.70
   1  -1  -1  827.22   12.80
   1  -1   0   40.80    2.90
   1  -1   1    0.60    1.20
   1  -1   2 2699.93   20.00
   1  -1   3 2994.70   22.40
   1  -1   3 3101.59   31.70
   1  -1   4 2004.50   29.60
   1  -1   4 1983.70   19.00
   1  -1   5 4440.56   50.29
   1  -1   5 4598.54   30.30
   1  -1   6  460.55   18.30
   1  -1   7 1227.48   32.50
   1  -1   8  318.47   18.30
  -1   1  -9  441.26   21.30
   1  -1   9  443.06   22.50
  -1   1  -9  415.86   21.70
  -1   1 -10  255.77   17.70
  -1   1 -11  348.17   19.70
  -1   1 -12   45.00    6.80
  -1   1 -13  216.38   11.10
  -1   1 -13  206.18   11.00
   1   0 -13  290.47   13.00
   1   0 -13  270.97   13.10
   1   0 -12  588.54   18.20
   1   0 -12  597.64   23.20
   1   0 -11   54.39    6.80
   1   0 -11   66.69    8.70
   1   0 -10   72.29    7.90
   1   0 -10   66.79    8.60
   1   0  -9    8.00    3.40
  -1   0   9    0.90    4.30
   1   0  -8  253.97   14.70
  -1   0   8  270.57   16.80
  -1   0   7 2822.52   49.90
  -1   0   6 9477.95   82.69
  -1   0   5  320.77   13.50
   1   0  -5  318.07    8.90
  -1   0   4  288.67   11.30
   1   0  -4  290.67    7.90
  -1   0   3 1050.29   18.00
   1   0  -2 6932.51   35.70
   1   0  -1 2183.58   16.80
   1   0  -1 2319.97   15.00
   1   0   0 3215.58   19.30
   1   0   1 2260.37   17.80
   1   0   2  224.48    6.30
   1   0   3  846.42   13.40
   1   0   3  845.32   17.50
   1   0   4 1740.63   29.20
   1   0   4 1737.83   21.20
   1   0   5 3407.56   32.70
   1   0   5 3505.55   46.70
   1   0   6  720.13   23.90
   1   0   7   33.10    6.60
   1   0   8   27.50    6.30
  -1   0  -9    4.20    4.20
   1   0   9    3.00    4.60
  -1   0  -9    0.20    2.70
  -1   0 -10    3.30    3.30
  -1   0 -10    5.00    3.30
  -1   0 -11   31.50    6.20
  -1   0 -12   17.40    5.00
  -1   0 -12   20.40    3.70
  -1   0 -13    5.10    2.30
  -1   0 -13    3.80    2.40
   1   1 -14   17.90    2.90
   1   1 -13  114.39    8.70
   1   1 -13  115.29    9.40
   1   1 -12  692.73   25.10
   1   1 -12  656.43   20.40
   1   1 -11  102.29    9.10
   1   1 -11  102.19   10.80
   1   1 -10  176.18   12.20
   1   1 -10  166.48   13.30
   1   1 -10  179.38   13.60
   1   1  -9  145.09   10.40
   1   1  -9  122.59   11.40
  -1  -1   9  140.09   12.40
   1   1  -9  161.58   12.10
   1   1  -9  145.79   11.20
  -1  -1   8   35.00    6.40
   1   1  -8   31.10    6.40
   1   1  -7  157.78   11.60
  -1  -1   7  158.08   10.80
  -1  -1   6  506.45   17.10
  -1  -1   5   56.09    5.40
   1   1  -5   54.79    4.20
   1   1  -4   10.20    2.00
  -1  -1   4    4.90    1.90
   1   1  -4    9.10    2.80
   1   1  -3  106.39    6.50
   1   1  -3  111.09    5.00
   1   1  -3  109.59    2.70
  -1  -1   3  100.79    2.90
  -1  -1   3  110.09    4.90
   1   1  -2 1199.08   11.60
  -1  -1   2 1237.78   11.20
   1   1  -1   57.59    3.10
   1   1   0   85.19    2.80
   1   1   0   83.69    3.20
   1   1   0   87.49    4.10
   1   1   1 2268.17   13.70
   1   1   1 2229.08   22.50
   1   1   2  211.88    8.20
   1   1   2  214.58    7.80
   1   1   3 1277.57   20.80
   1   1   3 1292.47   23.80
   1   1   4  781.32   17.90
   1   1   4  776.62   21.00
   1   1   5  353.06   16.00
   1   1   6  778.12   26.20
   1   1   7  263.97   16.80
   1   1   8   50.69    8.80
  -1  -1  -8   48.90    7.00
  -1  -1  -8   45.10    7.10
  -1  -1  -9   -0.70    3.00
  -1  -1  -9   13.80    4.40
  -1  -1 -10  443.26   23.10
  -1  -1 -10  451.35   22.60
  -1  -1 -11  669.43   25.80
  -1  -1 -11  627.74   25.10
  -1  -1 -12  487.75   15.20
  -1  -1 -12  539.85   18.50
  -1  -1 -13  128.89    6.40
   1   2 -14   20.90    3.50
   1   2 -13   13.40    3.60
   1   2 -13    4.70    3.30
   1   2 -12   -4.40    2.70
   1   2 -12    0.60    3.00
   1   2 -12    0.00    2.00
   1   2 -11   37.90    6.50
   1   2 -11   33.60    5.20
   1   2 -11   43.10    7.40
   1   2 -10   27.40    5.20
   1   2 -10   24.30    5.80
   1   2  -9  180.58   13.10
   1   2  -9  167.68   14.40
   1   2  -9  168.98   11.40
  -1  -2   8  485.25   18.60
   1   2  -8  469.85   22.00
  -1  -2   7    1.60    2.70
   1   2  -7    5.50    3.80
   1   2  -6   50.29    6.60
  -1  -2   6   40.30    4.40
   1   2  -5  655.53   20.50
  -1  -2   5  597.44   14.00
  -1  -2   4  871.31   11.10
   1   2  -4  842.32   21.10
  -1  -2   4  851.81   13.50
   1   2  -4  895.51   17.30
  -1  -2   3 1067.49   16.80
   1   2  -3 1150.68   18.20
   1   2  -3 1128.59   21.70
   1   2  -2 1488.45   19.00
   1   2  -2 1499.25   19.30
  -1  -2   2 1528.35   21.60
   1   2  -1   10.50    2.60
   1   2  -1   11.70    2.40
   1   2  -1   11.30    2.00
   1   2   0  843.32   16.70
   1   2   0  811.82   10.80
   1   2   1  211.08    7.60
   1   2   1  218.38    9.30
   1   2   2  505.15   15.00
   1   2   2  485.45   13.90
   1   2   3 1576.94   28.90
   1   2   3 1607.74   28.50
  -1  -2  -4  591.24   20.20
   1   2   4  527.65   19.00
   1   2   5   24.40    5.00
  -1  -2  -5   20.60    4.50
   1   2   6  727.33   26.80
  -1  -2  -7 2427.66   50.39
   1   2   7 2478.25   52.79
  -1  -2  -7 2591.84   50.69
  -1  -2  -8  718.93   29.10
  -1  -2  -8  714.93   28.60
  -1  -2  -9   79.49   10.40
  -1  -2  -9   71.39    9.40
  -1  -2 -10  108.09   11.00
  -1  -2 -10  111.19   11.40
  -1  -2 -11   25.40    5.30
  -1  -2 -11   19.70    4.80
  -1  -2 -12  262.47    9.00
  -1  -2 -12  357.56   11.10
   1   3 -14  269.87   10.80
   1   3 -13  415.06   13.20
   1   3 -13  434.36   17.70
   1   3 -12   86.69    9.40
   1   3 -12   89.09    9.40
   1   3 -12   79.69    7.60
   1   3 -11   43.40    7.10
   1   3 -11   44.00    7.00
   1   3 -11   52.29    7.20
   1   3 -10  453.65   20.90
   1   3 -10  423.96   21.00
   1   3 -10  472.45   19.70
   1   3  -9  373.36   21.30
   1   3  -9  359.26   16.70
   1   3  -9  358.06   18.40
   1   3  -9  353.76   17.70
   1   3  -8 1195.58   36.10
   1   3  -7 1002.90   31.30
   1   3  -6  196.08   13.00
   1   3  -5    6.60    3.80
   1   3  -4   40.40    5.60
  -1  -3   4   40.00    4.30
  -1  -3   3 5139.09   49.40
   1   3  -3 5322.87   52.39
  -1  -3   2 2452.55   36.20
   1   3  -2 2534.75   33.40
  -1  -3   1  282.37   13.00
   1   3  -1  299.17   10.80
   1   3   0  697.13   12.40
  -1  -3   0  794.82   22.60
   1   3   1 1057.29   19.30
  -1  -3  -1 1152.68   28.40
   1   3   2  175.88    9.40
  -1  -3  -2  187.28   12.50
  -1  -3  -3  387.76   18.70
   1   3   3  396.36   15.90
  -1  -3  -4  217.58   15.00
   1   3   4  203.18   12.70
  -1  -3  -5   83.29   10.10
   1   3   5   72.89    8.40
  -1  -3  -6   82.69    9.20
   1   3   6   80.09    9.60
  -1  -3  -6   86.29    9.40
  -1  -3  -7  300.17   18.70
  -1  -3  -7  303.77   19.10
  -1  -3  -8    9.20    4.00
  -1  -3  -8   -1.00    2.00
  -1  -3  -9    4.00    3.80
  -1  -3  -9    3.80    3.60
  -1  -3 -10   22.10    5.60
  -1  -3 -10   25.30    5.20
  -1  -3 -11   18.10    3.70
  -1  -3 -11   16.10    3.60
   1   4 -14   25.90    3.50
   1   4 -13  146.19    9.40
   1   4 -13  162.68   10.40
   1   4 -12  247.58   12.60
   1   4 -12  238.38   15.00
   1   4 -12  220.18   13.80
   1   4 -11  114.59   10.80
   1   4 -11  116.09   11.80
   1   4 -11  119.69    9.90
   1   4 -10  116.39   10.40
   1   4 -10  112.79   11.80
   1   4 -10  130.99   11.60
   1   4  -9  368.66   18.70
   1   4  -9  369.06   17.50
   1   4  -9  377.36   19.10
   1   4  -9  341.37   19.70
   1   4  -8   16.60    5.20
   1   4  -8   20.80    4.30
   1   4  -8   30.80    6.70
   1   4  -8   17.20    4.30
   1   4  -8    9.30    4.60
   1   4  -8   20.30    6.40
   1   4  -8   21.40    4.90
   1   4  -7  221.18   15.30
   1   4  -6    8.90    4.30
   1   4  -5   62.29    7.70
  -1  -4   4  277.87   13.30
   1   4  -4  314.97   14.90
   1   4  -3  190.08   10.90
  -1  -4   3  164.78   11.20
   1   4  -2  619.84   18.10
  -1  -4   2  617.94   22.30
  -1  -4   1  787.42   26.30
   1   4  -1  854.01   19.70
  -1  -4   0  926.91   29.40
  -1  -4  -1  573.44   24.20
  -1  -4  -2    0.70    3.90
  -1  -4  -3 1106.59   36.30
  -1  -4  -4 1269.87   40.10
  -1  -4  -5  586.24   27.10
  -1  -4  -5  543.65   23.90
  -1  -4  -6  470.95   23.30
  -1  -4  -6  498.65   24.70
  -1  -4  -7   18.50    5.00
  -1  -4  -7   10.70    4.40
  -1  -4  -8  170.28   14.10
  -1  -4  -8  161.38   13.30
  -1  -4  -9  128.59   10.90
  -1  -4  -9  133.49   11.30
  -1  -4 -10  202.48   10.30
  -1  -4 -10  202.68   10.70
   1   5 -13    8.90    2.70
   1   5 -13    5.10    1.30
   1   5 -12  171.08   11.60
   1   5 -12  167.38   11.70
   1   5 -11  747.33   27.30
   1   5 -11  755.82   26.00
   1   5 -10  338.07   19.60
   1   5 -10  330.87   17.90
   1   5 -10  331.07   16.90
   1   5  -9   20.00    5.10
   1   5  -9   15.30    4.70
   1   5  -9   20.80    6.50
   1   5  -8    5.60    3.30
   1   5  -8   21.90    6.40
   1   5  -8    8.50    4.00
   1   5  -8   17.50    4.80
   1   5  -7  741.93   23.90
   1   5  -7  698.93   27.50
   1   5  -7  729.93   25.00
   1   5  -7  733.63   26.90
   1   5  -7  805.72   25.70
   1   5  -6 1427.26   37.20
   1   5  -5 2300.27   44.90
  -1  -5   4 1126.79   30.20
   1   5  -4 1198.18   29.90
   1   5  -3   57.49    6.80
  -1  -5   3   52.29    7.90
   1   5  -2  351.36   14.30
  -1  -5   2  311.47   18.40
  -1  -5   1 2082.39   48.80
  -1  -5   0 1933.21   48.60
  -1  -5  -1 2065.29   51.89
  -1  -5  -2  375.06   23.00
  -1  -5  -3  114.29   13.60
   1   5   3  124.69    9.50
   1   5   3  108.09    9.20
  -1  -5  -3  113.49   10.40
  -1  -5  -4   96.79   10.40
   1   5   4   89.59    8.10
  -1  -5  -5  175.18   14.20
  -1  -5  -6  125.29   12.60
  -1  -5  -6  108.69   11.20
  -1  -5  -7  223.18   14.80
  -1  -5  -7  252.77   16.50
  -1  -5  -8  197.58   12.80
  -1  -5  -8  185.48   12.20
  -1  -5  -9   -4.80    2.00
  -1  -5  -9    1.40    2.30
   1   6 -13    3.60    1.70
   1   6 -12   10.10    2.40
   1   6 -12   15.90    3.60
   1   6 -11  189.18   10.70
   1   6 -11  207.28   13.30
   1   6 -10  360.66   18.70
   1   6 -10  345.67   16.00
   1   6  -9  195.68   14.70
   1   6  -9  170.08   12.00
   1   6  -8   16.40    5.60
   1   6  -8   13.80    3.40
   1   6  -8   17.20    4.70
   1   6  -7   38.90    6.90
   1   6  -7   37.50    6.00
   1   6  -7   31.90    5.00
   1   6  -6  384.16   18.30
   1   6  -6  400.76   18.50
   1   6  -6  426.06   20.50
   1   6  -6  387.76   16.70
   1   6  -6  397.26   19.40
   1   6  -5   33.20    5.80
   1   6  -5   27.10    5.60
   1   6  -5   23.70    4.60
   1   6  -5   18.00    4.10
   1   6  -5   31.30    5.80
   1   6  -5   21.90    5.80
   1   6  -5   37.80    6.20
   1   6  -4    0.00    2.40
   1   6  -4    3.50    2.90
   1   6  -4    0.40    2.10
   1   6  -4   -6.10    2.30
   1   6  -4   -4.30    3.30
   1   6  -4   -2.80    2.00
   1   6  -3   70.49    7.70
   1   6  -3   65.09    7.90
   1   6  -3   54.49    7.40
   1   6  -3   61.19    8.20
   1   6  -3   52.89    6.80
  -1  -6   3   69.39    8.80
   1   6  -3   62.39    6.90
   1   6  -2  646.14   22.90
   1   6  -2  637.64   23.10
   1   6  -2  625.54   21.10
   1   6  -2  649.43   24.40
   1   6  -2  650.13   21.60
  -1  -6   2  608.84   27.80
   1   6  -1  158.98   11.70
   1   6  -1  155.38   12.30
   1   6  -1  151.88   10.20
  -1  -6   1  147.79   15.10
   1   6   0   28.60    5.40
   1   6   0   30.80    5.40
  -1  -6   0   30.10    7.60
   1   6   0   14.00    3.70
  -1  -6  -1   94.39    9.60
  -1  -6  -1   86.89   12.30
   1   6   1  102.79    9.80
  -1  -6  -2    8.50    3.40
   1   6   2   13.20    4.40
  -1  -6  -3   24.70    5.10
   1   6   3   21.30    4.30
  -1  -6  -4   17.20    5.10
   1   6   5  113.09    8.20
  -1  -6  -5  108.89   10.60
  -1  -6  -6  127.09   11.30
  -1  -6  -6  127.49   10.20
  -1  -6  -7  348.87   15.40
  -1  -6  -7  332.37   13.90
  -1  -6  -8   57.29    4.40
   1   7 -12   12.70    2.50
   1   7 -11    7.10    3.00
   1   7 -10   12.60    3.10
   1   7 -10   11.20    4.00
   1   7  -9    5.00    2.40
   1   7  -9    3.70    3.30
   1   7  -8   94.39    8.80
   1   7  -8   93.89    9.50
   1   7  -7  156.78   11.70
   1   7  -7  177.98   13.10
   1   7  -7  176.08   10.90
   1   7  -7  171.08   12.10
   1   7  -6   31.10    5.90
   1   7  -6   30.60    5.80
   1   7  -6   28.20    5.00
   1   7  -6   34.60    5.70
   1   7  -6   26.50    5.40
   1   7  -5    3.50    2.30
   1   7  -5    1.20    2.40
   1   7  -5   -2.00    3.10
   1   7  -5    2.70    3.80
   1   7  -5    2.40    3.70
   1   7  -5   -1.20    3.70
   1   7  -4  114.09   10.50
   1   7  -4  108.99    9.90
   1   7  -4  119.39    9.80
   1   7  -4  121.09   10.70
   1   7  -4  121.59   11.30
   1   7  -4  126.49   10.40
   1   7  -3  345.37   16.50
   1   7  -3  342.77   17.60
   1   7  -3  353.06   18.60
   1   7  -3  353.66   18.10
   1   7  -2    7.50    4.00
   1   7  -2    2.40    3.30
   1   7  -2    4.40    3.30
   1   7  -2    1.10    3.20
   1   7  -1  441.46   18.00
   1   7  -1  491.35   22.20
   1   7  -1  468.75   21.20
  -1  -7   0    0.90    1.00
   1   7   0   -0.20    2.20
   1   7   0    1.60    3.10
  -1  -7  -1  142.49   11.70
   1   7   1  159.18   12.30
   1   7   2  339.37   17.00
  -1  -7  -2  326.97   17.30
   1   7   2  342.27   16.60
   1   7   3  161.98   11.10
   1   7   3  142.39   10.00
   1   7   4  241.58   11.70
  -1  -7  -4  232.28   13.20
  -1  -7  -5  141.89   10.50
  -1  -7  -5  106.49    8.10
  -1  -7  -6    2.80    2.10
  -1  -7  -6    1.10    1.60
   1   8 -11  238.78    8.30
   1   8 -10    4.50    2.20
   1   8  -9   77.69    6.90
   1   8  -8  173.38   10.70
   1   8  -7  332.37   15.00
   1   8  -6  567.64   18.90
   1   8  -6  561.24   19.50
   1   8  -5   68.59    7.00
   1   8  -5   72.99    7.80
   1   8  -4    3.80    3.30
   1   8  -4    0.70    2.10
   1   8  -4   -3.30    2.90
   1   8  -3   48.80    6.80
   1   8  -3   43.40    5.50
   1   8  -3   47.50    6.80
   1   8  -2  219.28   13.90
   1   8  -2  217.08   13.40
  -1  -8   1  234.28   13.30
   1   8  -1  278.97   15.50
   1   8  -1  280.97   15.20
  -1  -8   0   76.29    7.90
   1   8   0   81.29    8.20
   1   8   0  103.99    7.70
   1   8   0   94.29    8.50
  -1  -8  -1    3.70    2.40
   1   8   1   -1.90    2.50
   1   8   1    1.40    2.70
  -1  -8  -2   56.89    6.10
   1   8   2   65.09    6.10
   1   8   2   75.19    6.70
  -1  -8  -3   71.69    5.80
   1   8   3   95.09    6.50
  -1  -8  -4   55.69    5.20
   1   9  -9    5.70    1.70
   1   9  -8   11.70    2.50
   1   9  -8   11.30    2.20
   1   9  -7   -0.10    1.40
   1   9  -6    4.70    2.30
   1   9  -6   -1.50    1.00
   1   9  -5    5.70    2.00
   1   9  -4   42.30    5.00
   1   9  -3    8.00    3.00
   1   9  -3    3.80    2.20
   1   9  -2   77.39    5.90
   1   9  -2   74.69    6.50
   1   9  -2   73.39    6.30
   1   9  -1  125.99    8.30
   1   9  -1  106.29    5.60
   1   9  -1  122.69    7.70
   1   9   0   86.69    6.20
   1   9   0   88.39    6.30
   1   9   1  187.58    7.70
   1   9   1  173.08    6.90
   2 -10   2    4.30    1.60
  -2  10  -2    4.30    1.20
   2 -10   3   -1.70    1.40
   2 -10   4    0.10    1.30
  -2   9   3   14.10    2.10
   2  -9  -3   14.00    2.20
   2  -9  -2    3.70    1.50
  -2   9   2    2.10    1.60
  -2   9   2    0.80    1.30
  -2   9   1    2.00    1.60
   2  -9  -1    0.30    2.20
  -2   9   0   54.69    5.80
   2  -9   0   63.69    6.90
   2  -9   1  132.29    9.90
  -2   9  -1  144.19    8.40
  -2   9  -1  124.09    6.60
  -2   9  -1  143.29    9.50
  -2   9  -2   86.59    6.60
  -2   9  -2   90.79    6.60
  -2   9  -2   98.09    8.00
  -2   9  -3  365.76   14.20
  -2   9  -3  376.86   15.00
  -2   9  -4  117.89    8.00
  -2   9  -4  118.59    8.50
  -2   9  -5   -0.10    1.10
  -2   9  -5   -2.20    2.60
  -2   9  -5   -1.20    2.40
  -2   9  -6   50.29    5.60
  -2   9  -6   47.00    5.50
  -2   9  -7   89.99    6.80
  -2   9  -7   89.79    6.80
  -2   9  -8  257.07    9.60
  -2   9  -8  260.07   10.10
  -2   9  -9  262.47    8.60
   2  -8  -5    1.90    1.40
   2  -8  -4    7.50    2.60
  -2   8   4    9.00    2.00
  -2   8   4    5.00    2.40
   2  -8  -3  114.09    9.50
  -2   8   3  100.79    7.80
  -2   8   3   95.19    7.30
  -2   8   2  489.65   17.80
   2  -8  -2  519.95   21.30
   2  -8  -1  493.35   21.80
  -2   8   1  450.05   17.80
  -2   8   0  269.77   13.90
  -2   8  -1    5.30    2.70
  -2   8  -1    0.30    2.80
  -2   8  -2   75.99    8.10
  -2   8  -3  329.17   16.60
  -2   8  -3  330.27   16.70
  -2   8  -4  779.52   25.20
  -2   8  -5  594.54   21.80
  -2   8  -6    0.70    2.10
  -2   8  -6    0.70    2.80
  -2   8  -7   31.90    5.50
  -2   8  -7   19.60    4.60
  -2   8  -8   17.30    4.00
  -2   8  -8   19.10    4.10
  -2   8  -9   85.99    6.40
  -2   8  -9   91.09    7.40
  -2   8 -10   96.99    6.40
  -2   8 -11   13.30    2.10
   2  -7  -7   55.09    4.80
   2  -7  -6   48.70    6.00
  -2   7   6   51.99    5.00
   2  -7  -5    2.50    2.70
  -2   7   5    3.50    2.40
   2  -7  -4    4.70    2.90
  -2   7   4    6.90    2.90
   2  -7  -3    4.80    4.00
  -2   7   3    0.10    2.70
   2  -7  -2   59.79    9.10
  -2   7   2   52.29    7.20
  -2   7   1   36.10    6.10
  -2   7   0   43.70    7.00
  -2   7  -1  380.06   17.40
  -2   7  -1  393.46   18.20
  -2   7  -2    4.00    2.40
  -2   7  -2    0.60    1.60
  -2   7  -3   14.40    4.60
  -2   7  -4   13.60    3.80
  -2   7  -5   75.49    8.80
   2  -7   6  217.08   12.90
  -2   7  -6  202.58   13.70
   2  -7   7   35.40    5.50
  -2   7  -7   36.90    6.30
  -2   7  -8    3.30    2.20
  -2   7  -8    6.70    3.70
   2  -7   8    4.50    2.30
  -2   7  -9  161.48   11.40
  -2   7  -9  171.28   10.00
  -2   7  -9  172.18   11.40
   2  -7   9  163.48   10.60
   2  -7  10  269.47   11.90
  -2   7 -10  268.37   12.80
  -2   7 -10  268.27   13.20
  -2   7 -11  229.68   10.30
  -2   7 -11  248.08   10.90
  -2   7 -12  187.98    7.20
   2  -6  -8   24.60    4.10
   2  -6  -7    1.70    2.50
  -2   6   7    2.40    2.30
   2  -6  -6  178.98   13.60
  -2   6   6  159.78   10.60
  -2   6   5  281.27   15.10
   2  -6  -5  301.77   18.40
   2  -6  -4  411.06   21.80
   2  -6  -3  225.18   16.10
   2  -6  -3  192.08   13.40
   2  -6  -2    7.20    3.40
  -2   6   2    6.80    4.20
   2  -6  -1   47.30    6.10
   2  -6  -1   46.50    8.40
   2  -6   0  260.97   17.90
  -2   6   0  273.87   14.30
   2  -6   0  244.68   13.80
  -2   6  -1  646.94   21.00
   2  -6   1  672.73   27.80
  -2   6  -1  681.83   22.30
   2  -6   2  359.86   19.60
  -2   6  -2  374.46   16.60
   2  -6   3  228.48   15.50
  -2   6  -3  237.58   13.50
   2  -6   4   24.30    4.70
  -2   6  -4   37.10    5.60
   2  -6   5  414.56   18.40
   2  -6   6  711.23   24.80
  -2   6  -7  170.38   12.50
   2  -6   7  186.78   13.00
  -2   6  -8   44.40    6.70
   2  -6   8   38.40    6.30
   2  -6   9   39.70    6.10
  -2   6  -9   43.20    6.40
  -2   6 -10   58.79    7.40
   2  -6  10   67.09    7.60
  -2   6 -11   98.29    9.00
   2  -6  11   91.69    8.10
   2  -6  12  198.98    9.30
  -2   6 -12  208.68   10.70
  -2   6 -13   59.99    4.30
   2  -5  -9  591.14   19.00
   2  -5  -8  484.95   20.30
   2  -5  -8  446.86   18.30
  -2   5   7   64.59    6.60
   2  -5  -7   51.19    7.80
   2  -5  -7   49.40    6.90
   2  -5  -6   47.90    8.20
   2  -5  -6   34.00    6.50
   2  -5  -5  419.76   21.80
   2  -5  -5  390.16   19.20
   2  -5  -4  942.61   31.50
   2  -5  -4  838.72   28.20
  -2   5   4  877.71   32.50
   2  -5  -4  840.42   28.90
   2  -5  -4  836.02   27.20
   2  -5  -3  968.80   28.70
  -2   5   3 1026.20   33.70
   2  -5  -3  990.40   32.30
   2  -5  -2  400.86   21.00
   2  -5  -1   23.30    6.10
   2  -5   0    0.80    3.30
   2  -5   1   15.50    5.20
   2  -5   2   93.19    9.40
   2  -5   3  537.95   21.30
   2  -5   4   17.00    4.70
   2  -5   5   96.79    8.50
  -2   5  -5   86.79    8.10
  -2   5  -6   18.00    5.00
  -2   5  -7   67.69    8.70
  -2   5  -7   55.29    8.00
  -2   5  -8  165.38   14.10
  -2   5  -9  115.49   12.30
  -2   5 -10   -1.10    2.50
  -2   5 -11  160.88   13.20
  -2   5 -12    0.00    3.00
  -2   5 -13  144.29    8.60
   2  -5  13  143.09    7.60
   2  -4 -11    7.70    2.10
   2  -4 -10    7.20    2.90
   2  -4  -9    5.50    3.40
   2  -4  -9    2.80    3.10
   2  -4  -8  358.46   19.60
   2  -4  -8  338.57   18.90
   2  -4  -7   28.50    6.00
   2  -4  -7   27.80    6.00
   2  -4  -6   -5.00    3.20
   2  -4  -6    2.60    3.20
   2  -4  -5  365.96   18.60
  -2   4   5  363.66   21.20
   2  -4  -5  363.46   18.60
  -2   4   4  432.06   22.10
   2  -4  -4  368.76   17.80
   2  -4  -3   23.70    5.60
   2  -4  -2 1170.08   31.50
   2  -4  -1    4.40    3.90
   2  -4   0    1.80    3.40
   2  -4   1  181.28   11.70
   2  -4   2  452.35   17.50
   2  -4   3 1555.44   31.40
   2  -4   4 1987.50   34.40
   2  -4   5 1195.88   28.00
   2  -4   5 1196.78   23.60
   2  -4   6  532.95   19.80
   2  -4   7    8.00    3.40
   2  -4   8 1404.46   34.80
  -2   4  -8 1411.96   39.30
  -2   4  -9  288.37   18.70
  -2   4 -10  886.21   32.70
  -2   4 -11  320.97   18.90
  -2   4 -12   20.40    5.50
  -2   4 -13  103.99    8.30
  -2   4 -13  116.09    8.60
   2  -3 -12  134.69    6.90
   2  -3 -11  104.99    7.80
   2  -3 -11   95.29    7.00
   2  -3 -10    8.80    3.10
   2  -3 -10    3.20    3.40
   2  -3  -9   93.49   10.40
   2  -3  -9   71.19    9.10
   2  -3  -8  225.58   15.90
   2  -3  -8  255.27   17.20
   2  -3  -7  491.05   23.00
  -2   3   7  502.15   26.10
   2  -3  -7  467.15   21.70
  -2   3   6  944.11   34.30
   2  -3  -6  944.31   30.30
  -2   3   5  885.31   31.50
  -2   3   4   11.00    4.10
   2  -3  -4   10.50    3.50
   2  -3  -3   53.69    6.40
   2  -3  -2 1168.88   26.70
   2  -3  -1 3691.13   46.20
   2  -3   0 3841.12   45.80
   2  -3   1 1283.77   26.10
   2  -3   2  514.85   16.20
   2  -3   3  106.99    7.50
   2  -3   3  109.39    7.50
   2  -3   4  863.11   18.60
   2  -3   4  878.81   22.20
   2  -3   5 2518.55   31.10
   2  -3   5 2559.84   40.60
   2  -3   6 1924.01   37.80
   2  -3   7  899.31   28.00
  -2   3  -8    3.10    3.40
   2  -3   8   -1.30    3.10
  -2   3  -9  187.98   15.00
  -2   3 -10   50.99    7.70
  -2   3 -11    2.70    2.10
  -2   3 -12   11.10    4.40
  -2   3 -13   17.50    4.10
   2  -2 -12  106.89    6.70
   2  -2 -12  127.59    9.00
   2  -2 -11  193.38   11.70
   2  -2 -11  194.18   11.90
   2  -2 -10  156.28   12.40
   2  -2 -10  176.08   14.30
   2  -2  -9   54.09    8.40
   2  -2  -9   61.49    9.00
   2  -2  -8   20.00    4.60
  -2   2   8   10.50    4.80
   2  -2  -8   17.80    5.90
  -2   2   7  215.78   16.60
   2  -2  -7  230.48   15.10
  -2   2   6  124.79   11.80
  -2   2   5  267.97   15.90
   2  -2  -4  545.95   15.00
   2  -2  -3   30.20    3.80
   2  -2  -2 1275.07   22.80
   2  -2  -1 2435.66   30.80
   2  -2   0  316.37   11.00
   2  -2   1  197.88    8.70
   2  -2   2  497.65   14.10
   2  -2   2  481.15   13.20
   2  -2   3   35.50    3.70
   2  -2   3   38.60    4.40
   2  -2   4   41.40    4.00
   2  -2   4   54.09    5.80
   2  -2   5  231.68   12.40
   2  -2   5  224.48    9.00
   2  -2   6  315.47   15.60
   2  -2   7  420.06   19.70
  -2   2  -8  171.88   13.90
   2  -2   8  181.58   13.90
  -2   2  -9   74.59    9.50
   2  -2   9   65.09    9.10
  -2   2 -10  112.29   11.80
  -2   2 -11  388.76   21.20
  -2   2 -11  365.56   16.50
  -2   2 -12  389.36   15.10
  -2   2 -12  412.96   19.80
  -2   2 -13  245.78   12.40
   2  -1 -13    5.50    1.60
   2  -1 -13    3.20    1.80
   2  -1 -12   10.50    3.30
   2  -1 -12    9.70    3.70
   2  -1 -11   17.40    4.00
   2  -1 -11   12.70    3.50
   2  -1 -11   17.30    4.90
   2  -1 -10   27.10    6.10
   2  -1 -10   36.20    7.00
   2  -1  -9  132.69   11.60
   2  -1  -9  126.89   12.20
  -2   1   8  232.68   17.50
   2  -1  -8  254.97   15.10
   2  -1  -8  268.27   16.30
  -2   1   7  134.99   12.60
  -2   1   6   67.69    8.60
  -2   1   5  470.25   18.90
   2  -1  -4  522.25   11.10
   2  -1  -4  526.45   11.40
   2  -1  -3  923.61   15.30
   2  -1  -3  929.41   12.90
   2  -1  -2 1533.55   14.60
   2  -1  -2 1563.24   20.00
   2  -1  -1 6357.76   40.60
   2  -1   0 9999.00   51.39
   2  -1   0 9970.30   52.09
   2  -1   1 1472.55   20.90
   2  -1   1 1346.77   19.10
   2  -1   2  101.79    5.60
   2  -1   2  108.89    6.50
   2  -1   3  748.83   15.30
   2  -1   3  771.52   18.50
   2  -1   4  884.81   22.10
   2  -1   4  864.21   17.20
   2  -1   5  406.76   16.60
   2  -1   5  395.56   12.10
   2  -1   6  377.46   17.60
   2  -1   7 1628.14   39.60
  -2   1  -8  699.83   27.60
   2  -1   8  711.43   28.10
  -2   1  -8  665.33   24.90
  -2   1  -9  501.45   24.70
  -2   1 -10   18.10    6.10
  -2   1 -11    3.10    3.80
  -2   1 -12  145.59   11.70
  -2   1 -12  133.19    9.10
  -2   1 -13  151.38    9.20
   2   0 -13  332.17   10.90
   2   0 -13  342.17   14.10
   2   0 -13  336.47   13.50
   2   0 -12  462.95   19.30
   2   0 -12  460.65   17.50
   2   0 -12  467.85   20.40
   2   0 -11   98.29    9.40
   2   0 -11  107.59   11.10
   2   0 -10  607.64   23.30
   2   0 -10  617.34   25.20
  -2   0   9  786.42   28.70
   2   0  -9  933.11   30.00
   2   0  -9  916.41   27.60
   2   0  -9  825.32   27.90
  -2   0   8 1856.91   43.00
  -2   0   7 1319.67   34.10
   2   0  -6 1500.85   24.70
  -2   0   6 1491.25   33.10
   2   0  -6 1462.75   28.50
  -2   0   5   42.30    5.20
   2   0  -5   37.40    4.50
   2   0  -5   32.20    3.60
  -2   0   4   49.10    5.10
   2   0  -4   50.59    3.10
   2   0  -4   44.50    4.40
   2   0  -3  362.76   10.80
   2   0  -3  367.46    8.50
   2   0  -2 1600.14   18.40
   2   0  -2 1595.24   20.20
   2   0  -1 7455.95   41.10
   2   0  -1 7348.56   41.30
   2   0   0  285.07    8.50
   2   0   0  289.97    7.90
   2   0   1    1.50    1.60
   2   0   1    1.90    1.70
   2   0   2  452.45   11.90
   2   0   2  454.15   12.70
   2   0   3   18.90    3.60
   2   0   3   22.80    3.20
   2   0   4  575.94   18.40
   2   0   4  565.24   15.10
   2   0   5  334.37   12.20
   2   0   5  350.26   16.00
   2   0   6   11.90    3.90
   2   0   7   51.69    7.60
  -2   0  -8    4.20    4.30
  -2   0  -8    4.30    2.20
   2   0   8    1.50    3.80
  -2   0  -9  174.28   13.70
  -2   0  -9  158.68   14.30
  -2   0 -10   50.19    8.50
  -2   0 -11   32.50    6.90
  -2   0 -12   12.10    3.40
  -2   0 -13    2.00    1.80
   2   1 -14   21.80    2.80
   2   1 -13  128.99    9.20
   2   1 -13  128.89    7.90
   2   1 -13  137.49    9.60
   2   1 -12  174.38   11.50
   2   1 -12  193.88   13.20
   2   1 -12  172.58   12.90
   2   1 -11  111.99   10.10
   2   1 -11  106.59   10.80
   2   1 -11  118.49   11.50
   2   1 -10   19.70    5.00
   2   1 -10   17.00    5.50
   2   1  -9   -1.90    1.60
   2   1  -9   -3.10    4.60
   2   1  -9   -2.00    4.40
   2   1  -8    3.60    2.70
  -2  -1   8    5.50    3.90
   2   1  -7   16.80    3.30
  -2  -1   7   16.50    4.80
   2   1  -7   17.80    4.50
  -2  -1   6  115.59    8.40
   2   1  -6  117.29    9.20
   2   1  -6  123.59    7.70
   2   1  -5   86.99    6.00
  -2  -1   5   87.99    6.20
   2   1  -5   85.89    7.30
   2   1  -4  341.27    7.20
  -2  -1   4  340.37   10.40
   2   1  -4  333.17   10.80
   2   1  -4  319.57   12.50
  -2  -1   3 1293.67   16.90
   2   1  -3 1238.58   22.80
   2   1  -3 1230.48   19.60
   2   1  -3 1249.28   15.70
   2   1  -2 2386.16   23.40
   2   1  -2 2317.67   28.90
   2   1  -1  547.55   12.10
   2   1  -1  540.65   13.30
   2   1   0  309.27    7.30
   2   1   0  307.77    9.70
   2   1   1  734.43   15.80
   2   1   1  762.32   14.00
   2   1   2  100.69    3.50
   2   1   2   99.09    6.20
   2   1   2  107.19    6.70
   2   1   3    4.70    2.40
   2   1   3    7.50    2.60
   2   1   4 1765.82   33.80
   2   1   4 1696.83   29.40
   2   1   5 2213.88   42.00
   2   1   5 2129.99   35.60
   2   1   6 1180.68   33.70
  -2  -1  -7   37.60    6.40
   2   1   7   39.90    7.30
  -2  -1  -8   45.70    8.10
  -2  -1  -8   49.40    7.00
  -2  -1  -9  250.47   18.30
  -2  -1  -9  234.08   16.50
  -2  -1 -10  661.43   26.10
  -2  -1 -10  699.53   29.20
  -2  -1 -11  897.01   29.40
  -2  -1 -12  192.18   10.70
   2   2 -14   18.70    2.80
   2   2 -13    0.40    1.40
   2   2 -13    3.90    2.40
   2   2 -12    1.70    3.60
   2   2 -12    5.70    3.60
   2   2 -12    7.00    3.30
   2   2 -11  119.79   11.40
   2   2 -11  106.59    9.80
   2   2 -11  112.89   11.20
   2   2 -10   50.09    6.80
   2   2 -10   59.89    8.60
   2   2 -10   54.09    8.50
   2   2  -9  148.69   13.70
   2   2  -9  146.39   11.20
   2   2  -9  156.18   12.40
   2   2  -9  152.68   12.60
   2   2  -9  139.19   12.00
   2   2  -9  142.29   12.30
   2   2  -8    9.40    4.40
   2   2  -7  104.69   10.20
   2   2  -6 1324.47   32.30
   2   2  -6 1358.36   26.50
   2   2  -5  546.65   16.00
   2   2  -5  559.54   19.60
   2   2  -4 1207.98   16.50
   2   2  -4 1239.98   27.10
   2   2  -4 1201.98   22.30
  -2  -2   4 1202.98   18.40
   2   2  -3  550.64   17.00
   2   2  -3  522.35   12.10
   2   2  -3  506.85   13.70
   2   2  -2  123.99    6.40
   2   2  -2  117.49    7.50
   2   2  -2  120.09    6.40
   2   2  -1  360.46   11.40
   2   2  -1  327.97    9.70
   2   2  -1  356.86   12.20
   2   2   0 3518.25   21.50
   2   2   0 3558.84   29.30
   2   2   1 6670.33   42.10
   2   2   1 6644.44   36.50
   2   2   2  781.52   20.40
   2   2   2  785.52   18.00
   2   2   3  399.76   14.90
   2   2   3  418.56   16.00
   2   2   4   14.00    3.70
   2   2   4   13.70    4.10
   2   2   5  801.42   26.40
  -2  -2  -5  936.41   29.30
  -2  -2  -6 1917.21   44.90
   2   2   6 1728.43   41.50
  -2  -2  -7   20.60    4.80
   2   2   7   27.30    6.00
  -2  -2  -7   23.70    5.50
  -2  -2  -8  727.83   30.90
  -2  -2  -8  732.13   28.20
  -2  -2  -9   73.99    9.70
  -2  -2  -9   66.79    8.60
  -2  -2 -10   88.09   10.50
  -2  -2 -10   79.59    8.90
  -2  -2 -11  144.29   10.60
   2   3 -14  291.97   10.10
   2   3 -13   24.40    3.70
   2   3 -13   24.50    4.30
   2   3 -12    9.00    3.30
   2   3 -12    3.30    2.30
   2   3 -12    2.50    2.70
   2   3 -11    7.10    4.20
   2   3 -11    6.00    4.50
   2   3 -11    0.20    3.10
   2   3 -10   35.90    6.70
   2   3 -10   32.00    6.40
   2   3 -10   34.20    6.30
   2   3 -10   38.80    7.00
   2   3  -9 2294.17   44.50
   2   3  -9 2299.07   47.10
   2   3  -9 2266.67   48.70
   2   3  -9 2361.66   52.09
   2   3  -9 2378.56   48.30
   2   3  -9 2381.06   51.89
   2   3  -9 2357.26   47.70
   2   3  -8  203.68   14.70
   2   3  -8  197.58   12.30
   2   3  -8  192.38   13.30
   2   3  -8  216.38   15.60
   2   3  -8  205.38   13.30
   2   3  -8  193.98   14.30
   2   3  -8  197.88   13.80
   2   3  -7   35.90    6.80
   2   3  -6  472.05   20.70
   2   3  -5 1672.03   36.40
  -2  -3   4  208.78   10.10
   2   3  -4  224.98   12.80
   2   3  -3  236.38   12.40
  -2  -3   3  233.48   11.50
   2   3  -2  997.20   21.80
   2   3  -2 1029.30   24.10
   2   3  -1  226.18   11.00
   2   3  -1  263.57   11.90
   2   3   0  321.87   13.90
   2   3   1  686.43   21.10
   2   3   2   20.00    4.30
   2   3   3    6.00    2.20
  -2  -3  -3   -3.00    2.80
  -2  -3  -4   59.09    8.10
   2   3   4   39.50    5.90
  -2  -3  -5   63.59    9.40
   2   3   5   58.49    7.40
  -2  -3  -6   58.39    8.70
  -2  -3  -6   51.59    7.60
  -2  -3  -7  464.75   24.60
  -2  -3  -7  419.46   21.40
  -2  -3  -8  371.66   21.80
  -2  -3  -8  364.36   19.40
  -2  -3  -9   44.10    7.90
  -2  -3  -9   39.70    6.50
  -2  -3 -10   24.00    5.50
  -2  -3 -10   21.00    4.60
  -2  -3 -11    7.80    2.20
   2   4 -13    8.80    3.00
   2   4 -12   10.40    3.50
   2   4 -12   15.10    4.40
   2   4 -12    9.20    2.70
   2   4 -11   -0.70    2.80
   2   4 -11    1.20    2.30
   2   4 -11    0.10    3.30
   2   4 -10  105.39   10.00
   2   4 -10  116.19   11.40
   2   4 -10  113.89   11.30
   2   4  -9    5.60    3.90
   2   4  -9    1.90    4.30
   2   4  -9   10.40    4.80
   2   4  -9    4.50    4.70
   2   4  -9    5.10    4.30
   2   4  -8  134.79   12.50
   2   4  -8  118.69   10.30
   2   4  -8  124.49   10.90
   2   4  -8  131.49   11.60
   2   4  -8  118.39   12.10
   2   4  -8  127.79   11.80
   2   4  -7  243.78   14.50
   2   4  -7  243.28   13.50
   2   4  -7  251.27   16.60
   2   4  -7  245.18   15.20
   2   4  -7  218.88   14.50
   2   4  -6  531.65   23.20
   2   4  -5    2.60    3.30
   2   4  -4  182.68   12.20
   2   4  -3  399.56   17.10
  -2  -4   3  403.06   18.20
   2   4  -2 1905.41   35.20
  -2  -4   2 1787.02   39.80
  -2  -4   1  595.94   23.90
  -2  -4   0   13.00    4.30
  -2  -4  -1  253.47   17.10
  -2  -4  -2  935.01   33.80
  -2  -4  -3  861.51   33.60
  -2  -4  -4  775.32   32.60
  -2  -4  -5  190.38   13.80
  -2  -4  -6   50.19    8.60
  -2  -4  -6   44.60    6.80
  -2  -4  -7  119.59   12.90
  -2  -4  -7  123.39   10.90
   2   4   7  122.79    8.40
  -2  -4  -8  381.56   20.50
  -2  -4  -8  328.67   16.30
  -2  -4  -9  160.18   11.40
  -2  -4  -9  144.99    9.10
  -2  -4 -10  189.28    8.90
   2   5 -13  203.08    7.70
   2   5 -13  273.47    9.90
   2   5 -12  403.96   15.50
   2   5 -12  379.56   15.00
   2   5 -11  743.23   25.30
   2   5 -11  721.73   24.50
   2   5 -10  137.79   11.70
   2   5 -10  140.59   12.10
   2   5 -10  141.09   11.30
   2   5  -9   47.20    7.20
   2   5  -9   56.09    7.90
   2   5  -9   54.89    8.30
   2   5  -8  273.87   15.70
   2   5  -8  304.87   17.60
   2   5  -8  306.37   17.50
   2   5  -8  277.07   17.60
   2   5  -8  323.67   18.00
   2   5  -7 1154.58   31.30
   2   5  -7 1120.99   35.00
   2   5  -7 1081.69   29.80
   2   5  -7 1113.29   32.50
   2   5  -7 1103.09   33.20
   2   5  -7 1131.09   31.90
   2   5  -6 1358.56   37.30
   2   5  -6 1355.06   33.00
   2   5  -6 1310.67   33.30
   2   5  -6 1277.77   35.00
   2   5  -5  884.41   26.90
   2   5  -5  888.81   29.00
   2   5  -5  911.31   28.10
   2   5  -4   21.90    5.10
  -2  -5   3   29.00    6.20
   2   5  -3   40.50    6.20
  -2  -5   2  621.34   26.90
  -2  -5   1  467.15   24.40
  -2  -5   0  427.96   24.10
   2   5   1  452.65   16.90
   2   5   1  450.95   19.60
  -2  -5  -1  463.65   26.10
   2   5   1  448.66   18.90
   2   5   2  175.28   12.10
   2   5   2  189.68   10.90
  -2  -5  -2  195.88   17.60
   2   5   2  198.98   12.70
   2   5   3   59.49    6.20
   2   5   3   60.39    6.90
   2   5   4  217.58   11.80
  -2  -5  -5  190.68   13.40
  -2  -5  -6   36.60    7.10
  -2  -5  -6   27.70    5.50
  -2  -5  -7   25.50    6.10
  -2  -5  -7   22.60    4.40
  -2  -5  -8   -0.20    2.70
  -2  -5  -8   -5.00    2.00
   2   6 -12  141.59    7.70
   2   6 -12  158.08    8.50
   2   6 -11   31.90    5.00
   2   6 -11   36.50    5.40
   2   6 -10    6.10    3.60
   2   6 -10    5.30    3.20
   2   6  -9  117.59   10.60
   2   6  -9  113.39   10.80
   2   6  -8   53.99    7.90
   2   6  -8   56.89    8.40
   2   6  -7   72.59    9.00
   2   6  -7   82.79    8.20
   2   6  -7   78.29    9.20
   2   6  -6    1.40    3.00
   2   6  -6    4.80    4.30
   2   6  -6    2.30    4.00
   2   6  -5    1.50    3.40
   2   6  -5   -0.80    3.00
   2   6  -5   -0.40    2.40
   2   6  -4   25.60    6.40
   2   6  -4   30.90    5.90
   2   6  -4   23.10    5.20
   2   6  -4   28.10    5.70
   2   6  -4   35.00    6.80
   2   6  -4   29.30    6.00
   2   6  -3    0.40    2.40
   2   6  -3    0.80    1.50
   2   6  -3   -2.80    3.00
   2   6  -3    1.10    4.10
   2   6  -3    1.20    2.20
  -2  -6   2  114.49   12.80
   2   6  -2  125.49   10.10
   2   6  -2  110.79   10.40
   2   6  -2  128.89   11.60
   2   6  -2  110.49   10.90
   2   6  -2  113.29    9.90
   2   6  -1  394.16   19.30
   2   6  -1  402.66   19.90
   2   6  -1  401.26   17.20
   2   6  -1  396.16   18.10
   2   6   0   65.09    7.00
   2   6   0   64.09    8.30
   2   6   0   72.69    8.80
   2   6   1  194.38   13.60
   2   6   1  171.18   10.60
   2   6   1  207.98   14.00
   2   6   1  199.28   12.50
   2   6   2   71.69    7.70
   2   6   2   75.69    8.40
   2   6   3   19.20    4.30
   2   6   3   24.70    4.30
   2   6   4   -3.90    1.80
  -2  -6  -5   80.69    9.80
  -2  -6  -6  426.86   18.90
  -2  -6  -7  252.77   11.90
   2   7 -11   48.40    4.50
   2   7 -11   52.59    5.00
   2   7 -10   39.30    5.00
   2   7 -10   49.10    5.80
   2   7  -9   72.79    7.70
   2   7  -9   90.09    8.50
   2   7  -8    8.50    4.00
   2   7  -8    1.30    2.90
   2   7  -7  144.09   11.30
   2   7  -7  144.99   11.60
   2   7  -6   12.10    4.30
   2   7  -6    7.10    3.50
   2   7  -6   10.80    4.50
   2   7  -5  367.16   17.80
   2   7  -5  360.66   17.90
   2   7  -5  360.36   18.40
   2   7  -4  398.36   18.30
   2   7  -4  390.76   19.20
   2   7  -4  399.26   19.50
   2   7  -4  363.06   18.10
   2   7  -3  134.69   11.00
   2   7  -3  128.99   11.70
   2   7  -3  127.79   11.40
   2   7  -2  324.67   15.20
   2   7  -2  325.77   18.00
   2   7  -2  312.27   16.20
   2   7  -2  329.47   17.80
   2   7  -1  137.89    9.70
   2   7  -1  143.79   12.10
   2   7  -1  128.89   11.30
   2   7   0  162.58   12.40
   2   7   0  149.49   10.80
   2   7   0  159.28   12.00
   2   7   1  649.64   23.10
   2   7   1  623.74   22.70
   2   7   2  343.17   15.40
   2   7   2  333.67   15.50
   2   7   3  234.48   11.50
   2   7   3  212.08   10.30
  -2  -7  -4   65.09    7.50
  -2  -7  -5   25.50    4.50
   2   8 -10   33.40    3.60
   2   8  -9  163.38    8.60
   2   8  -8  253.67   11.00
   2   8  -8  271.47   12.10
   2   8  -7  236.68   12.10
   2   8  -6   38.00    5.60
   2   8  -6   43.90    4.90
   2   8  -5    2.30    2.10
   2   8  -5    3.40    2.90
   2   8  -4  235.38   13.50
   2   8  -4  207.08   11.90
   2   8  -3  135.99   10.50
   2   8  -3  137.39   10.20
   2   8  -2  107.39    9.20
   2   8  -2  111.89    9.80
   2   8  -2  120.39    9.40
   2   8  -1   29.40    5.40
   2   8  -1   29.50    5.30
   2   8  -1   33.80    4.80
   2   8   0   17.40    3.20
   2   8   0   25.00    4.90
   2   8   0   22.50    4.40
   2   8   1    8.00    3.00
   2   8   1   10.60    3.20
   2   8   2   17.70    3.10
  -2  -8  -3   -1.60    1.70
   2   9  -7   40.70    3.80
   2   9  -6  123.09    6.90
   2   9  -5   10.70    2.10
   2   9  -5   11.70    2.80
   2   9  -4    2.50    1.80
   2   9  -4    2.60    1.80
   2   9  -3   12.20    2.70
   2   9  -3    9.50    2.30
   2   9  -2   81.29    6.00
   2   9  -2   75.69    4.80
   2   9  -1  263.27    9.50
   2   9   0  286.87    8.10
   3  -9  -2   17.00    2.50
  -3   9   2   10.70    1.90
   3  -9  -1   10.80    2.80
  -3   9   1   17.20    3.00
   3  -9   0  149.09    8.90
   3  -9   1   50.09    5.80
  -3   9  -2  201.08    9.10
  -3   9  -3  177.48    9.30
  -3   9  -4   37.60    4.90
  -3   9  -4   38.20    4.30
  -3   9  -5  102.09    7.20
  -3   9  -5  102.39    7.50
  -3   9  -6  218.28   10.30
  -3   9  -6  203.08    9.70
  -3   9  -7  234.38    9.70
  -3   9  -7  238.08    9.70
  -3   9  -8  131.19    6.00
  -3   9  -8  137.29    6.60
   3  -8  -4   68.69    5.70
  -3   8   4   74.99    5.70
   3  -8  -3  413.76   15.90
  -3   8   3  397.96   14.00
   3  -8  -2  461.35   18.30
  -3   8   2  426.76   15.60
   3  -8  -1  178.68   12.30
  -3   8   1  159.38   10.10
   3  -8   0   45.70    5.70
  -3   8   0   49.30    5.90
  -3   8  -1   24.30    4.20
   3  -8   1   15.10    3.70
  -3   8  -1   23.10    4.00
  -3   8  -2  180.88    9.90
   3  -8   2  177.58   11.20
  -3   8  -3  262.77   14.00
   3  -8   3  228.58   12.80
  -3   8  -4   90.29    8.50
   3  -8   4   75.29    7.40
   3  -8   5    4.80    3.50
  -3   8  -5    6.10    2.90
   3  -8   6   -2.20    2.90
  -3   8  -6   -0.40    3.10
   3  -8   7   -4.60    2.40
  -3   8  -7    2.20    3.10
   3  -8   8    2.70    2.20
  -3   8  -8   -2.10    2.90
  -3   8  -8   -2.50    2.10
  -3   8  -9    3.90    1.80
   3  -8   9    4.50    1.90
  -3   8  -9    7.30    2.90
  -3   8 -10    3.10    1.90
   3  -7  -6    3.90    1.70
  -3   7   6   -0.70    1.60
   3  -7  -5   58.89    6.60
  -3   7   5   54.29    5.90
  -3   7   4   40.50    6.10
   3  -7  -4   48.40    6.90
   3  -7  -3    7.60    4.20
  -3   7   3    7.10    3.10
  -3   7   2   -0.50    2.90
   3  -7  -2    4.10    3.20
   3  -7  -2    1.80    1.40
  -3   7   1   95.39    9.10
   3  -7  -1   89.69    8.90
  -3   7   0  188.68   12.40
   3  -7   0  194.48   13.30
   3  -7   1    7.70    3.80
  -3   7  -1   17.10    4.80
  -3   7  -1   12.60    3.10
   3  -7   2    4.60    3.10
  -3   7  -2   12.50    3.70
   3  -7   3  280.87   16.10
  -3   7  -3  312.37   16.10
   3  -7   4  268.57   15.80
  -3   7  -4  263.27   14.90
   3  -7   5  299.67   16.30
  -3   7  -5  299.07   16.10
   3  -7   6  112.99   10.30
  -3   7  -6  102.09    9.70
   3  -7   7    1.20    1.50
  -3   7  -7    9.30    3.80
   3  -7   8   53.19    6.70
  -3   7  -8   56.29    6.90
  -3   7  -9  352.96   15.70
   3  -7   9  333.47   15.00
  -3   7  -9  336.87   13.10
   3  -7  10  500.85   16.20
  -3   7 -10  519.15   17.10
   3  -7  11  157.38    7.40
  -3   7 -11  172.78    8.30
   3  -6  -8   23.20    2.90
   3  -6  -7   69.69    6.50
   3  -6  -7   58.99    5.90
  -3   6   7   64.79    5.80
   3  -6  -6   99.69    9.30
   3  -6  -6   81.59    8.20
  -3   6   6   91.99    8.10
   3  -6  -5  282.67   16.50
   3  -6  -5  245.38   14.00
   3  -6  -4  123.59   11.80
   3  -6  -4  114.29   10.20
   3  -6  -3    1.00    2.40
   3  -6  -3   -3.10    3.00
   3  -6  -3   -3.10    2.10
   3  -6  -2  228.28   14.00
   3  -6  -2  222.18   15.00
   3  -6  -1  294.97   16.90
   3  -6   0  960.50   30.00
   3  -6   0  958.20   33.60
  -3   6   0  926.11   25.80
   3  -6   1  336.87   17.70
  -3   6  -1  339.47   15.80
   3  -6   1  342.47   20.30
  -3   6  -2   10.30    2.80
   3  -6   2    1.60    1.50
   3  -6   3    9.20    4.00
   3  -6   3    1.40    2.40
   3  -6   4  127.39   10.40
   3  -6   4  152.08   12.00
  -3   6  -4  135.59   11.00
   3  -6   4  135.69   11.70
   3  -6   5  300.77   17.20
   3  -6   6  303.67   17.30
   3  -6   7  105.49   10.40
   3  -6   8  184.48   13.30
   3  -6   9  121.19   11.00
  -3   6  -9  112.09    9.10
  -3   6 -10  174.18   11.00
   3  -6  10  182.48   12.10
   3  -6  11   78.19    7.20
  -3   6 -11   74.09    6.60
   3  -6  12   15.20    2.80
  -3   6 -12   13.10    2.40
  -3   6 -12   10.00    2.60
   3  -5  -9  192.18    8.40
   3  -5  -8   14.40    3.60
   3  -5  -8   11.50    3.80
  -3   5   8   14.10    3.50
   3  -5  -7   24.20    5.30
   3  -5  -7   19.40    4.90
   3  -5  -6   51.99    7.20
   3  -5  -6   49.80    7.40
   3  -5  -5   53.69    8.00
   3  -5  -5   36.70    6.90
   3  -5  -4  335.27   18.00
   3  -5  -4  310.67   17.90
   3  -5  -4  328.27   18.50
   3  -5  -3  554.64   23.00
   3  -5  -3  479.55   21.90
   3  -5  -3  500.95   21.80
   3  -5  -3  514.25   22.40
   3  -5  -2    7.80    3.20
   3  -5  -2   12.50    4.90
   3  -5  -1   71.29    9.20
   3  -5   0   38.80    6.90
   3  -5   1   49.99    7.50
   3  -5   2   10.70    4.40
   3  -5   3  183.28   13.10
   3  -5   4   48.70    6.20
   3  -5   4   56.29    7.40
  -3   5  -5   79.39    9.20
   3  -5   5   73.99    8.60
  -3   5  -6   45.60    7.20
   3  -5   6   36.00    6.10
  -3   5  -7  189.38   14.40
  -3   5  -8    7.80    4.30
  -3   5  -9  248.48   17.40
  -3   5 -10   16.00    5.40
  -3   5 -11    1.70    2.70
   3  -5  11    1.10    2.30
   3  -5  12   81.39    7.10
  -3   5 -12   83.19    6.90
   3  -4 -10   11.40    2.20
   3  -4 -10   11.80    3.30
   3  -4  -9    4.10    2.20
   3  -4  -9    7.10    3.90
   3  -4  -8  109.49    9.50
   3  -4  -8  118.09   11.10
   3  -4  -7    8.30    3.30
   3  -4  -7    7.10    5.20
   3  -4  -6   -2.40    2.90
   3  -4  -6    8.80    4.30
   3  -4  -5   31.60    6.30
   3  -4  -5   42.90    6.60
  -3   4   5   31.10    7.50
   3  -4  -5   28.70    6.60
   3  -4  -4  478.55   21.00
  -3   4   4  500.15   24.80
   3  -4  -4  453.85   20.90
   3  -4  -3   90.49    8.90
   3  -4  -2  561.54   21.90
   3  -4  -1  541.65   21.40
   3  -4   0   18.80    4.90
   3  -4   1 1043.90   28.80
   3  -4   2 2414.16   43.00
   3  -4   3  676.53   22.40
   3  -4   3  667.23   21.70
   3  -4   4 1967.20   36.40
   3  -4   5  344.97   14.70
   3  -4   6  149.39   11.80
   3  -4   7  850.91   28.60
  -3   4  -7  804.32   28.90
  -3   4  -8  778.22   29.80
  -3   4  -9  680.73   28.20
  -3   4 -10  410.26   21.90
  -3   4 -11   31.00    6.40
  -3   4 -12  159.78   11.10
  -3   4 -13  193.88    8.60
   3  -4  13  207.78    8.80
   3  -3 -11   73.09    6.10
   3  -3 -11   76.79    6.50
   3  -3 -10    9.00    2.30
   3  -3 -10   11.50    4.30
   3  -3  -9   76.89    8.10
   3  -3  -9   92.59   10.00
   3  -3  -8  399.06   19.00
   3  -3  -8  472.55   23.10
   3  -3  -7  751.72   25.80
   3  -3  -7  838.52   30.90
  -3   3   6  685.63   30.00
   3  -3  -6  705.93   27.50
  -3   3   5   50.99    8.30
   3  -3  -4   -2.80    1.90
   3  -3  -3  254.77   13.00
   3  -3  -2 1810.42   34.40
   3  -3  -1 1201.48   27.90
   3  -3   0 1372.26   29.40
   3  -3   1  395.46   15.80
   3  -3   2  843.12   22.50
   3  -3   2  865.31   22.90
   3  -3   3 1698.33   31.20
   3  -3   4  359.56   16.30
   3  -3   4  362.86   14.50
   3  -3   5  151.48   11.40
   3  -3   5  151.98    9.30
   3  -3   6  365.66   18.50
  -3   3  -7   22.70    5.00
   3  -3   7   26.80    6.60
   3  -3   8  100.59   10.60
  -3   3  -8  111.39   11.50
  -3   3  -9    7.60    5.50
  -3   3 -10   69.69    9.80
  -3   3 -11    9.70    4.70
  -3   3 -12   -3.40    3.10
  -3   3 -13   25.90    4.00
   3  -2 -12   87.79    6.00
   3  -2 -12   99.19    6.70
   3  -2 -11  114.39    9.10
   3  -2 -11  128.09    8.20
   3  -2 -11  130.09   10.20
   3  -2 -10   30.90    6.50
   3  -2  -9   28.90    6.70
   3  -2  -8   80.99    9.90
  -3   2   7  324.47   20.70
   3  -2  -7  353.56   19.60
  -3   2   6   12.90    5.60
  -3   2   5    3.00    3.40
   3  -2  -4  287.67   11.50
   3  -2  -3   52.39    5.20
   3  -2  -2    2.70    2.30
   3  -2  -1   56.99    5.70
   3  -2   0  287.77   12.00
   3  -2   0  281.47   12.10
   3  -2   1  177.28    9.40
   3  -2   2   71.89    6.60
   3  -2   2   55.39    5.50
   3  -2   3   26.80    3.90
   3  -2   3   32.90    4.90
   3  -2   4    2.50    2.00
   3  -2   4    4.30    3.00
   3  -2   5 1993.50   40.10
   3  -2   5 1844.92   31.50
   3  -2   6  763.52   26.70
   3  -2   7    8.30    4.50
  -3   2  -7   10.90    4.30
  -3   2  -8    1.10    4.70
   3  -2   8   -0.40    3.60
  -3   2  -9  104.39   11.80
  -3   2 -10  251.57   17.70
  -3   2 -11  922.61   31.20
  -3   2 -12  377.36   17.20
  -3   2 -13   58.69    5.20
   3  -2  13   53.09    3.90
   3  -1 -12   40.60    5.40
   3  -1 -12   42.20    4.60
   3  -1 -12   42.10    5.60
   3  -1 -11   17.30    5.10
   3  -1 -11   14.00    3.20
   3  -1 -11   16.80    4.10
   3  -1 -11   16.60    5.30
   3  -1 -10  114.89   11.00
   3  -1 -10  114.79   11.10
   3  -1  -9  183.48   14.20
  -3   1   8  159.68   14.70
   3  -1  -8  189.88   14.20
  -3   1   7   -0.40    4.10
   3  -1  -7  -11.30    4.30
  -3   1   6 1520.45   38.30
   3  -1  -6 1609.14   29.50
  -3   1   5  941.31   28.00
   3  -1  -4  418.06   12.80
   3  -1  -3  964.00   19.60
   3  -1  -2   33.80    4.00
   3  -1  -1   73.69    5.70
   3  -1   0  402.16   13.10
   3  -1   1 2492.75   33.20
   3  -1   1 2471.55   32.80
   3  -1   2  312.77   12.70
   3  -1   2  291.47   11.70
   3  -1   3    8.10    2.50
   3  -1   3   10.50    3.30
   3  -1   4  179.18   11.30
   3  -1   4  157.08    9.20
   3  -1   5  980.20   28.20
   3  -1   5  959.60   23.00
   3  -1   6  922.91   29.50
  -3   1  -7  502.55   23.20
   3  -1   7  552.54   24.20
  -3   1  -8   83.19   10.90
  -3   1  -9    9.50    5.00
  -3   1 -10    6.00    5.20
  -3   1 -11  241.18   16.10
  -3   1 -12  224.78   12.90
   3   0 -13  185.08    8.20
   3   0 -13  153.88    6.70
   3   0 -12   33.50    5.30
   3   0 -12   34.70    4.80
   3   0 -12   35.20    5.90
   3   0 -11    1.00    2.50
   3   0 -11    2.90    3.10
   3   0 -11    0.20    2.40
   3   0 -10  147.89   12.10
   3   0 -10  161.78   12.40
   3   0 -10  157.68   13.40
   3   0  -9  740.23   26.10
   3   0  -9  716.33   26.60
   3   0  -9  715.93   28.00
   3   0  -8 1175.38   27.80
   3   0  -8 1207.98   31.90
   3   0  -8 1220.28   34.10
  -3   0   7  663.43   24.10
   3   0  -7  718.53   20.50
  -3   0   6   39.10    6.20
   3   0  -6   49.10    5.60
  -3   0   5  115.89    9.00
   3   0  -5  113.89    7.80
   3   0  -5  123.59    7.80
   3   0  -4  611.44   13.90
   3   0  -4  595.84   16.10
   3   0  -3  517.45   13.40
   3   0  -3  528.75   14.40
   3   0  -2  927.11   18.60
   3   0  -1 1111.79   20.70
   3   0   0   13.70    2.80
   3   0   1  423.76   12.80
   3   0   1  422.96   13.70
   3   0   2    4.00    1.60
   3   0   2   -1.10    1.90
   3   0   3  723.73   20.40
   3   0   3  652.63   18.50
   3   0   4   25.40    4.20
   3   0   4   29.70    5.00
   3   0   5  294.97   15.70
   3   0   5  286.57   13.50
   3   0   6  125.79   11.40
  -3   0  -7   23.80    5.60
   3   0   7   19.80    4.60
  -3   0  -8   18.60    6.40
  -3   0  -9  295.37   19.60
  -3   0 -10   20.30    6.80
  -3   0 -11    0.50    2.30
  -3   0 -12    3.80    2.70
   3   1 -13   13.10    2.70
   3   1 -13    9.80    2.50
   3   1 -12    3.00    2.80
   3   1 -12    2.40    2.20
   3   1 -12    6.40    3.40
   3   1 -11    2.20    2.50
   3   1 -11    1.30    3.20
   3   1 -11    4.70    3.70
   3   1 -10    5.20    2.90
   3   1 -10    1.00    2.70
   3   1 -10    1.40    3.10
   3   1 -10    1.80    4.20
   3   1  -9   42.90    6.80
   3   1  -9   49.90    7.50
   3   1  -9   49.40    8.20
   3   1  -9   45.70    7.60
   3   1  -9   61.29    6.50
   3   1  -9   48.10    7.60
   3   1  -8   89.39    8.80
   3   1  -8   83.99    8.70
   3   1  -8   79.59    7.60
   3   1  -8   79.59    8.90
   3   1  -8   79.69    8.80
   3   1  -8   81.19   10.00
   3   1  -7   19.10    4.80
   3   1  -7   19.10    3.80
   3   1  -6   11.60    3.40
   3   1  -6   10.80    3.80
   3   1  -5   -1.30    1.80
   3   1  -5    1.00    2.30
   3   1  -4   12.00    3.10
   3   1  -4   12.30    2.40
   3   1  -4   10.00    3.00
   3   1  -3  423.66   13.70
   3   1  -3  443.86   15.20
   3   1  -3  418.86   12.20
   3   1  -2 1297.47   24.90
   3   1  -2 1301.57   22.20
   3   1  -1 3088.79   35.80
   3   1   0  501.85   15.20
   3   1   1    6.20    1.90
   3   1   1    6.80    2.30
   3   1   2  199.08    9.60
   3   1   2  198.58   10.60
   3   1   2  191.78    6.50
   3   1   3 2169.38   35.10
   3   1   3 2101.29   35.80
   3   1   4 2399.06   41.20
   3   1   4 2370.16   39.60
   3   1   5 2240.28   43.70
   3   1   5 2315.07   41.40
   3   1   6  991.00   31.00
   3   1   6  987.70   27.80
   3   1   7   29.30    6.70
  -3  -1  -7   31.50    7.70
  -3  -1  -8  285.17   19.70
  -3  -1  -8  266.07   15.90
  -3  -1  -9  390.96   22.60
  -3  -1 -10  779.82   29.30
  -3  -1 -11  395.06   17.60
  -3  -1 -12   44.00    4.10
   3   2 -13   31.40    4.00
   3   2 -13   38.40    4.30
   3   2 -12  223.98   12.50
   3   2 -12  219.88   12.70
   3   2 -11  162.18   12.00
   3   2 -11  169.38   12.30
   3   2 -11  169.28   13.00
   3   2 -10   67.89    8.00
   3   2 -10   74.09    9.30
   3   2 -10   73.09    9.10
   3   2 -10   59.69    9.50
   3   2  -9  189.18   15.50
   3   2  -9  189.78   13.40
   3   2  -9  203.18   14.20
   3   2  -9  218.28   13.20
   3   2  -9  198.98   14.40
   3   2  -9  219.58   15.50
   3   2  -8   79.19    8.50
   3   2  -8   82.79    8.80
   3   2  -8   79.79   10.50
   3   2  -8   81.99    8.10
   3   2  -8   87.99    9.70
   3   2  -8   75.39    8.60
   3   2  -8   87.99    9.00
   3   2  -7  416.26   19.80
   3   2  -7  484.45   18.30
   3   2  -6 1033.10   29.50
   3   2  -6 1035.90   25.60
   3   2  -5  766.02   24.40
   3   2  -5  759.82   21.10
   3   2  -4 1288.17   29.90
   3   2  -4 1227.18   25.50
   3   2  -3  300.67   11.20
   3   2  -3  300.97   14.10
   3   2  -3  282.07   11.60
   3   2  -2 1834.62   29.10
   3   2  -2 1899.91   28.30
   3   2  -1 2368.66   34.50
   3   2  -1 2306.67   29.50
   3   2   0 1559.94   29.50
   3   2   0 1549.54   22.70
   3   2   1  416.26   10.80
   3   2   1  397.96   15.60
   3   2   2  848.72   23.80
   3   2   3    1.20    1.50
   3   2   3    5.30    2.30
   3   2   4  700.53   22.20
   3   2   4  749.13   25.10
  -3  -2  -5  309.77   18.40
   3   2   5  277.67   15.20
   3   2   5  271.37   15.60
  -3  -2  -6  407.76   22.70
  -3  -2  -7    9.80    5.30
  -3  -2  -8   10.80    5.00
  -3  -2  -8   13.80    4.00
  -3  -2  -9   46.20    8.50
  -3  -2 -10    6.40    4.50
   3   2  11   -1.40    0.70
  -3  -2 -11    3.00    2.10
   3   3 -13    9.00    2.60
   3   3 -13    7.60    2.30
   3   3 -12  175.88   11.00
   3   3 -12  180.08   11.30
   3   3 -11  391.36   18.70
   3   3 -11  383.86   17.90
   3   3 -10   20.50    5.20
   3   3 -10   19.90    4.90
   3   3 -10   13.90    5.30
   3   3 -10   15.60    5.90
   3   3  -9  203.18   13.60
   3   3  -9  201.78   14.30
   3   3  -9  200.08   15.40
   3   3  -9  205.68   16.20
   3   3  -8   54.99    7.30
   3   3  -8   59.59    8.00
   3   3  -8   58.59    8.70
   3   3  -8   55.69    8.50
   3   3  -8   51.39    8.10
   3   3  -7  431.96   18.10
   3   3  -7  471.05   19.70
   3   3  -7  475.65   22.00
   3   3  -7  422.66   20.80
   3   3  -7  475.15   18.70
   3   3  -7  488.55   22.60
   3   3  -6  414.66   20.10
   3   3  -5   13.10    3.90
   3   3  -5   11.80    4.40
   3   3  -4  274.67   12.80
   3   3  -4  322.97   16.20
   3   3  -3   77.39    6.70
   3   3  -3   86.19    8.50
   3   3  -3   85.39    7.00
   3   3  -2  296.57   13.60
   3   3  -2  300.37   12.00
   3   3  -1  494.45   14.60
   3   3  -1  494.85   18.10
   3   3   0   13.80    3.50
   3   3   1  308.97   15.70
   3   3   2   94.89    9.20
   3   3   3    6.70    3.20
  -3  -3  -4  159.88   14.90
  -3  -3  -5   49.60    9.10
  -3  -3  -5   52.59    9.20
  -3  -3  -6  147.19   14.50
  -3  -3  -7  344.17   21.50
  -3  -3  -8   52.79    8.70
  -3  -3  -9   65.09    8.30
   3   3   9   64.69    5.40
  -3  -3 -10    6.30    3.10
   3   4 -13   26.90    3.60
   3   4 -12   10.20    3.10
   3   4 -12   14.00    3.50
   3   4 -11   15.10    4.10
   3   4 -11   20.10    5.10
   3   4 -11   21.10    3.60
   3   4 -10  314.37   16.40
   3   4 -10  320.17   17.30
   3   4 -10  309.67   15.60
   3   4 -10  336.37   19.30
   3   4  -9   88.19    9.00
   3   4  -9  100.19   10.10
   3   4  -9   81.39    9.90
   3   4  -9   89.89    9.20
   3   4  -9   96.99   10.90
   3   4  -8  815.22   26.40
   3   4  -8  817.82   28.30
   3   4  -8  864.71   30.30
   3   4  -8  832.02   28.00
   3   4  -8  848.02   30.40
   3   4  -7  216.78   13.30
   3   4  -7  208.38   14.30
   3   4  -7  206.28   14.70
   3   4  -7  213.38   15.30
   3   4  -7  206.58   13.80
   3   4  -7  209.68   14.80
   3   4  -6    4.50    3.20
   3   4  -6    0.50    1.90
   3   4  -6    1.00    2.80
   3   4  -6   -5.00    3.50
   3   4  -6    2.10    2.70
   3   4  -6    5.10    2.80
   3   4  -5  370.26   19.20
   3   4  -4  906.51   28.80
  -3  -4   3  464.55   20.90
   3   4  -3  491.55   20.80
  -3  -4   2  314.17   18.20
  -3  -4   1  135.49   12.80
  -3  -4   0    4.10    3.10
  -3  -4  -1  688.73   29.50
   3   4   2  656.93   21.70
   3   4   2  608.14   21.50
  -3  -4  -2  672.53   30.20
  -3  -4  -3  424.26   25.10
   3   4   3  429.46   18.10
   3   4   4   84.49    8.40
  -3  -4  -5    8.90    7.00
   3   4   5    7.20    3.00
  -3  -4  -6   69.39   10.20
   3   4   6   87.69    7.80
  -3  -4  -7  219.58   15.70
   3   4   7  202.98   10.60
  -3  -4  -8  420.46   19.20
   3   4   8  403.66   12.10
  -3  -4  -9  178.88   10.00
   3   5 -13  202.38    7.40
   3   5 -12  354.76   13.60
   3   5 -11   65.39    7.10
   3   5 -11   67.89    6.00
   3   5 -10   12.10    4.70
   3   5 -10   14.30    3.80
   3   5  -9  244.08   14.20
   3   5  -9  257.27   16.00
   3   5  -9  241.08   15.30
   3   5  -9  226.28   14.10
   3   5  -9  242.48   15.50
   3   5  -8  559.44   23.40
   3   5  -8  588.64   23.90
   3   5  -8  563.64   23.00
   3   5  -8  544.75   22.80
   3   5  -7  722.33   26.60
   3   5  -7  736.23   27.00
   3   5  -7  787.92   27.50
   3   5  -7  753.22   25.80
   3   5  -7  666.53   22.70
   3   5  -6  321.47   17.20
   3   5  -6  291.17   15.50
   3   5  -6  304.67   17.40
   3   5  -6  295.17   16.90
   3   5  -5  126.99   10.90
   3   5  -5  115.09   11.10
   3   5  -5  113.39   10.50
   3   5  -5  130.29   12.00
   3   5  -5  115.99   10.30
   3   5  -5  140.09   11.50
   3   5  -4  127.79   11.00
   3   5  -4  112.09   10.50
   3   5  -4  129.69   11.60
   3   5  -4   95.59    8.50
   3   5  -4  119.59   10.60
   3   5  -4  124.49   10.70
   3   5  -3   29.30    5.60
   3   5  -3   15.70    4.90
   3   5  -3   22.10    5.40
   3   5  -3   20.10    5.40
   3   5  -3   26.90    5.70
  -3  -5   2 1233.08   39.40
   3   5  -2 1293.57   32.60
   3   5  -2 1196.18   32.60
   3   5  -2 1193.88   33.60
   3   5  -2 1350.46   33.20
   3   5  -2 1277.97   33.50
   3   5  -1   78.79    8.20
   3   5  -1   63.29    7.80
   3   5  -1   47.60    7.30
  -3  -5   1   63.79    9.10
   3   5  -1   73.49    8.60
   3   5  -1   74.09    8.70
   3   5   0    4.60    3.30
  -3  -5   0    0.50    6.00
   3   5   0    1.40    2.00
   3   5   0    3.80    2.90
   3   5   0    3.60    3.40
   3   5   1   53.89    6.70
   3   5   1   51.99    7.50
   3   5   1   48.00    6.80
   3   5   1   52.99    7.30
   3   5   2   15.20    3.70
   3   5   2   14.10    3.60
   3   5   2   10.90    3.50
   3   5   3  155.38   10.90
   3   5   4    0.90    2.30
  -3  -5  -5    4.40    4.00
   3   5   5    7.70    2.30
  -3  -5  -6    4.30    3.80
   3   5   6    3.60    1.80
  -3  -5  -7    1.60    2.40
  -3  -5  -8   -0.40    1.20
   3   6 -12   89.69    5.50
   3   6 -11   26.20    3.40
   3   6 -11   22.50    4.10
   3   6 -10    6.00    2.80
   3   6 -10    4.10    3.50
   3   6  -9    6.70    3.20
   3   6  -9    1.20    2.60
   3   6  -8    3.60    1.90
   3   6  -8    1.70    3.10
   3   6  -8    1.70    2.20
   3   6  -8    2.90    3.20
   3   6  -7   16.80    4.90
   3   6  -7   11.40    4.10
   3   6  -7   10.80    3.50
   3   6  -7   10.60    4.80
   3   6  -6   37.50    5.20
   3   6  -6   34.10    5.70
   3   6  -6   43.00    6.80
   3   6  -6   37.10    6.90
   3   6  -5   23.50    5.20
   3   6  -5   29.40    6.70
   3   6  -5   32.80    6.20
   3   6  -4    4.80    3.10
   3   6  -4    5.70    3.50
   3   6  -4    7.20    4.20
   3   6  -4    7.70    4.30
   3   6  -3  329.37   17.40
   3   6  -3  295.97   17.10
   3   6  -3  314.37   18.00
   3   6  -3  302.67   17.30
   3   6  -3  335.67   17.50
   3   6  -2   30.50    6.60
   3   6  -2   36.30    6.40
   3   6  -2   33.00    6.50
   3   6  -2   32.90    6.10
   3   6  -2   38.50    7.10
   3   6  -1  426.76   18.70
   3   6  -1  421.76   20.70
   3   6  -1  418.06   19.90
   3   6  -1  432.56   20.10
   3   6   0  869.61   26.00
   3   6   0  889.81   28.50
   3   6   0  889.31   29.40
   3   6   0  963.30   28.40
   3   6   1  345.97   16.00
   3   6   1  358.26   17.90
   3   6   1  356.56   17.40
   3   6   1  373.76   16.50
   3   6   2   31.60    4.90
   3   6   2   34.00    5.40
   3   6   2   36.10    5.40
   3   6   3   -0.90    1.30
   3   6   3    5.20    2.40
  -3  -6  -4  236.28   15.50
   3   6   4  224.38    9.90
  -3  -6  -5  588.04   21.80
  -3  -6  -6  505.45   16.90
   3   7 -11  111.69    5.50
   3   7 -10   57.79    4.90
   3   7 -10   62.69    5.60
   3   7  -9   37.80    5.00
   3   7  -9   41.90    4.90
   3   7  -8   30.20    5.40
   3   7  -8   34.60    5.20
   3   7  -8   29.00    4.40
   3   7  -7   -3.50    2.90
   3   7  -7    4.30    2.80
   3   7  -7    2.20    2.50
   3   7  -6  328.17   15.30
   3   7  -6  359.76   16.60
   3   7  -6  364.16   17.10
   3   7  -6  337.87   17.10
   3   7  -5  572.44   21.70
   3   7  -5  579.84   22.30
   3   7  -5  591.74   21.60
   3   7  -5  608.74   23.00
   3   7  -4  392.76   18.80
   3   7  -4  386.26   17.60
   3   7  -4  402.46   19.20
   3   7  -3  108.79   10.30
   3   7  -3   86.39    8.80
   3   7  -3   91.49    9.70
   3   7  -2    4.40    4.20
   3   7  -2    3.10    2.60
   3   7  -2    5.80    2.60
   3   7  -1  232.58   12.50
   3   7  -1  246.18   13.70
   3   7  -1  245.28   14.80
   3   7  -1  234.48   14.10
   3   7   0  282.37   12.90
   3   7   0  287.37   13.60
   3   7   0  274.27   14.90
   3   7   0  263.47   14.30
   3   7   1  485.25   15.20
   3   7   1  533.65   18.80
   3   7   2  179.08    9.40
  -3  -7  -3   31.30    4.90
  -3  -7  -4   -1.20    1.80
   3   8  -9   70.49    4.50
   3   8  -8   41.20    3.60
   3   8  -8   52.29    4.70
   3   8  -7    1.60    2.20
   3   8  -7   -0.70    1.50
   3   8  -6   37.50    4.90
   3   8  -6   44.50    5.40
   3   8  -5  134.99    8.80
   3   8  -5  157.58    9.80
   3   8  -4   38.90    5.30
   3   8  -4   35.70    5.10
   3   8  -3   -0.50    2.00
   3   8  -3    0.70    2.10
   3   8  -2    6.40    2.90
   3   8  -2    8.30    2.90
   3   8  -1    4.10    2.40
   3   8  -1    4.60    2.70
   3   8   0   44.30    4.80
  -3  -8  -1    6.80    2.30
  -3  -8  -2    7.90    1.90
  -4   9   1   77.29    4.80
   4  -9   0  150.58    6.50
   4  -9   1   86.79    5.50
  -4   9  -2   94.19    5.20
   4  -9   2   87.99    6.00
   4  -9   3    4.80    2.40
  -4   9  -3    7.60    2.10
  -4   9  -4   28.10    3.60
  -4   9  -5  211.88    9.00
  -4   9  -6   43.30    4.10
  -4   9  -7   49.50    3.50
  -4   8   4  106.29    5.50
   4  -8  -3  134.49    6.80
  -4   8   3  177.78    8.20
   4  -8  -2   72.29    6.20
  -4   8   2   86.79    6.40
   4  -8  -1   25.80    4.50
   4  -8  -1   32.00    4.60
  -4   8   1   25.90    4.00
   4  -8   0   44.70    6.00
  -4   8   0   56.19    5.30
   4  -8   0   38.90    5.50
   4  -8   1   10.50    3.20
  -4   8  -1    8.10    2.50
   4  -8   2    8.00    3.70
  -4   8  -3   58.39    6.10
   4  -8   3   67.09    7.60
   4  -8   4    2.30    2.70
  -4   8  -4    5.70    3.00
   4  -8   5    6.10    3.00
  -4   8  -5    6.80    3.10
   4  -8   6   79.39    7.20
  -4   8  -6   82.59    7.00
   4  -8   7   18.80    3.90
  -4   8  -7   19.40    3.60
  -4   8  -8   19.50    3.10
   4  -8   8   19.80    3.50
  -4   8  -8   25.20    3.80
   4  -8   9    0.60    1.80
  -4   8  -9    0.60    1.50
  -4   7   6    0.10    1.50
  -4   7   5    0.50    1.80
   4  -7  -4   16.00    3.00
   4  -7  -4   11.70    3.30
  -4   7   4   13.40    3.50
   4  -7  -3  111.29    9.00
   4  -7  -3  105.79    8.00
  -4   7   3  126.89    9.30
   4  -7  -2   72.99    8.00
   4  -7  -2   82.79    8.10
   4  -7  -1    4.90    2.60
   4  -7  -1   12.40    3.80
  -4   7   1   15.70    4.20
   4  -7   0   19.90    4.80
  -4   7   0   28.20    5.00
  -4   7  -1  168.28   10.30
   4  -7   1  175.98   13.30
   4  -7   2  229.78   15.00
  -4   7  -2  211.68   11.90
   4  -7   3  577.34   23.50
  -4   7  -3  569.44   20.10
   4  -7   4  461.15   21.00
  -4   7  -4  450.45   18.10
   4  -7   5  177.88   13.00
  -4   7  -5  178.78   11.80
   4  -7   6   -6.20    3.40
  -4   7  -6    2.80    2.50
   4  -7   7   76.69    8.30
  -4   7  -7   70.19    7.30
   4  -7   8  184.78   11.70
  -4   7  -8  170.18   10.50
   4  -7   9  426.96   15.70
  -4   7  -9  431.16   15.00
   4  -7  10  255.67   10.20
  -4   7 -10  258.17    9.90
   4  -6  -7   57.69    5.30
  -4   6   7   69.89    5.60
   4  -6  -6  146.29    9.70
   4  -6  -5   24.90    4.50
   4  -6  -5   19.50    5.10
   4  -6  -4   24.10    5.20
   4  -6  -4   19.90    4.20
   4  -6  -3   87.89    9.10
   4  -6  -3   78.09    9.00
   4  -6  -3   68.39    9.00
   4  -6  -2  171.48   13.40
   4  -6  -2  192.48   13.00
   4  -6  -2  184.98   13.40
   4  -6  -1  278.47   17.20
   4  -6   0  157.18   13.20
   4  -6   1  159.28   13.20
   4  -6   2    0.60    3.30
   4  -6   3  395.46   20.40
  -4   6  -3  387.36   16.80
   4  -6   4  453.25   21.70
  -4   6  -4  450.35   18.70
   4  -6   5  235.88   15.80
  -4   6  -5  218.08   13.30
   4  -6   6  103.19   10.80
   4  -6   7   -0.10    2.50
   4  -6   8   53.69    7.20
   4  -6   9   75.19    8.20
   4  -6  10   72.99    7.10
   4  -6  11   -0.70    1.70
  -4   6 -11    1.70    2.10
   4  -5  -9  138.19    7.10
   4  -5  -8   24.30    4.70
   4  -5  -7    1.40    2.80
   4  -5  -6   22.30    4.70
   4  -5  -5   55.99    8.20
   4  -5  -4   63.39    8.70
   4  -5  -4   51.49    7.90
   4  -5  -3  127.09   11.30
   4  -5  -3  134.59   12.20
   4  -5  -2   -3.90    2.60
   4  -5  -2   -2.90    2.10
   4  -5  -1   31.70    6.20
   4  -5  -1   35.80    6.60
   4  -5  -1   39.10    7.40
   4  -5   0   11.20    4.30
   4  -5   0   12.40    4.50
   4  -5   0    4.50    3.50
   4  -5   1    5.80    3.50
   4  -5   1    9.10    4.00
   4  -5   1    5.30    2.70
   4  -5   1    1.10    3.00
   4  -5   2   16.00    4.70
   4  -5   2   19.40    4.60
   4  -5   2   21.10    5.40
   4  -5   3   12.00    4.20
   4  -5   3    6.40    2.80
   4  -5   4   14.10    5.10
   4  -5   4   17.50    4.10
   4  -5   5    8.30    3.60
   4  -5   6  141.39   12.80
  -4   5  -7  609.74   25.10
   4  -5   7  600.54   25.70
  -4   5  -8   33.70    6.70
   4  -5   8   31.00    6.60
  -4   5  -9   10.30    4.10
   4  -5   9   15.60    4.90
   4  -5  10   58.39    7.50
  -4   5 -10   46.00    5.60
   4  -5  11  269.27   12.70
  -4   5 -11  218.48    9.40
   4  -5  12  224.58    8.60
   4  -4 -10   77.89    5.60
   4  -4  -9    2.90    2.70
   4  -4  -8  430.26   19.80
   4  -4  -7    0.70    3.10
   4  -4  -6  186.88   14.80
   4  -4  -5  436.36   22.30
   4  -4  -5  429.06   21.60
   4  -4  -4  433.26   21.00
   4  -4  -4  425.26   21.80
   4  -4  -3 1023.10   29.40
   4  -4  -3  963.10   30.30
   4  -4  -2  376.16   19.70
   4  -4  -2  375.36   18.50
   4  -4  -2  405.06   19.20
   4  -4  -1   25.10    5.60
   4  -4  -1   32.30    5.80
   4  -4   0  616.14   23.70
   4  -4   0  578.14   23.40
   4  -4   1  708.03   25.30
   4  -4   2 1148.69   31.90
   4  -4   3  596.64   22.80
   4  -4   4   47.90    7.20
   4  -4   4   41.70    6.10
   4  -4   5   65.99    8.40
   4  -4   5   77.99    7.80
  -4   4  -6  550.84   22.80
  -4   4  -7 1164.88   34.50
  -4   4  -8  249.68   16.60
  -4   4  -9   34.70    7.00
  -4   4 -10   12.80    4.00
  -4   4 -11   16.00    3.90
   4  -4  11   11.10    3.60
   4  -4  12   95.49    6.30
  -4   4 -12   75.19    5.20
   4  -3 -11   20.30    3.10
   4  -3 -10  134.59    9.70
   4  -3 -10  133.59    8.20
   4  -3  -9  114.99   10.60
   4  -3  -9   97.19    8.60
   4  -3  -8  926.71   31.10
   4  -3  -8  781.12   24.90
   4  -3  -7  381.76   21.00
   4  -3  -6  275.07   18.30
   4  -3  -5   -3.20    3.60
  -4   3   5    1.40    3.60
   4  -3  -5    2.50    4.60
   4  -3  -4  374.76   16.90
   4  -3  -4  401.06   18.90
   4  -3  -3  952.80   27.50
   4  -3  -2  527.95   20.70
   4  -3  -1   27.00    4.90
   4  -3   0  107.19    9.20
   4  -3   1    7.40    3.20
   4  -3   2   81.99    8.40
   4  -3   3   49.60    6.40
   4  -3   4   67.79    7.30
   4  -3   5    6.80    3.30
   4  -3   5    0.20    0.80
  -4   3  -6    7.30    3.40
   4  -3   6    7.40    4.30
  -4   3  -7   20.20    5.70
  -4   3  -8    9.60    4.50
  -4   3  -9  111.99   11.60
  -4   3 -10   16.70    4.60
  -4   3 -11   -3.10    3.00
   4  -3  12   24.30    3.20
  -4   3 -12   23.00    3.70
   4  -2 -12   10.30    2.10
   4  -2 -11    0.70    2.30
   4  -2 -11   -1.60    2.20
   4  -2 -10   49.10    6.70
   4  -2 -10   41.70    5.70
   4  -2  -9   35.10    6.30
   4  -2  -9   33.00    5.30
   4  -2  -8    3.70    4.70
   4  -2  -8    0.00    0.50
   4  -2  -7   -3.10    3.60
  -4   2   6    9.30    4.60
   4  -2  -6   18.80    5.70
  -4   2   5   20.00    5.80
   4  -2  -5   18.30    4.70
   4  -2  -4   16.80    3.30
   4  -2  -3    3.00    2.00
   4  -2  -2   53.69    6.40
   4  -2  -1 3247.18   46.40
   4  -2   0    8.00    2.80
   4  -2   1    2.60    2.40
   4  -2   2    9.70    3.10
   4  -2   3  182.88   11.70
   4  -2   4 2082.89   42.60
   4  -2   4 2108.69   39.40
   4  -2   5  494.75   21.90
   4  -2   5  450.85   18.20
   4  -2   6  625.04   25.50
  -4   2  -6  588.54   23.40
  -4   2  -7   50.39    8.40
  -4   2  -8    8.10    3.70
  -4   2  -9  350.56   20.20
  -4   2 -10  519.75   23.10
  -4   2 -11  561.24   21.10
  -4   2 -12  136.19    8.20
   4  -2  12  122.99    5.90
   4  -2  12  141.69    7.20
   4  -1 -12   56.39    5.20
   4  -1 -11  216.38   12.30
   4  -1 -11  203.78   11.80
   4  -1 -10   12.90    4.40
   4  -1 -10    7.30    2.90
   4  -1 -10   11.60    3.70
   4  -1  -9   18.30    5.10
   4  -1  -9   11.00    3.90
   4  -1  -8   -0.70    2.20
   4  -1  -8   -1.00    1.70
   4  -1  -8   -0.10    2.60
   4  -1  -7   88.29    9.50
   4  -1  -7   95.19    9.30
   4  -1  -6  805.12   23.90
  -4   1   6  719.93   27.10
   4  -1  -6  769.42   26.20
  -4   1   5  222.08   14.60
   4  -1  -4   80.49    6.80
   4  -1  -3    3.30    2.00
   4  -1  -2    4.10    2.20
   4  -1  -1 4116.09   49.60
   4  -1   0  506.05   17.80
   4  -1   1  679.33   21.10
   4  -1   2  267.57   13.40
   4  -1   3   79.69    8.00
   4  -1   3   68.09    7.20
   4  -1   4  216.98   13.60
   4  -1   4  204.68   12.30
   4  -1   5  701.53   22.90
   4  -1   5  725.73   26.30
   4  -1   6  336.67   18.80
  -4   1  -6  328.97   18.10
  -4   1  -7  135.89   13.10
  -4   1  -8   90.59   11.30
  -4   1  -9   89.69   10.80
  -4   1 -10  152.08   12.80
  -4   1 -11   19.30    4.50
   4  -1  11   20.90    3.90
  -4   1 -12   -0.60    1.40
   4   0 -12    1.20    2.10
   4   0 -11  126.39   10.00
   4   0 -11  133.19   10.50
   4   0 -10  117.59   10.60
   4   0 -10  121.79    9.80
   4   0 -10  143.49   11.70
   4   0 -10  111.59    9.90
   4   0  -9  144.99   12.20
   4   0  -9  135.49   10.00
   4   0  -9  143.49   11.00
   4   0  -9  149.79   12.30
   4   0  -9  154.18   12.60
   4   0  -8   44.00    6.10
   4   0  -8   44.20    6.40
   4   0  -8   36.10    6.40
   4   0  -8   41.10    7.70
   4   0  -7   39.50    5.80
   4   0  -7   34.70    5.60
   4   0  -7   42.30    6.40
   4   0  -6  160.38   10.90
   4   0  -5   37.40    5.70
   4   0  -4   88.99    6.60
   4   0  -3  466.75   15.60
   4   0  -2  319.47   13.40
   4   0  -1  403.66   15.60
   4   0   0  417.66   16.00
   4   0   1   49.00    5.80
   4   0   2  139.59    9.30
   4   0   2  138.99    9.90
   4   0   3   89.19    8.10
   4   0   3   86.99    7.80
   4   0   4   -0.50    1.90
   4   0   4    1.60    1.40
   4   0   5   16.00    3.90
   4   0   5   11.20    4.50
   4   0   6  202.08   14.30
  -4   0  -6  215.28   15.70
  -4   0  -7   29.60    6.90
  -4   0  -8  262.77   18.30
  -4   0  -9  133.29   12.60
  -4   0 -10   37.40    6.20
   4   0  10   50.69    6.00
  -4   0 -11   62.69    6.50
   4   0  11   56.99    4.50
   4   1 -13    2.30    1.30
   4   1 -12    1.20    1.80
   4   1 -11   21.50    4.60
   4   1 -10   -0.30    2.40
   4   1 -10   -2.00    2.20
   4   1 -10    1.90    4.40
   4   1  -9  119.79   11.00
   4   1  -9  117.39    9.60
   4   1  -9  105.09   10.20
   4   1  -9  108.69   11.00
   4   1  -9  111.39   11.60
   4   1  -8  352.36   18.00
   4   1  -8  362.36   17.50
   4   1  -8  353.76   18.50
   4   1  -8  366.06   18.90
   4   1  -8  378.86   21.10
   4   1  -7  599.94   22.20
   4   1  -7  667.13   22.90
   4   1  -7  625.94   24.30
   4   1  -7  656.63   23.80
   4   1  -7  602.44   21.60
   4   1  -6   41.00    5.40
   4   1  -6   31.80    5.10
   4   1  -6   38.90    5.60
   4   1  -5   29.80    5.00
   4   1  -5   26.40    4.90
   4   1  -4  297.57   13.80
   4   1  -3 1307.37   27.80
   4   1  -3 1301.97   26.10
   4   1  -2 1135.99   25.40
   4   1  -2 1156.98   25.00
   4   1  -1  877.51   23.10
   4   1  -1  852.81   20.40
   4   1   0  227.08   10.10
   4   1   0  241.78   12.60
   4   1   1 1081.69   27.50
   4   1   1 1053.59   20.10
   4   1   2  859.11   25.60
   4   1   3 1866.21   38.90
   4   1   4 1933.51   38.70
   4   1   4 1758.82   38.60
  -4  -1  -5  278.37   17.00
   4   1   5  277.47   15.90
   4   1   5  288.77   15.70
  -4  -1  -6  623.94   27.20
   4   1   6  628.04   23.40
  -4  -1  -7    0.20    4.30
   4   1   7    1.80    2.30
  -4  -1  -8  567.64   26.40
   4   1   8  554.74   20.40
  -4  -1  -9  557.64   24.40
   4   1   9  534.95   17.50
  -4  -1 -10  110.49    9.60
  -4  -1 -11    1.00    1.20
   4   1  11    0.40    0.90
   4   2 -13  139.29    6.50
   4   2 -12  112.89    6.80
   4   2 -12  148.49    9.20
   4   2 -11  174.18   11.40
   4   2 -11  156.68   10.00
   4   2 -10  225.58   14.00
   4   2 -10  219.88   13.20
   4   2 -10  226.88   14.50
   4   2 -10  204.98   15.50
   4   2  -9  476.65   20.70
   4   2  -9  517.75   20.50
   4   2  -9  473.45   19.90
   4   2  -9  499.85   22.50
   4   2  -9  494.25   24.40
   4   2  -8  523.95   21.40
   4   2  -8  530.65   24.00
   4   2  -8  512.35   21.10
   4   2  -8  484.95   24.60
   4   2  -7  680.03   23.10
   4   2  -7  675.93   23.20
   4   2  -7  619.14   23.50
   4   2  -7  685.23   23.80
   4   2  -7  662.53   26.60
   4   2  -6  663.23   21.20
   4   2  -6  659.33   24.10
   4   2  -6  687.33   22.80
   4   2  -6  656.73   25.70
   4   2  -6  683.93   22.90
   4   2  -5  120.49   10.40
   4   2  -5  120.19    9.70
   4   2  -4   -1.10    3.40
   4   2  -4    1.90    1.90
   4   2  -3    2.90    1.80
   4   2  -3    5.30    2.40
   4   2  -2 1167.68   27.20
   4   2  -2 1205.68   25.70
   4   2  -1  552.24   19.50
   4   2  -1  551.64   16.60
   4   2   0   89.89    8.40
   4   2   0  101.49    6.70
   4   2   1   46.00    6.60
   4   2   2   31.30    5.50
   4   2   3   11.40    3.60
   4   2   3   12.40    3.70
  -4  -2  -4  105.99   11.50
   4   2   4   95.09    8.70
   4   2   4  109.19   10.50
  -4  -2  -5   88.29   11.00
   4   2   5   78.89    8.00
  -4  -2  -6  103.19   12.10
   4   2   6  113.89    9.20
  -4  -2  -7  147.09   13.90
   4   2   7  165.28   10.50
  -4  -2  -8  100.89   11.00
  -4  -2  -9   50.69    6.70
  -4  -2 -10    2.90    1.80
   4   2  10    2.40    1.40
   4   3 -13   94.99    5.40
   4   3 -12   59.49    5.70
   4   3 -11   11.40    3.10
   4   3 -11   13.50    3.80
   4   3 -10  234.18   13.30
   4   3 -10  224.78   13.50
   4   3 -10  225.68   15.00
   4   3 -10  213.68   15.30
   4   3  -9   71.79    8.00
   4   3  -9   78.99    8.50
   4   3  -9   72.59    9.90
   4   3  -9   72.19    9.70
   4   3  -8   61.59    7.70
   4   3  -8   61.09    7.00
   4   3  -8   54.89    7.30
   4   3  -8   54.59    8.90
   4   3  -8   44.40    8.40
   4   3  -7   36.10    6.50
   4   3  -7   43.70    6.00
   4   3  -7   42.90    7.10
   4   3  -7   44.00    8.10
   4   3  -6   13.30    3.20
   4   3  -6   12.90    3.50
   4   3  -6   13.30    4.00
   4   3  -6    8.10    4.00
   4   3  -6   14.40    4.60
   4   3  -5  117.79    9.80
   4   3  -5  128.29   10.10
   4   3  -5  140.49   11.80
   4   3  -5  119.59    9.70
   4   3  -5  121.39    9.70
   4   3  -5  122.19   11.10
   4   3  -5  135.79   10.00
   4   3  -4   28.10    5.20
   4   3  -4   24.60    4.60
   4   3  -3   13.40    3.40
   4   3  -3   17.10    4.10
   4   3  -2  109.89    9.30
   4   3  -2  109.69    8.10
   4   3  -1  201.58   12.90
   4   3  -1  193.88   10.00
   4   3   0   17.10    4.70
   4   3   1  270.37   14.20
   4   3   1  242.78   14.20
   4   3   1  251.77   14.00
   4   3   1  270.87   16.20
   4   3   1  261.17   14.50
   4   3   2   55.19    8.20
   4   3   2   64.29    7.30
   4   3   2   54.49    6.50
   4   3   2   49.60    6.00
   4   3   2   50.99    6.40
  -4  -3  -3   14.90    6.00
   4   3   3    7.30    3.70
   4   3   3    5.50    2.10
  -4  -3  -4   67.79    9.30
  -4  -3  -5  168.08   14.70
  -4  -3  -6  575.84   26.50
  -4  -3  -7  206.08   15.10
   4   3   7  217.08   11.90
  -4  -3  -8   -2.30    2.50
   4   3   8    0.90    1.50
  -4  -3  -9   10.10    2.90
   4   3   9    5.20    1.40
   4   4 -12   11.20    3.10
   4   4 -11  226.08   11.60
   4   4 -11  228.08   12.40
   4   4 -10  172.28   11.20
   4   4 -10  164.68   12.30
   4   4 -10  172.28   13.00
   4   4  -9   53.69    6.50
   4   4  -9   55.29    8.60
   4   4  -9   51.19    8.20
   4   4  -8   49.80    6.80
   4   4  -8   49.00    7.80
   4   4  -8   42.50    7.10
   4   4  -7   11.30    3.30
   4   4  -7   10.20    4.80
   4   4  -7    9.50    4.00
   4   4  -7   16.30    4.70
   4   4  -7   11.40    4.40
   4   4  -6  186.18   11.90
   4   4  -6  180.18   12.40
   4   4  -6  180.08   14.10
   4   4  -6  187.18   12.20
   4   4  -6  186.98   13.70
   4   4  -6  171.58   12.00
   4   4  -5  636.74   24.20
   4   4  -5  712.83   26.70
   4   4  -5  749.42   24.10
   4   4  -5  707.33   25.30
   4   4  -5  646.34   23.80
   4   4  -4  461.35   20.40
   4   4  -4  500.65   21.80
   4   4  -4  532.15   22.40
   4   4  -4  526.95   20.20
   4   4  -4  496.05   20.90
   4   4  -4  520.95   21.80
   4   4  -3  501.75   21.00
   4   4  -3  518.35   22.30
   4   4  -3  523.05   20.20
   4   4  -3  467.95   19.90
   4   4  -3  529.05   21.70
   4   4  -3  532.15   22.00
   4   4  -2   26.80    6.30
   4   4  -2   26.20    5.00
   4   4  -2   27.10    5.50
  -4  -4   2   33.20    6.30
   4   4  -2   26.30    4.70
   4   4  -2   27.50    5.10
   4   4  -2   31.60    6.10
   4   4  -1   33.60    5.80
   4   4  -1   34.20    5.80
  -4  -4   1   44.80    8.20
   4   4  -1   43.40    7.20
   4   4  -1   34.30    5.20
   4   4  -1   34.50    5.60
   4   4  -1   42.40    7.00
   4   4   0  245.48   14.50
   4   4   0  247.98   15.40
   4   4   0  240.68   13.60
  -4  -4   0  246.78   18.20
   4   4   0  249.18   15.10
   4   4   1  312.47   16.50
   4   4   1  297.37   16.40
   4   4   1  293.07   16.20
   4   4   2  593.44   22.50
   4   4   2  575.34   21.80
   4   4   2  566.64   21.40
  -4  -4  -3  177.18   14.40
   4   4   3  185.78   12.50
  -4  -4  -4   -0.10    3.70
   4   4   4   -1.50    2.60
  -4  -4  -5   73.49    9.70
   4   4   5   77.39    7.70
  -4  -4  -6  211.98   14.60
   4   4   6  227.28   11.50
  -4  -4  -7  232.78   13.40
   4   4   7  249.48   10.30
  -4  -4  -8   18.70    3.30
   4   4   8   17.30    2.00
   4   5 -12   23.10    3.10
   4   5 -11    0.90    2.40
   4   5 -10    5.50    3.70
   4   5  -9  195.48   13.00
   4   5  -9  162.88    9.60
   4   5  -9  169.98   12.20
   4   5  -9  166.28   11.70
   4   5  -8  591.44   23.10
   4   5  -8  587.44   20.00
   4   5  -8  565.74   22.60
   4   5  -8  587.84   22.10
   4   5  -7   32.60    5.60
   4   5  -7   29.20    5.80
   4   5  -7   29.50    6.00
   4   5  -7   33.80    5.90
   4   5  -7   34.00    5.30
   4   5  -7   19.20    3.90
   4   5  -6   28.60    5.90
   4   5  -6   30.80    6.30
   4   5  -6   36.10    5.60
   4   5  -6   27.80    4.80
   4   5  -5    3.20    2.60
   4   5  -5    2.70    2.80
   4   5  -5    0.90    2.30
   4   5  -5   -3.70    3.50
   4   5  -5   -5.40    2.70
   4   5  -4  117.29   10.70
   4   5  -4  133.89   10.70
   4   5  -4  113.29   11.00
   4   5  -4  126.69   10.60
   4   5  -4  111.69   10.50
   4   5  -4  116.49   11.00
   4   5  -3  198.18   13.90
   4   5  -3  211.78   15.10
   4   5  -3  213.18   12.70
   4   5  -3  227.28   14.40
   4   5  -3  219.78   14.60
   4   5  -3  217.58   15.00
   4   5  -2    3.50    3.50
   4   5  -2   -2.30    2.60
   4   5  -2    3.30    3.60
   4   5  -2   -0.70    2.80
   4   5  -1  140.99   11.40
   4   5  -1  152.88   12.60
   4   5  -1  154.78   12.60
   4   5   0    2.20    2.40
   4   5   0   -1.40    3.10
   4   5   0   -3.80    3.60
   4   5   1    6.80    3.40
   4   5   1   10.00    3.00
   4   5   1   12.90    4.20
   4   5   2   16.30    4.40
   4   5   2   16.50    3.70
  -4  -5  -3   -2.80    3.30
   4   5   3    2.10    2.20
  -4  -5  -4   37.70    6.80
   4   5   4   44.10    5.30
  -4  -5  -5  121.89   10.10
   4   5   5  126.49    7.90
  -4  -5  -6    0.00    1.70
   4   5   6   -1.60    1.20
   4   6 -11    4.30    1.70
   4   6 -10   -0.70    2.10
   4   6 -10    2.60    0.90
   4   6  -9    8.20    3.60
   4   6  -9    4.60    2.10
   4   6  -8    2.00    2.90
   4   6  -8    0.00    3.00
   4   6  -8    1.40    2.00
   4   6  -8    0.90    1.40
   4   6  -7  140.09    9.30
   4   6  -7  168.48   10.80
   4   6  -7  168.08   10.90
   4   6  -7  155.78   11.70
   4   6  -7  139.59   10.10
   4   6  -6  211.48   11.90
   4   6  -6  254.17   13.90
   4   6  -6  243.48   14.60
   4   6  -6  230.18   13.60
   4   6  -5   20.70    5.20
   4   6  -5   18.20    4.80
   4   6  -5   23.70    4.20
   4   6  -5   20.90    5.30
   4   6  -4    5.40    3.60
   4   6  -4    3.70    3.20
   4   6  -4    4.70    3.00
   4   6  -4    8.40    3.90
   4   6  -4    0.00    2.30
   4   6  -3    8.00    3.70
   4   6  -3    3.10    3.20
   4   6  -3    6.90    3.90
   4   6  -3    8.00    4.50
   4   6  -2  587.84   22.40
   4   6  -2  604.64   24.20
   4   6  -2  617.44   23.80
   4   6  -1  942.71   27.50
   4   6  -1  953.20   29.60
   4   6  -1  962.40   28.70
   4   6   0  400.76   17.30
   4   6   0  406.66   18.50
   4   6   0  405.86   17.70
   4   6   1    1.70    1.70
   4   6   1    3.40    2.60
  -4  -6  -2   33.00    5.70
   4   6   2   38.80    5.20
  -4  -6  -3  125.99    9.80
   4   6   3  146.29    8.30
  -4  -6  -4  392.16   15.10
   4   6   4  451.25   11.80
  -4  -6  -5  203.58    8.50
   4   7  -9    0.30    0.90
   4   7  -9    4.20    2.00
   4   7  -8   12.80    3.10
   4   7  -8   11.50    2.50
   4   7  -8    9.70    2.00
   4   7  -7  202.48    8.70
   4   7  -7  205.48   10.00
   4   7  -7  210.18   10.10
   4   7  -6  228.28   11.20
   4   7  -6  229.78   11.40
   4   7  -6  243.48   12.10
   4   7  -5  259.77   13.50
   4   7  -4   15.90    4.10
   4   7  -3   -0.90    2.40
   4   7  -2   47.30    5.70
   4   7  -2   43.30    5.70
   4   7  -1  287.27   12.60
   4   7  -1  282.37   12.70
  -4  -7   0   99.79    7.50
   4   7   0  135.29    8.00
   4   7   1   54.59    4.70
   4   7   1   48.90    4.40
  -4  -7  -2   -0.80    1.30
   4   7   2    3.10    1.10
   4   8  -6    4.20    1.70
   4   8  -5    4.00    1.50
   4   8  -5    6.20    2.20
   4   8  -4   -1.10    1.50
   4   8  -4   -2.60    1.80
   4   8  -3    4.00    1.60
   4   8  -3    1.60    1.60
   4   8  -2   22.70    3.10
   4   8  -1    1.70    1.40
  -5   8   2   -0.80    0.90
  -5   8   1    3.00    0.90
   5  -8   0   69.99    6.50
   5  -8   1    8.50    3.20
   5  -8   2    0.70    2.30
   5  -8   3    9.50    3.00
   5  -8   4   14.10    3.60
   5  -8   5    7.80    2.60
   5  -8   6   48.60    5.00
   5  -8   7   29.70    3.70
  -5   7   5   65.69    4.50
   5  -7  -4   71.19    5.30
  -5   7   4   82.29    5.90
   5  -7  -3   91.79    6.90
  -5   7   3  103.29    7.20
   5  -7  -2   53.29    6.40
  -5   7   2   67.49    6.10
   5  -7  -2   66.29    7.60
   5  -7  -1   36.80    5.50
  -5   7   1   42.40    5.10
   5  -7  -1   37.00    6.30
  -5   7   0   58.79    5.70
   5  -7   0   65.69    7.10
   5  -7   0   58.69    7.70
   5  -7   1  236.38   14.50
   5  -7   2  202.28   13.60
   5  -7   3  365.86   18.10
   5  -7   4  228.08   14.20
   5  -7   5    3.40    3.60
   5  -7   6   86.29    8.40
  -5   7  -6   76.39    6.50
   5  -7   7  129.29    9.50
  -5   7  -7  126.19    7.40
   5  -7   8  549.74   16.70
  -5   7  -8  539.95   13.20
   5  -7   9  221.08    8.90
  -5   6   7   45.40    3.60
   5  -6  -6   46.90    5.20
   5  -6  -5   29.00    5.00
   5  -6  -4   18.20    5.00
   5  -6  -3  282.87   15.90
   5  -6  -3  279.07   16.10
   5  -6  -2  148.19   11.90
   5  -6  -2  141.79   11.70
   5  -6  -1   84.39    9.60
   5  -6   0   -1.80    3.10
   5  -6   1   22.70    6.40
   5  -6   1   12.10    3.50
   5  -6   2   13.90    5.70
   5  -6   2    9.10    3.40
   5  -6   3  285.87   17.70
   5  -6   3  261.97   15.00
   5  -6   4   65.69    9.00
   5  -6   5    0.10    2.50
   5  -6   6   -0.30    3.30
  -5   6  -6   -6.70    3.40
   5  -6   7   48.00    6.80
  -5   6  -7   40.30    5.40
   5  -6   8   63.19    7.10
  -5   6  -8   64.59    6.20
   5  -6   9    7.30    3.10
  -5   6  -9    2.20    1.80
   5  -6  10    6.40    2.20
   5  -5  -8   -1.90    1.70
   5  -5  -7    8.10    3.30
   5  -5  -6    4.70    3.20
   5  -5  -5    3.90    3.20
   5  -5  -4    7.20    4.30
   5  -5  -4    9.60    4.10
   5  -5  -3   23.10    5.70
   5  -5  -3   21.50    5.50
   5  -5  -2    2.10    3.50
   5  -5  -1   65.49    9.70
   5  -5  -1   84.49    9.80
   5  -5   0  140.49   12.60
   5  -5   0  140.99   12.80
   5  -5   1  148.19   13.00
   5  -5   1  137.39   12.50
   5  -5   2    0.40    3.40
   5  -5   2    2.50    2.30
   5  -5   3   20.10    5.80
   5  -5   3   26.90    5.80
   5  -5   4  164.08   13.40
   5  -5   4  149.19   11.90
   5  -5   5  367.66   20.10
   5  -5   5  350.36   17.40
   5  -5   6   99.79   10.60
   5  -5   7    0.00    1.80
   5  -5   8    0.70    2.60
   5  -5   8    0.00    0.80
   5  -5   9  104.99    8.80
   5  -5   9   91.19    6.80
   5  -5  10  189.28    9.80
   5  -5  10  157.58    7.20
   5  -4  -9   60.09    5.10
   5  -4  -9   67.49    5.80
   5  -4  -8    3.10    2.60
   5  -4  -7   36.30    6.10
   5  -4  -6  455.45   21.80
   5  -4  -5  583.64   25.50
   5  -4  -4  319.17   19.40
   5  -4  -4  308.17   17.90
   5  -4  -3  317.07   17.90
   5  -4  -2   10.30    4.30
   5  -4  -2    5.60    3.40
   5  -4  -1  181.88   13.90
   5  -4  -1  165.58   14.50
   5  -4  -1  168.38   13.30
   5  -4   0  631.24   24.90
   5  -4   0  642.24   26.00
   5  -4   0  632.64   26.50
   5  -4   1 1147.79   33.30
   5  -4   1 1147.29   34.70
   5  -4   1 1099.69   34.50
   5  -4   2  118.29   11.80
   5  -4   2  152.68   12.80
   5  -4   2  137.59   12.40
   5  -4   3   -2.00    3.10
   5  -4   3    0.50    3.30
   5  -4   4   26.80    6.00
   5  -4   5   68.89    9.40
   5  -4   6  319.57   18.00
   5  -4   7   50.09    8.00
   5  -4   8   15.70    4.90
  -5   4  -9    9.10    2.50
   5  -4   9    7.90    3.60
   5  -4  10  136.99    8.90
   5  -4  10  130.79    8.30
   5  -4  11   62.99    4.50
   5  -4  11   58.59    4.40
   5  -3 -10  118.29    6.80
   5  -3 -10  129.69    7.40
   5  -3  -9  262.27   13.10
   5  -3  -8  129.79   10.80
   5  -3  -7    3.40    2.90
   5  -3  -6    6.70    4.40
   5  -3  -5   35.50    7.20
   5  -3  -4   66.59    8.20
   5  -3  -3  160.38   12.40
   5  -3  -3  195.98   15.30
   5  -3  -3  157.28   12.30
   5  -3  -2  172.38   12.70
   5  -3  -2  173.18   14.10
   5  -3  -2  153.58   11.60
   5  -3  -1  111.79   10.20
   5  -3  -1  128.09   11.70
   5  -3  -1  112.49   11.10
   5  -3   0   42.00    6.70
   5  -3   0   47.80    7.10
   5  -3   0   39.10    6.80
   5  -3   1   11.00    4.50
   5  -3   1   13.10    3.60
   5  -3   2    5.60    2.60
   5  -3   2    8.10    3.60
   5  -3   3   43.40    7.30
   5  -3   3   54.99    7.30
   5  -3   4   80.99    9.30
   5  -3   4  102.09    9.70
   5  -3   4   95.59    9.40
   5  -3   5   64.39    9.10
   5  -3   6  125.09   11.60
   5  -3   7   96.19   10.10
  -5   3  -8   96.29    9.70
   5  -3   8   84.69    9.40
  -5   3  -9   61.29    7.00
   5  -3   9   57.19    6.90
  -5   3 -10  116.69    8.60
   5  -3  10  105.99    7.50
   5  -3  10  126.19    8.90
   5  -3  11    5.50    1.80
   5  -2 -11    9.70    2.00
   5  -2 -10   -2.20    2.00
   5  -2 -10   -1.00    2.10
   5  -2  -9    5.60    2.60
   5  -2  -9    6.10    3.40
   5  -2  -8   10.00    3.00
   5  -2  -8   10.30    4.00
   5  -2  -7  165.98   13.40
   5  -2  -6    3.50    3.00
   5  -2  -5   -5.60    2.90
   5  -2  -4   19.30    4.50
   5  -2  -4   29.50    6.90
   5  -2  -3  274.17   15.20
   5  -2  -3  334.87   18.50
   5  -2  -2  386.06   18.10
   5  -2  -2  370.96   19.30
   5  -2  -1  231.68   14.50
   5  -2   0   59.69    7.40
   5  -2   1  136.69   11.30
   5  -2   2  301.47   16.80
   5  -2   3  485.85   21.30
   5  -2   3  429.46   18.90
   5  -2   4 2400.46   46.70
   5  -2   4 2171.58   44.50
   5  -2   5  706.73   24.90
   5  -2   6   40.10    7.00
   5  -2   7   48.90    7.00
  -5   2  -8  219.68   14.40
   5  -2   8  213.18   13.10
  -5   2  -9  255.87   14.30
   5  -2   9  241.38   12.20
   5  -2   9  284.77   15.30
  -5   2 -10  567.64   18.50
   5  -2  10  540.05   14.30
   5  -2  11  102.99    6.10
   5  -1 -11   74.99    6.00
   5  -1 -10   58.99    6.50
   5  -1 -10   48.80    5.20
   5  -1  -9    0.70    2.10
   5  -1  -9   -0.70    2.20
   5  -1  -9    2.80    2.20
   5  -1  -8   86.89    9.00
   5  -1  -8   84.39    8.00
   5  -1  -8   96.89    9.20
   5  -1  -8   97.29    9.80
   5  -1  -7  313.67   16.40
   5  -1  -7  311.37   16.80
   5  -1  -6   94.39    9.70
   5  -1  -5  100.49   10.00
   5  -1  -4    2.70    2.30
   5  -1  -3  178.38   11.70
   5  -1  -2  364.36   17.00
   5  -1  -1 1087.29   29.80
   5  -1   0  289.57   15.80
   5  -1   1   37.00    6.00
   5  -1   2    3.50    2.70
   5  -1   3  379.86   18.60
   5  -1   3  347.07   17.70
   5  -1   4  807.92   27.20
   5  -1   4  791.52   27.60
   5  -1   5  119.99   11.30
   5  -1   6   54.49    8.10
  -5   1  -7    0.30    3.30
   5  -1   7    3.30    2.60
  -5   1  -8    5.60    3.10
   5  -1   8   11.50    3.80
  -5   1  -9   32.00    5.30
   5  -1   9   36.90    5.90
  -5   1 -10    5.40    1.80
   5  -1  10    1.30    2.30
   5   0 -12    3.10    1.20
   5   0 -11   60.09    5.70
   5   0 -10   29.00    4.80
   5   0 -10   25.00    3.70
   5   0 -10   24.40    4.60
   5   0  -9   92.99    9.10
   5   0  -9   71.69    7.40
   5   0  -9   83.69    9.30
   5   0  -8   41.10    6.60
   5   0  -8   38.70    6.20
   5   0  -8   45.20    8.30
   5   0  -7  105.19    9.50
   5   0  -7  100.99    9.70
   5   0  -7   91.79    9.80
   5   0  -6   46.00    6.40
   5   0  -6   45.90    6.90
   5   0  -6   55.19    7.50
   5   0  -5   -1.10    2.20
   5   0  -5    4.50    4.80
   5   0  -4  119.89   10.80
   5   0  -4  124.89   10.40
   5   0  -3  121.19    9.40
   5   0  -2   86.89    8.30
   5   0  -1   10.00    3.60
   5   0   0   80.99    8.50
   5   0   1    0.40    1.30
   5   0   2  118.39   10.50
   5   0   2  130.09   10.80
   5   0   3   34.10    5.70
   5   0   3   37.50    7.00
   5   0   4    6.70    2.70
   5   0   4   -0.50    0.90
   5   0   5  109.09   10.80
   5   0   6  556.54   23.40
  -5   0  -7  144.19   12.60
   5   0   7  154.78   12.00
  -5   0  -8   18.00    4.80
   5   0   8   21.30    5.20
  -5   0  -9    1.80    2.30
   5   0   9    4.30    2.10
  -5   0 -10  125.19    7.30
   5   0  10  138.79    6.70
   5   1 -12    8.30    1.90
   5   1 -11   82.99    6.80
   5   1 -10  121.39    9.30
   5   1 -10  108.89    9.90
   5   1  -9  490.45   19.60
   5   1  -9  468.25   19.00
   5   1  -9  464.75   18.80
   5   1  -9  431.46   21.40
   5   1  -8  208.28   13.30
   5   1  -8  178.78   12.40
   5   1  -8  200.88   14.00
   5   1  -8  197.78   15.40
   5   1  -7   50.89    6.80
   5   1  -7   43.90    6.70
   5   1  -7   48.00    8.50
   5   1  -6    0.90    3.30
   5   1  -6    6.70    4.80
   5   1  -5  263.07   15.60
   5   1  -5  268.27   14.80
   5   1  -5  248.98   16.40
   5   1  -5  248.68   14.50
   5   1  -4 1531.25   39.30
   5   1  -4 1685.53   38.40
   5   1  -4 1580.74   34.00
   5   1  -4 1682.53   35.90
   5   1  -3 1196.18   28.80
   5   1  -3 1219.28   32.20
   5   1  -3 1110.29   26.80
   5   1  -3 1155.08   29.00
   5   1  -2  603.14   21.30
   5   1  -2  625.04   22.90
   5   1  -2  538.65   22.60
   5   1  -2  596.84   20.20
   5   1  -1    5.10    2.40
   5   1  -1    0.50    2.10
   5   1   0  214.28   13.80
   5   1   0  216.68   14.20
   5   1   0  196.68   10.80
   5   1   1  335.07   17.60
   5   1   1  328.97   15.80
   5   1   1  293.47   14.10
   5   1   1  332.67   17.30
   5   1   2  669.63   25.10
   5   1   2  683.03   25.10
   5   1   3  294.77   16.80
   5   1   3  316.27   17.50
   5   1   4    9.10    3.00
   5   1   5    1.10    2.70
  -5  -1  -6  315.37   18.00
   5   1   6  300.17   16.40
  -5  -1  -7  162.58   12.70
   5   1   7  167.28   11.30
  -5  -1  -8  102.69    9.50
   5   1   8  106.99    8.20
  -5  -1  -9  105.59    7.70
   5   1   9  122.09    7.50
   5   1   9  111.09    6.10
   5   2 -12   27.00    3.00
   5   2 -11   50.39    5.20
   5   2 -10    2.10    2.70
   5   2 -10    3.60    2.90
   5   2  -9  329.57   15.40
   5   2  -9  313.67   15.60
   5   2  -9  311.27   16.50
   5   2  -9  289.87   18.00
   5   2  -8  777.22   24.10
   5   2  -8  757.62   25.30
   5   2  -8  710.33   26.90
   5   2  -8  700.93   28.60
   5   2  -7  208.08   12.20
   5   2  -7  203.58   13.40
   5   2  -7  169.38   14.10
   5   2  -6    1.20    2.00
   5   2  -6    0.30    2.30
   5   2  -6    2.40    3.70
   5   2  -5  196.28   13.70
   5   2  -5  189.08   12.40
   5   2  -5  182.68   14.60
   5   2  -4  100.69   10.50
   5   2  -4  100.99    8.90
   5   2  -4   99.09   11.00
   5   2  -4   98.09    9.10
   5   2  -3  143.29   11.90
   5   2  -3  125.09    9.60
   5   2  -3  120.69    9.20
   5   2  -3  128.89   12.00
   5   2  -3  137.79   10.30
   5   2  -3  142.39   11.30
   5   2  -2   81.89    9.10
   5   2  -2   69.69    7.20
   5   2  -2   79.39    8.00
   5   2  -2   72.49    8.70
   5   2  -2   81.99    7.70
   5   2  -2   77.09    8.80
   5   2  -1    5.80    3.80
   5   2  -1    7.40    3.50
   5   2  -1    7.30    3.70
   5   2  -1   18.60    4.20
   5   2  -1   10.60    2.50
   5   2   0    4.70    2.80
   5   2   0    6.00    2.80
   5   2   0    3.40    2.10
   5   2   0    9.80    3.30
   5   2   1  137.99   10.90
   5   2   1  139.59   10.60
   5   2   1  140.79   11.60
   5   2   1  145.29   11.60
   5   2   2   43.10    6.40
   5   2   2   45.70    6.60
   5   2   2   57.89    7.60
   5   2   3   22.50    4.30
   5   2   3   20.70    4.90
   5   2   4    5.40    3.10
   5   2   4    0.80    2.10
  -5  -2  -5   -3.10    3.30
   5   2   5    8.70    3.40
  -5  -2  -6   40.90    6.80
   5   2   6   48.50    6.20
  -5  -2  -7   23.00    5.10
   5   2   7   29.40    4.80
   5   2   7   25.10    3.90
  -5  -2  -8   15.10    3.10
   5   2   8   19.40    3.50
   5   2   9   66.89    4.30
   5   3 -11   45.90    4.60
   5   3 -11   48.40    5.10
   5   3 -10   10.40    2.80
   5   3 -10   13.40    3.80
   5   3 -10   16.10    3.70
   5   3 -10   13.80    4.30
   5   3  -9   44.30    5.70
   5   3  -9   27.20    5.80
   5   3  -9   42.20    6.20
   5   3  -9   32.10    7.00
   5   3  -8    3.70    1.60
   5   3  -8    2.10    4.20
   5   3  -8    7.10    3.00
   5   3  -8    2.90    4.00
   5   3  -7   21.80    3.80
   5   3  -7   20.80    5.10
   5   3  -7   18.10    4.70
   5   3  -7   13.90    5.80
   5   3  -7   24.60    5.00
   5   3  -6    4.30    3.70
   5   3  -6    6.70    3.10
   5   3  -6    1.10    5.00
   5   3  -6   -1.40    1.30
   5   3  -5    3.30    3.30
   5   3  -5    3.10    3.00
   5   3  -5    4.10    3.40
   5   3  -5    2.10    2.80
   5   3  -5    3.20    3.00
   5   3  -4    2.80    3.70
   5   3  -4    4.20    2.50
   5   3  -4    1.30    1.80
   5   3  -4    1.40    2.30
   5   3  -3   15.80    5.60
   5   3  -3   27.10    5.10
   5   3  -3   21.50    4.10
   5   3  -3   29.30    5.60
   5   3  -3   20.30    5.10
   5   3  -2   54.39    7.50
   5   3  -2   54.29    7.50
   5   3  -2   50.09    7.40
   5   3  -2   58.09    7.70
   5   3  -1  498.95   22.30
   5   3  -1  486.05   20.50
   5   3  -1  513.05   22.50
   5   3  -1  481.65   22.00
   5   3   0  776.02   27.20
   5   3   0  790.32   26.20
   5   3   0  818.12   27.80
   5   3   0  745.83   27.20
   5   3   1   48.80    7.20
   5   3   1   52.19    7.10
   5   3   1   49.70    7.10
   5   3   2    7.20    3.10
   5   3   2    4.10    2.90
   5   3   2    8.20    2.90
   5   3   3  111.29   10.20
   5   3   3   96.19    9.10
   5   3   4  253.17   14.60
   5   3   4  247.68   13.10
   5   3   5  430.16   17.90
   5   3   5  421.26   15.30
  -5  -3  -6  283.57   15.00
   5   3   6  354.46   14.70
  -5  -3  -7  140.19    8.90
   5   3   7  169.68    8.80
   5   3   8    2.10    1.20
   5   4 -11  119.39    6.70
   5   4 -10   77.69    6.60
   5   4 -10   77.49    7.50
   5   4  -9   58.49    7.20
   5   4  -9   52.99    6.60
   5   4  -9   63.89    7.80
   5   4  -8   11.70    5.10
   5   4  -8    3.30    3.80
   5   4  -8    3.30    3.60
   5   4  -7  110.89    9.40
   5   4  -7  114.89   11.00
   5   4  -7   96.19    9.20
   5   4  -7  126.89   11.30
   5   4  -6  230.38   14.30
   5   4  -6  236.38   15.70
   5   4  -6  221.18   13.90
   5   4  -6  210.88   13.10
   5   4  -5  151.48   12.30
   5   4  -5  160.38   13.00
   5   4  -5  152.28   11.40
   5   4  -5  154.98   12.00
   5   4  -4  172.88   13.60
   5   4  -4  181.98   13.10
   5   4  -4  191.08   14.10
   5   4  -4  167.18   11.40
   5   4  -4  191.38   12.50
   5   4  -4  176.68   13.30
   5   4  -3  150.58   12.80
   5   4  -3  144.69   11.90
   5   4  -3  156.98   12.60
   5   4  -3  167.28   11.50
   5   4  -3  152.78   12.60
   5   4  -2  349.27   18.00
   5   4  -2  349.47   18.00
   5   4  -2  311.37   18.30
   5   4  -1  257.17   15.50
   5   4  -1  263.67   15.10
   5   4  -1  256.47   16.30
   5   4   0  396.06   19.10
   5   4   0  370.66   17.20
   5   4   0  389.56   19.70
   5   4   1  458.15   19.90
   5   4   1  457.85   20.10
   5   4   1  459.65   18.80
   5   4   2  219.08   12.60
   5   4   2  242.78   14.30
   5   4   2  220.18   12.10
   5   4   3   55.89    7.10
  -5  -4  -4   36.40    6.00
   5   4   4   45.90    5.90
  -5  -4  -5   86.19    7.60
   5   4   5  107.89    7.70
  -5  -4  -6   29.10    3.50
   5   4   6   36.70    4.00
   5   5 -10   38.20    4.10
   5   5  -9   17.90    3.90
   5   5  -9   15.90    4.00
   5   5  -8   29.60    5.40
   5   5  -8   20.40    4.60
   5   5  -8   20.90    4.10
   5   5  -7   -0.40    1.60
   5   5  -7    3.40    3.20
   5   5  -7   -0.30    3.30
   5   5  -7    0.70    2.30
   5   5  -6   16.40    4.20
   5   5  -6   16.70    4.50
   5   5  -6   23.00    4.80
   5   5  -6   17.70    3.50
   5   5  -6   19.70    4.80
   5   5  -5    8.50    4.20
   5   5  -5   14.80    4.20
   5   5  -5   13.90    3.80
   5   5  -5   10.80    3.70
   5   5  -4    1.00    2.90
   5   5  -4    2.30    2.70
   5   5  -4    3.90    2.20
   5   5  -4    5.10    2.50
   5   5  -4    7.50    4.10
   5   5  -3  132.99   11.70
   5   5  -3  135.69   11.30
   5   5  -3  138.39   10.20
   5   5  -3  132.79   11.50
   5   5  -2  190.98   13.20
   5   5  -2  182.38   11.00
   5   5  -2  191.48   13.90
   5   5  -1   76.19    8.20
   5   5  -1   81.59    9.30
   5   5   0   18.20    4.60
   5   5   0   21.70    4.60
   5   5   1   54.19    6.50
   5   5   1   45.10    6.00
   5   5   2    6.70    2.30
   5   5   2   -0.80    2.30
   5   5   3  129.09    8.60
   5   5   4   10.80    2.30
   5   5   5    6.00    1.50
   5   6  -9   57.39    4.40
   5   6  -8  230.08    9.90
   5   6  -7  403.66   13.00
   5   6  -7  429.26   14.60
   5   6  -6   83.69    6.90
   5   6  -6   86.09    6.50
   5   6  -5    8.50    3.20
   5   6  -5    8.10    2.70
   5   6  -5   10.10    4.00
   5   6  -4  175.78   11.50
   5   6  -4  196.28   12.20
   5   6  -3   99.99    9.10
   5   6  -3  111.19    9.10
   5   6  -3  101.59    9.00
   5   6  -2  462.25   18.40
   5   6  -2  484.35   18.10
   5   6  -2  475.45   18.40
   5   6  -1  145.19   10.10
   5   6  -1  151.48   10.00
   5   6   0   55.19    6.00
   5   6   0   62.09    6.30
   5   6   1   42.40    4.50
   5   6   1   47.10    5.00
   5   6   2  172.08    8.10
   5   6   3  137.69    5.60
   5   7  -6   93.39    4.90
   5   7  -5   10.00    2.70
   5   7  -4    1.70    1.50
   5   7  -3    1.10    1.80
   5   7  -2   10.80    2.60
   5   7  -1   47.60    4.10
   6  -8   1    2.90    1.90
   6  -8   2    6.00    2.10
   6  -8   3    0.10    1.30
   6  -8   4    5.80    2.10
   6  -7  -3   55.99    4.20
  -6   7   2   27.50    2.80
   6  -7  -2   32.30    4.20
   6  -7  -1    0.50    2.70
   6  -7  -1   -0.10    1.80
   6  -7   0   81.99    6.80
   6  -7   0  100.89    8.10
   6  -7   1  211.98   10.70
   6  -7   1  218.58   11.90
   6  -7   2  374.26   15.60
   6  -7   3   85.39    7.70
   6  -7   4    2.70    2.20
   6  -7   5   27.80    4.50
   6  -7   6  148.29    8.20
   6  -7   7   51.99    4.40
   6  -6  -5   19.00    3.30
   6  -6  -4  117.79    8.20
   6  -6  -3   34.50    5.60
   6  -6  -2   59.39    7.70
   6  -6  -2   62.39    7.40
   6  -6  -1    4.50    3.00
   6  -6  -1    2.80    3.10
   6  -6   0    0.60    2.90
   6  -6   1    7.10    4.10
   6  -6   2    3.30    3.70
   6  -6   2    0.60    2.90
   6  -6   3    1.90    3.30
   6  -6   3    8.70    3.60
   6  -6   4    7.60    2.80
   6  -6   4   10.10    3.90
   6  -6   5   22.00    5.00
   6  -6   6    7.50    3.50
   6  -6   7  234.58   11.30
   6  -6   8   -0.60    1.60
   6  -5  -7   -0.50    1.30
   6  -5  -6   -0.80    1.70
   6  -5  -6    1.70    2.30
   6  -5  -5   -1.40    2.90
   6  -5  -4   38.20    6.40
   6  -5  -3   77.69    8.70
   6  -5  -3   77.29    8.50
   6  -5  -2   89.19    9.50
   6  -5  -1  126.49   12.50
   6  -5  -1  131.69   11.10
   6  -5   0    5.30    3.10
   6  -5   0    1.70    3.20
   6  -5   1   -4.50    3.50
   6  -5   1    7.70    3.50
   6  -5   2   61.89    8.20
   6  -5   2   48.10    7.00
   6  -5   3  146.49   12.10
   6  -5   3  146.69   12.50
   6  -5   4  210.18   14.10
   6  -5   4  209.88   14.00
   6  -5   5  197.38   13.20
   6  -5   5  191.98   12.80
   6  -5   6  118.09    9.80
   6  -5   6   90.49    8.10
   6  -5   7  101.19    8.30
   6  -5   8   33.50    4.30
   6  -5   9  101.59    5.50
   6  -4  -8   58.29    5.00
   6  -4  -7   78.69    5.30
   6  -4  -7   85.89    5.80
   6  -4  -6  179.78   12.10
   6  -4  -5  147.49   11.80
   6  -4  -4   45.20    7.50
   6  -4  -3   32.40    5.80
   6  -4  -2  182.88   15.60
   6  -4  -2  174.98   13.10
   6  -4  -1  204.48   15.90
   6  -4  -1  197.78   13.70
   6  -4   0  202.28   15.70
   6  -4   0  187.38   13.60
   6  -4   1  114.89   10.80
   6  -4   1  128.19   12.90
   6  -4   2   34.00    6.50
   6  -4   2   25.40    6.00
   6  -4   3   16.90    5.00
   6  -4   3   23.00    5.60
   6  -4   4  118.99   10.80
   6  -4   4  124.39   11.60
   6  -4   5  117.29   10.40
   6  -4   5  112.89   10.90
   6  -4   6   76.19    8.00
   6  -4   6   76.89    8.70
   6  -4   6   70.89    7.10
   6  -4   7   20.10    4.40
   6  -4   7   18.70    4.90
   6  -4   7   12.70    3.00
   6  -4   8   13.20    2.80
   6  -4   8   14.70    3.40
   6  -4   8   12.40    2.80
   6  -4   9    6.40    1.40
   6  -4   9    8.00    2.20
   6  -3  -9   33.20    3.50
   6  -3  -8   24.70    3.40
   6  -3  -8   24.80    3.60
   6  -3  -8   31.50    4.70
   6  -3  -7    2.60    1.60
   6  -3  -7    1.60    2.60
   6  -3  -7    0.50    2.10
   6  -3  -6    3.40    3.20
   6  -3  -5    8.40    3.70
   6  -3  -4   10.20    4.80
   6  -3  -4   10.50    4.00
   6  -3  -3    2.30    1.60
   6  -3  -3    5.20    3.00
   6  -3  -2   97.89   11.40
   6  -3  -2   91.19    9.30
   6  -3  -1  230.68   17.10
   6  -3  -1  193.88   12.50
   6  -3   0    5.30    3.60
   6  -3   0    6.60    4.80
   6  -3   1   17.40    4.20
   6  -3   1   10.90    4.10
   6  -3   2   28.90    5.80
   6  -3   3   75.19    8.20
   6  -3   3   63.79    7.50
   6  -3   4   45.40    6.00
   6  -3   4   40.10    6.90
   6  -3   5   19.30    3.90
   6  -3   5   10.40    3.80
   6  -3   6   96.79    8.40
   6  -3   6  112.59   10.00
   6  -3   7  175.18   10.20
   6  -3   7  184.28   12.00
   6  -3   8  247.68   12.60
   6  -3   9   26.80    3.80
   6  -2  -9   47.60    4.10
   6  -2  -9   53.79    4.30
   6  -2  -9   54.59    4.60
   6  -2  -8   78.39    6.20
   6  -2  -8   73.89    6.60
   6  -2  -8   75.39    6.90
   6  -2  -7  103.99    7.90
   6  -2  -7   87.29    8.10
   6  -2  -7   98.79    9.00
   6  -2  -6   22.70    5.70
   6  -2  -5   24.30    6.00
   6  -2  -4   63.69    8.40
   6  -2  -4   62.89    7.90
   6  -2  -3  273.67   18.10
   6  -2  -2 1371.96   40.10
   6  -2  -1    2.30    3.50
   6  -2   0   10.40    4.40
   6  -2   1  180.28   12.90
   6  -2   2  475.45   21.00
   6  -2   3  682.43   25.70
   6  -2   4  177.58   13.40
   6  -2   5   22.90    5.60
   6  -2   6   38.90    6.60
   6  -2   7  108.19    9.60
   6  -2   8  481.55   17.90
   6  -2   9  168.88    9.20
   6  -1 -10    3.40    1.60
   6  -1  -9   84.39    6.30
   6  -1  -9   78.79    6.40
   6  -1  -8  148.09    9.00
   6  -1  -8  127.09    9.50
   6  -1  -8  147.39   10.00
   6  -1  -7  325.57   16.20
   6  -1  -7  323.17   14.60
   6  -1  -6   34.80    5.90
   6  -1  -6   32.00    6.00
   6  -1  -5    7.30    3.30
   6  -1  -4   12.60    3.90
   6  -1  -4    8.50    4.40
   6  -1  -3   97.69   10.70
   6  -1  -3  114.19   11.40
   6  -1  -2  829.12   30.00
   6  -1  -2  763.32   26.90
   6  -1  -1    0.90    3.30
   6  -1  -1    6.50    4.40
   6  -1   0   11.70    5.00
   6  -1   1   50.59    8.40
   6  -1   2   12.70    4.50
   6  -1   3   21.30    5.50
   6  -1   4   13.40    4.80
   6  -1   5    9.80    4.50
   6  -1   6   -0.10    3.70
   6  -1   7    8.00    3.60
   6  -1   8    2.20    2.20
   6  -1   8    0.40    2.60
   6  -1   9   17.00    2.50
   6  -1   9   27.80    3.70
   6   0 -10    7.00    2.00
   6   0  -9   25.90    3.50
   6   0  -9   20.30    3.90
   6   0  -9   19.50    4.50
   6   0  -8   -2.70    2.00
   6   0  -8    0.10    2.70
   6   0  -8    0.40    3.00
   6   0  -7    8.40    3.00
   6   0  -7    1.60    2.80
   6   0  -6    6.30    3.40
   6   0  -6    5.50    3.60
   6   0  -5    5.20    3.70
   6   0  -5    7.50    4.60
   6   0  -4   25.10    5.40
   6   0  -4   29.20    7.10
   6   0  -3    4.70    4.00
   6   0  -2   13.30    4.10
   6   0  -2   11.60    5.30
   6   0  -1   86.59   10.20
   6   0   0  503.15   23.20
   6   0   1   82.69   10.10
   6   0   2   20.20    5.40
   6   0   3   15.80    5.40
   6   0   4  265.27   13.70
   6   0   4  265.17   16.70
   6   0   5  428.46   17.10
   6   0   5  438.96   20.60
   6   0   6    4.80    2.80
   6   0   6    7.70    3.70
   6   0   7  107.59    7.80
   6   0   7  104.29    8.80
   6   0   8   -1.10    1.70
   6   0   8   -1.30    2.00
   6   1 -10  351.86   10.10
   6   1 -10  384.96   13.70
   6   1  -9   63.29    5.40
   6   1  -9   57.49    6.10
   6   1  -9   48.70    5.10
   6   1  -9   48.50    6.50
   6   1  -8   25.60    5.20
   6   1  -8   20.10    4.50
   6   1  -8   20.70    5.70
   6   1  -7   38.80    6.00
   6   1  -7   23.30    5.70
   6   1  -6  333.87   16.70
   6   1  -6  324.17   18.10
   6   1  -5  451.25   19.40
   6   1  -5  401.16   21.10
   6   1  -4  237.68   13.90
   6   1  -4  212.78   15.70
   6   1  -3  270.87   17.00
   6   1  -3  239.58   13.20
   6   1  -2   -2.70    2.50
   6   1  -2   -3.40    3.40
   6   1  -1   89.19    9.90
   6   1  -1   81.89   10.10
   6   1   0  303.57   17.20
   6   1   0  288.87   18.10
   6   1   1   92.69    9.60
   6   1   1   83.09    7.90
   6   1   1  101.89   11.10
   6   1   2  347.97   16.30
   6   1   2  408.26   20.70
   6   1   3   96.59    8.80
   6   1   3  104.59   10.50
   6   1   4   15.70    4.00
   6   1   4   17.80    4.80
   6   1   5  239.78   13.00
   6   1   5  262.27   14.90
   6   1   6    7.70    3.10
   6   1   6   11.70    3.40
   6   1   7   85.89    6.40
   6   1   7   84.09    6.60
   6   1   8   22.90    2.90
   6   2 -10  134.39    8.60
   6   2  -9   14.70    3.80
   6   2  -9   13.80    4.20
   6   2  -8   37.80    5.50
   6   2  -8   23.90    5.50
   6   2  -8   28.00    6.20
   6   2  -7    5.10    2.70
   6   2  -7    6.50    4.10
   6   2  -6    2.60    3.10
   6   2  -6    4.30    5.00
   6   2  -5    1.30    2.90
   6   2  -5    2.60    2.00
   6   2  -5    4.30    4.40
   6   2  -4    6.10    4.20
   6   2  -4    5.20    2.70
   6   2  -4    3.90    3.20
   6   2  -3    9.00    4.70
   6   2  -3    6.70    3.10
   6   2  -3   11.00    5.30
   6   2  -2    9.10    4.40
   6   2  -2   13.50    3.50
   6   2  -2   15.90    4.80
   6   2  -1   46.70    7.00
   6   2  -1   28.70    4.90
   6   2  -1   55.39    8.00
   6   2   0   14.90    4.30
   6   2   0   12.50    3.60
   6   2   0   17.80    4.40
   6   2   1   49.20    6.80
   6   2   1   56.09    6.80
   6   2   1   64.49    8.30
   6   2   2   60.59    7.00
   6   2   2   81.09    8.30
   6   2   2   80.59    9.20
   6   2   3   57.59    7.00
   6   2   3   66.59    7.90
   6   2   4   60.39    7.00
   6   2   4   52.89    7.00
   6   2   5  106.99    8.50
   6   2   5  100.29    8.20
   6   2   6   60.69    5.80
   6   2   6   54.19    4.90
   6   2   7  129.89    6.60
   6   3 -10    9.80    2.70
   6   3  -9   -1.20    2.50
   6   3  -9    2.40    3.00
   6   3  -8    9.40    3.70
   6   3  -8   10.00    4.40
   6   3  -7  150.38   11.70
   6   3  -7  164.28   12.50
   6   3  -6   98.79   10.50
   6   3  -5    1.50    2.70
   6   3  -5    2.40    1.90
   6   3  -4    3.40    4.10
   6   3  -4   10.90    4.60
   6   3  -3  189.58   14.30
   6   3  -3  163.98   11.50
   6   3  -3  199.78   14.60
   6   3  -2  224.98   15.20
   6   3  -2  184.68   12.40
   6   3  -2  230.98   15.40
   6   3  -1  184.88   13.50
   6   3  -1  174.98   12.20
   6   3  -1  194.28   13.90
   6   3   0  110.99   10.10
   6   3   0  104.59    9.50
   6   3   0  107.49   10.30
   6   3   0  122.69   10.90
   6   3   1   12.90    3.30
   6   3   1    9.00    3.60
   6   3   1   16.00    4.50
   6   3   2  118.09    8.70
   6   3   2  107.89    9.00
   6   3   2  115.29    9.80
   6   3   3  497.25   18.50
   6   3   3  507.45   18.20
   6   3   4  412.16   15.50
   6   3   4  406.36   14.10
   6   3   5  311.57   12.00
   6   3   6   45.10    4.00
   6   4  -9   11.20    2.90
   6   4  -9   10.10    2.80
   6   4  -8  148.09    9.40
   6   4  -8  136.99    8.90
   6   4  -7  119.59    9.50
   6   4  -7  111.99    8.90
   6   4  -6  142.49   10.00
   6   4  -6  174.98   11.90
   6   4  -6  158.68   10.60
   6   4  -5  133.89   10.40
   6   4  -5  154.08   11.60
   6   4  -4    2.50    3.10
   6   4  -4    0.90    3.00
   6   4  -3  173.98   12.80
   6   4  -3  146.99   10.80
   6   4  -3  189.08   12.60
   6   4  -2   56.29    7.40
   6   4  -2   62.79    7.00
   6   4  -2   62.19    7.60
   6   4  -1  250.67   14.50
   6   4  -1  277.87   14.70
   6   4  -1  294.27   14.60
   6   4   0   49.90    6.50
   6   4   0   47.50    6.40
   6   4   0   51.29    6.50
   6   4   1   -1.40    2.40
   6   4   1   -1.20    2.90
   6   4   1    1.90    2.20
   6   4   2    0.60    2.20
   6   4   3   36.30    4.80
   6   4   4   72.39    5.50
   6   5  -8   53.89    4.70
   6   5  -7    2.50    2.10
   6   5  -6   11.20    2.80
   6   5  -6   10.80    3.20
   6   5  -5   14.20    3.40
   6   5  -5   14.20    3.30
   6   5  -4    8.60    3.60
   6   5  -4   13.00    3.50
   6   5  -3  139.89   10.00
   6   5  -3  144.09    8.50
   6   5  -2    5.90    2.70
   6   5  -2    2.90    2.90
   6   5  -2    1.90    1.50
   6   5  -1   16.60    3.80
   6   5  -1   15.30    3.80
   6   5   0   88.99    6.70
   6   5   0   91.99    7.30
   6   5   1   27.20    3.20
   6   5   1   35.80    4.40
   6   5   2   16.30    2.90
   6   5   3   19.60    2.30
   6   6  -5   70.09    4.80
   6   6  -4  124.19    7.00
   6   6  -3  221.58    9.30
   6   6  -2  151.98    7.40
   6   6  -1    3.60    1.60
   7  -6  -3    2.90    1.70
   7  -6  -2    1.20    1.80
   7  -6  -1    0.30    2.40
   7  -6  -1    1.60    1.20
   7  -6   0    1.50    1.70
   7  -6   0    3.40    3.00
   7  -6   1   43.00    4.70
   7  -6   2    0.10    1.60
   7  -6   3   30.70    4.10
   7  -6   4   -0.80    1.00
   7  -6   5   34.50    3.40
   7  -5  -5   12.60    1.90
   7  -5  -5   15.00    2.60
   7  -5  -4    0.70    1.30
   7  -5  -3   51.89    6.20
   7  -5  -2   45.70    6.10
   7  -5  -1   21.00    3.80
   7  -5   0   -2.50    2.10
   7  -5   1  149.79   11.70
   7  -5   1  158.18    9.80
   7  -5   2  103.09    9.60
   7  -5   2  100.09    7.90
   7  -5   3  141.29   10.60
   7  -5   3  161.08    9.40
   7  -5   4  105.69    8.50
   7  -5   4  106.69    7.50
   7  -5   5   26.20    4.40
   7  -5   5   35.50    4.20
   7  -5   6   13.70    2.10
   7  -5   6   10.50    2.30
   7  -4  -6   30.50    3.60
   7  -4  -6   31.90    3.80
   7  -4  -5   12.20    3.00
   7  -4  -5   17.60    3.40
   7  -4  -4   -0.70    2.40
   7  -4  -3   51.29    6.60
   7  -4  -2   39.50    5.20
   7  -4  -1   81.39    9.60
   7  -4  -1   70.99    6.60
   7  -4   0   19.40    4.10
   7  -4   0   18.00    5.60
   7  -4   1  -10.10    3.70
   7  -4   1    0.30    3.60
   7  -4   2   51.59    8.00
   7  -4   2   47.80    5.60
   7  -4   3  101.69   10.30
   7  -4   4   24.50    5.80
   7  -4   5   48.10    6.80
   7  -4   6    4.10    2.90
   7  -4   7    2.30    2.00
   7  -3  -7   35.90    3.70
   7  -3  -7   31.40    3.30
   7  -3  -6    8.70    3.10
   7  -3  -6   12.70    3.10
   7  -3  -5   10.30    3.10
   7  -3  -5   13.50    3.70
   7  -3  -4   18.20    4.50
   7  -3  -3    4.20    2.40
   7  -3  -2    3.70    3.80
   7  -3  -1   17.60    6.00
   7  -3   0   94.29   11.00
   7  -3   1   82.99   10.00
   7  -3   2   93.79   10.10
   7  -3   3   85.69    9.30
   7  -3   4   95.19   10.20
   7  -3   4   94.79    7.90
   7  -3   5  206.78   13.30
   7  -3   5  180.78   10.30
   7  -3   6  120.09    9.40
   7  -3   6  102.59    7.20
   7  -3   7   33.70    4.70
   7  -3   7   34.40    3.60
   7  -2  -8   43.30    3.80
   7  -2  -7    2.00    2.00
   7  -2  -6   29.00    4.50
   7  -2  -6   26.50    3.70
   7  -2  -5  285.67   14.30
   7  -2  -5  246.88   12.50
   7  -2  -4  372.46   16.60
   7  -2  -3  209.28   14.50
   7  -2  -3  163.48   11.60
   7  -2  -2  132.69   12.00
   7  -2  -1    3.60    3.20
   7  -2  -1   -2.70    3.50
   7  -2   0  102.19   11.40
   7  -2   0   88.49    8.70
   7  -2   1  148.19   13.30
   7  -2   1  122.89   10.50
   7  -2   2  310.17   18.70
   7  -2   2  265.17   14.90
   7  -2   3  215.98   13.40
   7  -2   4    7.60    3.40
   7  -2   5   18.50    4.40
   7  -2   6   54.59    5.90
   7  -2   7   27.60    3.80
   7  -1  -8  126.59    7.20
   7  -1  -7    1.30    2.10
   7  -1  -7    0.80    2.00
   7  -1  -6    5.70    2.90
   7  -1  -5   35.00    5.30
   7  -1  -4   44.70    6.30
   7  -1  -3   32.50    6.10
   7  -1  -3   30.30    5.20
   7  -1  -3   36.50    6.10
   7  -1  -2    4.10    2.80
   7  -1  -2    7.50    2.90
   7  -1  -2    3.10    3.90
   7  -1  -1    0.40    3.10
   7  -1  -1    3.40    2.70
   7  -1   0   18.50    5.50
   7  -1   0   11.70    4.40
   7  -1   1    2.00    4.00
   7  -1   1   -4.80    3.90
   7  -1   2   16.70    5.10
   7  -1   3   43.50    7.10
   7  -1   4   62.39    7.50
   7  -1   5   30.50    5.30
   7  -1   6    5.90    2.80
   7  -1   7   29.10    3.80
   7   0  -8   -0.40    1.60
   7   0  -8    0.90    1.90
   7   0  -7    9.40    2.90
   7   0  -7   11.90    3.50
   7   0  -6   28.30    4.80
   7   0  -6   17.50    3.90
   7   0  -5   46.00    6.00
   7   0  -5   25.80    5.20
   7   0  -4   38.40    5.70
   7   0  -4   21.00    5.60
   7   0  -3   60.69    6.90
   7   0  -3   52.99    8.20
   7   0  -2  169.18   10.20
   7   0  -2  157.18   12.90
   7   0  -1  124.19   10.90
   7   0   0    7.70    3.30
   7   0   0    1.00    2.80
   7   0   1    2.20    3.50
   7   0   2   47.90    7.20
   7   0   3  132.69   11.20
   7   0   4  199.08   12.70
   7   0   5  361.16   15.40
   7   0   6   24.30    3.80
   7   0   7    1.50    0.80
   7   1  -9    8.00    2.10
   7   1  -8   22.10    4.20
   7   1  -7   45.00    5.10
   7   1  -7   36.40    4.80
   7   1  -7   39.40    5.90
   7   1  -6    7.00    2.90
   7   1  -6    5.40    2.60
   7   1  -5  255.77   12.60
   7   1  -5  218.68   13.70
   7   1  -4   36.50    4.90
   7   1  -4   16.10    4.90
   7   1  -3    1.50    1.40
   7   1  -3    4.70    3.90
   7   1  -2  102.09   11.00
   7   1  -1  137.49   12.10
   7   1   0   91.09    9.90
   7   1   1   81.99    9.50
   7   1   2    4.90    3.60
   7   1   3    0.90    2.80
   7   1   4   23.00    3.50
   7   1   4   24.00    4.50
   7   1   5  123.79    6.20
   7   1   5  154.48    8.90
   7   1   6    3.70    1.80
   7   2  -8    0.10    1.40
   7   2  -8   -0.10    1.80
   7   2  -7    0.90    2.20
   7   2  -7   -2.00    2.90
   7   2  -6   12.80    4.00
   7   2  -5    1.20    2.50
   7   2  -4   14.20    4.60
   7   2  -3   15.20    4.80
   7   2  -2   72.99    8.80
   7   2  -1    9.10    4.20
   7   2   0   82.89    8.80
   7   2   1   37.90    4.90
   7   2   1   39.30    6.20
   7   2   2   62.39    5.90
   7   2   2   64.89    6.90
   7   2   2   71.59    7.40
   7   2   3   70.89    5.60
   7   2   3   67.29    6.30
   7   2   3   77.99    7.00
   7   2   4    8.10    2.30
   7   2   4    6.70    2.00
   7   3  -8   68.39    4.60
   7   3  -8   76.69    5.20
   7   3  -7   69.09    5.80
   7   3  -7   64.39    5.80
   7   3  -6    2.20    2.70
   7   3  -6    8.40    3.00
   7   3  -5    1.90    2.90
   7   3  -4   67.09    7.40
   7   3  -3  478.95   18.60
   7   3  -2  187.88   11.70
   7   3  -1   74.49    6.40
   7   3  -1   94.89    8.30
   7   3   0   -2.40    2.20
   7   3   0    0.30    1.70
   7   3   1   71.89    5.90
   7   3   1   69.79    6.30
   7   3   2  232.58    9.30
   7   3   2  196.98    8.40
   7   3   3   45.10    3.90
   7   4  -7   75.69    4.60
   7   4  -6    4.10    1.90
   7   4  -5    1.80    2.00
   7   4  -4   10.40    3.00
   7   4  -3  174.78    8.90
   7   4  -2    1.60    2.00
   7   4  -1    3.70    1.80
   7   4   0   -1.80    1.70
   7   4   1    1.00    1.50
   8  -5   0    5.00    1.70
   8  -5   1   43.70    4.10
   8  -4  -3   55.19    4.00
   8  -4  -2   -0.10    1.10
   8  -4  -2    0.30    1.60
   8  -4  -1   15.00    2.40
   8  -4  -1   20.30    3.40
   8  -4   0    1.50    1.10
   8  -4   0    1.00    1.50
   8  -4   1   12.20    4.00
   8  -4   2   23.00    4.20
   8  -4   3    0.30    1.60
   8  -4   4    1.00    2.00
   8  -3  -4   12.50    2.60
   8  -3  -3    6.70    2.30
   8  -3  -3    9.90    2.50
   8  -3  -2  264.57   10.00
   8  -3  -2  250.37   10.20
   8  -3  -1   40.70    5.70
   8  -3  -1   40.50    4.00
   8  -3  -1   41.00    5.00
   8  -3   0  112.39    9.10
   8  -3   1   38.20    5.70
   8  -3   2    2.60    2.60
   8  -3   3   56.79    6.30
   8  -3   4   44.10    5.00
   8  -2  -5   54.99    4.50
   8  -2  -4   98.69    6.20
   8  -2  -3  116.79    6.90
   8  -2  -2  107.29    6.40
   8  -2  -1   31.80    5.10
   8  -2   0   62.09    6.80
   8  -2   1   55.49    6.80
   8  -2   1   33.90    4.50
   8  -2   2   44.00    5.80
   8  -2   2   32.20    4.00
   8  -2   3    2.00    2.60
   8  -2   4    1.00    1.30
   8  -2   5    1.20    1.10
   8  -1  -6    6.60    1.60
   8  -1  -5    3.90    1.70
   8  -1  -4   -0.20    1.60
   8  -1  -3    1.20    1.70
   8  -1  -2    2.00    1.90
   8  -1  -1    2.30    2.40
   8  -1  -1    6.30    2.70
   8  -1   0   22.30    4.00
   8  -1   0   20.20    3.90
   8  -1   1   24.70    4.30
   8  -1   1   23.60    4.50
   8  -1   2   28.50    4.70
   8  -1   2   19.20    3.50
   8  -1   3   41.80    5.00
   8  -1   4   17.70    3.00
   8   0  -6   -1.20    1.50
   8   0  -5    4.50    1.70
   8   0  -4    5.30    1.70
   8   0  -4    5.30    1.80
   8   0  -3   37.20    4.80
   8   0  -2   43.50    5.60
   8   0  -1   47.30    5.80
   8   0   0    6.10    2.70
   8   0   1    2.60    1.30
   8   0   1    0.90    2.30
   8   0   2  106.89    6.60
   8   0   2  140.89    8.70
   8   0   3  153.98    7.40
   8   0   3  207.48    9.40
   8   1  -6   17.70    2.80
   8   1  -5   -1.20    1.30
   8   1  -4   -0.30    1.80
   8   1  -3   13.30    3.10
   8   1  -2   23.40    4.30
   8   1  -1   84.49    7.10
   8   1   0   -0.40    2.40
   8   1   1    3.80    1.90
   8   1   2   16.00    3.00
   8   2  -4   64.69    5.00
   8   2  -3   19.60    3.20
   8   2  -2    0.10    1.70
   8   2  -1    9.90    2.70
   8   2   0   86.29    5.70
   0   0   0    0.00    0.00

_computing_structure_solution     'SHELXT 2014/5 (Sheldrick, 2014)'
;
_shelx_hkl_checksum              20565
loop_
_space_group_symop_operation_xyz
'x, y, z'
'-x, -y, -z'
loop_
_atom_site_label
_atom_site_type_symbol
_atom_site_fract_x
_atom_site_fract_y
_atom_site_fract_z
_atom_site_U_iso_or_equiv
_atom_site_adp_type
_atom_site_occupancy
_atom_site_site_symmetry_order
_atom_site_calc_flag
_atom_site_refinement_flags_posn
_atom_site_refinement_flags_adp
_atom_site_refinement_flags_occupancy
_atom_site_disorder_assembly
_atom_site_disorder_group
Cu1 Cu 0.15198(6) 0.57476(5) 0.10260(3) 0.02032(13) Uani 1 1 d . . . . .
Cu2 Cu 0.02683(7) 0.18094(5) 0.07426(3) 0.02306(13) Uani 1 1 d . . . . .
O1 O -0.0739(3) 0.3901(2) 0.05477(17) 0.0202(4) Uani 1 1 d D . . . .
H1 H -0.156(4) 0.404(5) 0.102(3) 0.024 Uiso 1 1 d D U . . .
O1W O 0.3568(3) 0.7781(3) 0.1323(2) 0.0306(5) Uani 1 1 d D . . . .
H1WA H 0.306(6) 0.850(4) 0.108(3) 0.046 Uiso 1 1 d D U . . .
H1WB H 0.412(6) 0.812(5) 0.2011(17) 0.046 Uiso 1 1 d D U . . .
O2W O 0.3231(3) 0.3376(3) 0.0302(2) 0.0345(5) Uani 1 1 d D . . . .
H2WA H 0.356(5) 0.299(5) -0.0376(14) 0.041 Uiso 1 1 d D U . . .
H2WB H 0.411(4) 0.361(6) 0.086(2) 0.048(13) Uiso 1 1 d D . . . .
O2 O 0.0796(4) -0.0431(3) 0.08832(18) 0.0282(5) Uani 1 1 d D . . . .
H2 H -0.002(5) -0.070(6) 0.130(3) 0.042 Uiso 1 1 d D U . . .
O4 O 0.1055(4) 0.2832(3) 0.24614(18) 0.0306(5) Uani 1 1 d . . . . .
O3 O 0.2069(3) 0.5668(3) 0.26693(18) 0.0278(5) Uani 1 1 d . . . . .
O5 O 0.5146(4) 0.9239(3) 0.6645(2) 0.0484(7) Uani 1 1 d . . . . .
O6 O 0.3601(5) 0.8778(4) 0.8139(2) 0.0578(8) Uani 1 1 d . . . . .
O7 O 0.3584(3) 0.5373(3) 0.80788(19) 0.0331(5) Uani 1 1 d . . . . .
O8 O 0.1369(5) 0.2282(4) 0.7660(3) 0.0555(8) Uani 1 1 d . . . . .
O9 O 0.1668(7) 0.0584(4) 0.5916(3) 0.0715(11) Uani 1 1 d . . . . .
N1 N 0.4089(4) 0.8290(4) 0.7116(2) 0.0339(6) Uani 1 1 d . . . . .
N2 N 0.1724(5) 0.2029(4) 0.6605(3) 0.0358(6) Uani 1 1 d . . . . .
C1 C 0.1741(4) 0.4352(4) 0.3071(2) 0.0218(5) Uani 1 1 d . . . . .
C2 C 0.2213(4) 0.4639(4) 0.4393(2) 0.0210(5) Uani 1 1 d . . . . .
C3 C 0.2969(4) 0.6287(4) 0.5146(2) 0.0226(5) Uani 1 1 d . . . . .
H3 H 0.321508 0.722273 0.481975 0.027 Uiso 1 1 calc R U . . .
C4 C 0.3351(4) 0.6531(4) 0.6371(3) 0.0257(6) Uani 1 1 d . . . . .
C5 C 0.3076(4) 0.5171(4) 0.6964(3) 0.0243(6) Uani 1 1 d . . . . .
C6 C 0.2234(4) 0.3528(4) 0.6135(3) 0.0245(6) Uani 1 1 d . . . . .
C7 C 0.1846(4) 0.3259(4) 0.4901(3) 0.0231(6) Uani 1 1 d . . . . .
H7 H 0.133789 0.215340 0.441054 0.028 Uiso 1 1 calc R U . . .
loop_
_atom_site_aniso_label
_atom_site_aniso_U_11
_atom_site_aniso_U_22
_atom_site_aniso_U_33
_atom_site_aniso_U_23
_atom_site_aniso_U_13
_atom_site_aniso_U_12
Cu1 0.0268(2) 0.0184(2) 0.0140(2) 0.00530(15) -0.00347(15) -0.00223(15)
Cu2 0.0373(3) 0.0156(2) 0.0139(2) 0.00268(15) -0.00389(16) 0.00113(16)
O1 0.0267(10) 0.0171(8) 0.0155(9) 0.0036(7) 0.0010(7) 0.0003(7)
O1W 0.0362(12) 0.0269(10) 0.0243(11) 0.0073(9) -0.0063(9) -0.0080(9)
O2W 0.0283(11) 0.0464(14) 0.0240(11) 0.0030(10) 0.0009(9) 0.0038(10)
O2 0.0463(13) 0.0209(10) 0.0165(10) 0.0052(8) -0.0021(9) 0.0037(9)
O4 0.0537(14) 0.0196(9) 0.0156(9) 0.0034(8) -0.0061(9) 0.0014(9)
O3 0.0397(12) 0.0246(10) 0.0168(10) 0.0068(8) -0.0040(8) -0.0027(9)
O5 0.0605(17) 0.0373(13) 0.0350(14) 0.0012(11) 0.0006(12) -0.0163(12)
O6 0.085(2) 0.0465(15) 0.0261(13) -0.0080(11) 0.0106(13) -0.0116(15)
O7 0.0296(11) 0.0529(14) 0.0142(10) 0.0077(9) -0.0024(8) 0.0016(10)
O8 0.084(2) 0.0561(17) 0.0349(15) 0.0275(13) 0.0157(14) 0.0048(15)
O9 0.133(3) 0.0358(15) 0.0453(18) 0.0170(14) 0.0004(19) 0.0013(18)
N1 0.0398(15) 0.0317(14) 0.0208(13) -0.0010(11) -0.0060(11) -0.0073(12)
N2 0.0474(17) 0.0362(15) 0.0263(14) 0.0172(12) -0.0039(12) 0.0003(12)
C1 0.0269(14) 0.0244(13) 0.0141(12) 0.0055(10) -0.0002(10) 0.0039(11)
C2 0.0245(13) 0.0236(13) 0.0147(12) 0.0055(10) 0.0000(10) 0.0037(10)
C3 0.0238(13) 0.0261(13) 0.0167(13) 0.0053(11) 0.0004(10) 0.0011(10)
C4 0.0254(14) 0.0286(14) 0.0173(13) 0.0003(11) -0.0024(10) -0.0019(11)
C5 0.0203(13) 0.0360(15) 0.0150(13) 0.0058(11) -0.0010(10) 0.0024(11)
C6 0.0269(14) 0.0291(14) 0.0187(13) 0.0098(11) 0.0000(11) 0.0027(11)
C7 0.0272(14) 0.0243(13) 0.0169(13) 0.0054(10) -0.0019(10) 0.0030(11)
loop_
_atom_type_symbol
_atom_type_description
_atom_type_scat_dispersion_real
_atom_type_scat_dispersion_imag
_atom_type_scat_source
C C 0.0181 0.0091 'International Tables Vol C Tables 4.2.6.8 and 6.1.1.4'
H H 0.0000 0.0000 'International Tables Vol C Tables 4.2.6.8 and 6.1.1.4'
Cu Cu -1.9646 0.5888 'International Tables Vol C Tables 4.2.6.8 and 6.1.1.4'
N N 0.0311 0.0180 'International Tables Vol C Tables 4.2.6.8 and 6.1.1.4'
O O 0.0492 0.0322 'International Tables Vol C Tables 4.2.6.8 and 6.1.1.4'
loop_
_geom_angle_atom_site_label_1
_geom_angle_atom_site_label_2
_geom_angle_atom_site_label_3
_geom_angle
_geom_angle_site_symmetry_1
_geom_angle_site_symmetry_3
_geom_angle_publ_flag
O3 Cu1 O1 98.64(8) . . ?
O3 Cu1 O1W 89.45(9) . . ?
O1 Cu1 O1W 170.42(9) . . ?
O3 Cu1 O1 171.68(9) . 2_565 ?
O1 Cu1 O1 82.16(8) . 2_565 ?
O1W Cu1 O1 89.09(9) . 2_565 ?
O3 Cu1 O2W 90.50(9) . . ?
O1 Cu1 O2W 81.84(8) . . ?
O1W Cu1 O2W 103.34(9) . . ?
O1 Cu1 O2W 97.81(8) 2_565 . ?
O3 Cu1 Cu1 139.26(7) . 2_565 ?
O1 Cu1 Cu1 41.23(6) . 2_565 ?
O1W Cu1 Cu1 129.91(7) . 2_565 ?
O1 Cu1 Cu1 40.93(5) 2_565 2_565 ?
O2W Cu1 Cu1 89.80(6) . 2_565 ?
O2 Cu2 O4 90.10(9) . . ?
O2 Cu2 O2 82.33(9) . 2 ?
O4 Cu2 O2 169.19(9) . 2 ?
O2 Cu2 O1 170.25(9) . . ?
O4 Cu2 O1 93.56(9) . . ?
O2 Cu2 O1 92.75(8) 2 . ?
O2 Cu2 O2W 108.73(10) . . ?
O4 Cu2 O2W 88.92(9) . . ?
O2 Cu2 O2W 100.78(9) 2 . ?
O1 Cu2 O2W 80.40(8) . . ?
O2 Cu2 Cu2 41.31(6) . 2 ?
O4 Cu2 Cu2 130.96(7) . 2 ?
O2 Cu2 Cu2 41.01(6) 2 2 ?
O1 Cu2 Cu2 133.20(6) . 2 ?
O2W Cu2 Cu2 109.71(6) . 2 ?
Cu1 O1 Cu1 97.84(8) . 2_565 ?
Cu1 O1 Cu2 104.66(10) . . ?
Cu1 O1 Cu2 124.08(10) 2_565 . ?
Cu1 O2W Cu2 81.09(7) . . ?
Cu2 O2 Cu2 97.67(9) . 2 ?
C1 O4 Cu2 132.39(19) . . ?
C1 O3 Cu1 126.89(19) . . ?
O6 N1 O5 123.2(3) . . ?
O6 N1 C4 119.7(3) . . ?
O5 N1 C4 117.0(3) . . ?
O9 N2 O8 123.2(3) . . ?
O9 N2 C6 118.0(3) . . ?
O8 N2 C6 118.8(3) . . ?
O4 C1 O3 126.3(3) . . ?
O4 C1 C2 116.9(2) . . ?
O3 C1 C2 116.8(2) . . ?
C7 C2 C3 119.0(3) . . ?
C7 C2 C1 119.9(2) . . ?
C3 C2 C1 121.1(2) . . ?
C4 C3 C2 120.1(3) . . ?
C3 C4 C5 124.5(3) . . ?
C3 C4 N1 117.6(3) . . ?
C5 C4 N1 117.8(3) . . ?
O7 C5 C4 124.3(3) . . ?
O7 C5 C6 123.7(3) . . ?
C4 C5 C6 111.9(2) . . ?
C7 C6 C5 124.2(3) . . ?
C7 C6 N2 116.7(3) . . ?
C5 C6 N2 119.1(3) . . ?
C6 C7 C2 120.1(3) . . ?
loop_
_geom_bond_atom_site_label_1
_geom_bond_atom_site_label_2
_geom_bond_distance
_geom_bond_site_symmetry_2
_geom_bond_publ_flag
Cu1 O3 1.928(2) . ?
Cu1 O1 1.9531(19) . ?
Cu1 O1W 1.961(2) . ?
Cu1 O1 1.9649(19) 2_565 ?
Cu1 O2W 2.368(3) . ?
Cu1 Cu1 2.9534(8) 2_565 ?
Cu2 O2 1.938(2) . ?
Cu2 O4 1.944(2) . ?
Cu2 O2 1.950(2) 2 ?
Cu2 O1 1.971(2) . ?
Cu2 O2W 2.410(2) . ?
Cu2 Cu2 2.9268(8) 2 ?
O4 C1 1.254(4) . ?
O3 C1 1.266(3) . ?
O5 N1 1.236(4) . ?
O6 N1 1.217(4) . ?
O7 C5 1.273(3) . ?
O8 N2 1.219(4) . ?
O9 N2 1.216(5) . ?
N1 C4 1.457(4) . ?
N2 C6 1.461(4) . ?
C1 C2 1.488(4) . ?
C2 C7 1.392(4) . ?
C2 C3 1.395(4) . ?
C3 C4 1.375(4) . ?
C4 C5 1.437(4) . ?
C5 C6 1.438(4) . ?
C6 C7 1.383(4) . ?
loop_
_geom_hbond_atom_site_label_D
_geom_hbond_atom_site_label_H
_geom_hbond_atom_site_label_A
_geom_hbond_distance_DH
_geom_hbond_distance_HA
_geom_hbond_distance_DA
_geom_hbond_angle_DHA
_geom_hbond_site_symmetry_A
O1W H1WA O2 0.817(10) 1.92(2) 2.651(3) 149(4) 1_565
O1W H1WB O5 0.819(10) 2.25(3) 2.871(3) 133(3) 2_676
O2W H2WA O1W 0.816(10) 2.39(3) 3.050(3) 139(3) 2_665
O1 H1 O7 0.801(18) 1.82(2) 2.614(3) 168(4) 2_566
O2 H2 O8 0.806(19) 2.13(3) 2.878(3) 154(4) 2_556
loop_
_geom_torsion_atom_site_label_1
_geom_torsion_atom_site_label_2
_geom_torsion_atom_site_label_3
_geom_torsion_atom_site_label_4
_geom_torsion
_geom_torsion_site_symmetry_1
_geom_torsion_site_symmetry_2
_geom_torsion_site_symmetry_3
_geom_torsion_site_symmetry_4
_geom_torsion_publ_flag
Cu2 O4 C1 O3 1.3(5) . . . . ?
Cu2 O4 C1 C2 -178.8(2) . . . . ?
Cu1 O3 C1 O4 2.7(5) . . . . ?
Cu1 O3 C1 C2 -177.26(19) . . . . ?
O4 C1 C2 C7 -1.5(4) . . . . ?
O3 C1 C2 C7 178.4(3) . . . . ?
O4 C1 C2 C3 -179.5(3) . . . . ?
O3 C1 C2 C3 0.4(4) . . . . ?
C7 C2 C3 C4 0.4(4) . . . . ?
C1 C2 C3 C4 178.4(3) . . . . ?
C2 C3 C4 C5 1.8(5) . . . . ?
C2 C3 C4 N1 -178.4(3) . . . . ?
O6 N1 C4 C3 144.9(4) . . . . ?
O5 N1 C4 C3 -32.6(5) . . . . ?
O6 N1 C4 C5 -35.3(5) . . . . ?
O5 N1 C4 C5 147.2(3) . . . . ?
C3 C4 C5 O7 173.8(3) . . . . ?
N1 C4 C5 O7 -6.0(5) . . . . ?
C3 C4 C5 C6 -3.7(4) . . . . ?
N1 C4 C5 C6 176.5(3) . . . . ?
O7 C5 C6 C7 -173.7(3) . . . . ?
C4 C5 C6 C7 3.8(4) . . . . ?
O7 C5 C6 N2 6.9(5) . . . . ?
C4 C5 C6 N2 -175.6(3) . . . . ?
O9 N2 C6 C7 25.5(5) . . . . ?
O8 N2 C6 C7 -154.2(3) . . . . ?
O9 N2 C6 C5 -155.1(4) . . . . ?
O8 N2 C6 C5 25.2(5) . . . . ?
C5 C6 C7 C2 -2.1(5) . . . . ?
N2 C6 C7 C2 177.3(3) . . . . ?
C3 C2 C7 C6 -0.2(4) . . . . ?
C1 C2 C7 C6 -178.3(3) . . . . ?
