#------------------------------------------------------------------------------
#$Date: 2022-07-23 02:37:35 +0300 (Sat, 23 Jul 2022) $
#$Revision: 276823 $
#$URL: file:///home/coder/svn-repositories/cod/cif/7/24/51/7245186.cif $
#------------------------------------------------------------------------------
#
# This file is available in the Crystallography Open Database (COD),
# http://www.crystallography.net/
#
# All data on this site have been placed in the public domain by the
# contributors.
#
data_7245186
loop_
_publ_author_name
'Momenzadeh Abardeh, Zahrasadat'
'Salimi, Alireza'
'Oganov, Artem R.'
_publ_section_title
;
 Crystal structure prediction of N-halide phthalimide compounds: Halogen
 bond synthon as a touchstone
;
_journal_name_full               CrystEngComm
_journal_paper_doi               10.1039/D2CE00476C
_journal_year                    2022
_chemical_formula_sum            'C8 H4 Br N O2'
_chemical_formula_weight         226.03
_space_group_IT_number           19
_space_group_name_Hall           'P 2ac 2ab'
_space_group_name_H-M_alt        'P 21 21 21'
_symmetry_cell_setting           orthorhombic
_symmetry_space_group_name_Hall  'P 2ac 2ab'
_symmetry_space_group_name_H-M   'P 21 21 21'
_audit_creation_date             2010-05-11T23:58
_audit_creation_method           'from EXP file using GSAS2CIF'
_audit_update_record
;
2022-03-17 deposited with the CCDC.	2022-07-08 downloaded from the CCDC.
;
_cell_angle_alpha                90.0
_cell_angle_beta                 90.0
_cell_angle_gamma                90.0
_cell_formula_units_Z            4
_cell_length_a                   5.21734(27)
_cell_length_b                   6.66130(24)
_cell_length_c                   22.6335(9)
_cell_measurement_temperature    298
_cell_volume                     786.61(6)
_computing_data_collection       'WinXPOW (Stoe & Cie, 2010)'
_computing_data_reduction        'WinXPOW (Stoe & Cie, 2010)'
_computing_molecular_graphics    'ORTEP-3 (Farrugia, 1997)'
_computing_publication_material  'publCIF (Westrip, 2010)'
_computing_structure_refinement  'GSAS (Larson & Von Dreele, 2004)'
_computing_structure_solution    'DASH (David et al., 2006)'
_diffrn_ambient_temperature      298
_diffrn_measurement_device_type  'STOE STADI P'
_diffrn_radiation_polarisn_ratio 0.5
_diffrn_radiation_probe          x-ray
_diffrn_radiation_source         'Cu K\a'
_diffrn_radiation_type           'Cu K\a'
_diffrn_radiation_wavelength     1.5406
_exptl_absorpt_correction_T_max  1.00000
_exptl_absorpt_correction_T_min  1.00000
_exptl_absorpt_process_details
;   GSAS Absorption/surface roughness correction: function number 0
 No correction is applied.
;
_exptl_crystal_density_diffrn    1.909
_exptl_crystal_F_000             440.0
_pd_block_id
2010-05-11T23:58|KHE21-NEW-FINAL-ISOM|Alireza|Unknown
_pd_calc_method                  'Rietveld Refinement'
_pd_char_colour                  white
_pd_instr_location               ' ?'
_pd_meas_2theta_range_inc        0.02
_pd_meas_2theta_range_max        89.98
_pd_meas_2theta_range_min        1.0
_pd_meas_number_of_points        4450
_pd_phase_name                   KHE21-NEW-Final-isomorph
_pd_prep_temperature             298
_pd_proc_2theta_range_inc        0.02
_pd_proc_2theta_range_max        89.9846
_pd_proc_2theta_range_min        1.0046
_pd_proc_info_datetime           2010-05-11T23:58:44
_pd_proc_info_excluded_regions   ' ?'
_pd_proc_ls_background_function
;   GSAS Background function number 1 with 36 terms.
 Shifted Chebyshev function of 1st kind
      1:    44.2569     2:   -4.85238     3:    2.81225     4:   -12.1369    
      5:    14.1584     6:   -12.7523     7:    9.56375     8:   -7.55126    
      9:    5.94327    10:   -3.38609    11:    4.04656    12:   -3.07384    
     13:    1.64632    14:   -1.56262    15:    1.98656    16:   -1.66873    
     17:   0.938107    18:   -1.25806    19:    1.00278    20:  -0.437361    
     21:   0.442418    22:  -9.492160E-0223:  -0.530657    24:   0.140703    
     25:  -0.129708    26:   0.196593    27:  -0.631060    28:  -0.142624    
     29:   0.358422    30:   0.563163    31:  -0.380211    32:  -0.414316    
     33:   0.272250    34:    1.76263    35:   -1.69509    36:  -0.192452    
;
_pd_proc_ls_peak_cutoff          0.00100
_pd_proc_ls_pref_orient_corr
;   Spherical Harmonic ODF
 Spherical harmonic order=  8
 The sample symmetry is: cylindrical (fiber texture)
 Index =  2  0  0   Coeff=    0.3638
 Index =  2  0  2   Coeff=   -0.4321
 Index =  4  0  0   Coeff=   -0.1694
 Index =  4  0  2   Coeff=    0.0806
 Index =  4  0  4   Coeff=    0.0867
 Index =  6  0  0   Coeff=   -0.1742
 Index =  6  0  2   Coeff=   -0.3094
 Index =  6  0  4   Coeff=   -0.1992
 Index =  6  0  6   Coeff=   -0.2140
 Index =  8  0  0   Coeff=   -0.0060
 Index =  8  0  2   Coeff=   -0.0561
 Index =  8  0  4   Coeff=    0.0346
 Index =  8  0  6   Coeff=    0.0073
 Index =  8  0  8   Coeff=    0.0788
 Prefered orientation correction range: Min=   0.34946, Max=   1.71839
;
_pd_proc_ls_profile_function
;
 CW Profile function number 2 with  18 terms
 Profile coefficients for Simpson's rule integration of pseudovoigt function
 C.J. Howard (1982). J. Appl. Cryst.,15,615-620.
 P. Thompson, D.E. Cox & J.B. Hastings (1987). J. Appl. Cryst.,20,79-83.
 #1(GU)   =  422.197 #2(GV)   =   51.071 #3(GW)   =   25.565
 #4(LX)   =    7.550 #5(LY)   =    9.229 #6(trns) =   24.746
 #7(asym) =   3.5648 #8(shft) =   0.7894 #9(GP)   =    0.000
 #10(stec)=     0.00 #11(ptec)=     0.00 #12(sfec)=     0.00
 #13(L11) =    0.000 #14(L22) =    0.000 #15(L33) =    0.000
 #16(L12) =    0.000 #17(L13) =    0.000 #18(L23) =    0.000
 Peak tails are ignored  where the intensity is below 0.0010 times the peak
   Aniso. broadening axis   0.0   0.0   1.0
;
_pd_proc_ls_prof_R_factor        0.0790
_pd_proc_ls_prof_wR_expected     0.1077
_pd_proc_ls_prof_wR_factor       0.1012
_pd_proc_number_of_points        4450
_pd_spec_mounting                ' ?'
_refine_ls_goodness_of_fit_all   0.98
_refine_ls_hydrogen_treatment    constr
_refine_ls_matrix_type           full
_refine_ls_number_parameters     49
_refine_ls_number_restraints     53
_refine_ls_R_Fsqd_factor         0.08395
_refine_ls_shift/su_max          0.03
_refine_ls_shift/su_mean         0.00
_reflns_d_resolution_high        1.088
_reflns_d_resolution_low         11.317
_reflns_limit_h_max              4
_reflns_limit_h_min              0
_reflns_limit_k_max              6
_reflns_limit_k_min              0
_reflns_limit_l_max              21
_reflns_limit_l_min              0
_reflns_number_total             411
_cod_data_source_file            d2ce00476c2.cif
_cod_data_source_block           KHE21-NEW-FINAL-ISOM_publ
_cod_depositor_comments
;
The following automatic conversions were performed:

data item '_geom_angle_publ_flag' value 'N' was changed to 'n' in
accordance with the
/home/data/users/saulius/crontab/automatic-downloads/rss-feeds/RSC/lib/dictionaries/cif_core.dic
dictionary named 'cif_core.dic' version 2.4.2 last updated on
2011-04-26 (27 times).

data item '_geom_bond_publ_flag' value 'N' was changed to 'n' in
accordance with the
/home/data/users/saulius/crontab/automatic-downloads/rss-feeds/RSC/lib/dictionaries/cif_core.dic
dictionary named 'cif_core.dic' version 2.4.2 last updated on
2011-04-26 (40 times).

Automatic conversion script
Id: cif_fix_values 7556 2019-12-06 15:28:31Z antanas 
;
_cod_database_code               7245186
_gsas_exptl_extinct_corr_t_min   1.00000
_gsas_exptl_extinct_corr_t_max   1.00000
loop_
_symmetry_equiv_pos_site_id
_symmetry_equiv_pos_as_xyz
1 +x,+y,+z
2 +x+1/2,-y+1/2,-z
3 -x,+y+1/2,-z+1/2
4 -x+1/2,-y,+z+1/2
loop_
_atom_site_type_symbol
_atom_site_label
_atom_site_fract_x
_atom_site_fract_y
_atom_site_fract_z
_atom_site_occupancy
_atom_site_thermal_displace_type
_atom_site_U_iso_or_equiv
_atom_site_symmetry_multiplicity
C C7 0.37456 0.94816 0.59665 1.0 Uiso 0.0426(4) 4
C C2 0.37596 1.10769 0.63528 1.0 Uiso 0.0426(4) 4
C C6 0.20729 0.93924 0.54998 1.0 Uiso 0.0426(4) 4
C C8 0.57496 0.80275 0.61512 1.0 Uiso 0.0426(4) 4
C C3 0.21015 1.26601 0.62911 1.0 Uiso 0.0426(4) 4
C C1 0.57731 1.07289 0.68054 1.0 Uiso 0.0426(4) 4
C C5 0.03884 1.09825 0.54328 1.0 Uiso 0.0426(4) 4
H H6 0.20773 0.81454 0.52019 1.0 Uiso 0.076 4
O O2 0.64747 0.65667 0.59066 1.0 Uiso 0.0468(4) 4
N N1 0.68523 0.88914 0.66518 1.0 Uiso 0.0465(4) 4
C C4 0.04025 1.25876 0.58214 1.0 Uiso 0.0426(4) 4
H H3 0.21276 1.38935 0.65938 1.0 Uiso 0.076 4
O O1 0.64469 1.17834 0.71954 1.0 Uiso 0.0468(4) 4
H H5 -0.0951 1.09742 0.50742 1.0 Uiso 0.076 4
Br Br1 0.94048 0.77093 0.70799 1.0 Uiso 0.0404(4) 4
H H4 -0.09263 1.37928 0.57567 1.0 Uiso 0.076 4
loop_
_atom_type_symbol
_atom_type_number_in_cell
_atom_type_scat_dispersion_real
_atom_type_scat_dispersion_imag
_atom_type_scat_Cromer_Mann_a1
_atom_type_scat_Cromer_Mann_a2
_atom_type_scat_Cromer_Mann_a3
_atom_type_scat_Cromer_Mann_a4
_atom_type_scat_Cromer_Mann_b1
_atom_type_scat_Cromer_Mann_b2
_atom_type_scat_Cromer_Mann_b3
_atom_type_scat_Cromer_Mann_b4
_atom_type_scat_Cromer_Mann_c
_atom_type_scat_source
C 32.0 0.000 0.000 2.31000 20.8439 1.02000 10.2075 1.58860 0.56870 0.86500
51.6512 0.21560 International_Tables_Vol_C
H 16.0 0.000 0.000 0.49300 10.5109 0.32291 26.1257 0.14019 3.14236 0.04081
57.7997 0.00304 International_Tables_Vol_C
O 8.0 0.000 0.000 3.04850 13.2771 2.28680 5.70110 1.54630 0.32390 0.86700
32.9089 0.25080 International_Tables_Vol_C
N 4.0 0.000 0.000 12.2126 0.00570 3.13220 9.89330 2.01250 28.9975 1.16630
0.58260 -11.529 International_Tables_Vol_C
Br 4.0 0.000 0.000 17.1789 2.17230 5.23580 16.5796 5.63770 0.26090 3.98510
41.4328 2.95570 International_Tables_Vol_C
loop_
_geom_angle_atom_site_label_1
_geom_angle_atom_site_label_2
_geom_angle_atom_site_label_3
_geom_angle
_geom_angle_site_symmetry_1
_geom_angle_site_symmetry_2
_geom_angle_site_symmetry_3
_geom_angle_publ_flag
C2 C7 C6 121.7475(15) 1_555 . 1_555 n
C2 C7 C8 108.7251(20) 1_555 . 1_555 n
C6 C7 C8 129.5274(15) 1_555 . 1_555 n
C7 C2 C3 121.7275(18) 1_555 . 1_555 n
C7 C2 C1 108.7465(18) 1_555 . 1_555 n
C3 C2 C1 129.5260(14) 1_555 . 1_555 n
C7 C6 C5 117.0707(17) 1_555 . 1_555 n
C7 C6 H6 121.1759(15) 1_555 . 1_555 n
C5 C6 H6 121.7535(18) 1_555 . 1_555 n
C7 C8 O2 129.0874(17) 1_555 . 1_555 n
C7 C8 N1 104.4721(21) 1_555 . 1_555 n
O2 C8 N1 126.0253(18) 1_555 . 1_555 n
C2 C3 C4 117.0745(17) 1_555 . 1_555 n
C2 C3 H3 121.1588(18) 1_555 . 1_555 n
C4 C3 H3 121.7666(15) 1_555 . 1_555 n
C2 C1 N1 104.5462(17) 1_555 . 1_555 n
C2 C1 O1 129.2555(16) 1_555 . 1_555 n
N1 C1 O1 126.1004(18) 1_555 . 1_555 n
C6 C5 C4 121.1851(18) 1_555 . 1_555 n
C6 C5 H5 119.5487(16) 1_555 . 1_555 n
C4 C5 H5 119.2662(16) 1_555 . 1_555 n
C8 N1 C1 113.5101(18) 1_555 . 1_555 n
C8 N1 Br1 123.6481(18) 1_555 . 1_555 n
C1 N1 Br1 122.8214(15) 1_555 . 1_555 n
C3 C4 C5 121.1947(15) 1_555 . 1_555 n
C3 C4 H4 119.5513(17) 1_555 . 1_555 n
C5 C4 H4 119.2540(19) 1_555 . 1_555 n
loop_
_geom_bond_atom_site_label_1
_geom_bond_atom_site_label_2
_geom_bond_distance
_geom_bond_site_symmetry_1
_geom_bond_site_symmetry_2
_geom_bond_publ_flag
C7 C2 1.37615(4) . 1_555 n
C7 C6 1.37147(4) . 1_555 n
C7 C8 1.48532(5) . 1_555 n
C2 C7 1.37615(4) . 1_555 n
C2 C3 1.37117(4) . 1_555 n
C2 C1 1.48549(5) . 1_555 n
C6 C7 1.37147(4) . 1_555 n
C6 C5 1.38468(4) . 1_555 n
C6 H6 1.069870(30) . 1_555 n
C8 C7 1.48532(5) . 1_555 n
C8 O2 1.181750(30) . 1_555 n
C8 N1 1.39497(4) . 1_555 n
C8 Br1 2.84611(9) . 1_555 n
C3 C2 1.37117(4) . 1_555 n
C3 C4 1.38501(4) . 1_555 n
C3 H3 1.069860(30) . 1_555 n
C1 C2 1.48549(5) . 1_555 n
C1 N1 1.39146(4) . 1_555 n
C1 O1 1.181620(30) . 1_555 n
C1 Br1 2.83233(8) . 1_555 n
C5 C6 1.38468(4) . 1_555 n
C5 C4 1.38450(4) . 1_555 n
C5 H5 1.071040(30) . 1_555 n
H6 C6 1.069870(30) . 1_555 n
O2 C8 1.181750(30) . 1_555 n
N1 C8 1.39497(4) . 1_555 n
N1 C1 1.39146(4) . 1_555 n
N1 Br1 1.82548(6) . 1_555 n
C4 C3 1.38501(4) . 1_555 n
C4 C5 1.38450(4) . 1_555 n
C4 H4 1.070790(30) . 1_555 n
H3 C3 1.069860(30) . 1_555 n
O1 C1 1.181620(30) . 1_555 n
O1 Br1 2.78473(10) . 3_756 n
H5 C5 1.071040(30) . 1_555 n
Br1 C8 2.84611(9) . 1_555 n
Br1 C1 2.83233(8) . 1_555 n
Br1 N1 1.82548(6) . 1_555 n
Br1 O1 2.78473(10) . 3_746 n
H4 C4 1.070790(30) . 1_555 n
loop_
_geom_hbond_atom_site_label_D
_geom_hbond_atom_site_label_H
_geom_hbond_atom_site_label_A
_geom_hbond_distance_DH
_geom_hbond_distance_HA
_geom_hbond_distance_DA
_geom_hbond_angle_DHA
_geom_hbond_site_symmetry_A
_geom_hbond_publ_flag
C4 H4 O2 1.07 2.317 3.3559 163 1_465 yes
C6 H6 O2 1.07 2.536 3.2616 124 2_466 yes
loop_
_pd_meas_intensity_total
_pd_proc_ls_weight
_pd_proc_intensity_bkg_calc
_pd_calc_intensity_total
138(12) 0.00723 130.9 130.9
138(12) 0.00723 130.3 130.3
131(11) 0.00763 129.5 129.5
127(11) 0.00786 128.6 128.6
132(12) 0.00755 127.4 127.4
123(11) 0.00813 126.1 126.1
121(11) 0.00826 124.7 124.7
130(11) 0.00772 123.2 123.2
123(11) 0.00815 121.5 121.5
120(11) 0.00834 119.8 119.8
115(11) 0.00867 118.0 118.0
116(11) 0.00865 116.2 116.2
116(11) 0.00861 114.4 114.4
110(10) 0.00912 112.5 112.5
106(10) 0.00944 110.5 110.5
103(10) 0.00971 108.6 108.6
101(10) 0.00994 106.7 106.7
101(10) 0.00994 104.8 104.8
101(10) 0.00992 102.8 102.8
98(10) 0.01020 100.9 100.9
95(10) 0.01056 99.1 99.1
91(10) 0.01103 97.2 97.2
94(10) 0.01063 95.4 95.4
92(10) 0.01087 93.6 93.6
94(10) 0.01069 91.8 91.8
87(9) 0.01146 90.1 90.1
88(9) 0.01141 88.5 88.5
86(9) 0.01164 86.8 86.8
82(9) 0.01216 85.2 85.2
85(9) 0.01171 83.7 83.7
81(9) 0.01237 82.2 82.2
78(9) 0.01277 80.8 80.8
83(9) 0.01208 79.4 79.4
75(9) 0.01327 78.0 78.0
83(9) 0.01210 76.7 76.7
73(9) 0.01365 75.5 75.5
73(9) 0.01362 74.3 74.3
75(9) 0.01327 73.1 73.1
71(8) 0.01404 72.0 72.0
77(9) 0.01294 70.9 70.9
68(8) 0.01480 69.9 69.9
77(9) 0.01300 68.9 68.9
69(8) 0.01459 67.9 67.9
67(8) 0.01491 67.0 67.0
73(9) 0.01378 66.2 66.2
69(8) 0.01441 65.3 65.3
65(8) 0.01547 64.5 64.5
65(8) 0.01536 63.8 63.8
65(8) 0.01543 63.0 63.0
66(8) 0.01509 62.4 62.4
64(8) 0.01555 61.7 61.7
61(8) 0.01652 61.1 61.1
65(8) 0.01543 60.4 60.4
67(8) 0.01498 59.9 59.9
61(8) 0.01627 59.3 59.3
59(8) 0.01691 58.8 58.8
61(8) 0.01648 58.3 58.3
63(8) 0.01590 57.8 57.8
56(7) 0.01787 57.3 57.3
62(8) 0.01606 56.9 56.9
55(7) 0.01807 56.4 56.4
60(8) 0.01665 56.0 56.0
58(8) 0.01722 55.6 55.6
56(7) 0.01792 55.2 55.2
55(7) 0.01807 54.9 54.9
52(7) 0.01929 54.5 54.5
56(7) 0.01792 54.1 54.1
57(8) 0.01750 53.8 53.8
55(7) 0.01816 53.5 53.5
52(7) 0.01940 53.1 53.1
51(7) 0.01978 52.8 52.8
54(7) 0.01871 52.5 52.5
52(7) 0.01940 52.2 52.2
49(7) 0.02023 51.9 51.9
51(7) 0.01973 51.6 51.6
55(7) 0.01816 51.3 51.3
48(7) 0.02076 51.0 51.0
47(7) 0.02113 50.7 50.7
54(7) 0.01861 50.4 50.4
49(7) 0.02047 50.1 50.1
46(7) 0.02163 49.8 49.8
52(7) 0.01913 49.6 49.6
45(7) 0.02201 49.3 49.3
43(7) 0.02310 49.0 49.0
45(7) 0.02208 48.7 48.7
45(7) 0.02228 48.4 48.4
51(7) 0.01945 48.1 48.1
47(7) 0.02113 47.8 47.8
44(7) 0.02289 47.6 47.6
45(7) 0.02201 47.3 47.3
45(7) 0.02208 47.0 47.0
47(7) 0.02144 46.7 46.7
46(7) 0.02163 46.4 46.4
44(7) 0.02282 46.1 46.1
43(7) 0.02303 45.8 45.8
46(7) 0.02156 45.5 45.5
45(7) 0.02228 45.2 45.2
43(7) 0.02352 44.9 44.9
40(6) 0.02512 44.6 44.6
39(6) 0.02536 44.3 44.3
45(7) 0.02248 44.0 44.0
43(7) 0.02303 43.7 43.7
39(6) 0.02568 43.4 43.4
41(6) 0.02426 43.1 43.1
41(6) 0.02419 42.8 42.8
42(7) 0.02367 42.5 42.5
40(6) 0.02480 42.2 42.2
40(6) 0.02512 41.9 41.9
39(6) 0.02560 41.6 41.6
35(6) 0.02825 41.3 41.3
43(7) 0.02303 41.0 41.0
41(6) 0.02434 40.7 40.7
36(6) 0.02806 40.4 40.4
41(6) 0.02472 40.1 40.1
35(6) 0.02902 39.8 39.8
39(6) 0.02568 39.5 39.5
43(7) 0.02338 39.2 39.2
38(6) 0.02635 38.9 38.9
37(6) 0.02705 38.6 38.6
35(6) 0.02883 38.3 38.3
37(6) 0.02732 38.0 38.0
37(6) 0.02670 37.7 37.7
37(6) 0.02687 37.4 37.4
38(6) 0.02610 37.1 37.1
41(6) 0.02419 36.9 36.9
35(6) 0.02873 36.6 36.6
35(6) 0.02863 36.3 36.3
38(6) 0.02661 36.0 36.0
35(6) 0.02873 35.8 35.8
36(6) 0.02787 35.5 35.5
37(6) 0.02714 35.3 35.3
38(6) 0.02610 35.0 35.0
39(6) 0.02544 34.8 34.8
37(6) 0.02741 34.5 34.5
35(6) 0.02834 34.3 34.3
37(6) 0.02705 34.0 34.0
42(6) 0.02411 33.8 33.8
41(6) 0.02472 33.6 33.6
42(6) 0.02389 33.3 33.3
39(6) 0.02601 33.1 33.1
37(6) 0.02741 32.9 32.9
36(6) 0.02806 32.7 32.7
38(6) 0.02610 32.5 32.5
36(6) 0.02815 32.3 32.3
33(6) 0.03004 32.1 32.1
32(6) 0.03111 31.9 31.9
35(6) 0.02883 31.7 31.7
37(6) 0.02723 31.5 31.5
35(6) 0.02825 31.4 31.4
33(6) 0.03067 31.2 31.2
31(6) 0.03200 31.0 31.0
32(6) 0.03155 30.9 30.9
28(5) 0.0361 30.7 30.7
32(6) 0.03144 30.6 30.6
31(6) 0.03223 30.4 30.4
31(6) 0.03258 30.3 30.3
27(5) 0.0368 30.2 30.2
34(6) 0.02962 30.0 30.0
30(5) 0.03354 29.9 29.9
33(6) 0.03056 29.8 29.8
29(5) 0.03429 29.7 29.7
30(5) 0.03392 29.5 29.5
29(5) 0.03455 29.4 29.4
30(6) 0.03294 29.3 29.3
29(5) 0.03494 29.2 29.2
31(6) 0.03270 29.1 29.1
26(5) 0.0383 29.0 29.0
30(5) 0.03379 28.9 28.9
30(5) 0.03392 28.9 28.9
33(6) 0.03078 28.8 28.8
28(5) 0.0360 28.7 28.7
28(5) 0.0352 28.6 28.6
28(5) 0.0356 28.6 28.6
29(5) 0.03481 28.5 28.5
28(5) 0.0355 28.4 28.4
29(5) 0.03429 28.4 28.4
29(5) 0.03442 28.3 28.3
29(5) 0.03442 28.2 28.2
28(5) 0.0359 28.2 28.2
28(5) 0.0359 28.1 28.1
26(5) 0.0392 28.1 28.1
25(5) 0.0403 28.0 28.0
29(5) 0.03442 28.0 28.0
28(5) 0.0357 27.9 27.9
27(5) 0.0377 27.9 27.9
28(5) 0.0363 27.8 27.8
28(5) 0.0355 27.8 27.8
27(5) 0.0374 27.8 27.8
28(5) 0.0359 27.7 27.7
26(5) 0.0381 27.7 27.7
26(5) 0.0388 27.6 27.6
26(5) 0.0383 27.6 27.6
27(5) 0.0373 27.6 27.6
27(5) 0.0367 27.5 27.5
26(5) 0.0380 27.5 27.5
28(5) 0.0352 27.5 27.5
30(5) 0.03354 27.4 27.4
29(5) 0.03442 27.4 27.4
27(5) 0.0367 27.4 27.4
29(5) 0.03429 27.3 27.3
29(5) 0.03507 27.3 27.3
27(5) 0.0367 27.2 27.2
27(5) 0.0374 27.2 27.2
29(5) 0.03417 27.2 27.2
30(5) 0.03392 27.1 27.1
29(5) 0.03481 27.1 27.1
24(5) 0.0410 27.0 27.0
27(5) 0.0368 27.0 27.0
25(5) 0.0405 27.0 27.0
25(5) 0.0403 26.9 26.9
26(5) 0.0379 26.9 26.9
27(5) 0.0370 26.8 26.8
28(5) 0.0355 26.8 26.8
24(5) 0.0422 26.7 26.7
24(5) 0.0416 26.7 26.7
26(5) 0.0384 26.6 26.6
24(5) 0.0422 26.6 26.6
24(5) 0.0411 26.5 26.5
23(5) 0.0443 26.4 26.4
23(5) 0.0445 26.4 26.4
25(5) 0.0397 26.3 26.3
24(5) 0.0413 26.2 26.2
28(5) 0.0361 26.2 26.2
24(5) 0.0413 26.1 26.1
23(5) 0.0440 26.0 26.0
24(5) 0.0410 26.0 26.0
23(5) 0.0432 25.9 25.9
25(5) 0.0394 25.8 25.8
26(5) 0.0391 25.7 25.7
25(5) 0.0403 25.6 25.6
21(5) 0.0466 25.6 25.6
26(5) 0.0388 25.5 25.5
24(5) 0.0418 25.4 25.4
24(5) 0.0423 25.3 25.3
26(5) 0.0386 25.2 25.2
23(5) 0.0441 25.1 25.1
25(5) 0.0394 25.0 25.0
26(5) 0.0379 24.9 24.9
24(5) 0.0422 24.8 24.8
25(5) 0.0397 24.7 24.7
23(5) 0.0441 24.6 24.6
25(5) 0.0395 24.5 24.5
24(5) 0.0411 24.4 24.4
23(5) 0.0436 24.2 24.2
22(5) 0.0449 24.1 24.1
23(5) 0.0443 24.0 24.0
27(5) 0.0371 23.9 23.9
23(5) 0.0427 23.8 23.8
24(5) 0.0411 23.6 23.6
19(4) 0.0517 23.5 23.5
22(5) 0.0451 23.4 23.4
24(5) 0.0411 23.3 23.3
25(5) 0.0394 23.1 23.1
25(5) 0.0395 23.0 23.0
23(5) 0.0440 22.9 22.9
24(5) 0.0413 22.7 22.7
24(5) 0.0420 22.6 22.6
24(5) 0.0418 22.5 22.5
22(5) 0.0449 22.3 22.3
23(5) 0.0434 22.2 22.2
22(5) 0.0455 22.0 22.0
22(5) 0.0451 21.9 21.9
21(5) 0.0483 21.7 21.7
23(5) 0.0445 21.6 21.6
29(5) 0.03481 21.5 21.5
24(5) 0.0411 21.3 21.3
20(4) 0.0505 21.2 21.2
23(5) 0.0432 21.0 21.0
23(5) 0.0436 20.9 20.9
24(5) 0.0413 20.7 20.7
23(5) 0.0429 20.6 20.6
26(5) 0.0391 20.4 20.4
22(5) 0.0459 20.3 20.3
23(5) 0.0436 20.1 20.1
21(5) 0.0477 20.0 20.0
23(5) 0.0440 19.8 19.8
26(5) 0.0389 19.7 19.7
23(5) 0.0430 19.6 19.6
22(5) 0.0449 19.4 19.4
25(5) 0.0402 19.3 27.1
23(5) 0.0434 19.1 27.3
25(5) 0.0402 19.0 27.4
22(5) 0.0451 18.8 27.6
22(5) 0.0447 18.7 27.8
25(5) 0.0403 18.5 28.1
23(5) 0.0429 18.4 28.3
25(5) 0.0402 18.3 28.6
26(5) 0.0388 18.1 28.9
28(5) 0.0364 18.0 29.3
27(5) 0.0373 17.8 29.7
23(5) 0.0441 17.7 30.1
29(5) 0.03507 17.6 30.5
25(5) 0.0394 17.4 31.0
28(5) 0.0357 17.3 31.6
30(5) 0.03367 17.2 32.2
29(5) 0.03507 17.1 32.9
30(5) 0.03342 16.9 33.6
33(6) 0.03004 16.8 34.5
37(6) 0.02670 16.7 35.4
37(6) 0.02705 16.6 36.4
41(6) 0.02449 16.5 37.5
38(6) 0.02601 16.3 38.7
42(6) 0.02411 16.2 40.1
46(7) 0.02169 16.1 41.6
48(7) 0.02100 16.0 43.3
50(7) 0.02018 15.9 45.2
57(8) 0.01754 15.8 47.3
63(8) 0.01598 15.7 49.8
63(8) 0.01598 15.6 52.5
74(9) 0.01343 15.5 55.6
86(9) 0.01169 15.4 59.2
90(9) 0.01115 15.3 63.4
108(10) 0.00923 15.2 68.3
122(11) 0.00819 15.1 74.2
140(12) 0.00712 15.1 81.5
151(12) 0.00664 15.0 90.9
180(13) 0.00555 14.9 103.2
197(14) 0.00509 14.8 119.9
227(15) 0.00440 14.8 142.7
265(16) 0.00377 14.7 174.1
301(17) 0.003326 14.6 216.7
331(18) 0.003019 14.6 273.4
392(20) 0.002553 14.5 347.0
430(21) 0.002325 14.5 438.7
504(22) 0.001986 14.4 547.9
561(24) 0.001785 14.4 672.2
645(25) 0.001550 14.3 808.5
752(27) 0.001330 14.3 953.2
887(30) 0.001128 14.2 1099.7
1026(32) 0.000950 14.2 1238.2
1228(39) 0.000664 14. 1364.
1444(46) 0.000480 14. 1481.
1706(54) 0.0003438 14. 1595.
1901(60) 0.0002768 14. 1700.
2065(65) 0.0002345 14. 1786.
2135(68) 0.0002194 14. 1833.
2135(68) 0.0002193 14. 1821.
2029(64) 0.0002430 14. 1738.
1821(58) 0.0003016 14. 1583.
1590(50) 0.000395 14. 1372.
1326(42) 0.000569 14. 1134.
1037(33) 0.000930 14.0 901.5
750(27) 0.001334 14.0 695.5
513(23) 0.001951 14.0 525.8
352(19) 0.002841 14.0 394.1
222(15) 0.00450 14.0 296.8
157(13) 0.00637 14.1 227.9
126(11) 0.00792 14.1 180.2
105(10) 0.00957 14.1 147.5
97(10) 0.01027 14.1 124.8
86(9) 0.01169 14.2 108.6
81(9) 0.01235 14.2 96.4
77(9) 0.01303 14.2 86.9
75(9) 0.01340 14.3 79.2
76(9) 0.01324 14.3 72.7
74(9) 0.01358 14.3 67.3
70(8) 0.01424 14.4 62.5
69(8) 0.01459 14.4 58.5
66(8) 0.01520 14.5 54.9
65(8) 0.01547 14.5 51.7
57(8) 0.01759 14.6 49.0
51(7) 0.01978 14.7 46.5
46(7) 0.02188 14.7 44.3
42(6) 0.02411 14.8 42.4
38(6) 0.02635 14.8 40.6
35(6) 0.02902 14.9 39.0
32(6) 0.03122 15.0 37.6
30(5) 0.03392 15.1 36.3
24(5) 0.0423 15.1 35.2
24(5) 0.0415 15.2 34.1
24(5) 0.0425 15.3 33.1
26(5) 0.0380 15.4 32.3
25(5) 0.0400 15.4 31.5
24(5) 0.0415 15.5 30.7
26(5) 0.0379 15.6 30.1
25(5) 0.0405 15.7 29.5
24(5) 0.0416 15.8 28.9
23(5) 0.0430 15.9 28.4
24(5) 0.0418 16.0 27.9
24(5) 0.0415 16.1 27.5
24(5) 0.0420 16.2 27.1
24(5) 0.0425 16.3 26.7
25(5) 0.0397 16.4 26.4
24(5) 0.0416 16.5 26.1
26(5) 0.0381 16.6 25.8
23(5) 0.0434 16.7 25.5
27(5) 0.0376 16.8 25.3
29(5) 0.03455 16.9 25.1
25(5) 0.0398 17.0 24.9
25(5) 0.0402 17.1 24.7
26(5) 0.0384 17.2 24.6
24(5) 0.0418 17.3 24.4
23(5) 0.0432 17.4 24.3
22(5) 0.0462 17.5 17.5
24(5) 0.0420 17.6 17.6
23(5) 0.0441 17.7 17.7
21(5) 0.0466 17.9 17.9
24(5) 0.0413 18.0 18.0
22(5) 0.0451 18.1 18.1
20(4) 0.0510 18.2 18.2
25(5) 0.0405 18.3 18.3
23(5) 0.0445 18.4 18.4
20(4) 0.0512 18.5 18.5
21(5) 0.0481 18.6 18.6
22(5) 0.0464 18.7 18.7
22(5) 0.0462 18.9 18.9
24(5) 0.0415 19.0 19.0
22(5) 0.0453 19.1 19.1
21(5) 0.0473 19.2 19.2
22(5) 0.0462 19.3 19.3
22(5) 0.0451 19.4 19.4
22(5) 0.0459 19.5 19.5
22(5) 0.0460 19.6 19.6
21(5) 0.0479 19.8 19.8
21(5) 0.0475 19.9 19.9
22(5) 0.0462 20.0 20.0
22(5) 0.0449 20.1 20.1
21(5) 0.0475 20.2 20.2
23(5) 0.0430 20.3 20.3
20(5) 0.0489 20.4 20.4
23(5) 0.0445 20.5 20.5
20(5) 0.0489 20.6 20.6
23(5) 0.0436 20.7 20.7
21(5) 0.0469 20.8 20.8
22(5) 0.0447 20.9 20.9
22(5) 0.0462 21.0 21.0
19(4) 0.0524 21.1 21.1
24(5) 0.0420 21.2 21.2
23(5) 0.0445 21.3 21.3
22(5) 0.0451 21.4 21.4
22(5) 0.0459 21.5 21.5
22(5) 0.0460 21.6 21.6
19(4) 0.0528 21.7 21.7
21(5) 0.0469 21.8 21.8
22(5) 0.0457 21.9 21.9
21(5) 0.0466 21.9 21.9
22(5) 0.0462 22.0 22.0
20(4) 0.0512 22.1 22.1
22(5) 0.0451 22.2 22.2
22(5) 0.0457 22.3 22.3
22(5) 0.0459 22.4 22.4
23(5) 0.0434 22.4 22.4
23(5) 0.0432 22.5 22.5
23(5) 0.0445 22.6 22.6
23(5) 0.0440 22.7 22.7
22(5) 0.0453 22.7 22.7
20(4) 0.0500 22.8 22.8
25(5) 0.0402 22.9 22.9
22(5) 0.0459 22.9 22.9
22(5) 0.0449 23.0 23.0
22(5) 0.0464 23.1 23.1
22(5) 0.0453 23.1 23.1
25(5) 0.0406 23.2 23.2
26(5) 0.0391 23.2 23.2
20(4) 0.0496 23.3 23.3
25(5) 0.0408 23.3 23.3
25(5) 0.0405 23.4 23.4
24(5) 0.0413 23.4 23.4
24(5) 0.0422 23.5 23.5
23(5) 0.0427 23.5 23.5
24(5) 0.0411 23.6 23.6
22(5) 0.0449 23.6 23.6
22(5) 0.0453 23.7 23.7
21(5) 0.0475 23.7 23.7
25(5) 0.0403 23.7 23.7
27(5) 0.0368 23.8 23.8
25(5) 0.0398 23.8 23.8
23(5) 0.0430 23.8 23.8
25(5) 0.0403 23.9 23.9
24(5) 0.0418 23.9 23.9
21(5) 0.0481 23.9 23.9
26(5) 0.0391 24.0 24.0
23(5) 0.0443 24.0 24.0
21(5) 0.0473 24.0 24.0
24(5) 0.0418 24.0 24.0
24(5) 0.0423 24.0 24.0
24(5) 0.0410 24.1 24.1
22(5) 0.0457 24.1 24.1
24(5) 0.0418 24.1 24.1
23(5) 0.0434 24.1 24.1
23(5) 0.0445 24.1 24.1
24(5) 0.0415 24.1 24.1
24(5) 0.0422 24.1 24.1
21(5) 0.0473 24.1 24.1
25(5) 0.0402 24.1 24.1
25(5) 0.0397 24.1 24.1
28(5) 0.0356 24.1 24.1
21(5) 0.0483 24.1 24.1
22(5) 0.0455 24.1 24.1
23(5) 0.0445 24.1 24.1
23(5) 0.0440 24.1 24.1
23(5) 0.0436 24.1 24.1
25(5) 0.0402 24.1 24.1
21(5) 0.0481 24.1 24.1
21(5) 0.0483 24.1 24.1
25(5) 0.0405 24.1 24.1
23(5) 0.0445 24.1 24.1
25(5) 0.0397 24.1 24.1
23(5) 0.0441 24.0 24.0
22(5) 0.0457 24.0 24.0
23(5) 0.0429 24.0 24.0
21(5) 0.0466 24.0 24.0
21(5) 0.0483 24.0 24.0
22(5) 0.0449 23.9 23.9
24(5) 0.0425 23.9 23.9
23(5) 0.0440 23.9 23.9
24(5) 0.0425 23.9 23.9
24(5) 0.0411 23.9 23.9
22(5) 0.0451 23.8 23.8
23(5) 0.0432 23.8 23.8
25(5) 0.0398 23.8 23.8
23(5) 0.0443 23.8 23.8
22(5) 0.0460 23.7 23.7
23(5) 0.0432 23.7 23.7
24(5) 0.0420 23.7 23.7
24(5) 0.0423 23.6 23.6
24(5) 0.0422 23.6 23.6
24(5) 0.0411 23.6 23.6
27(5) 0.0377 23.6 23.6
24(5) 0.0420 23.5 23.5
23(5) 0.0440 23.5 23.5
24(5) 0.0415 23.5 23.5
25(5) 0.0397 23.4 23.4
22(5) 0.0449 23.4 23.4
24(5) 0.0416 23.4 23.4
26(5) 0.0379 23.3 23.3
25(5) 0.0402 23.3 23.3
25(5) 0.0400 23.3 23.3
22(5) 0.0449 23.2 23.2
24(5) 0.0422 23.2 23.2
24(5) 0.0413 23.2 23.2
24(5) 0.0410 23.1 23.1
22(5) 0.0447 23.1 23.1
24(5) 0.0416 23.1 23.1
20(5) 0.0489 23.0 23.0
24(5) 0.0420 23.0 23.0
22(5) 0.0460 23.0 23.0
22(5) 0.0464 22.9 22.9
25(5) 0.0402 22.9 22.9
22(5) 0.0449 22.9 22.9
22(5) 0.0460 22.9 22.9
22(5) 0.0462 22.8 22.8
23(5) 0.0434 22.8 22.8
22(5) 0.0460 22.8 22.8
22(5) 0.0455 22.7 22.7
24(5) 0.0423 22.7 22.7
23(5) 0.0436 22.7 22.7
23(5) 0.0440 22.7 22.7
25(5) 0.0408 22.6 22.6
21(5) 0.0477 22.6 22.6
23(5) 0.0445 22.6 22.6
21(5) 0.0469 22.5 22.5
24(5) 0.0411 22.5 22.5
24(5) 0.0425 22.5 22.5
24(5) 0.0420 22.5 22.5
24(5) 0.0413 22.5 22.5
23(5) 0.0436 22.4 22.4
25(5) 0.0395 22.4 22.4
25(5) 0.0398 22.4 22.4
28(5) 0.0357 22.4 22.4
21(5) 0.0469 22.4 22.4
22(5) 0.0462 22.3 22.3
24(5) 0.0410 22.3 22.3
25(5) 0.0406 22.3 22.3
22(5) 0.0464 22.3 22.3
23(5) 0.0443 22.3 22.3
22(5) 0.0447 22.3 22.3
23(5) 0.0443 22.3 22.3
23(5) 0.0432 22.3 22.6
20(4) 0.0498 22.2 22.6
20(5) 0.0489 22.2 22.6
23(5) 0.0430 22.2 22.6
21(5) 0.0475 22.2 22.6
25(5) 0.0403 22.2 22.6
21(5) 0.0477 22.2 22.6
22(5) 0.0455 22.2 22.6
23(5) 0.0443 22.2 22.6
25(5) 0.0402 22.2 22.7
24(5) 0.0422 22.2 22.7
24(5) 0.0422 22.2 22.7
23(5) 0.0440 22.2 22.7
23(5) 0.0432 22.2 22.7
23(5) 0.0441 22.2 22.8
28(5) 0.0361 22.2 22.8
24(5) 0.0423 22.3 22.8
22(5) 0.0457 22.3 22.9
26(5) 0.0391 22.3 22.9
25(5) 0.0394 22.3 22.9
23(5) 0.0427 22.3 23.0
22(5) 0.0457 22.3 23.0
24(5) 0.0423 22.3 23.1
26(5) 0.0381 22.4 23.1
28(5) 0.0357 22.4 23.2
26(5) 0.0379 22.4 23.2
26(5) 0.0386 22.4 23.3
25(5) 0.0398 22.5 23.3
28(5) 0.0364 22.5 23.4
28(5) 0.0357 22.5 23.5
29(5) 0.03468 22.5 23.6
30(5) 0.03379 22.6 23.7
28(5) 0.0357 22.6 23.7
26(5) 0.0389 22.6 23.8
28(5) 0.0353 22.7 23.9
26(5) 0.0384 22.7 24.1
27(5) 0.0366 22.7 24.2
31(6) 0.03258 22.8 24.3
28(5) 0.0360 22.8 24.5
29(5) 0.03494 22.8 24.6
28(5) 0.0364 22.9 24.8
31(6) 0.03223 22.9 25.0
28(5) 0.0363 23.0 25.2
31(6) 0.03200 23.0 25.4
31(6) 0.03200 23.1 25.6
31(6) 0.03200 23.1 25.9
31(6) 0.03200 23.1 26.2
29(5) 0.03494 23.2 26.5
33(6) 0.03035 23.2 26.9
29(5) 0.03417 23.3 27.4
31(6) 0.03200 23.4 27.9
32(6) 0.03089 23.4 28.6
33(6) 0.03035 23.5 29.4
34(6) 0.02922 23.5 30.5
37(6) 0.02705 23.6 31.9
36(6) 0.02759 23.6 33.9
42(7) 0.02367 23.7 36.6
46(7) 0.02182 23.7 40.2
48(7) 0.02064 23.8 44.9
54(7) 0.01856 23.9 51.1
54(7) 0.01861 23.9 58.9
64(8) 0.01555 24.0 68.5
76(9) 0.01315 24.1 79.8
91(10) 0.01094 24.1 92.4
93(10) 0.01072 24.2 105.9
115(11) 0.00867 24.3 119.9
117(11) 0.00859 24.3 133.7
125(11) 0.00801 24.4 146.0
125(11) 0.00803 24.5 154.7
133(12) 0.00752 24.5 157.7
132(11) 0.00759 24.6 153.4
136(12) 0.00734 24.7 142.7
122(11) 0.00820 24.8 127.5
111(11) 0.00898 24.8 110.5
109(10) 0.00919 24.9 93.7
95(10) 0.01052 25.0 78.5
88(9) 0.01137 25.1 65.8
75(9) 0.01333 25.1 55.7
65(8) 0.01539 25.2 48.0
49(7) 0.02035 25.3 44.7
50(7) 0.02018 25.4 40.8
37(6) 0.02732 25.4 38.2
34(6) 0.02902 25.5 36.4
32(6) 0.03144 25.6 35.2
30(6) 0.03306 25.7 34.4
33(6) 0.03056 25.8 33.8
25(5) 0.0406 25.8 33.4
27(5) 0.0368 25.9 33.1
28(5) 0.0353 26.0 32.8
25(5) 0.0394 26.1 32.6
29(5) 0.03404 26.2 32.6
24(5) 0.0422 26.2 32.5
24(5) 0.0413 26.3 32.5
25(5) 0.0397 26.4 32.5
28(5) 0.0359 26.5 32.5
27(5) 0.0367 26.6 32.6
25(5) 0.0398 26.6 32.7
27(5) 0.0373 26.7 32.8
26(5) 0.0392 26.8 32.9
24(5) 0.0411 26.9 33.0
25(5) 0.0408 27.0 33.2
26(5) 0.0392 27.1 33.4
25(5) 0.0403 27.1 33.6
26(5) 0.0383 27.2 33.9
25(5) 0.0394 27.3 34.1
28(5) 0.0357 27.4 34.4
27(5) 0.0370 27.5 34.7
30(5) 0.03379 27.6 35.1
28(5) 0.0364 27.6 35.4
33(6) 0.03046 27.7 35.8
30(6) 0.03306 27.8 36.3
31(6) 0.03200 27.9 36.7
32(6) 0.03133 28.0 37.2
29(5) 0.03455 28.0 37.8
35(6) 0.02902 28.1 38.4
37(6) 0.02687 28.2 39.0
36(6) 0.02778 28.3 39.7
39(6) 0.02544 28.4 40.5
39(6) 0.02568 28.4 41.3
40(6) 0.02496 28.5 42.2
45(7) 0.02228 28.6 43.3
37(6) 0.02714 28.7 44.4
41(6) 0.02419 28.7 45.7
39(6) 0.02593 28.8 47.1
41(6) 0.02419 28.9 48.7
44(7) 0.02275 29.0 50.5
46(7) 0.02182 29.0 52.5
49(7) 0.02047 29.1 54.9
60(8) 0.01678 29.2 57.7
62(8) 0.01606 29.3 61.1
67(8) 0.01498 29.3 65.4
76(9) 0.01324 29.4 70.8
89(9) 0.01122 29.5 77.9
109(10) 0.00917 29.5 87.6
128(11) 0.00779 29.6 100.8
151(12) 0.00663 29.7 118.8
176(13) 0.00567 29.8 143.5
215(15) 0.00466 29.8 176.5
264(16) 0.00379 29.9 219.8
310(18) 0.003225 30.0 274.8
381(20) 0.002627 30.0 343.0
452(21) 0.002210 30.1 423.4
523(23) 0.001910 30.1 513.4
623(25) 0.001606 30.2 608.5
702(26) 0.001425 30.3 703.5
774(28) 0.001292 30.3 792.0
824(29) 0.001214 30.4 864.2
858(29) 0.001166 30.4 906.8
849(29) 0.001178 30.5 907.7
797(28) 0.001255 30.6 863.4
750(27) 0.001334 30.6 782.1
666(26) 0.001502 30.7 678.9
565(24) 0.001770 30.7 569.2
481(22) 0.002081 30.8 464.8
400(20) 0.002503 30.8 373.0
307(18) 0.003258 30.9 297.1
246(16) 0.00407 30.9 237.6
204(14) 0.00489 31.0 192.9
164(13) 0.00608 31.0 160.3
141(12) 0.00710 31.1 136.6
131(11) 0.00765 31.1 118.9
110(10) 0.00912 31.1 105.2
95(10) 0.01052 31.2 94.3
83(9) 0.01205 31.2 85.2
80(9) 0.01246 31.3 77.7
73(9) 0.01371 31.3 71.4
62(8) 0.01623 31.4 66.1
64(8) 0.01566 31.4 61.8
58(8) 0.01731 31.4 58.3
52(7) 0.01918 31.5 55.3
53(7) 0.01902 31.5 53.0
47(7) 0.02119 31.5 51.0
51(7) 0.01978 31.6 49.3
49(7) 0.02053 31.6 47.9
46(7) 0.02195 31.6 46.7
41(6) 0.02457 31.7 45.6
47(7) 0.02144 31.7 44.7
47(7) 0.02144 31.7 43.8
43(7) 0.02352 31.7 43.1
44(7) 0.02289 31.8 42.7
40(6) 0.02504 31.8 42.1
40(6) 0.02480 31.8 41.5
42(7) 0.02367 31.8 41.0
40(6) 0.02504 31.8 40.5
38(6) 0.02601 31.9 40.1
38(6) 0.02635 31.9 39.7
39(6) 0.02576 31.9 39.4
38(6) 0.02635 31.9 39.0
38(6) 0.02661 31.9 38.7
41(6) 0.02441 32.0 38.5
42(6) 0.02389 32.0 38.2
41(6) 0.02449 32.0 38.0
42(6) 0.02374 32.0 37.7
41(6) 0.02426 32.0 37.5
39(6) 0.02568 32.0 37.3
48(7) 0.02107 32.0 38.5
41(6) 0.02457 32.0 38.4
49(7) 0.02064 32.0 38.3
50(7) 0.02006 32.0 38.2
46(7) 0.02175 32.0 38.1
44(7) 0.02282 32.0 38.0
44(7) 0.02261 32.1 38.0
45(7) 0.02248 32.1 37.9
44(7) 0.02261 32.1 37.9
40(6) 0.02488 32.1 37.9
49(7) 0.02047 32.1 37.8
43(7) 0.02331 32.1 37.8
43(7) 0.02338 32.1 37.8
43(7) 0.02317 32.1 37.8
43(7) 0.02345 32.0 37.9
43(7) 0.02352 32.0 37.9
41(6) 0.02472 32.0 37.9
44(7) 0.02296 32.0 38.0
42(7) 0.02360 32.0 38.1
45(7) 0.02221 32.0 38.2
43(7) 0.02324 32.0 38.3
41(6) 0.02441 32.0 38.4
40(6) 0.02536 32.0 38.5
40(6) 0.02528 32.0 36.6
42(6) 0.02389 32.0 36.8
38(6) 0.02601 32.0 37.1
36(6) 0.02750 32.0 37.4
44(7) 0.02289 31.9 37.7
44(7) 0.02261 31.9 38.0
44(7) 0.02261 31.9 38.4
43(7) 0.02303 31.9 38.8
43(7) 0.02331 31.9 39.2
45(7) 0.02234 31.9 39.7
51(7) 0.01962 31.9 40.3
48(7) 0.02094 31.8 40.9
53(7) 0.01902 31.8 41.7
54(7) 0.01856 31.8 42.6
54(7) 0.01836 31.8 43.8
58(8) 0.01736 31.8 45.3
57(8) 0.01759 31.8 47.2
63(8) 0.01586 31.7 49.7
72(8) 0.01391 31.7 53.0
79(9) 0.01265 31.7 57.4
82(9) 0.01218 31.7 63.1
87(9) 0.01151 31.7 70.3
97(10) 0.01037 31.6 79.2
105(10) 0.00948 31.6 89.8
116(11) 0.00862 31.6 101.9
133(12) 0.00751 31.6 114.9
136(12) 0.00737 31.6 128.1
143(12) 0.00700 31.5 140.7
155(12) 0.00647 31.5 151.6
154(12) 0.00651 31.5 159.7
166(13) 0.00604 31.5 163.9
172(13) 0.00582 31.5 164.4
175(13) 0.00571 31.4 162.6
177(13) 0.00565 31.4 160.9
198(14) 0.00506 31.4 162.1
197(14) 0.00509 31.4 168.7
233(15) 0.00429 31.4 182.9
238(15) 0.00419 31.3 206.2
296(17) 0.003376 31.3 239.3
338(18) 0.002957 31.3 281.9
385(20) 0.002600 31.3 332.2
447(21) 0.002240 31.3 387.2
498(22) 0.002007 31.2 442.3
542(23) 0.001845 31.2 492.6
541(23) 0.001848 31.2 532.1
562(24) 0.001779 31.2 553.7
529(23) 0.001892 31.2 551.3
487(22) 0.002053 31.1 523.7
457(21) 0.002188 31.1 475.5
400(20) 0.002500 31.1 415.0
331(18) 0.003019 31.1 350.6
271(16) 0.00369 31.1 288.7
214(15) 0.00467 31.1 233.5
163(13) 0.00615 31.0 187.0
130(11) 0.00768 31.0 149.7
106(10) 0.00939 31.0 121.1
88(9) 0.01139 31.0 99.9
78(9) 0.01288 31.0 84.7
72(9) 0.01381 31.0 73.9
62(8) 0.01606 30.9 66.2
58(8) 0.01713 30.9 60.7
51(7) 0.01956 30.9 56.7
46(7) 0.02156 30.9 53.6
47(7) 0.02125 30.9 51.2
46(7) 0.02195 30.9 49.2
41(6) 0.02464 30.9 47.5
41(6) 0.02441 30.9 46.1
37(6) 0.02696 30.9 44.9
35(6) 0.02853 30.8 43.8
37(6) 0.02687 30.8 42.8
34(6) 0.02922 30.8 42.0
34(6) 0.02922 30.8 41.3
37(6) 0.02670 30.8 40.6
37(6) 0.02696 30.8 40.0
33(6) 0.03025 30.8 39.5
31(6) 0.03235 30.8 39.1
34(6) 0.02912 30.8 38.7
33(6) 0.03014 30.8 38.4
34(6) 0.02902 30.8 38.2
34(6) 0.02952 30.8 38.0
32(6) 0.03144 30.8 38.0
35(6) 0.02853 30.8 38.1
33(6) 0.03056 30.8 38.3
35(6) 0.02834 30.8 38.8
34(6) 0.02942 30.8 39.5
36(6) 0.02759 30.8 40.5
39(6) 0.02560 30.8 41.9
37(6) 0.02670 30.8 43.5
41(6) 0.02464 30.8 45.5
42(6) 0.02374 30.8 47.5
43(7) 0.02345 30.8 49.6
41(6) 0.02472 30.8 51.5
44(7) 0.02268 30.8 53.0
41(6) 0.02464 30.8 53.9
47(7) 0.02144 30.9 53.8
45(7) 0.02234 30.9 52.8
42(7) 0.02360 30.9 50.9
40(6) 0.02480 30.9 48.6
35(6) 0.02892 30.9 46.1
36(6) 0.02759 30.9 43.4
35(6) 0.02825 30.9 41.2
36(6) 0.02806 31.0 39.3
31(6) 0.03189 31.0 37.7
33(6) 0.03004 31.0 36.5
32(6) 0.03166 31.0 35.6
34(6) 0.02952 31.0 34.9
35(6) 0.02902 31.1 34.4
31(6) 0.03212 31.1 34.1
33(6) 0.03035 31.1 33.8
31(6) 0.03200 31.1 33.7
35(6) 0.02863 31.1 33.5
32(6) 0.03133 31.2 33.4
32(6) 0.03133 31.2 33.3
34(6) 0.02922 31.2 33.2
32(6) 0.03100 31.3 33.2
29(5) 0.03468 31.3 33.1
31(6) 0.03246 31.3 31.8
33(6) 0.03067 31.4 31.8
35(6) 0.02853 31.4 31.9
34(6) 0.02973 31.4 31.9
35(6) 0.02853 31.5 32.0
35(6) 0.02853 31.5 32.0
36(6) 0.02787 31.5 32.0
37(6) 0.02705 31.6 32.7
35(6) 0.02883 31.6 32.7
39(6) 0.02593 31.6 32.8
37(6) 0.02696 31.7 32.8
36(6) 0.02750 31.7 32.9
37(6) 0.02732 31.8 32.9
36(6) 0.02806 31.8 33.0
40(6) 0.02512 31.9 33.1
41(6) 0.02449 31.9 33.1
40(6) 0.02536 31.9 33.2
36(6) 0.02815 32.0 33.3
38(6) 0.02635 32.0 33.4
33(6) 0.03056 32.1 33.5
38(6) 0.02670 32.1 33.5
36(6) 0.02750 32.2 33.6
30(6) 0.03306 32.2 33.7
31(6) 0.03282 32.3 33.8
31(6) 0.03258 32.3 33.9
34(6) 0.02932 32.4 34.0
34(6) 0.02932 32.5 34.2
35(6) 0.02853 32.5 34.3
32(6) 0.03133 32.6 34.4
34(6) 0.02942 32.6 34.5
34(6) 0.02962 32.7 34.7
32(6) 0.03111 32.7 34.8
38(6) 0.02670 32.8 35.0
36(6) 0.02759 32.9 35.1
34(6) 0.02983 32.9 35.3
35(6) 0.02853 33.0 35.5
34(6) 0.02962 33.0 35.6
33(6) 0.03004 33.1 35.8
39(6) 0.02576 33.2 36.0
34(6) 0.02983 33.2 36.3
36(6) 0.02769 33.3 36.5
36(6) 0.02806 33.4 36.8
32(6) 0.03089 33.4 37.0
37(6) 0.02723 33.5 37.3
33(6) 0.03035 33.6 37.6
36(6) 0.02806 33.6 38.0
35(6) 0.02883 33.7 38.3
36(6) 0.02778 33.8 38.7
35(6) 0.02853 33.8 39.1
40(6) 0.02536 33.9 39.6
40(6) 0.02488 34.0 40.2
39(6) 0.02601 34.0 40.8
41(6) 0.02472 34.1 41.4
45(7) 0.02208 34.2 42.2
45(7) 0.02221 34.2 43.2
43(7) 0.02345 34.3 44.3
45(7) 0.02201 34.4 45.6
53(7) 0.01871 34.5 47.3
54(7) 0.01871 34.5 49.5
60(8) 0.01661 34.6 52.4
64(8) 0.01566 34.7 56.1
74(9) 0.01355 34.8 61.2
82(9) 0.01213 34.8 67.8
95(10) 0.01054 34.9 76.5
103(10) 0.00967 35.0 87.6
118(11) 0.00845 35.1 101.6
130(11) 0.00769 35.1 118.8
156(12) 0.00642 35.2 139.1
173(13) 0.00579 35.3 162.5
190(14) 0.00527 35.4 188.4
217(15) 0.00461 35.4 215.5
244(16) 0.00410 35.5 243.2
250(16) 0.00400 35.6 267.7
277(17) 0.00361 35.7 288.1
284(17) 0.00352 35.8 302.4
287(17) 0.003481 35.8 308.6
273(17) 0.00367 35.9 304.7
276(17) 0.00362 36.0 290.3
239(15) 0.00418 36.1 266.9
234(15) 0.00427 36.1 237.9
210(15) 0.00475 36.2 206.6
186(14) 0.00537 36.3 176.2
155(12) 0.00647 36.4 148.5
137(12) 0.00728 36.5 124.7
114(11) 0.00875 36.5 105.1
95(10) 0.01052 36.6 89.6
77(9) 0.01294 36.7 77.8
72(9) 0.01384 36.8 69.1
65(8) 0.01539 36.8 62.8
60(8) 0.01656 36.9 58.4
52(7) 0.01934 37.0 55.2
52(7) 0.01924 37.1 52.9
54(7) 0.01871 37.2 51.3
44(7) 0.02275 37.2 50.0
48(7) 0.02100 37.3 49.0
48(7) 0.02107 37.4 48.2
42(7) 0.02360 37.5 47.6
47(7) 0.02144 37.5 47.1
45(7) 0.02201 37.6 46.7
43(7) 0.02338 37.7 46.4
44(7) 0.02268 37.8 46.1
43(7) 0.02345 37.8 45.9
43(7) 0.02331 37.9 45.7
46(7) 0.02163 38.0 45.6
49(7) 0.02035 38.1 45.6
46(7) 0.02182 38.1 45.6
45(7) 0.02214 38.2 45.6
41(6) 0.02449 38.3 45.7
44(7) 0.02289 38.4 45.8
42(6) 0.02381 38.4 46.0
44(7) 0.02275 38.5 46.7
44(7) 0.02296 38.6 47.0
49(7) 0.02047 38.6 47.4
46(7) 0.02163 38.7 47.8
44(7) 0.02289 38.8 48.4
49(7) 0.02035 38.8 49.1
49(7) 0.02047 38.9 49.9
49(7) 0.02041 39.0 51.5
52(7) 0.01924 39.1 52.5
53(7) 0.01892 39.1 53.6
55(7) 0.01831 39.2 54.9
57(8) 0.01745 39.2 56.2
62(8) 0.01610 39.3 57.6
59(8) 0.01700 39.4 59.1
65(8) 0.01528 39.4 61.0
70(8) 0.01424 39.5 63.4
77(9) 0.01297 39.6 66.6
87(9) 0.01151 39.6 71.2
93(10) 0.01076 39.7 77.7
111(11) 0.00904 39.7 86.6
115(11) 0.00867 39.8 98.8
138(12) 0.00727 39.9 114.8
157(13) 0.00637 39.9 135.3
174(13) 0.00575 40.0 160.3
214(15) 0.00468 40.0 189.6
238(15) 0.00420 40.1 222.3
270(16) 0.00371 40.1 256.4
299(17) 0.003349 40.2 289.3
316(18) 0.003163 40.3 317.9
327(18) 0.003056 40.3 338.7
338(18) 0.002954 40.4 348.1
326(18) 0.003073 40.4 343.9
311(18) 0.003214 40.5 326.7
287(17) 0.003485 40.5 299.3
264(16) 0.00380 40.6 265.8
226(15) 0.00442 40.6 230.5
190(14) 0.00527 40.7 196.7
164(13) 0.00608 40.7 165.9
140(12) 0.00716 40.7 139.6
118(11) 0.00848 40.8 118.1
101(10) 0.00992 40.8 101.3
84(9) 0.01187 40.9 88.5
77(9) 0.01300 40.9 79.2
71(8) 0.01411 41.0 72.5
72(9) 0.01381 41.0 67.7
70(8) 0.01438 41.0 64.4
69(8) 0.01448 41.1 62.1
69(8) 0.01459 41.1 60.4
69(8) 0.01448 41.2 59.2
65(8) 0.01547 41.2 58.3
62(8) 0.01602 41.2 57.6
64(8) 0.01566 41.3 57.2
67(8) 0.01498 41.3 56.8
61(8) 0.01639 41.3 56.6
59(8) 0.01691 41.4 56.5
64(8) 0.01555 41.4 56.6
61(8) 0.01639 41.4 56.7
57(8) 0.01745 41.4 56.9
56(7) 0.01802 41.5 57.2
57(8) 0.01764 41.5 57.7
60(8) 0.01674 41.5 58.2
61(8) 0.01648 41.5 58.9
61(8) 0.01644 41.6 59.7
59(8) 0.01700 41.6 60.8
66(8) 0.01520 41.6 62.0
65(8) 0.01539 41.6 63.6
65(8) 0.01539 41.7 65.5
75(9) 0.01343 41.7 68.1
82(9) 0.01216 41.7 71.5
90(9) 0.01110 41.7 76.1
102(10) 0.00978 41.7 82.1
105(10) 0.00956 41.7 90.3
120(11) 0.00834 41.8 101.0
139(12) 0.00718 41.8 114.8
158(13) 0.00633 41.8 132.3
183(14) 0.00545 41.8 153.8
205(14) 0.00488 41.8 179.3
233(15) 0.00430 41.8 208.6
261(16) 0.00383 41.8 240.8
282(17) 0.00355 41.8 274.8
323(18) 0.003097 41.8 308.9
339(18) 0.002954 41.9 341.3
372(19) 0.002690 41.9 370.3
388(20) 0.002579 41.9 394.1
423(21) 0.002366 41.9 412.8
424(21) 0.002356 41.9 427.2
438(21) 0.002283 41.9 438.1
451(21) 0.002217 41.9 445.3
451(21) 0.002219 41.9 447.4
452(21) 0.002210 41.9 442.3
449(21) 0.002225 41.9 427.9
399(20) 0.002508 41.9 403.3
393(20) 0.002543 41.9 370.0
341(18) 0.002931 41.9 331.1
330(18) 0.003032 41.9 290.5
267(16) 0.00375 41.9 251.2
225(15) 0.00444 41.9 215.6
183(14) 0.00547 41.9 184.9
165(13) 0.00608 41.9 159.8
144(12) 0.00693 41.8 140.2
126(11) 0.00794 41.8 125.2
105(10) 0.00952 41.8 115.7
108(10) 0.00925 41.8 110.4
110(10) 0.00910 41.8 108.9
115(11) 0.00872 41.8 110.8
134(12) 0.00747 41.8 116.0
137(12) 0.00731 41.8 124.7
157(13) 0.00636 41.8 137.2
170(13) 0.00589 41.8 154.1
202(14) 0.00494 41.7 175.8
226(15) 0.00443 41.7 203.0
245(16) 0.00408 41.7 235.8
282(17) 0.00354 41.7 274.1
317(18) 0.003160 41.7 316.9
346(19) 0.002887 41.7 362.2
361(19) 0.002767 41.7 406.7
400(20) 0.002503 41.6 446.3
431(21) 0.002323 41.6 476.0
418(20) 0.002391 41.6 491.2
414(20) 0.002417 41.6 488.5
395(20) 0.002533 41.6 467.5
379(19) 0.002641 41.5 431.4
345(19) 0.002897 41.5 385.5
284(17) 0.00352 41.5 335.5
250(16) 0.00400 41.5 286.0
217(15) 0.00462 41.5 240.2
172(13) 0.00582 41.4 200.1
148(12) 0.00676 41.4 166.4
132(11) 0.00759 41.4 139.3
105(10) 0.00956 41.4 118.2
94(10) 0.01061 41.3 102.3
87(9) 0.01154 41.3 90.6
76(9) 0.01312 41.3 82.1
72(9) 0.01381 41.3 75.9
69(8) 0.01448 41.3 71.4
69(8) 0.01459 41.2 68.1
64(8) 0.01574 41.2 65.6
58(8) 0.01718 41.2 63.7
63(8) 0.01598 41.2 62.2
63(8) 0.01594 41.1 60.9
61(8) 0.01631 41.1 59.9
60(8) 0.01682 41.1 59.1
60(8) 0.01674 41.1 58.5
63(8) 0.01594 41.0 58.0
56(7) 0.01792 41.0 57.7
59(8) 0.01704 41.0 57.6
58(8) 0.01731 41.0 57.7
60(8) 0.01678 40.9 58.1
59(8) 0.01709 40.9 58.8
57(8) 0.01750 40.9 60.0
64(8) 0.01570 40.8 62.2
65(8) 0.01543 40.8 64.9
71(8) 0.01414 40.8 68.8
72(8) 0.01397 40.8 74.2
84(9) 0.01194 40.7 81.5
93(10) 0.01072 40.7 90.9
104(10) 0.00959 40.7 102.6
117(11) 0.00854 40.7 116.6
139(12) 0.00722 40.6 132.7
149(12) 0.00673 40.6 150.2
176(13) 0.00569 40.6 168.0
178(13) 0.00561 40.6 184.8
196(14) 0.00510 40.5 198.6
189(14) 0.00530 40.5 207.8
197(14) 0.00507 40.5 210.7
196(14) 0.00511 40.5 206.6
182(13) 0.00551 40.4 195.7
168(13) 0.00596 40.4 180.5
145(12) 0.00692 40.4 162.6
135(12) 0.00743 40.4 144.0
112(11) 0.00895 40.3 126.0
93(10) 0.01078 40.3 109.8
80(9) 0.01254 40.3 95.8
69(8) 0.01445 40.3 84.2
64(8) 0.01570 40.2 74.3
53(7) 0.01902 40.2 67.2
49(7) 0.02058 40.2 61.8
50(7) 0.02012 40.2 57.9
49(7) 0.02035 40.2 55.0
48(7) 0.02094 40.1 52.9
47(7) 0.02131 40.1 51.3
45(7) 0.02201 40.1 50.2
49(7) 0.02041 40.1 49.3
47(7) 0.02125 40.1 48.6
44(7) 0.02275 40.0 48.0
43(7) 0.02317 40.0 47.5
45(7) 0.02234 40.0 48.1
45(7) 0.02221 40.0 47.8
45(7) 0.02214 40.0 50.6
46(7) 0.02163 40.0 50.4
45(7) 0.02214 39.9 50.3
42(6) 0.02381 39.9 50.2
45(7) 0.02214 39.9 50.1
45(7) 0.02208 39.9 50.1
44(7) 0.02275 39.9 50.1
44(7) 0.02289 39.9 50.1
46(7) 0.02182 39.8 50.2
44(7) 0.02255 39.8 50.2
44(7) 0.02296 39.8 50.4
45(7) 0.02214 39.8 50.5
46(7) 0.02163 39.8 50.7
48(7) 0.02076 39.8 50.9
49(7) 0.02064 39.8 50.2
51(7) 0.01978 39.8 50.5
48(7) 0.02100 39.8 50.8
52(7) 0.01913 39.8 51.2
50(7) 0.01984 39.8 51.7
53(7) 0.01892 39.7 52.2
62(8) 0.01610 39.7 52.6
57(8) 0.01750 39.7 53.2
66(8) 0.01517 39.7 53.7
67(8) 0.01491 39.7 54.4
66(8) 0.01506 39.7 55.2
71(8) 0.01407 39.7 56.0
77(9) 0.01303 39.7 57.0
78(9) 0.01277 39.7 58.2
79(9) 0.01268 39.7 59.7
79(9) 0.01265 39.7 61.6
83(9) 0.01208 39.7 64.0
83(9) 0.01202 39.7 67.2
81(9) 0.01237 39.7 71.4
87(9) 0.01149 39.7 77.0
93(10) 0.01074 39.7 84.3
99(10) 0.01016 39.7 93.7
111(11) 0.00900 39.8 105.5
129(11) 0.00776 39.8 119.8
149(12) 0.00672 39.8 136.5
165(13) 0.00608 39.8 155.3
194(14) 0.00516 39.8 175.5
218(15) 0.00460 39.8 195.7
243(16) 0.00411 39.8 214.5
247(16) 0.00405 39.8 229.9
264(16) 0.00379 39.8 240.0
278(17) 0.00360 39.8 243.2
262(16) 0.00382 39.9 239.2
244(16) 0.00411 39.9 228.6
225(15) 0.00444 39.9 213.3
204(14) 0.00489 39.9 195.5
185(14) 0.00539 39.9 177.1
152(12) 0.00658 39.9 159.7
132(11) 0.00757 40.0 144.3
117(11) 0.00857 40.0 131.4
103(10) 0.00971 40.0 121.2
98(10) 0.01020 40.0 114.8
94(10) 0.01061 40.0 109.9
93(10) 0.01074 40.1 107.4
96(10) 0.01043 40.1 106.7
95(10) 0.01056 40.1 107.7
104(10) 0.00961 40.1 109.9
105(10) 0.00956 40.2 113.8
113(11) 0.00885 40.2 119.2
118(11) 0.00845 40.2 126.4
134(12) 0.00747 40.2 135.8
142(12) 0.00704 40.3 148.3
163(13) 0.00613 40.3 165.1
189(14) 0.00530 40.3 187.9
214(15) 0.00467 40.4 218.7
267(16) 0.00375 40.4 260.3
310(18) 0.003228 40.4 315.8
383(20) 0.002608 40.5 388.5
468(22) 0.002135 40.5 481.7
561(24) 0.001782 40.5 597.7
682(26) 0.001467 40.6 737.7
834(29) 0.001199 40.6 900.6
1018(32) 0.000966 40.6 1082.3
1179(37) 0.000719 41. 1275.
1398(44) 0.000512 41. 1468.
1686(53) 0.000352 41. 1646.
2001(63) 0.0002498 41. 1791.
2131(67) 0.0002203 41. 1888.
2215(70) 0.0002038 41. 1923.
2294(73) 0.0001900 41. 1889.
2233(71) 0.0002005 41. 1791.
2073(66) 0.0002328 41. 1641.
1927(61) 0.0002694 41. 1458.
1680(53) 0.000354 41. 1261.
1427(45) 0.000491 41. 1066.
1083(34) 0.000852 41.2 886.5
799(28) 0.001252 41.2 728.5
630(25) 0.001587 41.3 595.8
484(22) 0.002066 41.3 489.1
352(19) 0.002838 41.4 406.7
292(17) 0.003428 41.4 345.5
251(16) 0.00399 41.5 301.9
242(16) 0.00414 41.5 271.6
228(15) 0.00438 41.6 250.9
217(15) 0.00462 41.6 236.1
207(14) 0.00484 41.7 224.4
207(14) 0.00484 41.7 213.5
204(14) 0.00490 41.8 202.0
183(14) 0.00546 41.8 189.5
181(13) 0.00551 41.9 176.3
167(13) 0.00599 42.0 162.8
154(12) 0.00651 42.0 149.7
142(12) 0.00706 42.1 137.5
132(12) 0.00756 42.1 126.6
110(11) 0.00905 42.2 117.1
114(11) 0.00877 42.2 109.1
102(10) 0.00980 42.3 102.5
99(10) 0.01010 42.4 97.2
87(9) 0.01151 42.4 93.1
90(10) 0.01108 42.5 89.9
87(9) 0.01156 42.5 87.5
81(9) 0.01229 42.6 85.8
81(9) 0.01235 42.7 84.7
84(9) 0.01197 42.7 84.1
84(9) 0.01197 42.8 84.0
86(9) 0.01156 42.8 84.4
92(10) 0.01092 42.9 85.7
93(10) 0.01081 43.0 87.7
100(10) 0.01006 43.0 90.7
99(10) 0.01012 43.1 95.3
112(11) 0.00892 43.2 101.9
129(11) 0.00772 43.2 111.2
142(12) 0.00703 43.3 123.9
150(12) 0.00666 43.3 140.9
176(13) 0.00568 43.4 162.8
207(14) 0.00482 43.5 189.6
239(15) 0.00418 43.5 222.4
278(17) 0.00360 43.6 260.3
315(18) 0.003174 43.7 302.2
345(19) 0.002897 43.7 346.2
380(19) 0.002635 43.8 389.4
419(20) 0.002387 43.9 428.0
430(21) 0.002325 43.9 457.8
433(21) 0.002309 44.0 474.7
438(21) 0.002285 44.1 475.9
430(21) 0.002325 44.1 460.7
405(20) 0.002468 44.2 431.6
365(19) 0.002741 44.3 392.6
329(18) 0.003042 44.3 348.4
293(17) 0.003416 44.4 303.2
249(16) 0.00403 44.5 259.9
226(15) 0.00443 44.5 220.6
189(14) 0.00529 44.6 186.4
169(13) 0.00591 44.7 157.9
148(12) 0.00679 44.7 134.8
136(12) 0.00736 44.8 116.7
124(11) 0.00807 44.9 102.9
107(10) 0.00937 44.9 92.6
105(10) 0.00952 45.0 84.9
103(10) 0.00973 45.1 79.3
89(9) 0.01120 45.1 75.1
87(9) 0.01149 45.2 72.0
85(9) 0.01176 45.3 69.6
78(9) 0.01283 45.3 67.7
76(9) 0.01312 45.4 66.1
72(8) 0.01387 45.5 64.8
75(9) 0.01327 45.5 63.7
74(9) 0.01358 45.6 62.7
78(9) 0.01288 45.7 61.9
76(9) 0.01315 45.7 61.2
75(9) 0.01336 45.8 59.5
73(9) 0.01362 45.8 59.0
73(9) 0.01371 45.9 55.4
73(9) 0.01378 46.0 55.1
70(8) 0.01427 46.0 54.8
71(8) 0.01407 46.1 54.6
71(8) 0.01407 46.2 54.4
65(8) 0.01536 46.2 54.2
68(8) 0.01473 46.3 54.1
60(8) 0.01665 46.4 54.0
57(8) 0.01754 46.4 53.9
56(7) 0.01787 46.5 53.9
56(7) 0.01792 46.5 54.0
55(7) 0.01826 46.6 54.0
57(8) 0.01750 46.7 54.1
53(7) 0.01892 46.7 54.3
54(7) 0.01871 46.8 54.5
56(7) 0.01787 46.8 54.7
52(7) 0.01934 46.9 55.0
55(7) 0.01826 47.0 55.5
55(7) 0.01807 47.0 55.8
60(8) 0.01674 47.1 56.6
52(7) 0.01918 47.1 57.5
57(8) 0.01759 47.2 58.8
59(8) 0.01700 47.2 60.6
60(8) 0.01674 47.3 62.9
62(8) 0.01606 47.3 66.0
66(8) 0.01520 47.4 70.0
61(8) 0.01652 47.5 75.1
73(9) 0.01371 47.5 81.5
81(9) 0.01229 47.6 89.2
89(9) 0.01129 47.6 98.3
95(10) 0.01052 47.7 109.4
109(10) 0.00919 47.7 120.7
115(11) 0.00872 47.8 132.6
124(11) 0.00806 47.8 144.3
137(12) 0.00732 47.9 155.2
149(12) 0.00673 47.9 164.3
152(12) 0.00658 48.0 171.0
160(13) 0.00627 48.0 174.9
154(12) 0.00649 48.0 176.2
165(13) 0.00606 48.1 175.2
167(13) 0.00600 48.1 172.4
159(13) 0.00629 48.2 168.1
163(13) 0.00613 48.2 162.4
149(12) 0.00672 48.3 155.3
137(12) 0.00729 48.3 146.7
126(11) 0.00792 48.4 137.1
128(11) 0.00779 48.4 126.7
110(10) 0.00912 48.4 116.2
105(10) 0.00956 48.5 106.2
92(10) 0.01087 48.5 97.0
86(9) 0.01156 48.6 88.9
79(9) 0.01271 48.6 81.8
75(9) 0.01340 48.6 75.9
66(8) 0.01528 48.7 71.1
65(8) 0.01547 48.7 67.3
65(8) 0.01536 48.7 63.4
58(8) 0.01731 48.8 61.2
57(8) 0.01740 48.8 59.5
55(7) 0.01826 48.8 58.2
56(7) 0.01797 48.9 57.4
56(7) 0.01797 48.9 56.7
55(7) 0.01831 48.9 56.1
56(7) 0.01797 48.9 55.7
51(7) 0.01945 49.0 55.4
51(7) 0.01978 49.0 55.2
51(7) 0.01967 49.0 55.0
52(7) 0.01940 49.1 54.9
52(7) 0.01929 49.1 54.7
51(7) 0.01978 49.1 54.7
51(7) 0.01951 49.1 54.6
47(7) 0.02113 49.1 54.6
48(7) 0.02100 49.2 54.6
53(7) 0.01892 49.2 54.7
48(7) 0.02064 49.2 54.7
45(7) 0.02208 49.2 54.8
46(7) 0.02163 49.2 54.9
52(7) 0.01924 49.3 55.0
48(7) 0.02076 49.3 55.1
48(7) 0.02076 49.3 55.3
47(7) 0.02113 49.3 55.5
50(7) 0.02006 49.3 55.7
52(7) 0.01924 49.3 56.0
47(7) 0.02113 49.4 56.2
52(7) 0.01913 49.4 57.1
52(7) 0.01929 49.4 57.4
52(7) 0.01924 49.4 57.9
57(8) 0.01768 49.4 58.3
56(7) 0.01797 49.4 58.8
55(7) 0.01811 49.4 60.8
58(8) 0.01722 49.4 61.5
55(7) 0.01816 49.4 62.3
59(8) 0.01687 49.4 63.3
63(8) 0.01594 49.4 64.5
62(8) 0.01627 49.4 65.9
67(8) 0.01487 49.4 67.8
68(8) 0.01480 49.4 70.2
73(9) 0.01368 49.4 73.4
77(9) 0.01297 49.4 77.7
81(9) 0.01240 49.4 83.4
91(10) 0.01094 49.4 91.0
104(10) 0.00959 49.4 101.0
118(11) 0.00846 49.4 113.7
142(12) 0.00706 49.4 129.8
153(12) 0.00652 49.4 149.3
183(14) 0.00545 49.4 172.4
207(14) 0.00484 49.4 198.7
240(15) 0.00417 49.4 227.6
289(17) 0.003456 49.4 257.6
327(18) 0.003063 49.4 287.0
355(19) 0.002814 49.4 313.5
384(20) 0.002606 49.4 334.3
395(20) 0.002535 49.4 346.9
407(20) 0.002460 49.4 349.4
403(20) 0.002485 49.3 341.3
387(20) 0.002582 49.3 323.9
371(19) 0.002696 49.3 299.5
334(18) 0.002999 49.3 271.1
299(17) 0.003345 49.3 241.3
265(16) 0.00377 49.3 212.3
237(15) 0.00422 49.3 185.5
193(14) 0.00518 49.2 161.8
173(13) 0.00578 49.2 141.9
151(12) 0.00663 49.2 125.8
131(11) 0.00763 49.2 113.4
126(11) 0.00794 49.2 104.4
112(11) 0.00895 49.2 98.2
110(10) 0.00910 49.1 94.3
104(10) 0.00965 49.1 92.2
101(10) 0.00994 49.1 91.5
97(10) 0.01031 49.1 91.6
94(10) 0.01061 49.1 92.1
96(10) 0.01041 49.0 92.6
93(10) 0.01076 49.0 92.8
96(10) 0.01043 49.0 92.4
97(10) 0.01031 49.0 91.3
86(9) 0.01164 48.9 89.5
90(9) 0.01110 48.9 87.3
84(9) 0.01194 48.9 84.9
80(9) 0.01246 48.9 82.4
83(9) 0.01205 48.8 80.2
77(9) 0.01303 48.8 78.3
76(9) 0.01318 48.8 76.9
71(8) 0.01407 48.7 76.0
71(8) 0.01407 48.7 75.8
77(9) 0.01297 48.7 76.3
74(9) 0.01352 48.7 77.5
77(9) 0.01294 48.6 79.4
77(9) 0.01306 48.6 82.1
82(9) 0.01224 48.6 85.5
82(9) 0.01221 48.5 89.6
88(9) 0.01132 48.5 94.2
95(10) 0.01052 48.5 99.2
94(10) 0.01058 48.4 104.4
100(10) 0.01002 48.4 109.3
108(10) 0.00930 48.4 113.8
110(10) 0.00909 48.3 117.4
113(11) 0.00885 48.3 120.0
108(10) 0.00923 48.3 121.4
111(11) 0.00898 48.2 121.9
117(11) 0.00856 48.2 121.8
116(11) 0.00859 48.2 121.6
118(11) 0.00845 48.1 121.8
119(11) 0.00843 48.1 122.8
114(11) 0.00877 48.1 124.8
119(11) 0.00843 48.0 128.1
128(11) 0.00783 48.0 133.0
142(12) 0.00706 48.0 139.7
143(12) 0.00698 47.9 148.5
152(12) 0.00660 47.9 160.0
159(13) 0.00629 47.8 174.9
180(13) 0.00555 47.8 194.1
205(14) 0.00488 47.8 218.9
239(15) 0.00419 47.7 250.7
274(17) 0.00365 47.7 290.7
320(18) 0.003121 47.7 340.1
383(20) 0.002614 47.6 399.3
446(21) 0.002244 47.6 468.3
521(23) 0.001920 47.5 546.0
610(25) 0.001638 47.5 629.9
691(26) 0.001447 47.5 716.7
763(28) 0.001311 47.4 801.8
844(29) 0.001186 47.4 879.5
897(30) 0.001116 47.4 944.5
965(31) 0.001037 47.3 991.6
976(31) 0.001025 47.3 1016.4
968(31) 0.001033 47.3 1015.3
957(31) 0.001045 47.2 987.3
915(30) 0.001094 47.2 934.0
841(29) 0.001189 47.1 860.6
740(27) 0.001351 47.1 774.4
646(25) 0.001548 47.1 682.6
545(23) 0.001837 47.0 591.7
453(21) 0.002208 47.0 506.4
375(19) 0.002668 47.0 430.0
303(17) 0.003303 46.9 364.2
255(16) 0.00392 46.9 309.6
214(15) 0.00468 46.9 265.5
187(14) 0.00536 46.8 232.1
167(13) 0.00600 46.8 207.5
165(13) 0.00606 46.7 190.1
162(13) 0.00617 46.7 178.1
156(12) 0.00642 46.7 170.0
159(13) 0.00630 46.6 164.3
158(13) 0.00632 46.6 159.6
150(12) 0.00665 46.6 155.2
148(12) 0.00679 46.5 150.6
150(12) 0.00665 46.5 145.9
146(12) 0.00684 46.5 141.5
147(12) 0.00682 46.4 137.6
137(12) 0.00732 46.4 134.7
138(12) 0.00727 46.4 133.2
140(12) 0.00715 46.3 133.0
155(12) 0.00644 46.3 134.2
164(13) 0.00610 46.3 136.5
166(13) 0.00605 46.3 139.5
181(13) 0.00553 46.2 142.6
194(14) 0.00516 46.2 145.0
187(14) 0.00536 46.2 145.9
184(14) 0.00542 46.1 144.9
194(14) 0.00516 46.1 141.7
187(14) 0.00535 46.1 136.3
167(13) 0.00597 46.1 129.3
163(13) 0.00613 46.0 121.2
141(12) 0.00710 46.0 112.6
127(11) 0.00787 46.0 104.2
113(11) 0.00882 45.9 96.2
112(11) 0.00893 45.9 89.0
92(10) 0.01083 45.9 82.6
91(10) 0.01103 45.9 77.2
81(9) 0.01237 45.8 72.7
75(9) 0.01327 45.8 69.1
71(8) 0.01414 45.8 66.2
65(8) 0.01528 45.8 64.0
67(8) 0.01494 45.8 62.3
61(8) 0.01627 45.7 61.1
62(8) 0.01623 45.7 60.2
59(8) 0.01695 45.7 59.5
60(8) 0.01674 45.7 59.0
63(8) 0.01578 45.7 58.7
63(8) 0.01598 45.6 58.5
59(8) 0.01687 45.6 58.4
63(8) 0.01578 45.6 58.4
59(8) 0.01691 45.6 58.3
63(8) 0.01586 45.6 58.2
59(8) 0.01709 45.6 58.1
57(8) 0.01750 45.5 57.8
58(8) 0.01736 45.5 57.5
52(7) 0.01918 45.5 57.1
61(8) 0.01644 45.5 56.6
53(7) 0.01897 45.5 56.2
58(8) 0.01731 45.5 55.7
54(7) 0.01841 45.5 55.3
56(8) 0.01778 45.5 55.0
60(8) 0.01674 45.5 54.7
58(8) 0.01740 45.4 54.5
54(7) 0.01846 45.4 54.3
57(8) 0.01768 45.4 54.3
54(7) 0.01846 45.4 54.3
50(7) 0.01995 45.4 54.5
54(7) 0.01861 45.4 54.8
49(7) 0.02047 45.4 55.3
58(8) 0.01722 45.4 56.0
54(7) 0.01856 45.4 57.0
56(8) 0.01778 45.4 58.4
63(8) 0.01586 45.4 60.2
64(8) 0.01559 45.4 62.7
68(8) 0.01466 45.4 66.0
67(8) 0.01487 45.4 70.0
76(9) 0.01324 45.4 75.1
82(9) 0.01216 45.4 81.3
90(10) 0.01108 45.4 88.4
99(10) 0.01016 45.4 96.5
106(10) 0.00943 45.4 105.4
118(11) 0.00845 45.4 114.5
127(11) 0.00789 45.4 123.6
139(12) 0.00718 45.4 131.8
140(12) 0.00715 45.4 138.6
151(12) 0.00662 45.4 143.0
147(12) 0.00680 45.4 144.7
147(12) 0.00680 45.5 142.8
148(12) 0.00677 45.5 138.6
134(12) 0.00748 45.5 132.2
131(11) 0.00764 45.5 124.6
119(11) 0.00842 45.5 116.3
114(11) 0.00878 45.5 106.9
101(10) 0.00988 45.5 99.3
91(10) 0.01094 45.5 92.6
89(9) 0.01120 45.6 87.0
81(9) 0.01235 45.6 82.6
75(9) 0.01336 45.6 79.2
74(9) 0.01343 45.6 76.8
70(8) 0.01431 45.6 75.1
72(8) 0.01387 45.6 73.8
72(8) 0.01394 45.7 72.8
69(8) 0.01452 45.7 71.7
70(8) 0.01434 45.7 70.5
69(8) 0.01448 45.7 69.2
70(8) 0.01434 45.7 67.7
65(8) 0.01528 45.8 66.1
66(8) 0.01509 45.8 64.5
63(8) 0.01586 45.8 62.8
64(8) 0.01559 45.8 61.3
62(8) 0.01627 45.9 59.8
57(8) 0.01764 45.9 58.5
61(8) 0.01631 45.9 57.4
54(7) 0.01861 45.9 56.3
53(7) 0.01871 46.0 55.3
54(7) 0.01856 46.0 54.4
53(7) 0.01892 46.0 53.7
52(7) 0.01929 46.1 52.9
52(7) 0.01934 46.1 52.3
54(7) 0.01846 46.1 51.8
52(7) 0.01908 46.1 51.3
50(7) 0.02018 46.2 50.9
50(7) 0.01984 46.2 50.6
47(7) 0.02137 46.2 50.4
59(8) 0.01695 46.3 50.2
49(7) 0.02047 46.3 50.0
50(7) 0.01984 46.3 50.0
50(7) 0.01995 46.4 50.0
46(7) 0.02163 46.4 50.1
56(7) 0.01797 46.5 50.2
52(7) 0.01934 46.5 50.4
53(7) 0.01877 46.5 50.7
56(8) 0.01778 46.6 51.2
55(7) 0.01807 46.6 51.8
56(7) 0.01787 46.6 52.6
58(8) 0.01713 46.7 53.6
58(8) 0.01731 46.7 54.9
57(8) 0.01745 46.8 56.6
59(8) 0.01704 46.8 58.6
55(7) 0.01826 46.8 61.0
61(8) 0.01639 46.9 63.7
66(8) 0.01513 46.9 66.8
64(8) 0.01555 47.0 70.1
66(8) 0.01509 47.0 73.5
75(9) 0.01330 47.1 76.7
75(9) 0.01333 47.1 79.7
75(9) 0.01330 47.1 82.1
76(9) 0.01321 47.2 83.6
73(9) 0.01378 47.2 84.2
76(9) 0.01315 47.3 83.6
74(9) 0.01362 47.3 82.1
78(9) 0.01288 47.4 79.8
71(8) 0.01404 47.4 76.9
70(8) 0.01427 47.5 73.9
69(8) 0.01445 47.5 70.9
64(8) 0.01566 47.6 68.1
66(8) 0.01509 47.6 65.6
61(8) 0.01627 47.7 63.5
61(8) 0.01652 47.7 61.8
62(8) 0.01627 47.7 60.6
54(7) 0.01861 47.8 59.9
54(7) 0.01841 47.8 59.5
57(8) 0.01750 47.9 59.5
56(7) 0.01802 47.9 59.6
54(7) 0.01856 48.0 60.0
59(8) 0.01695 48.0 60.4
56(8) 0.01778 48.1 60.9
61(8) 0.01639 48.1 61.3
54(7) 0.01841 48.2 61.6
58(8) 0.01740 48.2 61.9
60(8) 0.01656 48.3 62.3
59(8) 0.01687 48.3 62.8
59(8) 0.01695 48.4 63.6
63(8) 0.01594 48.4 64.7
61(8) 0.01639 48.5 66.1
63(8) 0.01594 48.5 68.1
67(8) 0.01491 48.6 70.5
68(8) 0.01473 48.6 73.4
69(8) 0.01459 48.7 76.9
75(9) 0.01330 48.7 80.6
81(9) 0.01229 48.8 84.6
87(9) 0.01146 48.8 88.8
91(10) 0.01096 48.9 92.9
98(10) 0.01024 48.9 96.8
111(11) 0.00904 49.0 100.2
105(10) 0.00950 49.0 103.1
107(10) 0.00939 49.1 105.0
117(11) 0.00854 49.1 105.6
112(11) 0.00897 49.2 104.9
111(11) 0.00905 49.2 102.7
107(10) 0.00937 49.3 99.4
102(10) 0.00986 49.3 95.2
95(10) 0.01056 49.4 90.4
87(9) 0.01154 49.4 85.6
83(9) 0.01200 49.5 80.9
72(9) 0.01384 49.5 76.5
70(8) 0.01434 49.6 72.6
64(8) 0.01559 49.6 69.4
61(8) 0.01635 49.7 66.6
63(8) 0.01578 49.7 64.3
58(8) 0.01713 49.8 62.6
60(8) 0.01678 49.8 61.3
56(8) 0.01773 49.9 60.2
62(8) 0.01627 49.9 59.4
56(7) 0.01792 50.0 58.8
57(8) 0.01745 50.0 58.2
54(7) 0.01861 50.1 57.7
55(7) 0.01836 50.1 57.2
54(7) 0.01851 50.2 56.8
56(7) 0.01797 50.2 56.3
57(8) 0.01759 50.2 56.0
55(7) 0.01807 50.3 55.6
58(8) 0.01722 50.3 55.4
58(8) 0.01722 50.4 55.2
57(8) 0.01768 50.4 55.1
58(8) 0.01718 50.5 55.2
57(8) 0.01764 50.5 55.6
62(8) 0.01619 50.6 55.9
58(8) 0.01731 50.6 56.3
56(7) 0.01797 50.6 57.0
59(8) 0.01687 50.7 57.8
63(8) 0.01598 50.7 58.9
61(8) 0.01652 50.8 60.3
62(8) 0.01615 50.8 61.9
58(8) 0.01740 50.8 63.7
64(8) 0.01574 50.9 65.8
65(8) 0.01547 50.9 68.0
66(8) 0.01520 50.9 70.3
70(8) 0.01424 51.0 72.5
72(8) 0.01394 51.0 74.6
68(8) 0.01466 51.1 76.3
70(8) 0.01421 51.1 77.5
72(9) 0.01384 51.1 78.0
68(8) 0.01469 51.2 77.8
73(9) 0.01381 51.2 76.8
70(8) 0.01438 51.2 75.4
68(8) 0.01466 51.3 73.5
68(8) 0.01476 51.3 71.4
72(9) 0.01384 51.3 69.3
70(8) 0.01438 51.4 67.2
65(8) 0.01536 51.4 65.2
60(8) 0.01665 51.4 63.5
65(8) 0.01551 51.4 62.0
70(8) 0.01421 51.5 60.8
66(8) 0.01506 51.5 59.8
65(8) 0.01536 51.5 59.1
62(8) 0.01615 51.5 58.5
63(8) 0.01578 51.6 58.1
62(8) 0.01623 51.6 57.9
63(8) 0.01586 51.6 57.9
63(8) 0.01586 51.6 58.0
63(8) 0.01578 51.7 58.1
65(8) 0.01539 51.7 58.4
56(7) 0.01797 51.7 58.9
68(8) 0.01469 51.7 59.4
64(8) 0.01574 51.7 60.1
72(8) 0.01397 51.8 61.0
62(8) 0.01610 51.8 62.2
66(8) 0.01513 51.8 63.6
67(8) 0.01487 51.8 65.3
75(9) 0.01333 51.8 67.4
78(9) 0.01283 51.8 69.9
80(9) 0.01251 51.9 72.9
84(9) 0.01197 51.9 76.6
82(9) 0.01226 51.9 80.8
92(10) 0.01087 51.9 85.7
92(10) 0.01092 51.9 91.2
92(10) 0.01085 51.9 97.3
102(10) 0.00980 51.9 104.1
100(10) 0.01002 51.9 111.2
106(10) 0.00948 51.9 118.7
109(10) 0.00914 51.9 126.3
106(10) 0.00943 51.9 133.5
113(11) 0.00885 51.9 140.1
113(11) 0.00888 51.9 145.3
113(11) 0.00883 52.0 148.9
106(10) 0.00943 52.0 150.3
109(10) 0.00921 52.0 149.5
114(11) 0.00878 52.0 146.9
111(11) 0.00902 52.0 142.7
108(10) 0.00925 52.0 137.6
111(11) 0.00905 52.0 132.1
104(10) 0.00959 51.9 126.7
108(10) 0.00925 51.9 121.9
110(11) 0.00907 51.9 118.0
115(11) 0.00867 51.9 115.4
123(11) 0.00816 51.9 113.9
123(11) 0.00816 51.9 113.9
134(12) 0.00744 51.9 115.0
139(12) 0.00719 51.9 117.1
153(12) 0.00654 51.9 119.7
166(13) 0.00602 51.9 122.6
178(13) 0.00562 51.9 125.2
184(14) 0.00545 51.9 127.0
199(14) 0.00502 51.8 127.6
180(13) 0.00555 51.8 127.0
192(14) 0.00522 51.8 125.2
184(14) 0.00544 51.8 122.6
173(13) 0.00579 51.8 119.5
157(13) 0.00638 51.8 116.6
158(13) 0.00633 51.8 114.2
144(12) 0.00697 51.7 112.9
144(12) 0.00694 51.7 113.0
130(11) 0.00768 51.7 114.8
127(11) 0.00789 51.7 118.3
128(11) 0.00780 51.6 123.6
137(12) 0.00731 51.6 130.6
139(12) 0.00722 51.6 139.0
151(12) 0.00663 51.6 148.4
162(13) 0.00618 51.6 158.3
172(13) 0.00582 51.5 167.9
189(14) 0.00528 51.5 176.4
191(14) 0.00523 51.5 183.0
191(14) 0.00523 51.4 187.0
205(14) 0.00487 51.4 188.0
201(14) 0.00499 51.4 185.9
195(14) 0.00513 51.4 181.2
195(14) 0.00513 51.3 174.8
175(13) 0.00571 51.3 167.4
168(13) 0.00594 51.3 159.9
167(13) 0.00601 51.2 153.0
153(12) 0.00654 51.2 147.0
148(12) 0.00676 51.1 142.2
147(12) 0.00681 51.1 138.8
140(12) 0.00716 51.1 136.5
136(12) 0.00738 51.0 135.1
138(12) 0.00726 51.0 134.3
135(12) 0.00741 51.0 133.5
131(11) 0.00763 50.9 132.2
129(11) 0.00778 50.9 130.0
140(12) 0.00717 50.8 126.6
122(11) 0.00818 50.8 122.1
118(11) 0.00851 50.8 116.7
105(10) 0.00950 50.7 110.6
107(10) 0.00932 50.7 104.3
100(10) 0.00998 50.6 98.0
99(10) 0.01008 50.6 91.9
85(9) 0.01179 50.5 86.3
88(9) 0.01139 50.5 81.3
75(9) 0.01330 50.4 76.8
76(9) 0.01318 50.4 73.0
64(8) 0.01559 50.3 69.9
67(8) 0.01491 50.3 67.3
69(8) 0.01448 50.2 65.3
65(8) 0.01528 50.2 63.7
66(8) 0.01517 50.1 62.5
65(8) 0.01539 50.1 61.6
67(8) 0.01491 50.0 60.9
65(8) 0.01528 50.0 60.5
61(8) 0.01635 49.9 60.2
59(8) 0.01682 49.9 60.1
62(8) 0.01606 49.8 60.1
62(8) 0.01602 49.8 60.3
60(8) 0.01656 49.7 60.7
62(8) 0.01615 49.7 61.3
59(8) 0.01691 49.6 62.2
63(8) 0.01586 49.6 63.4
64(8) 0.01570 49.5 65.0
69(8) 0.01448 49.4 67.1
65(8) 0.01551 49.4 69.9
75(9) 0.01327 49.3 73.3
80(9) 0.01243 49.3 77.5
84(9) 0.01192 49.2 82.5
87(9) 0.01144 49.2 88.4
97(10) 0.01037 49.1 95.1
106(10) 0.00946 49.0 102.6
118(11) 0.00848 49.0 110.7
130(11) 0.00772 48.9 119.2
142(12) 0.00706 48.9 127.8
143(12) 0.00701 48.8 136.1
165(13) 0.00605 48.7 143.7
166(13) 0.00603 48.7 150.1
166(13) 0.00601 48.6 155.1
172(13) 0.00582 48.6 158.5
164(13) 0.00608 48.5 160.1
175(13) 0.00572 48.4 160.5
162(13) 0.00617 48.4 159.6
171(13) 0.00586 48.3 157.9
166(13) 0.00602 48.3 155.6
173(13) 0.00577 48.2 152.7
154(12) 0.00647 48.1 149.5
152(12) 0.00659 48.1 145.9
155(12) 0.00647 48.0 141.6
155(12) 0.00647 47.9 136.7
139(12) 0.00721 47.9 131.2
137(12) 0.00732 47.8 125.2
128(11) 0.00780 47.8 119.0
127(11) 0.00790 47.7 113.0
113(11) 0.00885 47.6 107.5
108(10) 0.00925 47.6 102.7
103(10) 0.00973 47.5 98.8
100(10) 0.00998 47.4 96.0
102(10) 0.00982 47.4 94.3
93(10) 0.01078 47.3 93.7
93(10) 0.01074 47.2 94.3
95(10) 0.01052 47.2 95.8
94(10) 0.01067 47.1 98.0
87(9) 0.01146 47.1 100.6
91(10) 0.01094 47.0 103.3
97(10) 0.01029 46.9 105.8
91(10) 0.01099 46.9 107.5
89(9) 0.01122 46.8 108.1
91(10) 0.01103 46.7 107.4
88(9) 0.01137 46.7 105.4
84(9) 0.01194 46.6 102.2
89(9) 0.01129 46.6 98.0
83(9) 0.01210 46.5 93.3
80(9) 0.01254 46.4 88.2
72(8) 0.01387 46.4 83.1
70(8) 0.01421 46.3 78.2
70(8) 0.01431 46.3 73.7
68(8) 0.01480 46.2 69.6
65(8) 0.01547 46.1 65.7
63(8) 0.01586 46.1 62.6
60(8) 0.01678 46.0 60.0
58(8) 0.01713 46.0 57.9
55(7) 0.01807 45.9 56.2
56(8) 0.01778 45.8 54.9
50(7) 0.01989 45.8 53.9
53(7) 0.01877 45.7 53.0
54(7) 0.01861 45.7 52.4
52(7) 0.01940 45.6 51.9
51(7) 0.01978 45.6 51.4
53(7) 0.01882 45.5 51.0
45(7) 0.02221 45.4 50.7
46(7) 0.02163 45.4 50.4
47(7) 0.02131 45.3 50.1
50(7) 0.02012 45.3 49.6
45(7) 0.02234 45.2 49.4
47(7) 0.02113 45.2 49.1
42(6) 0.02381 45.1 48.8
47(7) 0.02125 45.1 48.6
44(7) 0.02296 45.0 48.4
47(7) 0.02144 45.0 48.2
45(7) 0.02228 44.9 48.1
45(7) 0.02201 44.9 48.0
42(6) 0.02381 44.8 47.9
44(7) 0.02255 44.8 47.8
42(6) 0.02381 44.7 47.7
44(7) 0.02275 44.7 47.7
45(7) 0.02214 44.6 47.7
43(7) 0.02303 44.6 47.8
44(7) 0.02261 44.5 47.9
45(7) 0.02201 44.5 48.0
43(7) 0.02338 44.4 48.1
42(6) 0.02389 44.4 48.3
40(6) 0.02472 44.3 48.5
44(7) 0.02268 44.3 48.7
41(6) 0.02426 44.3 49.0
46(7) 0.02175 44.2 49.2
44(7) 0.02275 44.2 49.4
47(7) 0.02137 44.1 49.6
45(7) 0.02208 44.1 49.7
45(7) 0.02228 44.1 49.7
44(7) 0.02255 44.0 49.7
49(7) 0.02058 44.0 49.6
48(7) 0.02070 43.9 49.6
48(7) 0.02076 43.9 49.4
48(7) 0.02076 43.9 49.3
44(7) 0.02282 43.8 49.1
46(7) 0.02163 43.8 49.1
44(7) 0.02268 43.8 49.0
47(7) 0.02125 43.7 49.0
50(7) 0.01989 43.7 49.2
45(7) 0.02201 43.7 49.4
48(7) 0.02094 43.7 49.7
51(7) 0.01962 43.6 50.1
48(7) 0.02070 43.6 50.6
54(7) 0.01846 43.6 51.2
55(7) 0.01807 43.5 51.8
51(7) 0.01945 43.5 52.7
52(7) 0.01929 43.5 53.5
58(8) 0.01740 43.5 54.6
53(7) 0.01871 43.4 55.7
53(7) 0.01871 43.4 56.9
60(8) 0.01674 43.4 58.3
60(8) 0.01682 43.4 59.9
60(8) 0.01665 43.4 61.8
64(8) 0.01559 43.3 64.0
65(8) 0.01543 43.3 66.5
74(9) 0.01346 43.3 69.6
72(8) 0.01387 43.3 73.1
76(9) 0.01318 43.3 77.2
78(9) 0.01288 43.3 81.9
83(9) 0.01200 43.3 87.1
94(10) 0.01058 43.2 92.6
93(10) 0.01072 43.2 98.3
96(10) 0.01048 43.2 104.0
105(10) 0.00950 43.2 109.5
105(10) 0.00956 43.2 114.3
114(11) 0.00875 43.2 118.4
112(11) 0.00892 43.2 121.4
116(11) 0.00861 43.2 123.3
113(11) 0.00883 43.2 123.9
115(11) 0.00870 43.2 123.5
114(11) 0.00877 43.2 122.4
117(11) 0.00854 43.2 120.7
111(11) 0.00900 43.2 118.9
109(10) 0.00919 43.2 116.9
105(10) 0.00952 43.2 115.1
104(10) 0.00965 43.2 113.3
101(10) 0.00990 43.2 111.4
105(10) 0.00954 43.2 109.5
101(10) 0.00990 43.2 107.4
104(10) 0.00965 43.2 105.2
99(10) 0.01012 43.2 102.8
97(10) 0.01029 43.2 100.5
96(10) 0.01043 43.2 98.2
101(10) 0.00986 43.2 96.1
95(10) 0.01052 43.2 94.2
93(10) 0.01076 43.2 92.3
90(10) 0.01106 43.3 90.3
97(10) 0.01029 43.3 88.3
93(10) 0.01076 43.3 86.0
81(9) 0.01235 43.3 83.4
87(9) 0.01154 43.3 80.6
81(9) 0.01229 43.3 77.4
86(9) 0.01169 43.4 74.2
79(9) 0.01260 43.4 70.9
70(8) 0.01424 43.4 67.8
74(9) 0.01358 43.4 64.8
69(8) 0.01455 43.4 62.1
68(8) 0.01469 43.5 59.6
63(8) 0.01578 43.5 57.3
63(8) 0.01586 43.5 55.4
52(7) 0.01929 43.5 53.8
55(7) 0.01831 43.6 52.4
52(7) 0.01908 43.6 51.3
50(7) 0.01989 43.6 50.4
51(7) 0.01945 43.6 49.7
49(7) 0.02035 43.7 49.1
51(7) 0.01945 43.7 48.6
51(7) 0.01967 43.7 48.3
49(7) 0.02047 43.8 48.0
47(7) 0.02137 43.8 47.8
48(7) 0.02070 43.8 47.7
48(7) 0.02107 43.9 47.6
47(7) 0.02113 43.9 47.5
47(7) 0.02137 43.9 47.5
47(7) 0.02144 44.0 47.5
48(7) 0.02100 44.0 47.4
47(7) 0.02137 44.1 47.6
45(7) 0.02221 44.1 47.7
48(7) 0.02064 44.1 47.8
47(7) 0.02137 44.2 47.8
45(7) 0.02201 44.2 47.9
45(7) 0.02228 44.3 48.1
48(7) 0.02107 44.3 48.2
47(7) 0.02125 44.4 48.4
45(7) 0.02201 44.4 48.6
45(7) 0.02234 44.4 48.9
48(7) 0.02070 44.5 49.3
48(7) 0.02082 44.5 49.8
50(7) 0.02012 44.6 50.4
52(7) 0.01934 44.6 51.2
54(7) 0.01841 44.7 52.3
53(7) 0.01871 44.7 53.5
56(7) 0.01787 44.8 55.0
59(8) 0.01687 44.8 56.7
65(8) 0.01539 44.9 58.8
68(8) 0.01480 44.9 61.3
76(9) 0.01318 45.0 64.0
77(9) 0.01303 45.0 67.1
74(9) 0.01358 45.1 70.4
81(9) 0.01235 45.2 73.9
97(10) 0.01029 45.2 77.4
97(10) 0.01033 45.3 80.9
99(10) 0.01012 45.3 84.1
102(10) 0.00984 45.4 86.8
109(10) 0.00921 45.4 88.9
108(10) 0.00928 45.5 90.3
114(11) 0.00875 45.6 90.8
111(11) 0.00904 45.6 90.4
113(11) 0.00887 45.7 89.5
110(10) 0.00909 45.7 88.1
103(10) 0.00969 45.8 86.4
98(10) 0.01027 45.9 84.7
100(10) 0.01004 45.9 83.1
104(10) 0.00965 46.0 81.8
96(10) 0.01043 46.1 80.7
100(10) 0.00996 46.1 79.9
97(10) 0.01027 46.2 79.4
91(10) 0.01103 46.2 79.0
86(9) 0.01166 46.3 78.8
90(9) 0.01110 46.4 78.5
87(9) 0.01156 46.4 78.1
83(9) 0.01202 46.5 77.5
79(9) 0.01260 46.6 76.7
82(9) 0.01226 46.6 75.7
76(9) 0.01312 46.7 74.7
79(9) 0.01268 46.8 73.6
77(9) 0.01303 46.8 72.7
70(8) 0.01438 46.9 71.9
77(9) 0.01303 47.0 71.2
78(9) 0.01283 47.0 70.8
71(8) 0.01417 47.1 70.5
72(8) 0.01397 47.2 70.5
73(9) 0.01365 47.2 70.6
74(9) 0.01358 47.3 70.9
73(9) 0.01381 47.4 71.4
67(8) 0.01498 47.5 72.0
76(9) 0.01309 47.5 72.7
72(8) 0.01387 47.6 73.4
71(8) 0.01417 47.7 74.3
74(9) 0.01343 47.7 75.2
73(9) 0.01365 47.8 75.9
77(9) 0.01297 47.9 76.5
73(9) 0.01362 47.9 76.9
74(9) 0.01355 48.0 77.2
78(9) 0.01280 48.1 77.3
77(9) 0.01303 48.1 77.3
80(9) 0.01251 48.2 77.2
74(9) 0.01349 48.3 77.1
77(9) 0.01306 48.4 77.1
74(9) 0.01352 48.4 77.2
75(9) 0.01330 48.5 77.5
72(8) 0.01397 48.6 78.0
73(9) 0.01368 48.6 78.6
79(9) 0.01271 48.7 79.5
74(9) 0.01358 48.8 80.4
83(9) 0.01202 48.8 81.5
74(9) 0.01343 48.9 82.4
84(9) 0.01184 49.0 83.3
83(9) 0.01210 49.1 84.0
77(9) 0.01294 49.1 84.4
83(9) 0.01202 49.2 84.6
79(9) 0.01268 49.3 84.7
81(9) 0.01232 49.3 84.8
87(9) 0.01151 49.4 84.7
83(9) 0.01208 49.5 84.8
84(9) 0.01189 49.5 85.0
82(9) 0.01216 49.6 85.2
82(9) 0.01221 49.7 85.3
94(10) 0.01069 49.7 85.5
92(10) 0.01092 49.8 85.6
95(10) 0.01056 49.9 85.6
93(10) 0.01078 49.9 85.5
92(10) 0.01087 50.0 85.4
92(10) 0.01092 50.1 85.5
96(10) 0.01037 50.1 85.9
98(10) 0.01020 50.2 86.8
100(10) 0.01002 50.3 88.5
100(10) 0.01006 50.3 90.9
101(10) 0.00990 50.4 94.2
99(10) 0.01012 50.4 98.7
106(10) 0.00943 50.5 104.2
116(11) 0.00862 50.6 110.8
123(11) 0.00815 50.6 118.5
123(11) 0.00812 50.7 127.1
130(11) 0.00771 50.8 136.2
144(12) 0.00696 50.8 145.8
151(12) 0.00661 50.9 155.2
160(13) 0.00625 50.9 164.1
169(13) 0.00593 51.0 172.0
170(13) 0.00587 51.1 178.2
174(13) 0.00575 51.1 182.4
168(13) 0.00597 51.2 184.4
177(13) 0.00564 51.2 184.2
167(13) 0.00598 51.3 182.2
170(13) 0.00589 51.3 178.7
166(13) 0.00601 51.4 174.4
172(13) 0.00582 51.4 169.7
172(13) 0.00583 51.5 165.0
166(13) 0.00604 51.6 160.5
172(13) 0.00580 51.6 156.4
159(13) 0.00629 51.7 152.6
169(13) 0.00590 51.7 149.0
157(13) 0.00638 51.8 145.4
160(13) 0.00626 51.8 141.5
159(13) 0.00628 51.9 137.2
149(12) 0.00673 51.9 132.3
143(12) 0.00700 52.0 127.0
130(11) 0.00771 52.0 121.1
130(11) 0.00767 52.1 115.1
117(11) 0.00857 52.1 109.0
112(11) 0.00895 52.1 103.0
101(10) 0.00986 52.2 97.4
99(10) 0.01016 52.2 92.1
92(10) 0.01085 52.3 87.3
86(9) 0.01156 52.3 83.0
75(9) 0.01327 52.4 79.2
75(9) 0.01336 52.4 75.9
72(8) 0.01391 52.4 73.2
65(8) 0.01543 52.5 70.9
69(8) 0.01455 52.5 69.0
65(8) 0.01532 52.6 67.4
66(8) 0.01528 52.6 66.1
65(8) 0.01539 52.6 65.1
64(8) 0.01570 52.7 64.3
60(8) 0.01678 52.7 63.6
60(8) 0.01669 52.7 63.0
61(8) 0.01644 52.8 62.5
59(8) 0.01687 52.8 62.0
57(8) 0.01768 52.8 61.6
57(8) 0.01745 52.8 61.3
55(7) 0.01807 52.9 61.1
58(8) 0.01727 52.9 60.9
57(8) 0.01759 52.9 61.0
57(8) 0.01768 53.0 60.9
58(8) 0.01731 53.0 61.1
59(8) 0.01709 53.0 61.3
60(8) 0.01669 53.0 61.7
59(8) 0.01691 53.1 62.3
60(8) 0.01682 53.1 63.1
60(8) 0.01661 53.1 64.1
58(8) 0.01713 53.1 65.3
62(8) 0.01610 53.1 66.9
63(8) 0.01594 53.2 68.8
63(8) 0.01586 53.2 70.9
66(8) 0.01513 53.2 73.4
72(8) 0.01397 53.2 76.2
72(8) 0.01387 53.2 79.2
69(8) 0.01455 53.2 82.3
81(9) 0.01243 53.2 85.5
83(9) 0.01208 53.3 88.6
80(9) 0.01246 53.3 91.5
83(9) 0.01210 53.3 94.1
93(10) 0.01081 53.3 96.1
87(9) 0.01151 53.3 97.4
81(9) 0.01240 53.3 97.9
84(9) 0.01189 53.3 97.7
85(9) 0.01181 53.3 96.7
85(9) 0.01176 53.3 95.2
83(9) 0.01210 53.3 93.4
85(9) 0.01181 53.3 91.3
77(9) 0.01300 53.3 89.3
76(9) 0.01315 53.3 87.5
79(9) 0.01268 53.3 85.9
77(9) 0.01300 53.3 84.6
78(9) 0.01291 53.3 83.8
76(9) 0.01324 53.3 83.5
76(9) 0.01309 53.3 83.6
81(9) 0.01237 53.3 84.2
81(9) 0.01232 53.3 85.2
79(9) 0.01262 53.3 86.7
77(9) 0.01294 53.3 88.6
84(9) 0.01187 53.3 90.9
83(9) 0.01202 53.3 93.6
86(9) 0.01166 53.3 96.7
90(9) 0.01113 53.3 100.1
93(10) 0.01074 53.2 103.8
91(10) 0.01101 53.2 107.5
95(10) 0.01054 53.2 111.3
97(10) 0.01029 53.2 114.8
100(10) 0.01006 53.2 118.0
102(10) 0.00982 53.2 120.6
115(11) 0.00872 53.2 122.6
112(11) 0.00890 53.1 124.0
117(11) 0.00854 53.1 124.8
115(11) 0.00869 53.1 124.9
127(11) 0.00786 53.1 124.5
129(11) 0.00774 53.1 123.7
135(12) 0.00742 53.0 122.2
132(11) 0.00757 53.0 120.3
130(11) 0.00771 53.0 117.8
124(11) 0.00807 53.0 114.8
122(11) 0.00819 52.9 111.2
112(11) 0.00893 52.9 107.2
113(11) 0.00885 52.9 102.9
110(11) 0.00907 52.9 98.4
101(10) 0.00990 52.8 93.9
96(10) 0.01039 52.8 89.6
90(10) 0.01108 52.8 85.5
87(9) 0.01156 52.7 81.6
81(9) 0.01237 52.7 78.2
84(9) 0.01194 52.7 75.1
79(9) 0.01265 52.6 72.4
75(9) 0.01340 52.6 70.1
72(9) 0.01384 52.6 68.2
71(8) 0.01404 52.5 66.5
67(8) 0.01487 52.5 65.2
68(8) 0.01473 52.5 64.3
64(8) 0.01559 52.4 63.6
64(8) 0.01566 52.4 63.2
64(8) 0.01574 52.4 63.1
66(8) 0.01517 52.3 63.1
67(8) 0.01487 52.3 63.4
65(8) 0.01539 52.2 63.8
69(8) 0.01455 52.2 64.5
67(8) 0.01502 52.2 65.4
66(8) 0.01517 52.1 66.5
75(9) 0.01327 52.1 67.9
74(9) 0.01358 52.0 69.4
81(9) 0.01240 52.0 71.1
81(9) 0.01229 51.9 73.1
85(9) 0.01184 51.9 75.2
81(9) 0.01232 51.8 77.5
86(9) 0.01164 51.8 79.9
91(10) 0.01099 51.8 82.4
94(10) 0.01069 51.7 84.9
99(10) 0.01012 51.7 87.4
103(10) 0.00971 51.6 89.8
110(11) 0.00907 51.6 92.3
110(10) 0.00910 51.5 94.8
104(10) 0.00965 51.5 97.5
114(11) 0.00878 51.4 100.7
118(11) 0.00851 51.4 104.5
117(11) 0.00853 51.3 109.2
118(11) 0.00849 51.3 115.0
121(11) 0.00826 51.2 122.0
127(11) 0.00790 51.2 130.5
133(12) 0.00752 51.1 140.3
149(12) 0.00671 51.0 151.5
151(12) 0.00663 51.0 164.0
168(13) 0.00595 50.9 177.3
186(14) 0.00537 50.9 191.2
200(14) 0.00500 50.8 205.2
205(14) 0.00489 50.8 218.5
217(15) 0.00460 50.7 230.5
233(15) 0.00429 50.7 240.4
238(15) 0.00421 50.6 247.5
240(15) 0.00417 50.6 251.4
240(15) 0.00417 50.5 251.6
237(15) 0.00422 50.4 248.2
237(15) 0.00422 50.4 241.4
211(15) 0.00473 50.3 231.8
207(14) 0.00483 50.3 219.9
202(14) 0.00495 50.2 206.5
183(14) 0.00546 50.2 192.3
169(13) 0.00594 50.1 177.8
159(13) 0.00631 50.1 163.6
146(12) 0.00686 50.0 150.1
131(11) 0.00763 49.9 137.5
126(11) 0.00793 49.9 126.1
115(11) 0.00872 49.8 115.8
105(10) 0.00948 49.8 106.7
100(10) 0.01004 49.7 98.8
92(10) 0.01083 49.6 92.0
90(9) 0.01115 49.6 86.2
83(9) 0.01202 49.5 81.3
78(9) 0.01277 49.5 77.2
77(9) 0.01303 49.4 73.8
77(9) 0.01303 49.4 71.0
78(9) 0.01283 49.3 68.7
70(8) 0.01424 49.2 66.9
73(9) 0.01365 49.2 65.5
66(8) 0.01517 49.1 64.5
70(8) 0.01427 49.1 63.9
63(8) 0.01594 49.0 63.5
65(8) 0.01532 49.0 63.4
65(8) 0.01539 48.9 63.6
67(8) 0.01502 48.8 64.1
70(8) 0.01427 48.8 64.9
65(8) 0.01547 48.7 65.9
67(8) 0.01494 48.7 67.1
70(8) 0.01438 48.6 68.4
68(8) 0.01480 48.6 70.0
64(8) 0.01570 48.5 71.6
68(8) 0.01476 48.4 73.2
77(9) 0.01300 48.4 74.8
77(9) 0.01306 48.3 76.3
77(9) 0.01294 48.3 77.5
75(9) 0.01343 48.2 78.5
81(9) 0.01229 48.2 79.2
75(9) 0.01333 48.1 79.6
76(9) 0.01324 48.1 79.6
83(9) 0.01205 48.0 79.3
76(9) 0.01309 48.0 78.9
81(9) 0.01235 47.9 78.2
79(9) 0.01265 47.9 77.5
80(9) 0.01254 47.8 76.7
80(9) 0.01254 47.8 76.1
80(9) 0.01246 47.7 75.5
86(9) 0.01161 47.7 75.0
83(9) 0.01205 47.6 74.7
76(9) 0.01315 47.6 74.6
78(9) 0.01291 47.5 74.4
85(9) 0.01179 47.5 74.3
80(9) 0.01248 47.4 74.1
77(9) 0.01297 47.4 73.7
78(9) 0.01280 47.3 73.1
78(9) 0.01277 47.3 72.3
76(9) 0.01324 47.2 71.3
77(9) 0.01294 47.2 70.0
79(9) 0.01271 47.1 68.5
74(9) 0.01362 47.1 67.0
69(8) 0.01455 47.0 65.4
68(8) 0.01476 47.0 63.8
66(8) 0.01509 47.0 62.2
69(8) 0.01459 46.9 60.8
60(8) 0.01674 46.9 59.5
61(8) 0.01635 46.8 58.3
68(8) 0.01476 46.8 57.4
58(8) 0.01718 46.7 56.6
60(8) 0.01656 46.7 56.0
59(8) 0.01700 46.7 55.6
58(8) 0.01736 46.6 55.4
61(8) 0.01644 46.6 55.4
60(8) 0.01674 46.6 55.5
58(8) 0.01740 46.5 55.8
58(8) 0.01731 46.5 56.3
58(8) 0.01727 46.5 56.9
63(8) 0.01582 46.4 57.7
60(8) 0.01674 46.4 58.6
64(8) 0.01570 46.4 59.6
65(8) 0.01539 46.3 60.7
65(8) 0.01532 46.3 62.0
70(8) 0.01434 46.3 63.2
62(8) 0.01610 46.2 64.6
68(8) 0.01476 46.2 66.0
67(8) 0.01494 46.2 67.5
67(8) 0.01484 46.2 69.0
70(8) 0.01427 46.1 70.7
71(8) 0.01417 46.1 72.5
76(9) 0.01312 46.1 74.5
77(9) 0.01303 46.0 76.8
74(9) 0.01343 46.0 79.2
77(9) 0.01297 46.0 81.9
81(9) 0.01237 46.0 84.9
84(9) 0.01189 46.0 88.1
82(9) 0.01213 45.9 91.5
92(10) 0.01090 45.9 95.0
95(10) 0.01050 45.9 98.6
93(10) 0.01072 45.9 102.4
102(10) 0.00982 45.9 106.0
106(10) 0.00946 45.9 109.6
104(10) 0.00959 45.8 112.9
108(10) 0.00928 45.8 115.6
114(11) 0.00880 45.8 117.7
111(11) 0.00900 45.8 118.8
106(10) 0.00944 45.8 118.8
112(11) 0.00890 45.8 117.6
107(10) 0.00939 45.8 115.3
97(10) 0.01027 45.8 111.9
101(10) 0.00988 45.8 107.6
93(10) 0.01072 45.7 102.8
91(10) 0.01106 45.7 97.5
85(9) 0.01179 45.7 92.3
83(9) 0.01213 45.7 87.0
80(9) 0.01254 45.7 81.9
76(9) 0.01315 45.7 77.2
72(8) 0.01397 45.7 72.9
71(8) 0.01417 45.7 69.0
67(8) 0.01491 45.7 65.6
66(8) 0.01520 45.7 62.6
59(8) 0.01691 45.7 60.1
64(8) 0.01555 45.7 57.9
56(7) 0.01787 45.7 56.2
60(8) 0.01678 45.7 54.7
57(8) 0.01768 45.7 53.6
52(7) 0.01918 45.8 52.7
56(7) 0.01797 45.8 51.9
54(7) 0.01846 45.8 51.4
51(7) 0.01951 45.8 51.0
54(7) 0.01866 45.8 50.6
52(7) 0.01929 45.8 50.4
53(7) 0.01902 45.8 50.2
51(7) 0.01978 45.8 50.1
56(7) 0.01792 45.8 50.0
56(7) 0.01797 45.8 50.0
53(7) 0.01897 45.9 49.9
56(8) 0.01773 45.9 50.0
51(7) 0.01967 45.9 50.0
53(7) 0.01892 45.9 50.1
51(7) 0.01973 45.9 50.2
52(7) 0.01918 46.0 50.4
52(7) 0.01913 46.0 50.6
53(7) 0.01902 46.0 50.8
51(7) 0.01973 46.0 51.2
52(7) 0.01929 46.0 51.6
47(7) 0.02150 46.1 52.0
55(7) 0.01831 46.1 52.6
52(7) 0.01929 46.1 53.2
50(7) 0.02018 46.1 54.0
55(7) 0.01836 46.2 54.8
56(8) 0.01778 46.2 55.6
56(7) 0.01787 46.2 56.5
55(7) 0.01821 46.3 57.5
61(8) 0.01631 46.3 58.5
61(8) 0.01652 46.3 59.4
56(8) 0.01773 46.4 60.3
61(8) 0.01652 46.4 61.1
56(7) 0.01797 46.4 61.7
64(8) 0.01574 46.5 62.2
61(8) 0.01639 46.5 62.4
62(8) 0.01623 46.5 62.5
60(8) 0.01682 46.6 62.5
58(8) 0.01713 46.6 62.4
59(8) 0.01700 46.6 62.2
62(8) 0.01602 46.7 62.1
58(8) 0.01722 46.7 62.2
60(8) 0.01656 46.8 62.3
59(8) 0.01700 46.8 62.8
62(8) 0.01606 46.8 63.5
62(8) 0.01615 46.9 64.5
62(8) 0.01606 46.9 65.8
65(8) 0.01532 47.0 67.5
67(8) 0.01491 47.0 69.5
67(8) 0.01491 47.1 71.9
71(8) 0.01414 47.1 74.4
76(9) 0.01321 47.2 77.2
76(9) 0.01318 47.2 80.1
81(9) 0.01240 47.3 83.0
77(9) 0.01294 47.3 85.7
82(9) 0.01213 47.3 88.1
83(9) 0.01202 47.4 90.1
89(9) 0.01127 47.4 91.5
93(10) 0.01074 47.5 92.3
89(9) 0.01122 47.6 92.3
94(10) 0.01063 47.6 91.7
92(10) 0.01087 47.7 90.5
87(9) 0.01144 47.7 88.8
85(9) 0.01184 47.8 86.8
85(9) 0.01174 47.8 84.7
83(9) 0.01202 47.9 82.6
80(9) 0.01257 47.9 80.7
77(9) 0.01294 48.0 79.0
78(9) 0.01291 48.0 77.7
66(8) 0.01517 48.1 76.8
73(9) 0.01374 48.2 76.3
71(8) 0.01401 48.2 76.2
69(8) 0.01455 48.3 76.5
75(9) 0.01343 48.3 77.1
71(8) 0.01407 48.4 78.1
69(8) 0.01448 48.4 79.3
71(8) 0.01404 48.5 80.5
74(9) 0.01352 48.6 81.7
74(9) 0.01349 48.6 82.8
82(9) 0.01224 48.7 83.6
74(9) 0.01355 48.7 84.1
72(8) 0.01397 48.8 84.2
77(9) 0.01294 48.9 83.8
75(9) 0.01330 48.9 83.2
73(9) 0.01378 49.0 82.2
77(9) 0.01297 49.1 81.0
72(9) 0.01384 49.1 79.6
75(9) 0.01340 49.2 78.1
78(9) 0.01291 49.2 76.6
70(8) 0.01434 49.3 75.0
69(8) 0.01452 49.4 73.5
66(8) 0.01506 49.4 72.0
72(8) 0.01387 49.5 70.6
68(8) 0.01469 49.6 69.1
62(8) 0.01610 49.6 67.8
65(8) 0.01547 49.7 66.6
70(8) 0.01438 49.8 65.6
62(8) 0.01602 49.8 64.6
61(8) 0.01635 49.9 63.9
69(8) 0.01448 50.0 63.3
64(8) 0.01555 50.0 62.8
70(8) 0.01434 50.1 62.5
64(8) 0.01570 50.2 62.3
62(8) 0.01610 50.2 62.2
66(8) 0.01517 50.3 62.3
64(8) 0.01566 50.3 62.4
69(8) 0.01459 50.4 62.7
64(8) 0.01574 50.5 63.1
67(8) 0.01502 50.5 63.7
69(8) 0.01459 50.6 64.2
71(8) 0.01417 50.7 64.9
78(9) 0.01277 50.7 65.7
75(9) 0.01327 50.8 66.4
81(9) 0.01229 50.9 67.2
79(9) 0.01265 50.9 68.1
79(9) 0.01260 51.0 68.9
77(9) 0.01303 51.1 69.7
82(9) 0.01218 51.1 70.3
85(9) 0.01174 51.2 70.8
90(9) 0.01115 51.3 71.0
83(9) 0.01202 51.3 71.0
86(9) 0.01169 51.4 70.8
82(9) 0.01218 51.5 70.3
83(9) 0.01208 51.5 69.5
81(9) 0.01232 51.6 68.7
80(9) 0.01254 51.6 67.7
72(8) 0.01387 51.7 66.6
71(8) 0.01407 51.8 65.5
69(8) 0.01459 51.8 64.4
65(8) 0.01536 51.9 63.4
67(8) 0.01487 52.0 62.5
65(8) 0.01539 52.0 61.7
61(8) 0.01635 52.1 61.0
59(8) 0.01691 52.1 60.4
54(7) 0.01856 52.2 60.0
56(8) 0.01773 52.3 59.8
62(8) 0.01606 52.3 59.7
60(8) 0.01678 52.4 59.7
52(7) 0.01940 52.4 59.9
58(8) 0.01713 52.5 60.2
59(8) 0.01691 52.6 60.7
58(8) 0.01722 52.6 61.3
60(8) 0.01674 52.7 62.0
62(8) 0.01606 52.7 62.9
64(8) 0.01570 52.8 63.9
66(8) 0.01524 52.8 64.9
68(8) 0.01469 52.9 66.0
72(9) 0.01384 52.9 67.2
68(8) 0.01473 53.0 68.4
75(9) 0.01330 53.1 69.6
74(9) 0.01358 53.1 70.8
76(9) 0.01315 53.2 71.8
80(9) 0.01257 53.2 72.8
77(9) 0.01300 53.3 73.7
77(9) 0.01294 53.3 74.5
82(9) 0.01218 53.4 75.2
82(9) 0.01226 53.4 75.8
79(9) 0.01262 53.5 76.3
83(9) 0.01213 53.5 76.7
77(9) 0.01306 53.6 77.1
84(9) 0.01184 53.6 77.4
76(9) 0.01318 53.6 77.6
77(9) 0.01300 53.7 77.8
76(9) 0.01321 53.7 78.0
77(9) 0.01294 53.8 78.2
73(9) 0.01371 53.8 78.4
75(9) 0.01330 53.9 78.6
77(9) 0.01294 53.9 78.9
73(9) 0.01374 54.0 79.3
74(9) 0.01358 54.0 79.8
75(9) 0.01336 54.0 80.3
73(9) 0.01374 54.1 80.9
79(9) 0.01265 54.1 81.6
80(9) 0.01246 54.2 82.2
76(9) 0.01309 54.2 82.7
81(9) 0.01232 54.2 83.3
83(9) 0.01202 54.3 83.8
84(9) 0.01189 54.3 84.2
86(9) 0.01166 54.3 84.6
87(9) 0.01144 54.4 85.1
88(9) 0.01132 54.4 85.6
95(10) 0.01054 54.4 86.2
88(9) 0.01132 54.5 86.9
86(9) 0.01156 54.5 87.7
95(10) 0.01054 54.5 88.7
96(10) 0.01041 54.5 89.9
100(10) 0.01002 54.6 91.3
96(10) 0.01041 54.6 93.0
99(10) 0.01012 54.6 95.1
101(10) 0.00994 54.7 97.6
98(10) 0.01024 54.7 100.6
100(10) 0.00998 54.7 104.1
100(10) 0.01004 54.7 108.1
112(11) 0.00893 54.7 112.6
106(10) 0.00939 54.8 117.6
117(11) 0.00851 54.8 123.0
127(11) 0.00789 54.8 128.7
128(11) 0.00780 54.8 134.6
148(12) 0.00675 54.8 140.6
150(12) 0.00665 54.9 146.4
168(13) 0.00595 54.9 152.0
180(13) 0.00556 54.9 157.3
186(14) 0.00537 54.9 162.0
192(14) 0.00521 54.9 166.1
194(14) 0.00517 54.9 169.4
191(14) 0.00523 54.9 172.0
200(14) 0.00499 54.9 173.8
201(14) 0.00497 55.0 174.7
201(14) 0.00498 55.0 175.0
191(14) 0.00524 55.0 174.5
190(14) 0.00526 55.0 173.4
189(14) 0.00530 55.0 171.8
178(13) 0.00560 55.0 169.8
176(13) 0.00568 55.0 167.4
175(13) 0.00573 55.0 164.7
176(13) 0.00567 55.0 161.8
172(13) 0.00580 55.0 158.8
156(12) 0.00641 55.0 155.7
162(13) 0.00618 55.0 152.8
158(13) 0.00635 55.0 149.8
157(13) 0.00639 55.0 147.1
152(12) 0.00660 55.0 144.4
154(12) 0.00647 55.0 141.8
142(12) 0.00704 55.0 139.2
147(12) 0.00679 55.0 136.7
145(12) 0.00692 55.0 134.2
140(12) 0.00717 55.0 131.8
126(11) 0.00796 54.9 129.5
127(11) 0.00787 54.9 127.2
121(11) 0.00826 54.9 125.0
116(11) 0.00865 54.9 122.9
118(11) 0.00849 54.9 121.1
111(11) 0.00900 54.9 119.4
110(10) 0.00910 54.9 117.9
109(10) 0.00916 54.8 116.5
101(10) 0.00990 54.8 115.4
106(10) 0.00943 54.8 114.3
104(10) 0.00963 54.8 113.2
98(10) 0.01020 54.8 112.1
98(10) 0.01024 54.8 110.8
95(10) 0.01052 54.7 109.2
94(10) 0.01065 54.7 107.3
99(10) 0.01014 54.7 105.0
89(9) 0.01122 54.7 102.4
88(9) 0.01137 54.6 99.5
84(9) 0.01192 54.6 96.3
83(9) 0.01200 54.6 93.1
80(9) 0.01246 54.6 89.8
78(9) 0.01277 54.5 86.6
70(8) 0.01421 54.5 83.4
78(9) 0.01277 54.5 80.4
77(9) 0.01303 54.4 77.6
73(9) 0.01371 54.4 75.1
73(9) 0.01374 54.4 72.8
69(8) 0.01455 54.3 70.8
72(8) 0.01397 54.3 69.1
63(8) 0.01594 54.3 67.6
59(8) 0.01704 54.2 66.3
66(8) 0.01520 54.2 65.3
66(8) 0.01517 54.2 64.5
64(8) 0.01566 54.1 63.9
63(8) 0.01586 54.1 63.5
62(8) 0.01610 54.1 63.2
62(8) 0.01606 54.0 63.0
63(8) 0.01590 54.0 62.9
62(8) 0.01606 53.9 62.8
61(8) 0.01652 53.9 62.9
58(8) 0.01722 53.8 62.9
64(8) 0.01559 53.8 63.0
60(8) 0.01678 53.8 63.1
61(8) 0.01648 53.7 63.2
65(8) 0.01551 53.7 63.2
59(8) 0.01700 53.6 63.3
58(8) 0.01727 53.6 63.4
61(8) 0.01635 53.5 63.6
58(8) 0.01718 53.5 63.7
62(8) 0.01619 53.4 63.9
61(8) 0.01627 53.4 64.1
63(8) 0.01586 53.3 64.4
62(8) 0.01615 53.3 64.6
63(8) 0.01598 53.2 64.9
63(8) 0.01590 53.2 65.2
62(8) 0.01615 53.1 65.5
61(8) 0.01627 53.1 65.7
62(8) 0.01615 53.0 65.9
65(8) 0.01547 53.0 66.1
68(8) 0.01466 52.9 66.2
66(8) 0.01524 52.9 66.3
66(8) 0.01513 52.8 66.2
63(8) 0.01598 52.7 66.1
62(8) 0.01623 52.7 65.8
63(8) 0.01598 52.6 65.5
65(8) 0.01543 52.6 65.1
63(8) 0.01594 52.5 64.7
61(8) 0.01635 52.5 64.2
63(8) 0.01594 52.4 63.6
61(8) 0.01644 52.3 63.0
61(8) 0.01631 52.3 62.4
60(8) 0.01674 52.2 61.8
60(8) 0.01661 52.2 61.3
58(8) 0.01731 52.1 60.7
56(7) 0.01797 52.0 60.3
58(8) 0.01727 52.0 59.9
58(8) 0.01713 51.9 59.5
55(7) 0.01826 51.8 59.2
58(8) 0.01736 51.8 59.0
61(8) 0.01652 51.7 58.9
59(8) 0.01682 51.7 58.8
54(7) 0.01856 51.6 58.8
61(8) 0.01635 51.5 58.9
58(8) 0.01713 51.5 59.0
61(8) 0.01635 51.4 59.1
56(8) 0.01778 51.3 59.3
62(8) 0.01602 51.3 59.4
58(8) 0.01736 51.2 59.6
60(8) 0.01669 51.1 59.8
56(7) 0.01783 51.1 60.0
55(7) 0.01816 51.0 60.2
60(8) 0.01674 50.9 60.4
66(8) 0.01520 50.9 60.5
59(8) 0.01682 50.8 60.7
63(8) 0.01598 50.7 60.9
63(8) 0.01582 50.7 61.1
66(8) 0.01509 50.6 61.3
64(8) 0.01555 50.5 61.5
58(8) 0.01713 50.5 61.7
61(8) 0.01652 50.4 61.9
63(8) 0.01594 50.3 62.2
60(8) 0.01674 50.3 62.6
67(8) 0.01498 50.2 63.1
62(8) 0.01615 50.1 63.7
64(8) 0.01566 50.1 64.6
61(8) 0.01652 50.0 65.6
71(8) 0.01404 49.9 66.9
72(9) 0.01384 49.8 68.4
75(9) 0.01330 49.8 70.2
75(9) 0.01330 49.7 72.3
73(9) 0.01378 49.6 74.8
73(9) 0.01371 49.6 77.5
79(9) 0.01268 49.5 80.7
86(9) 0.01169 49.4 84.1
90(9) 0.01110 49.4 87.8
95(10) 0.01056 49.3 91.8
101(10) 0.00988 49.2 96.0
103(10) 0.00971 49.2 100.3
110(10) 0.00912 49.1 104.6
122(11) 0.00818 49.0 108.8
126(11) 0.00797 49.0 112.8
123(11) 0.00810 48.9 116.5
127(11) 0.00789 48.8 119.7
136(12) 0.00733 48.8 122.4
129(11) 0.00775 48.7 124.3
135(12) 0.00743 48.6 125.4
137(12) 0.00729 48.6 125.7
133(12) 0.00752 48.5 125.1
124(11) 0.00806 48.4 123.7
123(11) 0.00813 48.4 121.5
121(11) 0.00829 48.3 118.7
117(11) 0.00857 48.2 115.3
110(10) 0.00909 48.2 111.6
103(10) 0.00974 48.1 107.6
99(10) 0.01010 48.1 103.4
99(10) 0.01016 48.0 99.3
97(10) 0.01027 47.9 95.2
84(9) 0.01184 47.9 91.3
87(9) 0.01144 47.8 87.6
82(9) 0.01224 47.7 84.1
79(9) 0.01260 47.7 81.0
79(9) 0.01268 47.6 78.3
81(9) 0.01237 47.6 75.9
74(9) 0.01355 47.5 73.9
74(9) 0.01346 47.4 72.1
73(9) 0.01365 47.4 70.7
70(8) 0.01424 47.3 69.5
74(9) 0.01349 47.3 68.5
67(8) 0.01487 47.2 67.7
76(9) 0.01324 47.1 67.0
75(9) 0.01340 47.1 66.4
71(8) 0.01404 47.0 65.8
68(8) 0.01480 47.0 65.1
68(8) 0.01480 46.9 64.4
68(8) 0.01469 46.9 63.7
68(8) 0.01466 46.8 62.9
61(8) 0.01648 46.7 62.0
64(8) 0.01563 46.7 61.1
64(8) 0.01574 46.6 60.2
61(8) 0.01652 46.6 59.3
60(8) 0.01674 46.5 58.4
59(8) 0.01682 46.5 57.6
54(7) 0.01861 46.4 56.7
55(7) 0.01826 46.4 55.9
58(8) 0.01731 46.3 55.2
59(8) 0.01682 46.3 54.5
54(7) 0.01841 46.2 53.8
55(7) 0.01826 46.2 53.3
60(8) 0.01674 46.1 52.8
53(7) 0.01892 46.1 52.3
56(7) 0.01797 46.0 52.0
51(7) 0.01951 46.0 51.7
53(7) 0.01882 45.9 51.5
54(7) 0.01846 45.9 51.3
52(7) 0.01908 45.8 51.3
54(7) 0.01841 45.8 51.3
53(7) 0.01892 45.7 51.4
52(7) 0.01940 45.7 51.6
55(7) 0.01826 45.7 51.8
52(7) 0.01908 45.6 52.1
57(8) 0.01759 45.6 52.5
53(7) 0.01882 45.5 52.8
57(8) 0.01759 45.5 53.2
53(7) 0.01892 45.5 53.6
53(7) 0.01892 45.4 54.0
56(7) 0.01783 45.4 54.4
54(7) 0.01866 45.3 54.7
54(7) 0.01841 45.3 54.9
57(8) 0.01750 45.3 55.0
52(7) 0.01940 45.2 55.1
55(7) 0.01826 45.2 55.0
55(7) 0.01836 45.2 54.9
50(7) 0.02006 45.1 54.6
53(7) 0.01882 45.1 54.3
56(8) 0.01778 45.1 53.9
48(7) 0.02064 45.0 53.6
47(7) 0.02113 45.0 53.2
49(7) 0.02023 45.0 52.8
50(7) 0.02012 44.9 52.4
52(7) 0.01924 44.9 52.1
53(7) 0.01902 44.9 51.8
52(7) 0.01924 44.8 51.6
49(7) 0.02058 44.8 51.4
57(8) 0.01750 44.8 51.3
53(7) 0.01882 44.8 51.2
52(7) 0.01940 44.7 51.2
55(7) 0.01826 44.7 51.2
57(8) 0.01750 44.7 51.3
58(8) 0.01731 44.7 51.4
55(7) 0.01807 44.6 51.5
52(7) 0.01908 44.6 51.6
57(8) 0.01745 44.6 51.8
55(7) 0.01826 44.6 51.9
54(7) 0.01846 44.5 52.0
57(8) 0.01745 44.5 52.2
55(7) 0.01826 44.5 52.3
56(7) 0.01783 44.5 52.4
56(7) 0.01792 44.5 52.6
58(8) 0.01722 44.4 52.7
57(8) 0.01750 44.4 52.8
53(7) 0.01902 44.4 52.9
56(8) 0.01773 44.4 53.0
53(7) 0.01892 44.4 53.1
55(7) 0.01826 44.4 53.2
54(7) 0.01836 44.4 53.3
59(8) 0.01682 44.3 53.5
56(7) 0.01792 44.3 53.8
58(8) 0.01722 44.3 54.2
53(7) 0.01902 44.3 54.6
56(7) 0.01787 44.3 55.2
58(8) 0.01736 44.3 55.9
57(8) 0.01759 44.3 56.7
61(8) 0.01652 44.3 57.6
59(8) 0.01704 44.3 58.5
61(8) 0.01635 44.2 59.6
57(8) 0.01745 44.2 60.7
64(8) 0.01574 44.2 61.8
64(8) 0.01555 44.2 63.0
66(8) 0.01513 44.2 64.1
65(8) 0.01539 44.2 65.1
63(8) 0.01594 44.2 66.0
66(8) 0.01513 44.2 66.7
70(8) 0.01434 44.2 67.3
64(8) 0.01563 44.2 67.7
67(8) 0.01491 44.2 68.0
65(8) 0.01539 44.2 68.1
64(8) 0.01555 44.2 68.1
65(8) 0.01551 44.2 68.1
65(8) 0.01547 44.2 68.0
63(8) 0.01590 44.2 67.9
64(8) 0.01570 44.2 67.8
67(8) 0.01494 44.2 67.7
67(8) 0.01487 44.2 67.6
66(8) 0.01509 44.2 67.6
68(8) 0.01462 44.2 67.5
66(8) 0.01528 44.2 67.4
71(8) 0.01414 44.2 67.3
73(9) 0.01374 44.2 67.1
59(8) 0.01687 44.2 66.8
62(8) 0.01606 44.2 66.5
64(8) 0.01559 44.2 66.1
67(8) 0.01498 44.2 65.6
63(8) 0.01578 44.2 65.1
68(8) 0.01469 44.2 64.5
62(8) 0.01606 44.2 63.8
64(8) 0.01563 44.2 63.1
61(8) 0.01644 44.3 62.4
65(8) 0.01547 44.3 61.7
59(8) 0.01687 44.3 60.9
63(8) 0.01598 44.3 60.2
58(8) 0.01727 44.3 59.4
58(8) 0.01727 44.3 58.8
57(8) 0.01750 44.3 58.1
63(8) 0.01582 44.3 57.6
52(7) 0.01918 44.3 57.1
55(7) 0.01826 44.3 56.7
55(7) 0.01816 44.3 56.4
58(8) 0.01713 44.4 56.2
58(8) 0.01727 44.4 56.1
55(7) 0.01816 44.4 56.1
55(7) 0.01807 44.4 56.1
53(7) 0.01902 44.4 56.3
56(7) 0.01797 44.4 56.5
58(8) 0.01727 44.4 56.8
56(7) 0.01787 44.4 57.1
56(7) 0.01797 44.4 57.5
59(8) 0.01704 44.5 57.9
65(8) 0.01539 44.5 58.3
60(8) 0.01674 44.5 58.8
59(8) 0.01691 44.5 59.3
58(8) 0.01722 44.5 59.7
62(8) 0.01619 44.5 60.1
62(8) 0.01602 44.5 60.5
65(8) 0.01536 44.5 60.9
63(8) 0.01598 44.6 61.1
62(8) 0.01615 44.6 61.3
62(8) 0.01610 44.6 61.4
61(8) 0.01652 44.6 61.4
63(8) 0.01594 44.6 61.4
61(8) 0.01631 44.6 61.3
61(8) 0.01627 44.6 61.2
62(8) 0.01606 44.7 61.1
61(8) 0.01639 44.7 61.0
63(8) 0.01598 44.7 60.9
63(8) 0.01586 44.7 60.8
62(8) 0.01619 44.7 60.7
61(8) 0.01652 44.7 60.7
62(8) 0.01602 44.8 60.6
54(7) 0.01856 44.8 60.6
61(8) 0.01644 44.8 60.6
56(8) 0.01773 44.8 60.6
59(8) 0.01687 44.8 60.7
59(8) 0.01709 44.8 60.9
58(8) 0.01713 44.8 61.1
62(8) 0.01623 44.9 61.5
60(8) 0.01674 44.9 62.0
57(8) 0.01768 44.9 62.6
56(8) 0.01773 44.9 63.3
60(8) 0.01665 44.9 64.2
59(8) 0.01682 44.9 65.3
64(8) 0.01563 44.9 66.4
61(8) 0.01627 45.0 67.6
68(8) 0.01480 45.0 68.9
65(8) 0.01539 45.0 70.2
66(8) 0.01520 45.0 71.5
65(8) 0.01539 45.0 72.7
67(8) 0.01491 45.0 73.7
68(8) 0.01480 45.0 74.6
72(9) 0.01384 45.1 75.4
76(9) 0.01324 45.1 75.9
75(9) 0.01330 45.1 76.1
76(9) 0.01321 45.1 76.2
69(8) 0.01445 45.1 76.1
67(8) 0.01491 45.1 75.8
68(8) 0.01466 45.1 75.5
67(8) 0.01506 45.1 75.0
71(8) 0.01417 45.1 74.5
66(8) 0.01509 45.2 74.1
67(8) 0.01491 45.2 73.7
66(8) 0.01509 45.2 73.4
68(8) 0.01476 45.2 73.1
64(8) 0.01574 45.2 73.0
66(8) 0.01506 45.2 73.0
69(8) 0.01455 45.2 73.1
67(8) 0.01498 45.2 73.2
63(8) 0.01594 45.2 73.4
70(8) 0.01438 45.3 73.6
73(9) 0.01381 45.3 73.7
63(8) 0.01590 45.3 73.7
67(8) 0.01491 45.3 73.5
67(8) 0.01487 45.3 73.2
67(8) 0.01487 45.3 72.7
65(8) 0.01532 45.3 72.0
64(8) 0.01574 45.3 71.1
66(8) 0.01520 45.3 70.0
59(8) 0.01691 45.3 68.8
65(8) 0.01539 45.3 67.5
63(8) 0.01594 45.3 66.1
60(8) 0.01669 45.3 64.7
59(8) 0.01691 45.3 63.3
61(8) 0.01639 45.3 61.9
56(8) 0.01773 45.4 60.7
58(8) 0.01740 45.4 59.4
57(8) 0.01750 45.4 58.3
57(8) 0.01768 45.4 57.3
56(8) 0.01778 45.4 56.4
59(8) 0.01709 45.4 55.6
51(7) 0.01945 45.4 54.9
53(7) 0.01892 45.4 54.2
52(7) 0.01940 45.4 53.7
54(7) 0.01861 45.4 53.2
58(8) 0.01718 45.4 52.8
52(7) 0.01924 45.4 52.4
52(7) 0.01918 45.4 52.1
53(7) 0.01897 45.4 51.8
52(7) 0.01934 45.4 51.6
51(7) 0.01978 45.4 51.4
60(8) 0.01682 45.4 51.3
50(7) 0.02018 45.4 51.2
49(7) 0.02035 45.4 51.1
47(7) 0.02125 45.4 51.1
55(7) 0.01826 45.4 51.2
53(7) 0.01892 45.4 51.3
54(7) 0.01861 45.3 51.4
53(7) 0.01871 45.3 51.6
52(7) 0.01934 45.3 51.8
51(7) 0.01962 45.3 52.1
52(7) 0.01918 45.3 52.4
51(7) 0.01956 45.3 52.8
59(8) 0.01704 45.3 53.2
53(7) 0.01871 45.3 53.6
54(7) 0.01841 45.3 54.1
58(8) 0.01718 45.3 54.6
55(7) 0.01816 45.3 55.2
61(8) 0.01635 45.3 55.8
50(7) 0.02012 45.3 56.4
58(8) 0.01722 45.2 57.1
59(8) 0.01700 45.2 57.9
60(8) 0.01656 45.2 58.7
62(8) 0.01615 45.2 59.7
67(8) 0.01494 45.2 60.7
62(8) 0.01610 45.2 61.8
72(8) 0.01397 45.2 63.0
78(9) 0.01288 45.2 64.3
76(9) 0.01309 45.2 65.6
80(9) 0.01243 45.1 67.0
83(9) 0.01208 45.1 68.4
80(9) 0.01254 45.1 69.8
84(9) 0.01197 45.1 71.1
87(9) 0.01149 45.1 72.4
92(10) 0.01085 45.1 73.6
96(10) 0.01039 45.1 74.5
91(10) 0.01094 45.0 75.3
96(10) 0.01041 45.0 75.8
96(10) 0.01043 45.0 76.1
98(10) 0.01020 45.0 76.2
96(10) 0.01041 45.0 76.0
101(10) 0.00988 44.9 75.7
89(9) 0.01117 44.9 75.1
86(9) 0.01166 44.9 74.4
91(10) 0.01101 44.9 73.6
87(9) 0.01146 44.9 72.6
81(9) 0.01240 44.8 71.6
80(9) 0.01246 44.8 70.4
80(9) 0.01246 44.8 69.2
82(9) 0.01224 44.8 67.9
74(9) 0.01349 44.8 66.5
75(9) 0.01340 44.7 65.1
73(9) 0.01365 44.7 63.7
70(8) 0.01427 44.7 62.3
69(8) 0.01455 44.7 61.0
65(8) 0.01532 44.7 59.7
60(8) 0.01665 44.6 58.4
59(8) 0.01691 44.6 57.2
58(8) 0.01727 44.6 56.0
54(7) 0.01846 44.6 55.0
57(8) 0.01740 44.5 54.0
51(7) 0.01951 44.5 53.1
57(8) 0.01759 44.5 52.3
53(7) 0.01902 44.5 51.5
56(7) 0.01802 44.4 50.8
52(7) 0.01940 44.4 50.3
51(7) 0.01967 44.4 49.7
53(7) 0.01902 44.4 49.3
50(7) 0.02006 44.3 48.9
50(7) 0.02012 44.3 48.6
48(7) 0.02076 44.3 48.3
53(7) 0.01892 44.2 48.1
49(7) 0.02064 44.2 48.0
45(7) 0.02208 44.2 47.9
48(7) 0.02100 44.2 47.8
47(7) 0.02125 44.1 47.8
51(7) 0.01967 44.1 47.8
48(7) 0.02088 44.1 47.8
48(7) 0.02076 44.0 47.9
49(7) 0.02047 44.0 47.9
47(7) 0.02119 44.0 48.0
47(7) 0.02131 44.0 48.1
49(7) 0.02047 43.9 48.3
46(7) 0.02163 43.9 48.4
51(7) 0.01973 43.9 48.6
46(7) 0.02175 43.8 48.8
47(7) 0.02125 43.8 49.0
49(7) 0.02035 43.8 49.2
48(7) 0.02076 43.8 49.4
46(7) 0.02188 43.7 49.7
49(7) 0.02035 43.7 50.0
46(7) 0.02182 43.7 50.4
48(7) 0.02070 43.6 50.7
51(7) 0.01967 43.6 51.1
47(7) 0.02137 43.6 51.5
48(7) 0.02094 43.5 51.9
51(7) 0.01956 43.5 52.2
50(7) 0.02006 43.5 52.6
46(7) 0.02169 43.5 52.9
49(7) 0.02047 43.4 53.2
52(7) 0.01929 43.4 53.5
49(7) 0.02041 43.4 53.7
53(7) 0.01882 43.3 53.8
50(7) 0.01984 43.3 53.8
49(7) 0.02029 43.3 53.8
43(7) 0.02352 43.2 53.7
51(7) 0.01945 43.2 53.5
49(7) 0.02064 43.2 53.2
44(7) 0.02268 43.1 52.8
49(7) 0.02023 43.1 52.4
49(7) 0.02041 43.1 52.0
49(7) 0.02053 43.1 51.5
48(7) 0.02094 43.0 51.0
47(7) 0.02125 43.0 50.5
53(7) 0.01902 43.0 50.0
46(7) 0.02182 42.9 49.6
46(7) 0.02195 42.9 49.1
43(7) 0.02338 42.9 48.8
41(6) 0.02472 42.9 48.4
44(7) 0.02255 42.8 48.2
48(7) 0.02107 42.8 47.9
44(7) 0.02289 42.8 47.8
48(7) 0.02088 42.7 47.7
45(7) 0.02201 42.7 47.7
47(7) 0.02137 42.7 47.7
44(7) 0.02255 42.7 47.7
48(7) 0.02070 42.6 47.9
48(7) 0.02107 42.6 48.0
46(7) 0.02195 42.6 48.2
44(7) 0.02282 42.5 48.4
48(7) 0.02088 42.5 48.6
51(7) 0.01951 42.5 48.8
50(7) 0.01989 42.5 48.9
49(7) 0.02029 42.4 49.1
49(7) 0.02035 42.4 49.1
52(7) 0.01913 42.4 49.2
49(7) 0.02047 42.4 49.2
52(7) 0.01934 42.3 49.1
51(7) 0.01956 42.3 49.0
50(7) 0.01989 42.3 48.9
51(7) 0.01978 42.3 48.7
52(7) 0.01918 42.2 48.5
53(7) 0.01892 42.2 48.2
50(7) 0.02018 42.2 48.0
47(7) 0.02144 42.2 47.8
50(7) 0.01989 42.2 47.6
49(7) 0.02035 42.1 47.4
48(7) 0.02076 42.1 47.3
49(7) 0.02035 42.1 47.2
48(7) 0.02076 42.1 47.2
46(7) 0.02175 42.0 47.2
49(7) 0.02029 42.0 47.3
45(7) 0.02234 42.0 47.5
50(7) 0.02001 42.0 47.8
45(7) 0.02208 42.0 48.2
52(7) 0.01929 41.9 48.6
48(7) 0.02094 41.9 49.1
53(7) 0.01877 41.9 49.8
51(7) 0.01945 41.9 50.4
52(7) 0.01929 41.9 51.2
50(7) 0.02012 41.9 52.0
53(7) 0.01882 41.8 52.9
50(7) 0.02012 41.8 53.8
52(7) 0.01940 41.8 54.7
55(7) 0.01807 41.8 55.6
56(7) 0.01797 41.8 56.5
59(8) 0.01700 41.8 57.4
59(8) 0.01704 41.8 58.3
57(8) 0.01768 41.7 59.0
57(8) 0.01750 41.7 59.7
62(8) 0.01623 41.7 60.3
60(8) 0.01656 41.7 60.7
55(7) 0.01821 41.7 61.1
58(8) 0.01731 41.7 61.3
61(8) 0.01639 41.7 61.4
58(8) 0.01736 41.7 61.4
58(8) 0.01722 41.7 61.2
56(7) 0.01792 41.6 61.0
60(8) 0.01669 41.6 60.6
56(8) 0.01773 41.6 60.2
59(8) 0.01695 41.6 59.7
53(7) 0.01897 41.6 59.2
56(7) 0.01802 41.6 58.7
58(8) 0.01718 41.6 58.1
56(7) 0.01797 41.6 57.6
57(8) 0.01754 41.6 57.0
53(7) 0.01877 41.6 56.6
52(7) 0.01940 41.6 56.1
52(7) 0.01929 41.6 55.8
54(7) 0.01871 41.6 55.5
51(7) 0.01973 41.6 55.3
53(7) 0.01871 41.6 55.2
55(7) 0.01807 41.6 55.2
56(7) 0.01792 41.6 55.1
57(8) 0.01759 41.6 55.2
53(7) 0.01902 41.6 55.3
54(7) 0.01866 41.6 55.3
56(7) 0.01797 41.6 55.4
53(7) 0.01902 41.6 55.5
59(8) 0.01709 41.6 55.7
56(7) 0.01802 41.6 55.8
61(8) 0.01652 41.6 55.8
58(8) 0.01722 41.6 55.9
57(8) 0.01750 41.6 55.9
63(8) 0.01594 41.6 55.9
55(7) 0.01821 41.6 55.8
57(8) 0.01759 41.6 55.7
59(8) 0.01687 41.6 55.5
59(8) 0.01691 41.6 55.3
58(8) 0.01736 41.6 55.0
55(7) 0.01816 41.6 54.7
54(7) 0.01846 41.6 54.4
58(8) 0.01713 41.6 54.0
56(7) 0.01792 41.7 53.7
51(7) 0.01945 41.7 53.3
56(7) 0.01802 41.7 53.0
55(7) 0.01816 41.7 52.7
53(7) 0.01871 41.7 52.4
52(7) 0.01913 41.7 52.1
52(7) 0.01934 41.7 51.8
49(7) 0.02035 41.7 51.6
51(7) 0.01967 41.7 51.3
56(7) 0.01802 41.8 51.1
51(7) 0.01962 41.8 51.0
54(7) 0.01856 41.8 50.8
53(7) 0.01902 41.8 50.7
52(7) 0.01908 41.8 50.6
52(7) 0.01929 41.8 50.5
51(7) 0.01973 41.8 50.4
49(7) 0.02053 41.9 50.3
49(7) 0.02035 41.9 50.2
50(7) 0.02001 41.9 50.1
46(7) 0.02163 41.9 50.0
50(7) 0.02012 41.9 49.9
48(7) 0.02064 41.9 49.8
54(7) 0.01861 42.0 49.6
50(7) 0.02001 42.0 49.5
50(7) 0.02018 42.0 49.4
51(7) 0.01978 42.0 49.3
54(7) 0.01861 42.0 49.2
50(7) 0.02001 42.1 49.1
55(7) 0.01836 42.1 49.0
48(7) 0.02076 42.1 49.0
45(7) 0.02201 42.1 49.0
52(7) 0.01908 42.1 49.0
51(7) 0.01951 42.2 49.1
52(7) 0.01913 42.2 49.2
50(7) 0.01989 42.2 49.3
50(7) 0.01984 42.2 49.5
52(7) 0.01918 42.2 49.7
54(7) 0.01856 42.3 49.9
54(7) 0.01846 42.3 50.2
52(7) 0.01908 42.3 50.4
48(7) 0.02082 42.3 50.7
52(7) 0.01908 42.4 51.1
51(7) 0.01951 42.4 51.4
53(7) 0.01882 42.4 51.8
49(7) 0.02029 42.4 52.2
52(7) 0.01918 42.5 52.6
52(7) 0.01924 42.5 53.0
53(7) 0.01871 42.5 53.3
51(7) 0.01973 42.5 53.7
55(7) 0.01816 42.6 54.0
56(7) 0.01787 42.6 54.3
50(7) 0.02006 42.6 54.5
54(7) 0.01871 42.6 54.7
50(7) 0.02018 42.7 54.9
52(7) 0.01929 42.7 55.0
52(7) 0.01918 42.7 55.0
59(8) 0.01691 42.7 55.0
53(7) 0.01871 42.8 54.8
55(7) 0.01807 42.8 54.7
55(7) 0.01811 42.8 54.5
51(7) 0.01945 42.9 54.2
56(7) 0.01797 42.9 53.9
53(7) 0.01882 42.9 53.6
51(7) 0.01973 42.9 53.3
50(7) 0.01989 43.0 53.1
50(7) 0.02018 43.0 52.8
52(7) 0.01929 43.0 52.5
55(7) 0.01816 43.0 52.3
53(7) 0.01892 43.1 52.0
49(7) 0.02035 43.1 51.9
50(7) 0.02012 43.1 51.7
51(7) 0.01967 43.1 51.6
49(7) 0.02041 43.2 51.6
51(7) 0.01962 43.2 51.6
53(7) 0.01882 43.2 51.6
55(7) 0.01836 43.3 51.7
53(7) 0.01897 43.3 51.9
55(7) 0.01811 43.3 52.1
55(7) 0.01826 43.3 52.4
52(7) 0.01918 43.4 52.8
56(7) 0.01783 43.4 53.2
53(7) 0.01897 43.4 53.6
55(7) 0.01816 43.4 54.1
57(8) 0.01768 43.5 54.6
56(7) 0.01787 43.5 55.2
58(8) 0.01731 43.5 55.7
58(8) 0.01722 43.6 56.3
59(8) 0.01691 43.6 56.8
56(7) 0.01797 43.6 57.4
56(7) 0.01787 43.6 57.8
56(7) 0.01797 43.7 58.2
57(8) 0.01764 43.7 58.6
57(8) 0.01759 43.7 58.8
58(8) 0.01731 43.7 59.0
57(8) 0.01759 43.8 59.1
60(8) 0.01656 43.8 59.1
58(8) 0.01740 43.8 59.0
57(8) 0.01745 43.8 58.9
56(7) 0.01797 43.9 58.8
55(7) 0.01807 43.9 58.7
55(7) 0.01811 43.9 58.7
53(7) 0.01882 43.9 58.6
60(8) 0.01678 43.9 58.6
59(8) 0.01700 44.0 58.7
59(8) 0.01704 44.0 58.8
56(7) 0.01783 44.0 59.1
59(8) 0.01691 44.0 59.4
59(8) 0.01682 44.1 59.7
59(8) 0.01704 44.1 60.2
63(8) 0.01594 44.1 60.7
62(8) 0.01602 44.1 61.2
67(8) 0.01498 44.1 61.8
67(8) 0.01506 44.2 62.4
67(8) 0.01498 44.2 63.1
67(8) 0.01491 44.2 63.7
66(8) 0.01520 44.2 64.3
71(8) 0.01407 44.2 65.0
67(8) 0.01487 44.3 65.6
73(9) 0.01362 44.3 66.2
71(8) 0.01404 44.3 66.8
70(8) 0.01434 44.3 67.4
73(9) 0.01362 44.3 68.0
69(8) 0.01455 44.3 68.6
76(9) 0.01324 44.4 69.1
72(8) 0.01394 44.4 69.7
75(9) 0.01340 44.4 70.2
75(9) 0.01330 44.4 70.6
72(9) 0.01384 44.4 71.0
73(9) 0.01365 44.4 71.3
73(9) 0.01365 44.4 71.5
78(9) 0.01283 44.5 71.6
72(9) 0.01384 44.5 71.5
72(9) 0.01384 44.5 71.4
80(9) 0.01251 44.5 71.1
69(8) 0.01455 44.5 70.8
74(9) 0.01358 44.5 70.3
75(9) 0.01336 44.5 69.8
69(8) 0.01452 44.5 69.2
74(9) 0.01358 44.5 68.5
73(9) 0.01374 44.6 67.8
72(8) 0.01391 44.6 66.9
68(8) 0.01466 44.6 66.1
65(8) 0.01539 44.6 65.2
66(8) 0.01517 44.6 64.3
66(8) 0.01520 44.6 63.4
62(8) 0.01610 44.6 62.5
62(8) 0.01606 44.6 61.6
63(8) 0.01598 44.6 60.8
62(8) 0.01627 44.6 60.1
58(8) 0.01718 44.6 59.4
57(8) 0.01759 44.6 58.8
60(8) 0.01656 44.6 58.3
62(8) 0.01602 44.6 58.0
60(8) 0.01674 44.6 57.7
58(8) 0.01727 44.6 57.5
59(8) 0.01691 44.6 57.5
56(8) 0.01773 44.6 57.5
58(8) 0.01722 44.6 57.6
59(8) 0.01695 44.6 57.8
56(8) 0.01773 44.6 58.1
62(8) 0.01610 44.6 58.4
56(7) 0.01792 44.6 58.7
60(8) 0.01656 44.6 59.0
61(8) 0.01627 44.6 59.3
67(8) 0.01502 44.6 59.6
60(8) 0.01656 44.6 59.8
59(8) 0.01700 44.6 59.9
60(8) 0.01665 44.6 59.9
65(8) 0.01532 44.6 59.8
60(8) 0.01682 44.6 59.7
57(8) 0.01750 44.6 59.4
58(8) 0.01722 44.6 59.1
56(7) 0.01787 44.6 58.7
56(7) 0.01792 44.6 58.2
59(8) 0.01682 44.6 57.6
54(7) 0.01866 44.6 57.1
57(8) 0.01768 44.6 56.5
53(7) 0.01882 44.6 55.8
53(7) 0.01877 44.6 55.2
55(7) 0.01807 44.6 54.6
51(7) 0.01945 44.5 53.9
53(7) 0.01892 44.5 53.3
55(7) 0.01826 44.5 52.7
50(7) 0.02006 44.5 52.2
49(7) 0.02023 44.5 51.6
52(7) 0.01908 44.5 51.1
49(7) 0.02047 44.5 50.7
46(7) 0.02163 44.5 50.3
49(7) 0.02035 44.5 50.0
50(7) 0.02006 44.4 49.7
51(7) 0.01973 44.4 49.4
48(7) 0.02094 44.4 49.3
49(7) 0.02023 44.4 49.1
45(7) 0.02214 44.4 49.1
51(7) 0.01956 44.4 49.1
49(7) 0.02064 44.4 49.1
50(7) 0.01989 44.3 49.2
52(7) 0.01918 44.3 49.3
47(7) 0.02131 44.3 49.5
49(7) 0.02064 44.3 49.7
45(7) 0.02214 44.3 49.9
48(7) 0.02076 44.3 50.2
49(7) 0.02064 44.2 50.5
49(7) 0.02035 44.2 50.8
49(7) 0.02047 44.2 51.1
49(7) 0.02035 44.2 51.4
48(7) 0.02100 44.2 51.7
49(7) 0.02047 44.2 52.1
50(7) 0.02001 44.1 52.4
49(7) 0.02023 44.1 52.7
51(7) 0.01978 44.1 52.9
52(7) 0.01940 44.1 53.2
52(7) 0.01913 44.1 53.4
51(7) 0.01978 44.0 53.5
53(7) 0.01882 44.0 53.7
52(7) 0.01929 44.0 53.8
52(7) 0.01913 44.0 54.0
54(7) 0.01861 44.0 54.1
55(7) 0.01807 43.9 54.2
46(7) 0.02175 43.9 54.4
54(7) 0.01861 43.9 54.5
56(7) 0.01787 43.9 54.7
54(7) 0.01841 43.9 54.9
47(7) 0.02125 43.8 55.1
53(7) 0.01902 43.8 55.4
59(8) 0.01691 43.8 55.7
53(7) 0.01892 43.8 56.0
54(7) 0.01866 43.7 56.4
54(7) 0.01861 43.7 56.8
55(7) 0.01831 43.7 57.3
61(8) 0.01631 43.7 57.8
59(8) 0.01704 43.7 58.4
64(8) 0.01574 43.6 59.0
65(8) 0.01547 43.6 59.6
68(8) 0.01466 43.6 60.3
65(8) 0.01547 43.6 60.9
65(8) 0.01536 43.5 61.5
68(8) 0.01466 43.5 62.1
63(8) 0.01586 43.5 62.6
65(8) 0.01547 43.5 63.1
66(8) 0.01509 43.5 63.6
66(8) 0.01517 43.4 63.9
67(8) 0.01494 43.4 64.2
61(8) 0.01635 43.4 64.4
66(8) 0.01513 43.4 64.5
61(8) 0.01631 43.3 64.5
63(8) 0.01598 43.3 64.5
61(8) 0.01627 43.3 64.4
61(8) 0.01644 43.3 64.2
64(8) 0.01559 43.3 64.0
62(8) 0.01627 43.2 63.7
63(8) 0.01590 43.2 63.3
59(8) 0.01691 43.2 62.8
58(8) 0.01727 43.2 62.3
58(8) 0.01718 43.1 61.7
57(8) 0.01768 43.1 61.1
57(8) 0.01740 43.1 60.5
56(8) 0.01778 43.1 59.9
59(8) 0.01704 43.1 59.3
58(8) 0.01722 43.0 58.7
55(7) 0.01816 43.0 58.1
54(7) 0.01871 43.0 57.5
55(7) 0.01826 43.0 56.9
54(7) 0.01841 43.0 56.4
53(7) 0.01892 42.9 55.9
53(7) 0.01892 42.9 55.3
52(7) 0.01924 42.9 54.9
50(7) 0.01984 42.9 54.4
50(7) 0.01984 42.9 54.0
57(8) 0.01764 42.8 53.5
49(7) 0.02058 42.8 53.1
52(7) 0.01913 42.8 52.8
51(7) 0.01945 42.8 52.4
50(7) 0.02001 42.8 52.1
54(7) 0.01856 42.7 51.8
51(7) 0.01978 42.7 51.5
51(7) 0.01945 42.7 51.3
48(7) 0.02064 42.7 51.1
55(7) 0.01811 42.7 50.9
51(7) 0.01973 42.7 50.8
46(7) 0.02156 42.6 50.7
50(7) 0.01989 42.6 50.7
55(7) 0.01836 42.6 50.6
49(7) 0.02029 42.6 50.7
48(7) 0.02082 42.6 50.8
53(7) 0.01882 42.6 50.9
52(7) 0.01940 42.6 51.0
53(7) 0.01882 42.5 51.2
55(7) 0.01826 42.5 51.5
56(8) 0.01773 42.5 51.7
57(8) 0.01759 42.5 52.0
54(7) 0.01851 42.5 52.3
58(8) 0.01722 42.5 52.7
55(7) 0.01811 42.5 53.0
61(8) 0.01648 42.5 53.3
63(8) 0.01598 42.5 53.7
57(8) 0.01754 42.4 54.0
56(7) 0.01792 42.4 54.3
59(8) 0.01704 42.4 54.6
58(8) 0.01731 42.4 54.8
59(8) 0.01695 42.4 55.0
56(8) 0.01778 42.4 55.2
56(7) 0.01787 42.4 55.4
55(7) 0.01836 42.4 55.6
57(8) 0.01750 42.4 55.7
57(8) 0.01750 42.4 55.8
61(8) 0.01635 42.4 56.0
58(8) 0.01740 42.4 56.1
61(8) 0.01635 42.4 56.3
59(8) 0.01695 42.4 56.4
62(8) 0.01606 42.4 56.6
62(8) 0.01623 42.3 56.8
57(8) 0.01740 42.3 57.1
66(8) 0.01524 42.3 57.3
64(8) 0.01566 42.3 57.5
63(8) 0.01578 42.3 57.7
60(8) 0.01669 42.3 58.0
65(8) 0.01547 42.3 58.2
62(8) 0.01623 42.3 58.4
58(8) 0.01718 42.3 58.5
65(8) 0.01528 42.3 58.6
65(8) 0.01539 42.3 58.7
64(8) 0.01566 42.3 58.8
65(8) 0.01543 42.3 58.9
59(8) 0.01704 42.3 58.9
58(8) 0.01740 42.3 58.9
59(8) 0.01695 42.3 58.9
55(7) 0.01816 42.3 58.9
58(8) 0.01736 42.3 58.8
56(8) 0.01778 42.4 58.8
56(7) 0.01797 42.4 58.8
60(8) 0.01674 42.4 58.8
58(8) 0.01722 42.4 58.7
57(8) 0.01768 42.4 58.7
57(8) 0.01764 42.4 58.7
56(7) 0.01783 42.4 58.8
61(8) 0.01644 42.4 58.8
56(7) 0.01787 42.4 58.9
58(8) 0.01731 42.4 59.1
54(7) 0.01841 42.4 59.2
59(8) 0.01700 42.4 59.4
59(8) 0.01687 42.4 59.7
61(8) 0.01635 42.4 59.9
56(7) 0.01797 42.4 60.1
56(8) 0.01773 42.5 60.3
60(8) 0.01678 42.5 60.5
56(7) 0.01792 42.5 60.7
60(8) 0.01661 42.5 60.9
58(8) 0.01713 42.5 61.0
59(8) 0.01709 42.5 61.0
58(8) 0.01731 42.5 61.0
53(7) 0.01892 42.5 60.9
58(8) 0.01731 42.5 60.7
58(8) 0.01727 42.6 60.5
57(8) 0.01754 42.6 60.1
59(8) 0.01709 42.6 59.8
59(8) 0.01704 42.6 59.4
54(7) 0.01851 42.6 58.9
55(7) 0.01816 42.6 58.4
56(8) 0.01773 42.6 57.8
60(8) 0.01656 42.7 57.2
56(8) 0.01773 42.7 56.6
50(7) 0.01995 42.7 56.0
55(7) 0.01831 42.7 55.4
53(7) 0.01882 42.7 54.8
53(7) 0.01877 42.7 54.2
57(8) 0.01745 42.7 53.6
53(7) 0.01892 42.8 53.1
48(7) 0.02088 42.8 52.6
54(7) 0.01871 42.8 52.1
51(7) 0.01962 42.8 51.7
51(7) 0.01951 42.8 51.4
57(8) 0.01745 42.8 51.1
54(7) 0.01866 42.9 50.8
52(7) 0.01940 42.9 50.6
53(7) 0.01902 42.9 50.5
55(7) 0.01816 42.9 50.5
53(7) 0.01892 42.9 50.5
55(7) 0.01821 42.9 50.6
54(7) 0.01861 43.0 50.8
55(7) 0.01807 43.0 51.0
52(7) 0.01908 43.0 51.4
55(7) 0.01816 43.0 51.8
53(7) 0.01871 43.0 52.2
58(8) 0.01713 43.1 52.8
57(8) 0.01759 43.1 53.4
57(8) 0.01750 43.1 54.0
55(7) 0.01807 43.1 54.8
60(8) 0.01665 43.1 55.5
60(8) 0.01656 43.1 56.3
60(8) 0.01678 43.2 57.1
62(8) 0.01615 43.2 57.9
64(8) 0.01574 43.2 58.8
63(8) 0.01582 43.2 59.6
65(8) 0.01547 43.2 60.3
63(8) 0.01598 43.2 61.1
64(8) 0.01555 43.3 61.7
64(8) 0.01555 43.3 62.3
64(8) 0.01559 43.3 62.7
65(8) 0.01547 43.3 63.1
58(8) 0.01740 43.3 63.3
66(8) 0.01517 43.4 63.4
67(8) 0.01491 43.4 63.5
60(8) 0.01669 43.4 63.4
63(8) 0.01594 43.4 63.2
65(8) 0.01543 43.4 62.9
59(8) 0.01687 43.4 62.5
59(8) 0.01687 43.5 62.0
61(8) 0.01627 43.5 61.5
66(8) 0.01509 43.5 60.9
58(8) 0.01718 43.5 60.3
58(8) 0.01731 43.5 59.7
56(7) 0.01792 43.5 59.0
54(7) 0.01856 43.6 58.4
51(7) 0.01956 43.6 57.8
52(7) 0.01924 43.6 57.2
54(7) 0.01846 43.6 56.7
53(7) 0.01902 43.6 56.2
55(7) 0.01826 43.6 55.8
53(7) 0.01882 43.6 55.4
54(7) 0.01866 43.7 55.1
59(8) 0.01704 43.7 54.9
55(7) 0.01826 43.7 54.7
51(7) 0.01967 43.7 54.6
56(7) 0.01787 43.7 54.5
53(7) 0.01897 43.7 54.5
52(7) 0.01924 43.7 54.6
54(7) 0.01841 43.7 54.6
53(7) 0.01902 43.7 54.7
56(7) 0.01787 43.8 54.8
56(7) 0.01787 43.8 54.9
51(7) 0.01967 43.8 55.0
50(7) 0.01989 43.8 55.0
56(7) 0.01792 43.8 55.1
54(7) 0.01846 43.8 55.1
53(7) 0.01887 43.8 55.0
56(7) 0.01802 43.8 54.9
53(7) 0.01887 43.8 54.7
51(7) 0.01962 43.8 54.5
53(7) 0.01887 43.8 54.2
55(7) 0.01836 43.9 53.9
56(7) 0.01787 43.9 53.6
53(7) 0.01902 43.9 53.3
54(7) 0.01871 43.9 52.9
53(7) 0.01882 43.9 52.6
53(7) 0.01892 43.9 52.3
53(7) 0.01892 43.9 52.0
54(7) 0.01861 43.9 51.7
48(7) 0.02094 43.9 51.4
50(7) 0.01995 43.9 51.1
52(7) 0.01940 43.9 50.9
53(7) 0.01902 43.9 50.7
55(7) 0.01811 43.9 50.5
51(7) 0.01962 43.9 50.3
51(7) 0.01962 43.9 50.2
53(7) 0.01871 43.9 50.1
50(7) 0.02001 43.9 49.9
51(7) 0.01978 43.9 49.8
50(7) 0.02006 43.9 49.7
50(7) 0.02012 43.9 49.6
49(7) 0.02047 43.9 49.5
48(7) 0.02064 43.9 49.3
48(7) 0.02094 43.9 49.2
52(7) 0.01918 43.9 49.1
47(7) 0.02137 43.9 49.0
51(7) 0.01978 43.9 48.8
50(7) 0.01995 43.9 48.7
48(7) 0.02070 43.9 48.6
51(7) 0.01962 43.9 48.5
47(7) 0.02137 43.9 48.4
44(7) 0.02268 43.9 48.3
49(7) 0.02064 43.8 48.3
47(7) 0.02125 43.8 48.2
50(7) 0.02018 43.8 48.2
49(7) 0.02058 43.8 48.2
50(7) 0.01989 43.8 48.3
45(7) 0.02221 43.8 48.4
50(7) 0.02012 43.8 48.5
46(7) 0.02182 43.8 48.6
48(7) 0.02094 43.8 48.7
54(7) 0.01836 43.8 48.9
52(7) 0.01918 43.8 49.1
48(7) 0.02094 43.7 49.2
53(7) 0.01887 43.7 49.4
47(7) 0.02131 43.7 49.6
55(7) 0.01836 43.7 49.8
49(7) 0.02064 43.7 50.0
50(7) 0.01989 43.7 50.1
52(7) 0.01918 43.7 50.3
51(7) 0.01978 43.7 50.4
51(7) 0.01978 43.6 50.5
51(7) 0.01967 43.6 50.6
49(7) 0.02064 43.6 50.6
50(7) 0.01989 43.6 50.6
50(7) 0.02018 43.6 50.5
49(7) 0.02023 43.6 50.5
53(7) 0.01897 43.5 50.4
53(7) 0.01892 43.5 50.2
53(7) 0.01871 43.5 50.1
45(7) 0.02214 43.5 49.9
49(7) 0.02058 43.5 49.7
51(7) 0.01967 43.5 49.5
51(7) 0.01973 43.4 49.3
44(7) 0.02255 43.4 49.1
47(7) 0.02131 43.4 48.9
47(7) 0.02150 43.4 48.7
48(7) 0.02100 43.4 48.5
49(7) 0.02064 43.3 48.4
49(7) 0.02064 43.3 48.3
51(7) 0.01967 43.3 48.2
47(7) 0.02125 43.3 48.1
50(7) 0.02001 43.3 48.1
51(7) 0.01945 43.2 48.1
47(7) 0.02150 43.2 48.1
48(7) 0.02094 43.2 48.2
48(7) 0.02076 43.2 48.3
47(7) 0.02137 43.2 48.4
50(7) 0.02012 43.1 48.5
45(7) 0.02214 43.1 48.7
48(7) 0.02088 43.1 48.8
50(7) 0.02001 43.1 49.0
51(7) 0.01956 43.1 49.2
50(7) 0.02006 43.0 49.4
52(7) 0.01908 43.0 49.7
54(7) 0.01871 43.0 49.9
54(7) 0.01836 43.0 50.1
51(7) 0.01967 43.0 50.3
51(7) 0.01951 42.9 50.5
52(7) 0.01929 42.9 50.7
51(7) 0.01967 42.9 50.9
53(7) 0.01902 42.9 51.1
54(7) 0.01841 42.8 51.2
51(7) 0.01945 42.8 51.3
53(7) 0.01887 42.8 51.4
48(7) 0.02076 42.8 51.4
54(7) 0.01866 42.8 51.4
49(7) 0.02035 42.7 51.3
48(7) 0.02070 42.7 51.3
51(7) 0.01978 42.7 51.2
51(7) 0.01945 42.7 51.1
50(7) 0.01989 42.7 51.0
49(7) 0.02053 42.6 50.8
53(7) 0.01892 42.6 50.7
49(7) 0.02023 42.6 50.6
48(7) 0.02076 42.6 50.6
48(7) 0.02064 42.6 50.5
52(7) 0.01908 42.5 50.4
48(7) 0.02070 42.5 50.4
50(7) 0.02001 42.5 50.4
47(7) 0.02119 42.5 50.5
53(7) 0.01892 42.5 50.5
52(7) 0.01918 42.4 50.6
47(7) 0.02125 42.4 50.7
53(7) 0.01902 42.4 50.8
50(7) 0.02018 42.4 50.9
51(7) 0.01967 42.4 51.1
46(7) 0.02195 42.4 51.2
50(7) 0.01989 42.3 51.3
52(7) 0.01940 42.3 51.5
48(7) 0.02076 42.3 51.6
50(7) 0.02018 42.3 51.8
47(7) 0.02113 42.3 51.9
52(7) 0.01913 42.3 52.1
55(7) 0.01836 42.3 52.2
52(7) 0.01913 42.2 52.3
48(7) 0.02064 42.2 52.4
47(7) 0.02137 42.2 52.6
55(7) 0.01836 42.2 52.7
55(7) 0.01826 42.2 52.8
55(7) 0.01816 42.2 52.9
52(7) 0.01918 42.2 53.0
52(7) 0.01918 42.2 53.1
53(7) 0.01892 42.2 53.1
50(7) 0.01989 42.1 53.2
54(7) 0.01861 42.1 53.3
51(7) 0.01951 42.1 53.3
50(7) 0.02012 42.1 53.3
56(7) 0.01797 42.1 53.4
56(7) 0.01797 42.1 53.4
51(7) 0.01978 42.1 53.4
48(7) 0.02076 42.1 53.3
55(7) 0.01836 42.1 53.3
52(7) 0.01934 42.1 53.3
53(7) 0.01892 42.1 53.2
50(7) 0.01984 42.1 53.2
54(7) 0.01866 42.1 53.2
52(7) 0.01924 42.1 53.2
51(7) 0.01962 42.1 53.3
57(8) 0.01764 42.1 53.4
51(7) 0.01967 42.1 53.5
52(7) 0.01913 42.1 53.6
52(7) 0.01929 42.1 53.8
55(7) 0.01811 42.1 54.1
61(8) 0.01652 42.1 54.3
59(8) 0.01700 42.1 54.7
57(8) 0.01745 42.1 55.0
57(8) 0.01764 42.1 55.3
63(8) 0.01598 42.1 55.7
59(8) 0.01700 42.1 56.1
58(8) 0.01727 42.1 56.5
57(8) 0.01740 42.1 56.8
56(7) 0.01797 42.1 57.2
65(8) 0.01539 42.1 57.5
63(8) 0.01586 42.1 57.8
57(8) 0.01750 42.1 58.0
61(8) 0.01652 42.1 58.2
59(8) 0.01700 42.1 58.4
60(8) 0.01682 42.1 58.4
60(8) 0.01656 42.2 58.4
59(8) 0.01682 42.2 58.3
55(7) 0.01826 42.2 58.2
60(8) 0.01674 42.2 57.9
61(8) 0.01639 42.2 57.7
59(8) 0.01700 42.2 57.3
57(8) 0.01759 42.2 56.9
59(8) 0.01682 42.2 56.5
49(7) 0.02064 42.2 56.0
56(7) 0.01802 42.3 55.6
56(8) 0.01773 42.3 55.1
54(7) 0.01836 42.3 54.6
53(7) 0.01902 42.3 54.1
57(8) 0.01768 42.3 53.7
55(7) 0.01826 42.3 53.2
56(8) 0.01773 42.4 52.7
53(7) 0.01877 42.4 52.3
51(7) 0.01956 42.4 51.9
56(8) 0.01778 42.4 51.5
53(7) 0.01882 42.4 51.2
51(7) 0.01967 42.4 50.8
51(7) 0.01978 42.5 50.5
52(7) 0.01929 42.5 50.3
52(7) 0.01918 42.5 50.0
47(7) 0.02144 42.5 49.9
50(7) 0.01984 42.5 49.7
48(7) 0.02064 42.6 49.5
52(7) 0.01908 42.6 49.4
51(7) 0.01978 42.6 49.3
50(7) 0.01984 42.6 49.3
52(7) 0.01908 42.6 49.2
52(7) 0.01913 42.7 49.2
50(7) 0.02006 42.7 49.2
52(7) 0.01929 42.7 49.2
51(7) 0.01973 42.7 49.2
54(7) 0.01871 42.8 49.2
50(7) 0.02012 42.8 49.2
49(7) 0.02029 42.8 49.2
48(7) 0.02088 42.8 49.2
50(7) 0.01995 42.9 49.2
50(7) 0.01989 42.9 49.2
50(7) 0.01984 42.9 49.2
50(7) 0.01989 42.9 49.2
47(7) 0.02125 42.9 49.2
50(7) 0.02012 43.0 49.2
52(7) 0.01913 43.0 49.2
51(7) 0.01951 43.0 49.3
47(7) 0.02144 43.0 49.3
52(7) 0.01908 43.1 49.4
49(7) 0.02035 43.1 49.5
51(7) 0.01951 43.1 49.6
51(7) 0.01967 43.1 49.7
51(7) 0.01945 43.2 49.8
48(7) 0.02076 43.2 50.0
47(7) 0.02150 43.2 50.1
50(7) 0.01989 43.2 50.3
51(7) 0.01951 43.2 50.5
52(7) 0.01934 43.3 50.7
50(7) 0.01989 43.3 50.9
51(7) 0.01951 43.3 51.0
53(7) 0.01892 43.3 51.2
50(7) 0.01984 43.3 51.3
55(7) 0.01811 43.4 51.4
51(7) 0.01951 43.4 51.5
51(7) 0.01956 43.4 51.6
46(7) 0.02163 43.4 51.6
53(7) 0.01882 43.4 51.7
48(7) 0.02070 43.5 51.6
51(7) 0.01967 43.5 51.6
51(7) 0.01978 43.5 51.5
51(7) 0.01967 43.5 51.4
53(7) 0.01902 43.5 51.3
47(7) 0.02144 43.6 51.2
50(7) 0.01995 43.6 51.0
52(7) 0.01940 43.6 50.8
53(7) 0.01882 43.6 50.7
48(7) 0.02094 43.6 50.5
51(7) 0.01951 43.6 50.3
48(7) 0.02076 43.6 50.2
49(7) 0.02029 43.6 50.0
51(7) 0.01967 43.7 49.9
47(7) 0.02150 43.7 49.7
49(7) 0.02053 43.7 49.6
48(7) 0.02107 43.7 49.6
53(7) 0.01902 43.7 49.5
47(7) 0.02113 43.7 49.5
48(7) 0.02082 43.7 49.5
47(7) 0.02113 43.7 49.5
50(7) 0.01995 43.7 49.6
49(7) 0.02023 43.7 49.7
49(7) 0.02035 43.7 49.8
53(7) 0.01892 43.7 49.9
51(7) 0.01978 43.7 50.1
51(7) 0.01951 43.7 50.3
54(7) 0.01856 43.7 50.6
51(7) 0.01978 43.7 50.9
53(7) 0.01897 43.7 51.2
55(7) 0.01826 43.7 51.5
52(7) 0.01908 43.7 51.9
55(7) 0.01811 43.7 52.3
54(7) 0.01846 43.7 52.8
56(7) 0.01792 43.7 53.3
55(7) 0.01807 43.7 53.8
55(7) 0.01821 43.7 54.3
54(7) 0.01846 43.7 54.9
58(8) 0.01713 43.7 55.4
60(8) 0.01674 43.7 56.0
58(8) 0.01713 43.7 56.6
58(8) 0.01713 43.7 57.3
60(8) 0.01674 43.6 57.9
56(8) 0.01773 43.6 58.6
57(8) 0.01750 43.6 59.2
64(8) 0.01559 43.6 59.9
61(8) 0.01635 43.6 60.5
60(8) 0.01665 43.6 61.1
64(8) 0.01563 43.5 61.8
59(8) 0.01691 43.5 62.3
63(8) 0.01590 43.5 62.9
60(8) 0.01656 43.5 63.4
65(8) 0.01539 43.5 63.8
61(8) 0.01648 43.4 64.1
56(7) 0.01797 43.4 64.4
64(8) 0.01570 43.4 64.6
61(8) 0.01652 43.4 64.7
57(8) 0.01750 43.3 64.7
59(8) 0.01682 43.3 64.7
57(8) 0.01759 43.3 64.5
63(8) 0.01594 43.2 64.3
60(8) 0.01674 43.2 64.1
63(8) 0.01594 43.2 63.8
58(8) 0.01736 43.1 63.5
60(8) 0.01661 43.1 63.1
59(8) 0.01695 43.1 62.7
62(8) 0.01602 43.0 62.3
59(8) 0.01700 43.0 61.9
62(8) 0.01610 43.0 61.5
62(8) 0.01619 42.9 61.1
56(7) 0.01802 42.9 60.7
60(8) 0.01665 42.8 60.4
57(8) 0.01754 42.8 60.0
63(8) 0.01578 42.8 59.6
61(8) 0.01648 42.7 59.2
57(8) 0.01764 42.7 58.9
58(8) 0.01713 42.6 58.5
59(8) 0.01709 42.6 58.2
56(8) 0.01773 42.5 57.8
56(7) 0.01783 42.5 57.4
55(7) 0.01836 42.4 57.1
56(8) 0.01778 42.4 56.7
59(8) 0.01691 42.3 56.4
61(8) 0.01652 42.3 56.1
55(7) 0.01816 42.2 55.8
54(7) 0.01846 42.2 55.4
54(7) 0.01836 42.1 55.1
54(7) 0.01856 42.1 54.9
52(7) 0.01918 42.0 54.6
55(7) 0.01807 42.0 54.3
56(7) 0.01797 41.9 54.0
52(7) 0.01918 41.9 53.8
55(7) 0.01816 41.8 53.6
47(7) 0.02113 41.8 53.4
53(7) 0.01902 41.7 53.1
51(7) 0.01967 41.7 52.9
53(7) 0.01897 41.6 52.7
54(7) 0.01856 41.5 52.5
54(7) 0.01866 41.5 52.3
51(7) 0.01967 41.4 52.1
53(7) 0.01882 41.4 51.9
51(7) 0.01967 41.3 51.7
55(7) 0.01816 41.2 51.5
53(7) 0.01902 41.2 51.3
56(8) 0.01778 41.1 51.0
49(7) 0.02023 41.1 50.8
51(7) 0.01951 41.0 50.5
52(7) 0.01929 41.0 50.3
52(7) 0.01940 40.9 50.0
49(7) 0.02053 40.8 49.7
50(7) 0.01995 40.8 49.4
47(7) 0.02144 40.7 49.1
49(7) 0.02064 40.7 48.8
50(7) 0.02012 40.6 48.5
44(7) 0.02255 40.5 48.2
45(7) 0.02214 40.5 47.9
48(7) 0.02094 40.4 47.6
49(7) 0.02053 40.4 47.3
45(7) 0.02208 40.3 47.0
50(7) 0.02001 40.2 46.7
46(7) 0.02169 40.2 46.4
44(7) 0.02296 40.1 46.1
45(7) 0.02201 40.1 45.9
45(7) 0.02208 40.0 45.6
47(7) 0.02131 40.0 45.4
50(7) 0.01984 39.9 45.1
45(7) 0.02234 39.8 44.9
43(7) 0.02324 39.8 44.7
47(7) 0.02144 39.7 44.5
46(7) 0.02156 39.7 44.3
49(7) 0.02053 39.6 44.1
44(7) 0.02282 39.6 43.9
45(7) 0.02228 39.5 43.8
47(7) 0.02144 39.5 43.6
44(7) 0.02296 39.4 43.5
46(7) 0.02195 39.4 43.3
43(7) 0.02324 39.3 43.2
46(7) 0.02188 39.3 43.1
44(7) 0.02289 39.2 43.0
42(6) 0.02411 39.2 42.9
44(7) 0.02282 39.1 42.8
50(7) 0.02006 39.1 42.7
46(7) 0.02195 39.0 42.7
46(7) 0.02188 39.0 42.7
45(7) 0.02208 39.0 42.7
46(7) 0.02156 38.9 42.7
41(6) 0.02472 38.9 42.7
41(6) 0.02449 38.8 42.7
46(7) 0.02163 38.8 42.8
45(7) 0.02214 38.8 42.9
42(6) 0.02411 38.7 43.0
45(7) 0.02248 38.7 43.2
41(6) 0.02419 38.6 43.3
42(6) 0.02404 38.6 43.5
44(7) 0.02255 38.6 43.7
46(7) 0.02188 38.5 43.8
47(7) 0.02113 38.5 44.0
48(7) 0.02076 38.5 44.3
43(7) 0.02303 38.5 44.5
45(7) 0.02234 38.4 44.7
49(7) 0.02047 38.4 44.9
46(7) 0.02195 38.4 45.1
43(7) 0.02317 38.4 45.2
50(7) 0.01989 38.3 45.4
50(7) 0.02012 38.3 45.5
47(7) 0.02137 38.3 45.6
48(7) 0.02100 38.3 45.7
45(7) 0.02214 38.3 45.8
47(7) 0.02150 38.2 45.8
46(7) 0.02175 38.2 45.8
49(7) 0.02053 38.2 45.8
47(7) 0.02137 38.2 45.8
47(7) 0.02150 38.2 45.8
43(7) 0.02345 38.2 45.7
46(7) 0.02188 38.2 45.6
44(7) 0.02282 38.2 45.6
46(7) 0.02195 38.1 45.5
45(7) 0.02208 38.1 45.5
50(7) 0.02018 38.1 45.4
47(7) 0.02125 38.1 45.4
47(7) 0.02113 38.1 45.4
45(7) 0.02214 38.1 45.3
46(7) 0.02182 38.1 45.3
45(7) 0.02234 38.1 45.4
41(6) 0.02419 38.1 45.4
43(7) 0.02310 38.1 45.5
46(7) 0.02195 38.1 45.5
47(7) 0.02144 38.1 45.6
45(7) 0.02228 38.1 45.7
47(7) 0.02150 38.1 45.8
45(7) 0.02234 38.2 45.9
45(7) 0.02248 38.2 46.1
44(7) 0.02289 38.2 46.2
45(7) 0.02228 38.2 46.3
45(7) 0.02228 38.2 46.4
43(7) 0.02338 38.2 46.5
45(7) 0.02234 38.2 46.6
47(7) 0.02125 38.2 46.7
48(7) 0.02082 38.2 46.7
43(7) 0.02331 38.3 46.8
45(7) 0.02248 38.3 46.8
46(7) 0.02175 38.3 46.8
50(7) 0.01989 38.3 46.7
49(7) 0.02053 38.3 46.7
44(7) 0.02296 38.3 46.6
47(7) 0.02113 38.4 46.5
45(7) 0.02214 38.4 46.4
43(7) 0.02331 38.4 46.2
47(7) 0.02119 38.4 46.1
45(7) 0.02214 38.4 45.9
42(7) 0.02367 38.5 45.8
48(7) 0.02076 38.5 45.6
43(7) 0.02345 38.5 45.4
43(7) 0.02317 38.5 45.2
45(7) 0.02214 38.5 45.1
45(7) 0.02221 38.6 44.9
43(7) 0.02352 38.6 44.7
43(7) 0.02303 38.6 44.5
45(7) 0.02234 38.6 44.4
43(7) 0.02317 38.7 44.2
40(6) 0.02488 38.7 44.1
42(7) 0.02367 38.7 44.0
46(7) 0.02182 38.7 43.8
44(7) 0.02296 38.7 43.7
46(7) 0.02163 38.8 43.6
42(6) 0.02411 38.8 43.5
42(6) 0.02404 38.8 43.5
42(6) 0.02396 38.8 43.4
44(7) 0.02255 38.8 43.4
44(7) 0.02289 38.9 43.3
44(7) 0.02268 38.9 43.3
38(6) 0.02670 38.9 43.3
47(7) 0.02113 38.9 43.3
41(6) 0.02449 38.9 43.2
43(7) 0.02352 39.0 43.2
45(7) 0.02228 39.0 43.2
45(7) 0.02234 39.0 43.2
42(6) 0.02374 39.0 43.1
44(7) 0.02296 39.0 43.1
43(7) 0.02345 39.0 43.0
42(6) 0.02389 39.0 43.0
45(7) 0.02234 39.0 43.0
42(7) 0.02367 39.1 42.9
45(7) 0.02201 39.1 42.9
43(7) 0.02317 39.1 42.8
45(7) 0.02248 39.1 42.8
39(6) 0.02544 39.1 42.8
45(7) 0.02221 39.1 42.7
43(7) 0.02345 39.1 42.7
44(7) 0.02289 39.1 42.7
40(6) 0.02520 39.1 42.7
45(7) 0.02234 39.1 42.8
43(7) 0.02317 39.1 42.8
43(7) 0.02310 39.1 42.8
43(7) 0.02331 39.1 42.9
42(6) 0.02396 39.1 42.9
46(7) 0.02175 39.1 43.0
43(7) 0.02338 39.1 43.1
41(6) 0.02441 39.1 43.2
43(7) 0.02303 39.1 43.3
43(7) 0.02317 39.1 43.3
45(7) 0.02214 39.1 43.4
42(6) 0.02389 39.1 43.5
45(7) 0.02214 39.0 43.6
43(7) 0.02331 39.0 43.7
43(7) 0.02345 39.0 43.8
43(7) 0.02324 39.0 43.8
45(7) 0.02248 39.0 43.9
46(7) 0.02169 39.0 43.9
50(7) 0.02018 38.9 44.0
47(7) 0.02113 38.9 44.0
43(7) 0.02331 38.9 44.0
46(7) 0.02188 38.9 44.0
44(7) 0.02275 38.8 44.0
47(7) 0.02137 38.8 44.0
40(6) 0.02504 38.8 43.9
45(7) 0.02241 38.8 43.9
45(7) 0.02208 38.7 43.9
45(7) 0.02234 38.7 43.8
41(6) 0.02449 38.7 43.8
43(7) 0.02324 38.6 43.7
44(7) 0.02296 38.6 43.7
41(6) 0.02441 38.6 43.6
44(7) 0.02282 38.5 43.5
42(6) 0.02389 38.5 43.5
43(7) 0.02331 38.5 43.4
40(6) 0.02504 38.4 43.4
43(7) 0.02345 38.4 43.4
41(6) 0.02449 38.3 43.4
43(7) 0.02345 38.3 43.3
42(6) 0.02381 38.2 43.3
44(7) 0.02275 38.2 43.4
43(7) 0.02310 38.2 43.4
46(7) 0.02182 38.1 43.4
45(7) 0.02234 38.1 43.5
46(7) 0.02195 38.0 43.5
48(7) 0.02094 38.0 43.6
45(7) 0.02234 37.9 43.7
47(7) 0.02144 37.9 43.7
44(7) 0.02268 37.8 43.8
47(7) 0.02119 37.8 43.9
44(7) 0.02268 37.7 44.0
48(7) 0.02082 37.7 44.1
48(7) 0.02076 37.6 44.2
41(6) 0.02434 37.6 44.3
45(7) 0.02234 37.6 44.4
47(7) 0.02144 37.5 44.5
47(7) 0.02150 37.5 44.6
45(7) 0.02201 37.4 44.7
46(7) 0.02188 37.4 44.8
48(7) 0.02107 37.3 44.9
43(7) 0.02310 37.3 45.0
47(7) 0.02125 37.2 45.0
46(7) 0.02163 37.2 45.1
47(7) 0.02150 37.1 45.1
44(7) 0.02296 37.1 45.1
43(7) 0.02317 37.0 45.1
45(7) 0.02208 37.0 45.1
46(7) 0.02175 37.0 45.1
45(7) 0.02248 36.9 45.1
47(7) 0.02113 36.9 45.0
43(7) 0.02345 36.8 44.9
46(7) 0.02182 36.8 44.8
41(6) 0.02449 36.8 44.7
44(7) 0.02268 36.7 44.6
48(7) 0.02064 36.7 44.5
41(6) 0.02434 36.7 44.4
43(7) 0.02338 36.6 44.3
46(7) 0.02182 36.6 44.1
45(7) 0.02248 36.6 44.0
40(6) 0.02504 36.5 43.9
42(7) 0.02367 36.5 43.8
49(7) 0.02064 36.5 43.7
43(7) 0.02345 36.5 43.6
41(6) 0.02419 36.4 43.5
45(7) 0.02228 36.4 43.4
42(6) 0.02411 36.4 43.3
41(6) 0.02457 36.4 43.3
42(7) 0.02367 36.4 43.2
43(7) 0.02317 36.4 43.2
45(7) 0.02248 36.3 43.1
43(7) 0.02338 36.3 43.1
43(7) 0.02345 36.3 43.1
43(7) 0.02317 36.3 43.1
39(6) 0.02560 36.3 43.0
47(7) 0.02150 36.3 43.0
45(7) 0.02221 36.3 43.0
47(7) 0.02144 36.3 43.0
45(7) 0.02234 36.3 42.9
43(7) 0.02331 36.3 42.9
42(6) 0.02389 36.3 42.8
45(7) 0.02214 36.3 42.8
44(7) 0.02255 36.3 42.7
42(6) 0.02389 36.3 42.7
40(6) 0.02488 36.3 42.6
41(6) 0.02441 36.3 42.5
44(7) 0.02268 36.4 42.4
45(7) 0.02248 36.4 42.3
42(6) 0.02411 36.4 42.2
41(6) 0.02464 36.4 42.1
41(6) 0.02441 36.4 42.0
44(7) 0.02282 36.4 41.9
45(7) 0.02201 36.5 41.8
38(6) 0.02635 36.5 41.7
40(6) 0.02480 36.5 41.5
38(6) 0.02635 36.5 41.4
42(7) 0.02367 36.6 41.3
42(6) 0.02411 36.6 41.2
39(6) 0.02544 36.6 41.1
43(7) 0.02324 36.6 41.0
43(7) 0.02345 36.7 40.9
40(6) 0.02504 36.7 40.8
42(6) 0.02389 36.7 40.7
42(7) 0.02367 36.7 40.6
39(6) 0.02560 36.8 40.5
39(6) 0.02576 36.8 40.4
40(6) 0.02528 36.8 40.3
40(6) 0.02536 36.9 40.2
39(6) 0.02568 36.9 40.1
41(6) 0.02449 36.9 40.1
43(7) 0.02324 36.9 40.0
36(6) 0.02787 37.0 39.9
38(6) 0.02635 37.0 39.9
40(6) 0.02496 37.0 39.8
40(6) 0.02480 37.1 39.8
42(7) 0.02367 37.1 39.7
38(6) 0.02653 37.1 39.7
38(6) 0.02635 37.1 39.7
40(6) 0.02520 37.2 39.7
40(6) 0.02528 37.2 39.7
41(6) 0.02449 37.2 39.7
37(6) 0.02696 37.2 39.7
40(6) 0.02528 37.2 39.7
44(7) 0.02268 37.3 39.8
39(6) 0.02601 37.3 39.8
38(6) 0.02635 37.3 39.9
40(6) 0.02496 37.3 39.9
35(6) 0.02853 37.3 40.0
40(6) 0.02504 37.3 40.1
41(6) 0.02457 37.4 40.2
44(7) 0.02268 37.4 40.3
38(6) 0.02610 37.4 40.5
45(7) 0.02221 37.4 40.6
44(7) 0.02296 37.4 40.8
39(6) 0.02552 37.4 41.0
44(7) 0.02296 37.4 41.1
41(6) 0.02434 37.4 41.3
40(6) 0.02496 37.4 41.5
40(6) 0.02512 37.4 41.7
42(7) 0.02367 37.4 42.0
46(7) 0.02156 37.4 42.2
46(7) 0.02169 37.5 42.4
43(7) 0.02345 37.5 42.7
40(6) 0.02480 37.5 42.9
48(7) 0.02100 37.5 43.2
42(6) 0.02389 37.5 43.4
47(7) 0.02119 37.5 43.7
46(7) 0.02156 37.5 44.0
47(7) 0.02144 37.5 44.2
42(6) 0.02396 37.5 44.5
44(7) 0.02255 37.5 44.7
43(7) 0.02317 37.5 45.0
44(7) 0.02296 37.5 45.2
52(7) 0.01918 37.5 45.4
42(6) 0.02374 37.5 45.6
46(7) 0.02156 37.6 45.8
44(7) 0.02282 37.6 46.0
50(7) 0.02006 37.6 46.1
45(7) 0.02214 37.6 46.2
51(7) 0.01973 37.6 46.3
50(7) 0.01984 37.6 46.4
43(7) 0.02324 37.7 46.4
47(7) 0.02137 37.7 46.4
47(7) 0.02113 37.7 46.4
44(7) 0.02255 37.8 46.3
46(7) 0.02156 37.8 46.3
43(7) 0.02317 37.8 46.2
44(7) 0.02261 37.9 46.1
45(7) 0.02234 37.9 46.0
46(7) 0.02163 37.9 45.8
48(7) 0.02094 38.0 45.7
42(6) 0.02389 38.0 45.5
44(7) 0.02275 38.1 45.4
45(7) 0.02241 38.1 45.2
48(7) 0.02094 38.1 45.1
46(7) 0.02195 38.2 44.9
43(7) 0.02303 38.2 44.8
47(7) 0.02144 38.2 44.6
45(7) 0.02248 38.2 44.5
46(7) 0.02195 38.2 44.4
44(7) 0.02289 38.2 44.2
43(7) 0.02345 38.2 44.1
43(7) 0.02338 38.2 44.0
44(7) 0.02255 38.2 43.9
42(7) 0.02360 38.1 43.8
43(7) 0.02317 38.0 43.7
44(7) 0.02282 37.9 43.6
46(7) 0.02182 37.8 43.5
43(7) 0.02345 37.6 43.4
44(7) 0.02275 37.4 43.3
45(7) 0.02241 37.2 43.2
45(7) . . .
loop_
_gsas_i100_meas
100.00
6.00
39.08
1.05
5.51
24.01
0.55
2.64
10.97
0.18
14.64
10.84
15.18
0.95
18.99
7.21
9.62
25.46
78.91
0.20
3.92
21.65
4.04
0.11
2.89
17.66
1.39
2.04
1.25
14.44
37.24
2.94
5.48
0.21
5.33
0.68
0.30
0.18
0.84
0.85
0.32
0.53
2.78
0.17
1.29
0.01
0.50
3.88
0.64
5.11
7.98
0.13
3.84
1.68
2.95
1.23
3.56
2.69
0.04
0.05
0.31
0.04
0.38
0.14
3.21
2.18
1.84
0.01
3.39
1.67
0.05
0.43
0.03
0.94
0.36
1.32
1.35
0.08
4.96
2.55
3.40
0.82
0.08
0.11
1.88
0.47
2.33
0.60
1.64
0.87
1.81
4.75
4.43
4.07
0.53
1.16
1.57
0.69
0.00
0.60
0.95
4.27
0.04
0.79
0.03
2.58
0.10
0.41
1.28
0.56
0.30
0.16
1.62
0.02
0.78
0.50
0.32
0.00
0.98
0.92
0.55
0.18
0.77
0.69
2.27
0.43
2.77
1.78
1.40
1.78
0.86
1.15
0.23
2.12
0.20
0.02
0.12
0.35
0.04
0.23
0.20
0.32
0.25
0.60
0.35
0.48
1.34
3.11
0.72
0.21
0.13
0.05
0.44
0.06
0.51
0.62
0.07
0.13
0.03
0.03
0.36
0.07
0.00
0.54
0.46
0.42
0.03
1.00
0.56
0.15
0.15
0.86
0.57
0.04
0.03
1.22
0.62
0.41
0.05
1.14
0.21
0.35
0.19
2.25
0.38
0.32
0.66
0.42
0.05
0.23
0.04
0.08
0.14
0.40
0.03
0.09
0.19
0.21
0.25
0.24
0.34
0.33
0.49
0.40
0.03
0.71
0.02
0.18
0.16
0.03
0.00
0.19
0.23
0.19
0.25
0.05
0.61
0.03
0.18
0.12
0.25
0.78
0.02
0.38
0.71
0.63
0.55
0.51
1.00
0.09
0.01
0.80
0.07
0.15
0.21
0.00
0.19
0.20
0.12
0.17
0.07
0.19
0.27
0.52
0.00
0.73
0.01
0.17
0.27
0.22
0.00
0.17
0.10
0.01
0.08
0.58
0.18
0.14
0.20
0.62
0.22
0.00
0.01
0.54
0.41
0.50
0.18
0.01
0.40
0.18
0.05
0.06
0.01
0.05
0.48
0.57
0.25
0.00
0.42
0.20
0.05
0.18
0.10
0.37
0.35
0.04
0.01
0.33
0.02
0.22
0.00
0.02
0.05
0.32
0.02
0.15
0.12
0.06
0.50
0.29
0.00
0.12
0.03
0.03
0.17
0.01
0.48
0.15
0.02
0.31
0.11
0.00
0.00
0.60
0.59
0.02
0.22
0.13
0.11
0.02
0.35
0.03
0.00
0.18
0.04
0.19
0.18
0.06
0.00
0.12
0.12
0.12
0.27
0.01
0.15
0.37
0.38
0.48
0.14
0.23
0.52
0.21
0.25
0.01
0.12
0.32
0.08
0.10
0.05
0.24
0.08
0.09
0.07
0.17
0.04
0.07
0.15
0.30
0.22
0.10
0.04
0.23
0.22
0.00
0.37
0.01
0.22
0.03
0.02
0.01
0.04
0.11
0.14
0.04
0.04
0.17
0.00
0.05
0.18
0.06
0.00
0.16
0.00
0.01
0.14
0.00
0.16
0.23
0.11
0.07
0.18
0.24
0.09
0.10
0.06
0.08
0.08
0.02
0.00
0.09
0.08
0.09
0.03
0.17
0.06
0.31
0.06
0.00
0.34
0.01
0.00
