#------------------------------------------------------------------------------
#$Date: 2022-09-23 01:37:45 +0300 (Fri, 23 Sep 2022) $
#$Revision: 278090 $
#$URL: file:///home/coder/svn-repositories/cod/cif/7/24/55/7245542.cif $
#------------------------------------------------------------------------------
#
# This file is available in the Crystallography Open Database (COD),
# http://www.crystallography.net/
#
# All data on this site have been placed in the public domain by the
# contributors.
#
data_7245542
loop_
_publ_author_name
'Stoesser, Julian'
'Engelage, Elric'
'Huber, Stefan'
_publ_section_title
;
 Co-crystallization studies of the syn- and anti-atropisomers of
 triphenyl-based perfluorinated halogen bond donors with halides
;
_journal_name_full               CrystEngComm
_journal_paper_doi               10.1039/D2CE00973K
_journal_year                    2022
_chemical_formula_sum            'C18 F12 I2'
_chemical_formula_weight         697.98
_space_group_crystal_system      triclinic
_space_group_IT_number           2
_space_group_name_Hall           '-P 1'
_space_group_name_H-M_alt        'P -1'
_audit_creation_method           SHELXL-2017/1
_audit_update_record
;
2022-08-27 deposited with the CCDC.	2022-09-16 downloaded from the CCDC.
;
_cell_angle_alpha                106.273(4)
_cell_angle_beta                 98.342(4)
_cell_angle_gamma                110.384(5)
_cell_formula_units_Z            2
_cell_length_a                   7.7774(4)
_cell_length_b                   10.5846(6)
_cell_length_c                   13.0896(5)
_cell_measurement_reflns_used    4251
_cell_measurement_temperature    170(2)
_cell_measurement_theta_max      27.5
_cell_measurement_theta_min      3.2
_cell_volume                     933.67(10)
_computing_cell_refinement
;
CrysAlisPro, Agilent Technologies,
Version 1.171.36.24 (release 03-12-2012 CrysAlis171 .NET)
(compiled Dec  3 2012,18:21:49)
;
_computing_data_collection
;
CrysAlisPro, Agilent Technologies,
Version 1.171.36.24 (release 03-12-2012 CrysAlis171 .NET)
(compiled Dec  3 2012,18:21:49)
;
_computing_data_reduction
;
CrysAlisPro, Agilent Technologies,
Version 1.171.36.24 (release 03-12-2012 CrysAlis171 .NET)
(compiled Dec  3 2012,18:21:49)
;
_computing_molecular_graphics    'Diamond 4, Mercury'
_computing_structure_refinement  'SHELXL-2017/1 (Sheldrick, 2017)'
_computing_structure_solution    'ShelXT, shelXle'
_diffrn_ambient_temperature      170(2)
_diffrn_detector_area_resol_mean 8.4171
_diffrn_measured_fraction_theta_full 0.998
_diffrn_measured_fraction_theta_max 0.993
_diffrn_measurement_device_type  'Xcalibur, Sapphire2, large Be window'
_diffrn_radiation_monochromator  graphite
_diffrn_radiation_source         'Enhance (Mo) X-ray Source'
_diffrn_radiation_type           'Mo K\a'
_diffrn_radiation_wavelength     0.7107
_diffrn_reflns_av_R_equivalents  0.0363
_diffrn_reflns_av_unetI/netI     0.0324
_diffrn_reflns_Laue_measured_fraction_full 0.998
_diffrn_reflns_Laue_measured_fraction_max 0.993
_diffrn_reflns_limit_h_max       10
_diffrn_reflns_limit_h_min       -10
_diffrn_reflns_limit_k_max       13
_diffrn_reflns_limit_k_min       -13
_diffrn_reflns_limit_l_max       16
_diffrn_reflns_limit_l_min       -16
_diffrn_reflns_number            16217
_diffrn_reflns_point_group_measured_fraction_full 0.998
_diffrn_reflns_point_group_measured_fraction_max 0.993
_diffrn_reflns_theta_full        25.242
_diffrn_reflns_theta_max         27.496
_diffrn_reflns_theta_min         3.210
_diffrn_source                   'fine-focus sealed X-ray tube'
_exptl_absorpt_coefficient_mu    3.488
_exptl_absorpt_correction_T_max  1.00000
_exptl_absorpt_correction_T_min  0.66631
_exptl_absorpt_correction_type   multi-scan
_exptl_absorpt_process_details
;
CrysAlisPro, Agilent Technologies,
Version 1.171.36.24 (release 03-12-2012 CrysAlis171 .NET)
(compiled Dec  3 2012,18:21:49)
Empirical absorption correction using spherical harmonics,
 implemented in SCALE3 ABSPACK scaling algorithm.
;
_exptl_crystal_colour            'translucent colorless'
_exptl_crystal_density_diffrn    2.483
_exptl_crystal_density_meas      ?
_exptl_crystal_description       needle
_exptl_crystal_F_000             644
_exptl_crystal_size_max          0.5
_exptl_crystal_size_mid          0.2
_exptl_crystal_size_min          0.2
_refine_diff_density_max         0.628
_refine_diff_density_min         -0.382
_refine_diff_density_rms         0.101
_refine_ls_extinction_method     none
_refine_ls_goodness_of_fit_ref   1.039
_refine_ls_hydrogen_treatment    undef
_refine_ls_matrix_type           full
_refine_ls_number_parameters     289
_refine_ls_number_reflns         4251
_refine_ls_number_restraints     0
_refine_ls_restrained_S_all      1.039
_refine_ls_R_factor_all          0.0377
_refine_ls_R_factor_gt           0.0263
_refine_ls_shift/su_max          0.001
_refine_ls_shift/su_mean         0.000
_refine_ls_structure_factor_coef Fsqd
_refine_ls_weighting_details
'w=1/[\s^2^(Fo^2^)+(0.0256P)^2^+0.2000P] where P=(Fo^2^+2Fc^2^)/3'
_refine_ls_weighting_scheme      calc
_refine_ls_wR_factor_gt          0.0545
_refine_ls_wR_factor_ref         0.0592
_reflns_Friedel_coverage         0.000
_reflns_number_gt                3498
_reflns_number_total             4251
_reflns_threshold_expression     'I > 2\s(I)'
_cod_data_source_file            d2ce00973k2.cif
_cod_data_source_block           syn-p-1
_cod_depositor_comments
;
The following automatic conversions were performed:

data item '_exptl_crystal_density_meas' value 'not measured' was
changed to '?' -- the value is perceived as not measured.

Automatic conversion script
Id: cif_fix_values 7556 2019-12-06 15:28:31Z antanas 
;
_cod_original_cell_volume        933.67(9)
_cod_database_code               7245542
_shelx_shelxl_version_number     2017/1
_shelx_space_group_comment
;
The symmetry employed for this shelxl refinement is uniquely defined
by the following loop, which should always be used as a source of
symmetry information in preference to the above space-group names.
They are only intended as comments.
;
_shelx_res_file
;
TITL shelxt_a.res in P-1
    js-irgendwas.res
    created by SHELXL-2017/1 at 10:37:44 on 11-Apr-2018
CELL 0.71073   7.777403  10.584641  13.089552 106.2729  98.3421 110.3839
ZERR    2.00   0.000400   0.000608   0.000519   0.0043   0.0039   0.0050
LATT   1
SFAC  C    F    I
UNIT  36 24 4
MERG   2
temp -103
FMAP   2
PLAN   20
BOND   $H
LIST   4
omit -4 55
acta
L.S.  10
WGHT    0.025600    0.200000
FVAR       1.31758
I1    3    1.149302    0.925412    0.920684    11.00000    0.03648    0.03559 =
         0.02640    0.00274    0.01348    0.00776
I2    3    0.431718    0.655193    0.958016    11.00000    0.04432    0.02716 =
         0.03012    0.00049    0.00216    0.01517
F1    2    0.921199    0.613502    0.483271    11.00000    0.03191    0.03290 =
         0.02498    0.00319    0.00134   -0.00328
F2    2    1.241262    0.774503    0.445449    11.00000    0.04662    0.04687 =
         0.02508    0.01086    0.01718    0.00578
F3    2    1.520334    1.000323    0.614680    11.00000    0.02698    0.03498 =
         0.04399    0.01769    0.01669    0.00127
F4    2    1.479789    1.063538    0.820383    11.00000    0.02676    0.03041 =
         0.03428   -0.00141    0.00535   -0.00796
F5    2    0.685302    0.793704    0.643894    11.00000    0.02706    0.03280 =
         0.07320    0.03712    0.01630    0.01164
F6    2    0.371655    0.629141    0.681182    11.00000    0.01820    0.03300 =
         0.06231    0.02803    0.01066    0.01114
F7    2    0.681837    0.348964    0.771755    11.00000    0.03177    0.02856 =
         0.05095    0.02660    0.01740    0.01556
F8    2    0.997528    0.516944    0.736589    11.00000    0.02268    0.03856 =
         0.05653    0.02770    0.01707    0.01717
F9    2    0.289088    0.200845    0.589218    11.00000    0.04001    0.02285 =
         0.03164    0.00197    0.01495    0.00412
F10   2   -0.021661    0.029662    0.627048    11.00000    0.03518    0.02157 =
         0.05309    0.00755    0.00477   -0.00466
F11   2   -0.124074    0.126222    0.814240    11.00000    0.02767    0.05059 =
         0.06823    0.03638    0.02331    0.00661
F12   2    0.075992    0.396212    0.956778    11.00000    0.04921    0.05833 =
         0.04764    0.02107    0.03291    0.02562
C1    1    1.029953    0.753918    0.673000    11.00000    0.01762    0.01939 =
         0.02925    0.01084    0.00825    0.00643
C2    1    1.056535    0.725599    0.568562    11.00000    0.02242    0.02047 =
         0.02383    0.00547    0.00231    0.00369
C3    1    1.219403    0.806222    0.547820    11.00000    0.02686    0.02923 =
         0.02218    0.01090    0.00965    0.00919
C4    1    1.361970    0.920996    0.633757    11.00000    0.01986    0.02381 =
         0.03623    0.01356    0.01149    0.00443
C5    1    1.338092    0.951366    0.738730    11.00000    0.02000    0.01909 =
         0.02920    0.00454    0.00369    0.00215
C6    1    1.173974    0.870116    0.759750    11.00000    0.02220    0.02108 =
         0.02443    0.00786    0.00814    0.00735
C7    1    0.851179    0.660270    0.690173    11.00000    0.01877    0.01652 =
         0.02317    0.00552    0.00512    0.00195
C8    1    0.687192    0.684787    0.676224    11.00000    0.02290    0.01654 =
         0.03516    0.01330    0.00614    0.00600
C9    1    0.524444    0.598397    0.694760    11.00000    0.01623    0.02310 =
         0.03382    0.01109    0.00361    0.00643
C10   1    0.518014    0.485271    0.728711    11.00000    0.01909    0.01615 =
         0.02376    0.00530    0.00443    0.00459
C11   1    0.681122    0.458727    0.740485    11.00000    0.02371    0.01627 =
         0.02812    0.01085    0.00830    0.00660
C12   1    0.843184    0.545516    0.721880    11.00000    0.01722    0.02427 =
         0.02333    0.00757    0.00615    0.00755
C13   1    0.346024    0.394606    0.753221    11.00000    0.01828    0.01758 =
         0.02631    0.01067    0.00517    0.00575
C14   1    0.239686    0.253500    0.681396    11.00000    0.02609    0.02327 =
         0.02378    0.00813    0.00619    0.00854
C15   1    0.081334    0.163745    0.700448    11.00000    0.02172    0.01922 =
         0.03734    0.01004    0.00138    0.00081
C16   1    0.027392    0.213491    0.794657    11.00000    0.01607    0.03029 =
         0.04881    0.02569    0.00795    0.00329
C17   1    0.130551    0.352349    0.866175    11.00000    0.02702    0.03897 =
         0.03226    0.01915    0.01569    0.01815
C18   1    0.287790    0.444264    0.846501    11.00000    0.01888    0.01896 =
         0.02827    0.00898    0.00293    0.00685
HKLF    4




REM  shelxt_a.res in P-1
REM R1 =  0.0263 for    3498 Fo > 4sig(Fo)  and  0.0377 for all    4251 data
REM    289 parameters refined using      0 restraints

END

WGHT      0.0256      0.2000

REM Highest difference peak  0.628,  deepest hole -0.382,  1-sigma level  0.101
Q1    1   1.1011  0.9808  0.8978  11.00000  0.05    0.63
Q2    1   0.3047  0.6201  1.0054  11.00000  0.05    0.63
Q3    1  -0.1171  0.1997  0.8824  11.00000  0.05    0.59
Q4    1   0.5490  0.7357  0.9770  11.00000  0.05    0.54
Q5    1   1.0243  0.8991  0.8715  11.00000  0.05    0.54
Q6    1   0.3918  0.6983  0.9130  11.00000  0.05    0.53
Q7    1   1.0504  0.8507  0.8996  11.00000  0.05    0.53
Q8    1   0.3136  0.6210  0.9093  11.00000  0.05    0.51
Q9    1   0.4147  0.7139  1.0063  11.00000  0.05    0.47
Q10   1   0.5050  0.7125  0.9191  11.00000  0.05    0.46
Q11   1   0.7559  0.5207  0.7445  11.00000  0.05    0.46
Q12   1   1.0867  0.8908  0.9795  11.00000  0.05    0.41
Q13   1   0.4317  0.4326  0.7395  11.00000  0.05    0.41
Q14   1   1.2688  1.0233  0.9583  11.00000  0.05    0.40
Q15   1   0.5896  0.4517  0.7226  11.00000  0.05    0.40
Q16   1   0.0101  0.2530  0.8582  11.00000  0.05    0.40
Q17   1   0.3076  0.5392  0.9239  11.00000  0.05    0.40
Q18   1   0.4648  0.5862  0.9521  11.00000  0.05    0.39
Q19   1   1.1431  0.8609  0.8542  11.00000  0.05    0.39
Q20   1   1.2061  0.9600  0.8631  11.00000  0.05    0.39
;
_shelx_res_checksum              46188
_shelx_hkl_file
;
   0   0  -2 522.224 38.3897   7
   0   0   2 499.349 34.0485   3
   0   0   2 506.648 32.2200   1
   0   0   3 22624.0 441.559   1
   0   0   3 21243.8 463.014   7
   0   0  -3 22522.5 441.304   3
   0   0   4 1092.41 51.6728   5
   0   0   4 1210.42 74.1919   1
   0   0  -4 1173.47 71.4016   3
   0   0   4 1005.25 78.3338   7
   0   0  -4 1198.93 54.9877   2
   0   0  -5 2757.64 122.750   3
   0   0  -5 2560.64 93.9489   2
   0   0   5 2747.87 139.177   7
   0   0   5 2650.00 122.855   1
   0   0   6 7712.83 247.917   1
   0   0  -6 8089.08 201.537   2
   0   0  -6 7702.59 246.844   3
   0   0   7 6988.16 252.167   1
   0   0  -7 7705.52 259.235   3
   0   0  -7 7611.82 205.212   2
   0   0  -8 8593.78 231.670   2
   0   0  -8 8628.58 297.770   3
   0   0   8 8867.93 272.833  10
   0   0   8 8441.60 296.346   1
   0   0  -9 4727.58 222.114   3
   0   0   9 4625.75 228.343   6
   0   0   9 5239.06 204.438  10
   0   0   9 4747.08 226.790   1
   0   0  -9 4494.38 162.677   2
   0   0 -10 1909.93 107.702   2
   0   0  10 2053.14 160.794   1
   0   0 -10 1997.69 150.633   3
   0   0  10 2024.00 161.970   6
   0   0 -11 196.739 58.8013   3
   0   0  11 203.317 50.2938   1
   0   0  11 224.721 76.2043   6
   0   0  12-7.99137 42.4405   6
   0   0 -12-32.5466 48.9742   3
   0   0  12 41.6697 39.2597   1
   0   0  13-5.78323 48.7555   1
   0   0  13 55.1935 58.9159   6
   0   0 -13 108.110 53.3944   3
   0   0 -14 77.9813 59.5948   3
   0   0  14 93.1420 62.9718   1
   0   0  14-0.75170 57.8044   6
   0   0  15 243.063 88.8512   1
   0   0  15 60.8903 61.2862   6
   0   0  16 68.6493 67.7671   6
   0   0  16 88.4337 69.0264   1
   0   0  17 518.759 111.826   6
   0  -1  17 153.765 87.5077   1
   0  -1  17-5.43796 74.7312   6
   0  -1  16 28.7690 69.5973   6
   0  -1  16 212.341 86.9136   1
   0   1 -15 244.257 78.5243   3
   0  -1  15 103.339 66.0188   6
   0  -1  15 147.856 68.8978   1
   0  -1  14 1274.04 150.023   6
   0  -1  14 1583.16 170.515   1
   0   1 -14 1353.76 153.161   3
   0  -1  13 2746.64 207.491   1
   0   1 -13 2937.30 215.139   3
   0  -1  12 2597.83 190.381   1
   0   1 -12 2875.02 202.350   3
   0  -1  12 2441.62 184.693   6
   0   1 -11 3948.82 220.797   3
   0  -1  11 4094.69 224.402   1
   0   1 -11 3907.44 164.869   2
   0  -1  10 2949.90 177.915   6
   0   1 -10 2607.27 172.224   3
   0   1 -10 2826.47 131.631   2
   0  -1  10 2896.52 178.401   1
   0  -1   9 394.703 68.7897   1
   0   1  -9 342.880 44.4006   2
   0   1  -9 448.331 72.9703   3
   0  -1   9 334.259 66.3225   6
   0  -1   9 366.710 44.4877  10
   0   1  -8 183.141 31.3294   2
   0   1  -8 272.090 56.4995   3
   0  -1   8 286.199 38.4073  10
   0  -1   8 267.072 53.3092   6
   0  -1   8 236.522 51.9821   1
   0  -1   8 210.772 60.3024   7
   0  -1   7 1176.97 92.0388   1
   0   1  -7 1402.18 99.3066   3
   0  -1   7 1288.74 114.037   7
   0   1  -7 1312.17 77.8475   2
   0  -1   7 1340.25 70.3454  10
   0  -1   6 91.4956 33.3985   1
   0   1  -6 74.4283 31.1162   3
   0  -1   6 114.131 37.3940   7
   0   1  -6 110.799 31.0983   2
   0  -1   6 73.0498 37.3350   6
   0  -1   5 6350.94 189.587   6
   0  -1   5 6483.58 215.866   7
   0   1  -5 5897.56 190.146   3
   0  -1   5 5971.50 146.609   9
   0  -1   5 5805.82 187.388   1
   0   1  -5 5901.49 164.437   2
   0  -1   4 1533.86 89.9211   7
   0   1  -4 1683.05 74.6820   2
   0  -1   4 1574.69 81.3337   1
   0  -1   4 1659.69 63.3617   9
   0   1  -4 1593.43 81.6203   3
   0   1  -3 3713.35 113.678   2
   0  -1   3 4207.68 109.464   9
   0  -1   3 3738.32 117.441   1
   0   1  -3 4017.88 131.165   7
   0  -1   3 4029.35 131.599   7
   0  -1   3 3836.94 120.710   3
   0   1  -3 4049.36 121.120   3
   0  -1   2 3185.59 87.1642   7
   0  -1   2 2981.54 80.7638   3
   0  -1   2 2986.41 77.2687   1
   0   1  -2 3324.47 86.4088   7
   0   1   1 1579.64 56.6844   1
   0  -1  -1 1760.51 58.5474   1
   0  -1  -1 1002.00 43.7048   3
   0  -1  -1 1794.95 68.5723   5
   0   1   2 193.915 32.8778   5
   0  -1  -2 219.214 31.6890   8
   0  -1  -2 253.139 28.4315   3
   0   1   2 242.137 28.3925   3
   0   1   2 252.159 32.5143   1
   0  -1  -2 172.305 29.6069   7
   0  -1  -2 303.216 32.7297   5
   0  -1  -2 301.281 23.7338   2
   0  -1  -3 27680.0 468.437   2
   0  -1  -3 25311.4 505.566   3
   0   1   3 22411.0 503.886   5
   0   1   3 24562.4 508.339   1
   0  -1  -3 26596.2 517.815   8
   0  -1  -3 29209.4 496.092   5
   0  -1  -4 130067. 2120.65   5
   0  -1  -4 131228. 2165.06   3
   0   1   4 129841. 2171.48   1
   0  -1  -4 128050. 2174.85   8
   0   1   5 3981.20 163.281   1
   0  -1  -5 3915.92 159.995   3
   0  -1  -5 4137.22 124.259   2
   0  -1  -5 3908.82 163.884   8
   0   1   6 16461.3 417.406   1
   0  -1  -6 15388.1 341.194   2
   0  -1  -6 17010.8 414.859   3
   0  -1  -6 17029.6 428.984   8
   0  -1  -7 16501.1 436.148   3
   0   1   7 16924.0 446.041   1
   0  -1  -7 16409.1 357.293   2
   0   1   7 16384.3 448.930  10
   0  -1  -8 1303.27 78.9981   2
   0   1   8 1244.21 112.165   1
   0  -1  -8 1253.67 105.104   3
   0   1   8 1184.70 107.458  10
   0   1   9 46.0348 41.4332   1
   0  -1  -9 3.07461 40.7399   3
   0  -1  -9 26.6634 25.6056   2
   0   1   9 109.585 51.5533  10
   0   1  10 2283.01 171.154   1
   0  -1 -10 2089.15 158.833   3
   0   1  10 2110.77 155.077  10
   0  -1 -11 7261.62 323.549   3
   0   1  11 7124.13 326.777   1
   0   1  12 2702.27 216.694   6
   0   1  12 2881.50 212.020   1
   0  -1 -12 3018.76 215.292   3
   0   1  13 3906.03 260.666   1
   0  -1 -13 3411.34 242.326   3
   0   1  13 3168.64 241.173   6
   0   1  14 1092.17 154.485   1
   0  -1 -14 883.790 135.957   3
   0   1  14 665.108 136.796   6
   0   1  15 354.581 92.1854   6
   0   1  15 503.021 111.022   1
   0   1  16 118.802 76.9671   1
   0   1  16 157.369 85.3161   6
   0  -2  17 416.441 103.129   6
   0  -2  17 767.061 140.653   1
   0  -2  16 938.812 134.873   6
   0  -2  16 1342.78 169.832   1
   0   2 -15 3405.78 251.932   3
   0  -2  15 3355.17 244.057   6
   0  -2  15 4139.49 272.340   1
   0  -2  14 2575.03 197.104   6
   0   2 -14 2615.45 210.570   3
   0  -2  14 2699.57 210.875   1
   0   2 -13 2092.05 175.190   3
   0  -2  13 1892.11 163.905   6
   0  -2  13 1873.12 168.675   1
   0  -2  12 596.897 92.4267   6
   0  -2  12 612.842 96.6981   1
   0   2 -12 768.334 109.611   3
   0  -2  11 156.806 59.6276   1
   0  -2  11 140.456 45.7354   6
   0   2 -11 133.259 54.6103   3
   0   2 -11 91.6049 37.1749   2
   0  -2  10 2269.43 155.610   1
   0  -2  10 2291.74 152.454   6
   0   2 -10 2281.03 157.641   3
   0   2 -10 2307.24 124.947   2
   0  -2   9 6440.59 287.547   7
   0   2  -9 6103.68 209.340   2
   0   2  -9 6232.00 252.276   3
   0  -2   9 6282.47 252.423   1
   0  -2   9 5297.60 232.420   6
   0   2  -8 5314.09 186.058   2
   0  -2   8 5189.80 244.606   7
   0   2  -8 5388.94 219.649   3
   0  -2   8 5091.14 203.888   6
   0  -2   8 5184.64 214.163   1
   0   2  -7 31331.0 662.172   3
   0  -2   7 30313.3 594.838   9
   0   2  -7 31436.1 621.063   2
   0  -2   7 32123.8 711.733   7
   0  -2   7 31034.3 658.816   1
   0  -2   6 14765.3 332.973   9
   0  -2   6 14883.4 353.410   6
   0  -2   6 14640.1 364.362   1
   0   2  -6 15280.8 350.132   2
   0   2  -6 15373.9 372.064   3
   0  -2   6 14841.1 398.037   7
   0  -2   5 1081.88 73.8613   1
   0  -2   5 1186.90 86.6755   7
   0  -2   5 1159.15 69.8774   9
   0   2  -5 1123.48 75.7255   3
   0   2  -5 948.681 69.3090   2
   0  -2   4 1573.62 81.8916   9
   0  -2   4 1584.96 81.5279   1
   0   2  -4 1594.85 84.0317   3
   0  -2   4 1523.31 88.4497   7
   0  -2   4 1501.12 67.3655   5
   0   2  -3 8.81016 21.9155   7
   0   2  -3 14.2964 24.8290   3
   0  -2   3 68.8138 24.6320   7
   0  -2   3 38.7653 22.2634   1
   0  -2   3 58.6804 31.9693   5
   0   2  -3 102.843 18.7720  10
   0  -2   2 241.882 25.3518   7
   0   2  -2 204.005 23.2374   7
   0  -2   2 182.671 29.1409   3
   0   2  -2 227.555 29.5632  10
   0   2  -2 240.615 32.2487   3
   0  -2   2 188.149 35.2833   5
   0  -2   2 172.180 24.8120   1
   0   2  -1 4571.52 124.038   3
   0   2  -1 4394.30 154.066   5
   0  -2   1 4537.56 126.409   1
   0  -2   1 3820.21 152.624   5
   0   2  -1 4604.51 129.011   3
   0   2  -1 4557.74 101.085   7
   0  -2   1 4921.78 131.275   3
   0  -2   1 4742.97 101.924   7
   0   2   0 1073.58 55.8162   3
   0   2   0 878.087 72.7283   5
   0  -2   0 966.879 74.1304   5
   0  -2   0 1149.92 41.8205   7
   0  -2   0 1106.61 55.7071   3
   0  -2   0 1049.39 57.4971   1
   0   2   1 5009.19 147.169   1
   0  -2  -1 5055.63 150.012   1
   0  -2  -1 5268.26 145.266   3
   0   2   1 4448.30 176.503   5
   0  -2  -2 13305.7 310.083   3
   0   2   2 12410.6 345.426   5
   0  -2  -2 14234.5 320.770   1
   0   2   2 14459.2 316.107   1
   0   2   3 1570.22 105.654   5
   0  -2  -3 1545.86 92.2957   3
   0   2   3 1796.11 97.1334   1
   0  -2  -3 1631.58 96.1026   8
   0  -2  -4 52.2685 28.8919   8
   0  -2  -4 14.2157 17.0791   2
   0   2   4 38.8031 24.2668   1
   0  -2  -4 41.5089 23.8605   3
   0  -2  -5 2813.88 148.901   8
   0  -2  -5 2858.36 106.411   2
   0  -2  -5 2953.04 140.822   3
   0   2   5 2791.62 143.605   1
   0  -2  -6 76.5083 42.1730   3
   0   2   6 110.823 42.1835   1
   0  -2  -6 90.2189 34.5299   8
   0  -2  -6 89.1696 23.4606   2
   0  -2  -7 5539.62 233.128   3
   0  -2  -7 5574.89 245.766   8
   0  -2  -7 5692.21 174.934   2
   0   2   7 5734.86 241.407   1
   0   2   7 5532.42 258.115  10
   0  -2  -8 17215.2 390.359   2
   0   2   8 17004.5 516.440  10
   0   2   8 18759.1 511.785   1
   0  -2  -8 17418.5 492.375   3
   0  -2  -8 18228.9 512.940   8
   0   2   9 189.420 75.7945  10
   0  -2  -9 133.720 34.3551   2
   0  -2  -9 119.211 48.9783   3
   0   2   9 62.5674 51.7942   1
   0  -2 -10 6740.43 309.000   3
   0   2  10 7478.08 326.577   1
   0   2  10 7212.14 320.038  10
   0   2  11 8723.33 380.779   1
   0  -2 -11 9093.44 377.730   3
   0   2  12 2285.72 193.954   1
   0  -2 -12 2116.80 186.525   3
   0  -2 -13 229.926 78.9414   3
   0   2  13 103.042 78.7370   6
   0   2  13 66.3865 47.2441   1
   0   2  14 103.989 76.3914   6
   0   2  14 52.8403 70.1335   1
   0   2  15 515.622 115.013   1
   0   2  15 512.473 117.505   6
   0   2  16 680.919 141.527   6
   0  -3  18 45.6017 72.0118   1
   0  -3  17 37.5346 64.9922   1
   0  -3  16 425.714 96.6204   6
   0  -3  16 472.549 101.982   1
   0  -3  15 39.8160 55.3917   1
   0  -3  15 42.0865 61.0309   6
   0   3 -15 33.2231 47.9675   3
   0   3 -14-0.34066 55.5569   3
   0  -3  14-31.1477 58.4307   1
   0  -3  14 32.8433 53.3340   6
   0   3 -13 249.729 82.4420   3
   0  -3  13 228.249 77.2915   1
   0  -3  13 320.724 77.9331   6
   0  -3  12 2455.82 179.290   1
   0  -3  12 2407.27 165.242   6
   0   3 -12 2590.35 186.293   3
   0   3 -11 8773.02 288.470   2
   0  -3  11 8447.94 316.540   6
   0  -3  11 8648.66 336.103   1
   0  -3  11 8630.87 380.342   7
   0   3 -11 9047.48 345.763   3
   0   3 -10 4638.60 225.900   3
   0  -3  10 4226.31 244.923   7
   0  -3  10 4520.25 223.643   1
   0  -3  10 4379.86 209.129   6
   0   3 -10 4614.69 195.215   2
   0  -3   9 13078.4 389.823   1
   0   3  -9 12200.5 382.066   3
   0   3  -9 12611.3 352.174   2
   0  -3   9 13171.7 368.084   6
   0  -3   9 13265.2 436.557   7
   0  -3   8 5167.71 197.384   6
   0   3  -8 4195.19 205.337   3
   0  -3   8 5077.76 236.688   7
   0   3  -8 5129.16 196.407   2
   0  -3   8 5057.51 210.290   1
   0  -3   7 9868.91 321.431   7
   0   3  -7 9594.92 294.751   3
   0  -3   7 9763.18 277.277   6
   0  -3   7 9474.51 289.825   1
   0   3  -7 9488.23 286.424   2
   0   3  -6 117.029 43.9812   2
   0  -3   6 255.990 43.9541   1
   0  -3   6 243.982 38.8072   6
   0  -3   6 267.377 32.2383   5
   0   3  -6 258.057 49.0317   3
   0  -3   6 298.633 55.7352   7
   0   3  -5 8843.36 189.191  10
   0   3  -5 9081.33 260.025   3
   0  -3   5 9214.33 254.807   1
   0  -3   5 9825.15 240.507   6
   0  -3   5 8709.51 261.693   7
   0   3  -4 19716.6 434.969   3
   0  -3   4 19800.3 425.131   7
   0   3  -4 20128.7 391.247  10
   0  -3   4 20461.2 429.431   1
   0   3  -3 39521.1 719.916   7
   0   3  -3 42167.5 748.922  10
   0  -3   3 40808.3 745.210   1
   0  -3   3 40724.3 729.625   7
   0   3  -3 40599.2 755.818   3
   0   3  -2 30204.0 612.661  10
   0  -3   2 31964.8 548.005   7
   0  -3   2 30393.8 581.857   1
   0   3  -2 31257.0 541.158   7
   0   3  -2 29669.7 591.579   3
   0   3  -1 27908.9 468.421   7
   0  -3   1 25519.7 509.724   3
   0  -3   1 26904.8 462.965   7
   0   3  -1 25650.6 521.701   3
   0   3  -1 25645.4 560.137  10
   0  -3   1 26922.6 518.468   1
   0   3   0 16469.8 446.457   5
   0  -3   0 17987.1 384.126   2
   0  -3   0 18764.9 336.594   7
   0  -3   0 17402.3 377.640   3
   0  -3   0 18417.4 387.629   1
   0  -3  -1 5815.25 176.611   3
   0  -3  -1 5485.17 180.687   1
   0   3   1 5582.59 182.067   1
   0  -3  -1 5698.57 169.609   2
   0   3   1 4825.64 217.347   5
   0  -3  -2 3855.39 144.162   3
   0  -3  -2 3562.91 148.267   1
   0   3   2 3520.42 144.757   1
   0  -3  -2 3395.81 124.481   2
   0  -3  -3 29.8058 24.2298   8
   0   3   3 26.5364 28.0579   1
   0  -3  -3 42.7583 24.5146   2
   0  -3  -3 54.7934 29.9409   3
   0  -3  -4 11232.2 315.796   3
   0  -3  -4 11240.5 330.174   8
   0   3   4 10954.9 322.481   1
   0  -3  -5 4849.26 203.547   3
   0   3   5 4482.48 200.397   1
   0  -3  -5 5004.41 217.502   8
   0  -3  -5 4689.01 158.161   2
   0  -3  -6 17.0576 43.4869   3
   0   3   6 34.4875 37.9518   1
   0  -3  -6 46.7282 26.4256   2
   0  -3  -6 65.6552 39.1310   8
   0   3   6 34.3097 62.4101  10
   0  -3  -7 767.149 96.3459   3
   0   3   7 762.242 112.169  10
   0  -3  -7 665.403 89.9464   8
   0   3   7 685.454 87.8889   1
   0  -3  -7 908.236 67.4129   2
   0  -3  -8 68.1578 30.2167   2
   0  -3  -8 11.9473 47.5706   8
   0  -3  -8-33.2637 32.9069   3
   0   3   8-2.09094 62.3470  10
   0   3   8 72.1352 59.3533   1
   0   3   9 350.252 81.6244  10
   0  -3  -9 312.682 78.4548   8
   0  -3  -9 391.377 77.6687   3
   0   3   9 449.260 85.5507   1
   0   3  10-9.85130 58.1582   1
   0  -3 -10 12.5269 45.1841   3
   0   3  10-11.2436 58.9841  10
   0  -3 -11 389.968 87.4688   3
   0   3  11 451.190 93.2584   1
   0   3  12 391.178 95.8141   1
   0  -3 -12 276.496 79.1903   3
   0   3  13 163.050 71.5279   1
   0   3  14 1480.69 180.210   1
   0   3  14 1308.10 184.007   6
   0   3  15 1151.79 171.276   6
   0  -4  18 67.9798 65.9167   1
   0  -4  17 27.3717 67.1820   1
   0  -4  16 336.508 89.0772   1
   0   4 -16 369.653 98.3511   3
   0   4 -15 1130.68 145.624   3
   0  -4  15 885.390 113.908   6
   0  -4  15 949.750 128.987   1
   0  -4  14 319.676 72.2348   6
   0  -4  14 543.306 97.6169   1
   0   4 -14 390.498 90.2098   3
   0  -4  13 140.985 61.3385   1
   0   4 -13 168.966 48.6073   2
   0   4 -13 250.543 77.5075   3
   0  -4  13 137.516 55.6982   6
   0   4 -12 93.6828 54.1815   3
   0  -4  12 40.9811 50.1096   7
   0  -4  12 25.9530 52.4746   1
   0  -4  12 20.0962 29.8909   6
   0   4 -12-20.4091 31.9467   2
   0  -4  11 293.025 76.8443   7
   0   4 -11 445.526 74.6744   2
   0   4 -11 470.679 88.8384   3
   0  -4  11 374.248 73.4911   1
   0  -4  11 365.735 67.3283   6
   0  -4  10-19.4561 40.4135   1
   0  -4  10 56.0019 74.1862   7
   0   4 -10 96.1103 48.4729   2
   0  -4  10 9.70412 31.3539   6
   0   4 -10 35.0441 45.8387   3
   0   4  -9 125.148 44.7671   2
   0   4  -9 16.6743 36.7198   3
   0  -4   9 154.219 40.2704   6
   0  -4   9 170.668 52.2551   1
   0  -4   9 89.6718 51.8077   7
   0   4  -8 3309.53 171.640   2
   0  -4   8 3353.02 156.639   6
   0   4  -8 3466.92 177.545   3
   0  -4   8 3357.26 189.474   7
   0  -4   8 3246.26 169.432   1
   0   4  -7 7886.21 279.437   2
   0  -4   7 7458.99 271.687   7
   0   4  -7 7630.58 262.604   3
   0  -4   7 7811.97 238.079   6
   0  -4   7 7713.54 259.222   1
   0   4  -7 7502.18 164.678  10
   0  -4   6 930.116 83.2154   7
   0  -4   6 1062.94 75.2669   6
   0  -4   6 1148.73 88.8336   1
   0   4  -6 1014.85 54.8978  10
   0   4  -6 918.406 84.3392   3
   0  -4   5 26260.4 562.074   7
   0  -4   5 27050.8 570.434   1
   0   4  -5 25814.8 572.580   3
   0   4  -5 28028.1 526.273  10
   0  -4   5 26035.8 530.809   6
   0  -4   4 5725.83 181.656   7
   0  -4   4 5968.73 177.296   6
   0  -4   4 5844.29 194.454   1
   0   4  -4 5971.98 193.879  10
   0   4  -4 5522.84 199.163   3
   0  -4   3 17828.2 399.990   1
   0  -4   3 17872.8 366.711   7
   0  -4   3 17381.2 377.728   6
   0   4  -3 17524.4 352.390   7
   0   4  -3 18002.0 412.411   3
   0   4  -3 17931.6 424.630  10
   0   4  -2 720.048 42.6604   7
   0  -4   2 656.378 42.7413   7
   0   4  -2 667.243 62.9027   3
   0   4  -2 782.007 78.9065  10
   0  -4   2 746.821 62.3138   1
   0  -4   2 715.719 56.8290   6
   0   4  -1 5573.12 188.034   3
   0  -4   1 5695.58 186.199   1
   0  -4   1 5280.59 176.000   3
   0   4  -1 5258.31 223.407  10
   0  -4   1 5366.72 132.878   7
   0   4   0 9443.66 271.188   3
   0   4   0 9158.76 315.301  10
   0  -4   0 10164.3 215.826   7
   0  -4   0 9322.83 256.972   3
   0  -4   0 8979.84 264.822   1
   0   4   1 44546.5 852.174   1
   0  -4  -1 44283.3 841.220   3
   0  -4  -1 43647.2 854.175   1
   0  -4  -2 22544.4 518.801   1
   0  -4  -2 22320.9 503.342   3
   0   4   2 21705.0 505.628   1
   0  -4  -3 21365.8 502.703   3
   0  -4  -3 21299.3 466.295   2
   0   4   3 21659.5 515.241   1
   0   4   4 25582.2 702.178  10
   0  -4  -4 26772.9 618.096   3
   0   4   4 27204.3 630.634   1
   0   4   5 7329.24 332.146  10
   0   4   5 7231.25 282.462   1
   0  -4  -5 7734.88 295.363   8
   0  -4  -5 7762.81 283.761   3
   0  -4  -6 1903.01 152.775   8
   0  -4  -6 1976.18 147.345   3
   0   4   6 1777.89 139.195   1
   0   4   6 2040.58 179.082  10
   0  -4  -7 568.859 90.8577   8
   0  -4  -7 708.602 66.2294   2
   0  -4  -7 572.006 85.9810   3
   0   4   7 681.070 98.0294   1
   0   4   7 479.218 97.9216  10
   0   4   8 574.759 106.622  10
   0  -4  -8 703.218 102.004   3
   0  -4  -8 680.039 103.196   8
   0   4   8 760.403 106.058   1
   0   4   9 2473.70 217.600  10
   0  -4  -9 2461.45 186.089   3
   0   4   9 2476.79 188.469   1
   0  -4  -9 2135.26 190.542   8
   0  -4 -10 1214.62 139.808   3
   0   4  10 1083.52 136.113   1
   0   4  10 1144.78 155.259  10
   0  -4 -10 1201.54 149.215   8
   0  -4 -11 3122.20 237.186   3
   0   4  11 3255.99 243.894   1
   0   4  12 785.510 132.692   1
   0  -4 -12 682.818 121.029   3
   0   4  13 76.3813 68.8181   1
   0   4  14 232.937 117.439   6
   0   4  14 132.998 84.1053   1
   0  -5  18 797.789 135.759   1
   0  -5  17 1646.22 191.160   1
   0   5 -16 997.080 148.301   3
   0  -5  16 1230.21 156.308   1
   0   5 -15 1338.25 157.588   3
   0  -5  15 1337.75 156.639   1
   0  -5  14-4.64399 40.5392   6
   0   5 -14 49.0105 51.5668   3
   0  -5  14 18.4704 47.1211   1
   0   5 -13 26.3419 45.6184   3
   0  -5  13-25.2190 46.2954   1
   0  -5  13 3.20898 32.6904   6
   0   5 -13 104.460 58.7003   2
   0   5 -12 1270.22 136.527   3
   0   5 -12 1418.55 129.576   2
   0  -5  12 1390.81 137.081   1
   0  -5  12 1129.10 146.740   7
   0  -5  12 1303.46 120.516   6
   0   5 -11 2874.21 183.162   2
   0  -5  11 3283.03 222.937   7
   0  -5  11 3414.92 202.062   1
   0  -5  11 3125.11 176.033   6
   0   5 -10 3314.62 193.314   2
   0  -5  10 3272.37 171.875   6
   0   5 -10 3496.81 202.227   3
   0  -5  10 3533.42 196.359   1
   0  -5  10 3254.96 215.367   7
   0  -5   9 2096.57 160.898   7
   0  -5   9 2116.38 129.479   6
   0   5  -9 2077.53 148.034   2
   0  -5   9 2268.74 148.838   1
   0   5  -9 2124.91 150.492   3
   0  -5   8 2575.75 152.192   1
   0  -5   8 2825.89 140.414   6
   0   5  -8 2476.89 88.6553  10
   0   5  -8 2588.51 161.632   2
   0   5  -8 2503.92 157.806   3
   0  -5   8 2498.79 160.647   7
   0   5  -7 5486.69 225.760   3
   0   5  -7 5347.94 161.368  10
   0  -5   7 5517.10 226.935   7
   0  -5   7 5412.39 219.736   1
   0  -5   7 5277.55 193.102   6
   0  -5   6 24.0596 22.4601   6
   0  -5   6 73.1665 35.9121   1
   0   5  -6 21.3621 28.3355   3
   0   5  -6-10.5148 21.8054  10
   0  -5   6 24.3540 29.6499   7
   0   5  -5 1093.17 84.8466  10
   0  -5   5 1107.19 78.5943   6
   0  -5   5 1148.58 83.2447   7
   0   5  -5 1100.44 93.6053   3
   0  -5   5 1115.15 89.0109   1
   0  -5   4 984.057 68.0891   7
   0   5  -4 1095.73 97.3362  10
   0  -5   4 889.897 79.3417   1
   0  -5   4 775.056 67.1739   6
   0   5  -4 900.041 83.0361   3
   0   5  -3 98.5635 38.4168   3
   0   5  -3 57.9132 47.1481  10
   0  -5   3 115.906 26.0836   7
   0  -5   3 100.539 31.4140   6
   0  -5   3 84.8123 29.3160   1
   0  -5   2 625.885 45.3297   7
   0   5  -2 684.722 71.4788   3
   0   5  -2 520.063 77.4016  10
   0  -5   2 848.213 76.5414   1
   0   5  -2 695.917 45.1992   7
   0  -5   1 11355.3 316.494   1
   0   5  -1 10697.4 317.531   3
   0  -5   1 11099.2 306.155   3
   0  -5   1 11237.4 239.541   7
   0   5  -1 11269.4 377.608  10
   0  -5   0 183.119 39.8199   1
   0  -5   0 159.610 42.8271   3
   0  -5   0 154.192 26.2409   7
   0   5   0 278.394 78.4071  10
   0   5   0 196.671 43.8765   3
   0   5   1 10694.4 390.268  10
   0   5   1 10587.2 320.404   1
   0  -5  -1 10463.5 255.557   7
   0  -5  -1 11271.7 316.341   3
   0  -5  -1 10651.0 325.446   1
   0   5   2 274.903 72.6875  10
   0  -5  -2 296.134 51.5665   3
   0  -5  -2 289.944 56.3450   1
   0   5   2 248.860 49.6150   1
   0  -5  -2 171.230 53.7479   2
   0  -5  -3 82.7181 40.0412   1
   0  -5  -3 135.629 45.9846   3
   0   5   3 16.2265 33.7104   1
   0   5   3 40.0886 63.8727  10
   0  -5  -3 67.1408 39.0204   2
   0   5   4 310.249 85.0058  10
   0  -5  -4 267.185 61.9409   3
   0   5   4 179.429 58.2522   1
   0  -5  -4 207.253 48.5488   2
   0  -5  -4 292.204 61.8970   8
   0  -5  -5 3374.37 190.884   3
   0   5   5 3489.94 236.550  10
   0  -5  -5 3451.19 204.514   8
   0   5   5 3204.90 193.000   1
   0  -5  -6 8832.99 355.920   8
   0  -5  -6 8499.80 329.510   3
   0   5   6 8056.74 387.216  10
   0   5   6 8291.69 338.700   1
   0  -5  -7 10468.4 388.679   3
   0   5   7 10892.5 409.113   1
   0   5   7 10079.9 449.665  10
   0  -5  -7 10701.2 414.768   8
   0  -5  -8 8682.12 383.438   8
   0  -5  -8 8614.40 362.217   3
   0   5   8 8060.35 359.525   1
   0   5   8 8149.73 412.417  10
   0  -5  -9 3691.47 260.650   8
   0   5   9 3795.69 279.275  10
   0   5   9 3997.33 261.457   1
   0  -5  -9 4635.08 264.056   3
   0  -5 -10 1905.64 178.101   3
   0   5  10 1916.24 187.184   1
   0  -5 -10 1760.03 185.837   8
   0   5  10 1836.22 209.574  10
   0  -5 -11-138.422 87.1288   3
   0   5  11-44.9994 58.4664   1
   0   5  12 308.303 96.8272   1
   0   5  13 162.025 77.8847   1
   0  -6  18 43.3534 55.7399   1
   0  -6  17-91.3068 78.8177   1
   0  -6  16-38.9408 65.3793   1
   0   6 -16-31.1653 52.3692   3
   0  -6  15 340.732 86.3510   1
   0   6 -15 318.699 87.4028   3
   0   6 -14 1304.15 135.315   2
   0   6 -14 1232.03 151.494   3
   0  -6  14 1254.84 147.375   1
   0  -6  13 1948.11 195.771   7
   0   6 -13 2255.33 171.632   2
   0  -6  13 2401.38 191.975   1
   0   6 -13 2188.09 191.570   3
   0  -6  12 4681.23 255.871   1
   0  -6  12 4504.15 223.692   6
   0   6 -12 4304.21 241.417   2
   0  -6  11 5416.63 232.924   6
   0   6 -11 4755.05 256.789   2
   0   6 -11 4884.39 258.372   3
   0  -6  11 5515.08 270.958   1
   0   6 -10 2613.42 176.942   3
   0  -6  10 2829.25 179.621   1
   0   6 -10 2404.01 177.105   2
   0  -6  10 2635.12 150.864   6
   0  -6  10 2660.77 192.015   7
   0   6  -9 950.121 122.620   2
   0  -6   9 1120.90 112.331   1
   0   6  -9 1127.84 118.493   3
   0  -6   9 1182.90 119.675   7
   0  -6   9 1079.20 96.9058   6
   0   6  -9 1147.61 64.3691  10
   0  -6   8 1201.32 114.028   7
   0  -6   8 1397.98 117.340   1
   0   6  -8 1276.36 79.6830  10
   0   6  -8 1286.80 118.560   3
   0   6  -7 5272.05 196.721  10
   0  -6   7 6201.91 215.288   6
   0  -6   7 6319.66 248.869   1
   0  -6   7 6515.16 246.215   7
   0   6  -7 6188.71 254.290   3
   0  -6   6 2438.29 136.633   7
   0   6  -6 2421.06 151.816   3
   0  -6   6 2372.36 142.034   1
   0  -6   6 2347.81 126.203   6
   0   6  -6 2527.65 136.756  10
   0   6  -5 3541.18 181.031   3
   0   6  -5 3942.81 185.529  10
   0  -6   5 3643.11 155.397   7
   0  -6   5 3676.87 176.396   1
   0  -6   5 3632.26 158.795   6
   0  -6   4 20007.1 428.235   7
   0  -6   4 18827.3 478.446   1
   0   6  -4 19192.1 497.106   3
   0   6  -4 20803.2 527.568  10
   0  -6   4 19551.5 454.415   6
   0  -6   3 6842.66 190.403   7
   0   6  -3 6894.93 255.989   3
   0  -6   3 6912.22 247.096   1
   0   6  -3 7469.23 291.625  10
   0  -6   2 1044.93 60.0758   7
   0  -6   2 1096.51 95.9550   1
   0   6  -2 1010.94 96.2379   3
   0   6  -2 1030.22 110.887  10
   0  -6   1 42.4176 32.9972   3
   0   6  -1 7.01936 45.1234  10
   0  -6   1 35.9016 33.7279   1
   0  -6   1 62.0893 23.2674   7
   0   6  -1 75.2061 41.4007   3
   0   6   0 113.720 60.3899  10
   0  -6   0 117.681 37.7057   3
   0  -6   0 98.0343 45.1772   1
   0  -6   0 80.0701 22.5811   7
   0   6   0 40.7517 43.1506   3
   0  -6  -1 46.8844 42.5997   1
   0   6   1 27.5270 38.2321   1
   0   6   1 135.946 77.9962  10
   0  -6  -1 58.6651 24.8722   7
   0  -6  -1 70.1044 42.9834   3
   0   6   2 752.201 97.0290   1
   0  -6  -2 819.631 64.3730   7
   0  -6  -2 828.330 91.0767   3
   0   6   2 1048.75 137.726  10
   0  -6  -2 975.030 107.315   1
   0  -6  -3 639.746 80.5508   3
   0   6   3 576.202 107.893  10
   0   6   3 575.824 85.4426   1
   0  -6  -3 769.727 100.331   1
   0  -6  -4 190.986 53.0323   2
   0   6   4 150.006 52.1617   1
   0   6   4 47.4584 62.5838  10
   0  -6  -4 117.955 42.1908   3
   0  -6  -4 136.730 56.8354   8
   0  -6  -5 1055.50 120.052   8
   0  -6  -5 730.517 100.167   2
   0   6   5 1318.75 130.910   1
   0  -6  -5 1170.56 119.856   3
   0   6   5 1227.58 155.007  10
   0   6   6 186.353 96.9155  10
   0  -6  -6 212.649 60.6979   3
   0  -6  -6 246.384 53.7095   2
   0  -6  -6 343.659 85.6564   8
   0   6   6 240.256 65.9411   1
   0   6   7 85.3626 81.7646  10
   0   6   7 111.324 55.2300   1
   0  -6  -7 126.475 62.6908   8
   0  -6  -7 143.079 58.7020   3
   0  -6  -8 96.7613 55.4717   3
   0   6   8 107.173 71.7847   1
   0  -6  -8 60.9866 48.9736   8
   0   6   8 63.8681 91.3687  10
   0   6   9 411.387 89.0334   1
   0  -6  -9 364.291 94.7873   3
   0   6   9 478.623 126.357  10
   0  -6  -9 366.653 87.5788   8
   0  -6 -10 552.817 116.460   3
   0  -6 -10 571.249 119.211   8
   0   6  10 660.677 151.499  10
   0   6  10 442.254 101.677   1
   0  -6 -11 1331.58 177.466   8
   0   6  11 1795.82 200.767   1
   0   6  12 2696.40 251.320   1
   0  -7  18-25.5532 60.0313   1
   0  -7  17-162.301 90.8223   1
   0  -7  16-52.8897 65.0430   1
   0   7 -15 270.256 80.5412   2
   0  -7  15 291.426 93.9823   1
   0   7 -15 216.317 78.2673   3
   0  -7  14 274.424 70.1172   1
   0   7 -14 409.306 87.7334   2
   0   7 -14 357.320 91.4242   3
   0  -7  13-21.8147 52.4391   7
   0   7 -13 144.986 70.0013   2
   0   7 -13-9.88970 54.5487   3
   0  -7  13 21.2154 41.8649   1
   0  -7  12-5.68408 46.5850   1
   0   7 -12 43.8834 51.4155   3
   0  -7  12 58.0602 71.3159   7
   0   7 -12 100.737 68.6636   2
   0   7 -11 77.6165 47.5037   3
   0   7 -11 128.722 67.0883   2
   0  -7  11 91.4556 49.6228   1
   0  -7  11 83.9209 56.6486   7
   0   7 -10 1184.36 125.875   3
   0  -7  10 1281.13 107.359   6
   0  -7  10 1208.48 126.318   7
   0  -7  10 1284.19 127.071   1
   0   7 -10 1149.11 136.821   2
   0  -7   9 2612.31 145.618   6
   0   7  -9 2333.75 170.123   3
   0  -7   9 2538.61 170.439   1
   0  -7   9 2457.09 169.990   7
   0  -7   8 4952.65 228.727   7
   0  -7   8 5051.98 207.145   6
   0  -7   8 5411.81 243.372   1
   0   7  -8 4906.60 243.656   3
   0   7  -8 4905.67 194.712  10
   0  -7   7 12195.4 385.790   1
   0  -7   7 12346.9 348.998   6
   0  -7   7 12838.5 369.915   7
   0   7  -7 12819.0 366.732  10
   0   7  -7 11862.2 396.856   3
   0   7  -6 4528.95 225.876   3
   0  -7   6 4929.46 223.653   1
   0  -7   6 5096.43 202.720   7
   0  -7   6 5056.48 204.111   6
   0   7  -6 5235.77 229.582  10
   0   7  -5 6793.19 278.102   3
   0   7  -5 7383.42 292.004  10
   0  -7   5 7221.52 227.803   7
   0  -7   5 6514.38 242.257   6
   0  -7   5 7230.72 272.050   1
   0   7  -4 170.696 51.8343  10
   0  -7   4 75.2640 38.6690   1
   0  -7   4 138.458 31.3385   7
   0   7  -4 77.6527 36.1495   3
   0   7  -3 1045.27 117.258  10
   0  -7   3 947.184 95.7690   1
   0  -7   3 973.836 65.4206   7
   0   7  -3 1114.47 108.108   3
   0  -7   2 1987.74 139.451   1
   0   7  -2 1874.78 138.329   3
   0   7  -2 1918.74 165.815  10
   0  -7   2 1940.43 87.2343   7
   0  -7   1 8252.59 207.450   7
   0  -7   1 7651.23 297.953   1
   0   7  -1 8643.66 371.723  10
   0   7  -1 8290.91 307.729   3
   0  -7   1 8511.32 297.028   3
   0   7   0 21228.2 566.682   3
   0   7   0 22488.6 668.429  10
   0  -7   0 21646.6 565.060   1
   0  -7   0 20742.5 435.253   7
   0  -7   0 22156.2 550.922   3
   0   7   1 7722.76 311.512   3
   0  -7  -1 7888.09 313.349   1
   0   7   1 7727.03 310.226   1
   0   7   1 7745.00 377.438  10
   0  -7  -1 7871.03 294.764   3
   0  -7  -1 8362.76 231.446   7
   0  -7  -2 6449.91 272.536   3
   0   7   2 6482.91 348.613  10
   0  -7  -2 6404.94 210.028   7
   0   7   2 6281.92 283.145   1
   0  -7  -2 6496.32 291.453   1
   0   7   3 1881.25 158.340   1
   0   7   3 2039.20 200.929  10
   0  -7  -3 2165.64 169.191   1
   0  -7  -3 2077.16 153.282   3
   0  -7  -3 1871.33 112.980   7
   0   7   4 740.696 123.795  10
   0  -7  -4 769.796 104.417   3
   0   7   4 703.200 106.386   1
   0  -7  -4 736.983 106.335   8
   0   7   5 28.8518 75.5274  10
   0  -7  -5 150.242 56.4307   3
   0   7   5 87.1953 57.5269   1
   0  -7  -5 116.367 54.1484   8
   0  -7  -6 596.809 108.232   8
   0   7   6 598.982 92.6825   1
   0   7   6 552.798 129.497  10
   0  -7  -6 591.311 101.064   3
   0  -7  -7 172.856 57.9614   8
   0  -7  -7 289.267 81.5017   3
   0   7   7 141.250 69.0550  10
   0   7   7 241.159 78.7808   1
   0  -7  -8 800.760 139.790   8
   0  -7  -8 811.681 124.018   3
   0   7   8 765.272 124.472   1
   0   7   8 849.025 160.845  10
   0   7   9 51.8174 64.4743   1
   0  -7  -9 54.3337 59.8190   8
   0  -7  -9 81.0581 46.9569   3
   0  -7 -10 141.593 69.7441   8
   0   7  10-15.9353 99.5910  10
   0   7  10 100.693 70.7121   1
   0  -7 -11 23.1603 73.1964   8
   0   7  11-104.758 64.3695   1
   0  -8  17 116.063 77.6707   1
   0  -8  16 301.077 93.3222   1
   0   8 -15 44.7927 65.6064   3
   0   8 -15 103.082 75.1945   2
   0  -8  15-9.48469 63.2416   1
   0  -8  14 536.856 107.449   1
   0   8 -14 448.329 101.108   3
   0   8 -14 605.063 115.560   2
   0   8 -13 235.347 72.9294   2
   0  -8  13 228.605 81.5060   7
   0  -8  13 285.451 66.6859   1
   0   8 -13 212.966 72.0426   3
   0  -8  12 266.038 82.7405   1
   0   8 -12 226.471 73.9208   2
   0  -8  12 213.698 71.3345   7
   0   8 -12 265.667 82.9926   3
   0  -8  11 1127.57 134.127   7
   0   8 -11 1112.70 142.619   2
   0  -8  11 1244.91 138.292   1
   0   8 -11 1217.86 134.427   3
   0   8 -10 286.749 76.4824   3
   0  -8  10 331.959 69.8159   7
   0  -8  10 281.424 67.4267   1
   0  -8   9 87.9268 49.7494   7
   0  -8   9 210.793 59.6447   1
   0   8  -9 111.242 61.2544   3
   0  -8   9 65.6912 42.0432   6
   0  -8   8-15.5211 36.0229   1
   0  -8   8 54.6334 33.7925   6
   0  -8   8 41.5144 43.5449   7
   0   8  -8 165.070 52.1231  10
   0   8  -8 59.8647 58.5043   3
   0  -8   7 429.334 72.3181   1
   0  -8   7 469.323 66.3833   6
   0   8  -7 461.274 74.5671  10
   0  -8   7 442.989 63.9418   7
   0   8  -7 390.457 71.7696   3
   0  -8   6 748.690 77.2515   7
   0   8  -6 723.796 95.2533  10
   0  -8   6 653.044 87.1830   1
   0  -8   6 553.646 70.8212   6
   0   8  -6 621.956 92.0259   3
   0   8  -5 511.163 89.2263  10
   0   8  -5 476.807 80.8181   3
   0  -8   5 410.299 73.3309   1
   0   8  -4 5571.21 284.877  10
   0   8  -4 4852.99 249.097   3
   0  -8   4 5322.28 241.916   1
   0   8  -3 3980.08 222.001   3
   0  -8   3 4086.00 216.858   1
   0   8  -3 4686.92 265.370  10
   0   8  -2 3209.50 199.580   3
   0  -8   2 3197.35 190.407   1
   0   8  -2 3740.44 246.269  10
   0   8  -1 4044.16 226.195   3
   0  -8   1 4419.56 227.319   1
   0   8  -1 4352.59 275.261  10
   0  -8   0 636.923 89.9381   1
   0   8   0 702.763 101.535   1
   0   8   0 579.668 92.6460   3
   0   8   0 732.246 131.807  10
   0  -8   0 718.539 86.9638   3
   0   8   1-20.1195 46.4365   3
   0   8   1-13.7962 75.1089  10
   0   8   1 29.0451 44.3069   1
   0  -8  -1 65.7331 40.9390   1
   0  -8  -1 61.9471 40.4661   3
   0  -8  -2 271.105 72.2472   1
   0  -8  -2 242.352 59.6352   3
   0   8   2 244.989 89.3518  10
   0   8   2 323.074 78.7548   3
   0   8   2 287.863 75.4712   1
   0   8   3 4021.20 245.963   1
   0  -8  -3 4187.29 235.495   3
   0   8   3 4237.83 299.751  10
   0  -8  -4 9925.10 417.228   8
   0   8   4 9505.56 401.620   1
   0  -8  -4 10312.5 402.279   3
   0   8   4 10664.0 506.446  10
   0  -8  -5 3663.91 255.093   8
   0   8   5 3798.12 254.105   1
   0  -8  -5 3977.96 245.916   3
   0   8   5 4114.39 318.624  10
   0  -8  -6 5485.13 304.637   3
   0   8   6 5512.28 315.255   1
   0   8   6 5314.20 369.610  10
   0  -8  -6 5237.52 321.284   8
   0   8   7 2496.45 219.869   1
   0  -8  -7 2427.43 209.376   3
   0  -8  -7 2490.25 230.519   8
   0   8   7 2642.22 264.804  10
   0   8   8 919.755 141.194   1
   0   8   8 1112.68 203.152  10
   0  -8  -8 983.104 156.244   8
   0  -8  -9 400.793 118.543   8
   0   8   9 345.591 105.258   1
   0  -8 -10 219.571 101.799   8
   0   8  10 128.843 76.4077   1
   0  -9  16 861.581 142.466   1
   0   9 -16 590.029 122.579   2
   0   9 -15 795.022 129.046   3
   0   9 -15 607.940 131.090   2
   0  -9  15 781.920 128.623   1
   0   9 -14 1335.55 166.002   3
   0   9 -14 1502.00 179.940   2
   0  -9  14 1620.40 170.369   1
   0  -9  13 185.130 75.1491   1
   0   9 -13 36.7596 62.7700   3
   0   9 -13 139.833 67.6171   2
   0  -9  12 843.507 120.154   1
   0   9 -12 798.506 143.719   2
   0   9 -12 1001.30 128.581   3
   0  -9  11 320.645 77.7879   1
   0   9 -11 161.721 58.0916   2
   0   9 -11 119.056 62.5870   3
   0  -9  10 148.100 49.3978   1
   0   9 -10 180.955 68.6020   3
   0   9  -9 417.745 82.1957   3
   0  -9   9 515.859 88.8679   1
   0  -9   8 2771.56 162.494   6
   0  -9   8 2898.56 192.333   1
   0   9  -8 2712.29 178.776  10
   0   9  -8 2767.53 198.151   3
   0   9  -7 955.526 120.433   3
   0   9  -7 993.378 114.929  10
   0  -9   7 967.069 98.3068   6
   0  -9   7 933.156 107.161   1
   0  -9   6 1094.19 118.877   1
   0   9  -6 994.399 120.289  10
   0   9  -6 902.639 120.520   3
   0   9  -5 3636.07 225.176   3
   0  -9   5 3924.85 218.294   1
   0   9  -5 3793.71 239.503  10
   0   9  -4-57.2595 48.9740  10
   0   9  -4-35.3937 48.1968   3
   0  -9   4-39.6504 48.0871   1
   0  -9   3 13.4591 47.8560   1
   0   9  -3 30.9577 50.4504  10
   0   9  -3 4.11110 44.0814   3
   0   9  -2 96.3261 46.4015   3
   0   9  -2 179.701 86.2420  10
   0  -9   2-18.7100 41.5143   1
   0   9  -1-34.9763 48.1120   3
   0  -9   1-17.0640 57.8076   1
   0   9  -1-64.8935 57.9360  10
   0   9   0 300.793 72.6692   1
   0   9   0 280.028 71.6128   3
   0   9   0 320.559 104.807  10
   0  -9   0 364.707 84.4570   1
   0  -9   0 310.301 64.7403   3
   0  -9  -1 987.418 120.278   3
   0   9   1 1373.97 181.091  10
   0   9   1 895.513 114.428   3
   0   9   1 993.783 124.064   1
   0  -9  -1 870.281 118.831   1
   0   9   2 876.856 147.246  10
   0   9   2 783.266 121.049   3
   0   9   2 487.743 93.1995   1
   0  -9  -2 518.972 104.820   1
   0  -9  -2 661.243 102.020   3
   0  -9  -3 1392.81 154.352   8
   0  -9  -3 1518.66 152.029   3
   0   9   3 1422.73 152.667   1
   0   9   3 1515.74 167.677   3
   0   9   3 1392.59 191.803  10
   0   9   4 320.237 90.1125   1
   0   9   4 479.189 139.943  10
   0  -9  -4 368.404 88.4673   3
   0   9   4 301.976 81.1085   3
   0  -9  -4 437.921 94.1425   8
   0   9   5 171.501 80.4257   1
   0   9   5 227.281 102.570  10
   0  -9  -5 272.719 85.0702   8
   0  -9  -5 134.714 49.2076   3
   0  -9  -6-3.12235 52.7720   8
   0   9   6-29.4471 56.1305   1
   0  -9  -6 29.6161 61.3009   3
   0   9   7 326.787 105.771   1
   0  -9  -7 221.558 87.9517   8
   0  -9  -8 1205.83 176.817   8
   0   9   8 1297.74 178.416   1
   0  -9  -9 1058.80 174.042   8
   0  10 -16 60.1072 85.3766   2
   0  10 -15 22.4104 66.2009   2
   0  10 -14-41.3002 53.3230   3
   0  10 -14-85.3511 91.8838   2
   0 -10  14 82.3102 64.3862   1
   0 -10  13 271.394 72.4287   1
   0  10 -13 222.968 87.5616   3
   0  10 -13 144.531 91.5881   2
   0  10 -12-35.3219 62.1871   2
   0 -10  12 85.4369 45.5756   1
   0  10 -12 87.0769 62.9609   3
   0  10 -11 2173.76 193.577   3
   0  10 -11 1871.07 235.611   2
   0 -10  11 2206.91 183.117   1
   0  10 -10 2537.44 207.724   3
   0 -10  10 2711.24 203.702   1
   0 -10   9 2594.56 194.954   1
   0  10  -9 2255.53 190.519   3
   0  10  -8 2119.20 178.789   3
   0  10  -8 2348.56 176.991  10
   0 -10   8 2377.44 182.652   1
   0  10  -7 509.650 96.3352  10
   0 -10   7 364.433 83.3247   1
   0  10  -7 301.718 73.6572   3
   0  10  -6 123.055 64.7675  10
   0  10  -6 30.3539 47.5644   3
   0 -10   6 6.89796 40.6540   1
   0 -10   5-32.1897 42.7955   1
   0  10  -5 55.3234 46.7289   3
   0  10  -4 790.668 110.544   3
   0  10  -4 759.780 121.956  10
   0 -10   4 735.532 110.355   1
   0  10  -3 3414.07 258.550  10
   0 -10   3 3289.44 217.738   1
   0  10  -3 3358.06 226.499   3
   0  10  -2 744.178 130.072  10
   0  10  -2 906.606 122.978   3
   0 -10   2 773.797 110.245   1
   0 -10   1 3872.80 244.497   1
   0  10  -1 4293.47 310.087  10
   0  10  -1 3496.52 230.943   1
   0  10  -1 3463.26 237.772   3
   0  10   0 1171.92 142.011   1
   0  10   0 1467.71 185.971  10
   0 -10   0 1592.15 161.302   1
   0  10   0 1302.83 150.487   3
   0  10   1 1135.01 167.090  10
   0  10   1 1020.37 134.525   1
   0 -10  -1 1142.45 146.837   1
   0  10   1 1355.86 154.087   3
   0 -10  -1 1271.09 142.277   3
   0 -10  -2 62.8314 56.7823   3
   0  10   2-18.0329 90.8529  10
   0 -10  -2-16.5635 53.1309   1
   0  10   2 77.4914 56.3148   3
   0  10   2 76.5268 57.1509   1
   0 -10  -3 70.1418 57.6432   8
   0  10   3 55.7501 55.9094   1
   0  10   3 252.812 91.3606   3
   0 -10  -3 45.4246 51.1193   3
   0  10   3 262.799 125.866  10
   0  10   4 28.4618 59.9440   3
   0  10   4 97.9555 71.4439   1
   0 -10  -4-6.04822 61.9403   8
   0 -10  -4 79.1223 57.5447   3
   0 -10  -5 11.1110 59.1973   8
   0  10   5-39.0658 48.1259   1
   0 -10  -6 75.7928 78.9413   8
   0  10   6 107.589 74.1985   1
   0  10   7 77.9680 63.9273   1
   0 -10  -7 298.417 96.7822   8
   0  11 -15 55.7834 75.2399   2
   0  11 -14 297.512 113.487   2
   0  11 -13-72.1696 71.1338   3
   0  11 -13 50.9851 86.5458   2
   0 -11  12 7.01753 44.3075   1
   0  11 -12-31.0155 59.3598   3
   0  11 -12-59.3676 83.4013   2
   0  11 -11-32.2983 43.7857   3
   0 -11  11-2.83397 56.8689   1
   0  11 -10 44.5480 61.6679   3
   0 -11  10 40.6081 51.5470   1
   0  11  -9 54.0728 57.5703   3
   0 -11   9-24.9166 52.2606   1
   0  11  -8 186.041 62.2296   3
   0 -11   8 221.355 72.3795   1
   0 -11   7 381.793 79.5020   1
   0  11  -7 465.085 100.971  10
   0  11  -7 244.612 75.4993   3
   0  11  -6 2371.00 200.049   3
   0  11  -6 2849.18 229.736  10
   0 -11   6 2374.08 189.887   1
   0  11  -5 2330.87 200.796   3
   0 -11   5 2828.09 209.084   1
   0  11  -5 2751.74 233.461  10
   0  11  -4 2524.97 206.736   3
   0 -11   4 2741.98 205.240   1
   0  11  -4 2673.44 238.316  10
   0  11  -3 2299.62 232.139  10
   0  11  -3 2137.37 192.528   3
   0 -11   3 1937.97 179.353   1
   0 -11   2 73.4844 47.4612   1
   0  11  -2 116.981 64.8249   1
   0  11  -2 144.256 94.8579  10
   0  11  -2 206.401 74.2836   3
   0  11  -1-60.8969 66.5394   3
   0 -11   1 11.7623 63.6709   1
   0  11  -1-23.2040 41.3234   1
   0  11  -1 35.6189 77.9463  10
   0 -11   0 410.648 96.9262   1
   0  11   0 441.363 102.245   3
   0  11   0 253.954 86.1413   1
   0  11   0 550.501 141.240  10
   0  11   1 911.374 143.702   3
   0  11   1 1099.96 191.410  10
   0 -11  -1 941.131 142.427   1
   0  11   1 721.686 122.717   1
   0 -11  -2 1862.69 185.390   3
   0  11   2 1644.66 186.838   1
   0  11   2 2152.88 220.743   3
   0  11   3 1933.90 203.941   1
   0 -11  -3 1899.81 210.507   8
   0 -11  -4 1174.64 168.010   8
   0  11   4 962.178 143.774   1
   0  11   5 1233.00 175.552   1
   0 -11  -5 1270.11 181.881   8
   0  12 -14-7.27937 87.0245   2
   0  12 -13-87.6112 122.640   2
   0  12 -12-23.8587 86.6333   2
   0  12 -11-130.653 61.0974   3
   0  12 -10 46.6216 66.7673   3
   0  12  -9-43.5797 55.8405   3
   0 -12   9 48.8142 59.0239   1
   0 -12   8-55.7226 60.1310   1
   0  12  -8-35.2689 50.2256   3
   0 -12   7 204.942 71.5731   1
   0  12  -7 176.868 73.0622   3
   0  12  -7 114.594 51.0804  10
   0  12  -6-69.1922 65.5460   3
   0  12  -6 70.0960 67.4568  10
   0 -12   6-24.2003 46.0251   1
   0 -12   5 96.8616 65.7918   1
   0  12  -5 19.7697 69.4224  10
   0  12  -5 40.0096 62.1348   3
   0  12  -4-43.9694 80.9037  10
   0 -12   4-28.7939 56.6767   1
   0  12  -4 65.6693 74.7614   3
   0 -12   3 494.397 95.5486   1
   0  12  -3 584.871 110.403   1
   0  12  -3 537.635 108.305   3
   0  12  -3 933.822 170.108  10
   0  12  -2 543.789 103.934   3
   0 -12   2 559.742 109.354   1
   0  12  -2 585.962 114.844   1
   0  12  -2 790.336 155.638  10
   0  12  -1 435.143 99.4433   3
   0 -12   1 728.937 127.088   1
   0  12  -1 559.933 109.935   1
   0  12   0 537.769 115.166   1
   0 -12   0 689.385 128.340   1
   0  12   1 1078.25 151.883   1
   0 -12  -1 1023.29 154.755   1
   0 -12  -2 294.640 82.7604   8
   0  12   2 379.242 106.588   1
   0 -12  -3 329.483 103.419   8
   0  12   3 304.280 93.6606   1
   0  13 -12 378.458 131.161   2
   0  13  -7-79.8899 72.1691   3
   0  13  -6 183.398 82.7558   3
   0  13  -6 19.4440 76.0655  10
   0 -13   5 985.514 143.146   1
   0  13  -4 420.049 100.060   1
   0 -13   4 405.714 101.821   1
   0 -13   3 7.37322 56.6208   1
   0  13  -3 109.546 72.1953   1
   0  13  -2 30.3078 60.9271   1
   0 -13   2-47.3993 67.4130   1
   0 -13   1 215.940 89.6908   1
   0  13  -1 55.5552 59.9756   1
   0 -13   0 64.2204 58.2534   1
   0  13   0-6.88276 55.7347   1
   1 -14   2 430.134 110.459   1
  -1  14  -2 269.206 98.6850   1
   1 -14   3 321.522 111.863   1
  -1  14  -3 81.8405 88.6608   1
   1 -14   4 1165.42 161.014   1
   1 -14   5 176.178 81.5226   1
   1 -14   6 94.9826 66.3374   1
   1 -14   7 275.219 85.9898   1
   1 -14   8 45.7267 69.7484   1
   1 -14   9-39.6091 62.5397   1
  -1  14  -9 112.533 125.099   2
  -1  14 -10 149.785 88.1362   2
  -1  13   2 123.464 72.9693   1
  -1  13   1 552.406 118.622   1
   1 -13  -1 836.992 131.709   1
  -1  13   0 1020.70 159.937   1
   1 -13   0 1243.44 173.086   1
  -1  13  -1 1076.49 159.368   1
   1 -13   1 1359.95 179.888   1
  -1  13  -2 706.389 131.942   1
   1 -13   2 724.674 139.300   1
   1 -13   3 241.825 88.7108   1
   1 -13   4 621.973 116.328   1
  -1  13  -4 821.427 146.057  10
  -1  13  -4 623.660 130.925   3
   1 -13   5 655.292 118.389   1
  -1  13  -5 883.605 163.737  10
  -1  13  -5 383.958 95.7108   3
   1 -13   6 217.063 88.1387   1
  -1  13  -6 96.8226 71.0961   3
  -1  13  -6 381.058 107.585  10
   1 -13   7 953.989 150.812   1
  -1  13  -7 543.707 116.207   3
  -1  13  -7 637.422 122.963  10
   1 -13   8 2502.24 219.404   1
   1 -13   9 341.228 96.9785   1
  -1  13  -9 533.744 138.721   2
  -1  13 -10 293.646 135.151   2
   1 -13  10 259.707 83.5302   1
   1 -13  11 402.020 95.7776   1
  -1  13 -11 514.393 136.538   2
  -1  13 -12 403.699 144.471   2
   1 -13  12-21.2756 69.0031   1
  -1  13 -13-53.1271 80.4726   2
   1 -12  -4 533.482 128.383   8
  -1  12   4 471.389 119.939   1
   1 -12  -3 173.971 87.0279   8
  -1  12   3 188.842 91.9022   1
  -1  12   2 108.479 68.9553   1
   1 -12  -2 169.566 86.1966   1
  -1  12   1-67.6379 58.7946   1
   1 -12  -1 23.3491 54.6504   1
  -1  12   0 164.105 74.1725   1
   1 -12   0 59.0650 57.5651   1
  -1  12   0 135.632 70.7513   3
   1 -12   1 45.6520 51.8900   1
  -1  12  -1-30.0693 65.5017   3
  -1  12  -1 61.7380 65.0570   1
  -1  12  -2 395.597 118.636  10
   1 -12   2 423.694 98.6554   1
  -1  12  -2 281.399 81.8128   3
  -1  12  -3 183.429 99.9727  10
   1 -12   3 109.958 66.2473   1
  -1  12  -3 110.760 50.1849   3
  -1  12  -4 775.650 141.073  10
   1 -12   4 982.204 141.324   1
  -1  12  -4 858.844 131.315   3
   1 -12   5 1978.23 189.121   1
  -1  12  -5 1839.43 198.164   3
  -1  12  -5 1909.32 209.783  10
  -1  12  -6 524.588 110.716   3
  -1  12  -6 288.565 84.5928  10
   1 -12   6 457.173 100.060   1
   1 -12   7-83.2841 62.8032   1
  -1  12  -7 35.6651 51.9644  10
  -1  12  -7-89.2708 50.5784   3
  -1  12  -8 422.460 98.3129   3
   1 -12   8 361.434 80.5818   1
   1 -12   9 37.0504 50.8525   1
  -1  12  -9-31.8344 62.0110   3
  -1  12  -9 143.119 107.938   2
  -1  12 -10 37.7806 77.3309   2
  -1  12 -10-18.0176 63.8344   3
   1 -12  10 89.3596 61.6478   1
   1 -12  11 559.267 108.107   1
  -1  12 -11 503.861 109.051   3
  -1  12 -11 547.238 138.771   2
   1 -12  12 1545.35 176.003   1
  -1  12 -12 1292.93 201.141   2
  -1  12 -13 266.871 119.567   2
   1 -12  13 133.504 67.6400   1
   1 -12  14 573.907 119.603   1
  -1  12 -14 704.907 157.966   2
   1 -12  15 635.927 133.186   1
  -1  12 -15 663.531 149.670   2
  -1  11   6 1883.85 217.597   1
   1 -11  -6 1880.31 224.261   8
   1 -11  -5 1355.14 187.155   8
  -1  11   5 1383.29 187.116   1
   1 -11  -4 494.107 122.480   8
  -1  11   4 496.426 113.893   1
   1 -11  -3 401.368 100.924   1
  -1  11   3 461.610 101.531   3
   1 -11  -3 499.954 101.849   3
  -1  11   3 553.856 123.496   1
   1 -11  -2 104.076 61.0397   3
  -1  11   2 54.6013 83.1423  10
  -1  11   2 51.3317 56.0627   1
   1 -11  -2 10.4597 60.5073   1
  -1  11   2 40.1415 63.8165   3
   1 -11  -1 640.958 118.467   1
  -1  11   1 480.965 118.434   3
  -1  11   1 431.466 101.352   1
  -1  11   1 524.382 131.925  10
  -1  11   0 843.442 128.372   3
  -1  11   0 834.107 132.006   1
   1 -11   0 850.812 135.877   1
  -1  11   0 796.073 145.239  10
   1 -11   1 567.446 102.771   1
  -1  11  -1 636.499 113.927   3
  -1  11  -1 793.641 145.260  10
  -1  11  -2 1197.69 170.767  10
   1 -11   2 1020.08 135.515   1
  -1  11  -2 896.552 135.908   3
  -1  11  -3 1048.25 139.922   3
  -1  11  -3 1365.62 168.468  10
   1 -11   3 1312.75 149.265   1
   1 -11   4 423.828 93.0070   1
  -1  11  -4 538.767 110.126   3
  -1  11  -4 555.477 126.255  10
   1 -11   5 68.9141 55.1680   1
  -1  11  -5 31.1316 46.7466   3
  -1  11  -5 164.104 79.5257  10
  -1  11  -6 287.754 74.7594  10
  -1  11  -6 443.790 94.9700   3
   1 -11   6 424.977 85.1913   1
  -1  11  -7 115.835 62.3404  10
  -1  11  -7 27.6766 48.1417   3
   1 -11   7 18.6556 52.5568   1
   1 -11   8 634.310 107.795   1
  -1  11  -8 587.399 109.258   3
  -1  11  -8 693.063 107.755  10
  -1  11  -9 146.680 67.3309   3
   1 -11   9 269.720 78.6739   1
   1 -11  10 94.9273 66.5494   1
  -1  11 -10 5.00025 54.2456   3
  -1  11 -11 306.662 97.2530   3
  -1  11 -11 120.918 66.2576   2
   1 -11  11 149.501 67.4209   1
   1 -11  12 563.413 115.446   1
  -1  11 -12 358.166 103.960   2
  -1  11 -12 277.705 97.2487   3
   1 -11  13 80.1829 71.2581   1
  -1  11 -13 56.2566 72.9626   2
   1 -11  14 77.6846 60.7220   1
  -1  11 -14 171.916 104.402   2
  -1  11 -15 209.678 103.115   2
   1 -11  15 50.9470 66.3084   1
   1 -11  16 258.858 108.114   1
  -1  11 -16 225.696 111.974   2
   1 -10  -8 69.3758 66.4682   8
   1 -10  -7 114.196 64.4259   8
  -1  10   7 38.3234 80.4012   1
  -1  10   6 64.3414 59.5421   1
   1 -10  -6 43.5015 80.9655   8
  -1  10   5 263.668 84.7319   3
   1 -10  -5 134.099 63.8812   3
   1 -10  -5 102.684 74.5767   8
  -1  10   5 255.676 79.1321   1
  -1  10   4 1749.73 183.655   1
  -1  10   4 1825.88 196.572   3
   1 -10  -4 1795.73 178.519   3
  -1  10   4 2120.13 253.643  10
   1 -10  -4 1608.75 183.072   8
  -1  10   3 2526.10 253.910  10
   1 -10  -3 2620.09 205.056   3
  -1  10   3 2376.16 213.061   3
   1 -10  -3 2725.88 224.263   1
  -1  10   3 2562.26 214.836   1
  -1  10   2 5552.21 316.782   1
   1 -10  -2 5664.43 305.799   3
  -1  10   2 6068.96 334.849   3
  -1  10   2 5576.23 374.812  10
   1 -10  -2 5754.25 322.025   1
   1 -10  -1 6815.21 344.245   1
  -1  10   1 6374.36 337.644   3
   1 -10  -1 6749.97 324.998   3
  -1  10   1 6992.56 403.597  10
  -1  10   1 6296.15 329.669   1
   1 -10   0 2405.74 197.981   1
  -1  10   0 2533.82 242.761  10
  -1  10   0 2516.38 205.703   1
  -1  10   0 2322.45 197.568   3
  -1  10  -1 1068.65 133.512   3
   1 -10   1 1080.69 136.744   1
  -1  10  -1 1164.45 164.679  10
  -1  10  -2 80.4967 55.3794   3
   1 -10   2 146.775 53.2092   1
  -1  10  -2 170.639 85.7022  10
  -1  10  -3 523.482 99.1840   3
   1 -10   3 515.027 94.5162   1
  -1  10  -3 641.298 119.546  10
  -1  10  -4 1180.65 138.226   3
   1 -10   4 992.298 121.747   1
  -1  10  -4 1376.32 161.787  10
   1 -10   5 752.675 105.859   1
  -1  10  -5 1037.39 135.560  10
  -1  10  -5 928.866 122.354   3
  -1  10  -6 2736.54 208.159   3
   1 -10   6 2631.81 195.768   1
  -1  10  -6 2628.54 198.285  10
  -1  10  -7 2937.84 218.740   3
  -1  10  -7 2988.94 202.277  10
   1 -10   7 3082.29 210.851   1
  -1  10  -8 1789.91 169.741   3
  -1  10  -8 1674.18 144.270  10
   1 -10   8 1393.59 142.746   1
   1 -10   9 394.662 79.8748   1
  -1  10  -9 310.003 103.901   2
  -1  10  -9 287.165 77.2264   3
  -1  10 -10 28.5747 75.8153   2
  -1  10 -10 96.1088 61.5241   3
   1 -10  10-29.9486 52.3816   1
  -1  10 -11 57.7171 55.9092   3
   1 -10  11 83.6140 57.4321   1
  -1  10 -12-48.4454 66.8423   2
  -1  10 -12 24.3158 53.1750   3
   1 -10  12 165.805 75.4080   1
  -1  10 -13-125.152 68.6183   3
   1 -10  13-36.5513 51.2921   1
  -1  10 -14 38.8638 76.2678   2
   1 -10  14 57.9765 72.1159   1
   1 -10  15 55.0113 67.7325   1
  -1  10 -15 28.7183 75.4841   2
  -1  10 -16 251.670 103.683   2
   1 -10  16 305.558 102.045   1
  -1   9   9-2.50588 68.5391   1
   1  -9  -9 33.3652 60.4874   8
  -1   9   8-33.1386 54.0484   1
   1  -9  -8-6.93818 63.3466   8
   1  -9  -7-32.1518 74.8834   8
  -1   9   7-123.156 72.9948   1
  -1   9   6-49.7148 81.3906  10
   1  -9  -6 8.78050 51.5951   3
  -1   9   6-50.4840 72.4862   1
   1  -9  -6 46.2342 51.4534   8
   1  -9  -5-12.2696 48.3952   8
   1  -9  -5 66.7008 65.0543   3
  -1   9   5-35.9570 52.6233   1
  -1   9   4 94.4851 74.7230  10
   1  -9  -4 105.146 56.9734   3
  -1   9   4 132.053 60.6542   3
  -1   9   4 89.2760 74.5340   1
   1  -9  -3 155.825 66.3170   1
  -1   9   3 78.3305 57.7411   1
  -1   9   3 167.199 90.3456  10
   1  -9  -3 82.5501 45.8926   3
  -1   9   3 126.954 58.0785   3
  -1   9   2 177.002 85.7976  10
   1  -9  -2 168.256 62.5818   3
  -1   9   2 130.741 61.3723   1
  -1   9   2 99.2649 67.2323   3
   1  -9  -2 52.1606 47.1037   1
  -1   9   1 115.028 61.1572   3
   1  -9  -1 158.058 69.8155   1
  -1   9   1 237.137 111.115  10
  -1   9   1 165.490 68.3854   1
   1  -9  -1 108.041 40.9098   3
  -1   9   0 2727.06 225.977  10
   1  -9   0 2527.06 181.220   3
  -1   9   0 2209.96 181.981   3
   1  -9   0 2433.81 186.660   1
  -1   9  -1 2480.41 191.288   3
  -1   9  -1 2893.59 227.876  10
   1  -9   1 2788.05 194.690   1
   1  -9   2 4588.37 250.572   1
  -1   9  -2 3868.68 237.460   3
  -1   9  -2 4327.59 277.792  10
  -1   9  -3 8584.85 383.532  10
   1  -9   3 8987.14 352.691   1
  -1   9  -3 8448.97 356.936   3
   1  -9   4 4916.50 256.959   1
  -1   9  -4 5090.19 266.048   3
  -1   9  -4 5250.35 286.120  10
   1  -9   5 4833.73 251.821   1
  -1   9  -5 4711.87 263.404  10
  -1   9  -5 4638.65 253.967   3
   1  -9   6 237.788 49.0076   7
   1  -9   6 199.209 56.5336   1
  -1   9  -6 370.422 81.8487  10
  -1   9  -6 198.762 69.3988   3
   1  -9   7-20.5459 43.1532   1
   1  -9   7 16.3538 30.0585   7
  -1   9  -7 17.6786 36.2453   3
  -1   9  -7-45.7074 43.6503  10
   1  -9   8 395.701 82.1871   1
  -1   9  -8 239.157 69.4885   3
   1  -9   8 317.324 65.6340   7
  -1   9  -8 302.089 64.3309  10
   1  -9   9 2242.83 179.425   1
   1  -9   9 2217.41 165.065   7
  -1   9  -9 2095.71 180.589   3
  -1   9  -9 1881.69 200.419   2
  -1   9 -10 3367.44 255.945   2
   1  -9  10 3843.42 226.496   7
   1  -9  10 3716.55 239.312   1
  -1   9 -10 3470.68 239.639   3
  -1   9 -11 2860.59 237.343   2
   1  -9  11 3183.29 227.749   1
  -1   9 -11 3321.09 236.818   3
   1  -9  11 2899.03 218.244   7
   1  -9  12 819.856 123.439   1
  -1   9 -12 870.438 130.599   3
  -1   9 -12 863.693 139.199   2
   1  -9  12 884.676 132.909   7
   1  -9  13 626.054 122.425   7
  -1   9 -13 651.400 117.897   3
  -1   9 -13 759.657 134.590   2
   1  -9  13 775.089 124.871   1
  -1   9 -14 34.3536 44.7436   3
   1  -9  14 93.2461 73.8812   7
   1  -9  14 188.481 77.8579   1
   1  -9  15 233.765 82.3145   1
  -1   9 -15 321.517 105.229   2
   1  -9  15 326.101 103.965   7
  -1   9 -16 41.2117 69.4947   2
   1  -9  16 98.7926 71.2729   1
   1  -9  17 185.716 96.6416   1
   1  -8 -11 936.246 164.106   8
   1  -8 -10 3934.15 311.266   8
  -1   8  10 4193.59 308.523   1
  -1   8   9 2610.80 272.820  10
  -1   8   9 2863.40 252.408   1
   1  -8  -9 3193.87 270.640   8
   1  -8  -8 2506.25 214.946   3
   1  -8  -8 2250.37 220.962   8
  -1   8   8 2159.87 208.478   1
  -1   8   8 2184.54 252.114  10
  -1   8   7 3133.31 243.568   1
   1  -8  -7 3350.52 239.343   3
   1  -8  -7 3787.51 274.065   8
  -1   8   7 3063.82 281.293  10
   1  -8  -6 914.499 134.568   8
  -1   8   6 779.507 120.906   1
   1  -8  -6 979.266 123.419   3
  -1   8   6 832.127 152.270  10
  -1   8   5 41.0909 48.9541   1
   1  -8  -5-35.5587 45.7660   8
   1  -8  -5 5.01002 39.7231   3
  -1   8   5-37.9926 84.5525  10
   1  -8  -4 283.028 82.2909   1
  -1   8   4 160.717 64.1601   1
  -1   8   4 266.958 96.6182  10
   1  -8  -4 227.332 61.4799   3
   1  -8  -3 177.857 57.3896   3
  -1   8   3 143.215 57.3657   1
   1  -8  -3 47.3928 30.0384   7
   1  -8  -3 147.278 63.7673   1
  -1   8   3 227.556 101.192  10
  -1   8   2 674.171 103.125   1
  -1   8   2 864.828 145.488  10
   1  -8  -2 816.264 76.4527   7
  -1   8   2 668.651 101.018   3
   1  -8  -2 784.812 98.0793   3
   1  -8  -2 716.149 96.5677   1
  -1   8   1 1739.95 149.180   1
   1  -8  -1 1863.50 156.181   1
   1  -8  -1 1895.92 146.670   3
  -1   8   1 1820.42 183.728  10
   1  -8  -1 1824.97 110.820   7
  -1   8   1 1859.19 158.777   3
   1  -8   0 1632.19 136.638   3
  -1   8   0 1508.06 141.601   3
   1  -8   0 1636.39 100.442   7
   1  -8   0 1540.73 141.498   1
  -1   8   0 1748.14 181.864  10
   1  -8   1 55.5907 48.2076   1
   1  -8   1-22.9596 23.1106   7
  -1   8  -1-87.8756 53.9119   3
  -1   8  -1 2.32175 57.9206  10
   1  -8   2-10.7737 41.1806   1
   1  -8   2 36.2238 27.9562   7
  -1   8  -2-72.4407 71.1916  10
  -1   8  -2 69.4955 60.2657   3
  -1   8  -3 442.514 83.3558  10
   1  -8   3 394.322 51.6921   7
  -1   8  -3 398.941 79.4653   3
   1  -8   3 479.492 76.8697   1
  -1   8  -4 2707.12 185.137   3
   1  -8   4 2746.70 177.106   1
  -1   8  -4 2911.41 194.327  10
   1  -8   4 2852.52 139.859   7
  -1   8  -5 105.240 47.5397  10
   1  -8   5 159.580 40.9018   7
  -1   8  -5 73.0733 52.9994   3
   1  -8   5 147.518 57.9818   1
  -1   8  -6 1920.03 142.043  10
   1  -8   6 2010.64 152.000   1
  -1   8  -6 1976.35 161.313   3
   1  -8   6 1929.79 129.587   7
   1  -8   7 2444.01 171.253   1
   1  -8   7 2303.68 154.811   7
  -1   8  -7 2234.99 146.679  10
  -1   8  -7 2328.36 174.670   3
  -1   8  -8 967.353 125.418   2
   1  -8   8 695.241 88.9760   7
  -1   8  -8 812.970 109.977   3
   1  -8   8 892.952 106.282   1
  -1   8  -8 815.937 80.1567  10
  -1   8  -9 2860.64 202.540   3
   1  -8   9 3410.75 212.708   1
  -1   8  -9 2844.46 218.202   2
   1  -8   9 3199.39 198.036   7
   1  -8  10 1768.38 161.916   1
  -1   8 -10 1810.06 179.901   2
  -1   8 -10 1648.97 155.205   3
   1  -8  10 1614.59 152.933   7
  -1   8 -11 25.9491 59.8874   2
  -1   8 -11 154.718 50.4202   3
   1  -8  11 185.575 64.4577   1
   1  -8  11 145.731 63.4631   7
  -1   8 -12 17.0254 59.8491   3
   1  -8  12 30.5978 46.3079   1
   1  -8  12 19.7505 43.5328   7
  -1   8 -12 116.041 76.0837   2
   1  -8  13 374.877 88.8933   7
  -1   8 -13 381.783 92.8064   3
  -1   8 -13 381.755 101.589   2
   1  -8  13 358.999 82.2790   1
   1  -8  14 1367.73 182.069   7
   1  -8  14 1841.40 184.756   1
  -1   8 -14 1915.60 184.979   2
  -1   8 -14 1648.57 182.382   3
  -1   8 -15 1955.98 194.814   2
  -1   8 -15 1597.59 184.370   3
   1  -8  15 1973.36 203.616   1
   1  -8  15 1226.14 184.684   7
  -1   8 -16 744.900 133.565   2
   1  -8  16 864.554 152.178   1
   1  -8  17 275.121 89.6265   1
   1  -7 -12 833.256 154.212   8
  -1   7  11 1119.93 162.207   1
   1  -7 -11 989.309 157.674   8
  -1   7  10 803.821 157.151  10
   1  -7 -10 787.604 138.372   8
  -1   7  10 706.525 117.916   1
  -1   7   9 442.556 100.189   1
   1  -7  -9 339.407 102.280   8
  -1   7   9 309.689 108.249  10
   1  -7  -9 497.169 92.9872   3
   1  -7  -8 57.8350 48.2716   3
  -1   7   8 103.188 54.3101   1
  -1   7   8 39.6990 85.0738  10
   1  -7  -8 65.2380 48.3533   8
  -1   7   7 977.795 127.293   1
  -1   7   7 1055.19 167.161  10
   1  -7  -7 987.571 130.900   8
   1  -7  -7 1043.17 125.211   3
  -1   7   6 6064.57 309.084   1
  -1   7   6 5706.24 355.282  10
   1  -7  -6 6081.60 319.915   8
   1  -7  -6 6628.20 310.369   3
  -1   7   5 7773.36 342.510   1
   1  -7  -5 7790.63 351.114   8
   1  -7  -5 7667.46 328.278   3
  -1   7   5 7496.24 401.133  10
   1  -7  -4 9327.68 372.427   1
   1  -7  -4 8368.61 290.956   7
  -1   7   4 8535.38 351.337   1
   1  -7  -4 9725.20 359.071   3
  -1   7   4 8871.75 424.469  10
  -1   7   3 15449.5 569.037  10
   1  -7  -3 15909.9 410.097   7
   1  -7  -3 15522.7 471.294   3
   1  -7  -3 16000.0 498.694   1
  -1   7   3 14849.2 478.436   1
   1  -7  -2 3430.81 156.156   7
  -1   7   2 3774.74 253.519  10
   1  -7  -2 3501.88 196.499   3
   1  -7  -2 3672.02 208.084   1
  -1   7   2 3545.46 205.852   1
   1  -7  -1 1168.11 87.1058   7
   1  -7  -1 1384.49 126.766   1
   1  -7  -1 1098.77 104.478   3
  -1   7   1 1053.87 111.693   3
  -1   7   1 1237.79 147.781  10
  -1   7   0 1182.94 136.816  10
  -1   7   0 1082.12 111.655   3
   1  -7   0 1007.72 75.3557   7
   1  -7   0 946.120 102.719   1
   1  -7   0 825.024 91.4884   3
  -1   7  -1 587.194 87.3306   3
  -1   7  -1 522.288 94.2881  10
   1  -7   1 590.606 58.7732   7
   1  -7   1 549.062 81.0620   1
  -1   7  -2 2892.81 191.912  10
   1  -7   2 3197.00 179.534   1
  -1   7  -2 3055.05 183.294   3
   1  -7   2 2909.35 127.922   7
  -1   7  -3 6290.61 276.201  10
   1  -7   3 5952.05 203.261   7
   1  -7   3 6072.33 252.465   1
  -1   7  -3 6158.03 261.514   3
  -1   7  -4 7904.69 302.772   3
   1  -7   4 7994.77 247.592   7
  -1   7  -4 7745.37 301.128  10
   1  -7   4 7862.93 291.725   1
   1  -7   5 119.955 43.0271   7
  -1   7  -5 98.2733 40.0583  10
  -1   7  -5 204.889 55.2371   3
   1  -7   5 191.553 51.3247   1
   1  -7   6 180.956 39.0195   6
  -1   7  -6 191.487 50.2105   3
   1  -7   6 237.826 62.7060   1
   1  -7   6 202.942 58.2269   7
  -1   7  -6 282.138 53.9914  10
   1  -7   7 30.8944 42.2895   1
  -1   7  -7 42.3166 30.7302  10
  -1   7  -7 24.4746 47.5695   3
   1  -7   7-5.65955 22.6105   6
   1  -7   7-37.0943 40.0400   7
  -1   7  -8 974.727 116.223   2
  -1   7  -8 1291.92 91.2068  10
  -1   7  -8 1204.50 126.204   3
   1  -7   8 1102.55 122.867   7
   1  -7   8 1473.99 129.362   1
   1  -7   9 33.3960 40.5804   7
  -1   7  -9 44.7460 57.8547   2
  -1   7  -9 106.668 30.7629  10
   1  -7   9 105.648 53.2065   1
  -1   7  -9 92.2187 50.9387   3
  -1   7 -10 98.9710 50.5007   2
  -1   7 -10 69.1801 55.1661   3
   1  -7  10 30.4546 62.3721   1
   1  -7  10 52.5473 59.5510   7
  -1   7 -11 54.1574 53.2600   3
   1  -7  11 77.0234 44.2360   1
  -1   7 -11 137.060 62.6191   2
   1  -7  12 422.619 97.8526   7
  -1   7 -12 340.551 73.9290   3
  -1   7 -12 549.124 101.858   2
   1  -7  12 357.656 87.8563   1
   1  -7  13 891.560 137.632   7
   1  -7  13 1046.97 139.658   1
  -1   7 -13 1059.11 130.970   2
  -1   7 -13 1146.34 143.725   3
   1  -7  14 105.009 62.5252   1
  -1   7 -14 77.0552 50.2367   3
   1  -7  14 52.3846 58.2694   7
  -1   7 -14 224.153 82.8003   2
   1  -7  15 252.791 100.238   7
   1  -7  15 495.861 111.368   1
  -1   7 -15 469.750 101.793   2
  -1   7 -15 388.073 92.2660   3
   1  -7  16 330.670 108.008   1
   1  -7  17-4.88180 65.2389   1
   1  -7  18 179.641 93.3185   1
  -1   6  12 11.2281 64.5408   1
   1  -6 -12 24.1423 59.1223   8
  -1   6  11-27.4711 48.4163   1
   1  -6 -11-1.36010 55.9036   8
   1  -6 -10 122.020 71.7852   8
   1  -6 -10 91.0932 50.6133   3
  -1   6  10-14.6308 67.5507  10
  -1   6  10 146.425 55.1429   1
  -1   6   9 455.525 102.323   1
   1  -6  -9 427.894 92.2144   3
  -1   6   9 382.168 111.545  10
   1  -6  -9 441.469 106.764   8
   1  -6  -8 1332.97 140.149   3
  -1   6   8 1110.47 141.732   1
  -1   6   8 1018.61 161.920  10
   1  -6  -8 1190.76 144.274   8
  -1   6   7 1404.71 149.330   1
  -1   6   7 1203.88 166.706  10
   1  -6  -7 1391.73 149.978   8
   1  -6  -7 1451.64 146.023   3
   1  -6  -6 2132.34 174.426   8
  -1   6   6 2110.28 168.961   1
   1  -6  -6 2224.68 166.992   3
  -1   6   6 2155.72 206.455  10
  -1   6   5 2899.70 191.686   1
   1  -6  -5 2899.21 183.565   3
   1  -6  -5 2721.24 188.119   8
  -1   6   5 2705.22 221.886  10
  -1   6   4 1593.78 168.624  10
   1  -6  -4 1757.22 146.026   1
  -1   6   4 1555.73 140.306   1
   1  -6  -4 1758.30 139.317   3
  -1   6   3 1311.69 151.553  10
  -1   6   3 1095.06 113.984   1
   1  -6  -3 1296.28 95.0414   7
   1  -6  -3 1315.06 116.487   3
   1  -6  -3 1415.02 126.630   1
   1  -6  -2 11209.4 353.998   3
   1  -6  -2 11436.6 372.023   1
   1  -6  -2 11362.3 307.760   7
  -1   6   2 11580.8 431.978  10
  -1   6   2 10817.0 360.038   1
   1  -6  -1 1794.13 125.097   3
  -1   6   1 1947.68 137.127   3
  -1   6   1 1808.28 159.264  10
   1  -6  -1 1904.45 136.228   1
   1  -6  -1 1968.04 107.545   7
  -1   6   0 15339.0 493.011  10
   1  -6   0 16379.5 369.108   7
   1  -6   0 15436.7 432.843   1
  -1   6   0 15582.6 436.996   3
   1  -6   0 16382.4 424.335   3
  -1   6  -1 40287.1 918.337  10
   1  -6   1 41434.1 858.192   1
   1  -6   1 41718.3 769.772   7
  -1   6  -1 41329.5 864.304   3
   1  -6   2 15166.5 349.352   7
  -1   6  -2 15335.9 451.267  10
  -1   6  -2 15535.2 423.728   3
   1  -6   2 15076.6 416.089   1
   1  -6   3 8060.45 277.422   1
  -1   6  -3 7800.41 282.055   3
  -1   6  -3 8243.68 294.644  10
   1  -6   4 9543.21 310.064   1
   1  -6   4 9560.66 275.933   7
  -1   6  -4 9580.28 322.218   3
  -1   6  -4 9555.43 308.805  10
   1  -6   5 78.6575 25.3717   6
  -1   6  -5 34.0524 40.4298   3
   1  -6   5 73.9953 37.1230   1
   1  -6   5 63.9623 31.7350   7
  -1   6  -5 105.800 41.8252  10
   1  -6   6 1399.18 105.154   7
   1  -6   6 1248.48 74.7188   6
  -1   6  -6 1214.48 114.091   3
  -1   6  -6 1227.07 89.8869  10
   1  -6   6 1442.73 116.969   1
  -1   6  -7 4864.81 245.096   2
   1  -6   7 4869.18 169.373   6
   1  -6   7 5442.48 229.222   7
  -1   6  -7 5378.90 185.619  10
  -1   6  -7 4965.48 234.811   3
   1  -6   7 5384.76 236.925   1
  -1   6  -8 9156.68 356.484   2
  -1   6  -8 10360.1 265.662  10
   1  -6   8 9664.04 272.660   6
  -1   6  -8 9826.16 355.006   3
   1  -6   8 10515.5 360.351   7
   1  -6   8 10607.2 363.583   1
  -1   6  -9 935.052 117.666   2
  -1   6  -9 1009.16 62.7465  10
   1  -6   9 1012.35 80.5062   6
   1  -6   9 1061.66 114.118   1
   1  -6   9 945.014 118.346   7
  -1   6  -9 881.010 107.445   3
  -1   6 -10 3192.00 206.106   2
  -1   6 -10 3227.75 207.637   3
   1  -6  10 3369.22 206.880   1
   1  -6  10 2869.74 205.590   7
  -1   6 -11 1410.24 142.099   3
  -1   6 -11 1344.45 134.110   2
   1  -6  11 1356.42 138.812   1
   1  -6  11 1271.89 142.527   7
   1  -6  12 785.931 105.997   1
  -1   6 -12 599.108 104.605   3
   1  -6  12 622.041 112.112   7
  -1   6 -12 752.705 107.605   2
  -1   6 -13-37.3449 50.0287   3
   1  -6  13 49.2565 62.4601   7
  -1   6 -13 70.0866 67.6431   2
   1  -6  13 9.11135 45.2924   1
  -1   6 -14 82.9026 56.2537   2
   1  -6  14-21.7486 50.1065   1
  -1   6 -14 105.904 69.2125   3
   1  -6  15 66.1445 50.5084   1
   1  -6  15 53.9286 60.5005   7
  -1   6 -15 90.1896 64.8524   3
   1  -6  16 18.9439 65.2119   1
   1  -6  17-6.72151 72.3441   1
   1  -6  18 27.6435 67.2685   1
  -1   5  14 129.302 96.4501   6
  -1   5  13 1873.85 227.944   6
  -1   5  13 2220.83 218.869   1
  -1   5  12 2504.46 230.605   1
   1  -5 -11 3018.53 228.582   3
   1  -5 -11 2802.83 236.511   8
  -1   5  11 2945.75 235.967   1
  -1   5  10 2496.07 217.689  10
   1  -5 -10 2563.06 217.050   8
  -1   5  10 2933.60 220.909   1
   1  -5 -10 2654.80 205.667   3
   1  -5  -9 1184.19 134.164   3
   1  -5  -9 1163.62 140.630   8
  -1   5   9 1142.70 136.122   1
  -1   5   9 1175.11 156.398  10
  -1   5   8 1533.82 151.680   1
   1  -5  -8 1740.99 161.155   8
   1  -5  -8 1810.96 153.989   3
  -1   5   8 2015.95 191.271  10
  -1   5   7 2004.16 197.152  10
   1  -5  -7 2236.38 175.488   8
   1  -5  -7 1884.20 151.514   3
  -1   5   7 1762.47 152.188   1
  -1   5   6 2396.62 207.899  10
   1  -5  -6 2331.40 160.769   3
  -1   5   6 2621.38 177.726   1
   1  -5  -6 2654.34 183.142   8
   1  -5  -5 85.2096 39.1522   3
   1  -5  -5 99.3695 50.2486   8
  -1   5   5 102.995 52.1758   1
  -1   5   5 17.7242 55.8407  10
  -1   5   4 253.012 70.7845  10
   1  -5  -4 315.896 69.9372   1
  -1   5   4 300.795 64.6321   1
   1  -5  -4 249.251 59.4825   3
  -1   5   3 256.688 66.9646  10
   1  -5  -3 378.876 64.0065   1
  -1   5   3 263.062 57.6745   1
   1  -5  -3 339.196 63.6394   3
   1  -5  -2 1758.48 114.593   3
  -1   5   2 1423.28 141.359  10
   1  -5  -2 1583.28 92.8230   7
  -1   5   2 1473.89 112.006   1
   1  -5  -2 1573.77 117.139   1
   1  -5  -1 2864.12 121.708   7
   1  -5  -1 2910.22 152.870   1
   1  -5  -1 2802.83 143.945   3
  -1   5   1 2512.11 172.320  10
  -1   5   0 972.018 84.5379   3
  -1   5   0 941.319 109.976  10
   1  -5   0 942.730 81.0703   3
   1  -5   0 993.805 88.0964   1
   1  -5   0 995.488 67.2583   7
   1  -5   1 5334.65 163.067   7
  -1   5  -1 5112.65 224.373  10
   1  -5   1 5217.91 203.806   1
  -1   5  -1 5420.97 210.409   3
   1  -5   2 1897.53 92.3587   7
  -1   5  -2 2014.01 124.197   3
  -1   5  -2 1886.48 126.051  10
   1  -5   2 1992.06 118.924   1
  -1   5  -3 445.250 63.5348  10
   1  -5   3 458.432 51.1444   7
   1  -5   3 339.239 50.0207   1
  -1   5  -3 423.144 59.6962   3
   1  -5   4 15275.6 372.685   7
  -1   5  -4 15209.9 405.843   3
   1  -5   4 14953.9 395.385   1
  -1   5  -4 15344.2 378.620  10
  -1   5  -5 23828.1 557.319   3
   1  -5   5 24313.3 554.973   1
  -1   5  -5 24116.8 501.386  10
   1  -5   5 23899.9 541.872   7
   1  -5   5 22295.0 454.129   6
  -1   5  -6 12319.6 380.340   2
   1  -5   6 11929.3 355.889   7
   1  -5   6 11701.4 280.294   6
  -1   5  -6 12305.2 297.374  10
   1  -5   6 12706.3 369.191   1
  -1   5  -6 11998.0 363.387   3
   1  -5   7 11855.4 296.488   6
  -1   5  -7 11605.8 376.173   2
   1  -5   7 11679.7 375.125   7
  -1   5  -7 11862.7 373.392   3
  -1   5  -7 13105.0 289.817  10
   1  -5   7 12674.0 381.659   1
   1  -5   8 7840.42 310.867   7
   1  -5   8 8280.76 306.414   1
  -1   5  -8 8006.34 304.324   2
  -1   5  -8 8062.21 306.749   3
   1  -5   8 8400.64 244.794   6
  -1   5  -8 8425.65 204.894  10
   1  -5   9 27.6028 28.0620   6
   1  -5   9 113.772 55.1810   7
  -1   5  -9 24.8231 47.3095   2
   1  -5   9 6.24531 51.8551   1
  -1   5  -9 51.6734 50.5634   3
   1  -5  10 2.45811 39.7554   1
  -1   5 -10 76.0713 52.1469   2
   1  -5  10 41.7880 49.8364   7
  -1   5 -10-2.47221 42.9510   3
   1  -5  10 9.75340 27.8956   6
  -1   5 -11 2131.76 171.568   3
   1  -5  11 1979.87 184.296   7
  -1   5 -11 2325.62 166.355   2
   1  -5  11 2445.67 179.337   1
   1  -5  11 2108.04 135.601   6
  -1   5 -12 4257.24 227.710   2
   1  -5  12 4497.81 254.476   1
  -1   5 -12 4003.53 245.407   3
  -1   5 -13 1480.91 156.571   3
   1  -5  13 1509.01 162.914   1
  -1   5 -13 1467.96 135.671   2
   1  -5  13 1110.72 155.139   7
   1  -5  14 4001.79 260.475   1
  -1   5 -14 3874.39 221.924   2
  -1   5 -14 3497.19 251.003   3
   1  -5  15 1566.25 174.779   1
  -1   5 -15 1339.02 163.838   3
   1  -5  16 755.750 137.755   1
   1  -5  17 122.237 69.6415   1
  -1   4  15 1382.74 200.309   6
  -1   4  14 2714.21 261.011   6
  -1   4  14 2544.04 237.653   1
  -1   4  13 2077.14 232.883   6
  -1   4  13 2385.73 222.071   1
  -1   4  12 1524.53 171.215   1
   1  -4 -12 1373.78 157.112   3
   1  -4 -11 527.105 115.488   8
   1  -4 -11 540.436 95.6106   3
  -1   4  11 522.591 98.7810   1
   1  -4 -10 71.3407 48.1431   3
   1  -4 -10 91.5786 59.3436   8
  -1   4  10 127.406 73.5459   1
  -1   4  10-0.67666 51.3034  10
   1  -4  -9 11271.0 430.430   8
  -1   4   9 11154.4 424.141   1
   1  -4  -9 11531.0 415.441   3
  -1   4   9 11362.9 448.677  10
   1  -4  -8 4251.95 231.579   3
  -1   4   8 4398.96 264.196  10
   1  -4  -8 3803.33 234.945   8
  -1   4   8 4065.82 231.030   1
  -1   4   7 7829.31 351.629  10
   1  -4  -7 8279.13 331.252   8
   1  -4  -7 8379.82 316.833   3
  -1   4   7 7822.33 316.372   1
   1  -4  -6 14615.0 425.272   3
  -1   4   6 13906.1 426.678   1
   1  -4  -6 15237.0 448.074   8
  -1   4   6 13809.9 472.730  10
  -1   4   5 11097.9 409.760  10
  -1   4   5 12712.3 380.113   1
   1  -4  -5 12310.7 368.171   3
   1  -4  -5 13002.2 386.799   8
   1  -4  -4 12930.0 375.636   1
  -1   4   4 12380.8 365.543   1
   1  -4  -4 13886.5 367.841   3
  -1   4   3 4397.55 225.497  10
   1  -4  -3 4816.22 201.352   1
  -1   4   3 4641.22 194.233   1
   1  -4  -3 4797.85 194.148   3
  -1   4   2 2239.13 125.803   1
  -1   4   2 2328.80 150.484  10
   1  -4  -2 2441.13 129.560   1
   1  -4  -2 2183.91 122.604   3
   1  -4  -1 1279.16 74.3099   7
   1  -4  -1 1169.38 87.9668   1
   1  -4  -1 1160.37 86.8891   3
  -1   4   1 1234.49 109.747  10
   1  -4   0 8970.56 262.421   1
  -1   4   0 8892.97 266.967   3
   1  -4   0 10049.2 237.202   7
  -1   4   0 9158.84 294.999  10
   1  -4   0 9251.71 257.068   3
   1  -4   1 5910.58 192.804   1
   1  -4   1 5434.73 159.454   7
  -1   4  -1 5408.49 204.273  10
  -1   4  -1 5712.18 196.325   3
  -1   4  -2 246.186 43.4540   3
   1  -4   2 266.072 45.3386   1
  -1   4  -2 261.667 45.4452  10
   1  -4   2 271.286 38.7011   7
   1  -4   3 177.921 34.1784   7
  -1   4  -3 205.476 35.0444  10
   1  -4   3 188.487 39.5122   1
  -1   4  -3 252.013 46.9697   3
  -1   4  -4 194.663 47.0971   3
  -1   4  -4 254.368 36.7055  10
  -1   4  -4 176.124 36.0410   2
   1  -4   4 211.638 42.5904   1
   1  -4   4 184.427 42.1402   7
  -1   4  -5 1672.06 110.852   3
  -1   4  -5 1526.32 111.848   2
   1  -4   5 1716.45 111.376   1
   1  -4   5 1588.02 108.100   7
  -1   4  -5 1706.36 82.6673  10
   1  -4   6 748.105 78.7555   7
  -1   4  -6 646.475 77.3386   2
  -1   4  -6 705.908 77.3198   3
  -1   4  -6 768.948 51.5407  10
   1  -4   6 716.758 77.1425   1
   1  -4   6 725.606 54.1704  10
   1  -4   6 752.275 54.0639   6
   1  -4   7 1620.37 132.219   7
   1  -4   7 1811.69 93.6323   6
   1  -4   7 1961.26 130.213   1
  -1   4  -7 1713.07 122.324   3
   1  -4   7 1741.95 81.8785  10
  -1   4  -7 1772.33 123.509   2
  -1   4  -8 6194.27 239.815   2
   1  -4   8 5797.17 199.513   6
   1  -4   8 5939.10 159.490  10
   1  -4   8 5891.06 263.590   7
   1  -4   8 5948.17 246.809   1
  -1   4  -8 5965.86 248.506   3
   1  -4   9 3509.21 213.424   7
   1  -4   9 3707.14 200.774   1
   1  -4   9 3501.52 162.036   6
  -1   4  -9 3884.15 188.671   2
  -1   4  -9 3934.96 205.399   3
   1  -4  10 3819.58 210.212   1
   1  -4  10 3542.90 171.803   6
   1  -4  10 3578.83 224.873   7
  -1   4 -10 3539.36 189.039   2
  -1   4 -10 3232.44 202.779   3
   1  -4  11 2676.25 157.257   6
  -1   4 -11 2595.13 184.766   3
  -1   4 -11 2447.27 159.519   2
   1  -4  11 2716.12 186.540   1
   1  -4  11 2184.08 189.185   7
   1  -4  12 3066.94 182.979   6
  -1   4 -12 3229.14 217.938   3
   1  -4  12 3209.93 213.969   1
  -1   4 -12 3418.84 190.623   2
  -1   4 -13 644.171 101.452   3
   1  -4  13 533.207 83.8685   6
   1  -4  13 385.363 101.083   7
   1  -4  13 551.720 98.6502   1
  -1   4 -13 479.116 77.5653   2
  -1   4 -14 76.0275 53.5544   3
   1  -4  14 211.455 73.2330   1
  -1   4 -15 41.2336 57.5895   3
   1  -4  15 118.255 52.9912   1
   1  -4  16 589.316 118.922   1
   1  -4  17 578.115 122.933   1
  -1   3  16 67.9155 83.5440   6
  -1   3  15-41.3737 58.1774   1
  -1   3  15-2.05909 70.5230   6
  -1   3  14 165.273 77.2977   1
  -1   3  14 35.5534 62.3465   6
  -1   3  13 15.2895 52.0876   1
   1  -3 -13 20.3498 53.9572   3
  -1   3  13-15.2204 61.7719   6
  -1   3  12 90.3147 52.7796   1
   1  -3 -12 2.77180 43.1010   3
   1  -3 -11 2222.89 185.449   3
  -1   3  11 2362.74 193.058   1
  -1   3  10 3877.25 238.969   1
  -1   3  10 4421.99 247.585  10
   1  -3 -10 4459.00 261.487   8
   1  -3 -10 4072.27 236.570   3
   1  -3  -9 4536.68 247.446   8
   1  -3  -9 4386.21 234.699   3
  -1   3   9 4817.70 246.443   1
  -1   3   9 4556.44 246.631  10
   1  -3  -8 6621.14 289.710   8
   1  -3  -8 6281.99 272.343   3
  -1   3   8 6457.96 295.155  10
  -1   3   8 6291.29 279.940   1
  -1   3   7 8847.84 340.104  10
   1  -3  -7 8575.71 320.547   8
  -1   3   7 8606.72 314.630   1
   1  -3  -7 8642.96 308.299   3
  -1   3   6 1448.90 115.020   1
   1  -3  -6 1367.17 110.778   3
   1  -3  -6 1488.35 118.192   8
  -1   3   6 1542.64 132.421  10
   1  -3  -5 1834.35 115.532   3
   1  -3  -5 1950.29 127.429   8
  -1   3   5 1740.69 134.397  10
  -1   3   5 1662.07 115.071   1
  -1   3   4 7040.32 271.456  10
  -1   3   4 7030.40 235.625   1
   1  -3  -4 6630.10 234.803   8
   1  -3  -4 6790.37 227.280   3
   1  -3  -3 23604.1 519.203   1
   1  -3  -3 23489.0 505.702   3
  -1   3   3 23133.3 559.105  10
  -1   3   3 24236.4 516.513   1
  -1   3   2 22317.6 474.440   1
  -1   3   2 21430.3 514.310  10
   1  -3  -2 22210.6 466.449   3
   1  -3  -2 22288.6 477.377   1
   1  -3  -1 43439.6 757.260   7
   1  -3  -1 41588.8 776.512   3
  -1   3   1 40844.5 824.185  10
   1  -3  -1 42999.2 789.269   1
  -1   3   0 63580.3 1148.45  10
   1  -3   0 64005.6 1089.94   7
   1  -3   0 64359.3 1107.30   3
  -1   3   0 64186.2 1122.33   3
  -1   3  -1 17469.1 386.071  10
   1  -3   1 17590.2 375.749   1
   1  -3   1 17261.2 350.186   7
  -1   3  -1 17267.8 377.416   3
  -1   3  -2 16227.1 356.498   3
   1  -3   2 15801.3 351.261   1
   1  -3   2 15335.6 332.720   7
  -1   3  -2 15318.2 339.720  10
   1  -3   3 8859.22 221.020  10
  -1   3  -3 9042.66 216.229  10
   1  -3   3 9059.97 244.306   1
  -1   3  -3 9122.44 251.303   2
   1  -3   3 8338.68 235.955   7
  -1   3  -3 8802.04 244.949   3
  -1   3  -4 1908.71 106.260   2
  -1   3  -4 2033.85 80.2945  10
   1  -3   4 1782.73 79.5863  10
   1  -3   4 1895.04 103.999   1
   1  -3   4 1841.47 105.600   7
  -1   3  -4 1867.68 106.125   3
   1  -3   5 3300.66 147.791   1
  -1   3  -5 3201.06 146.185   3
  -1   3  -5 3260.56 104.766  10
   1  -3   5 3088.22 152.253   7
   1  -3   5 3278.68 106.887  10
  -1   3  -5 3179.75 146.761   2
   1  -3   6 6838.09 255.780   7
   1  -3   6 6947.32 236.283   1
   1  -3   6 6743.29 168.942  10
  -1   3  -6 6542.60 227.269   2
  -1   3  -6 6873.34 237.219   3
   1  -3   7 5090.68 212.432   1
   1  -3   7 4954.96 225.882   7
   1  -3   7 5108.92 137.177  10
  -1   3  -7 4892.15 195.508   2
  -1   3  -7 4968.15 207.069   3
   1  -3   8 2321.94 148.525   1
  -1   3  -8 2522.73 138.113   2
   1  -3   8 2304.80 84.1989  10
   1  -3   8 2429.51 164.304   7
  -1   3  -8 2549.30 152.403   3
   1  -3   9 834.780 78.3839   6
  -1   3  -9 775.714 97.3405   3
   1  -3   9 947.547 102.728   1
  -1   3  -9 936.331 89.7470   2
   1  -3   9 762.023 108.177   7
   1  -3  10 1267.60 143.430   7
  -1   3 -10 1549.47 114.705   2
   1  -3  10 1369.27 108.738   6
  -1   3 -10 1323.28 127.071   3
   1  -3  10 1376.32 131.987   1
  -1   3 -11 90.5547 50.2789   3
   1  -3  11 60.1345 51.3988   7
   1  -3  11 56.5411 43.4315   6
  -1   3 -11 16.7087 30.7229   2
   1  -3  11-47.4451 52.7354   1
   1  -3  12 272.033 62.1831   6
  -1   3 -12 241.108 49.8156   2
  -1   3 -12 292.312 75.1148   3
   1  -3  12 354.973 80.5726   1
   1  -3  12 192.021 77.5246   7
  -1   3 -13 76.0960 61.8010   3
   1  -3  13 18.1441 36.6113   6
   1  -3  13-5.56910 62.3824   7
  -1   3 -13-24.5351 38.2603   2
   1  -3  13-16.4995 43.7175   1
  -1   3 -14 406.244 93.6456   3
   1  -3  14 372.076 96.2623   1
   1  -3  14 397.954 82.9295   6
   1  -3  15 469.824 104.153   1
  -1   3 -15 641.619 111.636   3
   1  -3  16 689.738 127.760   1
   1  -3  17 30.4271 59.7349   1
  -1   2  16 226.637 95.2454   6
  -1   2  16 581.605 115.620   1
  -1   2  15 844.061 141.022   1
  -1   2  15 477.196 120.185   6
   1  -2 -14 879.277 130.785   3
  -1   2  14 885.208 134.899   1
  -1   2  14 1006.84 153.403   6
  -1   2  13 1465.28 167.210   6
  -1   2  13 1759.23 172.813   1
   1  -2 -13 1806.72 173.793   3
   1  -2 -12 330.556 78.6595   3
  -1   2  12 513.065 104.485   6
  -1   2  12 548.873 97.8858   1
   1  -2 -11 284.186 67.4464   3
  -1   2  11 329.691 80.7032   1
  -1   2  11 325.222 81.4583   6
  -1   2  10-36.3601 42.8038  10
  -1   2  10 40.7808 46.6076   1
  -1   2  10 82.3012 66.7046   6
   1  -2 -10 26.7627 38.3404   3
  -1   2   9-19.4870 47.2727  10
  -1   2   9 69.3953 50.3964   1
   1  -2  -9 130.535 43.7166   3
   1  -2  -9 79.0144 44.3211   8
  -1   2   8 617.564 85.4878   1
  -1   2   8 641.937 84.6297  10
   1  -2  -8 597.193 83.3688   3
   1  -2  -8 746.696 44.4471   2
   1  -2  -8 679.318 91.5387   8
   1  -2  -7 5392.56 133.920   2
   1  -2  -7 4801.58 208.862   3
  -1   2   7 5119.86 222.130  10
  -1   2   7 4883.25 216.159   1
   1  -2  -7 4846.54 222.769   8
  -1   2   6 3829.11 183.964  10
   1  -2  -6 3498.23 164.552   3
  -1   2   6 3465.64 167.224   1
   1  -2  -6 3460.18 170.713   8
   1  -2  -6 3829.47 103.198   2
  -1   2   5 4232.58 189.696  10
   1  -2  -5 3882.56 171.734   8
  -1   2   5 3844.08 163.016   1
   1  -2  -5 4059.00 164.679   3
  -1   2   4 13873.1 341.613   1
   1  -2  -4 13573.1 343.501   8
  -1   2   4 14531.0 365.999  10
   1  -2  -4 13468.9 334.218   3
   1  -2  -3 10371.2 266.729   1
   1  -2  -3 10439.4 259.152   3
  -1   2   3 10342.4 285.502  10
  -1   2   3 10302.1 262.117   1
  -1   2   2 8425.02 234.949  10
  -1   2   2 8357.57 214.067   1
   1  -2  -2 8120.30 213.384   1
   1  -2  -2 8043.35 206.164   3
   1  -2  -1 47.4297 22.9368   3
   1  -2  -1 76.3041 25.8037   1
  -1   2   1 82.8420 34.2085  10
   1  -2  -1 52.9901 24.0510   7
  -1   2   0 3449.48 105.304   7
   1  -2   0 3495.60 111.226   3
   1  -2   0 3502.71 112.479   1
   1  -2   0 3410.14 104.699   7
  -1   2   0 3304.45 109.499   3
  -1   2   0 3333.62 104.396   3
   1  -2   0 3440.09 105.370   3
  -1   2   0 3536.58 116.414  10
   1  -2   0 3355.47 116.499  10
  -1   2  -1 12239.2 268.318  10
   1  -2   1 12313.1 265.433   7
   1  -2   1 13719.4 275.104  10
  -1   2  -1 12858.7 266.311   7
   1  -2   1 13667.2 278.644   3
   1  -2   1 12435.1 273.314   1
  -1   2  -1 13025.0 276.389   2
  -1   2  -1 12918.2 276.717   3
  -1   2  -2 65313.8 1058.20  10
   1  -2   2 66278.9 1082.03   7
   1  -2   2 60649.8 1078.47   1
  -1   2  -2 63319.5 1083.35   2
   1  -2   2 62219.6 1058.50  10
  -1   2  -2 60398.5 1076.45   3
  -1   2  -3 96444.6 1637.72   3
  -1   2  -3 97333.8 1635.98   2
  -1   2  -3 96505.2 1592.95  10
   1  -2   3 95804.9 1637.46   1
   1  -2   3 96774.6 1649.37   7
   1  -2   3 101223. 1597.61  10
   1  -2   4 43295.7 843.700   7
   1  -2   4 42586.6 825.417   1
  -1   2  -4 43360.7 816.312   2
  -1   2  -4 43728.5 828.748   3
  -1   2  -5 21286.1 453.460   2
  -1   2  -5 20786.8 470.154   3
   1  -2   5 20708.3 493.204   7
   1  -2   5 21970.6 404.807  10
   1  -2   5 21107.4 473.181   1
   1  -2   6 4918.43 195.112   1
   1  -2   6 4547.98 205.317   7
   1  -2   6 5433.40 143.784  10
   1  -2   6 5222.13 174.422   6
  -1   2  -6 4824.40 180.157   2
  -1   2  -6 4962.51 192.567   3
   1  -2   7 3255.97 110.268  10
   1  -2   7 3190.69 162.467   1
  -1   2  -7 3236.45 143.483   2
   1  -2   7 3283.00 181.527   7
   1  -2   7 3203.47 113.175   9
  -1   2  -7 3267.38 163.166   3
   1  -2   7 2829.10 143.116   6
   1  -2   8 249.384 60.0868   6
  -1   2  -8 338.372 59.6101   3
  -1   2  -8 354.035 49.7541   2
   1  -2   8 320.525 28.0273   5
   1  -2   8 399.120 37.5537   9
   1  -2   8 331.693 63.3630   7
   1  -2   8 442.743 68.0645   1
   1  -2   9 1118.58 126.982   7
   1  -2   9 1113.79 107.102   1
   1  -2   9 1127.73 101.317   6
  -1   2  -9 1060.79 107.694   3
  -1   2  -9 1212.61 95.4725   2
   1  -2  10 3185.68 219.536   7
  -1   2 -10 3404.85 200.732   3
   1  -2  10 3644.59 190.350   6
   1  -2  10 3459.28 204.506   1
  -1   2 -10 3619.53 173.673   2
   1  -2  11 4766.13 239.799   6
  -1   2 -11 5447.74 222.467   2
   1  -2  11 5313.70 267.189   1
  -1   2 -11 5216.67 263.585   3
   1  -2  11 5322.18 298.536   7
   1  -2  12 3756.35 233.936   1
  -1   2 -12 3214.11 226.326   3
  -1   2 -12 3426.50 179.799   2
   1  -2  13 1282.76 145.359   1
  -1   2 -13 1111.76 134.549   3
   1  -2  13 995.592 117.621   6
   1  -2  14 59.3059 58.0092   1
  -1   2 -14 86.2379 80.1844   3
   1  -2  14 83.5620 52.9238   6
  -1   2 -15-12.4977 60.5584   3
   1  -2  15-18.5123 44.0487   6
   1  -2  15 61.5005 60.6190   1
   1  -2  16-15.6156 65.3840   1
   1  -2  16 48.7708 48.6389   6
   1  -2  17 127.701 76.0328   1
  -1   1  17 933.019 153.705   6
  -1   1  16 2784.96 245.299   1
  -1   1  16 2311.27 233.074   6
  -1   1  15 1418.12 173.458   6
  -1   1  15 1392.34 166.676   1
   1  -1 -14 1456.58 163.634   3
  -1   1  14 1416.69 161.404   1
  -1   1  14 1407.75 173.275   6
   1  -1 -13 221.222 64.1268   3
  -1   1  13 330.574 83.7303   1
  -1   1  13 209.895 71.2693   6
   1  -1 -12 84.5416 44.9809   3
  -1   1  12 86.1083 61.7485   6
  -1   1  12 91.7137 60.4342   1
  -1   1  11 1644.18 154.008   6
   1  -1 -11 1760.57 149.724   3
  -1   1  11 1724.94 151.035   1
  -1   1  10 6734.69 322.164   6
  -1   1  10 7745.81 313.516   1
   1  -1 -10 8061.71 311.220   3
  -1   1   9 12104.9 328.723  10
   1  -1  -9 11127.8 359.414   3
  -1   1   9 10401.4 375.792   6
   1  -1  -9 10056.6 233.769   2
  -1   1   9 11069.3 363.796   1
  -1   1   8 7643.91 308.665   6
  -1   1   8 8195.38 289.023   1
   1  -1  -8 8112.33 183.894   2
   1  -1  -8 8191.44 286.746   3
   1  -1  -8 7509.48 189.768   5
  -1   1   8 8773.58 263.475  10
   1  -1  -8 7989.49 190.532   9
   1  -1  -7 16833.6 348.963   5
  -1   1   7 18881.2 419.661  10
  -1   1   7 17474.3 440.002   1
  -1   1   7 17028.4 461.017   6
   1  -1  -7 17438.6 434.373   3
   1  -1  -7 16465.6 319.279   2
   1  -1  -7 16794.0 443.072   8
   1  -1  -6 8519.87 174.347   2
  -1   1   6 8727.82 265.296   1
   1  -1  -6 8631.85 220.428   5
  -1   1   6 8797.59 251.770  10
   1  -1  -6 8734.16 268.669   8
   1  -1  -6 8839.72 263.541   3
   1  -1  -5 3060.87 73.2995   2
  -1   1   5 3146.65 135.152   1
  -1   1   5 3257.02 132.120  10
   1  -1  -5 3155.73 132.198   3
   1  -1  -5 2671.06 135.381   8
   1  -1  -4 1440.15 83.7435   8
   1  -1  -4 1323.91 78.2342   3
   1  -1  -4 1343.10 82.8770  10
  -1   1   4 1506.52 79.5753  10
  -1   1   4 1415.72 80.9677   1
   1  -1  -3 11880.9 256.653   3
  -1   1   3 11807.2 259.201  10
   1  -1  -3 11045.0 262.507  10
  -1   1   3 11131.8 255.713   1
   1  -1  -3 10377.2 254.064   8
  -1   1   2 559.871 38.6138   1
  -1   1   2 624.323 42.1541  10
  -1   1   2 626.530 40.8018   3
   1  -1  -2 643.001 45.3642  10
   1  -1  -2 640.071 42.4781   1
   1  -1  -2 553.258 39.2128   3
  -1   1   1 31.7988 8.51847   2
   1  -1  -1 4.62293 9.84820   3
  -1   1   1 50.7620 14.3193   3
   1  -1  -1 32.5529 17.6126  10
   1  -1  -1 63.7521 16.9480   1
  -1   1   1-29.0411 15.2623  10
   1  -1  -1 21.6887 17.0352   7
   1  -1   1 6000.53 108.952  10
   1  -1   1 5642.14 105.992   1
   1  -1   1 5871.00 107.185   3
   1  -1   2 611.808 43.9657   1
  -1   1  -2 587.801 41.5058   2
  -1   1  -2 597.843 41.7367   3
   1  -1   2 648.476 43.6921   3
   1  -1   2 542.989 37.3567  10
   1  -1   2 447.431 45.4312   7
  -1   1  -2 577.113 47.6765   7
  -1   1  -3 4631.42 140.295   2
  -1   1  -3 4737.55 143.284   3
   1  -1   3 4566.11 145.689   1
   1  -1   3 4563.78 153.817   7
   1  -1   4 2103.39 114.051   7
  -1   1  -4 2183.07 102.944   3
  -1   1  -4 1944.34 90.8392   2
   1  -1   4 1982.55 99.3950   1
  -1   1  -5 533.702 58.7970   3
   1  -1   5 508.165 36.3713   5
   1  -1   5 495.942 54.9098   1
   1  -1   5 544.907 67.1891   7
  -1   1  -5 483.576 45.6047   2
  -1   1  -6 5029.20 195.668   3
  -1   1  -6 5233.86 174.999   2
   1  -1   6 4911.13 209.612   7
   1  -1   6 4986.45 196.105   1
   1  -1   6 4730.57 133.152   5
   1  -1   6 5034.23 114.108   9
  -1   1  -7 23430.4 503.963   2
   1  -1   7 23069.5 581.408   7
  -1   1  -7 23163.9 548.597   3
   1  -1   7 22858.4 550.613   1
   1  -1   8 13812.5 401.759   1
  -1   1  -8 13712.3 398.880   3
  -1   1  -8 13970.5 353.000   2
   1  -1   8 12649.6 292.874   5
   1  -1   8 13882.4 435.986   7
   1  -1   9 12795.1 407.507   1
  -1   1  -9 12392.1 340.892   2
  -1   1  -9 12521.0 401.926   3
  -1   1 -10 3518.71 167.192   2
   1  -1  10 3571.63 211.172   1
   1  -1  10 3319.27 193.004   6
  -1   1 -10 3471.35 205.540   3
   1  -1  11 6820.57 314.925   1
  -1   1 -11 7266.98 318.670   3
   1  -1  12-51.0740 64.7141   1
  -1   1 -12 27.0561 57.2877   3
   1  -1  12 25.7031 41.3542   6
   1  -1  13 461.744 94.7630   1
   1  -1  13 528.426 90.8836   6
  -1   1 -13 502.056 82.8406   3
   1  -1  14 1343.15 157.569   1
   1  -1  14 1189.92 143.071   6
  -1   1 -14 1429.34 161.484   3
   1  -1  15 1406.99 174.807   1
   1  -1  15 1006.23 145.414   6
   1  -1  16 1050.09 154.219   6
   1  -1  16 1304.48 173.052   1
   1  -1  17 598.465 127.043   6
  -1   0  17 233.192 82.3682   6
  -1   0  17 329.157 101.748   1
  -1   0  16-114.683 74.3739   6
  -1   0  16 16.0022 58.8332   1
  -1   0  15-38.8848 63.8446   6
  -1   0  15 177.506 77.7032   1
   1   0 -15 74.0204 82.9823   3
  -1   0  14 1104.62 143.162   6
   1   0 -14 1500.79 158.661   3
  -1   0  14 1415.33 154.485   1
  -1   0  13 1202.78 145.892   6
   1   0 -13 1522.55 153.132   3
  -1   0  13 1494.33 149.436   1
   1   0 -12 6258.14 299.644   3
  -1   0  12 7184.60 317.824   1
  -1   0  12 6559.14 317.267   6
  -1   0  11 6958.51 313.848   6
   1   0 -11 7304.23 307.072   3
  -1   0  11 7594.57 311.770   1
  -1   0  10 6090.54 278.784   6
  -1   0  10 6520.79 273.055   1
   1   0 -10 6004.96 262.139   3
   1   0  -9 4623.00 139.844   2
  -1   0   9 4467.34 210.182   1
   1   0  -9 4343.71 207.119   3
  -1   0   9 4911.29 232.388   6
   1   0  -9 4546.77 144.752   9
  -1   0   9 4685.13 152.944  10
  -1   0   8-9.30685 29.7812   1
   1   0  -8 34.4807 16.7734   9
   1   0  -8 4.55083 14.6907   2
  -1   0   8 0.19075 38.3823   6
  -1   0   8-7.00537 18.2117  10
   1   0  -8 1.14803 35.0471   3
   1   0  -7 1279.30 56.5076   2
  -1   0   7 1042.87 97.1244   6
  -1   0   7 1234.04 68.1045  10
   1   0  -7 1200.88 92.4658   3
  -1   0   7 1350.88 97.1137   1
   1   0  -7 1228.13 66.2866   9
   1   0  -6 6744.60 155.748   2
   1   0  -6 6860.24 217.234   3
  -1   0   6 6756.29 171.753  10
   1   0  -6 7118.09 177.869   9
   1   0  -6 6583.81 148.475   5
  -1   0   6 7081.56 217.792   1
  -1   0   6 6626.10 233.060   6
  -1   0   5 34741.5 670.820   1
   1   0  -5 35637.9 675.852   3
  -1   0   5 34006.5 696.087   6
  -1   0   5 36293.6 620.428  10
  -1   0   4 26434.9 465.047  10
  -1   0   4 26460.5 501.806   1
   1   0  -4 26073.1 476.604  10
   1   0  -4 27040.9 507.243   8
   1   0  -4 25661.5 503.106   3
  -1   0   3 72354.4 1182.31  10
   1   0  -3 71399.3 1184.60  10
   1   0  -3 72612.5 1206.61   3
  -1   0   3 73582.0 1210.09   3
  -1   0   3 73888.5 1203.92   1
  -1   0   2 19549.0 323.509   1
  -1   0   2 20188.3 330.334  10
  -1   0   2 20176.7 329.509   3
   1   0  -2 19816.7 331.762  10
   1   0   1 701.803 43.2501   7
   1   0   1 1194.41 47.4070   3
   1   0   1 1300.23 50.4668   1
  -1   0  -1 901.758 47.6944   2
  -1   0  -1 1297.22 55.0548   7
  -1   0  -1 1299.25 47.7930   3
   1   0   2 9206.05 197.573   5
   1   0   2 9519.34 208.904   1
  -1   0  -2 9859.14 221.803   7
   1   0   2 10181.3 221.797   7
  -1   0  -2 10301.4 208.883   3
   1   0   2 10110.6 206.671   3
  -1   0  -3 4017.15 131.371   2
   1   0   3 4415.93 151.503   7
  -1   0  -3 4314.97 139.788   3
   1   0   3 4287.05 142.281   1
  -1   0  -4 4521.80 150.408   2
   1   0   4 5217.95 180.367   7
   1   0   4 4846.25 140.625   5
  -1   0  -4 4619.53 162.994   3
   1   0   4 4761.68 167.601   1
  -1   0  -5 19.8056 24.6828   3
  -1   0  -5-6.25567 19.4605   2
   1   0   5-14.6619 27.3377   7
   1   0   5 25.2908 18.9469   5
   1   0   5-19.9809 24.6511   1
  -1   0  -6 96.8513 33.4696   3
   1   0   6 127.934 30.4667   5
   1   0   6 55.7330 28.1995   1
  -1   0  -6 33.2121 26.3697   2
   1   0   6 98.6526 42.5950   7
   1   0   7 326.479 45.8680   5
  -1   0  -7 249.345 42.6238   2
   1   0   7 294.979 61.0455   7
  -1   0  -7 318.818 59.4327   3
   1   0   7 357.529 60.5578   1
  -1   0  -8-9.89241 27.6941   2
   1   0   8 4.17273 47.1879   7
  -1   0  -8 0.97601 42.5117   3
   1   0   8 35.6013 41.2717   1
   1   0   8 111.417 38.8091   5
   1   0   9 6.70132 41.4715   1
  -1   0  -9 80.0903 32.7787   2
  -1   0  -9 152.216 57.7000   3
   1   0  10 747.156 104.502   1
  -1   0 -10 466.260 78.8342   3
  -1   0 -10 524.199 76.1517   2
  -1   0 -11 520.557 86.9781   3
   1   0  11 641.309 100.157   1
  -1   0 -11 479.319 72.3599   2
  -1   0 -12 908.926 117.365   3
   1   0  12 1013.84 129.814   6
   1   0  12 884.931 121.365   1
   1   0  13 2747.52 218.848   6
   1   0  13 3043.54 231.393   1
  -1   0 -13 3263.71 234.583   3
   1   0  14 2229.14 207.173   1
   1   0  14 1986.09 196.871   6
  -1   0 -14 2383.76 216.288   3
   1   0  15 841.986 134.421   6
   1   0  15 920.178 132.062   1
   1   0  16 360.716 96.8309   1
   1   0  16 254.457 93.7571   6
  -1  -1  18-72.4388 59.8890   1
  -1  -1  18 303.508 107.618   6
  -1  -1  17 66.2194 52.2655   6
  -1  -1  17 537.074 116.515   1
  -1  -1  16 94.7669 59.6279   6
  -1  -1  16 130.046 66.9804   1
  -1  -1  15 153.063 74.1017   6
  -1  -1  15 326.103 84.7316   1
   1   1 -15 280.002 82.7273   3
  -1  -1  14-2.08419 47.0450   6
  -1  -1  14-26.6923 62.7662   1
   1   1 -14 13.3341 52.0397   3
  -1  -1  13 545.306 101.769   1
   1   1 -13 753.028 110.752   3
  -1  -1  13 524.986 96.8555   6
   1   1 -12-20.7936 54.3927   3
  -1  -1  12-33.6503 45.8140   1
  -1  -1  12 41.4351 49.6680   6
  -1  -1  11-1.01939 46.4437   6
  -1  -1  11 44.6710 36.5896   1
   1   1 -11 20.1261 34.5984   3
   1   1 -10 352.730 66.0900   3
  -1  -1  10 361.760 72.8624   6
  -1  -1  10 416.718 69.6559   1
   1   1 -10 337.233 41.0484   2
  -1  -1   9-4.99441 38.3583   6
  -1  -1   9 80.6223 39.4537   1
   1   1  -9-3.81701 38.8985   3
  -1  -1   9 19.1516 7.46820  10
   1   1  -9 29.7276 27.1848   2
   1   1  -8 9644.55 250.377   9
  -1  -1   8 8634.78 171.996  10
  -1  -1   8 9754.93 293.400   1
  -1  -1   8 9511.28 306.985   6
   1   1  -8 9526.52 232.601   2
   1   1  -8 9401.05 293.478   3
  -1  -1   7 12516.1 333.481   1
   1   1  -7 13012.7 303.911   9
   1   1  -7 12713.1 285.134   2
  -1  -1   7 12708.7 355.741   6
   1   1  -7 12685.1 338.829   3
   1   1  -6 27299.1 568.148   3
  -1  -1   6 27704.0 590.359   6
   1   1  -6 28411.9 542.245   9
  -1  -1   6 27565.1 561.867   1
   1   1  -5 17624.2 388.116   3
  -1  -1   5 17948.3 407.422   6
   1   1  -5 17765.4 378.617   9
  -1  -1   5 17982.9 382.235   1
   1   1  -5 18797.8 323.121   5
   1   1  -4 7807.83 162.349   5
   1   1  -4 7000.58 188.996   3
   1   1  -4 7739.37 197.913   9
   1   1  -4 7740.56 165.741   4
  -1  -1   4 7912.46 214.452   6
   1   1  -4 7796.62 150.856  10
  -1  -1   4 7536.45 186.622   1
   1   1  -3 298.183 30.4762   3
  -1  -1   3 316.535 27.7695   1
   1   1  -3 314.967 28.3017   5
  -1  -1   3 341.202 32.4475   3
   1   1  -3 210.304 37.1912   7
   1   1  -3 339.755 35.9362   9
  -1  -1   2 4065.25 94.9493   3
   1   1  -2 3752.35 108.356   5
  -1  -1   2 3641.05 84.9226   1
   1   1  -2 3664.29 115.486   9
  -1  -1   2 3711.83 105.774   5
   1   1  -2 3766.05 91.4949   3
  -1  -1   2 3634.60 106.858   2
  -1  -1   1 11143.2 239.481   2
  -1  -1   1 11386.9 247.275   9
   1   1  -1 11885.7 211.693   3
   1   1  -1 11641.2 247.392   9
   1   1  -1 11872.8 207.352   3
   1   1  -1 11021.1 242.569   5
   1   1   0 31649.9 547.736   1
   1   1   0 30967.9 568.499   9
  -1  -1   0 32013.7 582.256   5
   1   1   0 32430.0 544.111   3
  -1  -1   0 30592.2 572.805   2
  -1  -1   0 33108.5 544.666   3
  -1  -1   0 32554.1 532.860   7
   1   1   0 33034.3 535.495   7
  -1  -1  -1 78482.7 1339.40   7
  -1  -1  -1 79759.0 1356.77   2
  -1  -1  -1 79662.6 1350.57   8
   1   1   1 86360.7 1339.43   9
   1   1   1 86132.9 1338.64   7
  -1  -1  -1 82483.4 1341.76   3
   1   1   1 82056.5 1339.66   3
   1   1   1 84121.7 1348.54   1
   1   1   1 84276.3 1371.88   5
   1   1   2 24483.2 482.282   1
  -1  -1  -2 23634.8 480.313   7
   1   1   2 22234.0 486.373   5
   1   1   2 27581.7 483.172   7
  -1  -1  -2 24582.4 485.670   8
  -1  -1  -2 25148.7 477.384   2
  -1  -1  -2 24605.5 474.567   3
   1   1   2 25815.8 444.053   9
   1   1   3 9366.24 250.119   1
   1   1   3 9104.59 248.831   5
  -1  -1  -3 9419.60 237.947   2
  -1  -1  -3 9705.15 246.450   3
   1   1   3 10196.1 256.988   7
  -1  -1  -3 9913.61 258.305   8
   1   1   4 22779.5 475.329   5
   1   1   4 22943.7 493.853   7
   1   1   4 21769.2 484.145   1
  -1  -1  -4 21556.0 488.590   8
  -1  -1  -4 21686.7 474.405   3
   1   1   5 1920.29 110.126   5
   1   1   5 2077.91 120.236   1
   1   1   5 2101.12 125.682   7
  -1  -1  -5 2054.25 117.119   3
  -1  -1  -6 1856.40 106.217   2
   1   1   6 1754.98 119.150   1
  -1  -1  -6 1804.59 117.684   3
   1   1   7 3011.74 155.639   5
   1   1   7 2912.56 168.022   1
  -1  -1  -7 2958.34 163.680   3
  -1  -1  -8 4706.71 186.143   2
   1   1   8 4462.92 207.012   5
  -1  -1  -8 4650.16 221.402   3
   1   1   8 4486.50 225.577   1
  -1  -1  -9 319.249 66.4168   3
   1   1   9 433.689 83.4025   1
  -1  -1  -9 385.993 58.3842   2
   1   1  10 3200.67 208.268   1
  -1  -1 -10 2944.01 196.201   3
  -1  -1 -11 11.1103 46.4049   3
   1   1  11 177.316 73.1431   1
   1   1  12 159.743 70.1207   1
  -1  -1 -12 106.528 69.3604   3
   1   1  13 1.56174 54.7416   1
  -1  -1 -13 26.4259 50.0032   3
   1   1  14-24.6360 55.0692   1
   1   1  14 144.560 83.3623   6
   1   1  15 227.218 88.5073   1
   1   1  15 110.284 94.5383   6
   1   1  16 78.0027 76.7291   6
  -1  -2  18 1334.93 172.628   6
  -1  -2  18 1047.38 165.410   1
  -1  -2  17 1090.33 149.397   1
  -1  -2  17 725.981 133.310   6
  -1  -2  16 450.374 102.723   6
  -1  -2  16 566.828 102.980   1
   1   2 -16 517.167 105.027   3
   1   2 -15 42.7828 50.9484   3
  -1  -2  15 3.94096 50.6117   6
  -1  -2  15 72.2793 47.8255   1
  -1  -2  14 25.5206 46.8976   6
  -1  -2  14 105.373 49.8236   1
   1   2 -14 54.1367 49.6267   3
  -1  -2  13 2100.77 174.256   6
   1   2 -13 2005.17 168.191   3
  -1  -2  13 2284.72 178.168   1
   1   2 -12 718.216 95.8192   3
  -1  -2  12 812.997 105.908   1
  -1  -2  12 657.545 90.5095   6
  -1  -2  11 5107.78 239.368   1
   1   2 -11 4562.97 231.614   3
   1   2 -11 4824.71 182.786   2
  -1  -2  11 4569.02 234.077   6
   1   2 -10 1026.35 79.5740   2
   1   2 -10 1062.91 106.082   3
  -1  -2  10 1078.51 101.322   1
  -1  -2  10 854.531 99.6002   6
   1   2  -9 104.255 36.4982   2
   1   2  -9 17.5582 35.8654   3
  -1  -2   9 0.74257 39.6236   6
  -1  -2   9 48.8582 30.4802   1
   1   2  -8 2673.27 145.859   3
  -1  -2   8 2956.17 145.585   1
   1   2  -8 2869.59 127.333   2
  -1  -2   8 2809.55 152.594   6
  -1  -2   7 176.001 41.8287   6
  -1  -2   7 182.368 37.5447   1
   1   2  -7 260.023 47.6361   3
   1   2  -7 172.671 32.0997   4
   1   2  -7 205.674 42.0751   9
   1   2  -7 159.457 31.8431   2
   1   2  -6 616.536 54.7128   3
   1   2  -6 685.994 51.4434   4
  -1  -2   6 659.383 67.6468   6
   1   2  -6 658.768 63.6671   9
  -1  -2   6 627.553 55.2525   1
   1   2  -6 698.922 45.9892   5
  -1  -2   5 6.64143 18.4872   1
   1   2  -5-5.38779 22.4229   9
  -1  -2   5 27.1818 23.6503   6
   1   2  -5 12.9488 22.6543   3
   1   2  -5 27.6233 18.7517   5
  -1  -2   5 8.72431 14.1700   5
  -1  -2   4 7480.30 187.823   5
  -1  -2   4 8095.73 219.905   6
   1   2  -4 7754.17 220.818   9
   1   2  -4 7593.75 199.498   3
  -1  -2   4 7602.19 190.265   1
   1   2  -4 8121.24 199.572   5
   1   2  -3 10579.3 226.786   7
  -1  -2   3 10341.5 235.662   3
   1   2  -3 10199.0 234.874   3
  -1  -2   3 10790.1 259.640   6
   1   2  -3 10913.8 253.865   5
   1   2  -3 10832.2 268.454   9
  -1  -2   3 10450.8 225.891   1
  -1  -2   2 22345.2 412.132   3
  -1  -2   2 22495.5 454.998   9
  -1  -2   2 21754.5 440.761   6
   1   2  -2 23104.9 452.086   5
  -1  -2   2 21718.6 400.387   1
  -1  -2   2 21104.1 439.945   2
   1   2  -2 21431.9 410.764   3
   1   2  -2 22477.5 380.621   7
   1   2  -2 22423.2 454.739   9
   1   2  -1 14208.7 281.375   3
  -1  -2   1 14016.4 280.320   3
  -1  -2   1 13707.0 314.326   6
  -1  -2   1 14897.8 324.751   9
   1   2  -1 14971.2 326.785   9
   1   2  -1 14563.1 332.868   5
   1   2  -1 14458.7 288.601   3
  -1  -2   1 14533.6 313.995   2
   1   2   0 13353.7 278.376   1
  -1  -2   0 13070.6 273.724   3
  -1  -2   0 13350.9 281.428   1
  -1  -2   0 13550.2 298.336   2
  -1  -2   0 13322.2 300.422   9
   1   2   0 12960.2 322.890   5
   1   2   0 13620.9 303.447   9
  -1  -2  -1 8900.78 218.439   3
  -1  -2  -1 9086.85 229.239   2
  -1  -2  -1 8906.66 218.799   9
  -1  -2  -1 8904.03 203.010   7
   1   2   1 8779.97 254.687   5
   1   2   1 8976.63 223.594   1
  -1  -2  -1 9006.07 227.218   8
  -1  -2  -2 369.640 43.3187   2
   1   2   2 340.158 52.8065   5
  -1  -2  -2 328.305 43.2453   3
   1   2   2 326.057 40.9384   1
  -1  -2  -2 412.095 35.8336   9
  -1  -2  -2 363.478 44.7542   8
  -1  -2  -3 9835.59 261.968   3
  -1  -2  -3 9131.54 210.338   9
  -1  -2  -3 9509.00 274.086   8
  -1  -2  -3 9057.82 247.286   2
   1   2   3 9920.80 289.192   5
   1   2   3 9838.69 269.273   1
  -1  -2  -4 11890.1 296.230   2
  -1  -2  -4 11631.5 316.291   3
   1   2   4 11601.0 323.708   1
  -1  -2  -4 11858.4 332.668   8
   1   2   4 10947.4 336.220   5
  -1  -2  -5 29673.6 589.338   2
   1   2   5 28729.2 649.023   5
  -1  -2  -5 28145.8 644.569   8
  -1  -2  -5 28543.0 625.835   3
   1   2   5 27348.7 632.105   1
  -1  -2  -6 14737.6 376.192   2
   1   2   6 16107.2 448.565   5
  -1  -2  -6 16368.0 432.784   3
  -1  -2  -6 15695.5 447.584   8
   1   2   6 15982.4 440.302   1
  -1  -2  -7 20237.7 525.690   3
  -1  -2  -7 20758.0 467.142   2
   1   2   7 19195.0 528.508   5
   1   2   7 19277.9 533.195   1
   1   2   8 6028.11 274.718   1
  -1  -2  -8 6349.74 225.573   2
  -1  -2  -8 6226.34 271.957   3
   1   2   9 1421.25 135.988   1
  -1  -2  -9 1512.21 134.191   3
   1   2  10 447.528 88.7570  10
  -1  -2 -10 599.989 100.170   3
   1   2  10 486.776 92.1904   1
  -1  -2 -11 197.132 71.8312   3
   1   2  11 225.716 76.3159   1
   1   2  12 1592.76 170.255   1
  -1  -2 -12 1630.58 167.631   3
   1   2  13 1174.70 153.960   1
  -1  -2 -13 1150.55 153.239   3
   1   2  14 1743.72 199.232   1
   1   2  14 1735.00 206.863   6
   1   2  15 543.830 125.167   1
   1   2  15 596.734 133.029   6
  -1  -3  18-46.6991 63.1600   1
  -1  -3  18-13.2921 45.8480   6
  -1  -3  17 28.6103 45.3520   6
  -1  -3  17 6.38654 52.7154   1
  -1  -3  16 872.993 128.588   6
   1   3 -16 829.061 132.005   3
  -1  -3  16 903.039 127.626   1
  -1  -3  15 2960.98 221.437   1
  -1  -3  15 2952.45 219.886   6
   1   3 -15 3093.53 228.818   3
  -1  -3  14 5569.15 296.608   6
  -1  -3  14 6212.60 311.860   1
   1   3 -14 6247.08 316.277   3
  -1  -3  13 4399.09 245.438   1
   1   3 -13 4588.09 254.839   3
  -1  -3  13 4121.63 241.196   6
  -1  -3  12 4292.82 231.097   6
   1   3 -12 4265.47 189.563   2
   1   3 -12 4224.62 231.899   3
  -1  -3  12 4495.10 234.428   1
  -1  -3  11 1040.03 108.001   6
  -1  -3  11 1005.08 104.184   1
   1   3 -11 1041.17 106.708   3
   1   3 -11 1155.02 95.8296   2
  -1  -3  10 583.531 82.7641   6
   1   3 -10 432.090 65.6665   2
  -1  -3  10 424.097 68.2573   1
   1   3 -10 443.404 72.7166   3
   1   3  -9 2172.39 139.912   3
  -1  -3   9 2053.75 133.649   1
  -1  -3   9 2026.31 137.632   6
   1   3  -9 2039.75 126.513   2
   1   3  -8 3003.98 136.429   4
  -1  -3   8 3035.15 157.773   6
  -1  -3   8 2949.31 148.318   1
   1   3  -8 2978.71 155.331   3
  -1  -3   7 26756.8 583.009   6
  -1  -3   7 26408.8 490.937   5
   1   3  -7 26292.6 571.995   3
  -1  -3   7 26470.0 560.310   1
   1   3  -7 25147.7 527.037   4
  -1  -3   6 8805.00 261.095   6
  -1  -3   6 8769.53 242.495   1
   1   3  -6 8147.58 194.140  10
   1   3  -6 8536.63 249.396   3
   1   3  -6 8505.85 242.520   5
  -1  -3   5 8915.24 246.510   7
  -1  -3   5 8514.61 230.173   1
  -1  -3   5 8620.45 249.280   6
   1   3  -5 8888.29 250.733   5
   1   3  -5 8320.54 236.913   3
  -1  -3   4 27938.1 543.470   7
  -1  -3   4 27155.5 571.939   6
   1   3  -4 29173.9 590.349   5
   1   3  -4 27927.7 552.710   3
  -1  -3   4 28594.7 540.451   1
  -1  -3   3 2261.71 91.2864   1
  -1  -3   3 2277.20 107.974   6
   1   3  -3 2116.88 97.5064   3
   1   3  -3 2365.85 75.9084   7
   1   3  -3 2202.66 120.164   5
  -1  -3   2 814.974 53.6435   1
  -1  -3   2 750.382 60.8670   6
   1   3  -2 842.090 77.0649   5
  -1  -3   2 828.859 66.7219   2
   1   3  -2 654.668 55.3136   3
   1   3  -1 88.3661 28.2997   3
  -1  -3   1 117.231 32.1659   6
   1   3  -1 114.581 45.2478   5
  -1  -3   1 87.0312 23.6587   1
  -1  -3   1 58.6273 33.0677   2
  -1  -3   1 65.8717 18.0899   3
  -1  -3   0 76.1879 29.4790   1
  -1  -3   0 85.9738 26.0129   3
   1   3   0 56.4637 39.4614   5
  -1  -3   0 65.3771 13.0327   7
   1   3   0 72.1773 26.9080   1
  -1  -3   0 126.817 35.9451   2
  -1  -3  -1 327.158 44.2324   1
  -1  -3  -1 253.816 33.9372   7
   1   3   1 315.286 41.9006   1
  -1  -3  -1 204.312 35.0258   2
   1   3   1 318.907 63.0316   5
  -1  -3  -1 250.622 36.4525   3
   1   3   2 2185.59 141.762   5
  -1  -3  -2 2003.32 103.970   2
  -1  -3  -2 2048.95 113.632   8
  -1  -3  -2 2030.44 105.138   3
   1   3   2 1991.12 109.087   1
   1   3   3 484.992 61.0039   1
  -1  -3  -3 463.902 62.0693   8
  -1  -3  -3 544.267 48.5552   9
  -1  -3  -3 397.308 52.8015   2
   1   3   3 532.417 77.0941   5
  -1  -3  -3 491.999 56.2743   3
  -1  -3  -4 2447.71 145.627   8
   1   3   4 2275.06 136.972   1
  -1  -3  -4 2278.43 97.0943   9
   1   3   4 2492.41 163.427   5
  -1  -3  -4 2397.60 136.910   3
  -1  -3  -4 2604.08 126.693   2
   1   3   5 2024.85 139.133   1
   1   3   5 2077.88 159.063   5
  -1  -3  -5 1935.38 111.493   2
  -1  -3  -5 1893.86 136.009   8
  -1  -3  -5 1913.52 131.083   3
   1   3   6 575.641 77.6501   1
   1   3   6 772.560 110.311   5
  -1  -3  -6 727.495 92.9735   8
  -1  -3  -6 799.776 75.4206   2
  -1  -3  -6 733.117 85.1306   3
  -1  -3  -7 16.7123 25.5881   2
  -1  -3  -7 125.990 51.6147   3
   1   3   7 66.2966 48.2770   1
  -1  -3  -7 159.647 57.9456   8
  -1  -3  -8 2124.52 172.971   8
  -1  -3  -8 2072.28 160.398   3
   1   3   8 2031.72 163.163   1
  -1  -3  -8 2113.20 126.244   2
  -1  -3  -9 4344.30 192.030   2
   1   3   9 4559.11 259.923   1
  -1  -3  -9 4706.94 256.925   3
  -1  -3 -10 4902.33 278.017   3
   1   3  10 4083.90 276.090  10
   1   3  10 4384.74 269.867   1
   1   3  11 4726.84 287.192   1
  -1  -3 -11 4144.95 265.736   3
   1   3  12 4295.59 288.149   1
  -1  -3 -12 3880.36 268.848   3
   1   3  13 944.841 143.076   1
   1   3  14 204.912 83.7629   1
  -1  -4  18-20.1539 62.1453   1
  -1  -4  17 226.248 82.0357   6
  -1  -4  17 286.681 92.7237   1
   1   4 -16 36.2551 48.6026   3
  -1  -4  16 63.4956 57.3301   6
  -1  -4  16-2.27699 56.3479   1
   1   4 -15 6.36833 43.9031   3
  -1  -4  15 119.301 59.0985   6
  -1  -4  15 104.983 58.4098   1
  -1  -4  14 1042.58 122.605   1
   1   4 -14 1115.90 132.263   3
  -1  -4  14 1085.20 125.547   6
  -1  -4  13 14.3561 46.3647   1
  -1  -4  13 25.0891 41.7291   6
   1   4 -13-23.3640 55.2578   3
  -1  -4  12 112.981 55.6162   6
   1   4 -12 178.996 53.3240   2
  -1  -4  12 79.8752 44.0470   1
   1   4 -12 80.5668 43.9915   3
  -1  -4  11 2676.45 168.864   6
  -1  -4  11 2550.89 165.565   1
   1   4 -11 2500.21 168.444   3
   1   4 -11 2435.53 153.416   2
   1   4 -10 6876.41 268.373   2
  -1  -4  10 6975.51 274.883   6
  -1  -4  10 6999.06 269.984   1
   1   4 -10 6789.46 274.797   3
  -1  -4   9 8553.11 297.915   6
  -1  -4   9 8036.20 281.820   1
   1   4  -9 8586.51 270.469   4
   1   4  -9 8228.06 291.405   3
   1   4  -8 12474.8 319.627   4
  -1  -4   8 12591.7 346.489   1
  -1  -4   8 12551.5 354.990   6
   1   4  -8 11226.5 219.626  10
   1   4  -8 12442.5 354.216   3
  -1  -4   7 5276.90 207.591   6
  -1  -4   7 5087.32 216.698   7
  -1  -4   7 5080.60 197.494   1
   1   4  -7 5324.17 205.370   3
   1   4  -7 5761.68 157.766  10
   1   4  -6 6600.45 223.676   3
  -1  -4   6 6777.02 218.677   1
  -1  -4   6 6992.83 233.212   6
  -1  -4   6 6616.21 226.879   7
   1   4  -6 6769.65 245.705   5
   1   4  -6 6985.65 205.252  10
   1   4  -5 429.777 54.1452   3
  -1  -4   5 463.418 49.8221   1
   1   4  -5 517.835 75.0581   5
  -1  -4   5 369.042 48.9731   7
  -1  -4   5 429.113 55.0582   6
  -1  -4   4 2249.89 92.9536   7
  -1  -4   4 2215.35 105.539   1
  -1  -4   4 2175.60 116.274   6
   1   4  -4 2105.14 110.826   3
   1   4  -4 2342.02 142.391   5
   1   4  -4 2180.71 84.9146   7
  -1  -4   3 29320.8 590.758   6
  -1  -4   3 27596.3 493.560   7
   1   4  -3 29726.7 653.895   5
   1   4  -3 27499.8 481.668   7
  -1  -4   3 28461.3 558.153   1
   1   4  -3 28197.3 572.548   3
  -1  -4   2 9978.48 259.619   1
   1   4  -2 9593.81 327.332   5
   1   4  -2 9718.96 265.358   3
  -1  -4   2 9728.56 279.837   6
  -1  -4   2 10140.9 290.179   2
  -1  -4   1 22046.9 496.096   2
  -1  -4   1 22265.6 460.034   3
  -1  -4   1 21055.6 467.494   1
   1   4  -1 21780.4 564.063   5
   1   4  -1 21935.1 474.116   3
   1   4   0 26233.7 661.115   5
   1   4   0 27246.8 572.502   1
  -1  -4   0 25807.9 571.982   1
  -1  -4   0 28027.4 565.586   3
  -1  -4   0 28191.3 476.791   7
   1   4   1 5291.09 194.826   1
  -1  -4  -1 5416.67 196.554   2
  -1  -4  -1 5339.87 187.116   3
   1   4   1 5585.21 250.385   5
  -1  -4  -1 5118.13 196.576   1
  -1  -4  -1 4628.27 148.567   7
  -1  -4  -2 79.6100 29.1214   3
  -1  -4  -2 58.6762 35.1889   2
   1   4   2 69.1658 54.5483   5
   1   4   2 83.5666 34.2427   1
  -1  -4  -2 69.8226 34.1912   8
   1   4   3 1054.09 95.0437   1
  -1  -4  -3 1012.01 92.5776   2
   1   4   3 1073.72 117.566   5
  -1  -4  -3 989.743 90.7979   3
  -1  -4  -3 1307.87 109.014   8
  -1  -4  -4 378.130 62.9915   8
  -1  -4  -4 440.034 56.7062   2
   1   4   4 431.682 88.0474   5
  -1  -4  -4 520.306 69.7890   3
   1   4   4 365.517 69.0445   1
  -1  -4  -5 461.043 73.9053   3
  -1  -4  -5 359.220 70.9972   8
  -1  -4  -5 423.697 61.7859   2
   1   4   5 391.505 94.2728   5
   1   4   5 267.906 62.7826   1
  -1  -4  -6 677.765 92.8970   8
  -1  -4  -6 680.696 87.5676   3
  -1  -4  -6 810.357 80.9910   2
   1   4   6 881.648 124.850   5
   1   4   6 836.800 101.107   1
  -1  -4  -7 684.164 105.427   8
   1   4   7 655.483 95.1877   1
  -1  -4  -7 889.829 89.4941   2
  -1  -4  -7 668.715 89.7859   3
   1   4   8 43.2506 43.3371   1
  -1  -4  -8 105.820 42.6093   2
  -1  -4  -8 15.9033 42.7140   3
  -1  -4  -8 81.0778 47.0419   8
   1   4   9 48.1361 66.5918  10
   1   4   9 126.727 64.7869   1
  -1  -4  -9 32.5694 37.5864   3
  -1  -4 -10 18.9060 55.6665   3
   1   4  10 58.9631 65.1077   1
   1   4  10-120.374 90.5505  10
   1   4  11 77.5079 65.0179   1
  -1  -4 -11-38.3567 52.5996   3
   1   4  12-63.6982 64.0196   1
   1   4  13 335.807 97.0703   1
  -1  -5  18-14.5070 62.7297   1
  -1  -5  17-19.8972 60.4311   1
  -1  -5  16 81.9304 46.5270   6
   1   5 -16 85.2775 67.5065   3
  -1  -5  16 73.5975 56.9568   1
   1   5 -15 434.544 99.3375   3
  -1  -5  15 481.495 88.6272   6
  -1  -5  15 379.670 85.9476   1
  -1  -5  14 301.124 69.9879   1
  -1  -5  14 293.739 77.8621   6
   1   5 -14 341.343 85.5460   3
   1   5 -13 57.5000 41.1940   2
  -1  -5  13 50.4534 46.0374   6
  -1  -5  13 126.609 55.5046   1
   1   5 -13-18.3867 49.0607   3
  -1  -5  12 26.1374 41.5198   1
  -1  -5  12-74.6910 45.3883   6
   1   5 -12 88.8622 50.5482   2
   1   5 -12 42.7248 49.9959   3
   1   5 -11 31.5196 40.5381   2
   1   5 -11 33.0785 44.4431   3
  -1  -5  11 60.2584 42.7085   6
  -1  -5  11 35.4566 35.4786   1
   1   5 -10 1057.05 109.403   3
  -1  -5  10 1117.97 103.890   6
  -1  -5  10 970.534 104.095   1
   1   5 -10 1043.50 130.635   2
   1   5  -9 253.574 57.5786   3
  -1  -5   9 215.712 53.0242   6
   1   5  -9 304.176 26.5658  10
   1   5  -9 260.495 46.0894   4
  -1  -5   9 240.511 52.3950   1
   1   5  -8 107.385 25.9362  10
   1   5  -8 67.8592 36.7031   3
  -1  -5   8-20.4217 31.9629   6
  -1  -5   8-2.08025 46.7718   7
  -1  -5   8 19.7045 34.4028   1
  -1  -5   7 2095.57 122.917   1
  -1  -5   7 1833.04 120.010   6
   1   5  -7 1836.31 104.245  10
   1   5  -7 1824.44 123.356   3
  -1  -5   7 1525.27 117.179   7
  -1  -5   6 2341.78 138.115   6
   1   5  -6 2810.01 142.580  10
  -1  -5   6 2851.02 137.629   1
   1   5  -6 2513.86 141.021   3
  -1  -5   6 2644.06 132.632   7
   1   5  -5 2664.27 169.722   5
  -1  -5   5 2337.38 110.916   7
  -1  -5   5 2673.73 128.679   1
  -1  -5   5 2524.86 137.545   6
   1   5  -5 2588.88 137.802   3
  -1  -5   4 16088.3 405.502   6
   1   5  -4 15861.9 309.733   7
   1   5  -4 16857.9 484.049   5
   1   5  -4 16532.9 403.491   3
  -1  -5   4 16301.9 384.871   1
  -1  -5   4 14407.0 319.420   7
   1   5  -3 10771.2 370.269   5
  -1  -5   3 10853.2 285.077   1
   1   5  -3 10910.7 296.636   3
  -1  -5   3 10590.6 302.611   6
   1   5  -2 19658.4 464.954   3
   1   5  -2 19912.8 559.980   5
  -1  -5   2 19913.8 459.308   1
  -1  -5   1 2901.27 153.764   2
  -1  -5   1 2854.10 139.364   1
  -1  -5   1 2706.54 131.484   3
   1   5  -1 2773.52 189.611   5
   1   5  -1 2855.13 142.720   3
  -1  -5   0 223.152 20.9778   7
  -1  -5   0 162.912 24.5549   7
  -1  -5   0 185.060 41.4612   3
  -1  -5   0 124.953 55.4988   2
  -1  -5   0 228.607 45.8088   1
   1   5   0 248.749 49.5257   1
   1   5   0 183.987 69.5271   5
   1   5   0 253.685 51.9373   3
  -1  -5  -1 5016.93 209.918   1
  -1  -5  -1 4034.91 142.986   7
  -1  -5  -1 5057.45 197.229   3
   1   5   1 4656.54 259.486   5
   1   5   1 4843.39 200.394   1
  -1  -5  -2 5594.55 234.474   8
  -1  -5  -2 5820.76 225.597   3
   1   5   2 5494.12 292.742   5
   1   5   2 5654.16 231.635   1
  -1  -5  -2 5558.92 222.912   2
   1   5   3 14498.9 423.420   1
  -1  -5  -3 14519.3 409.398   3
   1   5   3 13992.0 501.420   5
  -1  -5  -3 13430.8 401.965   2
  -1  -5  -3 14305.7 429.492   8
  -1  -5  -4 12151.7 360.802   2
   1   5   4 12157.8 394.858   1
   1   5   4 11732.6 467.345   5
  -1  -5  -4 12090.6 406.279   8
  -1  -5  -4 12469.8 388.472   3
   1   5   5 9544.15 356.616   1
  -1  -5  -5 9607.25 346.661   3
  -1  -5  -5 9318.27 364.266   8
  -1  -5  -6 2888.86 201.795   8
   1   5   6 2995.95 200.830   1
  -1  -5  -6 2716.56 185.122   3
   1   5   7 2174.03 178.664   1
  -1  -5  -7 2235.58 189.838   8
   1   5   7 1456.58 177.685  10
  -1  -5  -7 2025.58 165.794   3
   1   5   8 0.33117 52.8958   1
   1   5   8-9.05316 60.0023  10
  -1  -5  -8 93.7471 66.2645   3
  -1  -5  -8 14.7134 51.6336   8
   1   5   9 150.746 62.0530   1
  -1  -5  -9 77.9400 46.8512   3
   1   5   9 117.654 72.9976  10
  -1  -5  -9 210.527 81.5716   8
  -1  -5 -10 892.971 131.576   3
   1   5  10 668.018 120.522   1
   1   5  11 1113.22 156.137   1
   1   5  12 48.1138 55.2906   1
  -1  -6  17 906.758 142.240   1
  -1  -6  16 1728.10 181.637   1
   1   6 -16 1323.11 162.683   3
  -1  -6  15 883.318 119.921   6
  -1  -6  15 1193.43 144.178   1
   1   6 -15 880.651 122.620   3
   1   6 -14 2037.62 164.834   2
  -1  -6  14 1857.97 169.393   1
  -1  -6  14 1947.02 164.466   6
   1   6 -14 1898.75 176.926   3
  -1  -6  13 2391.32 176.059   6
   1   6 -13 2337.35 185.436   2
   1   6 -13 2381.93 189.997   3
  -1  -6  13 2375.77 180.403   1
   1   6 -12 363.973 80.2835   2
  -1  -6  12 407.280 73.5955   1
  -1  -6  12 418.765 72.5535   6
   1   6 -12 336.882 70.7712   3
   1   6 -11 0.54277 55.2935   2
  -1  -6  11 116.735 42.5896   6
  -1  -6  11 209.742 60.0399   1
   1   6 -11 139.105 52.1737   3
  -1  -6  10 1036.02 105.537   1
   1   6 -10 957.032 105.262   3
  -1  -6  10 998.366 101.628   6
  -1  -6   9 2725.22 163.163   1
   1   6  -9 2824.58 120.290  10
  -1  -6   9 2613.75 171.324   7
   1   6  -9 2905.03 174.724   3
  -1  -6   9 2712.82 163.183   6
  -1  -6   8 3926.26 197.308   7
  -1  -6   8 4282.94 203.032   6
  -1  -6   8 4326.69 200.371   1
   1   6  -8 4549.80 178.463  10
   1   6  -8 4111.07 204.251   3
  -1  -6   7 23.8650 31.3063   6
   1   6  -7 25.2802 31.5211   3
  -1  -6   7 23.5078 31.6922   1
  -1  -6   7 41.7618 39.1373   7
   1   6  -7 7.53497 32.5010  10
  -1  -6   6 307.617 55.9433   1
   1   6  -6 346.760 62.5527  10
   1   6  -6 297.880 56.1095   3
  -1  -6   6 206.474 48.8542   6
  -1  -6   6 269.493 44.7364   7
   1   6  -5 2926.10 178.597  10
   1   6  -5 2788.42 156.142   3
  -1  -6   5 2821.48 157.357   6
  -1  -6   5 2825.25 145.839   1
  -1  -6   5 2661.15 113.018   7
  -1  -6   4-1.48859 13.6225   7
   1   6  -4-95.2871 70.2159   5
   1   6  -4 8.76387 11.6125   7
  -1  -6   4-5.07503 33.5052   6
  -1  -6   4-23.3563 30.9333   1
   1   6  -4-34.8400 34.2344   3
   1   6  -3 434.740 96.5961   5
  -1  -6   3 517.003 70.4019   1
   1   6  -3 465.397 68.3397   3
  -1  -6   3 605.238 81.9347   6
   1   6  -2 510.184 67.7147   3
   1   6  -2 598.532 109.162   5
  -1  -6   2 506.504 71.6148   1
   1   6  -1 1509.27 116.479   3
  -1  -6   1 1529.94 114.562   1
   1   6  -1 1423.02 152.809   5
  -1  -6   1 1558.32 108.211   3
   1   6   0 4277.02 273.148   5
  -1  -6   0 4478.59 206.391   1
   1   6   0 4271.07 203.093   3
  -1  -6   0 4124.20 112.285   7
   1   6   0 4604.82 204.576   1
  -1  -6   0 4502.54 194.234   3
  -1  -6  -1 3790.28 122.549   7
  -1  -6  -1 3076.56 190.275   2
  -1  -6  -1 3651.08 195.124   1
  -1  -6  -1 3897.67 186.671   3
   1   6   1 3891.39 257.404   5
   1   6   1 3684.34 191.793   1
   1   6   2 9638.57 431.365   5
  -1  -6  -2 9803.83 330.905   3
   1   6   2 9743.31 344.518   1
   1   6   3 1354.26 127.109   1
  -1  -6  -3 1298.21 124.018   8
  -1  -6  -3 1262.42 115.395   3
  -1  -6  -3 1341.88 113.013   2
  -1  -6  -4 292.350 61.7221   3
  -1  -6  -4 278.859 60.5293   2
   1   6   4 254.203 64.3227   1
  -1  -6  -4 264.754 58.7132   8
  -1  -6  -5 67.9064 53.6951   2
  -1  -6  -5 160.438 51.6419   3
   1   6   5 85.3917 93.8815  10
   1   6   5 167.190 54.3223   1
  -1  -6  -5 269.061 73.7146   8
  -1  -6  -6 2115.10 182.955   8
  -1  -6  -6 1732.38 156.487   3
   1   6   6 1738.26 158.281   1
   1   6   6 1942.57 212.417  10
   1   6   7 3974.15 256.813   1
  -1  -6  -7 3854.59 260.216   8
  -1  -6  -7 4351.72 250.678   3
   1   6   7 3438.78 283.435  10
  -1  -6  -8 4055.17 276.196   8
  -1  -6  -8 4174.48 261.145   3
   1   6   8 4277.93 275.942   1
   1   6   8 3456.48 290.816  10
   1   6   9 5144.83 316.515   1
   1   6   9 4549.38 341.692  10
  -1  -6  -9 4619.66 311.367   8
  -1  -6  -9 5078.04 306.323   3
   1   6  10 1967.80 244.049  10
   1   6  10 1729.54 188.989   1
   1   6  11 1907.75 208.273   1
   1   7 -16 300.096 100.828   3
   1   7 -15 82.3382 55.6425   3
  -1  -7  15 95.3289 52.9842   1
  -1  -7  14 1705.82 164.665   1
   1   7 -14 1825.63 172.207   3
   1   7 -14 1792.69 172.006   2
  -1  -7  13 1293.24 139.381   1
  -1  -7  13 1325.34 134.375   6
   1   7 -13 1250.84 140.138   2
   1   7 -13 1527.94 153.838   3
   1   7 -12 2296.71 193.072   2
  -1  -7  12 2403.52 178.241   1
   1   7 -12 2249.48 178.507   3
   1   7 -11 2091.87 167.310   3
  -1  -7  11 2216.46 163.084   1
  -1  -7  10 9689.75 343.205   6
  -1  -7  10 9864.96 352.889   1
   1   7 -10 9503.79 361.154   3
  -1  -7   9 4094.97 209.414   7
  -1  -7   9 4402.11 214.068   6
  -1  -7   9 4475.30 216.525   1
   1   7  -9 4131.55 220.577   3
   1   7  -8 10.6098 32.4517  10
  -1  -7   8 5.47836 37.7613   7
  -1  -7   8-41.4225 40.2903   1
   1   7  -8-37.9401 40.1464   3
  -1  -7   8 38.9480 32.8149   6
  -1  -7   7 16.8356 33.5648   7
   1   7  -7-26.3781 38.9903  10
   1   7  -7 32.4836 36.0044   3
  -1  -7   7 55.2614 43.3352   6
  -1  -7   7 69.3092 38.6022   1
  -1  -7   6 207.441 53.1466   6
   1   7  -6 192.890 54.6429   3
  -1  -7   6 167.227 44.7767   1
   1   7  -6 362.081 73.6465  10
  -1  -7   5 5277.44 222.085   1
   1   7  -5 5684.99 267.342  10
  -1  -7   5 5545.83 234.602   6
   1   7  -5 4901.08 228.260   3
   1   7  -4 9584.25 368.097  10
  -1  -7   4 9003.26 316.297   6
   1   7  -4 8285.56 304.747   3
  -1  -7   4 8817.98 298.939   1
   1   7  -3 3855.98 194.563   3
   1   7  -3 3617.05 236.886  10
  -1  -7   3 3982.27 193.256   1
   1   7  -2 3641.45 192.939   3
  -1  -7   2 3794.67 191.229   1
  -1  -7   1 2336.76 146.030   3
   1   7  -1 2069.42 150.354   1
   1   7  -1 2395.04 156.722   3
  -1  -7   0 615.051 88.7386   1
   1   7   0 678.003 89.2334   3
   1   7   0 552.955 83.7610   1
  -1  -7   0 570.609 80.1043   3
  -1  -7  -1 65.1746 41.2873   3
   1   7   1-8.30495 36.0415   3
  -1  -7  -1 5.19233 38.3869   2
  -1  -7  -1 22.0331 43.4771   1
   1   7   1 37.2719 37.0684   1
  -1  -7  -2 102.454 50.9968   2
  -1  -7  -2 148.514 55.7732   3
   1   7   2 45.9230 39.5778   1
  -1  -7  -2 101.362 49.8762   8
  -1  -7  -3-28.0355 42.8868   8
   1   7   3 57.4098 46.0766   1
  -1  -7  -3 93.9310 53.9712   2
  -1  -7  -3 67.1650 37.4756   3
  -1  -7  -4 692.182 104.210   8
   1   7   4 446.252 87.0998   1
  -1  -7  -4 616.559 96.3721   2
   1   7   4 447.589 95.5794  10
  -1  -7  -4 545.161 88.9110   3
   1   7   5 286.480 97.7007  10
  -1  -7  -5 313.651 72.6070   3
   1   7   5 373.880 87.3447   1
  -1  -7  -5 149.062 53.9065   2
  -1  -7  -5 387.570 85.7724   8
  -1  -7  -6 563.314 94.5497   2
   1   7   6 278.979 90.3187  10
  -1  -7  -6 630.764 110.419   8
   1   7   6 542.905 95.7436   1
  -1  -7  -6 764.188 115.975   3
   1   7   7 120.389 86.6108  10
  -1  -7  -7 211.184 77.9910   8
  -1  -7  -7 251.030 76.7192   3
   1   7   7 245.950 79.8343   1
   1   7   8 67.4030 96.9982  10
  -1  -7  -8 28.8504 56.0680   8
   1   7   8 76.1676 51.2102   1
  -1  -7  -9-69.0293 69.9327   8
   1   7   9 19.6842 106.797  10
   1   7   9 62.6148 51.0567   1
   1   7  10 83.6476 65.4779   1
   1   8 -15 160.615 89.7962   2
   1   8 -15 67.8201 71.0231   3
   1   8 -14 45.4003 54.8833   2
   1   8 -14 101.392 55.6745   3
  -1  -8  13 2136.26 176.765   1
   1   8 -13 1950.40 175.098   3
   1   8 -13 2113.46 196.130   2
  -1  -8  12-11.3197 38.8829   1
  -1  -8  12 21.7375 33.5404   6
   1   8 -12 6.17217 78.6329   2
   1   8 -11 78.0327 50.9352   3
  -1  -8  11 107.438 53.7335   1
  -1  -8  11 87.4707 41.6155   6
   1   8 -10 48.3206 52.0617   3
  -1  -8  10-4.22701 35.8529   6
  -1  -8  10-4.89229 35.1272   1
  -1  -8   9 137.837 49.8883   6
   1   8  -9 142.488 49.0401   3
  -1  -8   9 169.288 49.6368   1
   1   8  -8 2095.57 158.118   3
  -1  -8   8 2342.65 158.566   6
   1   8  -8 2662.49 167.902  10
  -1  -8   8 2266.77 155.045   1
  -1  -8   7 4099.30 208.334   1
   1   8  -7 4295.68 226.942   3
   1   8  -7 4740.59 240.317  10
  -1  -8   7 4404.17 218.775   6
  -1  -8   6 12394.9 401.638   6
  -1  -8   6 12459.1 392.392   1
   1   8  -6 13235.6 448.294  10
   1   8  -6 11612.1 398.204   3
  -1  -8   5 5342.05 238.767   1
   1   8  -5 5968.67 297.441  10
   1   8  -5 5273.02 252.097   3
   1   8  -4 74.9349 49.7781   3
  -1  -8   4 22.8903 35.0119   1
   1   8  -4-30.8760 65.3073  10
   1   8  -3 1708.56 167.570  10
   1   8  -3 1642.54 139.009   3
  -1  -8   3 1356.05 124.717   1
   1   8  -2 82.1268 48.2249   3
  -1  -8   2 12.1274 47.5918   1
   1   8  -2 102.289 62.2293  10
   1   8  -1 3523.81 208.304   3
   1   8  -1 3181.85 248.854  10
  -1  -8   1 3550.57 207.032   1
   1   8  -1 3341.46 196.561   1
   1   8   0 2442.80 174.007   1
   1   8   0 2362.43 221.759  10
  -1  -8   0 2610.91 170.281   3
  -1  -8   0 2591.28 182.261   1
   1   8   0 2484.69 177.010   3
   1   8   1 2626.27 188.444   3
   1   8   1 2320.08 217.802  10
   1   8   1 2407.36 177.721   1
  -1  -8  -1 2569.02 190.430   1
  -1  -8  -1 2838.35 179.329   3
   1   8   2 6913.91 325.276   3
   1   8   2 6622.72 310.478   1
  -1  -8  -2 6865.69 301.942   3
  -1  -8  -2 7106.94 328.822   8
   1   8   2 6428.66 381.901  10
  -1  -8  -3 5980.52 313.147   8
  -1  -8  -3 5908.33 287.185   3
   1   8   3 5794.56 299.963   1
   1   8   3 5943.63 370.667  10
   1   8   4 225.245 54.6362   1
  -1  -8  -4 352.652 82.1835   3
   1   8   4 350.746 119.825  10
  -1  -8  -4 339.941 85.5974   8
  -1  -8  -5 153.995 60.6652   8
   1   8   5 204.860 75.4414   1
   1   8   5 228.648 120.313  10
  -1  -8  -5 197.430 63.4038   3
   1   8   6 10.5302 50.7573   1
  -1  -8  -6 126.837 86.5330   8
  -1  -8  -6 4.00755 49.6947   3
   1   8   6-39.2845 67.6229  10
  -1  -8  -7 81.3811 63.0508   8
   1   8   7 6.66605 101.617  10
   1   8   7 112.850 74.7504   1
  -1  -8  -7-38.6365 46.4665   3
   1   8   8 3.20115 60.1633   1
  -1  -8  -8 8.73984 57.2938   8
   1   8   9 100.701 85.5184   1
  -1  -8  -9 55.8388 78.6004   8
   1   9 -15 66.0805 56.5422   3
   1   9 -15 114.595 86.0654   2
   1   9 -14 178.717 73.3128   3
   1   9 -14 13.1257 63.2087   2
   1   9 -13-94.4897 86.9022   2
   1   9 -13 211.737 75.5969   3
   1   9 -12 90.9267 49.6446   3
   1   9 -11 359.760 77.5809   3
  -1  -9  11 304.115 70.3883   1
  -1  -9  10-10.8391 35.2183   6
  -1  -9  10-26.0720 37.4254   1
   1   9 -10 65.1993 47.9804   3
  -1  -9   9 326.102 71.2684   6
  -1  -9   9 286.163 65.3054   1
   1   9  -9 309.770 74.9573   3
  -1  -9   8 156.765 53.3469   6
   1   9  -8 72.4307 56.0820   3
  -1  -9   8 94.8123 47.0990   1
   1   9  -8 154.784 57.9892  10
  -1  -9   7 53.4143 47.9447   1
  -1  -9   7-18.8460 32.7429   6
   1   9  -7-16.5052 47.7304   3
   1   9  -7-53.5471 55.3354  10
   1   9  -6 60.3763 53.7300  10
  -1  -9   6 44.7878 37.7634   1
   1   9  -6 72.7191 44.4223   3
   1   9  -5 426.797 93.8016  10
  -1  -9   5 268.070 63.9765   1
   1   9  -5 220.426 61.3611   3
   1   9  -4 98.8624 65.7436  10
  -1  -9   4 9.87567 39.8145   1
   1   9  -4-4.25383 37.8524   3
   1   9  -3 5019.64 307.632  10
  -1  -9   3 4283.41 236.517   1
   1   9  -3 4052.19 233.110   3
   1   9  -2 9848.19 382.928   1
  -1  -9   2 11029.7 398.160   1
   1   9  -2 11586.4 492.435  10
   1   9  -2 10315.2 395.545   3
   1   9  -1 684.006 122.574  10
  -1  -9   1 785.841 102.346   1
   1   9  -1 701.003 101.704   1
   1   9  -1 718.035 102.586   3
   1   9   0 1326.97 140.597   1
   1   9   0 1535.98 152.392   3
  -1  -9   0 1604.16 143.149   3
  -1  -9   0 1457.67 147.924   1
   1   9   0 1378.24 177.912  10
   1   9   1 2448.71 190.949   1
  -1  -9  -1 2738.79 205.189   1
   1   9   1 2731.51 204.343   3
   1   9   1 2663.73 252.984  10
  -1  -9  -1 2321.08 177.272   3
  -1  -9  -2 379.489 80.4414   3
   1   9   2 310.976 112.857  10
   1   9   2 446.357 93.5910   1
  -1  -9  -2 509.851 100.337   8
   1   9   2 495.159 95.4231   3
   1   9   3 712.166 118.066   3
  -1  -9  -3 847.356 128.274   8
   1   9   3 798.928 122.008   1
  -1  -9  -3 793.923 107.906   3
   1   9   3 670.824 135.190  10
  -1  -9  -4 552.400 106.228   8
  -1  -9  -4 608.762 104.413   3
   1   9   4 511.977 136.625  10
   1   9   4 718.573 131.260   3
   1   9   4 717.904 122.263   1
  -1  -9  -5 1626.77 190.023   8
  -1  -9  -5 1393.77 158.604   3
   1   9   5 1479.91 170.845   1
  -1  -9  -6 2732.60 255.309   8
   1   9   6 2710.45 238.087   1
   1   9   7 1908.66 205.476   1
  -1  -9  -7 1979.01 220.039   8
  -1  -9  -8 1481.53 199.796   8
   1  10 -16 294.096 103.529   2
   1  10 -15 326.956 110.102   2
   1  10 -14 572.636 122.369   2
   1  10 -14 452.642 98.1582   3
   1  10 -13 1312.81 199.010   2
   1  10 -13 1578.75 172.280   3
   1  10 -12 1904.18 178.685   3
   1  10 -11 304.446 79.7154   3
   1  10 -10 74.9522 48.6995   3
  -1 -10   9 36.4299 38.3400   6
   1  10  -9 30.5154 53.5550   3
   1  10  -8 155.303 65.3730  10
  -1 -10   8 122.376 58.0010   1
  -1 -10   8 52.6197 49.4695   6
   1  10  -8 87.6537 52.3256   3
   1  10  -7 1005.81 121.580   3
  -1 -10   7 1150.54 124.469   1
   1  10  -7 1066.96 134.039  10
  -1 -10   6 21.9532 39.6903   1
   1  10  -6 83.8031 50.5877  10
   1  10  -5-6.45389 66.3520  10
  -1 -10   5 57.4420 43.8717   1
   1  10  -5-1.80521 41.8941   3
  -1 -10   4 2786.35 195.610   1
   1  10  -4 2569.73 202.063   3
   1  10  -4 3118.02 251.427  10
   1  10  -3 269.375 72.0147   3
   1  10  -3 434.205 106.360  10
  -1 -10   3 350.389 84.9049   1
   1  10  -3 238.326 76.3315   1
   1  10  -2 137.644 71.0765   3
   1  10  -2-11.9449 62.7843  10
   1  10  -2 210.953 62.4824   1
  -1 -10   2 69.3762 45.9756   1
   1  10  -1 54.2289 40.5102   3
   1  10  -1 89.1258 70.9223  10
  -1 -10   1 0.64908 40.7230   1
   1  10  -1 30.3293 38.7895   1
  -1 -10   0 13.0378 48.3144   1
   1  10   0 81.1528 87.0572  10
   1  10   0 104.082 43.1615   3
   1  10   0 13.6603 44.1885   1
  -1 -10  -1 1111.35 139.268   8
   1  10   1 812.570 124.076   1
   1  10   1 983.489 144.537   3
  -1 -10  -1 1009.84 123.096   3
   1  10   1 1266.13 189.342  10
   1  10   2 704.966 123.776   3
  -1 -10  -2 1064.41 134.889   3
  -1 -10  -2 712.583 116.313   8
   1  10   2 743.813 123.730   1
   1  10   2 559.884 124.161  10
   1  10   3 123.348 60.7751   3
  -1 -10  -3 150.941 80.4953   8
  -1 -10  -3 2.55435 45.5486   3
   1  10   3 198.028 79.4064   1
  -1 -10  -4 781.664 119.423   3
  -1 -10  -4 788.845 128.033   8
   1  10   4 970.874 148.215   1
  -1 -10  -5 1658.10 192.843   8
   1  10   5 1647.56 191.650   1
  -1 -10  -6 214.840 90.3499   8
   1  10   6 74.0659 62.5868   1
   1  11 -15-21.2324 94.9337   2
   1  11 -14 101.657 68.7657   2
   1  11 -13 16.0236 110.088   2
   1  11 -12 225.172 61.2940   3
   1  11 -11 147.091 71.5334   3
   1  11 -10 571.707 106.244   3
   1  11  -9 3239.15 225.596   3
   1  11  -8 1226.31 144.108   3
   1  11  -7 747.146 113.190   3
   1  11  -7 942.468 138.629  10
   1  11  -6 547.672 106.314  10
   1  11  -6 679.617 106.375   3
   1  11  -5 221.395 62.4448   3
   1  11  -5 211.295 78.6377  10
  -1 -11   4 39.5523 44.5143   1
   1  11  -4 63.3688 76.9351  10
   1  11  -4-67.5497 60.8851   3
   1  11  -3 1331.61 150.459   1
   1  11  -3 1429.18 158.627   3
   1  11  -3 1492.05 187.158  10
  -1 -11   3 1584.82 157.774   1
   1  11  -2 591.184 113.646   3
   1  11  -2 727.074 144.256  10
  -1 -11   2 602.532 100.231   1
   1  11  -2 589.690 104.334   1
   1  11  -1 837.898 124.531   3
  -1 -11   1 987.784 133.803   1
   1  11  -1 752.172 114.992   1
   1  11  -1 988.457 168.550  10
   1  11   0 800.198 123.767   3
   1  11   0 746.360 122.189   1
   1  11   1 263.890 99.8050   3
   1  11   1 300.104 82.6430   1
  -1 -11  -1 307.407 81.1771   8
  -1 -11  -2 521.990 109.585   8
  -1 -11  -2 549.804 107.774   3
   1  11   2 579.581 115.830   1
   1  11   3 75.4112 56.6331   1
  -1 -11  -3 22.6084 64.1051   8
   1  11   4-39.8312 60.0849   1
  -1 -11  -4-43.8943 63.2093   8
   1  12 -14-86.0447 110.854   2
   1  12 -13 41.6544 101.762   2
   1  12  -7-54.3597 61.3507  10
   1  12  -6 515.143 120.948  10
   1  12  -6 399.251 98.3314   3
   1  12  -5 1003.00 136.172   3
   1  12  -5 1549.45 200.284  10
   1  12  -4 1104.77 149.670   3
   1  12  -4 1263.42 183.145  10
   1  12  -3 673.257 113.551   1
   1  12  -3 452.847 104.881   3
   1  12  -2 852.122 125.111   1
   1  12  -2 1042.93 154.311   3
   1  12  -1 529.325 108.213   1
  -1 -12   0 60.2905 54.1789   8
   1  12   0 47.4703 55.4800   1
  -1 -12  -1 77.4692 49.9668   8
   1  12   1 54.2083 77.4814   1
   1  12   2 30.6319 53.6993   1
  -2  14  -1 80.3410 56.8303   1
   2 -14   1 104.353 70.4756   1
   2 -14   2 42.4626 58.6568   1
  -2  14  -2 89.0148 66.0762   1
   2 -14   3 116.766 70.6452   1
   2 -14   4 69.1549 58.2021   1
   2 -14   5 192.542 93.1284   1
   2 -14   6 52.2252 61.0462   1
  -2  14  -6-46.9571 94.5440   2
  -2  14  -7 287.000 105.312   2
   2 -14   7 225.686 94.0146   1
  -2  14  -8 318.503 135.367   2
   2 -14   8 295.471 90.3676   1
  -2  14  -9 70.4125 89.8554   2
   2 -14   9 76.5931 67.6968   1
  -2  14 -10 382.145 125.875   2
   2 -14  10 304.948 111.348   1
   2 -14  11-15.0334 56.8125   1
  -2  14 -11 17.2123 88.4209   2
   2 -13  -2 972.330 158.985   1
  -2  13   2 1034.73 165.529   1
  -2  13   1 1238.50 175.686   1
   2 -13  -1 1143.10 166.627   1
   2 -13   0 139.001 78.2436   1
  -2  13   0 100.504 78.2176   1
  -2  13  -1-86.7072 65.8138   1
   2 -13   1 51.3637 67.3313   1
   2 -13   2 148.592 69.7608   1
   2 -13   3 82.6688 64.4841   1
  -2  13  -3 529.251 130.749  10
  -2  13  -4 859.331 146.745  10
  -2  13  -4 902.969 153.931   3
   2 -13   4 1135.72 159.886   1
  -2  13  -5 880.417 149.631   3
   2 -13   5 1262.62 166.992   1
  -2  13  -5 889.155 144.382  10
  -2  13  -6 408.724 146.789   2
   2 -13   6 665.159 120.217   1
  -2  13  -6 532.594 105.781  10
  -2  13  -6 409.533 114.250   3
  -2  13  -7 275.273 91.2627   3
  -2  13  -7 332.461 130.672   2
   2 -13   7 337.607 100.435   1
  -2  13  -7 299.933 85.0046  10
   2 -13   8-2.19236 69.5063   1
  -2  13  -8 133.885 103.885   2
  -2  13  -9-8.16938 83.7816   2
   2 -13   9 110.489 74.0053   1
   2 -13  10 57.5972 79.7620   1
  -2  13 -10 85.2725 101.429   2
  -2  13 -11 74.9029 97.4739   2
   2 -13  11 147.102 82.8904   1
   2 -13  12 51.1947 73.8939   1
  -2  13 -12 123.900 93.1548   2
  -2  13 -13 591.524 158.346   2
   2 -13  13 374.862 110.989   1
   2 -12  -5 180.959 93.5854   8
  -2  12   4 67.8735 50.3837   1
  -2  12   3 95.8858 74.9335   1
   2 -12  -3 43.0172 70.9172   1
  -2  12   2-79.1178 82.1689   1
   2 -12  -2-37.7705 59.9449   1
  -2  12   1 359.382 99.0291   1
   2 -12  -1 334.184 92.8899   1
  -2  12   1 407.169 100.629   3
  -2  12   0 2370.82 225.497   3
  -2  12   0 2209.68 215.620   1
   2 -12   0 2625.50 232.498   1
  -2  12   0 2773.18 276.206  10
   2 -12   1 3071.55 242.826   1
  -2  12  -1 3095.65 284.064  10
  -2  12  -1 2836.13 246.461   3
  -2  12  -2 1479.89 178.069   3
   2 -12   2 1664.72 181.861   1
  -2  12  -2 1151.98 175.959  10
  -2  12  -3 1849.85 203.329  10
   2 -12   3 2098.98 205.632   1
  -2  12  -3 1982.45 205.367   3
   2 -12   4 850.076 132.028   1
  -2  12  -4 858.878 131.276   3
  -2  12  -4 920.943 136.627  10
   2 -12   5 28.0155 49.6297   1
  -2  12  -5-31.4020 54.8113  10
  -2  12  -5 87.9529 77.5589   3
  -2  12  -6 59.8911 63.3497   3
  -2  12  -6 150.327 66.2110  10
   2 -12   6 113.691 68.5250   1
  -2  12  -7 7.40933 53.3454   3
  -2  12  -7-14.3250 82.2791   2
   2 -12   7 27.1358 48.3149   1
  -2  12  -7 143.774 70.3942  10
  -2  12  -8 33.9735 82.1206   2
   2 -12   8 128.593 72.2749   1
  -2  12  -8 60.3649 70.3134   3
  -2  12  -9 1842.28 219.947   2
   2 -12   9 1822.60 186.667   1
  -2  12  -9 1628.29 182.241   3
   2 -12  10 881.019 136.218   1
  -2  12 -10 648.754 157.208   2
  -2  12 -10 1022.28 154.537   3
   2 -12  11 713.810 125.381   1
  -2  12 -11 847.705 166.571   2
   2 -12  12 327.030 95.2193   1
  -2  12 -12 240.031 112.656   2
  -2  12 -13-36.6789 73.9178   2
   2 -12  13-20.3133 54.9672   1
  -2  12 -14 280.444 105.803   2
   2 -12  14 274.782 90.4558   1
  -2  12 -15 2.18804 75.4053   2
   2 -11  -7 302.405 100.592   8
   2 -11  -6-32.0774 82.3036   8
  -2  11   6 61.2850 63.8050   1
   2 -11  -5 23.9436 70.9972   8
  -2  11   5 134.307 73.6593   1
   2 -11  -4-19.6815 59.2019   1
  -2  11   4 102.586 71.4750   1
  -2  11   3 133.471 64.5335   3
   2 -11  -3 74.6741 50.7303   3
  -2  11   3 87.1862 54.6541   1
   2 -11  -3 252.032 93.7588   1
   2 -11  -2 24.0593 68.7610   1
  -2  11   2-14.3399 67.4617   3
   2 -11  -2 6.75880 59.4169   3
  -2  11   2 45.5100 69.3641   1
  -2  11   2 97.3070 102.760  10
   2 -11  -1 147.728 74.0108   1
  -2  11   1-25.0959 62.1967   3
  -2  11   1 152.814 113.704  10
  -2  11   1 69.7259 64.0304   1
   2 -11   0 354.765 93.9532   1
  -2  11   0 253.799 82.2316   3
  -2  11   0 503.873 129.070  10
   2 -11   1 18.7464 51.8706   1
  -2  11  -1-60.5048 69.7105   3
  -2  11  -1 144.969 101.006  10
  -2  11  -2 384.281 109.536  10
  -2  11  -2 326.591 89.1540   3
   2 -11   2 371.780 89.8999   1
   2 -11   3 540.455 104.412   1
  -2  11  -3 683.806 132.942  10
  -2  11  -3 568.687 109.856   3
  -2  11  -4 1720.34 187.303   3
   2 -11   4 2131.63 185.864   1
  -2  11  -4 1692.59 177.894  10
  -2  11  -5 395.916 86.5504   3
   2 -11   5 612.771 100.844   1
  -2  11  -5 502.653 99.9482  10
   2 -11   6 2464.65 205.293   1
  -2  11  -6 2021.39 181.517  10
  -2  11  -6 1831.77 183.221   3
  -2  11  -7 3041.42 216.366  10
  -2  11  -7 2721.81 246.107   2
   2 -11   7 3031.08 225.671   1
  -2  11  -7 3270.54 243.021   3
  -2  11  -8 459.406 115.676   2
  -2  11  -8 603.924 108.281   3
   2 -11   8 676.789 116.372   1
  -2  11  -8 576.073 95.8543  10
   2 -11   9 605.236 102.594   1
  -2  11  -9 536.012 123.010   2
  -2  11  -9 445.274 105.468   3
   2 -11  10 151.240 66.8298   1
  -2  11 -10 67.9437 69.5200   3
  -2  11 -10 37.3234 70.9258   2
   2 -11  11-28.3367 51.7067   1
  -2  11 -11 101.430 93.6671   2
  -2  11 -11 153.632 87.8254   3
  -2  11 -12 1019.75 154.622   3
   2 -11  12 889.880 140.564   1
  -2  11 -12 742.400 148.016   2
   2 -11  13 678.867 126.614   1
  -2  11 -13 717.561 157.439   2
   2 -11  14 477.381 105.036   1
  -2  11 -14 366.015 137.055   2
  -2  11 -15 495.285 114.219   2
   2 -11  15 480.052 124.331   1
   2 -10  -9-88.0392 75.0840   8
   2 -10  -8 1046.86 173.794   8
  -2  10   8 841.319 149.069   1
   2 -10  -7 2798.49 264.592   8
  -2  10   7 2574.74 243.569   1
   2 -10  -6 2806.92 252.790   8
  -2  10   6 3342.98 320.417  10
  -2  10   6 2862.20 246.776   1
  -2  10   5 3911.25 281.043   1
  -2  10   5 3740.92 317.265  10
  -2  10   5 3924.27 289.284   3
   2 -10  -5 3874.22 265.890   3
   2 -10  -4 2272.08 198.955   3
  -2  10   4 2387.52 220.904   3
   2 -10  -4 2904.68 235.113   1
  -2  10   4 2430.84 215.273   1
  -2  10   4 2665.69 265.945  10
   2 -10  -3 2581.77 206.435   3
  -2  10   3 2576.32 223.328   3
   2 -10  -3 2374.66 209.075   1
  -2  10   3 2710.92 222.523   1
  -2  10   3 2674.50 262.868  10
   2 -10  -2 898.140 130.289   1
  -2  10   2 778.828 127.285   3
   2 -10  -2 840.316 118.421   3
  -2  10   2 994.953 137.137   1
  -2  10   2 1117.29 181.043  10
  -2  10   1 125.160 65.5937   1
   2 -10  -1 115.123 74.5823   1
  -2  10   1 60.3904 60.8462   3
   2 -10  -1 50.0654 54.3055   3
   2 -10   0 19.0681 46.0903   1
  -2  10   0 93.0427 60.6612   3
  -2  10  -1 1293.66 168.080  10
  -2  10  -1 1205.17 146.222   3
   2 -10   1 1114.86 139.367   1
  -2  10  -2 834.449 137.490  10
   2 -10   2 917.828 124.456   1
  -2  10  -2 756.581 123.461   3
   2 -10   3 835.839 111.548   1
  -2  10  -3 763.429 116.887   3
  -2  10  -3 974.328 145.685  10
  -2  10  -4 1808.41 172.240  10
   2 -10   4 2036.85 174.206   1
  -2  10  -4 1609.89 165.957   3
  -2  10  -5 49.7443 48.0924   3
  -2  10  -5 88.3976 57.3425  10
   2 -10   5 70.1983 52.9787   1
  -2  10  -6 228.225 67.7949   3
   2 -10   6 321.281 66.9745   7
  -2  10  -6 290.059 116.685   2
  -2  10  -6 312.932 74.5936  10
   2 -10   6 175.120 68.1841   1
  -2  10  -7 1564.41 164.896   3
   2 -10   7 1680.85 148.778   7
  -2  10  -7 1486.63 184.670   2
   2 -10   7 1789.19 165.855   1
  -2  10  -7 1507.92 141.466  10
   2 -10   8 569.733 91.4012   7
  -2  10  -8 458.522 102.389   3
   2 -10   8 483.161 91.4663   1
  -2  10  -8 431.955 73.4213  10
  -2  10  -8 603.009 127.749   2
   2 -10   9 3.78598 54.4409   1
  -2  10  -9-8.90934 45.4300   3
   2 -10   9 55.9289 40.9209   7
  -2  10  -9 83.0448 69.7636   2
  -2  10 -10 167.968 90.9580   2
   2 -10  10 104.690 51.0779   1
  -2  10 -10 174.112 81.4451   3
   2 -10  10 80.6106 57.4118   7
   2 -10  11 443.360 88.9039   7
  -2  10 -11 688.518 115.824   3
   2 -10  11 869.039 133.988   1
  -2  10 -11 528.239 128.957   2
  -2  10 -12 584.896 114.599   3
   2 -10  12 760.885 129.264   1
  -2  10 -12 584.170 122.246   2
   2 -10  12 494.946 108.846   7
  -2  10 -13 326.235 99.3031   3
   2 -10  13 367.738 94.3170   1
   2 -10  13 215.962 88.4547   7
  -2  10 -13 303.535 98.9840   2
   2 -10  14 63.9336 75.4544   7
   2 -10  14 191.744 83.3250   1
  -2  10 -14 218.727 90.1116   2
  -2  10 -15 125.115 116.957   2
   2 -10  15-22.7528 65.5648   1
   2 -10  16 3.62330 56.4322   1
  -2  10 -16 27.7681 70.8873   2
   2  -9 -10 230.490 89.0220   8
   2  -9  -9 991.511 162.489   8
  -2   9   9 763.066 136.073   1
   2  -9  -8 241.355 83.8933   8
  -2   9   8 337.313 100.518   1
  -2   9   7 1057.82 153.199   1
   2  -9  -7 1099.12 159.594   8
   2  -9  -7 1374.37 160.325   3
  -2   9   7 1247.57 208.764  10
   2  -9  -6 863.958 129.856   8
  -2   9   6 1024.96 180.079  10
  -2   9   6 842.124 135.694   1
   2  -9  -6 929.978 136.078   3
  -2   9   5 52.7067 94.4218  10
  -2   9   5-12.6395 53.9515   1
   2  -9  -5 50.8174 59.5784   3
   2  -9  -4 371.549 83.2298   3
  -2   9   4 319.773 112.892  10
   2  -9  -4 289.067 88.3834   1
  -2   9   4 290.117 78.0892   3
  -2   9   4 289.437 79.2332   1
   2  -9  -3 4701.74 223.744   7
  -2   9   3 4844.43 289.542   3
  -2   9   3 4688.72 278.202   1
   2  -9  -3 5090.84 292.464   1
   2  -9  -3 5312.39 275.608   3
  -2   9   3 5234.44 346.169  10
  -2   9   2 4555.89 271.666   3
   2  -9  -2 4127.22 243.977   3
   2  -9  -2 4641.00 214.582   7
   2  -9  -2 4441.29 265.491   1
  -2   9   2 4575.64 269.240   1
  -2   9   2 5468.55 338.995  10
   2  -9  -1 5564.45 231.149   7
  -2   9   1 5612.95 336.852  10
   2  -9  -1 5883.04 285.047   3
   2  -9  -1 5882.22 300.472   1
  -2   9   1 5873.95 303.800   3
  -2   9   0 6104.47 341.788  10
  -2   9   0 6490.76 314.111   3
   2  -9   0 6932.80 317.330   1
   2  -9   0 6087.85 234.078   7
  -2   9  -1 9346.02 416.644  10
   2  -9   1 8603.30 361.052   1
   2  -9   1 8619.81 285.216   7
  -2   9  -1 9030.30 372.535   3
   2  -9   2 2469.92 185.756   1
   2  -9   2 2336.88 136.705   7
  -2   9  -2 2279.06 196.913  10
  -2   9  -2 2349.97 185.767   3
  -2   9  -3 258.026 78.4545   3
   2  -9   3 221.254 46.8788   7
   2  -9   3 198.455 57.6523   1
  -2   9  -3 225.311 79.8166  10
  -2   9  -4 40.9005 50.5418   3
   2  -9   4 99.5331 45.7181   7
   2  -9   4 50.1067 47.6664   1
  -2   9  -4 121.168 69.8659  10
  -2   9  -5 1591.87 147.042  10
   2  -9   5 1672.01 122.490   7
  -2   9  -5 1502.78 148.240   3
   2  -9   5 1754.33 155.426   1
  -2   9  -6 1268.46 156.219   2
  -2   9  -6 1361.96 129.253  10
   2  -9   6 1756.24 158.084   1
  -2   9  -6 1518.30 151.703   3
   2  -9   6 1364.83 118.636   7
   2  -9   7 3429.30 221.089   1
  -2   9  -7 2957.22 238.770   2
   2  -9   7 3364.17 192.105   7
  -2   9  -7 3225.78 219.672   3
  -2   9  -7 3111.11 186.812  10
   2  -9   8 3642.43 214.024   7
  -2   9  -8 3762.55 198.516  10
  -2   9  -8 3513.58 256.111   2
   2  -9   8 4061.00 241.224   1
  -2   9  -8 3734.41 243.019   3
   2  -9   9 126.808 66.8054   1
  -2   9  -9 95.6808 57.0602   2
   2  -9   9-14.5328 43.1283   7
  -2   9  -9 118.624 69.8449   3
   2  -9  10-46.2357 51.3768   1
   2  -9  10-74.0800 42.9071   7
  -2   9 -10 110.245 63.8650   3
  -2   9 -10-74.9155 76.0592   2
   2  -9  11 1392.57 163.450   1
  -2   9 -11 1126.74 148.882   3
  -2   9 -11 1133.83 150.206   2
   2  -9  11 1104.22 143.079   7
  -2   9 -12 46.8653 47.7072   3
   2  -9  12 25.9969 54.9673   1
  -2   9 -12 14.9255 77.1240   2
   2  -9  12 50.7229 63.3858   7
  -2   9 -13 37.7045 65.6747   2
   2  -9  13-8.61087 54.6768   1
   2  -9  13 35.0813 60.5005   7
  -2   9 -13 79.2016 57.0321   3
  -2   9 -14 77.1871 76.3811   2
  -2   9 -14 34.0499 59.4665   3
   2  -9  14 26.4257 61.1711   7
   2  -9  15-105.233 91.1109   7
   2  -9  15 41.1246 65.5192   1
  -2   9 -15 63.6234 79.9053   2
   2  -9  16-27.8952 72.8855   1
  -2   9 -16 86.0699 88.3502   2
   2  -8 -11 596.870 136.766   8
  -2   8  11 624.056 128.289   1
   2  -8 -10 367.862 101.324   8
  -2   8  10 368.639 102.711   1
  -2   8  10 535.374 136.817  10
   2  -8  -9 31.2049 60.9345   8
  -2   8   9 8.53503 56.6192   1
   2  -8  -8-40.1865 72.6779   3
   2  -8  -8 27.9604 59.4850   8
   2  -8  -8-17.2863 40.7232   7
  -2   8   8-36.8530 51.2257   1
   2  -8  -7 15.9763 64.5186   8
   2  -8  -7-14.6952 37.7741   7
  -2   8   7 94.4952 54.2186   1
   2  -8  -7-76.3370 48.3486   3
   2  -8  -6 53.3696 36.6478   7
  -2   8   6 129.992 92.0642  10
   2  -8  -6 111.207 70.9621   8
   2  -8  -6 138.750 70.6780   3
  -2   8   6 111.500 71.8073   1
  -2   8   5 322.157 133.788  10
   2  -8  -5 174.711 75.3635   1
   2  -8  -5 67.8901 37.7283   7
  -2   8   5-16.4933 41.2095   1
   2  -8  -5 237.380 72.6676   3
  -2   8   4 534.246 135.011  10
   2  -8  -4 291.672 57.9697   7
   2  -8  -4 225.591 66.0080   1
  -2   8   4 212.579 66.2930   1
   2  -8  -4 303.143 69.3376   3
   2  -8  -3 1930.83 166.496   1
  -2   8   3 1840.99 167.116   3
   2  -8  -3 2060.15 160.196   3
  -2   8   3 1588.05 152.387   1
   2  -8  -3 1884.72 133.606   7
  -2   8   3 1730.37 189.444  10
   2  -8  -2 2020.72 133.813   7
  -2   8   2 2150.78 173.309   1
   2  -8  -2 2250.06 172.748   1
  -2   8   2 1925.45 166.293   3
  -2   8   2 1896.01 199.905  10
   2  -8  -2 2007.32 157.256   3
   2  -8  -1 65.0461 53.4556   3
   2  -8  -1 44.9312 31.7026   7
   2  -8  -1-13.4030 47.8193   1
  -2   8   1 70.1636 46.8233   3
  -2   8   1 135.255 81.0824  10
  -2   8   0 166.768 74.4645  10
  -2   8   0 30.3786 44.9175   3
   2  -8   0 82.7514 51.4467   1
   2  -8   0 101.085 52.3751   3
   2  -8   0 127.703 42.8747   7
   2  -8   1 3496.46 164.631   7
   2  -8   1 3507.67 208.994   1
  -2   8  -1 3442.11 227.573  10
  -2   8  -1 3314.03 205.150   3
  -2   8  -2 761.020 113.366  10
  -2   8  -2 905.082 108.462   3
   2  -8   2 1134.64 115.159   1
   2  -8   2 1167.81 90.4316   7
  -2   8  -3 4037.66 230.034  10
   2  -8   3 4250.49 184.945   7
   2  -8   3 4453.38 233.872   1
  -2   8  -3 4300.97 237.897   3
   2  -8   4 11936.0 352.148   7
  -2   8  -4 12064.8 407.563  10
   2  -8   4 12410.6 413.144   1
  -2   8  -4 11403.6 411.092   3
   2  -8   5 10414.1 332.284   7
  -2   8  -5 9697.62 392.861   2
  -2   8  -5 10241.8 382.696   3
   2  -8   5 10501.8 374.220   1
  -2   8  -5 9995.80 356.488  10
   2  -8   6 4259.42 217.093   7
  -2   8  -6 4497.10 215.819  10
  -2   8  -6 4185.48 252.043   2
  -2   8  -6 4743.55 253.222   3
   2  -8   6 4960.69 246.473   1
  -2   8  -7 1684.85 162.687   2
  -2   8  -7 1962.35 136.026  10
   2  -8   7 1861.53 148.825   7
   2  -8   7 2129.27 166.878   1
  -2   8  -7 1836.44 159.389   3
   2  -8   8 45.3735 48.8682   1
  -2   8  -8 7.96971 48.0342   3
  -2   8  -8 3.68636 29.1918  10
   2  -8   8 65.8280 56.4917   7
  -2   8  -8 169.712 82.9052   2
  -2   8  -9 19.7499 41.5192   3
  -2   8  -9-4.77284 64.6943   2
   2  -8   9-14.0828 42.8940   7
   2  -8   9-15.4248 49.9543   1
  -2   8 -10 637.575 107.658   3
   2  -8  10 830.703 119.729   1
  -2   8 -10 685.960 110.803   2
   2  -8  10 882.523 120.684   7
   2  -8  11 3531.12 243.350   1
  -2   8 -11 3213.13 235.619   2
   2  -8  11 3263.90 229.981   7
  -2   8 -11 3122.58 229.194   3
  -2   8 -12 2209.76 197.689   3
  -2   8 -12 2064.29 190.390   2
   2  -8  12 2161.80 196.162   1
   2  -8  12 1888.91 194.944   7
   2  -8  13 539.559 111.659   7
  -2   8 -13 584.092 112.781   2
  -2   8 -13 562.891 111.999   3
   2  -8  13 427.288 101.128   1
   2  -8  14 399.820 112.669   7
  -2   8 -14 669.963 119.191   2
  -2   8 -14 597.169 121.245   3
   2  -8  14 441.723 101.467   1
  -2   8 -15 743.355 127.164   2
   2  -8  15 551.899 144.713   7
   2  -8  15 815.076 141.362   1
   2  -8  16 10.9207 69.7618   1
  -2   8 -16-146.169 73.4083   2
   2  -8  17-23.0092 58.7075   1
   2  -7 -12 165.737 93.6200   8
  -2   7  12 183.201 110.284   6
  -2   7  12 55.3146 59.7885   1
  -2   7  11-8.16611 63.0901   1
   2  -7 -11 109.291 78.0691   8
  -2   7  10 1394.00 199.354  10
  -2   7  10 1247.93 160.188   1
   2  -7 -10 1197.80 170.633   8
   2  -7 -10 1267.39 160.666   3
  -2   7   9 2311.30 208.311   1
   2  -7  -9 2461.21 218.059   8
   2  -7  -9 2329.06 199.837   3
  -2   7   9 2469.88 238.723  10
  -2   7   8 5798.15 317.390   1
   2  -7  -8 5613.30 322.027   8
   2  -7  -8 5458.99 298.330   3
  -2   7   8 5286.90 342.830  10
   2  -7  -7 2545.41 208.047   8
  -2   7   7 2651.13 243.628  10
   2  -7  -7 2610.77 197.088   3
  -2   7   7 2966.08 216.303   1
   2  -7  -6 8721.61 379.435   8
  -2   7   6 8820.36 372.910   1
   2  -7  -6 8869.04 329.315   7
   2  -7  -6 8598.91 361.683   3
  -2   7   6 7941.79 414.672  10
   2  -7  -5 3016.78 205.088   1
   2  -7  -5 2697.47 168.779   7
   2  -7  -5 2709.49 185.268   3
  -2   7   5 2670.42 194.496   1
  -2   7   5 2608.49 223.843  10
   2  -7  -4 393.183 71.2520   7
   2  -7  -4 484.504 91.1666   1
  -2   7   4 362.832 101.881  10
  -2   7   4 397.612 83.4077   1
   2  -7  -4 305.274 62.4331   3
   2  -7  -3 100.285 41.5312   7
   2  -7  -3 71.6797 53.3177   1
  -2   7   3 32.0684 42.0384   1
   2  -7  -3 121.156 57.8050   3
  -2   7   2 30.9918 48.2707   3
   2  -7  -2-7.50236 31.3755   7
   2  -7  -2-46.3526 46.7119   1
   2  -7  -2-28.4430 43.4635   3
  -2   7   2 4.18044 56.5175  10
  -2   7   1 156.871 57.8638   3
   2  -7  -1 195.843 58.7288   3
   2  -7  -1 145.748 39.6167   7
   2  -7  -1 177.328 64.4715   1
  -2   7   1 337.182 86.5391  10
  -2   7   0 1111.02 114.200   3
   2  -7   0 1351.96 97.2724   7
   2  -7   0 1178.69 115.778   1
  -2   7   0 1337.03 136.566  10
   2  -7   0 1265.60 108.973   3
   2  -7   1 1469.06 99.6080   7
   2  -7   1 1296.91 117.879   1
  -2   7  -1 1288.07 131.532  10
  -2   7  -1 1306.93 120.790   3
  -2   7  -2 205.812 61.2034   3
   2  -7   2 213.072 46.2603   7
  -2   7  -2 145.108 45.7857  10
   2  -7   2 200.152 56.0250   1
  -2   7  -3-18.2367 47.2962   3
   2  -7   3 21.6711 32.6001   7
   2  -7   3 25.4131 45.3245   1
  -2   7  -3-23.6777 43.1660  10
  -2   7  -4 34.4017 56.3981   2
  -2   7  -4-39.8458 54.7680   3
   2  -7   4 11.0239 40.4049   1
  -2   7  -4 33.3881 34.1136  10
   2  -7   4 15.5605 34.8856   7
   2  -7   5 2080.47 140.080   7
   2  -7   5 2297.72 158.258   1
  -2   7  -5 1925.65 131.854  10
  -2   7  -5 1848.70 154.297   2
  -2   7  -5 2194.31 159.294   3
   2  -7   6 15.3068 41.9113   7
   2  -7   6 5.28412 50.9404   1
  -2   7  -6 10.0910 44.3179   3
  -2   7  -6-11.1373 27.6299  10
  -2   7  -6 39.7678 56.9998   2
   2  -7   7 1983.70 157.357   1
   2  -7   7 1883.27 151.614   7
  -2   7  -7 1959.43 123.144  10
  -2   7  -7 1811.63 156.139   3
  -2   7  -7 1935.51 167.727   2
   2  -7   8 7523.31 307.496   7
   2  -7   8 7162.92 311.403   1
  -2   7  -8 6207.95 301.917   2
  -2   7  -8 7089.14 237.699  10
  -2   7  -8 6880.14 308.843   3
   2  -7   9 6335.91 297.573   1
  -2   7  -9 5528.43 287.590   2
  -2   7  -9 6041.64 296.400   3
  -2   7  -9 6083.35 208.727  10
   2  -7  10 3285.37 222.960   1
  -2   7 -10 3343.90 220.106   2
   2  -7  10 3046.85 216.367   7
  -2   7 -10 3231.41 217.445   3
   2  -7  11 1974.64 175.272   1
  -2   7 -11 1899.59 170.041   2
   2  -7  11 1701.81 171.290   7
  -2   7 -11 2024.13 180.025   3
   2  -7  12 249.092 81.8489   1
  -2   7 -12 180.806 64.5872   3
   2  -7  12 244.949 88.8588   7
  -2   7 -12 278.453 87.5125   2
  -2   7 -13 305.914 91.5981   3
  -2   7 -13 342.953 90.3212   2
   2  -7  13 324.732 90.0142   7
   2  -7  13 374.707 95.6704   1
   2  -7  14 98.2079 82.5379   7
   2  -7  14 276.025 83.0089   1
  -2   7 -14 256.303 70.5198   2
  -2   7 -14 145.275 65.2994   3
   2  -7  15 764.812 157.265   7
  -2   7 -15 879.697 132.607   2
   2  -7  15 887.503 147.801   1
   2  -7  16 749.582 136.060   1
   2  -7  17 441.530 116.443   1
  -2   6  13 156.677 74.4322   1
  -2   6  13 580.945 148.293   6
   2  -6 -12 1559.51 183.852   8
  -2   6  12 1325.92 172.871   1
  -2   6  12 1502.43 197.506   6
  -2   6  11 2308.90 213.390   1
   2  -6 -11 2478.27 233.518   8
   2  -6 -11 2255.09 205.652   3
  -2   6  10 5137.19 308.885   1
   2  -6 -10 4905.14 304.758   8
   2  -6 -10 4679.26 287.395   3
  -2   6  10 4893.40 318.811  10
   2  -6  -9 3312.49 230.585   3
  -2   6   9 3154.80 230.204   1
   2  -6  -9 3470.63 248.835   8
  -2   6   9 3385.62 262.830  10
   2  -6  -8 1070.93 132.774   8
   2  -6  -8 1182.89 133.146   3
  -2   6   8 1311.67 174.678  10
  -2   6   8 851.164 122.131   1
   2  -6  -7-34.4357 56.1665   8
  -2   6   7 8.58764 38.3534   1
   2  -6  -7 130.162 51.6517   3
  -2   6   6 1417.81 141.470   1
   2  -6  -6 1415.07 132.834   3
   2  -6  -6 1380.04 142.538   8
  -2   6   6 1750.16 200.362  10
   2  -6  -5 3858.71 226.584   1
   2  -6  -5 4352.17 218.683   3
  -2   6   5 4302.06 276.824  10
  -2   6   5 4089.60 223.769   1
  -2   6   4 13998.5 440.414   1
   2  -6  -4 14575.0 403.599   7
   2  -6  -4 14634.0 434.100   3
  -2   6   4 12986.7 483.365  10
   2  -6  -4 14676.0 455.389   1
  -2   6   3 18005.5 581.876  10
  -2   6   3 20148.5 540.086   1
   2  -6  -3 20582.5 494.417   7
   2  -6  -3 20731.5 531.625   3
   2  -6  -3 20799.9 551.405   1
   2  -6  -2 15597.3 403.392   7
   2  -6  -2 16070.7 452.452   1
  -2   6   2 15362.6 449.157   3
  -2   6   2 14719.7 491.078  10
   2  -6  -2 16071.0 436.420   3
   2  -6  -1 10927.0 335.905   3
   2  -6  -1 11250.0 356.259   1
  -2   6   1 10992.7 355.033   3
  -2   6   1 10062.2 378.316  10
   2  -6   0 9537.89 320.768   1
   2  -6   0 9992.89 283.425   7
   2  -6   0 10247.7 314.715   3
  -2   6   0 9784.43 327.034   3
  -2   6   0 8946.21 342.186  10
  -2   6  -1 805.783 87.3581   3
   2  -6   1 836.461 71.8062   7
   2  -6   1 650.926 85.0171   1
  -2   6  -1 866.097 100.316  10
  -2   6  -2 742.089 85.0078   3
   2  -6   2 741.531 67.3016   7
  -2   6  -2 871.852 92.6728  10
   2  -6   2 719.164 80.5120   1
   2  -6   3 4600.75 181.367   7
  -2   6  -3 4631.43 211.214   3
  -2   6  -3 4173.50 197.320  10
   2  -6   3 4312.35 200.409   1
  -2   6  -4 2663.42 170.226   2
   2  -6   4 2832.08 163.438   1
  -2   6  -4 2836.40 166.404   3
   2  -6   4 3013.73 151.442   7
  -2   6  -4 2835.23 151.604  10
  -2   6  -5 1793.50 135.443   3
  -2   6  -5 1726.60 140.604   2
   2  -6   5 1680.90 118.537   7
   2  -6   5 1708.47 129.294   1
  -2   6  -5 1701.00 112.935  10
  -2   6  -6 1636.08 106.388  10
   2  -6   6 1798.55 139.907   1
  -2   6  -6 1699.70 139.162   2
   2  -6   6 1608.04 125.435   7
  -2   6  -6 1732.93 136.911   3
  -2   6  -7 1523.09 147.364   2
   2  -6   7 1765.10 142.011   7
  -2   6  -7 1854.05 107.166  10
  -2   6  -7 1940.10 146.955   3
   2  -6   7 1654.49 139.360   1
   2  -6   8-63.6951 54.3293   7
  -2   6  -8-21.5129 25.2267  10
  -2   6  -8 111.346 61.8570   2
  -2   6  -8 30.1807 50.6994   3
   2  -6   8-37.4456 43.7452   1
   2  -6   9 203.321 61.3633   7
  -2   6  -9 320.315 77.3032   3
   2  -6   9 259.810 64.8154   1
  -2   6  -9 313.989 79.6812   2
  -2   6 -10 167.684 71.0597   2
   2  -6  10 67.0973 56.9771   1
  -2   6 -10 171.792 67.8096   3
   2  -6  10 95.4702 61.1983   7
   2  -6  11 452.413 95.3449   7
   2  -6  11 486.295 95.8115   1
  -2   6 -11 414.860 79.5038   2
  -2   6 -11 199.676 70.9621   3
   2  -6  12 699.168 124.168   7
   2  -6  12 929.870 127.211   1
  -2   6 -12 928.142 128.499   3
  -2   6 -12 900.129 113.314   2
  -2   6 -13 677.884 117.890   3
  -2   6 -13 570.494 101.219   2
   2  -6  13 648.323 118.301   7
   2  -6  13 953.991 131.801   1
  -2   6 -14 680.215 123.293   3
   2  -6  14 694.777 124.086   1
  -2   6 -14 666.093 101.329   2
   2  -6  14 665.106 135.478   7
   2  -6  15 430.717 130.905   7
   2  -6  15 517.274 107.456   1
  -2   6 -15 668.627 119.304   3
  -2   6 -15 524.961 91.0280   2
   2  -6  16 338.421 94.8940   1
   2  -6  17 177.550 100.041   1
  -2   5  14 141.276 67.8880   1
  -2   5  14 47.0339 62.6266   6
  -2   5  13 220.476 107.548   6
  -2   5  13 113.779 60.0913   1
   2  -5 -12 35.1160 54.9176   8
  -2   5  12 79.6440 50.8874   1
   2  -5 -12 19.4119 53.5672   3
   2  -5 -11 88.0957 60.3518   8
  -2   5  11-69.8659 62.6079   1
   2  -5 -11-21.8996 40.9205   3
  -2   5  10 8.06819 46.6850   1
   2  -5 -10 137.803 67.9922   8
  -2   5  10 158.146 68.8283  10
   2  -5 -10 73.4720 48.5022   3
  -2   5   9 49.3020 61.7171   1
   2  -5  -9 67.4583 56.0078   8
  -2   5   9 128.327 91.4590  10
   2  -5  -9 21.6018 46.0781   3
  -2   5   8 2481.03 180.196   1
   2  -5  -8 2629.53 180.098   3
  -2   5   8 2724.79 212.172  10
   2  -5  -8 2374.10 188.946   8
   2  -5  -7 46.8033 43.4306   3
  -2   5   7 24.2354 45.1560   1
   2  -5  -7-9.50207 43.7617   8
  -2   5   6 7552.98 342.081  10
  -2   5   6 7985.08 316.538   1
   2  -5  -6 7715.04 316.046   8
   2  -5  -6 7993.76 310.932   3
  -2   5   5 6776.21 271.560   1
   2  -5  -5 6716.89 265.452   3
   2  -5  -5 6689.65 284.893   1
  -2   5   5 6270.69 303.386  10
  -2   5   4 4444.32 244.149  10
   2  -5  -4 5240.79 218.227   3
   2  -5  -4 4894.73 226.749   1
  -2   5   4 4579.46 216.871   1
   2  -5  -3 1652.97 118.404   3
   2  -5  -3 1800.92 114.651   7
  -2   5   3 1637.42 123.918   1
   2  -5  -3 1735.87 128.223   1
  -2   5   3 1651.90 141.803  10
   2  -5  -2-2.42812 28.8376   3
   2  -5  -2-25.6749 33.0587   1
   2  -5  -2 19.1858 26.7324   7
  -2   5   2 78.8354 60.0994  10
   2  -5  -1 2450.45 124.754   7
  -2   5   1 2946.83 174.138  10
  -2   5   1 2322.85 135.959   3
   2  -5  -1 2250.15 133.282   1
   2  -5  -1 2324.60 130.966   3
  -2   5   0 21195.3 507.908   3
   2  -5   0 21307.5 469.553   7
   2  -5   0 20374.3 501.417   1
   2  -5   0 21933.2 493.953   3
  -2   5   0 21428.1 533.742  10
   2  -5   1 15045.1 360.616   7
  -2   5  -1 15088.5 407.454  10
   2  -5   1 14764.4 394.181   1
  -2   5  -1 14606.3 391.946   3
  -2   5  -2 38387.7 783.849   2
   2  -5   2 36613.1 766.234   1
  -2   5  -2 36752.7 771.679   3
  -2   5  -2 36722.6 767.867  10
   2  -5   2 38165.3 733.656   7
  -2   5  -3 12729.1 370.755   2
  -2   5  -3 12729.8 365.320   3
   2  -5   3 12520.3 357.677   1
  -2   5  -3 12904.1 346.289  10
   2  -5   3 13307.9 341.273   7
  -2   5  -4 7885.53 244.695  10
   2  -5   4 7629.01 257.957   7
   2  -5   4 7670.10 269.035   1
  -2   5  -4 7869.58 273.260   3
  -2   5  -4 7835.53 279.572   2
  -2   5  -5 3487.69 145.367  10
   2  -5   5 3280.79 171.485   1
  -2   5  -5 3284.78 173.395   3
   2  -5   6 954.638 103.631   7
  -2   5  -6 963.577 99.3262   2
   2  -5   6 1096.83 104.744   1
  -2   5  -6 902.511 70.1970  10
  -2   5  -6 986.699 97.6083   3
   2  -5   7 1278.14 118.148   7
  -2   5  -7 1271.80 115.478   2
   2  -5   7 1286.52 117.545   1
  -2   5  -7 1182.57 113.603   3
  -2   5  -7 1286.41 82.4665  10
   2  -5   8 4320.68 220.897   1
   2  -5   8 4047.35 223.069   7
  -2   5  -8 4251.24 219.087   3
  -2   5  -8 4164.07 213.018   2
   2  -5   9 1693.90 154.354   7
  -2   5  -9 1713.55 145.403   3
  -2   5  -9 1815.13 146.323   2
   2  -5   9 1729.80 146.234   1
   2  -5  10 3759.15 235.842   7
  -2   5 -10 4096.86 214.997   2
   2  -5  10 4226.72 236.258   1
  -2   5 -10 3542.56 222.267   3
  -2   5 -11 2311.27 181.726   3
   2  -5  11 2441.54 187.100   1
  -2   5 -11 2298.64 165.742   2
   2  -5  11 2211.62 193.339   7
  -2   5 -12 312.092 81.0360   3
   2  -5  12 317.966 88.8178   7
   2  -5  12 244.414 70.3578   1
  -2   5 -12 365.639 81.5009   2
  -2   5 -13-2.80546 55.8171   3
   2  -5  13 56.2661 55.2727   7
   2  -5  13 85.1682 63.0054   1
  -2   5 -13 55.1321 48.2465   2
   2  -5  14 29.8161 64.8026   1
  -2   5 -14 89.1793 77.3956   3
  -2   5 -14-154.200 69.0814   2
   2  -5  14 11.2923 51.8065   7
   2  -5  15 142.909 81.7804   7
   2  -5  15-28.8154 58.7927   1
  -2   5 -15-43.3410 62.4126   3
   2  -5  16 25.9165 66.5095   1
   2  -5  17-33.4058 66.4952   1
  -2   4  15 415.149 123.001   6
  -2   4  15 596.100 116.315   1
  -2   4  14 71.4709 63.5344   1
  -2   4  14 128.860 89.6805   6
  -2   4  13-19.6994 67.5558   1
  -2   4  13 70.7954 79.4141   6
   2  -4 -13 195.137 85.0749   3
  -2   4  12 1613.90 176.624   1
   2  -4 -12 1832.74 186.641   8
  -2   4  12 1589.89 190.947   6
   2  -4 -12 1651.92 164.308   3
  -2   4  11 2719.45 236.126   6
  -2   4  11 2954.95 219.948   1
   2  -4 -11 3092.72 229.842   8
   2  -4 -11 2800.08 206.979   3
  -2   4  10 5111.41 275.219   1
  -2   4  10 4752.31 298.681   6
  -2   4  10 5180.21 275.026  10
   2  -4 -10 4656.16 260.997   3
   2  -4 -10 5040.09 278.616   8
   2  -4  -9 2332.19 168.716   3
  -2   4   9 2194.19 172.992   1
  -2   4   9 2474.58 187.370  10
   2  -4  -9 2298.79 180.235   8
   2  -4  -8 25.3186 43.6169   3
   2  -4  -8-11.1267 49.6701   8
  -2   4   8 29.3996 48.5259   1
  -2   4   8 109.211 71.9573  10
  -2   4   7 1923.64 147.155   1
   2  -4  -7 2064.37 151.316   8
   2  -4  -7 1742.05 136.299   3
  -2   4   7 1973.52 159.854  10
   2  -4  -6 944.033 98.1466   8
   2  -4  -6 857.604 91.4282   3
  -2   4   6 941.652 99.3362   1
  -2   4   6 1133.60 120.951  10
   2  -4  -5 1620.78 116.164   3
  -2   4   5 1524.62 118.256   1
  -2   4   5 1639.32 135.073  10
   2  -4  -4 1315.77 98.7259   3
  -2   4   4 1314.15 122.115  10
  -2   4   4 1218.77 101.496   1
   2  -4  -4 1330.88 105.039   1
   2  -4  -3 85.7566 38.7188   1
   2  -4  -3 95.5900 37.0870   7
  -2   4   3 60.7513 30.5245   1
  -2   4   3 141.766 73.2497  10
   2  -4  -3 160.920 44.7545   3
   2  -4  -2 6271.02 205.690   7
   2  -4  -2 6053.64 216.079   1
  -2   4   2 6268.66 243.015  10
  -2   4   1 4150.65 169.339   3
   2  -4  -1 3878.79 156.187   3
   2  -4  -1 4312.62 169.969   1
  -2   4   1 3913.74 181.146  10
  -2   4   0 869.656 72.8011   3
   2  -4   0 797.823 65.0987   7
  -2   4   0 723.711 67.2584   2
   2  -4   0 744.650 73.4472   1
   2  -4   0 830.696 67.8925   3
  -2   4   0 733.021 76.0210  10
   2  -4   1 7645.65 235.990   1
  -2   4  -1 7736.76 242.078  10
  -2   4  -1 7500.02 237.060   2
   2  -4   1 7625.05 221.624   7
  -2   4  -1 7448.83 236.311   3
  -2   4  -2 12223.2 329.752   3
  -2   4  -2 11849.3 327.013   2
   2  -4   2 12534.7 311.025   7
  -2   4  -2 12627.1 321.008  10
   2  -4   2 12378.9 327.345   1
  -2   4  -3 102.207 30.5957   3
  -2   4  -3 132.684 31.5475  10
  -2   4  -3 168.924 43.6073   2
   2  -4   3 198.513 48.1818   1
   2  -4   3 181.888 42.4736   7
   2  -4   4 3207.82 152.334   7
   2  -4   4 3224.86 156.706   1
  -2   4  -4 3415.21 156.573   3
  -2   4  -4 3330.50 135.146  10
  -2   4  -4 3318.06 162.330   2
  -2   4  -5 15046.9 404.968   2
   2  -4   5 15719.5 410.936   1
  -2   4  -5 15382.2 404.062   3
  -2   4  -5 15117.1 351.328  10
   2  -4   5 14888.2 406.585   7
   2  -4   6 11477.7 353.433   1
   2  -4   6 11365.9 362.389   7
  -2   4  -6 11645.3 346.917   2
  -2   4  -6 12174.9 296.172  10
  -2   4  -6 11648.5 351.158   3
   2  -4   7 15837.9 440.927   1
  -2   4  -7 15110.4 421.946   2
  -2   4  -7 15351.5 434.759   3
   2  -4   7 15253.9 451.280   7
   2  -4   8 15335.9 449.456   1
  -2   4  -8 14846.6 425.787   2
  -2   4  -8 15076.4 442.917   3
   2  -4   8 14282.3 463.786   7
  -2   4  -9 4138.72 204.426   2
   2  -4   9 4398.45 229.022   1
   2  -4   9 3804.37 229.274   7
  -2   4  -9 3803.36 211.804   3
  -2   4 -10 1093.69 117.928   3
   2  -4  10 940.429 111.215   1
   2  -4  10 839.388 81.5891   6
  -2   4 -10 933.831 105.251   2
   2  -4  10 917.871 125.604   7
  -2   4 -11 17.8911 40.3937   3
   2  -4  11 112.529 68.3933   7
   2  -4  11-47.0312 56.5015   1
  -2   4 -11-8.37136 35.8506   2
  -2   4 -12-3.47215 50.3939   3
   2  -4  12 170.217 74.4947   7
   2  -4  12 137.594 46.8828   1
  -2   4 -12 54.0103 40.3181   2
   2  -4  13 1337.52 178.603   7
   2  -4  13 1593.35 166.322   1
  -2   4 -13 1674.30 143.417   2
  -2   4 -13 1261.63 145.614   3
  -2   4 -14 1489.63 169.700   3
  -2   4 -14 1521.09 141.621   2
   2  -4  14 1523.91 192.664   7
   2  -4  14 1827.78 182.884   1
   2  -4  15 1285.55 190.231   7
   2  -4  15 1480.44 178.625   1
   2  -4  16 471.811 109.303   1
   2  -4  17 285.053 95.6132   1
  -2   3  16 103.397 85.1515   6
  -2   3  16 53.8438 67.7744   1
  -2   3  15 1675.01 189.740   1
  -2   3  15 1365.78 190.659   6
  -2   3  14 1950.32 219.962   6
  -2   3  14 2086.14 201.996   1
  -2   3  13 3850.26 263.323   1
  -2   3  13 3482.93 271.970   6
   2  -3 -13 3683.06 253.550   3
  -2   3  12 4917.94 285.412   1
   2  -3 -12 5147.16 289.668   3
  -2   3  12 4811.11 310.276   6
  -2   3  11 4900.84 266.856   1
   2  -3 -11 4552.31 257.238   3
  -2   3  11 4840.23 289.303   6
   2  -3 -11 4652.74 270.546   8
  -2   3  10 2493.36 207.806   6
   2  -3 -10 2592.99 192.627   8
  -2   3  10 2401.21 176.689   1
   2  -3 -10 2391.53 175.167   3
  -2   3  10 2401.77 168.396  10
   2  -3  -9 395.324 68.7530   3
  -2   3   9 540.359 103.248   6
   2  -3  -9 357.305 67.2912   8
  -2   3   9 563.678 90.6976  10
  -2   3   9 429.987 77.4811   1
  -2   3   8 2113.68 152.557   1
  -2   3   8 1926.59 164.316   6
   2  -3  -8 2208.75 156.730   8
  -2   3   8 1914.00 142.307  10
   2  -3  -8 2052.29 142.367   3
  -2   3   7 10369.3 342.052   1
   2  -3  -7 10987.8 356.296   8
  -2   3   7 10779.8 352.076  10
   2  -3  -7 10124.4 334.767   3
  -2   3   6 13403.9 379.711   1
   2  -3  -6 13221.3 384.100   8
  -2   3   6 13378.5 392.899  10
   2  -3  -6 13284.8 375.685   3
  -2   3   5 26449.3 575.079   1
   2  -3  -5 25223.2 575.893   8
   2  -3  -5 25031.1 563.224   3
  -2   3   5 24908.6 432.896   2
  -2   3   5 27663.0 606.840  10
  -2   3   4 11978.3 327.093   1
  -2   3   4 12765.7 244.617   2
  -2   3   4 12554.8 357.097  10
   2  -3  -4 12299.3 333.361   1
   2  -3  -4 11677.5 320.653   3
  -2   3   3 21745.1 506.667  10
  -2   3   3 22460.8 412.907   2
  -2   3   3 21491.9 479.750   1
   2  -3  -3 22720.8 487.546   1
   2  -3  -3 21614.4 471.754   3
   2  -3  -2 6052.24 190.342   3
   2  -3  -2 6305.47 198.504   7
  -2   3   2 6419.39 218.127  10
  -2   3   2 6568.53 168.305   2
   2  -3  -2 6452.34 201.176   1
   2  -3  -1 1364.43 84.1468   1
  -2   3   1 1458.89 92.8104  10
  -2   3   1 1423.08 73.9522   2
   2  -3  -1 1345.43 77.8780   3
  -2   3   1 1251.20 81.3590   3
  -2   3   0 6465.18 196.214   2
   2  -3   0 7164.82 203.545   7
   2  -3   0 7311.94 207.850   1
  -2   3   0 7153.23 214.468  10
  -2   3   0 7044.55 204.332   3
  -2   3  -1 22224.1 464.007   2
   2  -3   1 21917.0 467.080   7
  -2   3  -1 22759.0 469.694   3
   2  -3   1 22871.2 470.343   1
  -2   3  -1 22457.0 470.119  10
   2  -3   2 17694.2 396.344   7
   2  -3   2 18172.0 401.376   1
  -2   3  -2 16528.5 380.141  10
  -2   3  -2 17781.6 395.613   3
  -2   3  -2 17920.1 396.464   2
   2  -3   3 525.920 61.2367   7
  -2   3  -3 520.277 55.2525   3
  -2   3  -3 523.489 49.7743  10
   2  -3   3 538.541 58.0825   1
  -2   3  -3 544.287 61.3272   2
   2  -3   4 4941.16 192.576   7
  -2   3  -4 5019.50 164.561  10
   2  -3   4 4829.33 185.200   1
  -2   3  -4 5094.64 189.387   2
  -2   3  -4 4767.82 181.845   3
   2  -3   5 825.421 83.0939   7
   2  -3   5 836.226 79.2257   1
  -2   3  -5 819.813 77.8849   3
  -2   3  -5 824.007 81.9142   2
   2  -3   6 1599.72 114.551   1
   2  -3   6 1553.46 125.740   7
  -2   3  -6 1669.29 109.526   2
   2  -3   6 1441.10 77.9014   6
  -2   3  -6 1463.74 106.648   3
   2  -3   7 173.697 35.1513   6
   2  -3   7 153.336 46.1514   1
   2  -3   7 134.065 51.6162   7
  -2   3  -7 214.799 52.0701   2
  -2   3  -7 166.747 49.3050   3
  -2   3  -8 25.0855 36.3044   3
   2  -3   8 91.9563 53.5988   7
   2  -3   8 37.4035 31.6098   6
   2  -3   8 3.93938 42.5794   1
  -2   3  -8 86.6020 44.5555   2
   2  -3   9 1512.61 135.276   1
   2  -3   9 1377.55 101.072   6
  -2   3  -9 1477.51 116.481   2
  -2   3  -9 1436.41 128.930   3
   2  -3   9 1336.80 140.446   7
   2  -3  10 3856.34 242.770   7
   2  -3  10 4110.78 228.990   1
  -2   3 -10 3825.19 197.788   2
  -2   3 -10 3754.07 219.910   3
  -2   3 -11 2933.64 178.345   2
   2  -3  11 3189.83 230.431   7
   2  -3  11 2900.23 202.699   1
  -2   3 -11 2787.84 197.067   3
   2  -3  12 5643.52 302.943   1
  -2   3 -12 5618.71 256.755   2
  -2   3 -12 5746.83 301.061   3
   2  -3  12 5089.23 247.331   6
   2  -3  12 5063.04 310.598   7
   2  -3  13 3484.35 244.368   1
  -2   3 -13 3542.03 203.520   2
  -2   3 -13 3239.35 234.678   3
  -2   3 -14 1171.96 152.475   3
   2  -3  14 1041.31 171.473   7
   2  -3  14 1129.39 146.827   1
   2  -3  15-17.0774 55.5091   1
   2  -3  16-5.28895 69.9949   1
  -2   2  16 58.9528 63.3228   6
  -2   2  16 12.3385 66.3276   1
  -2   2  15 246.888 84.5244   1
  -2   2  15 231.633 90.7752   6
  -2   2  14 181.578 98.1878   6
  -2   2  14 40.9139 54.8085   1
   2  -2 -14 114.931 56.1491   3
   2  -2 -13 165.566 67.2390   3
  -2   2  13 242.877 65.3897   1
  -2   2  13 174.895 86.4902   6
  -2   2  12 69.8781 70.2876   6
   2  -2 -12-28.2215 44.1618   3
  -2   2  12 25.7790 54.4169   1
   2  -2 -11 937.128 116.967   3
  -2   2  11 804.073 119.797   6
  -2   2  11 1070.43 119.974   1
   2  -2 -10 1968.90 159.873   8
  -2   2  10 2013.45 153.985   1
  -2   2  10 1853.07 168.422   6
   2  -2 -10 2059.10 154.041   3
   2  -2  -9 8212.09 312.869   8
  -2   2   9 7800.60 300.314   1
   2  -2  -9 7836.97 301.268   3
  -2   2   9 7837.17 271.006  10
  -2   2   9 7345.83 329.550   6
  -2   2   8 11331.5 360.465   1
   2  -2  -8 11667.4 371.738   8
  -2   2   8 11839.0 339.870  10
  -2   2   8 10795.3 395.039   6
   2  -2  -8 11889.1 364.398   3
  -2   2   7 16510.3 417.692  10
  -2   2   7 16217.6 469.227   6
   2  -2  -7 17070.2 445.036   8
  -2   2   7 16293.5 432.185   1
   2  -2  -7 16767.5 438.323   3
  -2   2   6 6587.80 224.210  10
  -2   2   6 6280.74 222.193   1
  -2   2   6 6857.88 259.989   6
   2  -2  -6 6365.72 223.426   3
   2  -2  -6 6291.09 227.974   8
  -2   2   5 3238.27 143.716   1
  -2   2   5 3535.91 173.464   6
   2  -2  -5 3048.24 139.717   8
  -2   2   5 3016.56 134.914  10
   2  -2  -5 3115.40 137.701   3
  -2   2   4 3058.71 141.658   6
  -2   2   4 3049.13 128.017   1
   2  -2  -4 2929.99 127.578   3
  -2   2   4 2904.67 131.553  10
  -2   2   3 8229.41 220.370   1
   2  -2  -3 8935.36 227.275   1
  -2   2   3 8332.88 236.752   6
  -2   2   3 8478.00 235.358  10
  -2   2   3 7997.94 158.950   2
   2  -2  -3 8360.57 218.140   3
   2  -2  -2 23907.1 484.891   7
  -2   2   2 23536.8 424.742   2
   2  -2  -2 24486.1 470.020   1
  -2   2   2 23994.7 476.355   6
   2  -2  -2 24142.3 461.402   3
  -2   2   2 23459.5 486.588  10
  -2   2   1 28389.9 505.994   2
   2  -2  -1 27455.8 541.106   7
  -2   2   1 27102.0 544.443  10
   2  -2  -1 28944.8 516.691   3
  -2   2   1 27560.2 513.152   3
   2  -2  -1 27262.9 525.107   1
  -2   2   1 28794.1 527.616   3
   2  -2   0 45734.5 758.398   4
   2  -2   0 42876.0 796.756   7
   2  -2   0 44154.2 784.010   1
  -2   2   0 45070.0 779.181   2
  -2   2   0 43840.9 801.319  10
   2  -2   0 44194.6 779.730   3
  -2   2   0 43635.5 769.778   3
  -2   2   0 44529.8 780.973   3
  -2   2  -1 143229. 2245.61   3
   2  -2   1 135175. 2254.66   7
   2  -2   1 130315. 2244.69   1
  -2   2  -1 133358. 2253.02  10
   2  -2   1 142202. 2221.59   4
  -2   2  -1 142752. 2251.81   2
  -2   2  -2 14367.3 311.823   3
  -2   2  -2 14240.6 313.142  10
  -2   2  -2 13108.7 317.693   2
   2  -2   2 14047.9 317.491   1
   2  -2   3 1053.80 73.9553   1
  -2   2  -3 942.741 76.3784   2
   2  -2   3 946.958 80.2984   7
  -2   2  -3 1074.46 70.8864   3
   2  -2   4 953.357 76.5247   1
  -2   2  -4 812.022 70.3907   2
   2  -2   4 976.509 87.2353   7
  -2   2  -4 1013.48 75.9636   3
   2  -2   5 4529.76 202.457   7
   2  -2   5 4894.46 190.319   1
  -2   2  -5 4784.30 179.147   2
  -2   2  -5 4825.39 185.348   3
  -2   2  -6 171.962 41.9645   3
   2  -2   6 171.538 42.0146   1
   2  -2   6 151.836 50.3146   7
  -2   2  -6 111.008 32.9836   2
   2  -2   7 4011.35 195.225   1
   2  -2   7 3973.88 206.163   7
  -2   2  -7 4107.45 182.167   2
  -2   2  -7 4130.20 194.977   3
  -2   2  -8 3002.52 157.737   2
   2  -2   8 3184.73 182.156   1
   2  -2   8 2846.16 117.552   5
  -2   2  -8 2966.25 174.439   3
   2  -2   8 3238.85 199.876   7
  -2   2  -9 1.13503 35.2769   3
   2  -2   9 37.2675 50.9881   1
   2  -2   9 11.7773 50.2026   7
  -2   2  -9-7.54620 32.0609   2
  -2   2 -10 48.4996 43.9221   3
   2  -2  10 18.3068 44.9162   7
   2  -2  10-8.43876 44.2120   1
  -2   2 -10 71.5701 43.9261   2
   2  -2  11 691.949 122.503   7
   2  -2  11 560.000 88.6242   6
   2  -2  11 662.935 106.661   1
  -2   2 -11 638.370 84.6800   2
  -2   2 -11 662.121 102.556   3
  -2   2 -12 39.5090 46.0613   3
   2  -2  12 95.0810 65.2378   7
   2  -2  12 89.5920 52.3522   6
  -2   2 -12-25.5197 40.6324   2
   2  -2  12 113.937 51.7621   1
   2  -2  13 245.566 85.7692   7
   2  -2  13 188.236 77.7556   1
   2  -2  13 207.051 71.5112   6
  -2   2 -13 307.756 75.2098   3
   2  -2  14 27.6898 50.9910   1
   2  -2  14-50.4274 47.4883   6
  -2   2 -14-14.7833 60.6603   3
   2  -2  15 433.526 109.725   1
   2  -2  16 683.014 132.178   1
  -2   1  17 52.9011 67.4469   6
  -2   1  17 172.572 78.2694   1
  -2   1  16 113.017 86.0029   1
  -2   1  16-94.0817 84.0574   6
   2  -1 -15 300.282 86.3357   3
  -2   1  15 228.323 80.3955   1
  -2   1  15 278.547 82.5062   6
  -2   1  14 1348.82 166.828   6
   2  -1 -14 1396.67 154.368   3
  -2   1  14 1345.22 151.639   1
   2  -1 -13 417.921 88.4480   3
  -2   1  13 494.450 92.5782   1
  -2   1  13 394.645 90.2032   6
  -2   1  12 1203.05 140.419   6
   2  -1 -12 1406.94 136.415   3
  -2   1  12 1327.35 138.832   1
  -2   1  11 271.825 66.4065   1
  -2   1  11 255.812 76.8724   6
   2  -1 -11 212.809 63.5212   3
  -2   1  10 369.326 75.7019   1
   2  -1 -10 387.020 71.8986   3
  -2   1  10 292.548 76.3010   6
  -2   1   9 534.711 85.0751   6
   2  -1  -9 430.901 64.7111   3
  -2   1   9 416.374 69.7448   1
  -2   1   9 427.011 50.6343  10
   2  -1  -8 152.469 45.5682   8
  -2   1   8 116.744 37.3635   1
   2  -1  -8 169.965 44.8650   3
  -2   1   8 57.7842 35.2128   6
  -2   1   8 145.475 28.8336  10
  -2   1   7 40.3625 33.1728   1
  -2   1   7 38.4408 35.7514   6
  -2   1   7 0.29858 18.8222  10
   2  -1  -7-10.0108 26.2793   3
   2  -1  -7-6.32589 26.6563   8
   2  -1  -6 2808.44 132.745   8
  -2   1   6 2548.01 147.368   6
  -2   1   6 2636.77 113.144  10
  -2   1   6 2614.40 126.226   1
   2  -1  -6 2468.94 123.120   3
   2  -1  -5 4852.43 167.111   8
  -2   1   5 5132.63 194.918   6
  -2   1   5 4766.28 155.506  10
   2  -1  -5 4944.74 165.340   3
  -2   1   5 4788.41 162.894   1
  -2   1   4 22344.0 495.429   6
  -2   1   4 22520.0 455.571   1
   2  -1  -4 24548.3 465.214   8
   2  -1  -4 23288.9 458.284   3
  -2   1   4 22753.3 460.717  10
  -2   1   3 18337.2 329.356   2
  -2   1   3 19095.7 387.530  10
  -2   1   3 19336.2 407.227   6
   2  -1  -3 17781.9 369.880   1
   2  -1  -3 19273.2 370.271   3
  -2   1   3 19488.5 368.721   1
  -2   1   2 14528.7 271.174   2
   2  -1  -2 14259.1 278.060   1
   2  -1  -2 13889.1 275.037   3
  -2   1   2 13460.9 272.125   3
   2  -1  -2 13916.3 306.515   7
  -2   1   2 14091.9 306.149  10
  -2   1   1 6685.33 163.140   2
  -2   1   1 6992.16 149.317   3
  -2   1   1 6838.23 181.982  10
   2  -1  -1 6343.76 143.030   3
  -2   1   1 6535.91 142.183   3
   2  -1   0 732.436 52.5493   7
  -2   1   0 618.293 48.4301   2
  -2   1   0 785.346 40.4103   3
   2  -1   0 601.259 41.5207   1
  -2   1   0 685.273 53.1385  10
   2  -1   0 624.453 38.7038   3
   2  -1   1 1549.65 81.5112   7
  -2   1  -1 1729.78 83.8413   2
   2  -1   1 1577.74 67.6906   3
   2  -1   1 1606.80 72.2766   1
  -2   1  -1 1573.92 66.9499   3
   2  -1   2 849.191 58.5157   1
  -2   1  -2 940.152 64.8189   2
   2  -1   2 850.780 63.9984   7
  -2   1  -2 856.158 54.7514   3
  -2   1  -3 25314.3 487.043   3
   2  -1   3 23484.3 491.067   1
  -2   1  -3 23267.3 495.415   2
   2  -1   3 23451.7 507.592   7
   2  -1   4 23852.0 512.759   1
  -2   1  -4 24255.2 508.786   2
   2  -1   4 23384.2 537.688   7
  -2   1  -4 24012.1 507.129   3
  -2   1  -5 30105.6 631.056   2
   2  -1   5 30119.6 645.082   1
   2  -1   5 30165.0 669.761   7
  -2   1  -5 32127.7 644.976   3
   2  -1   6 15462.4 356.262   5
  -2   1  -6 16132.8 400.698   2
  -2   1  -6 15513.7 409.450   3
   2  -1   6 15351.0 433.772   7
   2  -1   6 16131.5 422.903   1
   2  -1   7 4035.14 212.654   7
   2  -1   7 3981.70 196.689   1
  -2   1  -7 4234.36 183.404   2
   2  -1   7 4299.50 156.467   5
  -2   1  -7 4249.35 197.020   3
   2  -1   8 2735.37 185.236   7
  -2   1  -8 2757.33 152.024   2
  -2   1  -8 2788.80 169.796   3
   2  -1   8 2752.62 171.502   1
   2  -1   8 3015.89 132.014   5
   2  -1   9 982.095 123.977   7
   2  -1   9 975.357 110.248   1
  -2   1  -9 514.021 78.3362   2
  -2   1  -9 1016.75 113.515   3
   2  -1  10 31.1671 47.5812   7
  -2   1 -10 101.777 50.1944   2
  -2   1 -10-33.5253 48.3814   3
   2  -1  10 134.356 57.6279   1
   2  -1  11 3842.52 236.571   1
  -2   1 -11 3018.33 183.435   2
   2  -1  11 3547.24 256.038   7
  -2   1 -11 3776.31 231.036   3
   2  -1  12 2898.40 218.179   1
  -2   1 -12 2955.62 183.356   2
  -2   1 -12 2962.83 216.786   3
   2  -1  13 485.461 96.1702   6
  -2   1 -13 513.957 100.259   3
   2  -1  13 423.200 99.6857   1
  -2   1 -14 77.4018 63.0130   3
   2  -1  14 124.513 69.4486   6
   2  -1  14 85.4483 61.6902   1
   2  -1  15 113.998 69.1231   6
   2  -1  15 253.471 97.1647   1
   2  -1  16-52.1530 55.9256   1
  -2   0  17 894.912 143.559   1
  -2   0  17 729.345 137.158   6
  -2   0  16 1466.28 179.051   6
  -2   0  16 2151.49 201.961   1
   2   0 -15 3983.47 263.326   3
  -2   0  15 3597.30 251.872   1
  -2   0  15 3409.59 258.719   6
  -2   0  14 3493.16 233.770   1
  -2   0  14 3272.02 242.419   6
   2   0 -14 3459.43 236.497   3
  -2   0  13 2983.75 218.806   6
   2   0 -13 3128.57 209.408   3
  -2   0  13 3116.39 210.886   1
  -2   0  12 681.834 96.0004   1
   2   0 -12 647.563 93.9615   3
  -2   0  12 646.993 94.9181   6
   2   0 -11 100.009 44.8813   3
  -2   0  11 117.256 52.7409   1
  -2   0  11 83.5069 55.0929   6
  -2   0  10 2252.38 148.255   1
  -2   0  10 2025.93 157.773   6
   2   0 -10 2027.84 113.112   9
   2   0 -10 2484.57 156.355   3
   2   0  -9 88.9261 29.3291   9
  -2   0   9 110.025 22.7297  10
  -2   0   9 141.912 46.7504   6
  -2   0   9 52.5798 39.2677   1
   2   0  -9 87.3653 18.1489   5
   2   0  -9 125.702 43.2511   3
   2   0  -9 107.095 14.8823   2
  -2   0   8 13638.8 294.315  10
   2   0  -8 13673.0 338.439   9
  -2   0   8 13949.3 369.568   1
   2   0  -8 13395.5 263.693   2
  -2   0   8 13032.7 401.499   6
   2   0  -8 14262.7 375.305   3
  -2   0   7 4736.32 138.745  10
  -2   0   7 4639.10 177.398   1
  -2   0   7 4495.59 204.478   6
   2   0  -7 4661.36 119.618   2
   2   0  -7 5217.60 186.702   3
  -2   0   6 8991.36 242.524   1
   2   0  -6 8457.45 217.454  10
  -2   0   6 8794.21 210.159  10
   2   0  -6 8681.25 243.776   3
  -2   0   6 9400.63 285.413   6
   2   0  -5 403.269 41.9129   3
   2   0  -5 460.665 44.0960   8
  -2   0   5 414.527 40.2620   1
  -2   0   5 419.568 37.3422  10
  -2   0   5 455.863 59.1963   6
   2   0  -5 432.681 40.3167  10
  -2   0   4 55.1204 18.3728   1
  -2   0   4 44.2892 17.7795  10
  -2   0   4 60.9231 28.9894   6
  -2   0   4 52.2636 17.1160   2
   2   0  -4 65.9610 20.9213  10
   2   0  -4 70.0080 20.1864   3
  -2   0   3 80.2396 14.1101   1
  -2   0   3 81.5725 20.7227  10
  -2   0   3 91.6570 20.0332   2
  -2   0   3 65.9347 26.3290   6
  -2   0   3 74.7531 16.9277   3
   2   0  -3 71.2096 17.7255   3
  -2   0   2 619.150 42.4473   2
  -2   0   2 732.944 54.6612   6
   2   0  -2 375.193 46.4786   7
   2   0  -2 633.403 26.3604   3
  -2   0   2 647.304 27.1254   3
  -2   0   1 1344.49 60.9351   7
   2   0  -1 1332.15 62.7052   7
  -2   0   1 1288.54 69.4807   2
   2   0   0 3503.95 110.822   7
   2   0   0 3505.30 93.1988   1
  -2   0   0 3522.62 83.6709   3
  -2   0   0 3741.87 123.926   2
  -2   0   0 3232.11 107.082   7
   2   0   0 3562.06 85.3768   3
   2   0   1 5688.43 165.502   7
  -2   0  -1 6181.60 180.139   2
  -2   0  -1 6267.80 148.901   3
   2   0   1 6047.38 147.409   3
   2   0   1 6164.70 156.412   1
  -2   0  -2 5638.17 189.272   2
   2   0   2 6202.72 185.998   7
   2   0   2 6041.21 173.972   1
  -2   0  -2 6272.31 167.486   3
   2   0   3 12539.2 308.094   1
  -2   0  -3 12651.2 300.343   3
   2   0   3 12722.0 322.591   7
   2   0   4 3393.13 147.757   1
   2   0   4 3541.02 142.514   5
  -2   0  -4 3445.35 148.227   2
   2   0   4 3755.28 161.965   7
  -2   0  -4 3735.11 148.258   3
   2   0   5 2006.05 126.562   7
  -2   0  -5 1931.87 116.298   3
   2   0   5 1773.35 114.507   1
   2   0   5 2010.55 64.8584   9
   2   0   5 1855.27 105.800   5
  -2   0  -6 119.296 35.5296   3
   2   0   6 105.659 39.1044   7
   2   0   6 162.260 42.8573   5
  -2   0  -6 128.921 42.4615   2
   2   0   6 110.361 37.8901   1
   2   0   7 5524.26 241.274   1
   2   0   7 5655.75 256.271   7
   2   0   7 5674.89 206.041   5
  -2   0  -7 5903.82 239.612   3
   2   0   8 9185.60 357.802   7
   2   0   8 9234.24 338.480   1
   2   0   8 9009.80 285.835   5
  -2   0  -8 8874.44 298.836   2
  -2   0  -8 9497.43 333.290   3
   2   0   9 11808.7 409.506   1
  -2   0  -9 11829.7 362.037   2
  -2   0  -9 11610.8 398.041   3
  -2   0 -10 3885.55 194.939   2
   2   0  10 3787.90 242.968   7
   2   0  10 3580.95 224.913   1
  -2   0 -10 3804.06 226.065   3
  -2   0 -11 3027.22 179.799   2
  -2   0 -11 3305.15 219.802   3
   2   0  11 3389.84 228.985   1
  -2   0 -12 3049.37 223.419   3
   2   0  12 3072.50 231.315   1
  -2   0 -13 463.552 105.828   3
   2   0  13 534.182 110.048   1
   2   0  14 81.0750 56.9123   1
   2   0  14 107.307 80.2331   6
   2   0  15 421.583 97.8929   6
   2   0  15 319.354 96.8436   1
   2   0  16 476.197 104.125   6
  -2  -1  18 213.173 89.2805   6
  -2  -1  18 162.627 80.0700   1
  -2  -1  17 384.447 112.503   6
  -2  -1  17 218.815 81.3325   1
  -2  -1  16 299.647 82.7503   1
  -2  -1  16 335.547 79.7288   6
   2   1 -16 326.793 84.8372   3
   2   1 -15 391.651 86.5291   3
  -2  -1  15 241.930 71.9945   1
  -2  -1  15 243.940 76.7202   6
  -2  -1  14 18.2138 39.8144   1
   2   1 -14 40.9810 49.2048   3
  -2  -1  14 87.6157 58.8840   6
  -2  -1  13 1673.71 146.507   1
  -2  -1  13 1312.11 148.090   6
   2   1 -13 1463.82 139.043   3
  -2  -1  12 5679.67 261.881   1
  -2  -1  12 4802.44 268.850   6
   2   1 -12 5710.57 266.032   3
   2   1 -11 9186.29 288.417   9
  -2  -1  11 9513.04 334.245   1
  -2  -1  11 9175.88 362.862   6
   2   1 -11 9760.71 342.653   3
  -2  -1  10 15632.2 434.524   1
  -2  -1  10 15507.0 472.484   6
   2   1 -10 15407.5 337.317   2
   2   1 -10 15395.3 396.928   9
   2   1 -10 15389.2 437.332   3
  -2  -1   9 11857.1 346.489   1
   2   1  -9 11828.6 326.737   9
   2   1  -9 11934.7 280.030   2
  -2  -1   9 12513.0 389.007   6
   2   1  -9 12259.3 355.617   3
   2   1  -8 8964.89 206.054  10
  -2  -1   8 9232.65 313.977   6
   2   1  -8 9288.73 197.577   5
   2   1  -8 9245.50 281.933   3
  -2  -1   8 9266.56 277.201   1
   2   1  -8 9114.24 270.951   9
   2   1  -7 576.478 61.1588   9
  -2  -1   7 568.880 74.2150   6
   2   1  -7 598.813 40.6933   5
   2   1  -7 510.812 36.5934  10
   2   1  -7 562.513 60.0849   3
  -2  -1   7 512.496 56.2068   1
  -2  -1   6 68.3991 27.4014   1
   2   1  -6 21.9492 22.7599   9
  -2  -1   6 59.1632 30.7060   6
   2   1  -6 76.3979 19.9527   5
   2   1  -6 24.5708 13.0299   4
   2   1  -6 41.6100 23.7170   3
   2   1  -6 60.9336 16.4548  10
  -2  -1   5 1063.88 59.0261   1
  -2  -1   5 1214.64 88.2016   6
   2   1  -5 1086.27 63.3337   5
   2   1  -5 1022.16 74.1358   9
   2   1  -5 1062.59 57.5214  10
   2   1  -5 1072.69 63.8321   3
   2   1  -4 75371.3 1318.39   9
  -2  -1   4 75975.8 1235.53   1
   2   1  -4 78303.9 1282.01   5
   2   1  -4 73781.7 1251.49   3
  -2  -1   4 76827.2 1255.96   3
  -2  -1   3 24295.3 485.579   2
  -2  -1   3 25762.8 523.998   6
  -2  -1   3 25495.8 443.151   3
   2   1  -3 25258.9 495.946   5
   2   1  -3 25719.4 440.068   3
   2   1  -2 34168.6 640.347   5
  -2  -1   2 33055.5 625.527   2
  -2  -1   2 34188.0 651.121   6
  -2  -1   1 16503.4 358.564   2
   2   1  -1 16760.5 313.881   7
   2   1  -1 16671.8 290.880   1
  -2  -1   1 15871.5 362.563   6
  -2  -1   0 6320.92 153.306   7
  -2  -1   0 6783.11 196.295   6
   2   1   0 6105.80 183.112   9
  -2  -1   0 6450.94 191.703   2
   2   1   0 6823.92 160.891   7
   2   1   0 6039.09 199.704   5
  -2  -1   0 6906.46 148.944   3
   2   1   0 6588.98 154.557   1
   2   1   0 6721.11 146.793   3
  -2  -1  -1 4035.54 151.052   2
   2   1   1 4060.51 133.264   9
   2   1   1 3498.34 146.673   5
   2   1   1 4146.82 129.569   7
   2   1   1 4031.98 126.989   1
  -2  -1  -1 4175.30 121.713   3
  -2  -1  -1 4083.58 125.243   7
   2   1   2 40.9925 16.8531   9
   2   1   2 32.2383 21.6708   1
  -2  -1  -2 33.3778 24.1782   2
   2   1   2 32.3823 24.7176   7
   2   1   2 52.7426 29.8955   5
  -2  -1  -2 10.1781 17.2478   3
   2   1   3 716.221 63.5928   7
   2   1   3 637.198 46.6047   9
  -2  -1  -3 710.221 67.1332   2
   2   1   3 713.957 64.3935   1
   2   1   3 669.391 68.9254   5
  -2  -1  -3 654.338 58.1917   3
   2   1   4 148.860 38.6676   1
   2   1   4 193.429 25.9121   9
   2   1   4 256.673 48.0161   5
  -2  -1  -4 172.539 37.1639   2
   2   1   4 163.450 37.4464   7
  -2  -1  -4 202.495 40.9002   3
   2   1   5 2152.86 135.778   7
   2   1   5 2214.43 133.942   1
  -2  -1  -5 2232.68 127.359   3
   2   1   5 2280.96 130.136   5
   2   1   6 5.00803 35.7947   1
  -2  -1  -6-18.7883 31.7905   3
   2   1   6 57.1029 44.0106   7
  -2  -1  -6 24.3471 31.6406   2
   2   1   6 43.7495 32.9488   5
   2   1   7 581.870 83.6788   1
   2   1   7 623.297 89.3381   7
   2   1   7 548.780 74.7946   5
  -2  -1  -7 694.837 85.5683   3
  -2  -1  -7 606.027 73.6565   2
  -2  -1  -8 884.171 93.8606   2
   2   1   8 760.348 105.887   7
   2   1   8 835.933 103.339   1
  -2  -1  -8 946.583 104.134   3
   2   1   8 635.590 84.9916   5
   2   1   9 221.427 67.1444   1
  -2  -1  -9 255.906 53.3393   2
  -2  -1  -9 107.775 44.7201   3
   2   1  10 178.318 50.5438   1
  -2  -1 -10 149.621 44.1077   2
  -2  -1 -10 134.223 53.5836   3
   2   1  11 698.887 116.561   1
  -2  -1 -11 780.261 113.563   3
  -2  -1 -12 957.816 132.005   3
   2   1  12 1200.41 152.286   1
   2   1  13 1598.56 177.267   1
  -2  -1 -13 1518.88 169.973   3
   2   1  14 2250.45 223.709   1
   2   1  15 969.228 160.219   6
  -2  -2  18-134.843 82.6879   1
  -2  -2  18 307.426 104.682   6
  -2  -2  17 230.891 81.6158   1
  -2  -2  17 112.656 71.9367   6
  -2  -2  16 57.7647 50.4221   6
   2   2 -16 63.1079 61.4654   3
  -2  -2  16 85.1045 58.6753   1
  -2  -2  15-11.5746 46.2322   1
  -2  -2  15 92.3672 65.4634   6
   2   2 -14 467.866 87.5671   3
  -2  -2  14 449.367 81.7612   1
  -2  -2  14 335.182 79.0914   6
   2   2 -13 175.011 61.8688   3
  -2  -2  13 59.7830 45.9829   1
  -2  -2  13 78.0987 50.1890   6
   2   2 -12 216.860 57.0111   3
  -2  -2  12 206.147 55.3885   1
  -2  -2  12 184.804 62.2158   6
  -2  -2  11 715.886 92.1625   1
   2   2 -11 570.223 82.4095   3
  -2  -2  11 545.482 86.2706   6
   2   2 -11 646.211 63.5473   2
  -2  -2  10 292.832 66.3649   6
   2   2 -10 309.832 49.8349   2
  -2  -2  10 238.341 45.0408   1
   2   2 -10 266.232 56.8483   3
   2   2 -10 435.450 68.4793   9
   2   2  -9 298.353 47.9241   2
  -2  -2   9 382.788 57.1442   1
  -2  -2   9 306.482 60.3837   6
   2   2  -9 342.288 34.7018   5
   2   2  -9 348.818 57.4983   3
   2   2  -9 251.111 50.1646   9
   2   2  -8 2980.83 83.0814  10
  -2  -2   8 3411.40 147.222   1
   2   2  -8 3101.22 154.931   9
  -2  -2   8 3278.76 173.464   6
   2   2  -8 3319.96 114.168   5
   2   2  -8 3333.25 132.250   4
   2   2  -8 3375.87 154.641   3
  -2  -2   7 7295.61 261.250   6
   2   2  -7 7571.88 202.501   5
   2   2  -7 7628.16 195.119   4
  -2  -2   7 7354.19 216.958   1
   2   2  -7 7560.70 171.930  10
   2   2  -7 7428.34 228.518   3
   2   2  -7 7406.80 246.614   9
  -2  -2   6 17759.1 376.358   1
   2   2  -6 17290.5 429.397   9
   2   2  -6 18579.9 385.741   5
  -2  -2   6 18244.9 447.070   6
   2   2  -6 17943.0 354.237  10
   2   2  -6 17346.9 389.301   3
  -2  -2   5 18001.6 434.036   6
  -2  -2   5 17937.2 357.596   1
   2   2  -5 18107.1 394.072   5
   2   2  -5 17735.7 371.243   3
   2   2  -5 18188.1 430.007   9
  -2  -2   4 16354.6 316.081   1
  -2  -2   4 16773.9 401.297   6
   2   2  -4 17112.9 376.644   5
   2   2  -4 16269.4 397.768   9
  -2  -2   4 16981.6 339.237   3
   2   2  -4 16574.8 332.260   3
  -2  -2   4 16429.0 374.697   2
   2   2  -3 4455.97 165.867   9
   2   2  -3 4244.99 157.635   5
  -2  -2   3 4208.69 153.181   2
  -2  -2   3 3848.37 158.347   6
   2   2  -3 4218.06 113.592   3
  -2  -2   3 4223.56 115.573   3
   2   2  -2 4668.12 110.310   1
  -2  -2   2 4553.19 161.113   2
  -2  -2   2 4776.01 171.242   6
   2   2  -2 4715.53 172.534   5
   2   2  -2 4407.59 108.128   7
   2   2  -2 4632.33 119.683   3
   2   2  -2 4720.55 114.057   3
   2   2  -2 4539.51 168.772   9
   2   2  -1 1208.49 81.1475   9
   2   2  -1 1178.57 53.9853   1
   2   2  -1 1058.07 42.5245   7
   2   2  -1 1119.02 55.5540   3
  -2  -2   1 1159.66 82.4678   6
   2   2  -1 1044.62 84.2789   5
  -2  -2   1 1080.74 51.3681   3
  -2  -2   1 1232.10 79.5619   2
   2   2  -1 1198.26 52.3689   3
  -2  -2   0 74740.4 1274.04   8
  -2  -2   0 76589.2 1229.65   7
   2   2   0 77001.4 1238.95   7
  -2  -2   0 72606.1 1333.10   6
  -2  -2   0 74866.8 1322.68   2
   2   2   0 75976.6 1314.63   9
  -2  -2   0 75547.3 1259.95   3
   2   2   0 75586.6 1268.05   1
   2   2   1 11951.9 260.659   7
   2   2   1 11828.8 283.770   1
  -2  -2  -1 12022.4 288.807   8
   2   2   1 11889.0 330.951   5
   2   2   1 11455.2 289.788   9
  -2  -2  -1 12069.8 260.954   7
  -2  -2  -1 11417.9 307.065   2
  -2  -2  -1 11737.8 272.617   3
  -2  -2  -2 32861.8 653.854   2
  -2  -2  -2 33212.6 646.090   8
   2   2   2 28592.2 609.012   9
   2   2   2 31822.5 631.977   1
   2   2   2 29821.6 671.018   5
  -2  -2  -2 32975.8 626.316   3
   2   2   2 33345.7 611.109   7
  -2  -2  -3 17446.9 425.263   2
  -2  -2  -3 17402.3 429.527   8
   2   2   3 17290.7 421.437   1
  -2  -2  -3 17566.0 412.066   3
   2   2   3 18297.9 410.149   7
   2   2   3 17881.8 454.724   5
   2   2   4 9440.97 309.255   5
  -2  -2  -4 9493.72 302.327   8
   2   2   4 8977.35 277.156   7
   2   2   4 9514.83 294.663   1
  -2  -2  -4 9243.46 283.170   2
  -2  -2  -4 9094.94 282.430   3
   2   2   5 6756.06 246.282   7
   2   2   5 6427.77 253.032   1
   2   2   5 6559.74 262.191   5
  -2  -2  -5 6345.91 241.365   3
  -2  -2  -5 7072.84 243.288   2
  -2  -2  -6 1619.32 114.405   2
   2   2   6 1439.78 127.953   5
  -2  -2  -6 1577.23 122.697   3
   2   2   6 1435.85 122.505   1
  -2  -2  -7 251.598 57.5177   3
   2   2   7 248.074 64.9915   1
  -2  -2  -7 248.632 54.2087   2
   2   2   7 265.503 66.8210   5
  -2  -2  -8 519.156 79.7039   3
   2   2   8 544.318 87.9000   1
  -2  -2  -8 593.236 77.3691   2
   2   2   8 513.243 95.0650   5
  -2  -2  -9 1289.36 110.287   2
  -2  -2  -9 1242.17 129.338   3
   2   2   9 1085.53 128.831   1
   2   2  10 354.381 87.0777   1
  -2  -2 -10 340.605 85.5107   3
  -2  -2 -10 444.117 68.8084   2
  -2  -2 -11 65.2285 43.7365   3
   2   2  11 162.031 59.4408   1
  -2  -2 -12 83.0950 54.7814   3
   2   2  12 182.496 77.2567   1
   2   2  13 34.2496 51.6457   1
   2   2  14-23.2791 64.2305   1
  -2  -3  18 839.200 146.910   6
  -2  -3  18 1077.39 145.606   1
  -2  -3  17 1098.32 142.434   1
  -2  -3  17 813.530 128.816   6
   2   3 -16 987.572 141.180   3
  -2  -3  16 1063.59 137.179   1
  -2  -3  16 1014.92 138.880   6
  -2  -3  15 1193.28 141.504   1
   2   3 -15 1126.63 138.350   3
  -2  -3  15 1127.68 138.308   6
  -2  -3  14-42.6509 43.4036   6
  -2  -3  14-15.7761 42.2160   1
   2   3 -14 37.5852 47.6073   3
  -2  -3  13 373.374 78.6667   6
   2   3 -13 457.238 82.3711   3
  -2  -3  13 525.900 85.0782   1
  -2  -3  12 740.599 95.0742   1
   2   3 -12 754.562 93.9356   3
  -2  -3  12 608.551 93.3824   6
  -2  -3  11 2361.89 149.499   1
  -2  -3  11 2298.21 166.203   6
   2   3 -11 2374.46 156.672   3
   2   3 -11 2315.10 136.553   2
  -2  -3  10 1505.63 113.455   1
  -2  -3  10 1601.47 134.204   6
   2   3 -10 1817.10 125.073   2
   2   3 -10 1871.26 130.673   3
   2   3  -9 818.454 91.0624   9
   2   3  -9 833.260 84.0767   3
  -2  -3   9 902.341 80.8140   1
   2   3  -9 865.463 69.6210   5
   2   3  -9 875.027 73.3720   4
  -2  -3   9 867.801 95.9032   6
   2   3  -8 25.9750 29.1302   3
   2   3  -8-7.87215 35.8659   9
   2   3  -8 14.4794 10.1672  10
  -2  -3   8-19.7477 31.5939   6
  -2  -3   8 14.7163 24.8065   1
   2   3  -8 53.8546 27.2306   5
   2   3  -8 17.2881 21.8881   4
  -2  -3   7 837.909 65.5498   1
   2   3  -7 889.174 87.0781   9
   2   3  -7 1019.66 78.0870   5
  -2  -3   7 919.929 87.4816   6
   2   3  -7 946.848 55.1334  10
   2   3  -6 427.740 46.2812   3
   2   3  -6 596.124 73.1815   9
  -2  -3   6 445.679 64.0944   6
   2   3  -6 462.749 55.8911   5
  -2  -3   6 440.339 44.1004   1
  -2  -3   5 1640.19 108.119   6
   2   3  -5 1553.15 98.1209   5
   2   3  -5 1416.06 106.510   9
  -2  -3   5 1521.25 74.2546   1
   2   3  -5 1620.30 84.6576   3
   2   3  -4 129.545 25.2982   3
   2   3  -4 153.363 25.6228   7
   2   3  -4 114.727 42.9666   9
  -2  -3   4 111.929 32.7005   6
  -2  -3   4 97.9853 19.8057   1
   2   3  -4 118.262 34.6312   5
  -2  -3   4 135.538 43.0549   2
   2   3  -3 2739.26 141.283   9
   2   3  -3 2696.75 77.0854   7
  -2  -3   3 2924.72 142.305   6
   2   3  -3 2760.48 140.741   5
  -2  -3   3 2784.87 96.5829   1
   2   3  -3 2709.61 104.722   3
  -2  -3   3 2764.07 137.329   2
  -2  -3   2 12076.2 316.864   2
   2   3  -2 11393.0 256.238   1
  -2  -3   2 11780.7 322.977   6
   2   3  -2 11637.9 335.755   5
   2   3  -2 11649.2 265.168   3
   2   3  -2 11133.8 322.494   9
  -2  -3   1 8688.40 262.291   2
  -2  -3   1 8517.06 212.970   3
   2   3  -1 9079.05 289.208   5
   2   3  -1 8685.67 224.005   3
  -2  -3   1 8492.83 271.023   6
   2   3  -1 8745.57 269.892   9
  -2  -3   1 8729.14 221.517   1
   2   3  -1 8972.93 220.408   1
  -2  -3   0 11213.6 280.257   8
  -2  -3   0 10898.9 212.821   7
  -2  -3   0 11076.1 308.542   2
   2   3   0 11196.1 277.239   1
   2   3   0 11646.9 343.534   5
  -2  -3   0 11356.1 268.290   3
   2   3   0 11253.5 311.993   9
  -2  -3  -1 11172.5 312.982   2
   2   3   1 10329.6 337.033   5
  -2  -3  -1 10995.8 293.931   8
   2   3   1 10885.7 286.559   1
  -2  -3  -1 10808.9 243.675   7
  -2  -3  -1 10280.3 273.110   3
   2   3   2 8290.02 260.795   1
   2   3   2 8352.86 304.386   5
  -2  -3  -2 8699.23 274.105   2
  -2  -3  -2 8872.17 273.057   8
  -2  -3  -2 8767.46 253.830   3
   2   3   3 921.745 86.0494   1
  -2  -3  -3 910.478 83.1074   2
   2   3   3 923.151 99.1920   5
  -2  -3  -3 887.509 83.0563   3
  -2  -3  -3 915.083 88.5448   8
  -2  -3  -4 9316.34 323.087   8
   2   3   4 9665.03 317.628   1
  -2  -3  -4 9919.54 308.137   2
   2   3   4 9920.24 351.676   5
  -2  -3  -4 9894.84 310.948   3
   2   3   5 905.028 96.1683   1
  -2  -3  -5 800.522 96.4992   8
   2   3   5 1053.45 115.152   5
  -2  -3  -5 1075.66 95.7299   2
  -2  -3  -5 934.983 91.4871   3
  -2  -3  -6 7866.20 324.869   8
   2   3   6 8213.69 319.795   1
   2   3   6 8622.95 347.023   5
  -2  -3  -6 8809.72 319.676   3
  -2  -3  -6 7972.41 289.470   2
   2   3   7 8817.85 349.380   1
   2   3   7 8907.58 369.520   5
  -2  -3  -7 8976.33 310.850   2
  -2  -3  -7 8314.01 329.960   3
  -2  -3  -8 7557.92 286.371   2
   2   3   8 7696.02 336.298   1
   2   3   8 6535.19 338.374   5
  -2  -3  -8 7475.71 321.271   3
   2   3   9 5020.02 281.187   1
  -2  -3  -9 5306.31 237.020   2
  -2  -3  -9 4955.00 274.080   3
   2   3  10 1339.13 154.566   1
  -2  -3 -10 1373.50 151.922   3
   2   3  11 118.998 63.3009   1
  -2  -3 -11 165.495 64.8491   3
   2   3  12 106.354 76.6721   1
   2   3  13 839.026 145.128   1
  -2  -4  18 49.9352 61.4456   6
  -2  -4  17 264.316 79.1133   6
   2   4 -16 23.5389 48.2849   3
  -2  -4  16-43.3818 56.7467   6
  -2  -4  16 32.0722 44.7996   1
  -2  -4  15 2223.46 182.157   1
  -2  -4  15 2322.28 197.429   6
   2   4 -15 2203.80 193.361   3
  -2  -4  14 1819.91 170.430   6
  -2  -4  14 1909.05 161.256   1
   2   4 -14 2027.18 173.045   3
  -2  -4  13 2055.20 170.847   6
  -2  -4  13 2113.10 159.734   1
   2   4 -13 2003.34 159.787   3
  -2  -4  12 5073.07 262.174   6
  -2  -4  12 4622.26 229.670   1
   2   4 -12 4537.81 219.025   2
   2   4 -12 4890.41 241.936   3
  -2  -4  11 8475.20 307.077   1
  -2  -4  11 8703.92 341.944   6
   2   4 -11 9724.58 333.790   2
   2   4 -11 8624.47 319.693   3
  -2  -4  10 4825.20 207.832   1
  -2  -4  10 4806.18 237.377   6
   2   4 -10 4857.51 195.045   4
   2   4 -10 4671.88 214.334   3
   2   4  -9 674.454 81.5717   3
   2   4  -9 809.432 83.1283   5
  -2  -4   9 861.033 97.8668   6
  -2  -4   9 806.094 76.7080   1
   2   4  -9 966.600 79.4497   4
   2   4  -9 807.140 49.6053  10
   2   4  -8 411.299 57.7098   3
  -2  -4   8 398.722 64.4815   6
   2   4  -8 385.549 63.3207   5
  -2  -4   8 425.060 55.2725   1
   2   4  -7 5138.82 210.481   5
  -2  -4   7 5361.06 223.722   6
  -2  -4   7 5170.22 181.380   1
   2   4  -7 4962.46 189.680   3
  -2  -4   6 9601.11 256.642   1
   2   4  -6 10240.8 316.650   5
   2   4  -6 9729.38 273.685   3
  -2  -4   6 9819.03 317.242   6
   2   4  -5 697.124 78.5418   5
  -2  -4   5 698.872 55.0192   1
   2   4  -5 712.472 61.3833   3
  -2  -4   5 662.248 74.6131   6
  -2  -4   4 2697.21 145.116   2
  -2  -4   4 2544.29 142.941   6
   2   4  -4 2634.12 116.706   3
  -2  -4   4 2755.75 109.758   1
   2   4  -4 2517.34 153.297   5
   2   4  -4 2337.19 77.4374   7
  -2  -4   3 1577.75 111.428   2
  -2  -4   3 1465.96 110.076   6
   2   4  -3 1660.24 122.051   5
  -2  -4   3 1622.30 83.6765   1
   2   4  -3 1372.25 86.3877   3
  -2  -4   2 945.953 88.4772   6
   2   4  -2 805.513 63.2070   1
  -2  -4   2 902.237 90.3816   2
   2   4  -2 948.510 70.5796   3
   2   4  -2 924.674 95.7126   5
  -2  -4   2 950.793 65.9258   1
   2   4  -1 1388.05 87.1114   1
   2   4  -1 1453.64 90.7070   3
  -2  -4   1 1431.43 108.359   2
   2   4  -1 1523.42 122.376   5
  -2  -4   1 1409.69 83.4304   3
  -2  -4   0 40.6108 8.84252   7
  -2  -4   0 36.6689 24.7240   8
  -2  -4   0 37.9196 32.7188   2
   2   4   0 35.9787 39.4962   5
   2   4   0 44.1057 29.3279   1
  -2  -4   0 76.9179 29.0106   3
  -2  -4  -1 1380.93 100.009   8
  -2  -4  -1 1521.55 112.434   2
  -2  -4  -1 1317.36 68.4721   7
   2   4   1 1441.19 127.738   5
   2   4   1 1382.30 97.4145   1
  -2  -4  -1 1419.92 92.1742   3
  -2  -4  -2 3668.46 177.270   8
   2   4   2 3786.81 222.527   5
   2   4   2 3342.15 165.586   1
  -2  -4  -2 3737.88 164.964   3
  -2  -4  -3 758.144 84.4925   8
  -2  -4  -3 781.501 82.5253   3
  -2  -4  -3 702.751 80.0152   2
   2   4   3 813.245 108.436   5
   2   4   3 862.394 90.7492   1
   2   4   4 2335.74 185.122   5
  -2  -4  -4 2452.66 161.042   8
  -2  -4  -4 2334.57 144.576   2
   2   4   4 2314.67 153.274   1
  -2  -4  -4 2344.74 146.662   3
   2   4   5 4183.91 221.135   1
  -2  -4  -5 4187.87 207.252   2
   2   4   5 4576.17 268.113   5
  -2  -4  -5 4322.38 232.263   8
  -2  -4  -5 4259.76 215.042   3
  -2  -4  -6 2328.35 151.137   2
   2   4   6 2119.21 163.427   1
  -2  -4  -6 2182.04 168.830   8
   2   4   6 2282.54 192.787   5
  -2  -4  -6 2286.84 158.031   3
   2   4   7 587.951 93.6465   1
  -2  -4  -7 584.438 108.900   8
  -2  -4  -7 697.246 86.5477   2
   2   4   7 575.421 111.441   5
  -2  -4  -7 676.337 95.0579   3
  -2  -4  -8 152.123 51.1342   2
   2   4   8 190.100 61.3632   1
  -2  -4  -8 137.591 58.6442   3
   2   4   9 20.5955 47.4429   1
  -2  -4  -9 66.9633 53.3519   3
   2   4  10 1551.14 169.546   1
   2   4  10 1025.55 156.827  10
  -2  -4 -10 1570.00 167.538   3
   2   4  11 1939.93 197.341   1
   2   4  12 2891.51 253.926   1
  -2  -5  18 36.9201 59.4636   6
  -2  -5  17 85.7254 60.0477   6
   2   5 -16 802.318 118.961   3
  -2  -5  16 606.243 112.075   6
  -2  -5  15 19.5929 42.0165   6
   2   5 -15 8.72348 60.3119   3
  -2  -5  14 878.572 113.573   1
  -2  -5  14 983.958 126.595   6
   2   5 -14 1004.27 119.494   3
  -2  -5  13 3683.41 214.818   1
   2   5 -13 3533.93 209.186   2
  -2  -5  13 3786.09 231.299   6
   2   5 -13 3869.27 228.902   3
   2   5 -12 404.347 82.6096   3
  -2  -5  12 375.183 81.0066   6
   2   5 -12 238.671 65.3061   2
  -2  -5  12 263.915 66.0032   1
  -2  -5  11 7001.42 276.080   1
  -2  -5  11 6977.39 302.301   6
   2   5 -11 6822.32 281.594   3
  -2  -5  10 160.968 52.6746   6
   2   5 -10 54.9862 30.3616   4
  -2  -5  10 86.5348 43.5801   1
   2   5 -10 150.808 55.5229   3
   2   5  -9 6927.36 277.984   5
   2   5  -9 6732.38 257.036   3
   2   5  -9 6657.31 209.125  10
  -2  -5   9 6783.25 245.184   1
  -2  -5   8 9964.14 346.683   6
  -2  -5   8 10252.9 299.468   1
   2   5  -8 10219.9 351.345   5
   2   5  -8 10029.6 314.705   3
  -2  -5   7 19201.2 504.548   6
  -2  -5   7 18583.8 436.286   1
   2   5  -7 19577.8 525.769   5
   2   5  -7 18063.9 454.815   3
   2   5  -6 12065.2 388.254   5
  -2  -5   6 11220.7 300.153   1
  -2  -5   6 11658.6 365.350   6
   2   5  -6 11207.7 320.158   3
   2   5  -5 3236.10 102.308   7
  -2  -5   5 3750.55 186.112   6
  -2  -5   5 3070.18 135.987   1
   2   5  -5 3894.03 212.429   5
   2   5  -5 3463.04 154.189   3
  -2  -5   4 647.172 60.5242   1
   2   5  -4 713.889 71.0786   3
   2   5  -4 654.579 92.8381   5
  -2  -5   4 580.199 74.4167   6
  -2  -5   3 1502.24 132.479   2
  -2  -5   3 1795.95 129.445   6
   2   5  -3 1808.47 150.298   5
  -2  -5   3 1869.74 103.596   1
   2   5  -3 1862.71 110.928   3
   2   5  -2 3135.65 142.344   1
  -2  -5   2 3137.83 176.905   6
   2   5  -2 3515.86 210.370   5
  -2  -5   2 3180.76 148.515   1
   2   5  -2 3231.78 148.757   3
  -2  -5   2 3312.87 176.559   2
   2   5  -1 8368.44 259.599   1
   2   5  -1 8221.90 340.469   5
   2   5  -1 8333.66 263.537   3
  -2  -5   1 8258.27 263.306   1
  -2  -5   1 8370.70 252.438   3
   2   5   0 11739.7 337.816   1
  -2  -5   0 12407.5 372.258   2
   2   5   0 11983.3 432.367   5
  -2  -5   0 11574.8 324.158   3
   2   5   1 7605.39 267.956   1
  -2  -5  -1 7781.47 260.173   3
   2   5   1 7176.35 332.328   5
  -2  -5  -1 7481.53 273.090   8
   2   5   2 6476.06 257.998   1
  -2  -5  -2 7274.01 274.367   2
  -2  -5  -2 7008.45 273.790   8
   2   5   2 6368.68 322.373   5
  -2  -5  -2 6600.58 250.525   3
   2   5   3 2457.77 160.164   1
   2   5   3 2467.04 205.640   5
  -2  -5  -3 2486.60 168.545   8
  -2  -5  -3 2374.21 149.203   3
  -2  -5  -4 22.9673 43.1144   8
  -2  -5  -4 95.9910 40.8575   3
  -2  -5  -4 72.4008 40.3802   2
   2   5   4 158.906 85.1395   5
   2   5   4 90.0656 46.9739   1
  -2  -5  -5 430.219 72.4260   2
   2   5   5 393.450 105.972   5
  -2  -5  -5 568.948 84.2895   3
   2   5   5 418.680 77.6004   1
  -2  -5  -5 413.851 79.7623   8
  -2  -5  -6 1157.72 134.776   8
   2   5   6 1323.93 136.278   1
   2   5   6 1168.17 159.922   5
  -2  -5  -6 1446.87 136.024   3
  -2  -5  -6 1180.01 114.218   2
  -2  -5  -7 206.799 67.8297   8
  -2  -5  -7 171.996 70.4585   3
   2   5   7 177.979 66.7751   1
  -2  -5  -7 224.691 64.5193   2
   2   5   7 229.650 104.481   5
   2   5   8 102.495 49.7516   1
  -2  -5  -8 12.0971 40.9226   2
  -2  -5  -8 49.6096 45.5033   3
  -2  -5  -9 181.357 68.4849   3
   2   5   9 248.165 76.4927   1
   2   5   9 36.5839 86.7260  10
   2   5  10-4.29684 47.0252   1
   2   5  10-138.375 125.113  10
  -2  -5 -10 14.6346 43.1716   3
   2   5  11 194.480 83.3833   1
  -2  -6  17 118.599 64.5993   6
   2   6 -16 17.8851 59.7323   3
  -2  -6  16 5.20825 48.3068   6
   2   6 -15 223.967 73.5321   3
  -2  -6  15 70.7297 44.8263   6
   2   6 -14 288.549 68.7708   3
  -2  -6  14 259.023 74.2754   6
  -2  -6  13 298.896 74.1189   6
   2   6 -13 328.858 75.3581   3
   2   6 -13 212.677 66.9265   2
   2   6 -12 87.3039 44.4152   3
  -2  -6  12 54.1847 49.8542   6
  -2  -6  12 85.2115 40.9533   1
  -2  -6  11 514.224 84.5741   6
   2   6 -11 433.747 84.2073   3
  -2  -6  11 562.799 77.1037   1
  -2  -6  10 13.5599 37.2569   6
  -2  -6  10-6.06011 39.4206   1
   2   6 -10 14.9297 31.8155   3
  -2  -6   9 5335.05 217.354   1
   2   6  -9 4995.43 230.822   3
  -2  -6   9 5762.75 261.519   6
   2   6  -8 482.268 71.4749   3
  -2  -6   8 484.436 80.7567   6
   2   6  -8 442.672 69.6047  10
   2   6  -8 451.165 83.0280   5
  -2  -6   8 403.849 58.9321   1
   2   6  -7 376.098 60.8932   3
   2   6  -7 339.955 81.7365   5
  -2  -6   7 389.041 53.8933   1
  -2  -6   7 259.002 59.4609   6
   2   6  -6 739.719 77.2199   3
  -2  -6   6 739.861 90.9330   6
   2   6  -6 1047.71 129.978   5
  -2  -6   6 656.291 68.9063   1
   2   6  -5 4971.60 205.755   3
  -2  -6   5 5146.17 236.399   6
   2   6  -5 5039.62 267.647   5
  -2  -6   5 5212.62 195.293   1
  -2  -6   4 5546.06 245.249   6
  -2  -6   4 5665.00 207.379   1
   2   6  -4 5376.34 286.315   5
   2   6  -4 5227.64 212.929   3
  -2  -6   3 17732.7 499.488   6
   2   6  -3 17401.3 557.263   5
   2   6  -3 16907.5 440.163   3
   2   6  -2 8372.43 275.925   1
  -2  -6   2 8761.82 284.126   1
   2   6  -2 8752.05 380.823   5
   2   6  -2 8523.21 284.928   3
   2   6  -1 1490.30 162.856   5
   2   6  -1 1607.07 118.498   3
  -2  -6   1 1587.66 116.693   1
  -2  -6   1 1615.00 110.476   3
   2   6  -1 1568.24 116.007   1
  -2  -6   1 1681.44 137.976   2
   2   6   0 1093.45 102.316   1
   2   6   0 1093.42 103.366   3
  -2  -6   0 1167.55 120.054   2
   2   6   0 1224.34 152.824   5
  -2  -6   0 1131.69 95.4324   3
  -2  -6  -1 439.389 78.0754   2
   2   6   1 359.837 100.070   5
  -2  -6  -1 342.064 61.8558   3
   2   6   1 395.597 70.7816   1
  -2  -6  -1 410.578 72.8328   8
  -2  -6  -2 693.345 92.1224   8
   2   6   2 681.950 89.6487   1
  -2  -6  -2 528.756 95.9767   2
   2   6   2 642.872 122.906   5
  -2  -6  -2 654.465 78.1062   3
  -2  -6  -3 2299.56 173.047   8
   2   6   3 2290.62 166.140   1
   2   6   3 2178.18 216.536   5
  -2  -6  -3 2096.09 148.481   3
  -2  -6  -4 7800.51 342.167   8
   2   6   4 7460.08 405.052   5
  -2  -6  -4 7861.98 317.282   3
   2   6   4 7861.79 331.449   1
  -2  -6  -5 6305.91 318.733   8
   2   6   5 6165.30 306.438   1
   2   6   5 6113.64 371.112   5
  -2  -6  -5 6445.94 297.314   3
  -2  -6  -6 5096.39 298.245   8
  -2  -6  -6 4877.41 266.399   3
   2   6   6 5022.95 285.507   1
   2   6   7 1765.91 174.725   1
  -2  -6  -7 1411.55 163.624   8
  -2  -6  -7 1589.61 153.685   3
  -2  -6  -7 1255.78 140.609   2
   2   6   8 248.734 86.1303   1
  -2  -6  -8 306.918 90.8820   8
  -2  -6  -8 238.254 81.0969   3
   2   6   9-36.2356 55.6963   1
  -2  -6  -9 145.788 76.2838   3
   2   6   9-123.490 106.542  10
   2   6  10-1.41176 56.7289   1
   2   7 -16 563.902 104.764   3
  -2  -7  15 2127.41 190.067   6
   2   7 -15 1986.51 183.063   3
   2   7 -14 839.878 124.211   2
   2   7 -14 723.299 108.292   3
  -2  -7  14 505.973 101.652   6
   2   7 -13 1653.26 184.837   2
   2   7 -13 1514.39 150.259   3
  -2  -7  13 1365.23 154.656   6
   2   7 -12 174.306 63.6713   3
  -2  -7  12 73.8010 49.9700   6
   2   7 -11 12.2046 34.9828   3
  -2  -7  11 82.0597 49.2481   6
  -2  -7  10 369.260 65.5542   6
   2   7 -10 353.952 70.6476   3
   2   7  -9 59.6702 39.6965   3
  -2  -7   9 46.9780 30.5059   1
  -2  -7   9 98.6987 56.6007   6
   2   7  -8 891.648 96.3335   3
  -2  -7   8 855.116 100.200   6
  -2  -7   8 976.432 91.6977   1
   2   7  -8 1105.23 111.262  10
  -2  -7   7 2954.63 186.211   6
  -2  -7   7 2887.17 154.222   1
   2   7  -7 3025.60 222.567   5
   2   7  -7 2813.42 169.798   3
  -2  -7   6 117.265 40.7505   1
   2   7  -6 87.9471 43.3400   3
  -2  -7   6 59.0097 37.7541   6
   2   7  -6-31.8154 71.5685   5
   2   7  -5 302.308 59.0882   3
  -2  -7   5 504.259 84.8210   6
  -2  -7   5 389.998 60.6784   1
   2   7  -5 547.336 104.242   5
  -2  -7   4 3067.68 190.217   6
   2   7  -4 2981.57 234.011   5
  -2  -7   4 3188.40 162.235   1
   2   7  -4 2951.37 172.352   3
   2   7  -3 322.428 65.9256   3
  -2  -7   3 431.330 64.7677   1
   2   7  -3 385.378 67.1979   1
   2   7  -3 302.721 84.5170   5
   2   7  -2 6757.63 367.759   5
  -2  -7   2 6761.69 268.944   1
   2   7  -2 6924.19 265.904   1
  -2  -7   2 7240.42 309.024   2
   2   7  -2 6956.70 273.934   3
  -2  -7   1 5139.21 252.544   2
   2   7  -1 4297.37 216.156   3
   2   7  -1 4390.29 298.864   5
   2   7  -1 4412.56 214.101   1
  -2  -7   1 4846.44 222.937   1
  -2  -7   1 4463.29 207.464   3
   2   7   0 1144.34 109.757   1
   2   7   0 1222.43 118.423   3
  -2  -7   0 1260.54 124.399   2
   2   7   0 1265.49 157.651   5
  -2  -7   0 1121.02 103.357   3
  -2  -7  -1 3012.29 192.006   8
   2   7   1 3049.69 257.069   5
  -2  -7  -1 3016.57 175.593   3
   2   7   1 3124.28 195.000   3
   2   7   1 3338.17 196.171   1
   2   7   2 2774.47 249.863   5
   2   7   2 2898.48 190.180   1
  -2  -7  -2 2691.50 173.582   3
  -2  -7  -2 3002.07 196.804   8
  -2  -7  -3 2148.44 176.706   8
   2   7   3 2019.11 223.080   5
   2   7   3 2384.48 180.658   1
  -2  -7  -3 2417.63 173.353   3
  -2  -7  -4 2254.06 188.689   8
  -2  -7  -4 2259.00 176.842   2
   2   7   4 2310.69 187.297   1
  -2  -7  -4 2102.84 169.648   3
  -2  -7  -5 403.303 86.4489   3
  -2  -7  -5 401.684 88.7602   2
  -2  -7  -5 451.794 101.271   8
   2   7   5 415.299 92.5159   1
  -2  -7  -6 43.9076 55.7167   8
  -2  -7  -6 4.93738 42.1856   2
  -2  -7  -6-50.1876 70.9976   3
   2   7   6-89.3395 106.092  10
   2   7   6 42.4593 45.1450   1
   2   7   7 601.863 107.777   1
  -2  -7  -7 461.907 110.750   8
  -2  -7  -7 516.673 97.4217   3
   2   7   8 1201.21 162.962   1
  -2  -7  -8 1196.83 166.481   8
   2   7   9 1617.37 195.213   1
   2   8 -14-12.2736 45.0081   3
  -2  -8  14 37.4641 58.0859   6
   2   8 -13 155.132 51.6682   3
  -2  -8  13 175.969 66.3373   6
   2   8 -12 732.069 105.140   3
  -2  -8  12 558.924 94.5712   6
  -2  -8  11 2077.98 166.378   6
   2   8 -11 1965.10 162.607   3
  -2  -8  10 3224.87 212.033   6
   2   8 -10 3397.43 203.117   3
  -2  -8   9 7335.80 316.805   6
   2   8  -9 7051.33 297.528   3
  -2  -8   8 2130.70 165.207   6
   2   8  -8 1924.92 149.758   3
   2   8  -8 2158.55 168.326  10
  -2  -8   7-15.8607 44.3021   6
   2   8  -7 17.6360 33.5247   3
   2   8  -7 1.48955 44.6060  10
   2   8  -6 533.526 84.3457   3
  -2  -8   6 446.532 65.2737   1
  -2  -8   6 513.322 85.9055   6
   2   8  -6 393.636 74.3779  10
  -2  -8   5 78.2840 56.0162   6
   2   8  -5 41.3950 70.8245   5
  -2  -8   5 49.3699 36.4657   1
   2   8  -5 34.0294 37.8025   3
   2   8  -4 1776.95 141.231   3
  -2  -8   4 1760.74 133.330   1
   2   8  -4 1691.84 190.111   5
   2   8  -3 1883.55 138.974   1
  -2  -8   3 1903.48 141.462   1
   2   8  -3 2011.44 212.371   5
   2   8  -3 1999.03 150.050   3
  -2  -8   2 681.035 96.3771   1
   2   8  -2 725.197 129.838   5
   2   8  -2 874.600 100.195   1
   2   8  -2 790.993 98.5688   3
   2   8  -1 210.363 61.3325   3
   2   8  -1 247.853 91.7390   5
   2   8  -1 167.690 56.7497   1
  -2  -8   1 206.225 63.3222   1
   2   8   0 2189.54 163.399   1
   2   8   0 2194.71 168.753   3
   2   8   0 2314.41 234.466   5
  -2  -8   0 2312.53 176.775   8
  -2  -8   0 2399.57 164.656   3
  -2  -8   0 2120.91 177.265   2
  -2  -8  -1-20.2292 48.4579   2
  -2  -8  -1-16.9036 36.3996   8
   2   8   1 63.8696 50.4415   1
  -2  -8  -1 128.786 53.6783   3
   2   8   1 48.2022 82.6059   3
  -2  -8  -2 8.56710 45.6169   3
   2   8   2 0.60930 58.0608   3
  -2  -8  -2 110.030 63.7774   2
   2   8   2 21.6233 40.2135   1
  -2  -8  -2 47.1777 55.2715   8
  -2  -8  -3 280.067 76.9158   8
  -2  -8  -3 124.782 71.6843   2
  -2  -8  -3 411.913 77.7145   3
   2   8   3 336.137 87.4589   1
   2   8   3 289.575 85.6031  10
  -2  -8  -4-44.8964 56.4750   8
  -2  -8  -4 3.31885 46.0316   2
  -2  -8  -4-3.84440 43.1449   3
   2   8   4 40.2447 60.9982   1
  -2  -8  -5 155.845 68.6443   2
  -2  -8  -5 307.350 90.6150   8
  -2  -8  -5 263.490 74.3763   3
   2   8   5 268.043 78.8284   1
  -2  -8  -6 166.523 75.3872   8
  -2  -8  -6 287.750 84.4792   3
   2   8   6 172.936 76.3433   1
   2   8   7 284.080 84.9207   1
  -2  -8  -7 343.052 88.1427   8
  -2  -8  -8 744.808 144.956   8
   2   8   8 788.205 136.347   1
   2   9 -15-35.6729 75.9582   2
   2   9 -14 86.1643 86.9069   2
  -2  -9  12 374.729 79.3541   6
   2   9 -11 58.7766 39.5593   3
  -2  -9  11 101.185 50.4904   6
   2   9 -10-1.66097 37.7356   3
  -2  -9  10 62.2203 54.1835   6
  -2  -9   9 142.632 53.3309   6
   2   9  -9 159.974 48.7865   3
   2   9  -8 598.531 85.9995   3
  -2  -9   8 546.336 96.0452   6
   2   9  -8 538.908 94.6782  10
  -2  -9   7 2256.40 184.976   6
   2   9  -7 2296.62 165.630   3
   2   9  -7 2556.36 205.994  10
   2   9  -6 1871.18 149.056   3
   2   9  -6 1852.01 183.937  10
   2   9  -5 6779.67 297.745   3
   2   9  -5 7063.38 364.720  10
   2   9  -4 2355.07 164.233   1
   2   9  -4 2444.61 216.668  10
   2   9  -4 2185.42 167.609   3
   2   9  -3 1996.77 154.786   1
  -2  -9   3 2219.37 162.940   1
   2   9  -3 1956.06 157.975   3
   2   9  -3 1897.97 200.580  10
   2   9  -2 1684.70 189.051  10
  -2  -9   2 1677.79 144.628   1
   2   9  -2 1573.30 142.165   1
   2   9  -2 1608.16 152.221   3
  -2  -9   1 191.791 62.9473   1
   2   9  -1 116.881 55.1006   1
   2   9  -1 76.9437 54.2067   3
   2   9  -1 71.9369 83.8238  10
  -2  -9   0 2296.57 187.650   8
   2   9   0 2304.35 185.288   1
   2   9   0 2389.05 186.297   3
  -2  -9   0 2400.24 176.714   3
   2   9   0 2513.20 245.557  10
  -2  -9  -1 872.161 113.330   3
  -2  -9  -1 565.744 97.5589   8
   2   9   1 809.121 116.823   1
   2   9   1 819.822 115.142   3
   2   9   1 713.372 146.886  10
  -2  -9  -2 1139.69 143.854   8
   2   9   2 1352.26 151.531   3
  -2  -9  -2 1056.27 127.845   3
   2   9   2 897.909 127.764   1
   2   9   2 1060.64 175.069  10
   2   9   3 1679.55 171.054   1
  -2  -9  -3 1620.43 157.704   3
   2   9   3 1778.47 179.912   3
  -2  -9  -3 1905.78 187.277   8
   2   9   4 1613.25 177.213   1
   2   9   4 1694.88 185.249   3
  -2  -9  -4 1679.88 186.899   8
  -2  -9  -4 1832.15 176.589   3
   2   9   5 154.831 59.7433   1
  -2  -9  -5 198.432 91.1944   8
   2   9   6 8.25663 58.8140   1
  -2  -9  -6 35.5455 62.1153   8
   2  10 -15-10.4595 78.6976   2
  -2 -10  11 106.471 64.3827   6
  -2 -10  10 49.5912 38.7877   6
  -2 -10   9 85.3788 61.0490   6
  -2 -10   8 378.164 92.4188   6
   2  10  -7-18.6664 68.2330  10
   2  10  -6 95.5711 67.2737  10
   2  10  -5 169.587 79.5855  10
   2  10  -4-118.252 95.9682  10
   2  10  -3 209.443 86.6335  10
   2  10  -2 1500.80 202.610  10
   2  10  -2 1405.09 143.236   1
   2  10  -1 1926.56 175.184   1
   2  10  -1 2181.77 242.547  10
   2  10  -1 2043.22 181.885   3
  -2 -10   0 643.336 108.291   8
   2  10   0 860.044 121.492   1
   2  10   0 835.126 155.764  10
   2  10   1 1055.44 134.784   1
  -2 -10  -1 1455.85 169.075   8
  -2 -10  -2 2413.24 218.546   8
   2  10   2 2030.96 196.095   1
  -2 -10  -3 106.721 73.4877   8
   2  10   3-57.0247 58.3196   1
  -2 -10  -4 179.842 86.4047   8
   2  10   4 97.2589 81.9120   1
   2  11  -7 125.825 68.6446  10
   2  11  -6-10.0429 64.9916  10
   2  11  -5 88.7639 59.5246  10
   2  11  -4 78.7297 75.1074  10
   2  11  -3 55.8803 75.1127  10
  -3  15  -5 156.406 104.101   2
  -3  15  -6 107.978 110.166   2
   3 -14   0 177.277 100.023   1
  -3  14   0-28.5112 60.6713   1
   3 -14   1-91.3966 76.2357   1
  -3  14  -1-11.6226 60.1018   1
  -3  14  -2-9.64360 81.6157   2
   3 -14   2 147.418 74.3112   1
  -3  14  -3 545.205 157.187   2
   3 -14   3 763.623 144.068   1
  -3  14  -4 1002.57 191.259   2
   3 -14   4 924.924 158.911   1
   3 -14   5 453.462 111.995   1
  -3  14  -5 710.039 173.252   2
  -3  14  -6 537.226 168.116   2
   3 -14   6 593.091 130.608   1
  -3  14  -7 861.139 177.793   2
   3 -14   7 666.175 126.744   1
   3 -14   8-39.5630 60.3485   1
  -3  14  -8 142.651 95.7310   2
   3 -14   9 88.7809 61.2743   1
  -3  14  -9 69.7732 102.364   2
  -3  14 -10 22.2306 95.7504   2
   3 -14  10 335.961 99.4664   1
  -3  14 -11 103.359 109.470   2
   3 -14  11 122.113 80.3025   1
   3 -13  -3 292.989 114.772   1
  -3  13   3 264.725 89.0511   1
   3 -13  -2-56.7295 69.2427   1
  -3  13   2 67.5263 61.2839   1
  -3  13   1 146.251 90.8042   1
   3 -13  -1 50.3182 66.3641   1
  -3  13   0 73.2786 73.9461   1
   3 -13   0 56.2844 75.7314   1
   3 -13   1-40.0120 58.2871   1
  -3  13  -1 139.350 125.417   2
  -3  13  -2 37.1285 78.5761  10
  -3  13  -2 93.5516 110.746   2
   3 -13   2 206.190 82.7537   1
   3 -13   3 57.4150 67.1899   1
  -3  13  -3 83.9478 115.578   2
  -3  13  -3 279.895 107.413  10
   3 -13   4-4.48260 60.4993   1
  -3  13  -4 97.5579 67.3013  10
  -3  13  -4 152.662 114.372   2
  -3  13  -4 56.9429 56.8852   3
   3 -13   5 73.7437 75.8177   1
  -3  13  -5-26.2075 64.0054   3
  -3  13  -5 19.9388 71.7213  10
  -3  13  -5 116.769 123.484   2
  -3  13  -6 121.619 63.9948   3
   3 -13   6 180.901 97.0702   1
  -3  13  -6-44.8671 86.2467  10
  -3  13  -6 171.232 114.431   2
  -3  13  -7-12.4951 59.5375  10
   3 -13   7-69.2722 78.4024   1
  -3  13  -7 142.967 100.181   2
   3 -13   8 350.270 97.9281   1
  -3  13  -8 634.589 161.898   2
   3 -13   9 344.172 97.5429   1
  -3  13  -9 438.335 134.422   2
  -3  13 -10 534.485 137.409   2
   3 -13  10 461.912 113.725   1
   3 -13  11 639.401 135.300   1
  -3  13 -11 395.714 132.698   2
   3 -13  12-15.8765 65.9909   1
  -3  13 -12-61.2767 104.515   2
   3 -13  13-72.3418 63.4761   1
  -3  13 -13 83.0504 92.5264   2
   3 -12  -6 86.2849 87.2739   8
  -3  12   5 246.566 84.2601   1
   3 -12  -4 1034.07 160.904   1
  -3  12   4 534.554 118.662   1
  -3  12   3 2466.81 231.841   1
   3 -12  -3 2612.62 240.370   1
  -3  12   2 3355.07 269.538   1
   3 -12  -2 3820.90 290.373   1
  -3  12   1 1252.23 184.322  10
   3 -12  -1 1475.14 179.495   1
  -3  12   1 1174.07 173.709   3
  -3  12   1 1194.04 160.155   1
   3 -12   0 3381.92 260.544   1
  -3  12   0 3359.39 292.193  10
  -3  12   0 3067.31 265.101   3
  -3  12  -1 562.123 144.886   2
  -3  12  -1 994.774 163.081  10
   3 -12   1 989.887 145.416   1
  -3  12  -1 787.913 133.030   3
  -3  12  -2 217.414 90.5933   2
  -3  12  -2 157.331 83.9097   3
   3 -12   2 48.4986 71.6470   1
  -3  12  -2-39.8848 64.9399  10
  -3  12  -3 148.039 77.1560   3
   3 -12   3-15.8342 61.0893   1
  -3  12  -3-62.3672 79.4321   2
  -3  12  -3-87.1664 83.6836  10
  -3  12  -4 288.816 117.710   2
  -3  12  -4 331.941 108.115   3
  -3  12  -4 158.016 63.6624  10
  -3  12  -5 532.743 113.454   3
   3 -12   5 504.435 103.313   1
  -3  12  -5 477.229 104.902  10
  -3  12  -5 468.186 133.082   2
  -3  12  -6 429.257 102.687   3
  -3  12  -6 236.762 101.456   2
   3 -12   6 598.185 116.807   1
  -3  12  -6 493.882 104.687  10
  -3  12  -7 210.167 80.6595   3
  -3  12  -7 493.759 104.500  10
   3 -12   7 445.719 97.3949   1
  -3  12  -7 367.629 118.515   2
  -3  12  -8 367.609 92.3978   3
   3 -12   8 330.762 76.2789   1
  -3  12  -8 551.545 135.351   2
   3 -12   9 161.981 75.9718   1
  -3  12  -9 49.7791 78.8348   2
   3 -12  10 45.7813 59.0231   1
  -3  12 -10 146.705 73.6504   3
  -3  12 -10 166.525 98.6709   2
  -3  12 -11 182.172 89.2813   2
   3 -12  11 203.141 90.6578   1
   3 -12  12 22.1060 65.5161   1
  -3  12 -12 13.9543 77.5338   2
   3 -12  13 17.6227 64.0327   1
  -3  12 -13 118.858 98.2105   2
   3 -12  14 30.1705 67.7542   1
  -3  12 -14 238.247 103.852   2
   3 -11  -8 1.13805 63.6969   8
   3 -11  -7 21.9483 73.2968   8
  -3  11   7 328.539 105.608   1
   3 -11  -6 71.8767 72.1263   8
  -3  11   6 128.743 90.8248   1
   3 -11  -5 645.820 123.893   1
  -3  11   5 369.556 104.473   1
   3 -11  -4 607.353 117.203   1
  -3  11   4 547.979 150.916  10
  -3  11   4 723.242 138.811   3
   3 -11  -4 692.206 121.696   3
  -3  11   4 377.366 103.672   1
  -3  11   3 159.520 97.6858  10
  -3  11   3 226.678 87.1334   3
   3 -11  -3 201.026 74.2121   1
   3 -11  -3 235.463 80.7581   3
  -3  11   3 195.448 82.2084   1
  -3  11   2 48.6145 62.7393   3
  -3  11   2 61.3070 62.6919  10
   3 -11  -2-16.9816 67.8994   1
  -3  11   2 60.1806 67.0144   1
   3 -11  -1 92.7154 56.0326   1
  -3  11   1 148.848 77.4745   3
  -3  11   1 69.2547 94.5160  10
   3 -11   0 974.216 129.737   1
  -3  11   0 1007.97 151.135   3
  -3  11   0 722.727 145.549  10
   3 -11   1 2824.91 223.221   1
  -3  11  -1 2502.48 230.837  10
  -3  11  -1 2424.84 217.228   3
   3 -11   2 3636.44 254.131   1
  -3  11  -2 3561.29 259.930   3
  -3  11  -2 3699.79 278.537  10
  -3  11  -3 1623.65 173.599   3
  -3  11  -3 1579.30 189.336   2
   3 -11   3 2033.51 184.832   1
  -3  11  -3 1571.73 177.609  10
   3 -11   4 5816.66 321.621   1
  -3  11  -4 4430.11 306.904   2
  -3  11  -4 5416.17 319.975   3
  -3  11  -4 5329.82 313.757  10
  -3  11  -5 1382.55 162.344   3
  -3  11  -5 1263.86 153.274  10
   3 -11   5 1516.42 165.171   1
  -3  11  -5 1027.62 161.970   2
  -3  11  -6 503.055 96.6880   3
  -3  11  -6 556.273 101.845  10
   3 -11   6 395.042 82.7554   1
   3 -11   6 436.605 75.4900   7
  -3  11  -6 363.185 120.078   2
  -3  11  -7 28.0869 56.9408   3
   3 -11   7 22.6874 47.6422   7
   3 -11   7 10.8497 60.4947   1
  -3  11  -7-12.4427 42.7755  10
  -3  11  -7-38.0577 74.0190   2
  -3  11  -8 278.489 95.2891   3
   3 -11   8 258.765 74.1222   1
  -3  11  -8 272.668 69.3584  10
   3 -11   8 477.040 93.7599   7
  -3  11  -8 377.023 118.476   2
  -3  11  -9 312.084 97.1015   3
   3 -11   9 422.650 85.7856   7
   3 -11   9 377.096 90.6473   1
  -3  11  -9 355.832 117.361   2
   3 -11  10 746.473 121.674   7
   3 -11  10 1005.34 148.512   1
  -3  11 -10 965.138 164.631   2
  -3  11 -10 994.488 148.775   3
  -3  11 -11 1185.65 164.966   3
   3 -11  11 998.918 147.177   7
   3 -11  11 1242.16 161.687   1
  -3  11 -11 934.934 168.326   2
   3 -11  12 288.573 96.5341   1
   3 -11  12 227.737 76.4937   7
  -3  11 -12 284.315 86.1071   2
   3 -11  13 155.332 83.7217   1
  -3  11 -13 67.2571 81.7864   2
   3 -11  13 235.687 86.1562   7
   3 -11  14 130.357 67.9805   1
  -3  11 -14 200.158 106.928   2
   3 -11  15-2.14667 62.2326   1
  -3  11 -15 147.990 103.426   2
   3 -10  -9 1522.10 208.970   8
  -3  10   9 1601.28 195.876   1
   3 -10  -8 1443.09 192.644   8
  -3  10   8 1391.42 184.039   1
  -3  10   7 660.303 139.454   1
   3 -10  -7 635.091 128.400   8
  -3  10   6 365.078 109.842   3
  -3  10   6 258.041 96.2025  10
   3 -10  -6 201.999 77.2684   3
  -3  10   6 332.821 97.5581   1
   3 -10  -6 331.557 99.2919   8
  -3  10   5 316.721 97.4710   3
   3 -10  -5 126.493 66.2965   3
   3 -10  -5 332.597 100.997   1
  -3  10   5 154.301 96.6099  10
  -3  10   5 160.929 84.0325   1
  -3  10   4 191.548 95.0923  10
  -3  10   4-14.5560 47.5992   3
   3 -10  -4 11.0985 52.4899   3
   3 -10  -4 53.5832 75.2549   1
  -3  10   4-26.6715 50.6801   1
  -3  10   3-41.1473 60.9527   3
   3 -10  -3-25.9240 60.8076   1
   3 -10  -3 170.828 71.1286   3
  -3  10   3 101.668 63.6012   1
  -3  10   3 27.4470 74.3147  10
  -3  10   2 105.629 70.6992   3
   3 -10  -2-13.0902 46.8885   1
  -3  10   2 44.2042 76.8324  10
   3 -10  -2 33.7867 50.4356   3
  -3  10   2 11.8891 46.1719   1
   3 -10  -2 66.0073 39.1142   7
  -3  10   1 181.996 77.6430   3
   3 -10  -1 208.764 55.9326   7
   3 -10  -1 332.415 92.6034   1
  -3  10   1 448.891 117.781  10
  -3  10   0 55.0770 63.7024   3
   3 -10   0 25.2202 35.2031   7
   3 -10   0 71.0149 52.2837   1
  -3  10   0 13.7647 64.1774  10
  -3  10  -1 24.6710 55.7586   3
   3 -10   1 86.6809 45.4791   7
   3 -10   1 128.147 62.6988   1
  -3  10  -1 112.358 84.0962   2
  -3  10  -1 102.406 64.8235  10
  -3  10  -2 310.655 76.7487   3
   3 -10   2 355.875 66.5146   7
   3 -10   2 397.027 90.8275   1
  -3  10  -2 298.568 106.615   2
  -3  10  -2 327.089 83.2435  10
   3 -10   3 25.2284 44.9637   1
  -3  10  -3 123.773 68.4693   3
  -3  10  -3 171.965 94.6516   2
   3 -10   3 27.5223 32.2145   7
  -3  10  -3 29.1241 55.1573  10
  -3  10  -4 289.314 77.1597   3
   3 -10   4 302.081 67.2592   7
  -3  10  -4 419.640 117.301   2
   3 -10   4 319.707 78.4749   1
  -3  10  -4 287.660 72.2765  10
   3 -10   5 1158.55 115.125   7
   3 -10   5 1279.18 141.691   1
  -3  10  -5 1127.56 127.595  10
  -3  10  -5 1206.61 149.153   3
  -3  10  -5 1072.10 148.522   2
  -3  10  -6 1494.74 164.708   3
   3 -10   6 1653.37 162.563   1
   3 -10   6 1647.73 141.663   7
  -3  10  -6 1655.96 152.664  10
  -3  10  -6 1635.78 181.252   2
   3 -10   7 1172.89 132.835   7
   3 -10   7 1322.18 149.489   1
  -3  10  -7 1315.91 135.934  10
  -3  10  -7 1435.51 162.183   3
  -3  10  -7 1249.46 170.415   2
   3 -10   8 3414.66 225.434   7
  -3  10  -8 3815.66 275.593   2
   3 -10   8 4170.50 263.077   1
  -3  10  -8 3510.07 248.012   3
  -3  10  -8 3810.31 219.570  10
   3 -10   9 821.212 112.217   7
   3 -10   9 1005.12 135.019   1
  -3  10  -9 680.556 121.892   3
  -3  10  -9 866.469 141.766   2
   3 -10  10 1126.04 143.489   1
  -3  10 -10 1108.85 157.745   2
   3 -10  10 914.178 128.392   7
  -3  10 -10 822.282 135.899   3
  -3  10 -11 203.745 84.0991   3
   3 -10  11 194.953 81.0200   7
   3 -10  11 248.613 92.1155   1
  -3  10 -11 104.099 66.2214   2
   3 -10  12 46.9511 66.2529   1
  -3  10 -12 152.844 88.7520   3
  -3  10 -12 27.8995 71.8274   2
   3 -10  12 164.036 71.6988   7
   3 -10  13 22.6685 60.2996   7
   3 -10  13 100.075 73.2118   1
  -3  10 -13 144.638 102.529   2
  -3  10 -14 477.014 121.219   2
   3 -10  14 353.176 94.2015   1
   3 -10  15 731.804 148.381   1
  -3  10 -15 534.410 131.548   2
  -3  10 -16 345.058 94.4889   2
  -3   9  11 1390.98 226.083   6
   3  -9 -11 1422.84 199.096   8
  -3   9  10 1063.97 167.705   1
   3  -9 -10 809.928 149.531   8
   3  -9  -9 514.263 118.985   8
  -3   9   9 346.300 110.021  10
  -3   9   9 397.022 110.816   1
   3  -9  -8 30.0494 56.8438   8
   3  -9  -8 66.6052 48.1159   7
  -3   9   8 102.182 64.5759   1
  -3   9   8-5.42903 72.3073  10
   3  -9  -7 960.617 145.840   8
  -3   9   7 360.012 104.847  10
   3  -9  -7 721.240 109.038   7
  -3   9   7 666.390 125.533   1
   3  -9  -7 787.255 121.849   3
   3  -9  -6 1532.10 145.812   7
   3  -9  -6 1530.11 162.732   3
  -3   9   6 1462.40 166.812   1
  -3   9   6 1249.27 187.797  10
  -3   9   5 3946.12 265.633   1
   3  -9  -5 3718.19 224.529   7
  -3   9   5 3870.31 268.745   3
  -3   9   5 3555.03 289.343  10
   3  -9  -5 4260.41 278.698   1
   3  -9  -5 4064.95 256.731   3
  -3   9   4 6686.74 346.153   3
  -3   9   4 6736.75 342.801   1
   3  -9  -4 7122.94 300.634   7
   3  -9  -4 6746.20 326.677   3
   3  -9  -4 6938.68 351.938   1
  -3   9   4 5551.47 355.674  10
  -3   9   3 6092.33 315.754   1
  -3   9   3 5921.27 317.730   3
   3  -9  -3 6443.78 327.808   1
   3  -9  -3 5957.95 267.936   7
   3  -9  -3 5903.75 297.707   3
  -3   9   3 5321.32 340.977  10
   3  -9  -2 3039.21 183.743   7
  -3   9   2 2740.93 234.681  10
   3  -9  -2 2835.16 211.762   1
   3  -9  -2 3255.54 212.125   3
  -3   9   2 2801.27 214.568   3
  -3   9   1 464.138 91.6809   3
   3  -9  -1 429.466 71.5701   7
   3  -9  -1 686.703 97.7502   3
   3  -9  -1 532.461 90.1245   1
  -3   9   1 615.549 118.331  10
   3  -9   0 423.322 67.5034   7
   3  -9   0 413.256 88.2938   1
  -3   9   0 476.958 96.2251   3
  -3   9   0 654.636 115.889  10
   3  -9   1 2.31672 49.0992   1
  -3   9  -1-47.0338 49.6316   3
   3  -9   1-17.3743 36.5424   7
  -3   9  -1-10.6089 48.2670  10
  -3   9  -1 148.446 91.1197   2
  -3   9  -2 626.086 105.418   3
   3  -9   2 692.053 85.4382   7
  -3   9  -2 650.129 111.835  10
   3  -9   2 757.935 101.689   1
  -3   9  -2 523.033 119.040   2
  -3   9  -3 4.13393 46.4628   3
   3  -9   3 25.0683 30.1011   7
  -3   9  -3-25.6867 45.5032  10
   3  -9   3-55.0072 52.7451   1
  -3   9  -3-6.22090 65.4106   2
  -3   9  -4 183.219 78.0284   3
   3  -9   4 109.217 48.2666   7
   3  -9   4 125.128 58.5295   1
  -3   9  -4 123.096 50.2913  10
  -3   9  -4 82.7681 76.2833   2
  -3   9  -5 624.021 100.673   3
   3  -9   5 915.478 120.950   1
   3  -9   5 753.730 94.0129   7
  -3   9  -5 846.633 106.401  10
  -3   9  -5 742.689 133.731   2
  -3   9  -6 61.1631 43.9235   3
   3  -9   6 128.511 47.1571   7
   3  -9   6 169.711 70.6551   1
  -3   9  -6 87.4510 46.0383  10
  -3   9  -6 170.140 74.4248   2
   3  -9   7 37.3366 49.2128   1
  -3   9  -7-66.5174 52.3352   3
   3  -9   7 29.3254 44.7527   7
  -3   9  -7 14.0046 68.9681   2
  -3   9  -7 74.9709 40.4570  10
  -3   9  -8 240.992 78.2148   3
  -3   9  -8 247.143 62.1263  10
  -3   9  -8 231.649 88.9459   2
   3  -9   8 200.216 66.3064   7
   3  -9   8 268.577 74.8994   1
  -3   9  -9-16.3560 49.8658   3
  -3   9  -9 5.01321 58.1820   2
   3  -9   9 12.3469 52.6863   1
   3  -9   9 27.5959 47.7923   7
   3  -9  10 668.069 109.016   1
   3  -9  10 607.561 117.070   7
  -3   9 -10 651.515 114.996   3
  -3   9 -10 682.869 126.900   2
  -3   9 -11 521.546 107.877   3
   3  -9  11 510.368 106.588   7
  -3   9 -11 549.224 107.668   2
   3  -9  11 619.182 117.400   1
  -3   9 -12 1014.13 150.158   3
   3  -9  12 1405.12 170.450   1
   3  -9  12 850.404 134.126   7
  -3   9 -12 1284.31 163.737   2
  -3   9 -13 606.925 118.781   3
   3  -9  13 508.207 118.482   7
  -3   9 -13 744.362 130.885   2
   3  -9  13 684.332 124.835   1
   3  -9  14 608.853 141.981   7
   3  -9  14 910.562 153.475   1
  -3   9 -14 598.604 126.731   2
  -3   9 -15-77.8972 86.6663   2
   3  -9  15 88.9088 87.0791   1
  -3   9 -16 157.657 80.5733   2
   3  -9  16 195.935 98.0763   1
   3  -8 -12 70.8583 76.4186   8
  -3   8  12 15.2422 66.1323   6
  -3   8  11-17.6179 75.0721   6
   3  -8 -11 190.212 95.4364   8
  -3   8  11 56.9488 75.7121   1
   3  -8 -10 265.954 92.3473   8
   3  -8 -10 306.937 83.1234   7
  -3   8  10 371.302 125.115   6
  -3   8  10 274.469 109.498  10
  -3   8  10 52.1869 59.7432   1
   3  -8  -9 984.837 150.019   8
   3  -8  -9 949.387 125.658   7
  -3   8   9 1076.12 141.293   1
  -3   8   9 737.158 143.921  10
   3  -8  -9 792.038 123.111   3
   3  -8  -8 2827.48 235.594   8
   3  -8  -8 2770.22 205.497   7
  -3   8   8 2915.27 230.498   1
  -3   8   8 2296.09 231.191  10
   3  -8  -8 2907.27 225.099   3
  -3   8   7 3629.58 252.233   1
   3  -8  -7 3674.62 262.227   8
   3  -8  -7 3410.23 221.155   7
   3  -8  -7 3646.25 240.536   3
  -3   8   7 3153.07 264.977  10
   3  -8  -6 1171.34 121.251   7
  -3   8   6 1083.65 133.248   1
   3  -8  -6 1099.71 142.603   1
  -3   8   6 1169.73 167.318  10
   3  -8  -6 1400.37 149.702   3
  -3   8   5 5040.88 281.871   1
   3  -8  -5 5275.45 254.132   7
   3  -8  -5 5191.14 291.724   1
   3  -8  -5 4837.57 266.796   3
  -3   8   5 4680.24 311.485  10
   3  -8  -4 42.7603 63.0323   1
  -3   8   4 36.0347 55.7891   3
   3  -8  -4 43.2418 40.5001   7
   3  -8  -4 5.22282 35.2285   3
  -3   8   4 25.2835 40.6049   1
  -3   8   3 109.143 51.2972   1
  -3   8   3 148.081 59.5646   3
   3  -8  -3 256.709 61.6403   7
   3  -8  -3 78.8780 47.2420   1
   3  -8  -3 104.887 45.1204   3
  -3   8   3 238.291 86.4105  10
  -3   8   2 2010.14 166.364   3
   3  -8  -2 2243.88 149.027   7
   3  -8  -2 2223.63 177.862   1
   3  -8  -2 2079.87 155.503   3
  -3   8   2 1870.18 185.598  10
   3  -8  -1 9516.66 310.752   7
  -3   8   1 9540.98 359.271   3
   3  -8  -1 8841.81 346.510   1
  -3   8   1 8247.04 374.024  10
   3  -8  -1 9559.15 343.499   3
   3  -8   0 9253.70 309.268   7
   3  -8   0 8921.29 354.100   1
  -3   8   0 8244.06 371.767  10
  -3   8   0 9133.30 359.876   3
  -3   8  -1 10817.1 396.963   2
   3  -8   1 12177.1 414.470   1
   3  -8   1 11064.4 348.118   7
  -3   8  -1 10578.4 413.623  10
  -3   8  -1 10784.9 397.384   3
   3  -8   2 10988.5 346.556   7
  -3   8  -2 10403.9 395.795   2
   3  -8   2 12027.4 405.034   1
  -3   8  -2 10600.6 399.621  10
  -3   8  -2 10935.0 399.580   3
   3  -8   3 6405.07 258.603   7
  -3   8  -3 6847.53 304.925   3
  -3   8  -3 6811.04 300.918  10
  -3   8  -3 6519.61 307.297   2
   3  -8   3 7083.67 303.373   1
  -3   8  -4 757.887 102.762   3
   3  -8   4 971.752 103.549   7
   3  -8   4 911.504 110.535   1
  -3   8  -4 780.875 97.5494  10
  -3   8  -4 886.166 119.914   2
  -3   8  -5 104.979 48.9454   3
   3  -8   5 207.038 53.2470   7
   3  -8   5 171.037 59.8606   1
  -3   8  -5 157.009 60.3945  10
  -3   8  -5 234.535 96.2860   2
  -3   8  -6 402.387 85.3610   3
   3  -8   6 377.054 79.9676   1
   3  -8   6 443.201 78.2761   7
  -3   8  -6 540.305 77.7718  10
  -3   8  -6 499.935 102.467   2
   3  -8   7 764.839 113.149   1
  -3   8  -7 618.763 81.5021  10
  -3   8  -7 720.770 113.736   2
   3  -8   7 596.831 88.3469   7
  -3   8  -7 574.119 95.2473   3
   3  -8   8 2173.06 171.714   7
  -3   8  -8 2178.86 189.610   2
   3  -8   8 2142.12 180.218   1
  -3   8  -8 1917.19 132.126  10
  -3   8  -8 2054.55 177.155   3
   3  -8   9 2108.63 175.757   7
  -3   8  -9 1939.07 179.583   2
   3  -8   9 2038.58 179.396   1
  -3   8  -9 2143.18 136.186  10
  -3   8  -9 2024.43 182.644   3
   3  -8  10 40.7421 50.8935   7
  -3   8 -10 137.852 81.9603   2
  -3   8 -10 63.9736 49.3736   3
   3  -8  10 62.4368 54.0369   1
   3  -8  11 392.733 105.815   7
  -3   8 -11 465.924 104.027   2
  -3   8 -11 419.541 95.6746   3
   3  -8  11 540.512 109.677   1
  -3   8 -12 274.418 86.8816   3
   3  -8  12 70.0147 56.1163   7
   3  -8  12 306.576 99.2964   1
  -3   8 -12 365.023 102.803   2
  -3   8 -13 141.886 58.0552   3
   3  -8  13-31.9179 62.4532   7
   3  -8  13 0.84891 65.2071   1
  -3   8 -13 24.9956 80.3145   2
   3  -8  14 12.4361 74.9279   7
   3  -8  14 144.655 69.0761   1
   3  -8  15 58.2055 76.1519   1
  -3   8 -15 88.0988 82.5999   2
   3  -8  16 50.4764 71.5729   1
  -3   8 -16 201.849 90.2457   2
   3  -7 -13 432.041 114.777   8
  -3   7  13 477.025 131.771   6
   3  -7 -12 928.914 156.519   8
  -3   7  12 867.275 172.084   6
  -3   7  12 741.321 135.600   1
   3  -7 -11 1630.07 188.315   8
  -3   7  11 1320.52 194.551   6
  -3   7  11 1485.63 174.256   1
  -3   7  10 685.906 120.835   1
   3  -7 -10 488.354 101.731   8
  -3   7  10 510.630 133.843   6
  -3   7  10 508.200 112.306  10
   3  -7 -10 499.263 104.143   3
   3  -7  -9 604.292 114.321   8
  -3   7   9 548.387 103.408   1
  -3   7   9 741.672 127.455  10
   3  -7  -9 638.896 104.833   3
   3  -7  -8 153.591 74.3936   8
   3  -7  -8 192.970 62.4574   7
  -3   7   8 184.482 65.6991   1
   3  -7  -8 230.578 68.3532   3
   3  -7  -7 881.224 126.450   8
   3  -7  -7 630.998 103.734   7
  -3   7   7 749.270 113.858   1
  -3   7   7 641.313 119.247  10
   3  -7  -7 749.385 103.339   3
   3  -7  -6 738.600 111.843   1
   3  -7  -6 568.973 85.8320   7
  -3   7   6 671.305 105.715   1
  -3   7   6 724.891 132.272  10
   3  -7  -6 621.211 94.0033   3
   3  -7  -5 242.337 59.6362   7
   3  -7  -5 541.753 98.9128   1
  -3   7   5 375.167 82.5951   1
  -3   7   5 285.148 88.3616  10
   3  -7  -5 510.130 84.5091   3
  -3   7   4 103.862 63.6240   2
   3  -7  -4 212.254 70.5718   1
  -3   7   4 273.581 75.5352   1
   3  -7  -4 204.114 56.3805   7
  -3   7   4 262.618 85.0593  10
   3  -7  -4 140.610 46.9538   3
   3  -7  -3 2185.25 145.971   7
  -3   7   3 2179.59 164.526   3
   3  -7  -3 2174.04 164.305   1
   3  -7  -3 1963.21 145.752   3
  -3   7   3 2243.43 188.172  10
  -3   7   2 2238.23 181.675  10
  -3   7   2 2410.34 170.511   3
   3  -7  -2 2092.77 143.855   7
   3  -7  -2 2460.46 167.965   1
   3  -7  -2 2533.06 158.416   3
   3  -7  -1 7717.18 279.374   7
  -3   7   1 7524.90 293.158   2
   3  -7  -1 7737.15 309.508   1
  -3   7   1 8189.52 315.542   3
   3  -7  -1 8087.35 301.588   3
  -3   7   1 7050.11 327.606  10
   3  -7   0-6.87174 41.1130   1
  -3   7   0-4.68943 49.2437   3
   3  -7   0 21.9595 36.1642   7
  -3   7   0 55.8478 51.2386  10
  -3   7   0-17.8110 48.3429   2
   3  -7   1 38.0685 31.0661   7
  -3   7  -1-73.0343 52.3002   3
  -3   7  -1-33.0344 58.3747   2
   3  -7   1 32.8044 44.6718   1
  -3   7  -1-23.6196 42.1825  10
  -3   7  -2 443.670 79.2811   3
   3  -7   2 440.362 63.2121   7
   3  -7   2 293.902 66.9006   1
  -3   7  -2 312.456 66.0831  10
  -3   7  -2 374.742 76.5466   2
   3  -7   3 7871.13 284.575   7
  -3   7  -3 8410.08 322.287   3
  -3   7  -3 8005.07 325.136   2
   3  -7   3 8051.84 309.740   1
  -3   7  -3 7902.37 304.309  10
   3  -7   4 7522.46 302.874   1
   3  -7   4 7266.45 276.952   7
  -3   7  -4 7740.85 310.801   3
  -3   7  -4 7789.83 320.989   2
  -3   7  -4 7348.93 284.455  10
  -3   7  -5 8316.02 351.536   2
   3  -7   5 8718.93 338.735   1
  -3   7  -5 8897.15 310.392  10
  -3   7  -5 9444.24 348.488   3
   3  -7   5 9175.63 322.936   7
  -3   7  -6 8501.30 353.686   2
   3  -7   6 8543.49 342.968   1
  -3   7  -6 9342.92 306.928  10
   3  -7   6 8857.45 333.522   7
  -3   7  -6 8009.09 332.871   3
   3  -7   7 4432.86 236.631   7
  -3   7  -7 4805.81 260.512   2
  -3   7  -7 4612.37 202.328  10
  -3   7  -7 4587.95 247.326   3
   3  -7   7 4604.41 248.660   1
  -3   7  -8 4771.39 260.073   2
   3  -7   8 4871.06 263.406   1
   3  -7   8 4366.93 253.736   7
  -3   7  -8 4370.22 194.117  10
  -3   7  -8 4907.57 260.111   3
  -3   7  -9 244.989 76.2654   2
  -3   7  -9 158.758 37.3838  10
   3  -7   9 201.381 66.4147   1
   3  -7   9 171.521 56.4213   7
  -3   7  -9 115.976 55.8389   3
  -3   7 -10 46.9166 50.2755   3
   3  -7  10 14.6851 60.7335   7
  -3   7 -10 71.5060 57.6202   2
   3  -7  10 106.842 58.8611   1
  -3   7 -11 333.528 88.3055   3
   3  -7  11 399.176 101.084   7
   3  -7  11 527.945 102.889   1
  -3   7 -11 270.973 78.8591   2
  -3   7 -12 1051.89 141.053   3
   3  -7  12 1290.16 160.636   7
   3  -7  12 1309.21 153.904   1
  -3   7 -12 1177.94 147.768   2
  -3   7 -13 1566.21 167.960   2
   3  -7  13 1073.15 158.556   7
   3  -7  13 1605.20 180.841   1
  -3   7 -13 1342.50 167.314   3
  -3   7 -14 312.251 83.4970   3
   3  -7  14 264.754 91.7366   7
   3  -7  14 389.104 92.8664   1
  -3   7 -14 516.432 102.953   2
   3  -7  15 508.906 124.347   1
  -3   7 -15 284.944 87.2109   2
   3  -7  16 61.2585 86.1761   1
  -3   7 -16 110.314 62.6883   2
  -3   6  14 2091.48 220.063   1
  -3   6  14 1852.75 227.609   6
  -3   6  13 2010.93 230.270   6
   3  -6 -13 2175.06 224.687   8
  -3   6  13 1972.31 207.948   1
  -3   6  12 1370.53 172.124   1
  -3   6  12 1598.71 212.952   6
   3  -6 -12 1580.30 188.127   8
  -3   6  11 948.523 153.841   6
   3  -6 -11 598.780 115.307   8
  -3   6  11 580.920 111.078   1
   3  -6 -11 572.244 107.591   3
   3  -6 -10 12.0859 46.7575   8
  -3   6  10 121.555 73.1017   1
  -3   6  10 163.959 81.0130   6
  -3   6  10-79.5824 63.0670  10
   3  -6 -10 113.554 66.3815   3
   3  -6  -9 1170.99 145.075   8
  -3   6   9 1159.54 137.331   1
  -3   6   9 1078.01 148.491   6
  -3   6   9 1031.23 142.230  10
   3  -6  -9 1346.90 142.041   3
  -3   6   8 5667.36 296.198   1
   3  -6  -8 5548.21 296.667   8
   3  -6  -8 6072.76 296.392   3
  -3   6   8 5930.30 321.547  10
   3  -6  -7 6135.43 299.472   8
  -3   6   7 5920.04 288.895   1
   3  -6  -7 5800.83 277.173   3
  -3   6   7 5994.55 320.020  10
   3  -6  -6 2852.94 180.065   7
  -3   6   6 3294.45 204.256   1
   3  -6  -6 3188.12 205.970   1
   3  -6  -6 3205.46 195.014   3
  -3   6   6 3148.30 227.357  10
  -3   6   5 2043.08 157.561   1
   3  -6  -5 1762.62 142.764   7
   3  -6  -5 2346.99 170.490   1
   3  -6  -5 2163.30 151.884   3
  -3   6   5 2416.22 193.797  10
  -3   6   4 2479.38 171.537   1
   3  -6  -4 2302.58 153.701   7
   3  -6  -4 2480.84 170.244   1
   3  -6  -4 2442.21 159.228   3
  -3   6   4 2529.91 189.753  10
   3  -6  -3 1134.90 109.129   1
  -3   6   3 1074.54 99.1249   2
   3  -6  -3 1117.74 105.698   7
  -3   6   3 1115.45 129.798  10
   3  -6  -3 971.121 97.8203   3
  -3   6   2 383.843 70.4634   3
   3  -6  -2 328.406 61.7520   7
   3  -6  -2 345.290 62.4264   3
   3  -6  -2 361.075 65.4148   1
  -3   6   2 422.128 81.5521  10
  -3   6   2 377.074 60.0563   2
   3  -6  -1 303.014 53.6538   7
  -3   6   1 301.692 67.1975   3
   3  -6  -1 311.692 65.5944   3
   3  -6  -1 331.681 67.2019   1
  -3   6   1 345.793 74.9000  10
  -3   6   1 285.020 62.8763   2
   3  -6   0 771.581 78.5619   7
  -3   6   0 691.194 85.3210   3
   3  -6   0 831.330 92.2628   1
  -3   6   0 771.806 94.8258  10
  -3   6   0 769.085 85.9652   2
   3  -6   1 13.2105 29.6081   7
   3  -6   1 24.8153 37.8752   1
  -3   6  -1 55.4030 38.0902  10
  -3   6  -1 61.6456 41.2455   2
  -3   6  -1 65.4494 35.4102   3
  -3   6  -2-4.97979 39.6310   3
   3  -6   2 11.2950 28.1251   7
   3  -6   2 69.7173 37.1132   1
  -3   6  -2 103.598 52.3154  10
  -3   6  -2 26.2877 43.7011   2
   3  -6   3 9690.68 310.902   7
  -3   6  -3 9182.94 333.369   2
   3  -6   3 10077.8 333.322   1
  -3   6  -3 9029.11 310.437  10
  -3   6  -3 9739.53 331.544   3
  -3   6  -4 1615.20 127.394   3
  -3   6  -4 1838.21 140.655   2
   3  -6   4 1816.54 135.565   1
   3  -6   4 1718.38 128.308   7
  -3   6  -4 1438.13 112.139  10
   3  -6   5 2327.81 155.125   7
  -3   6  -5 2359.32 138.711  10
  -3   6  -5 2262.22 161.321   2
   3  -6   5 2237.08 154.880   1
  -3   6  -5 2203.74 155.666   3
  -3   6  -6 205.664 57.6521   3
   3  -6   6 174.712 55.0451   7
  -3   6  -6 242.202 48.9902  10
   3  -6   6 269.122 65.5619   1
  -3   6  -6 206.002 71.6650   2
  -3   6  -7 546.169 91.8080   3
   3  -6   7 914.850 109.760   7
  -3   6  -7 655.857 73.2871  10
  -3   6  -7 702.685 105.081   2
   3  -6   7 721.956 103.816   1
  -3   6  -8 994.485 114.053   3
   3  -6   8 911.996 119.548   7
   3  -6   8 1207.33 124.163   1
  -3   6  -8 1132.24 126.737   2
   3  -6   9 5365.55 276.213   1
  -3   6  -9 4862.69 259.423   2
  -3   6  -9 5098.60 268.572   3
   3  -6   9 4518.87 271.706   7
   3  -6  10 4342.94 256.398   1
  -3   6 -10 4169.20 238.155   2
   3  -6  10 4308.15 262.952   7
  -3   6 -10 4058.13 244.088   3
   3  -6  11 2786.15 221.327   7
   3  -6  11 3063.63 220.685   1
  -3   6 -11 2984.26 204.604   2
   3  -6  12 1376.07 166.375   7
   3  -6  12 1601.17 171.173   1
  -3   6 -12 1360.82 143.799   2
  -3   6 -12 1368.36 163.962   3
   3  -6  13 724.711 139.300   7
   3  -6  13 820.431 127.237   1
  -3   6 -13 529.399 102.343   2
  -3   6 -13 832.842 122.289   3
  -3   6 -14 79.0072 51.9101   3
   3  -6  14 17.4787 65.2525   7
   3  -6  14 180.405 81.5273   1
  -3   6 -14-0.66875 67.0631   2
   3  -6  15-57.0435 68.5180   1
  -3   6 -15 0.70665 50.3069   2
   3  -6  16 269.325 93.9711   1
  -3   5  15 345.833 114.748   6
  -3   5  14 129.222 80.5859   1
  -3   5  14 83.7494 83.0027   6
  -3   5  13 300.954 89.8811   1
   3  -5 -13 248.874 81.9592   8
  -3   5  13 167.931 92.0371   6
   3  -5 -12 445.317 98.3762   8
   3  -5 -12 376.851 86.6542   3
  -3   5  12 337.738 92.6982   1
  -3   5  12 421.655 116.627   6
  -3   5  11 1562.62 162.452   1
   3  -5 -11 1759.97 178.839   8
  -3   5  11 1670.54 189.326   6
   3  -5 -11 1699.93 164.748   3
  -3   5  10 5189.64 288.497   1
  -3   5  10 4714.90 307.583   6
   3  -5 -10 5089.33 295.845   8
   3  -5 -10 5277.81 283.523   3
  -3   5  10 5242.61 284.648  10
   3  -5  -9 8437.60 365.239   8
  -3   5   9 8300.37 353.438   1
  -3   5   9 8179.08 388.605   6
   3  -5  -9 8280.32 351.557   3
  -3   5   9 8410.01 366.794  10
  -3   5   8 5542.16 303.538   6
   3  -5  -8 5971.26 286.271   8
  -3   5   8 5538.48 274.895   1
   3  -5  -8 5970.49 274.075   3
  -3   5   8 5507.37 284.898  10
   3  -5  -7 7440.74 318.753   8
  -3   5   7 7999.52 353.188   6
   3  -5  -7 7347.47 302.948   3
  -3   5   7 7436.75 310.143   1
  -3   5   7 7791.59 335.953  10
  -3   5   6 1137.50 116.123   1
   3  -5  -6 1014.49 105.683   3
  -3   5   6 1186.99 122.710  10
  -3   5   5 272.444 34.9695   2
   3  -5  -5 191.652 55.7197   7
  -3   5   5 220.231 61.8884   1
   3  -5  -5 231.421 63.6120   1
  -3   5   5 229.052 63.2939  10
   3  -5  -5 217.856 56.5032   3
  -3   5   4 4833.38 219.633   1
  -3   5   4 4767.18 158.546   2
   3  -5  -4 4620.78 220.345   1
   3  -5  -4 4879.67 207.862   3
  -3   5   4 4592.12 234.298  10
  -3   5   3 16943.8 391.362   2
   3  -5  -3 16735.0 454.887   1
   3  -5  -3 16826.2 443.142   7
   3  -5  -3 18045.5 452.410   3
  -3   5   3 17536.7 497.037  10
   3  -5  -2 13026.2 368.635   7
  -3   5   2 13214.1 333.835   2
   3  -5  -2 12644.7 370.012   1
  -3   5   2 13150.8 376.535   3
   3  -5  -2 12801.2 355.833   3
  -3   5   2 13139.9 403.595  10
   3  -5  -1 16017.1 404.785   7
   3  -5  -1 16408.7 420.707   1
  -3   5   1 15859.0 440.065  10
   3  -5  -1 15560.8 402.011   3
  -3   5   1 15938.4 418.843   3
   3  -5   0 13689.3 363.728   7
  -3   5   0 12765.3 385.093  10
  -3   5   0 12908.3 310.202   6
  -3   5   0 14340.4 366.236   2
   3  -5   0 13926.7 376.252   1
  -3   5   0 13040.4 369.687   3
   3  -5   1 14238.7 375.572   7
  -3   5  -1 14802.2 385.182   2
   3  -5   1 14267.5 391.683   1
  -3   5  -1 14048.3 396.629  10
  -3   5  -1 14056.7 390.359   3
   3  -5   2 1229.93 98.5515   7
  -3   5  -2 1358.01 107.752   2
   3  -5   2 1236.48 101.698   1
  -3   5  -2 1269.60 103.768  10
  -3   5  -2 1213.97 102.408   3
   3  -5   3 2340.47 143.743   7
  -3   5  -3 2449.20 151.292   2
   3  -5   3 2593.80 149.084   1
  -3   5  -3 2502.59 146.156   3
  -3   5  -3 2595.27 140.918  10
  -3   5  -4 29.5056 37.8102   3
   3  -5   4 107.221 47.7914   7
  -3   5  -4 75.0916 33.1090  10
  -3   5  -4 142.927 52.0362   2
   3  -5   4 87.5972 45.0995   1
  -3   5  -5 889.260 94.9401   3
   3  -5   5 909.231 96.3453   7
   3  -5   5 1176.78 106.064   1
  -3   5  -5 975.335 82.3628  10
  -3   5  -5 1038.17 102.912   2
  -3   5  -6 218.129 58.8154   3
  -3   5  -6 139.861 54.8532   2
   3  -5   6 219.077 51.5119   1
   3  -5   6 114.786 51.4835   7
  -3   5  -6 192.142 44.9381  10
   3  -5   7 234.864 70.0183   7
  -3   5  -7 255.841 67.0678   3
   3  -5   7 249.026 68.2907   1
  -3   5  -7 377.485 72.0416   2
   3  -5   8 886.861 113.465   7
  -3   5  -8 947.200 114.114   3
   3  -5   8 974.378 110.854   1
  -3   5  -8 761.326 99.6831   2
  -3   5  -9 89.3043 51.5770   3
   3  -5   9 42.3060 56.4701   7
   3  -5   9 198.019 64.8783   1
  -3   5  -9 140.660 54.0964   2
  -3   5 -10 18.5815 40.0899   3
   3  -5  10 43.1192 56.9693   7
   3  -5  10 57.0686 45.6347   1
  -3   5 -10 44.9810 39.8553   2
  -3   5 -11 45.4492 56.0967   3
   3  -5  11-87.5757 71.9641   1
  -3   5 -11 51.0075 41.1978   2
   3  -5  11-29.9357 66.1353   7
  -3   5 -12 84.5235 46.6041   3
   3  -5  12 14.0528 51.6176   7
   3  -5  12 61.3061 46.9905   1
  -3   5 -12-82.4888 62.7006   2
  -3   5 -13 530.801 110.946   3
   3  -5  13 625.733 121.357   7
   3  -5  13 703.285 118.098   1
  -3   5 -13 564.308 97.6876   2
  -3   5 -14 669.919 123.711   3
   3  -5  14 665.823 143.710   7
   3  -5  14 773.241 136.849   1
  -3   5 -14 870.606 124.074   2
   3  -5  15 965.359 150.179   1
   3  -5  16 1130.63 170.556   1
  -3   4  15 587.679 114.203   1
  -3   4  15 448.130 109.252   6
  -3   4  14 288.242 79.7114   1
  -3   4  14 138.278 69.0238   6
  -3   4  13 137.413 55.2802   1
  -3   4  13 129.524 82.5920   6
   3  -4 -13 84.1590 64.1953   3
   3  -4 -12 24.2019 44.4238   8
  -3   4  12-22.3943 50.0799   1
  -3   4  12 40.8696 73.5466   6
   3  -4 -12-5.44635 44.4547   3
   3  -4 -11-7.90244 50.0973   8
  -3   4  11 19.2586 65.9509   6
   3  -4 -11-16.6148 43.3069   3
  -3   4  11-21.8916 39.2849   1
   3  -4 -10 39.7416 46.0239   8
  -3   4  10 21.4558 53.3157   6
  -3   4  10-8.11949 56.2535  10
  -3   4  10 25.5566 47.3274   1
   3  -4 -10 51.6194 50.4027   3
   3  -4  -9 15.4483 40.1474   3
  -3   4   9-29.7977 55.5985   6
   3  -4  -9-2.16910 41.6120   8
  -3   4   9 77.5557 44.2775   1
  -3   4   9-60.2347 56.2435  10
   3  -4  -8 91.9553 47.2940   8
  -3   4   8 77.5648 64.9970   6
  -3   4   8-17.8093 38.5607  10
  -3   4   8-4.33275 39.7025   1
   3  -4  -8 63.1262 37.3100   3
   3  -4  -7 1710.38 133.086   8
  -3   4   7 2027.16 145.469   1
  -3   4   7 1527.83 144.358   6
  -3   4   7 1954.91 148.365  10
   3  -4  -7 1778.68 132.811   3
  -3   4   6 8711.96 303.043   1
   3  -4  -6 8333.67 301.872   8
  -3   4   6 8670.73 320.177  10
   3  -4  -6 8506.69 296.074   3
  -3   4   6 8581.87 328.372   6
  -3   4   5 11250.8 361.700   6
  -3   4   5 10185.9 211.200   2
  -3   4   5 10631.2 352.852  10
   3  -4  -5 11195.1 339.258   1
   3  -4  -5 10755.1 326.937   3
  -3   4   5 11143.7 335.621   1
  -3   4   4 18191.9 455.486   1
   3  -4  -4 17973.0 459.826   7
  -3   4   4 18878.4 479.219   6
  -3   4   4 17970.7 355.882   2
   3  -4  -4 17648.3 461.112   1
   3  -4  -4 18454.4 450.092   3
  -3   4   4 18469.8 488.412  10
   3  -4  -3 9801.34 297.498   7
  -3   4   3 10336.3 302.682   6
  -3   4   3 9389.17 231.739   2
   3  -4  -3 9456.85 289.900   1
   3  -4  -3 8879.34 275.773   3
  -3   4   3 9963.55 319.598  10
  -3   4   2 699.374 70.6143   3
   3  -4  -2 797.829 77.7442   7
  -3   4   2 827.148 72.3555   6
  -3   4   2 768.903 64.5978   2
   3  -4  -2 764.804 73.1879   1
   3  -4  -2 829.257 70.1709   3
  -3   4   2 858.787 85.9391  10
  -3   4   1 685.055 69.3043   3
   3  -4  -1 683.535 69.9473   7
  -3   4   1 746.880 61.1503   6
  -3   4   1 844.524 73.0617   2
   3  -4  -1 837.070 73.6762   1
  -3   4   1 671.313 75.1993  10
   3  -4  -1 674.038 66.2810   3
   3  -4   0 1894.45 113.005   7
  -3   4   0 1789.03 107.942   2
   3  -4   0 1731.15 104.533   1
  -3   4   0 1808.54 115.476  10
  -3   4   0 1771.94 105.296   3
   3  -4   1 4856.25 185.722   7
  -3   4  -1 4544.59 185.383  10
  -3   4  -1 4422.55 181.030   2
   3  -4   1 4621.93 180.829   1
  -3   4  -1 4434.31 178.060   3
   3  -4   2 21526.7 502.470   7
  -3   4  -2 22749.4 505.497   2
   3  -4   2 21685.1 505.656   1
   3  -4   2 21764.5 473.856   4
  -3   4  -2 22565.1 506.122  10
  -3   4  -2 21726.3 499.347   3
   3  -4   3 32279.7 723.295   7
  -3   4  -3 35007.2 715.006   3
  -3   4  -3 35142.1 720.019   2
   3  -4   3 36093.3 731.879   1
  -3   4  -3 33977.5 699.527  10
   3  -4   3 33715.9 681.328   4
   3  -4   4 47652.8 941.943   7
   3  -4   4 45997.2 933.683   1
  -3   4  -4 45401.5 924.902   2
   3  -4   4 46928.2 892.194   4
  -3   4  -4 46413.7 895.189  10
  -3   4  -4 45974.5 919.830   3
   3  -4   5 8220.72 285.177   1
  -3   4  -5 7497.43 271.413   2
   3  -4   5 7204.52 247.321   4
  -3   4  -5 8045.03 275.490   3
  -3   4  -5 7926.15 249.956  10
   3  -4   6 5087.04 240.118   7
  -3   4  -6 5056.67 225.555   2
   3  -4   6 4665.36 200.367   4
   3  -4   6 5502.05 235.914   1
  -3   4  -6 5042.74 220.703   3
  -3   4  -7 174.280 51.5217   3
   3  -4   7 159.792 56.4005   7
   3  -4   7 277.949 63.2014   1
  -3   4  -7 184.019 55.2175   2
   3  -4   8 502.129 96.8186   7
   3  -4   8 549.090 88.1443   1
  -3   4  -8 589.768 85.9831   3
  -3   4  -8 582.073 79.8209   2
  -3   4  -9 39.1493 44.3108   3
   3  -4   9 90.3289 55.0200   7
   3  -4   9 4.70879 45.0348   1
  -3   4  -9-35.4049 49.0234   2
   3  -4  10 1044.95 134.344   7
   3  -4  10 1259.31 130.015   1
  -3   4 -10 1178.39 118.380   2
  -3   4 -10 1371.34 134.707   3
   3  -4  11 79.5070 56.6831   7
   3  -4  11 165.444 63.8677   1
  -3   4 -11 196.121 63.1276   3
  -3   4 -11 141.308 58.4199   2
   3  -4  12 2251.56 212.238   7
   3  -4  12 2193.90 191.593   1
  -3   4 -12 2225.22 175.801   2
  -3   4 -12 2341.76 198.756   3
   3  -4  13-34.5086 82.2238   7
  -3   4 -13 15.9088 51.0481   3
   3  -4  13-27.0441 62.7955   1
  -3   4 -13-73.2554 64.8599   2
  -3   4 -14-0.40615 60.5582   3
   3  -4  14 25.1837 63.7336   7
   3  -4  14 87.3130 60.0477   1
  -3   4 -14 100.494 53.5304   2
   3  -4  15 63.0235 75.8364   1
   3  -4  16 61.7368 69.3731   1
  -3   3  16 1629.44 189.874   1
  -3   3  16 1625.04 204.873   6
  -3   3  15 1349.54 164.201   1
  -3   3  15 1293.27 178.283   6
   3  -3 -14 1244.86 156.704   3
  -3   3  14 1197.97 164.053   6
  -3   3  14 1340.18 157.985   1
  -3   3  13-110.563 66.9230   1
  -3   3  13-21.1683 62.2796   6
   3  -3 -13 11.4576 42.5669   3
  -3   3  12 136.078 60.7077   1
  -3   3  12 30.4653 71.2515   6
   3  -3 -12 60.7983 47.8454   3
   3  -3 -11 2344.89 183.488   8
  -3   3  11 2200.43 198.921   6
  -3   3  11 2364.23 182.943   1
   3  -3 -11 2632.38 189.508   3
   3  -3 -10 2344.22 176.745   8
  -3   3  10 2347.54 170.615   1
  -3   3  10 2349.69 151.045  10
  -3   3  10 2436.14 195.791   6
   3  -3 -10 2554.39 171.717   3
  -3   3   9 2278.44 160.373   1
  -3   3   9 2184.03 180.406   6
   3  -3  -9 2108.39 163.389   8
   3  -3  -9 2168.17 157.815   3
  -3   3   9 2052.56 134.783  10
  -3   3   8 4151.70 235.048   6
  -3   3   8 4372.36 210.747   1
   3  -3  -8 3828.73 205.729   8
   3  -3  -8 4421.72 206.713   3
  -3   3   8 4038.11 196.717  10
   3  -3  -7 3852.33 191.226   8
  -3   3   7 3757.29 183.814   1
  -3   3   7 3569.67 180.381  10
   3  -3  -7 4009.50 185.850   3
  -3   3   7 3681.24 209.755   6
  -3   3   6 531.487 70.8834  10
  -3   3   6 499.715 74.7384   6
  -3   3   6 474.932 67.9140   1
   3  -3  -6 477.787 65.0707   8
   3  -3  -6 480.689 66.4214   3
   3  -3  -5 451.108 65.3436   1
  -3   3   5 510.484 72.4716   6
  -3   3   5 476.317 61.9622   1
  -3   3   5 447.008 61.0301  10
   3  -3  -5 458.751 60.1074   3
  -3   3   4 8211.12 255.343   1
   3  -3  -4 8972.93 276.842   7
  -3   3   4 8896.14 280.507   6
  -3   3   4 8447.57 181.647   2
  -3   3   4 8765.38 279.098  10
   3  -3  -4 8414.08 253.922   3
   3  -3  -3 54.1574 31.9415   1
  -3   3   3-35.1983 30.1034   6
  -3   3   3 11.4341 21.0070   2
   3  -3  -3 8.46007 29.2829   7
  -3   3   3 62.5058 32.2132  10
   3  -3  -3 7.65842 25.0874   3
  -3   3   2 6645.84 208.614   3
  -3   3   2 6952.83 206.130   6
   3  -3  -2 6280.91 204.925   1
   3  -3  -2 7230.17 203.716   3
  -3   3   2 6563.58 229.012  10
  -3   3   1 4327.10 149.907   2
   3  -3  -1 4675.29 178.338   7
   3  -3  -1 4966.02 166.812   1
  -3   3   1 4616.47 146.956   6
  -3   3   1 4526.40 179.361  10
  -3   3   1 4841.37 164.128   3
   3  -3   0 3376.36 149.216   7
   3  -3   0 3690.62 141.709   1
  -3   3   0 3268.64 147.045  10
  -3   3   0 3303.15 134.544   2
   3  -3   0 3688.66 124.988   4
  -3   3   0 3380.57 136.119   3
   3  -3   1 8475.65 258.186   7
  -3   3  -1 8087.58 242.832   2
   3  -3   1 8421.70 245.760   1
  -3   3  -1 8529.27 240.292   3
   3  -3   1 9374.76 228.056   4
  -3   3  -1 8442.02 254.760  10
  -3   3  -2 1810.14 112.917   2
   3  -3   2 2037.81 109.900   1
   3  -3   2 2034.06 117.244   7
  -3   3  -2 1827.17 106.025  10
   3  -3   2 2004.41 97.5443   4
  -3   3  -2 1884.87 103.186   3
  -3   3  -3 571.545 59.4531   3
   3  -3   3 550.928 64.2493   7
   3  -3   3 635.263 58.5701   4
  -3   3  -3 543.434 60.1750  10
   3  -3   3 594.701 64.8537   1
  -3   3  -3 525.383 59.8362   2
  -3   3  -4 12.6508 28.1399   3
   3  -3   4-1.98004 36.6828   7
   3  -3   4-4.75586 30.6350   1
   3  -3   4 19.8174 18.2074   4
  -3   3  -4-14.6364 39.1577   2
   3  -3   5 853.410 75.8395   4
  -3   3  -5 890.375 85.0025   2
   3  -3   5 872.986 86.3418   1
  -3   3  -5 864.957 85.1855   3
   3  -3   5 788.555 90.5382   7
   3  -3   6 6436.64 275.049   7
  -3   3  -6 7178.08 260.683   2
   3  -3   6 6695.68 261.352   1
   3  -3   6 7036.76 247.919   4
  -3   3  -6 6225.30 251.070   3
   3  -3   7 10264.8 370.702   7
   3  -3   7 10334.4 354.262   1
  -3   3  -7 10945.6 342.699   2
   3  -3   8 11093.5 411.389   7
   3  -3   8 11363.2 392.509   1
  -3   3  -8 11990.5 378.349   2
  -3   3  -8 11742.7 386.761   3
   3  -3   9 8308.83 357.062   7
   3  -3   9 7926.60 332.542   1
  -3   3  -9 8201.75 310.635   2
  -3   3  -9 7481.83 316.746   3
   3  -3  10 3560.68 241.645   7
   3  -3  10 3881.01 234.596   1
  -3   3 -10 3601.08 206.901   2
  -3   3 -10 3740.96 225.593   3
  -3   3 -11 803.922 115.543   3
   3  -3  11 628.369 123.313   7
   3  -3  11 713.004 109.689   1
  -3   3 -11 704.301 97.1759   2
   3  -3  12 528.664 119.311   7
   3  -3  12 556.958 107.568   1
  -3   3 -12 620.271 98.2073   2
  -3   3 -12 784.798 117.930   3
  -3   3 -13 130.357 77.8749   3
   3  -3  13 137.329 64.3305   1
   3  -3  13 84.2359 74.2500   7
  -3   3 -13 76.2538 51.2449   2
  -3   3 -14 1186.07 151.031   3
   3  -3  14 1025.31 162.848   7
   3  -3  14 1355.46 167.502   1
   3  -3  15 543.910 118.770   1
  -3   2  17 247.577 92.5465   1
  -3   2  17-19.4604 78.9163   6
  -3   2  16 56.8308 67.6564   6
  -3   2  16 321.341 88.0816   1
  -3   2  15 36.5198 60.7395   1
  -3   2  15 123.651 80.1886   6
  -3   2  14 1050.98 133.092   1
  -3   2  14 722.268 125.830   6
   3  -2 -14 1078.62 140.189   3
  -3   2  13 3144.78 219.234   1
  -3   2  13 3229.08 250.297   6
   3  -2 -13 3803.41 242.478   3
  -3   2  12 6306.75 302.056   1
  -3   2  12 6006.64 331.941   6
   3  -2 -12 6794.30 309.634   3
  -3   2  11 6116.08 318.867   6
   3  -2 -11 6179.92 290.326   3
  -3   2  11 6376.16 288.732   1
  -3   2  10 8201.54 358.089   6
  -3   2  10 7981.27 310.621   1
   3  -2 -10 8274.27 321.045   8
   3  -2 -10 8189.66 321.885   3
   3  -2  -9 1808.35 135.301   8
  -3   2   9 1733.90 151.697   6
  -3   2   9 1869.43 117.978  10
   3  -2  -9 1907.50 135.785   3
  -3   2   9 1716.18 132.365   1
   3  -2  -8 393.080 59.8900   8
  -3   2   8 428.179 58.8276  10
  -3   2   8 393.299 77.1591   6
  -3   2   8 379.556 59.2554   1
   3  -2  -8 348.164 60.3223   3
   3  -2  -7 2466.90 142.112   8
  -3   2   7 2627.42 141.375   1
  -3   2   7 2437.05 161.887   6
  -3   2   7 2476.58 132.570  10
   3  -2  -7 2501.10 136.103   3
   3  -2  -6 1809.25 112.803   8
  -3   2   6 1855.37 133.216   6
  -3   2   6 1793.44 109.003   1
   3  -2  -6 1741.43 110.663   3
  -3   2   6 1973.84 113.936  10
  -3   2   5 6083.08 197.816   1
  -3   2   5 5908.11 227.513   6
   3  -2  -5 6289.08 204.121   8
   3  -2  -5 6022.60 195.870   3
  -3   2   5 6033.57 208.273  10
  -3   2   4 20337.3 431.059   1
  -3   2   4 20700.7 367.839   2
  -3   2   4 19292.1 467.863   6
  -3   2   4 19855.5 455.992  10
   3  -2  -4 19447.2 425.463   3
  -3   2   3 24101.4 451.485   2
   3  -2  -3 23969.6 522.678   7
  -3   2   3 24651.6 521.724   6
   3  -2  -3 24704.4 487.415   1
   3  -2  -3 24750.1 480.042   3
  -3   2   3 23948.4 520.680  10
   3  -2  -2 1687.70 99.5644   7
  -3   2   2 1695.46 82.4583   3
  -3   2   2 1552.27 85.2486   6
   3  -2  -2 1582.97 80.9843   1
  -3   2   2 1617.31 97.8173  10
   3  -2  -2 1698.29 63.4568   4
   3  -2  -2 1627.25 77.5758   3
   3  -2  -1 1733.54 98.6889   7
  -3   2   1 1679.61 83.7737   2
   3  -2  -1 1631.97 80.5648   1
   3  -2  -1 1707.72 62.9106   4
  -3   2   1 1695.35 73.5680   3
  -3   2   1 1667.28 98.7787  10
  -3   2   1 1598.02 77.4646   3
   3  -2   0 1624.48 97.1313   7
  -3   2   0 1795.13 82.4681   3
  -3   2   0 1725.67 90.3646   2
  -3   2   0 1855.68 103.905  10
   3  -2   0 1896.44 89.6880   1
  -3   2  -1 442.723 42.6199   3
  -3   2  -1 451.927 53.4920  10
  -3   2  -1 442.686 52.2555   2
   3  -2   1 338.547 47.3684   1
   3  -2   1 488.221 56.0242   7
  -3   2  -2 32.6881 23.9949   3
   3  -2   2 77.4945 36.5154   7
   3  -2   2 41.1787 22.1129   1
  -3   2  -2 43.4891 32.8180   2
  -3   2  -3 1072.98 84.3221   2
   3  -2   3 983.185 87.6930   7
   3  -2   3 1062.35 80.7445   1
  -3   2  -3 1138.59 78.2972   3
   3  -2   4 822.067 82.8000   7
   3  -2   4 1055.73 85.0770   1
  -3   2  -4 943.962 82.3305   2
  -3   2  -4 891.588 74.9276   3
  -3   2  -5 294.840 52.2691   3
   3  -2   5 252.385 57.9226   7
   3  -2   5 282.002 53.4082   1
  -3   2  -5 283.503 48.0731   2
   3  -2   6 1685.66 126.529   1
  -3   2  -6 1664.81 124.526   2
   3  -2   6 1498.64 135.141   7
  -3   2  -6 1776.27 124.321   3
   3  -2   7 3505.79 207.120   7
   3  -2   7 3284.25 184.630   1
  -3   2  -7 3406.71 179.178   2
  -3   2  -7 3437.48 183.064   3
  -3   2  -8 465.037 76.1817   3
   3  -2   8 564.047 97.8590   7
   3  -2   8 409.771 73.7867   1
   3  -2   8 400.865 56.3516   5
  -3   2  -8 482.503 73.8331   2
  -3   2  -9 17.6636 42.7060   3
   3  -2   9-9.97306 46.6110   7
   3  -2   9-16.4843 54.4196   1
  -3   2  -9-2.84897 34.8693   2
   3  -2  10 3083.76 220.566   7
   3  -2  10 2762.52 195.566   1
  -3   2 -10 2745.67 191.082   3
  -3   2 -11 1016.11 127.466   3
   3  -2  11 977.638 140.049   7
   3  -2  11 1110.76 135.123   1
  -3   2 -11 1070.28 118.558   2
   3  -2  12 2077.41 221.618   7
   3  -2  12 2770.30 218.795   1
  -3   2 -12 2318.88 197.448   3
  -3   2 -13 1184.78 145.293   3
   3  -2  13 1127.97 173.264   7
   3  -2  13 1174.03 150.530   1
  -3   2 -13 1048.28 133.696   2
   3  -2  14 1983.97 201.145   1
   3  -2  15 1413.15 180.032   1
  -3   1  17-0.87852 48.5317   1
  -3   1  17-35.4712 73.5537   6
  -3   1  16 6.79318 51.8174   1
  -3   1  16 141.919 82.1657   6
   3  -1 -15 268.470 94.9198   3
  -3   1  15 74.3089 57.5430   6
  -3   1  15 173.857 74.4903   1
  -3   1  14 124.166 54.9505   1
   3  -1 -14 116.201 67.8521   3
  -3   1  14 70.4173 56.1576   6
   3  -1 -13 422.514 87.5073   3
  -3   1  13 499.261 90.2105   1
  -3   1  13 515.759 106.846   6
  -3   1  12 4603.14 244.187   1
   3  -1 -12 4753.30 248.591   3
  -3   1  12 4564.77 274.545   6
   3  -1 -11 85.3216 43.4729   3
  -3   1  11 99.2868 44.7817   1
  -3   1  11 103.524 61.6201   6
   3  -1 -10 595.916 75.7249   3
  -3   1  10 507.854 73.7645   1
  -3   1  10 484.256 80.0368   6
  -3   1   9 4632.38 203.024   1
  -3   1   9 4181.67 228.119   6
  -3   1   9 4420.45 166.543  10
   3  -1  -9 4527.26 202.982   3
  -3   1   8 11580.2 330.873   1
  -3   1   8 11236.2 382.071   6
  -3   1   8 11342.8 300.559  10
   3  -1  -8 11679.6 337.344   8
   3  -1  -8 11541.4 337.487   3
   3  -1  -7 13962.2 357.219   8
  -3   1   7 13397.0 407.291   6
  -3   1   7 13906.4 353.413   1
   3  -1  -7 13209.6 352.614   3
  -3   1   7 14003.2 338.524  10
   3  -1  -6 27761.8 552.848   8
  -3   1   6 26649.6 613.679   6
  -3   1   6 25586.2 540.508   1
   3  -1  -6 26736.9 551.087   3
  -3   1   6 26047.7 544.499  10
   3  -1  -5 22107.7 472.693   8
  -3   1   5 24500.6 547.867   6
  -3   1   5 24229.3 476.808   1
   3  -1  -5 24270.8 481.297   3
  -3   1   5 23345.6 496.290  10
   3  -1  -4 5703.75 158.309   8
  -3   1   4 5617.72 156.660   1
  -3   1   4 5599.86 147.161   2
  -3   1   4 5887.12 207.056   6
  -3   1   4 5694.16 184.715  10
   3  -1  -4 5487.23 157.575   3
  -3   1   3 402.360 35.9191   1
  -3   1   3 522.187 53.8161  10
  -3   1   3 513.072 54.2667   6
  -3   1   3 437.112 39.4129   2
   3  -1  -3 233.326 34.7800   1
   3  -1  -3 441.677 35.7660   3
  -3   1   3 464.089 35.9323   3
   3  -1  -3 366.843 48.8234   7
   3  -1  -2 58.6859 15.5047   1
  -3   1   2 73.5829 17.3183   3
   3  -1  -2 77.5560 29.4458   7
  -3   1   2 92.9230 29.3681   6
  -3   1   2 52.3451 13.3693   3
  -3   1   2 64.0526 21.5262   2
   3  -1  -2 70.0614 14.4080   3
  -3   1   2 85.1865 36.3621  10
   3  -1  -1 16055.9 357.984   7
  -3   1   1 15943.0 352.713   6
  -3   1   1 14856.4 347.278   2
   3  -1  -1 15491.6 309.216   1
  -3   1   1 16306.6 290.256   3
  -3   1   1 15254.1 293.939   3
   3  -1  -1 15398.1 293.404   3
  -3   1   0 34899.4 654.477   6
   3  -1   0 33934.5 629.888   1
   3  -1   0 34423.4 666.768   7
  -3   1   0 37831.9 681.493   2
  -3   1   0 35366.6 608.188   3
   3  -1   0 33951.1 611.516   3
  -3   1  -1 31819.6 654.009   2
   3  -1   1 33717.9 621.914   1
  -3   1  -1 32895.2 623.144   6
   3  -1   1 32683.4 649.017   7
  -3   1  -1 33552.9 599.288   3
   3  -1   2 10082.3 260.556   1
   3  -1   2 10715.3 287.176   7
  -3   1  -2 9085.44 275.645   2
  -3   1  -2 10044.8 246.754   3
   3  -1   3 9430.00 283.343   7
   3  -1   3 9158.10 263.412   1
  -3   1  -3 9572.41 254.076   3
  -3   1  -4 399.034 51.6634   3
   3  -1   4 414.389 63.6437   7
   3  -1   4 340.708 53.6783   1
  -3   1  -4 237.861 49.9035   2
   3  -1   5 8749.11 267.161   5
   3  -1   5 8983.69 290.260   1
  -3   1  -5 8669.46 286.606   2
  -3   1  -5 8666.16 276.540   3
  -3   1  -6 43.9312 34.2554   3
   3  -1   6 25.3282 38.9202   7
   3  -1   6-0.18515 34.5957   1
   3  -1   6 1.96933 35.1850   5
  -3   1  -6 79.1715 42.8166   2
   3  -1   7 1708.50 144.359   7
   3  -1   7 1740.43 135.966   1
   3  -1   7 1605.47 113.234   5
  -3   1  -7 1667.69 126.294   3
  -3   1  -8 867.351 99.7391   3
   3  -1   8 769.708 105.067   7
   3  -1   8 732.671 96.6361   1
   3  -1   8 702.425 78.1191   5
  -3   1  -8 815.468 91.8159   2
  -3   1  -9-2.00814 41.0329   3
   3  -1   9-39.0729 51.1892   1
   3  -1   9-15.1127 52.4135   7
  -3   1  -9 12.1808 35.0711   2
  -3   1 -10-15.4460 34.9935   3
   3  -1  10-66.1677 63.1124   7
   3  -1  10-86.5947 59.7089   1
  -3   1 -10 43.6438 43.8762   2
   3  -1  11 6.33431 53.3617   7
  -3   1 -11-40.0413 54.1514   3
   3  -1  11-61.2183 53.4041   1
  -3   1 -11 34.1370 42.8904   2
   3  -1  12 199.788 75.8232   7
  -3   1 -12 218.605 76.3323   3
   3  -1  12 301.948 85.3540   1
  -3   1 -12 175.456 53.7545   2
  -3   1 -13 35.3104 55.8907   3
   3  -1  13-29.8089 58.6072   1
   3  -1  14 92.0110 54.2970   1
   3  -1  15 138.062 89.8560   1
  -3   0  17 359.300 96.8702   1
  -3   0  17 395.510 112.541   6
   3   0 -16 199.998 79.5855   3
  -3   0  16 270.614 100.366   6
  -3   0  16 178.481 71.8885   1
  -3   0  15 96.9887 71.3697   6
  -3   0  15 6.41816 49.7878   1
  -3   0  14 176.772 61.7916   1
  -3   0  14 212.161 65.6568   6
   3   0 -14 127.837 59.4701   3
   3   0 -13 724.742 102.170   3
  -3   0  13 676.783 97.8616   1
  -3   0  13 639.168 113.086   6
  -3   0  12 367.085 78.3088   1
   3   0 -12 283.377 65.2495   3
  -3   0  12 263.504 78.4952   6
   3   0 -11 800.712 82.0894   9
  -3   0  11 909.072 97.5772   1
  -3   0  11 802.688 109.916   6
   3   0 -11 951.620 103.658   3
  -3   0  10 1175.76 106.113   1
  -3   0  10 1157.06 126.082   6
   3   0 -10 1347.99 112.877   3
   3   0 -10 1214.68 99.3687   9
   3   0  -9 90.4268 37.0594   9
  -3   0   9 157.021 41.6036   1
  -3   0   9 119.302 54.1644   6
  -3   0   9 102.839 25.2820  10
   3   0  -9 120.447 41.0867   3
  -3   0   8 4249.00 148.384  10
  -3   0   8 4372.01 172.490   1
  -3   0   8 4449.38 219.305   6
   3   0  -8 4038.26 171.147   3
  -3   0   7 1181.26 79.0533   1
  -3   0   7 1050.47 100.653   6
  -3   0   7 1131.44 71.9700  10
   3   0  -7 1102.30 80.8991   3
   3   0  -6 5.64181 19.7679   3
  -3   0   6 81.4923 35.8919   6
  -3   0   6 51.5852 23.7040   1
   3   0  -6 50.2022 11.7911   4
   3   0  -5 2837.10 96.7395   8
  -3   0   5 2836.44 96.5444   1
  -3   0   5 2374.32 98.0310   2
  -3   0   5 2688.91 140.852   6
   3   0  -5 2630.92 99.7833   3
  -3   0   4 7040.39 156.268   1
  -3   0   4 6904.39 233.166   6
   3   0  -4 6881.97 164.114   3
  -3   0   4 7303.64 167.866   3
  -3   0   3 5603.21 171.999   2
   3   0  -3 5668.12 119.209   3
  -3   0   3 6036.34 202.924   6
   3   0  -3 5229.73 173.879   7
  -3   0   3 5432.76 119.611   3
   3   0  -2 28084.9 563.072   7
  -3   0   2 29301.6 599.030   6
  -3   0   2 30440.4 576.655   2
   3   0  -1 39881.7 712.569   7
  -3   0   1 39942.2 743.545   6
   3   0  -1 37907.7 652.089   1
  -3   0   1 37613.4 727.860   2
   3   0   0 3825.02 136.445   7
  -3   0   0 3811.42 147.078   6
   3   0   0 3881.00 115.270   1
  -3   0   0 3868.72 152.186   2
   3   0   0 3818.32 101.279   3
  -3   0   0 3797.07 98.9298   3
   3   0   1 6314.99 194.324   7
  -3   0  -1 6268.72 198.980   6
  -3   0  -1 6154.76 159.901   3
   3   0   1 5675.94 168.674   1
   3   0   2 707.000 67.3721   7
   3   0   2 736.710 60.8953   1
  -3   0  -2 652.348 72.5533   2
   3   0   2 574.600 65.5038   5
  -3   0  -2 647.448 52.0918   3
   3   0   3 9780.70 296.839   7
   3   0   3 10320.0 285.490   1
  -3   0  -3 9911.44 312.496   2
   3   0   3 10027.4 295.496   5
  -3   0  -3 10585.8 273.572   3
   3   0   4 12435.8 352.237   7
   3   0   4 12408.8 341.456   1
  -3   0  -4 12840.0 356.223   2
  -3   0  -4 12529.1 328.306   3
   3   0   4 11439.9 337.577   5
   3   0   5 21359.8 532.674   7
   3   0   5 20741.6 515.996   1
   3   0   5 21291.7 513.208   5
  -3   0  -5 20877.2 499.881   3
   3   0   6 9793.03 338.387   7
  -3   0  -6 10009.0 326.653   2
   3   0   6 9166.95 304.824   5
   3   0   6 9923.24 333.804   1
  -3   0  -6 10294.0 323.510   3
   3   0   6 9656.34 222.822   9
   3   0   7 9396.75 350.319   7
   3   0   7 9292.91 339.200   1
  -3   0  -7 9602.31 328.040   2
   3   0   7 9315.34 312.927   5
  -3   0  -7 9456.06 328.677   3
   3   0   8 5274.34 266.096   7
   3   0   8 4992.59 252.631   1
  -3   0  -8 5195.87 237.209   2
   3   0   8 4954.47 221.897   5
  -3   0  -8 5302.56 248.774   3
   3   0   9 2574.81 196.242   7
   3   0   9 2495.43 182.896   1
  -3   0  -9 2356.78 167.629   2
  -3   0  -9 2591.13 180.152   3
   3   0  10 20.7367 47.5404   7
  -3   0 -10 1.16153 36.8576   3
  -3   0 -10 23.2266 37.4644   2
   3   0  10 145.309 76.8895   1
  -3   0 -11 216.913 72.0137   3
   3   0  11 137.684 54.0410   7
   3   0  11 319.757 82.3720   1
  -3   0 -11 227.141 65.0024   2
  -3   0 -12 100.634 72.9014   3
   3   0  12 157.991 75.0166   1
   3   0  13 660.991 121.913   1
   3   0  14 274.853 114.956   1
  -3  -1  18-76.7924 80.3248   6
  -3  -1  17 144.377 80.7337   6
   3   1 -16 1274.57 150.642   3
  -3  -1  16 1210.77 143.390   1
  -3  -1  16 1077.43 146.541   6
  -3  -1  15 2676.81 227.168   6
  -3  -1  15 2937.26 211.446   1
   3   1 -15 3052.82 222.799   3
  -3  -1  14 3646.81 258.527   6
  -3  -1  14 4238.70 242.096   1
   3   1 -14 4101.11 241.188   3
  -3  -1  13 5233.34 299.433   6
   3   1 -13 5060.59 257.616   3
  -3  -1  13 5226.46 255.824   1
  -3  -1  12 2230.52 155.692   1
  -3  -1  12 2292.60 182.336   6
   3   1 -12 2428.38 164.098   3
  -3  -1  11 1266.23 108.183   1
  -3  -1  11 1308.00 135.014   6
   3   1 -11 1302.25 115.644   3
   3   1 -11 1353.02 110.551   9
   3   1 -10 162.593 43.5726   9
   3   1 -10 283.342 58.2838   3
  -3  -1  10 218.472 44.5792   1
  -3  -1  10 269.951 69.7257   6
  -3  -1   9 1627.65 136.696   6
  -3  -1   9 1475.00 102.093   1
   3   1  -9 1779.83 123.477   9
   3   1  -9 1584.97 83.5977   5
   3   1  -9 1603.55 110.665   3
  -3  -1   8 2384.19 117.110   1
  -3  -1   8 2404.93 156.808   6
   3   1  -8 2432.49 108.246   5
   3   1  -8 2313.52 122.425   3
   3   1  -8 2283.21 136.691   9
  -3  -1   7 11789.8 371.561   6
   3   1  -7 11918.0 302.357   5
   3   1  -7 12352.9 251.656   4
   3   1  -7 12701.7 308.093   3
  -3  -1   7 12397.3 293.010   1
   3   1  -7 12278.8 353.751   9
   3   1  -6 9237.01 253.108   5
  -3  -1   6 9534.12 219.199   1
   3   1  -6 9696.31 294.702   9
  -3  -1   6 9260.17 308.207   6
   3   1  -6 8772.13 230.084   3
   3   1  -5 14.6399 12.4664   3
  -3  -1   5 23.9160 13.8347   3
  -3  -1   5 22.4273 10.8478   1
  -3  -1   5 44.5474 31.7088   6
  -3  -1   5 3.82889 21.5387   2
   3   1  -5 49.7150 24.2309   5
  -3  -1   4 478.816 59.0542   6
  -3  -1   4 474.125 51.9430   2
   3   1  -4 346.418 48.5860   7
   3   1  -4 407.107 51.3366   5
  -3  -1   4 446.619 29.0551   3
   3   1  -4 438.763 28.1232   3
   3   1  -3 12461.7 301.033   7
  -3  -1   3 13961.5 330.403   2
  -3  -1   3 13889.2 361.221   6
   3   1  -3 14253.6 347.066   5
  -3  -1   2 806.938 67.5670   2
  -3  -1   2 822.731 72.5984   6
   3   1  -2 706.102 68.2369   5
   3   1  -2 819.633 55.9658   7
   3   1  -1 94.2991 11.5051   3
   3   1  -1 99.7203 19.8919   7
   3   1  -1 109.128 15.9281   1
  -3  -1   1 134.557 39.2978   6
  -3  -1   1 135.828 35.2880   2
   3   1  -1 100.179 35.7775   5
  -3  -1   1 83.2770 11.5326   3
   3   1   0 325.427 32.3020   1
   3   1   0 366.803 40.1684   7
  -3  -1   0 344.070 51.9706   6
  -3  -1   0 398.796 53.1240   2
   3   1   0 278.678 49.2106   5
  -3  -1   0 345.349 29.0533   3
   3   1   0 336.061 28.2027   3
  -3  -1  -1 248.474 31.8658   3
   3   1   1 248.617 32.9746   1
  -3  -1  -1 243.098 42.4302   2
   3   1   1 279.361 53.7344   5
   3   1   1 277.637 39.5739   7
   3   1   2 7626.04 233.110   7
   3   1   2 7838.13 229.960   1
  -3  -1  -2 8491.95 267.417   2
   3   1   2 7934.78 230.127   9
  -3  -1  -2 7967.79 217.525   3
   3   1   3 11115.4 314.563   7
   3   1   3 11184.9 309.846   1
  -3  -1  -3 11258.2 333.582   2
   3   1   3 10639.5 329.426   5
  -3  -1  -3 11276.6 295.552   3
   3   1   3 10993.3 279.766   9
  -3  -1  -4 638.163 70.9731   3
   3   1   4 632.355 70.2937   1
   3   1   4 852.371 82.5462   7
  -3  -1  -4 720.499 81.1044   2
   3   1   4 696.271 82.7396   5
   3   1   4 698.124 58.1331   9
   3   1   5 5296.60 220.603   7
   3   1   5 5040.95 218.572   1
  -3  -1  -5 5030.98 217.642   2
   3   1   5 4987.61 222.702   5
  -3  -1  -5 4925.33 205.908   3
   3   1   5 4880.80 155.958   9
  -3  -1  -6 609.409 74.0856   3
   3   1   6 608.095 81.8191   7
   3   1   6 722.423 91.0978   1
   3   1   6 649.580 86.3779   5
  -3  -1  -6 737.727 85.5006   2
  -3  -1  -7 254.144 60.6937   3
   3   1   7 281.421 64.8486   7
   3   1   7 280.542 68.5194   1
   3   1   7 254.290 56.3138   5
  -3  -1  -7 259.105 62.7535   2
   3   1   8 1065.63 120.268   7
   3   1   8 950.798 114.765   1
  -3  -1  -8 1098.79 111.759   3
   3   1   8 812.288 105.024   5
  -3  -1  -8 889.249 99.7297   2
   3   1   9 4372.26 251.732   1
   3   1   9 4379.83 257.648   7
  -3  -1  -9 4381.64 224.470   2
  -3  -1  -9 3860.52 231.463   3
  -3  -1 -10 3675.20 212.372   2
  -3  -1 -10 3539.54 229.661   3
   3   1  10 3493.87 237.100   1
   3   1  11 4044.51 267.159   1
  -3  -1 -11 4049.95 231.726   2
  -3  -1 -11 3604.15 247.039   3
   3   1  12 2835.51 237.134   1
  -3  -1 -12 2777.39 230.671   3
   3   1  13 1708.56 193.463   1
   3   1  14 56.8429 63.7145   1
  -3  -2  18 417.382 114.967   6
  -3  -2  17 332.148 99.5467   6
   3   2 -16 731.381 119.643   3
  -3  -2  16 720.720 127.187   6
   3   2 -15 1120.52 136.221   3
  -3  -2  15 1121.58 129.014   1
  -3  -2  15 1392.11 161.537   6
   3   2 -14 288.390 72.0953   3
  -3  -2  14 304.955 72.8747   1
  -3  -2  14 311.577 75.5276   6
  -3  -2  13 405.546 75.5028   1
  -3  -2  13 348.807 86.7394   6
   3   2 -13 342.674 76.1322   3
  -3  -2  12 1320.54 114.103   1
   3   2 -12 1135.79 111.164   9
  -3  -2  12 1165.63 133.572   6
   3   2 -12 1345.96 120.863   3
  -3  -2  11 3116.62 167.252   1
  -3  -2  11 3292.68 212.059   6
   3   2 -11 3076.32 178.342   9
   3   2 -11 3304.89 179.525   3
  -3  -2  10 3331.06 163.578   1
  -3  -2  10 3315.55 204.358   6
   3   2 -10 3469.38 184.653   9
   3   2 -10 3318.41 169.333   3
  -3  -2   9 9989.37 358.826   6
   3   2  -9 9710.96 330.412   9
   3   2  -9 10300.5 272.502   5
  -3  -2   9 9783.47 285.399   1
   3   2  -9 10683.2 270.168   4
   3   2  -9 9849.77 298.892   3
  -3  -2   8 20819.4 456.118   1
  -3  -2   8 21513.8 565.118   6
   3   2  -8 22387.8 470.937   5
   3   2  -8 20905.7 417.321   4
   3   2  -8 21471.1 478.253   3
   3   2  -8 22127.1 541.340   9
  -3  -2   7 7866.15 210.627   1
  -3  -2   7 8181.40 301.026   6
   3   2  -7 8149.99 245.342   5
   3   2  -7 8652.80 292.128   9
   3   2  -7 8121.63 228.547   3
  -3  -2   6 1968.36 117.278   2
  -3  -2   6 2406.89 86.2550   1
  -3  -2   6 2474.85 148.162   6
   3   2  -6 2586.33 128.562   5
   3   2  -6 2452.22 100.132   3
   3   2  -6 2463.50 143.605   9
   3   2  -5 188.016 45.4810   9
  -3  -2   5 85.8094 12.1879   1
   3   2  -5 102.430 19.1105   3
  -3  -2   5 94.2651 21.6070   3
  -3  -2   5 55.0336 37.0912   6
  -3  -2   5 101.036 33.7901   2
   3   2  -5 64.2833 30.7930   5
  -3  -2   4 1292.69 92.3897   2
  -3  -2   4 1332.84 105.560   6
   3   2  -4 1237.71 95.8030   5
   3   2  -4 1275.89 53.3238   3
  -3  -2   4 1407.11 56.3510   3
   3   2  -4 1385.53 103.754   9
   3   2  -3 15732.1 339.768   7
  -3  -2   3 17442.4 435.919   6
  -3  -2   3 18513.1 417.234   2
   3   2  -3 18364.8 432.896   5
   3   2  -3 16451.0 298.892   3
   3   2  -3 17242.9 303.083   3
   3   2  -3 18140.7 438.513   9
  -3  -2   2 8094.52 267.683   6
   3   2  -2 7641.87 187.126   7
   3   2  -2 8170.60 167.530   1
   3   2  -2 8233.75 267.182   9
  -3  -2   2 8406.06 259.659   2
   3   2  -2 8290.20 270.769   5
   3   2  -2 7927.53 163.060   3
   3   2  -2 8662.38 172.638   3
  -3  -2   1 1807.79 75.0730   8
   3   2  -1 1707.86 73.8018   7
  -3  -2   1 1713.77 115.267   6
  -3  -2   1 1652.34 109.013   2
   3   2  -1 1767.88 120.314   5
  -3  -2   1 1620.37 63.5102   3
   3   2  -1 1797.43 72.4406   1
   3   2  -1 1869.20 66.9191   3
   3   2  -1 1786.54 111.919   9
  -3  -2   0 6640.61 188.001   8
   3   2   0 6678.87 183.835   1
  -3  -2   0 6341.09 167.096   7
  -3  -2   0 6726.06 241.416   6
  -3  -2   0 6696.39 234.045   2
   3   2   0 6575.29 247.036   5
   3   2   0 6548.23 176.762   7
  -3  -2   0 6625.29 171.013   3
   3   2   0 6532.03 223.912   9
   3   2   1 7277.04 202.653   7
   3   2   1 7093.65 212.681   1
  -3  -2  -1 7321.97 252.993   2
   3   2   1 6953.01 260.721   5
  -3  -2  -1 7416.19 202.793   3
   3   2   1 7219.47 235.115   9
   3   2   2 33.3958 22.8848   9
   3   2   2 119.648 35.7139   1
   3   2   2 82.9634 31.0996   7
  -3  -2  -2 119.079 42.0285   2
   3   2   2 8.45863 32.3751   5
  -3  -2  -2 23.7322 20.2567   3
  -3  -2  -3-11.7187 28.2417   3
   3   2   3 20.6589 21.4239   9
   3   2   3 37.9911 34.9870   1
   3   2   3-1.02750 26.6018   7
  -3  -2  -3 27.3973 38.5150   2
   3   2   3-34.4804 43.9311   5
  -3  -2  -4 805.879 80.5161   3
   3   2   4 935.596 90.7168   1
  -3  -2  -4 972.154 94.5233   2
   3   2   4 832.636 95.5375   5
   3   2   4 760.033 79.3095   7
   3   2   4 778.918 70.5850   9
   3   2   5 94.0880 37.5818   1
  -3  -2  -5 91.1931 41.9944   3
   3   2   5-7.85661 35.7322   7
  -3  -2  -5 63.7304 44.0603   2
   3   2   5 37.7106 45.9719   5
  -3  -2  -6 260.126 57.6172   3
   3   2   6 376.116 71.8466   1
  -3  -2  -6 368.790 65.7974   2
   3   2   6 255.222 58.6520   5
   3   2   6 232.386 53.8430   7
  -3  -2  -7 884.393 100.914   3
   3   2   7 1011.34 109.482   7
  -3  -2  -7 1070.90 103.961   2
   3   2   7 835.913 105.912   1
   3   2   7 1104.73 123.898   5
  -3  -2  -8 63.5247 43.8086   3
   3   2   8 12.8169 40.2102   1
  -3  -2  -8 65.7376 44.0057   2
   3   2   8 29.9989 47.1559   5
  -3  -2  -9 1183.54 130.494   3
   3   2   9 1388.90 145.497   1
  -3  -2  -9 1172.57 116.856   2
  -3  -2 -10 455.229 90.9494   3
   3   2  10 456.489 97.8904   1
  -3  -2 -10 244.911 60.8467   2
  -3  -2 -11-59.1387 58.3653   3
   3   2  11-12.8553 53.8556   1
   3   2  12 14.1836 62.5995   1
   3   2  13 457.615 110.250   1
  -3  -3  18 239.779 91.0417   6
  -3  -3  17 163.968 78.8420   6
   3   3 -17 99.8687 65.0170   3
   3   3 -16 131.660 64.3537   3
  -3  -3  16 81.0089 46.5216   6
   3   3 -15 366.661 87.7197   3
  -3  -3  15 314.015 90.8225   6
  -3  -3  14-15.5499 54.0029   6
   3   3 -14-5.09911 43.5051   3
   3   3 -13 166.593 56.4399   3
  -3  -3  13 11.0712 52.4687   6
   3   3 -12 731.440 93.5801   3
   3   3 -12 892.422 107.068   9
  -3  -3  12 739.413 104.124   6
  -3  -3  12 804.959 88.8687   1
  -3  -3  11 5156.25 271.005   6
  -3  -3  11 4811.40 208.003   1
   3   3 -11 4813.54 221.122   3
   3   3 -11 4890.85 243.117   9
   3   3 -10 37.9887 42.9163   9
  -3  -3  10 46.1526 40.5478   6
  -3  -3  10 40.8711 34.8997   1
   3   3 -10 33.9647 30.6080   3
   3   3 -10 83.2701 34.6832   5
   3   3 -10 90.4197 30.3765   4
  -3  -3   9 1197.93 120.167   6
   3   3  -9 1329.66 98.2219   5
  -3  -3   9 1195.51 85.0359   1
   3   3  -9 1422.95 123.343   9
   3   3  -9 1285.11 78.3725   4
   3   3  -9 1154.95 91.0687   3
   3   3  -8 63.4468 25.5815   3
  -3  -3   8 29.1693 36.4309   6
   3   3  -8 83.0460 33.0705   5
   3   3  -8 112.099 50.2498   9
  -3  -3   8 28.4284 22.5313   1
  -3  -3   7 2365.20 155.341   6
  -3  -3   7 2321.16 98.2509   1
   3   3  -7 2311.07 131.715   5
   3   3  -7 2286.42 110.988   3
   3   3  -7 2420.08 155.313   9
  -3  -3   6 5213.64 211.787   2
  -3  -3   6 5323.82 234.000   6
  -3  -3   6 5269.37 143.272   1
   3   3  -6 5874.49 220.873   5
   3   3  -6 5146.36 165.688   3
   3   3  -6 5351.95 232.489   9
  -3  -3   5 15720.5 414.738   2
   3   3  -5 16640.2 428.268   5
   3   3  -5 15591.9 437.539   9
  -3  -3   5 15639.6 437.895   6
   3   3  -5 15833.3 333.792   3
  -3  -3   4 16377.0 422.412   2
  -3  -3   4 16699.4 444.001   6
   3   3  -4 16232.5 438.199   5
   3   3  -4 15893.0 321.842   3
   3   3  -4 16469.2 329.092   3
   3   3  -4 16247.6 442.024   9
   3   3  -3 21398.2 395.186   1
   3   3  -3 21819.8 394.026   7
  -3  -3   3 22092.1 517.770   2
  -3  -3   3 21383.9 532.728   6
   3   3  -3 21663.4 414.514   3
   3   3  -3 21040.6 538.333   5
   3   3  -3 21465.8 403.977   3
   3   3  -3 21749.1 531.150   9
  -3  -3   2 11899.5 261.466   8
   3   3  -2 11943.4 255.851   1
   3   3  -2 11446.0 226.736   7
  -3  -3   2 11411.9 352.005   6
  -3  -3   2 12313.2 345.749   2
   3   3  -2 12523.5 370.710   5
   3   3  -2 11208.1 249.111   3
   3   3  -2 11771.9 262.762   3
   3   3  -2 12312.8 355.180   9
  -3  -3   1 3863.07 135.327   8
   3   3  -1 3755.77 101.562   7
   3   3  -1 3680.39 129.460   1
  -3  -3   1 3988.78 182.199   2
   3   3  -1 3894.83 195.072   5
  -3  -3   1 3710.56 184.856   6
   3   3  -1 4043.00 182.785   9
  -3  -3   1 3668.84 122.195   3
   3   3  -1 3826.73 131.653   3
  -3  -3   0 62.0587 24.4337   8
   3   3   0 86.3519 18.5150   7
  -3  -3   0 65.3483 16.7548   7
  -3  -3   0 53.6735 38.8921   2
   3   3   0 103.705 52.8855   5
   3   3   0 91.1781 33.1148   9
   3   3   0 65.5820 28.8719   1
  -3  -3   0 93.2083 25.8678   3
  -3  -3  -1 5514.91 203.508   8
   3   3   1 5940.11 168.524   7
   3   3   1 5565.00 196.007   1
  -3  -3  -1 5771.57 232.194   2
   3   3   1 5683.21 252.161   5
  -3  -3  -1 5695.17 187.200   3
   3   3   1 5359.31 212.987   9
  -3  -3  -2 4458.70 191.060   8
   3   3   2 4440.29 156.952   7
   3   3   2 4458.02 184.958   1
  -3  -3  -2 4300.21 202.538   2
   3   3   2 3937.23 181.485   9
   3   3   2 4529.81 228.543   5
  -3  -3  -2 4502.96 173.908   3
  -3  -3  -3 8885.58 304.859   8
   3   3   3 9181.88 268.907   7
   3   3   3 8934.40 296.144   1
  -3  -3  -3 9083.12 316.329   2
   3   3   3 8493.46 337.755   5
  -3  -3  -3 9462.02 287.371   3
   3   3   4 11442.2 363.111   1
   3   3   4 11870.6 337.368   7
  -3  -3  -4 11949.1 379.078   2
   3   3   4 11038.2 404.934   5
  -3  -3  -4 10909.5 342.784   3
   3   3   5 7519.38 299.147   1
  -3  -3  -5 7831.38 302.054   2
   3   3   5 7480.28 327.792   5
  -3  -3  -5 7520.81 288.895   3
   3   3   6 1063.77 113.903   1
  -3  -3  -6 1054.45 107.304   2
   3   3   6 1016.67 123.773   5
  -3  -3  -6 1008.92 108.225   3
   3   3   7 529.325 90.3921   1
  -3  -3  -7 390.585 70.2841   2
   3   3   7 415.664 93.8294   5
  -3  -3  -7 492.936 86.5531   3
   3   3   8 39.1194 42.9326   1
  -3  -3  -8-31.8250 48.0600   2
  -3  -3  -8 12.4604 39.4033   3
   3   3   9 130.537 69.1647   1
  -3  -3  -9 121.164 58.7078   3
  -3  -3  -9 21.8098 53.0444   2
   3   3  10 188.921 76.1039   1
  -3  -3 -10 185.402 63.3291   3
   3   3  11 98.2105 69.7240   1
  -3  -3 -11-103.804 59.4939   3
   3   3  12 112.682 70.4274   1
  -3  -4  18 1168.27 164.783   6
   3   4 -17 1160.00 148.302   3
  -3  -4  17 1107.93 156.412   6
  -3  -4  16 741.095 119.850   6
   3   4 -16 885.555 125.672   3
   3   4 -15 1253.69 139.078   3
  -3  -4  15 1210.48 149.629   6
  -3  -4  14 1355.82 151.647   6
   3   4 -14 1289.19 137.833   3
   3   4 -13 81.7273 53.5176   3
  -3  -4  13 32.7187 41.8584   6
   3   4 -12 135.370 53.6956   3
  -3  -4  12 140.227 60.1256   6
  -3  -4  11 1557.95 147.311   6
   3   4 -11 1550.09 107.287   4
   3   4 -11 1584.49 123.040   3
   3   4 -10 259.872 67.7438   9
   3   4 -10 228.726 51.1388   3
  -3  -4  10 240.875 68.3069   6
   3   4 -10 324.009 61.5225   5
   3   4 -10 225.549 42.3004   4
  -3  -4   9 1506.12 134.506   6
  -3  -4   9 1312.76 91.8319   1
   3   4  -9 1481.06 114.893   5
   3   4  -9 1401.41 132.900   9
   3   4  -9 1225.91 96.8095   3
   3   4  -8 459.489 61.0701   3
   3   4  -8 414.627 77.5465   9
  -3  -4   8 406.429 75.6148   6
   3   4  -8 387.204 65.5941   5
  -3  -4   8 461.996 48.4800   1
   3   4  -7 26.6556 48.2247   9
   3   4  -7 16.4874 22.7874   3
  -3  -4   7 54.0600 26.3871   1
  -3  -4   7 67.8902 38.9528   6
   3   4  -7 34.0372 41.7321   5
   3   4  -6 678.921 91.6319   9
   3   4  -6 516.809 53.6816   3
  -3  -4   6 680.877 82.4319   6
  -3  -4   6 618.877 47.0777   1
   3   4  -6 670.087 82.4087   5
   3   4  -5 846.430 97.6265   9
   3   4  -5 756.429 52.4941   7
  -3  -4   5 888.997 98.5138   6
  -3  -4   5 798.589 90.2998   2
  -3  -4   5 854.925 53.5319   1
   3   4  -5 945.195 102.451   5
   3   4  -5 869.513 64.9543   3
   3   4  -4 59.6277 36.6790   9
   3   4  -4 58.4836 21.9051   3
   3   4  -4 42.9459 10.2661   7
   3   4  -4 69.1222 12.7866   7
  -3  -4   4 57.7842 23.1401   1
  -3  -4   4 49.2226 31.5041   6
   3   4  -4 91.9354 21.3824   1
  -3  -4   4 69.8224 45.7575   2
   3   4  -4 28.1852 39.9251   5
   3   4  -3 158.466 51.8814   9
   3   4  -3 149.131 29.4930   3
  -3  -4   3 187.321 51.7502   6
  -3  -4   3 152.630 49.0463   2
   3   4  -3 159.336 51.9596   5
   3   4  -3 104.019 24.1118   1
  -3  -4   3 58.8256 22.2600   1
   3   4  -2 1193.97 73.9608   1
  -3  -4   2 1354.08 113.790   2
  -3  -4   2 1149.41 73.8476   8
  -3  -4   2 1160.78 111.473   6
   3   4  -2 1224.96 121.524   5
   3   4  -2 1097.87 75.7002   3
   3   4  -2 1149.78 109.260   9
   3   4  -1 7876.35 233.345   1
  -3  -4   1 8201.43 240.481   8
  -3  -4   1 8097.10 291.958   2
  -3  -4   1 8030.39 303.815   6
   3   4  -1 7726.35 233.439   3
   3   4  -1 7763.22 314.400   5
   3   4  -1 7817.67 294.597   9
  -3  -4   1 8163.08 224.094   3
  -3  -4   0 13848.3 360.311   8
   3   4   0 13335.6 348.684   1
  -3  -4   0 13457.1 408.051   2
   3   4   0 13297.0 443.377   5
  -3  -4   0 13914.0 340.294   3
  -3  -4  -1 3280.55 163.384   8
   3   4   1 3338.54 159.055   1
  -3  -4  -1 3247.73 181.561   2
   3   4   1 3016.96 201.862   5
  -3  -4  -1 3292.12 148.650   3
  -3  -4  -2 6766.22 258.300   8
   3   4   2 6800.27 252.799   1
  -3  -4  -2 6719.45 273.448   2
   3   4   2 6325.91 303.199   5
  -3  -4  -2 6363.84 232.691   3
  -3  -4  -3 4383.92 218.632   8
   3   4   3 4154.20 206.465   1
  -3  -4  -3 4795.10 229.754   2
   3   4   3 4707.35 263.115   5
  -3  -4  -3 4353.92 196.658   3
   3   4   4 862.775 100.037   1
  -3  -4  -4 754.473 96.6798   8
  -3  -4  -4 730.021 95.2057   2
  -3  -4  -4 775.659 88.1340   3
   3   4   4 642.225 111.452   5
   3   4   5 386.566 74.0841   1
  -3  -4  -5 543.170 85.4908   2
   3   4   5 511.186 102.437   5
  -3  -4  -5 491.138 74.7566   3
   3   4   6 1190.81 129.625   1
  -3  -4  -6 1184.68 121.680   2
   3   4   6 1059.79 148.862   5
  -3  -4  -6 1121.30 120.889   3
   3   4   7 3702.61 236.314   1
  -3  -4  -7 3866.34 222.012   2
   3   4   7 3815.25 275.285   5
  -3  -4  -7 4039.80 236.204   3
   3   4   8 5562.78 309.039   1
  -3  -4  -8 6327.23 289.783   2
  -3  -4  -8 5367.47 289.056   3
  -3  -4  -9 3318.72 210.736   2
   3   4   9 3114.13 238.496   1
  -3  -4  -9 2906.29 218.718   3
   3   4  10 1465.66 171.990   1
  -3  -4 -10 1634.08 173.641   3
   3   4  11 756.629 135.551   1
  -3  -5  18 689.127 137.192   6
  -3  -5  17 143.569 72.3371   6
  -3  -5  16 252.085 87.7494   6
  -3  -5  15 50.4008 47.5274   6
   3   5 -15 2.84798 41.6666   3
  -3  -5  14 1484.28 162.527   6
   3   5 -14 1758.05 156.677   3
  -3  -5  13 2769.55 209.456   6
   3   5 -13 2496.14 176.162   3
  -3  -5  12 4090.93 247.528   6
   3   5 -12 4645.20 229.582   3
  -3  -5  11 2060.36 166.711   6
   3   5 -11 1780.12 118.857   4
   3   5 -11 2020.50 142.107   3
  -3  -5  10 5607.99 271.818   6
   3   5 -10 5059.49 241.120   5
   3   5 -10 5226.49 223.125   3
  -3  -5   9 1865.21 163.391   6
   3   5  -9 2261.56 159.552   5
   3   5  -9 2163.34 131.556   3
  -3  -5   8 598.286 82.1941   6
   3   5  -8 668.988 70.8973   3
   3   5  -8 871.559 104.762   5
  -3  -5   7 1995.34 153.140   6
   3   5  -7 2182.98 160.738   5
   3   5  -7 2048.70 116.117   3
  -3  -5   6 225.165 48.0687   6
   3   5  -6 201.383 54.2410   5
   3   5  -6 306.612 46.1821   3
   3   5  -5 1345.41 89.1779   3
  -3  -5   5 1359.18 123.672   6
   3   5  -5 1651.90 140.543   5
  -3  -5   5 1724.38 134.657   2
  -3  -5   5 1439.81 83.8547   1
   3   5  -4 4337.02 156.027   1
  -3  -5   4 4708.13 229.199   2
  -3  -5   4 4686.92 233.282   6
   3   5  -4 4537.06 242.447   5
   3   5  -4 4160.29 166.796   3
   3   5  -3 1700.70 97.3939   1
  -3  -5   3 1764.50 138.230   2
  -3  -5   3 1660.83 140.034   6
   3   5  -3 1596.91 146.108   5
   3   5  -3 1655.15 101.230   3
  -3  -5   2 2342.20 126.492   8
   3   5  -2 2463.52 124.780   1
  -3  -5   2 2614.94 162.745   2
  -3  -5   2 2631.58 177.229   6
   3   5  -2 2425.46 185.156   5
   3   5  -2 2441.65 127.884   3
  -3  -5   1-35.9232 29.5680   8
  -3  -5   1 52.4956 45.3348   2
   3   5  -1 6.90237 26.1011   3
   3   5  -1-60.8219 58.6036   5
  -3  -5   1 25.8250 23.8941   3
   3   5  -1 19.7335 26.3694   1
  -3  -5   0 895.373 86.9802   8
   3   5   0 811.865 81.6990   1
   3   5   0 753.624 81.6310   3
  -3  -5   0 859.034 105.220   2
   3   5   0 758.904 107.796   5
  -3  -5   0 828.935 76.3569   3
  -3  -5  -1 68.9705 41.3862   8
  -3  -5  -1 74.2714 60.0801   2
   3   5   1 12.4282 64.5830   5
   3   5   1 28.2275 33.9692   1
  -3  -5  -1 30.6275 31.8134   3
  -3  -5  -2 47.1823 36.8126   8
  -3  -5  -2 25.6686 41.1966   2
   3   5   2 123.166 73.7335   5
   3   5   2 41.4745 37.2528   1
  -3  -5  -2 142.531 46.9603   3
  -3  -5  -3 227.075 59.7224   8
  -3  -5  -3 371.615 71.6155   2
   3   5   3 343.691 88.3790   5
  -3  -5  -3 188.470 45.4846   3
   3   5   3 283.327 63.6002   1
   3   5   4 861.062 109.176   1
  -3  -5  -4 662.905 98.0139   2
   3   5   4 749.949 125.907   5
  -3  -5  -4 684.311 96.6176   8
  -3  -5  -4 721.044 87.1864   3
  -3  -5  -5 1950.84 173.707   8
   3   5   5 1937.31 163.799   1
  -3  -5  -5 2024.12 159.843   2
   3   5   5 1756.30 189.464   5
  -3  -5  -5 2085.75 156.570   3
  -3  -5  -6 2041.19 161.609   2
   3   5   6 1902.66 206.540   5
   3   5   6 2196.93 184.380   1
  -3  -5  -6 2236.57 170.251   3
   3   5   7 1222.58 145.139   1
  -3  -5  -7 1296.11 136.283   2
   3   5   7 1050.62 164.057   5
  -3  -5  -7 1218.71 134.324   3
   3   5   8 416.009 91.9812   1
  -3  -5  -8 447.798 91.4230   2
  -3  -5  -8 391.637 89.0048   3
   3   5   9 54.5352 51.7386   1
  -3  -5  -9 44.4412 50.2522   3
   3   5  10 79.6297 49.1561   1
  -3  -6  18 131.857 87.6717   6
  -3  -6  17-83.6017 82.0949   6
  -3  -6  16-76.4370 63.3838   6
  -3  -6  15 215.499 72.4002   6
  -3  -6  14 707.174 116.245   6
  -3  -6  13 742.991 121.191   6
  -3  -6  12 2674.71 204.176   6
   3   6 -12 2629.54 173.939   3
   3   6 -11 4.30363 36.2453   3
  -3  -6  11-33.4199 51.5966   6
   3   6 -10 108.853 42.7045   3
  -3  -6  10 20.5333 38.3212   6
   3   6 -10 61.4982 43.7987   5
  -3  -6   9 163.483 54.5722   6
   3   6  -9 151.445 41.7437   3
   3   6  -9 186.741 68.6065   5
  -3  -6   8 3267.23 205.914   6
   3   6  -8 3505.44 221.167   5
   3   6  -8 3260.77 164.208   3
  -3  -6   7 7460.58 316.827   6
   3   6  -7 7160.21 331.200   5
   3   6  -7 6863.08 244.120   3
  -3  -6   6 9724.14 366.090   6
   3   6  -6 10036.5 396.599   5
   3   6  -6 9208.06 288.021   3
  -3  -6   5 6771.43 298.944   6
   3   6  -5 6341.15 232.505   3
   3   6  -5 6335.33 315.327   5
   3   6  -4 3059.23 147.194   1
  -3  -6   4 3456.95 216.285   2
  -3  -6   4 3663.55 212.656   6
   3   6  -4 3850.77 245.930   5
   3   6  -4 3352.81 162.926   3
  -3  -6   3 29.4261 27.1275   1
   3   6  -3 18.1179 28.8260   3
  -3  -6   3 85.2585 54.8914   6
  -3  -6   3 149.666 66.2887   2
   3   6  -3 69.5336 79.6596   5
   3   6  -3 88.7515 29.0944   1
  -3  -6   2 55.1210 52.7222   2
   3   6  -2 125.898 71.7263   5
   3   6  -2 55.1114 27.8046   1
   3   6  -2 114.700 38.7185   3
  -3  -6   1 1923.93 131.441   8
   3   6  -1 1999.20 129.227   1
  -3  -6   1 2293.55 166.403   2
   3   6  -1 2013.37 191.427   5
  -3  -6   1 1644.61 112.252   3
   3   6  -1 1865.86 126.331   3
  -3  -6   0 1261.85 111.783   8
   3   6   0 1174.16 105.019   1
  -3  -6   0 1385.72 134.044   2
   3   6   0 1096.57 145.336   5
  -3  -6   0 1120.62 96.6046   3
   3   6   0 1233.19 105.893   3
  -3  -6  -1 3518.17 199.680   8
   3   6   1 3267.00 184.645   1
  -3  -6  -1 3363.73 212.490   2
   3   6   1 2888.03 238.619   5
  -3  -6  -1 3182.75 170.489   3
  -3  -6  -2 1271.18 128.299   8
   3   6   2 1390.23 127.870   1
  -3  -6  -2 1563.43 149.306   2
   3   6   2 1237.74 164.805   5
  -3  -6  -2 1439.81 120.302   3
  -3  -6  -3 2015.56 166.988   8
  -3  -6  -3 1836.00 163.788   2
   3   6   3 1983.44 156.623   1
   3   6   3 2037.66 217.961   5
  -3  -6  -3 2052.88 149.035   3
  -3  -6  -4 352.740 84.8589   8
  -3  -6  -4 415.244 87.7752   2
   3   6   4 486.842 123.415   5
  -3  -6  -4 396.468 72.6919   3
   3   6   4 374.945 79.9538   1
   3   6   5 79.1425 45.4383   1
  -3  -6  -5 132.860 72.3189   8
  -3  -6  -5 84.6504 56.1244   2
   3   6   5 79.0391 81.6512   5
  -3  -6  -5-26.4605 50.2164   3
   3   6   6-74.8200 54.1167   1
  -3  -6  -6-17.0477 54.4724   2
   3   6   6 10.1412 83.0104   5
  -3  -6  -6 69.1171 48.5732   3
   3   6   7 20.8965 49.2466   1
  -3  -6  -7 12.0108 46.3101   2
  -3  -6  -7-21.7830 45.0121   3
   3   6   8 53.7757 45.5906   1
  -3  -6  -8-37.2362 51.3837   3
   3   6   9 116.591 76.7259   1
  -3  -7  17 47.2228 68.0402   6
  -3  -7  16 9.48955 61.0950   6
  -3  -7  15 16.3872 56.4687   6
  -3  -7  14 57.8016 56.9353   6
  -3  -7  13 24.7455 51.6229   6
  -3  -7  12 38.0141 45.7423   6
  -3  -7  11 75.2614 52.3172   6
  -3  -7  10 769.627 110.326   6
   3   7 -10 650.251 110.074   5
  -3  -7   9 612.532 97.0102   6
   3   7  -9 393.102 86.2120   5
  -3  -7   8 1450.90 142.981   6
   3   7  -8 1617.47 170.629   5
  -3  -7   7 162.114 55.6160   6
   3   7  -7 23.5361 33.9999   3
   3   7  -7 153.222 77.7042   5
   3   7  -6 0.17686 24.2442   3
  -3  -7   6 24.6092 46.1659   6
   3   7  -6 53.2828 68.3581   5
   3   7  -5 13.1552 26.5070   3
  -3  -7   5 31.6429 40.9384   6
   3   7  -4 1442.57 172.954   5
  -3  -7   4 1447.44 147.792   6
   3   7  -4 1315.64 110.246   3
  -3  -7   3 896.397 114.978   2
   3   7  -3 749.047 137.517   5
   3   7  -3 787.994 82.2942   1
   3   7  -3 853.994 88.7573   3
   3   7  -2 11707.9 367.254   1
   3   7  -2 12826.7 528.809   5
   3   7  -2 11918.6 376.724   3
  -3  -7   2 13202.3 458.658   2
  -3  -7   1 7893.89 303.675   8
   3   7  -1 7623.32 290.710   1
  -3  -7   1 8475.91 359.757   2
   3   7  -1 7669.41 293.184   3
   3   7  -1 7816.84 414.556   5
  -3  -7   0 2310.02 164.356   8
   3   7   0 2540.03 164.504   1
   3   7   0 2294.66 228.282   5
   3   7   0 2166.79 154.205   3
  -3  -7  -1 1499.69 138.604   8
   3   7   1 1612.99 137.138   1
  -3  -7  -1 1336.07 147.723   2
   3   7   1 1610.58 186.334   5
   3   7   1 1590.80 138.594   3
  -3  -7  -2 388.454 84.1870   8
  -3  -7  -2 386.520 95.3470   2
   3   7   2 341.929 115.299   5
   3   7   2 291.772 69.3210   1
  -3  -7  -3 238.284 62.8739   8
  -3  -7  -3 249.519 78.8048   2
   3   7   3 256.912 115.390   5
   3   7   3 228.867 67.3993   1
  -3  -7  -4 960.643 138.930   8
  -3  -7  -4 806.327 124.288   2
   3   7   4 859.463 115.722   1
   3   7   4 871.333 157.235   5
  -3  -7  -5 1844.45 185.459   8
   3   7   5 1907.08 180.788   1
   3   7   5 1500.75 204.707   5
  -3  -7  -6 1476.58 177.082   8
  -3  -7  -6 1729.27 174.948   2
   3   7   6 1614.93 175.273   1
   3   7   7 1050.95 146.882   1
   3   7   8 632.269 119.584   1
  -3  -8  16 418.227 101.417   6
  -3  -8  15 609.355 109.309   6
  -3  -8  14 870.600 131.747   6
  -3  -8  13 1175.13 147.000   6
  -3  -8  12 654.128 105.449   6
  -3  -8  11 538.393 95.7384   6
  -3  -8  10-35.7986 48.2335   6
   3   8  -9 70.5144 72.9012   5
  -3  -8   9 95.5845 58.3105   6
  -3  -8   8 764.402 116.649   6
   3   8  -8 631.163 129.457   5
  -3  -8   7 243.515 80.9669   6
   3   8  -7 94.4015 64.8406   5
  -3  -8   6 19.9395 51.4043   6
   3   8  -6 44.0315 64.0193   5
  -3  -8   5 32.4442 56.4442   6
   3   8  -5 4.98179 66.8029   5
   3   8  -4 222.083 93.6032   5
   3   8  -3 177.697 86.9921   5
  -3  -8   2 515.680 104.604   2
   3   8  -2 489.086 130.149   5
   3   8  -1-21.1595 72.1346   5
  -3  -8   1-40.6233 58.0584   2
  -3  -8   0 327.607 84.4238   2
   3   8   0 365.303 116.068   5
   3   8   0 363.417 75.2933   1
  -3  -8  -1 613.628 99.3062   8
   3   8   1 531.903 86.9015   1
  -3  -8  -1 680.533 115.378   2
   3   8   1 785.412 157.392   5
  -3  -8  -2 1537.27 153.880   8
   3   8   2 1413.05 147.774   1
  -3  -8  -2 1504.04 170.271   2
   3   8   2 1750.68 225.179   5
  -3  -8  -3 1498.64 163.426   8
   3   8   3 1441.81 155.116   1
  -3  -8  -3 1539.10 169.959   2
   3   8   3 1788.74 243.413   5
  -3  -8  -4 1539.34 170.867   8
   3   8   4 2012.14 184.460   1
  -3  -8  -4 1441.36 182.862   2
   3   8   5 1101.22 148.758   1
  -3  -8  -5 1302.58 167.963   8
  -3  -8  -5 946.156 146.794   2
   3   8   6 370.058 94.8723   1
  -3  -8  -6 421.440 104.635   8
  -3  -9  14 24.8400 48.9030   6
  -3  -9  13 244.951 77.1310   6
  -3  -9  12 67.9684 56.8370   6
  -3  -9  11 387.010 89.3879   6
  -3  -9  10 1387.51 154.887   6
  -3  -9   9 2835.86 218.880   6
  -3  -9   8 2157.21 194.871   6
  -3  -9   7 1183.89 143.620   6
   3   9  -7 970.181 155.271   5
   3   9  -7 998.143 141.563  10
   3   9  -6 424.318 123.696   5
   3   9  -5-4.75910 86.2447   5
   3   9  -4-56.0663 91.6847   5
   3   9  -3 118.408 79.7081   5
   3   9  -2 392.859 108.812   5
   3   9  -1 785.478 157.439   5
   3   9   0 66.3613 95.6582   5
  -3  -9  -2 112.472 68.2099   2
  -3  -9  -3-84.5458 64.4505   2
  -3  -9  -4 101.841 70.5569   2
  -3  -9  -5-39.2836 54.9723   8
  -3  -9  -5 91.2773 88.3047   2
  -3 -10  13 266.229 81.5411   6
  -3 -10  12 290.634 94.4499   6
  -3 -10  11 395.563 95.0820   6
  -3 -10  10 120.306 66.5087   6
  -3 -10   9 604.819 108.548   6
  -3 -10   8 6.89866 49.8031   6
   3  10  -7-112.632 74.0492  10
   3  10  -6 1063.66 156.760  10
   3  10  -5 1902.06 213.905  10
   3  10  -4 1197.88 181.405  10
   3  10  -3 1665.94 201.244  10
  -3 -11  11 113.681 66.0941   6
  -3 -11  10-35.3791 49.5385   6
   3  11  -6-34.8312 65.4274  10
  -4  15  -4 153.463 108.781   2
  -4  15  -5 231.298 131.017   2
  -4  15  -6 202.696 140.147   2
  -4  14   0 878.919 162.933   1
   4 -14   0 1081.17 174.783   1
   4 -14   1 1382.36 183.696   1
   4 -14   2 1674.05 208.537   1
  -4  14  -2 1203.11 198.390   2
   4 -14   3 1543.34 197.318   1
  -4  14  -3 1045.52 183.118   2
   4 -14   4 217.792 89.7116   1
  -4  14  -4 259.628 109.615   2
   4 -14   5 207.781 105.552   1
  -4  14  -5 141.555 86.6201   2
   4 -14   6 65.0380 58.5773   1
  -4  14  -6-11.2999 77.0399   2
   4 -14   7 137.397 77.1021   1
  -4  14  -7 147.496 108.894   2
   4 -14   8 290.383 100.431   1
  -4  14  -8 103.891 81.2206   2
  -4  14  -9 92.7789 90.5118   2
   4 -14   9-23.8597 62.5665   1
  -4  14 -10 361.676 141.698   2
   4 -14  10 384.289 114.940   1
  -4  14 -11 158.386 118.674   2
   4 -13  -3 9.18064 72.4443   1
  -4  13   3 206.553 111.394   1
  -4  13   2 183.769 84.8664   1
   4 -13  -2 96.6465 97.1246   1
   4 -13  -1 223.235 95.5497   1
  -4  13   1 113.405 78.4850   1
   4 -13   0 305.567 101.727   1
   4 -13   1 41.9627 66.7741   1
  -4  13  -1 24.9692 80.6474   2
   4 -13   2 97.5927 77.9664   1
  -4  13  -2-130.304 102.344  10
  -4  13  -2 30.7756 89.3460   2
   4 -13   3 42.2653 71.8932   1
  -4  13  -3-116.524 110.089  10
  -4  13  -3 83.6332 99.2553   2
   4 -13   4 1019.01 156.888   1
  -4  13  -4 802.555 140.346  10
  -4  13  -4 1022.24 190.282   2
   4 -13   5 959.980 147.170   1
  -4  13  -5 962.232 149.100  10
  -4  13  -5 1250.44 200.589   2
  -4  13  -6 1001.34 190.731   2
   4 -13   6 1042.18 154.812   1
  -4  13  -6 1106.61 155.675  10
  -4  13  -7 1360.80 167.095  10
   4 -13   7 1541.10 187.338   1
  -4  13  -7 1271.91 194.252   2
  -4  13  -8 189.959 122.756   2
   4 -13   8 147.123 72.2737   1
  -4  13  -9 477.484 146.826   2
   4 -13   9 472.005 108.661   1
   4 -13  10 163.313 86.9521   1
  -4  13 -10-59.1770 81.1958   2
   4 -13  11 64.7727 73.6752   1
  -4  13 -11 136.810 97.0847   2
   4 -13  12 336.809 112.976   1
  -4  13 -12 166.662 101.976   2
   4 -12  -6 1398.92 197.330   8
   4 -12  -5 1269.24 187.934   1
  -4  12   5 991.904 161.234   1
   4 -12  -4 1054.39 171.495   1
  -4  12   4 1108.13 172.953   1
   4 -12  -3 788.840 141.442   1
  -4  12   3 803.450 147.804   1
   4 -12  -2 182.736 83.2199   1
  -4  12   2 225.800 100.766   1
  -4  12   1-111.937 88.6308   3
   4 -12  -1 142.992 86.0713   1
  -4  12   1 35.8371 66.8113  10
  -4  12   0 42.1488 69.0256   3
   4 -12   0-37.9840 66.7374   1
  -4  12   0-87.7843 94.8052  10
  -4  12   0 29.8529 72.4819   2
  -4  12  -1 65.6822 65.7233   3
   4 -12   1-3.41181 58.2530   1
  -4  12  -1 33.1190 67.5070   2
  -4  12  -2 37.5342 50.8134   3
   4 -12   2 134.390 80.8040   1
  -4  12  -2 24.3156 63.4215  10
  -4  12  -2 65.5060 83.6513   2
   4 -12   3 64.4636 68.1068   1
  -4  12  -3 37.2234 66.6193   3
  -4  12  -3-19.0408 66.8702  10
  -4  12  -3-28.2742 79.3667   2
  -4  12  -4 31.9377 53.9292   3
  -4  12  -4 148.707 62.3223  10
   4 -12   4 224.581 86.2031   1
  -4  12  -4 76.1649 75.5505   2
  -4  12  -5 95.5120 84.1581   3
   4 -12   5 112.592 74.1020   1
  -4  12  -5 275.009 90.2056  10
  -4  12  -5 112.455 85.4078   2
  -4  12  -6-11.7426 61.4498   3
  -4  12  -6 8.19390 53.6202  10
   4 -12   6-35.1575 52.9710   1
  -4  12  -6 63.5854 90.3394   2
  -4  12  -7-36.7859 61.4582   3
  -4  12  -7-62.6035 79.2788   2
   4 -12   7 72.3650 52.6587   1
  -4  12  -7 3.71649 49.9847  10
  -4  12  -8 676.879 125.748   3
   4 -12   8 433.992 92.9884   7
   4 -12   8 657.631 135.607   1
  -4  12  -8 367.860 101.636   2
   4 -12   9 243.897 75.5032   7
   4 -12   9 475.425 109.777   1
  -4  12  -9 330.014 102.571   3
  -4  12  -9 303.120 101.900   2
   4 -12  10 410.780 101.421   7
   4 -12  10 611.621 123.641   1
  -4  12 -10 593.392 130.230   2
   4 -12  11 402.654 115.414   1
   4 -12  11 274.308 89.4968   7
  -4  12 -11 602.676 164.772   2
   4 -12  12 143.992 77.3882   1
  -4  12 -12 341.907 135.733   2
  -4  12 -13 351.997 139.307   2
   4 -12  13 539.253 128.608   1
  -4  12 -14 252.740 102.974   2
   4 -11  -8 1343.73 194.477   8
  -4  11   8 1193.87 194.004   6
   4 -11  -7 583.495 131.999   8
  -4  11   7 338.122 109.163   1
  -4  11   6 376.793 108.488   1
   4 -11  -5 280.951 99.3682   1
  -4  11   5 153.366 77.0825   1
  -4  11   4 89.2860 50.9714   3
   4 -11  -4 79.3805 62.8999   1
  -4  11   4 46.4520 85.5125  10
  -4  11   4 294.246 100.993   1
   4 -11  -4 113.176 75.5823   3
  -4  11   3 1678.11 192.647   1
  -4  11   3 1521.80 188.633   3
   4 -11  -3 1956.22 198.063   1
   4 -11  -3 1512.04 170.337   3
  -4  11   3 1180.57 177.393  10
   4 -11  -2 2198.24 176.599   7
   4 -11  -2 2207.72 213.173   1
  -4  11   2 1959.89 224.629  10
  -4  11   2 2177.13 213.690   3
   4 -11  -1 3886.33 233.931   7
   4 -11  -1 4635.69 297.180   1
  -4  11   1 3880.54 301.739  10
  -4  11   1 4114.63 287.031   3
   4 -11   0 2307.37 171.973   7
  -4  11   0 1996.29 195.654   2
   4 -11   0 2501.92 216.606   1
  -4  11   0 2140.03 217.813  10
  -4  11   0 2277.28 212.706   3
   4 -11   1 2387.38 171.974   7
  -4  11  -1 1963.94 191.779   2
   4 -11   1 2523.06 215.323   1
  -4  11  -1 2365.13 223.205  10
  -4  11  -1 2156.68 208.690   3
   4 -11   2 1259.96 125.741   7
   4 -11   2 1472.56 162.941   1
  -4  11  -2 1346.89 162.985   3
  -4  11  -2 1404.32 176.652  10
  -4  11  -2 1197.08 166.687   2
  -4  11  -3 493.266 104.000   3
   4 -11   3 525.484 88.6169   7
  -4  11  -3 300.459 80.6672  10
  -4  11  -3 425.180 115.181   2
   4 -11   3 453.097 100.054   1
  -4  11  -4-72.7679 70.8558   3
   4 -11   4 9.16775 44.6449   7
  -4  11  -4 83.8497 61.9537  10
   4 -11   4-53.4607 59.1757   1
  -4  11  -4-79.2033 81.9437   2
  -4  11  -5 289.551 75.6716   3
   4 -11   5 180.966 59.8224   7
   4 -11   5 391.664 95.2173   1
  -4  11  -5 387.293 89.8412  10
  -4  11  -5 218.585 86.5683   2
  -4  11  -6-5.49129 74.1913   3
  -4  11  -6 14.6691 65.0615   2
   4 -11   6 16.5832 63.3107   1
  -4  11  -6 55.2672 60.1313  10
   4 -11   6 72.2051 49.5705   7
  -4  11  -7 38.3103 55.5234   3
   4 -11   7 135.483 62.7769   7
  -4  11  -7-20.4602 63.7248   2
   4 -11   7 78.2344 70.5660   1
  -4  11  -7 166.328 67.2476  10
  -4  11  -8 704.120 105.288  10
  -4  11  -8 504.541 107.723   3
   4 -11   8 737.790 116.968   7
  -4  11  -8 513.780 122.036   2
   4 -11   8 618.506 119.748   1
  -4  11  -9 44.7366 56.6630   3
   4 -11   9 107.643 66.5290   7
   4 -11   9 200.435 82.9822   1
  -4  11  -9 259.878 99.2462   2
  -4  11 -10-22.2561 48.9962   3
   4 -11  10-90.2176 67.9774   7
  -4  11 -10 128.599 88.5473   2
   4 -11  10 5.26922 60.3323   1
   4 -11  11 0.92154 58.9027   1
   4 -11  11-43.3528 64.0768   7
  -4  11 -11-35.6389 80.2284   2
   4 -11  12 16.4770 63.8017   1
   4 -11  12 34.2518 75.9706   7
  -4  11 -12 147.716 105.311   2
   4 -11  13 50.6253 65.7035   1
  -4  11 -13 195.895 107.178   2
   4 -11  14 84.7584 59.2638   1
  -4  11 -14 92.3205 84.4270   2
   4 -10  -9 21.1388 71.0166   8
  -4  10   9 8.68553 83.0963   6
  -4  10   9 59.7548 56.8378   1
   4 -10  -8 4.46152 68.9724   8
  -4  10   8 71.5514 69.0844   1
   4 -10  -7-43.4914 65.4085   8
   4 -10  -7 50.7277 67.7866   7
  -4  10   7 83.2028 65.0548   1
  -4  10   7-101.238 97.3577  10
  -4  10   6 1453.70 183.123   3
   4 -10  -6 1511.64 157.646   7
   4 -10  -6 1721.99 181.890   3
  -4  10   6 1580.49 182.368   1
   4 -10  -6 1287.78 178.213   1
  -4  10   6 1383.63 194.308  10
  -4  10   5 964.646 143.910   3
   4 -10  -5 1020.00 124.609   7
  -4  10   5 957.624 140.948   1
   4 -10  -5 1074.28 151.088   1
   4 -10  -5 1004.56 136.717   3
  -4  10   5 616.925 136.961  10
   4 -10  -4 1013.19 144.856   1
  -4  10   4 1065.19 153.374   3
   4 -10  -4 894.106 117.204   7
  -4  10   4 811.175 128.880   1
   4 -10  -4 1042.52 140.354   3
  -4  10   4 725.021 143.220  10
  -4  10   3 1202.35 156.825   3
   4 -10  -3 1053.23 128.167   7
   4 -10  -3 1329.39 159.419   1
  -4  10   3 1392.93 159.949   1
   4 -10  -3 1235.45 150.709   3
  -4  10   3 904.214 144.503  10
   4 -10  -2 1977.76 166.243   7
  -4  10   2 1674.00 196.356  10
   4 -10  -2 2274.95 201.260   1
  -4  10   2 2160.16 194.877   3
  -4  10   1 726.353 122.146   3
   4 -10  -1 697.605 91.4326   7
   4 -10  -1 759.340 119.481   1
  -4  10   1 599.858 116.171  10
  -4  10   1 431.205 85.2844   2
  -4  10   0 223.570 74.6769   3
   4 -10   0 312.569 74.5864   7
   4 -10   0 336.532 85.2689   1
  -4  10   0 152.219 57.8449  10
  -4  10   0 205.071 87.5491   2
  -4  10  -1 563.894 101.178   3
   4 -10   1 608.430 104.131   1
   4 -10   1 674.837 95.8456   7
  -4  10  -1 559.022 104.954  10
  -4  10  -1 721.641 128.231   2
  -4  10  -2 1668.51 171.531  10
   4 -10   2 1891.04 150.817   7
  -4  10  -2 1821.49 184.011   2
   4 -10   2 2179.13 189.995   1
  -4  10  -2 1970.45 182.460   3
   4 -10   3 3634.65 210.647   7
  -4  10  -3 3646.94 250.982  10
  -4  10  -3 3423.69 256.225   2
   4 -10   3 3802.09 245.631   1
  -4  10  -3 3439.62 243.009   3
   4 -10   4 4141.49 235.430   7
  -4  10  -4 3608.85 255.589   2
   4 -10   4 4369.42 267.032   1
  -4  10  -4 4217.34 268.707   3
  -4  10  -4 4158.85 261.339  10
   4 -10   5 5169.98 262.020   7
  -4  10  -5 4821.99 272.388  10
  -4  10  -5 4023.13 281.107   2
   4 -10   5 5314.36 298.036   1
  -4  10  -5 5134.64 301.201   3
   4 -10   6 2500.82 186.889   7
  -4  10  -6 2390.54 223.318   2
   4 -10   6 3121.08 225.167   1
  -4  10  -6 2676.70 217.252   3
  -4  10  -6 2571.19 192.097  10
   4 -10   7 1215.79 134.039   7
   4 -10   7 1492.01 165.003   1
  -4  10  -7 1366.71 138.942  10
  -4  10  -7 1319.18 156.304   3
  -4  10  -7 1354.46 164.281   2
  -4  10  -8 170.804 75.0545   3
   4 -10   8 95.0257 52.8597   1
  -4  10  -8 72.4950 64.4541   2
  -4  10  -8 204.904 58.5200  10
  -4  10  -9 71.0956 59.5578   3
   4 -10   9 183.955 73.3372   1
   4 -10   9-11.6895 49.1693   7
  -4  10  -9 81.8855 80.3590   2
   4 -10  10 169.670 58.7669   1
  -4  10 -10 157.438 85.3980   3
   4 -10  10 134.594 71.5171   7
  -4  10 -10 350.282 108.598   2
   4 -10  11 159.848 72.6631   1
  -4  10 -11 54.1983 54.4896   3
   4 -10  11 123.885 51.9412   7
  -4  10 -11 134.040 98.5028   2
   4 -10  12 529.889 114.556   7
   4 -10  12 782.156 129.677   1
  -4  10 -12 790.630 140.212   2
  -4  10 -13 352.287 109.155   2
   4 -10  13 239.214 97.0897   1
  -4  10 -14-26.6910 91.1213   2
   4 -10  14 63.9566 64.2042   1
  -4  10 -15 229.890 109.803   2
   4  -9 -11 79.1958 78.6850   8
  -4   9  11-24.4943 73.9817   6
   4  -9 -10 359.507 98.1812   8
  -4   9  10 385.505 115.982   1
  -4   9  10 289.878 98.3678   6
  -4   9   9 1463.18 197.914   6
   4  -9  -9 1669.38 198.373   8
   4  -9  -9 1129.03 144.035   7
  -4   9   9 1360.04 180.634   1
   4  -9  -8 1980.47 208.050   8
  -4   9   8 1671.00 193.557   1
   4  -9  -8 1530.05 162.221   7
  -4   9   8 1821.00 222.578   6
   4  -9  -8 1575.22 174.316   3
  -4   9   8 1501.30 194.592  10
   4  -9  -7 1274.89 165.316   8
   4  -9  -7 975.376 128.637   7
  -4   9   7 1564.37 192.623   6
  -4   9   7 1137.08 148.491   1
  -4   9   7 927.466 157.639  10
   4  -9  -7 1344.95 152.087   3
   4  -9  -6 632.669 116.246   1
  -4   9   6 544.481 119.163   3
   4  -9  -6 488.073 92.1709   7
  -4   9   6 522.993 109.152   1
  -4   9   6 520.618 113.586  10
   4  -9  -6 604.192 98.9560   3
  -4   9   5 1597.54 167.750   1
   4  -9  -5 1809.82 164.312   7
  -4   9   5 1971.57 191.396   3
   4  -9  -5 1703.47 178.143   1
   4  -9  -5 1861.21 169.763   3
  -4   9   5 1762.99 198.511  10
  -4   9   4 839.301 127.493   3
   4  -9  -4 733.487 102.750   7
  -4   9   4 637.188 107.526   1
   4  -9  -4 761.945 121.544   1
   4  -9  -4 704.606 100.822   3
  -4   9   4 780.633 137.374  10
  -4   9   3 260.607 85.4566   3
   4  -9  -3 45.4156 47.5311   7
   4  -9  -3 124.087 66.0746   1
   4  -9  -3 95.1674 64.3633   3
  -4   9   3 66.9741 66.1956  10
  -4   9   2 91.4567 50.9873   3
   4  -9  -2 70.6964 51.9758   7
   4  -9  -2 66.7164 51.5269   3
   4  -9  -2 63.3956 57.3473   1
  -4   9   2-35.9666 55.5080  10
  -4   9   2 3.61726 49.4879   2
   4  -9  -1 623.893 93.1201   7
  -4   9   1 546.572 96.7594   3
   4  -9  -1 729.542 107.481   1
  -4   9   1 683.670 114.862  10
  -4   9   1 887.665 117.688   2
  -4   9   0-45.0511 44.4972   3
   4  -9   0 27.1290 37.9130   7
   4  -9   0 38.4017 51.1805   1
  -4   9   0-68.7155 65.9123  10
  -4   9   0 41.5481 59.1199   2
  -4   9  -1 256.099 67.7760   3
   4  -9   1 205.563 58.8801   7
   4  -9   1 157.177 55.5317   1
  -4   9  -1 107.181 55.5306  10
  -4   9  -1 107.296 58.8896   2
  -4   9  -2 3727.08 249.020   2
   4  -9   2 4366.00 251.987   1
   4  -9   2 3865.79 214.999   7
  -4   9  -2 3875.76 249.251  10
  -4   9  -2 4012.38 249.604   3
  -4   9  -3 550.064 101.977   3
   4  -9   3 482.874 76.9330   7
   4  -9   3 387.296 85.5443   1
  -4   9  -3 316.559 84.4102   2
  -4   9  -3 349.685 80.0815  10
  -4   9  -4 247.392 67.7375  10
  -4   9  -4 209.673 59.6692   3
   4  -9   4 312.614 70.9651   7
  -4   9  -4 302.704 95.2783   2
   4  -9   4 231.493 71.8537   1
   4  -9   5 538.611 93.1000   7
   4  -9   5 486.413 93.8562   1
  -4   9  -5 732.843 115.101   3
  -4   9  -5 602.663 117.558   2
  -4   9  -5 579.067 96.1145  10
   4  -9   6 417.015 82.1569   7
  -4   9  -6 476.221 90.4167   3
   4  -9   6 377.663 86.5443   1
  -4   9  -6 297.135 73.4744   2
  -4   9  -6 423.378 79.6046  10
   4  -9   7 2225.96 190.757   7
  -4   9  -7 2511.74 208.438   2
   4  -9   7 2437.06 203.228   1
  -4   9  -7 2229.25 193.258   3
  -4   9  -7 2335.86 168.305  10
   4  -9   8 1367.36 150.541   1
   4  -9   8 1509.28 161.704   7
  -4   9  -8 1474.99 160.556   3
  -4   9  -8 1727.46 184.861   2
  -4   9  -8 1710.79 139.032  10
   4  -9   9 3696.12 252.688   7
  -4   9  -9 4110.03 275.290   2
   4  -9   9 4031.32 268.354   1
  -4   9  -9 3665.46 256.949   3
   4  -9  10 2444.11 220.145   7
  -4   9 -10 2413.75 217.783   2
   4  -9  10 2656.62 227.474   1
  -4   9 -10 2359.24 207.778   3
  -4   9 -11 929.004 140.161   3
   4  -9  11 579.699 125.535   7
  -4   9 -11 1036.24 148.658   2
   4  -9  11 981.807 139.434   1
  -4   9 -12 279.311 88.1149   3
   4  -9  12 192.523 102.710   7
  -4   9 -12 346.058 100.133   2
   4  -9  12 204.638 82.6846   1
   4  -9  13-7.89659 83.9590   7
  -4   9 -13-26.4150 64.4318   2
   4  -9  13-67.6720 78.7325   1
   4  -9  14 54.1140 70.7893   1
  -4   9 -14 45.2444 60.5504   2
  -4   9 -15 245.477 90.1949   2
   4  -9  15 169.036 89.8302   1
   4  -8 -12 1350.25 189.998   8
  -4   8  12 1144.30 181.470   6
  -4   8  12 1185.95 165.969   1
   4  -8 -11 2105.92 220.947   8
  -4   8  11 1978.24 206.723   1
  -4   8  11 2193.52 246.386   6
   4  -8 -10 2990.68 259.032   8
  -4   8  10 3162.31 252.505   1
   4  -8 -10 2298.67 211.332   7
  -4   8  10 2261.22 231.634  10
  -4   8  10 2741.25 260.906   6
   4  -8  -9 2476.42 222.598   8
  -4   8   9 2423.34 216.363   1
   4  -8  -9 2420.11 204.380   7
  -4   8   9 2612.33 241.787   6
   4  -8  -9 2414.61 208.045   3
  -4   8   9 2271.19 226.325  10
   4  -8  -8 1985.71 190.167   8
  -4   8   8 1858.92 188.352   1
   4  -8  -8 1709.25 166.569   7
  -4   8   8 1808.80 203.483   6
   4  -8  -8 1637.98 171.608   3
  -4   8   8 1712.52 193.839  10
   4  -8  -7 146.666 61.8473   7
  -4   8   7 174.031 92.9249   6
  -4   8   7 60.1779 64.5428   1
  -4   8   7 151.884 74.3322  10
   4  -8  -7 182.585 65.9647   3
   4  -8  -6 419.217 85.0132   7
  -4   8   6 468.372 111.677   6
   4  -8  -6 332.039 96.1014   1
  -4   8   6 531.881 93.8240   1
  -4   8   6 442.235 97.4869  10
   4  -8  -6 533.987 91.0229   3
  -4   8   5 4922.73 273.224   1
   4  -8  -5 4830.59 256.985   7
   4  -8  -5 4416.68 274.903   1
   4  -8  -5 4696.87 258.934   3
  -4   8   5 4428.22 295.514  10
  -4   8   5 4553.40 273.688   3
  -4   8   4 3332.61 222.230   1
  -4   8   4 3296.24 224.706   3
   4  -8  -4 3669.95 215.001   7
   4  -8  -4 3551.26 227.873   1
   4  -8  -4 3904.31 224.712   3
  -4   8   4 3383.95 254.423  10
   4  -8  -3 4184.82 223.985   7
  -4   8   3 4198.29 248.513   3
  -4   8   3 4164.52 204.831   2
   4  -8  -3 4417.82 252.374   1
   4  -8  -3 4434.45 236.706   3
  -4   8   3 3705.51 260.424  10
   4  -8  -2 5601.13 255.734   7
  -4   8   2 5093.19 249.913   2
   4  -8  -2 5279.72 273.839   1
   4  -8  -2 5711.85 264.457   3
  -4   8   2 5071.32 295.317  10
  -4   8   2 5394.93 277.033   3
   4  -8  -1 4906.93 237.380   7
  -4   8   1 4608.93 233.021   2
   4  -8  -1 4997.90 260.618   1
  -4   8   1 4690.09 275.934  10
  -4   8   1 4569.65 249.498   3
  -4   8   0 760.593 109.425   2
  -4   8   0 1218.82 125.617   3
   4  -8   0 1535.57 125.617   7
  -4   8   0 1191.23 130.165  10
   4  -8   0 1445.10 135.785   1
  -4   8  -1 96.7062 50.4619   3
   4  -8   1-5.15053 39.0962   7
  -4   8  -1 6.72154 54.5423   2
   4  -8   1 45.2179 46.8705   1
  -4   8  -1 59.0944 63.8485  10
   4  -8   2 1270.54 121.354   7
   4  -8   2 1543.36 142.625   1
  -4   8  -2 1294.92 136.323  10
  -4   8  -2 1458.74 138.317   3
  -4   8  -2 1169.32 123.060   2
  -4   8  -3 988.834 120.542   3
   4  -8   3 1146.59 112.459   7
  -4   8  -3 804.055 116.955   2
   4  -8   3 1388.65 138.092   1
  -4   8  -3 1077.05 118.467  10
   4  -8   4 1834.42 146.010   7
  -4   8  -4 1846.08 159.926   2
   4  -8   4 1777.51 154.254   1
  -4   8  -4 1503.30 137.464  10
  -4   8  -4 1618.86 149.484   3
  -4   8  -5 201.590 66.0213   3
   4  -8   5 249.934 70.0972   7
   4  -8   5 178.596 64.2233   1
  -4   8  -5 388.047 87.8125   2
  -4   8  -5 166.691 62.4785  10
   4  -8   6 584.374 104.847   1
  -4   8  -6 495.118 95.8293   3
   4  -8   6 549.401 93.1445   7
  -4   8  -6 528.583 101.138   2
  -4   8  -6 675.952 91.6786  10
   4  -8   7 409.911 85.8445   1
  -4   8  -7 429.701 90.4632   3
   4  -8   7 331.685 74.5841   7
  -4   8  -7 254.639 57.6483  10
  -4   8  -7 491.835 103.698   2
   4  -8   8-4.08983 46.7097   7
  -4   8  -8 82.3129 68.8424   2
  -4   8  -8 76.3009 56.4212   3
  -4   8  -8 54.8056 38.3855  10
   4  -8   8-16.2972 53.9917   1
  -4   8  -9 320.921 85.2197   3
   4  -8   9 216.609 74.8089   7
   4  -8   9 131.496 61.8724   1
  -4   8  -9 410.019 100.311   2
  -4   8  -9 130.385 43.8934  10
  -4   8 -10 114.947 54.7646   3
   4  -8  10 97.7389 70.1968   7
  -4   8 -10 156.880 75.4939   2
   4  -8  10 81.0607 68.6248   1
  -4   8 -11 360.575 92.1503   3
   4  -8  11 374.080 97.7357   7
  -4   8 -11 482.637 107.552   2
   4  -8  11 447.644 103.118   1
  -4   8 -12 732.177 129.717   3
   4  -8  12 644.902 123.235   7
   4  -8  12 794.738 135.884   1
  -4   8 -12 778.485 130.986   2
  -4   8 -13 742.486 136.939   3
   4  -8  13 931.984 150.820   1
  -4   8 -13 1004.66 142.528   2
   4  -8  13 1015.94 161.694   7
   4  -8  14 778.526 154.391   1
  -4   8 -14 558.816 122.524   2
   4  -8  15 350.070 110.173   1
  -4   8 -15 378.016 103.727   2
  -4   8 -16 205.567 85.2424   2
  -4   7  13 218.646 78.3935   1
   4  -7 -13 497.809 119.293   8
  -4   7  13 229.261 113.587   6
   4  -7 -12 192.226 90.8385   8
  -4   7  12 37.9045 85.8631   6
  -4   7  12 54.3586 54.2210   1
   4  -7 -11-24.5458 61.0607   8
   4  -7 -11 78.7995 51.0686   7
  -4   7  11 79.3637 85.5392   6
  -4   7  11-18.6342 65.8535   1
   4  -7 -10 109.007 69.6589   8
   4  -7 -10-22.0081 51.5754   7
  -4   7  10-1.89886 66.0536   6
  -4   7  10 80.6215 65.7431   1
  -4   7  10-22.9155 61.1270  10
   4  -7 -10-1.11891 59.1314   3
   4  -7  -9 188.401 72.8514   8
   4  -7  -9 119.294 57.0408   7
  -4   7   9 186.423 81.3615   6
  -4   7   9 34.6153 53.9138   1
  -4   7   9 24.3166 66.3349  10
   4  -7  -9 104.952 65.4507   3
   4  -7  -8 1375.96 151.273   8
   4  -7  -8 1408.44 146.739   7
  -4   7   8 1269.49 149.042   1
  -4   7   8 1480.70 173.197   6
   4  -7  -8 1427.93 147.340   3
  -4   7   8 1418.96 161.956  10
  -4   7   7 3911.61 243.640   1
   4  -7  -7 4022.68 238.536   7
  -4   7   7 4069.03 270.455   6
   4  -7  -7 4193.49 246.488   3
  -4   7   7 3797.49 261.780  10
  -4   7   6 2580.65 190.751   1
   4  -7  -6 2314.23 177.578   7
  -4   7   6 2796.16 212.533   6
   4  -7  -6 2581.18 193.449   1
   4  -7  -6 2650.13 186.038   3
  -4   7   6 2675.79 213.217  10
  -4   7   5 7332.58 323.028   1
   4  -7  -5 6463.95 296.927   7
  -4   7   5 7507.13 331.482   6
   4  -7  -5 6696.39 316.573   1
   4  -7  -5 7361.82 305.551   3
  -4   7   5 6884.27 345.236  10
  -4   7   4 10011.3 379.553   1
   4  -7  -4 10282.9 370.591   7
  -4   7   4 10770.1 391.182   6
   4  -7  -4 10055.1 386.968   1
   4  -7  -4 11121.2 380.646   3
  -4   7   4 9628.11 413.657  10
  -4   7   4 10116.1 385.745   3
  -4   7   3 390.028 84.1520   3
   4  -7  -3 390.823 74.3613   7
  -4   7   3 340.210 61.9408   2
   4  -7  -3 425.006 70.5719   3
  -4   7   3 428.081 79.8239   6
  -4   7   3 229.802 63.5082  10
   4  -7  -3 475.293 87.0391   1
  -4   7   2 2.90029 38.5349   3
   4  -7  -2 97.9779 55.4192   7
  -4   7   2 22.0046 36.2201   2
  -4   7   2 54.6241 46.2720   6
   4  -7  -2-10.9836 49.9040   1
   4  -7  -2 33.8730 46.2186   3
  -4   7   2-65.1077 54.8844  10
  -4   7   1 1194.17 114.410   3
   4  -7  -1 1064.85 116.205   1
   4  -7  -1 1095.22 105.609   7
  -4   7   1 955.646 87.9389   6
  -4   7   1 970.415 105.657   2
  -4   7   1 1017.81 126.252  10
   4  -7   0 4799.27 221.467   7
  -4   7   0 4744.57 223.213   2
   4  -7   0 4656.98 234.431   1
  -4   7   0 4498.29 247.790  10
  -4   7   0 4433.19 227.817   3
   4  -7   1 7890.68 295.716   7
  -4   7  -1 7120.43 207.487   6
  -4   7  -1 7872.21 296.429   2
   4  -7   1 7420.37 305.373   1
  -4   7  -1 7410.74 311.306  10
  -4   7  -1 7502.27 302.963   3
   4  -7   2 11553.8 376.590   7
  -4   7  -2 12046.7 400.942   2
   4  -7   2 12020.6 399.446   1
  -4   7  -2 11350.1 394.073  10
  -4   7  -2 12006.6 402.136   3
   4  -7   3 16756.3 483.642   7
  -4   7  -3 18105.7 511.963   2
   4  -7   3 16572.5 499.739   1
  -4   7  -3 16126.6 484.602  10
  -4   7  -3 17342.3 504.707   3
  -4   7  -4 333.833 77.7264   3
   4  -7   4 382.217 74.1055   7
  -4   7  -4 476.476 99.2892   2
  -4   7  -4 398.772 74.8649  10
   4  -7   4 365.950 74.5003   1
   4  -7   5 646.019 96.5458   1
   4  -7   5 527.656 87.9507   7
  -4   7  -5 579.677 89.8963   3
  -4   7  -5 532.551 79.0209  10
  -4   7  -5 481.184 96.4880   2
   4  -7   6 1676.63 146.328   7
  -4   7  -6 1598.50 148.927   2
   4  -7   6 1413.91 137.829   1
  -4   7  -6 1378.14 120.334  10
  -4   7  -6 1350.71 133.359   3
  -4   7  -7-37.8936 54.0540   3
  -4   7  -7 42.7199 29.3845  10
   4  -7   7 47.9864 52.8836   7
  -4   7  -7-23.4080 52.3564   2
   4  -7   7-7.50669 47.7173   1
   4  -7   8 1593.71 156.513   7
   4  -7   8 1343.89 140.072   1
  -4   7  -8 1389.52 150.036   2
  -4   7  -8 1273.39 137.277   3
  -4   7  -8 1275.53 112.934  10
  -4   7  -9 44.4312 40.5542   3
   4  -7   9 9.01104 59.1217   7
   4  -7   9 93.7329 56.4739   1
  -4   7  -9 53.5626 60.6566   2
  -4   7 -10 46.0873 43.7024   3
   4  -7  10 27.8279 46.7544   7
   4  -7  10-16.3328 46.9423   1
  -4   7 -10 7.09083 48.3137   2
  -4   7 -11 881.400 121.817   3
   4  -7  11 831.681 150.215   7
   4  -7  11 989.734 144.060   1
  -4   7 -11 1191.50 147.913   2
   4  -7  12 127.534 83.6367   7
  -4   7 -12 22.8663 51.1595   3
   4  -7  12 25.0220 67.8798   1
  -4   7 -12 114.305 65.7106   2
  -4   7 -13 7.41839 53.7478   3
   4  -7  13-72.1629 84.4977   7
   4  -7  13-11.4507 58.7990   1
  -4   7 -13-14.0664 62.5022   2
   4  -7  14 82.3559 77.4334   1
  -4   7 -14 73.5255 49.8745   2
   4  -7  15 17.4886 59.8180   1
  -4   7 -15-51.4010 57.7632   2
  -4   7 -16 47.1900 59.7692   2
  -4   6  14-163.529 92.0921   1
   4  -6 -14-27.2337 78.5674   8
  -4   6  14 42.2694 85.0499   6
  -4   6  13 154.054 80.6313   1
   4  -6 -13 3.21062 55.6235   8
  -4   6  13 132.829 95.1029   6
   4  -6 -12 624.877 127.127   8
  -4   6  12 365.478 98.6483   6
  -4   6  12 492.908 111.704   1
   4  -6 -11 1197.15 148.406   8
  -4   6  11 1186.01 171.475   6
  -4   6  11 1045.34 136.315   1
   4  -6 -11 1278.18 150.017   3
   4  -6 -10 830.202 121.846   8
  -4   6  10 799.943 123.500   1
  -4   6  10 541.145 115.466   6
  -4   6  10 648.060 97.7417  10
   4  -6 -10 827.227 113.639   3
   4  -6  -9 108.595 64.6091   8
  -4   6   9-6.71875 64.9297   6
  -4   6   9-29.5701 46.7071   1
  -4   6   9-31.1867 60.1727  10
   4  -6  -9-15.6299 48.3546   3
   4  -6  -8 431.756 83.8237   8
   4  -6  -8 435.591 85.2470   7
  -4   6   8 344.704 89.6912   6
  -4   6   8 413.218 87.8207   1
  -4   6   8 161.915 64.3026  10
   4  -6  -8 334.036 72.5704   3
   4  -6  -7 8.33476 43.0233   7
  -4   6   7 115.423 66.7368   6
  -4   6   7-55.7544 46.7983   1
  -4   6   7-217.467 106.008  10
   4  -6  -7-69.6220 46.9690   3
   4  -6  -6 172.107 57.2717   7
  -4   6   6 278.344 75.3596   6
   4  -6  -6 252.741 58.9667   1
  -4   6   6 213.026 58.2438   1
  -4   6   6 40.0718 58.0733  10
   4  -6  -6 346.355 70.3903   3
   4  -6  -5 742.003 92.4795   1
   4  -6  -5 618.146 93.8120   7
  -4   6   5 611.869 96.5373   6
  -4   6   5 555.754 83.9102   1
  -4   6   5 572.352 87.7185  10
   4  -6  -5 741.314 90.7871   3
  -4   6   4 314.127 73.8714   1
  -4   6   4 305.743 70.2547   3
   4  -6  -4 388.221 69.3459   7
   4  -6  -4 406.077 72.3640   1
  -4   6   4 409.599 72.6370   6
  -4   6   4 439.016 53.8098   2
  -4   6   4 323.011 66.8798  10
   4  -6  -4 335.811 59.7859   3
  -4   6   3 2802.34 174.756   3
  -4   6   3 2610.73 157.758   6
  -4   6   3 2675.14 134.944   2
   4  -6  -3 3088.62 180.732   1
   4  -6  -3 2713.01 160.659   3
  -4   6   3 2730.63 188.088  10
   4  -6  -2 6909.86 272.134   7
  -4   6   2 7289.17 254.174   6
  -4   6   2 6593.15 235.216   2
   4  -6  -2 6835.57 276.065   1
   4  -6  -2 6911.95 263.556   3
  -4   6   2 6957.04 303.244  10
  -4   6   2 6842.17 275.815   3
   4  -6  -1 8647.91 301.700   7
  -4   6   1 8376.08 253.891   6
  -4   6   1 8206.75 274.552   2
   4  -6  -1 7347.68 292.723   1
  -4   6   1 7796.97 317.273  10
  -4   6   1 8274.00 298.403   3
  -4   6   0 8513.94 289.503   2
   4  -6   0 8697.44 302.626   7
   4  -6   0 8752.43 312.195   1
  -4   6   0 8873.08 330.118  10
  -4   6   0 8205.69 303.193   3
  -4   6  -1 17.4037 38.8634   3
   4  -6   1 85.3727 38.2321   7
   4  -6   1 167.247 50.0343   1
  -4   6  -1 82.8155 49.2411   2
  -4   6  -1 33.9799 45.9751  10
   4  -6   2 5121.86 228.460   7
  -4   6  -2 5503.28 238.289   2
   4  -6   2 5208.48 234.717   1
  -4   6  -2 5338.99 239.721  10
  -4   6  -2 5136.20 232.027   3
  -4   6  -3-11.3154 31.8115  10
  -4   6  -3-26.7534 41.2401   3
   4  -6   3 24.4659 41.1941   1
   4  -6   3 8.03949 43.7797   7
  -4   6  -3 104.326 59.7323   2
   4  -6   4 1019.51 103.564   1
   4  -6   4 840.395 106.259   7
  -4   6  -4 951.770 105.761   3
  -4   6  -4 1048.43 100.469  10
  -4   6  -4 889.805 111.580   2
   4  -6   5 4397.95 226.804   7
  -4   6  -5 4321.04 222.091   3
  -4   6  -5 3925.39 221.764   2
   4  -6   5 4133.29 225.275   1
  -4   6  -5 4282.41 202.863  10
   4  -6   6 18426.2 546.200   7
  -4   6  -6 18849.1 544.762   2
   4  -6   6 19472.5 555.238   1
  -4   6  -6 18560.8 529.419   3
  -4   6  -6 18148.0 487.790  10
   4  -6   7 12618.5 437.568   7
  -4   6  -7 11677.4 415.728   2
   4  -6   7 12042.6 428.690   1
  -4   6  -7 11617.9 409.640   3
   4  -6   8 1254.01 140.046   7
  -4   6  -8 1451.78 142.411   2
   4  -6   8 1499.43 147.689   1
  -4   6  -8 1148.56 127.712   3
   4  -6   9 4717.10 273.902   7
  -4   6  -9 4391.50 251.948   2
   4  -6   9 4530.67 263.930   1
  -4   6  -9 4002.36 244.174   3
   4  -6  10 1675.16 180.930   7
   4  -6  10 1887.36 173.154   1
  -4   6 -10 1822.61 163.396   2
  -4   6 -10 1800.36 164.801   3
  -4   6 -11 538.297 98.1092   3
   4  -6  11 455.445 111.119   7
   4  -6  11 580.356 110.722   1
  -4   6 -11 373.242 82.3848   2
  -4   6 -12-20.3031 56.1568   3
   4  -6  12-36.6387 70.0812   7
   4  -6  12 126.626 64.0475   1
  -4   6 -12-129.895 71.6102   2
  -4   6 -13 69.9281 65.0624   3
   4  -6  13 84.0891 64.3505   7
   4  -6  13 89.5891 66.6197   1
  -4   6 -13 7.74709 49.8568   2
   4  -6  14 618.828 128.847   1
  -4   6 -14 692.467 123.563   2
   4  -6  15 585.102 120.710   1
  -4   6 -15 444.808 104.065   2
  -4   5  15 545.793 117.958   1
  -4   5  15 670.637 151.019   6
  -4   5  14 3004.19 248.612   1
  -4   5  14 2872.91 280.105   6
  -4   5  13 3100.23 240.841   1
  -4   5  13 2892.18 262.673   6
   4  -5 -13 3242.14 252.679   8
   4  -5 -12 4133.45 276.340   8
  -4   5  12 3601.90 286.842   6
  -4   5  12 4179.38 269.994   1
   4  -5 -12 3851.24 261.187   3
   4  -5 -11 2257.73 195.648   8
  -4   5  11 1784.39 170.652   1
  -4   5  11 2209.58 213.041   6
   4  -5 -11 1858.10 168.530   3
   4  -5 -10 476.159 91.2830   8
  -4   5  10 727.116 120.534   6
  -4   5  10 433.572 89.1988   1
  -4   5  10 595.909 95.0025  10
   4  -5 -10 706.009 104.177   3
   4  -5  -9 263.654 59.0608   8
  -4   5   9 369.665 95.2427   6
  -4   5   9 297.397 65.1019   1
  -4   5   9 292.324 73.0343  10
   4  -5  -9 363.234 77.4084   3
   4  -5  -8 1495.82 141.107   8
  -4   5   8 1318.54 143.655   6
  -4   5   8 1273.96 130.144   1
   4  -5  -8 1495.73 132.915   3
  -4   5   8 1343.33 136.470  10
   4  -5  -7 4065.10 222.489   8
  -4   5   7 4074.10 217.691   1
   4  -5  -7 3939.22 224.576   7
  -4   5   7 4048.79 241.901   6
   4  -5  -7 4008.35 213.129   3
  -4   5   7 4087.21 233.844  10
  -4   5   6 5375.72 244.968   1
  -4   5   6 5357.45 262.210   6
   4  -5  -6 4913.53 242.734   7
   4  -5  -6 4661.84 237.084   1
   4  -5  -6 5100.70 233.002   3
  -4   5   6 5450.21 265.989  10
  -4   5   5 3633.73 191.802   1
   4  -5  -5 3763.02 200.810   7
  -4   5   5 3501.48 201.172   6
   4  -5  -5 3426.47 183.024   3
  -4   5   5 3617.43 212.072  10
   4  -5  -4 13960.8 426.918   7
  -4   5   4 14787.5 426.901   6
  -4   5   4 14126.9 324.926   2
   4  -5  -4 14775.6 422.490   1
  -4   5   4 15355.4 426.506   1
   4  -5  -4 14555.0 408.363   3
  -4   5   4 15146.4 461.868  10
  -4   5   3 2587.81 144.016   6
   4  -5  -3 2372.36 153.708   7
  -4   5   3 2442.87 149.671   3
  -4   5   3 2340.72 113.691   2
   4  -5  -3 2386.77 146.972   1
   4  -5  -3 2369.00 139.005   3
  -4   5   3 2479.41 163.314  10
  -4   5   2 16.2494 31.0598   3
   4  -5  -2-21.8838 40.9999   7
   4  -5  -2 20.4094 33.9836   1
   4  -5  -2 11.1358 35.3274   3
  -4   5   2 17.2672 27.9745   6
  -4   5   2 44.9033 32.5722   2
  -4   5   2 34.2029 42.0731  10
  -4   5   1 39.0149 28.8926   3
   4  -5  -1 66.4326 38.0572   7
  -4   5   1 57.1165 24.1555   6
  -4   5   1 67.7603 40.6225  10
  -4   5   1 99.1883 38.3001   2
   4  -5  -1 63.7105 46.7535   1
   4  -5   0 208.554 51.0070   7
  -4   5   0 177.523 27.2119   6
   4  -5   0 239.651 55.7232   1
  -4   5   0 238.218 48.6012   2
  -4   5   0 167.513 42.7053   3
  -4   5   0 199.493 52.5416  10
  -4   5  -1 464.604 66.4923   3
   4  -5   1 385.843 58.8333   7
   4  -5   1 392.037 58.2744   1
  -4   5  -1 380.671 65.2204  10
  -4   5  -1 293.589 56.8033   2
   4  -5   2 36.2375 36.3850   1
  -4   5  -2 139.562 47.0961   3
   4  -5   2 92.2337 40.1255   7
  -4   5  -2 108.818 46.3245  10
  -4   5  -2 97.9266 44.2164   2
   4  -5   3 5506.81 237.130   7
  -4   5  -3 5351.51 229.813   2
   4  -5   3 5438.47 231.330   1
   4  -5   3 5440.60 209.584   4
  -4   5  -3 5197.00 222.571   3
  -4   5  -3 5592.56 229.304  10
  -4   5  -4 2872.95 171.441   2
   4  -5   4 2833.15 171.333   1
   4  -5   4 2829.83 153.170   4
  -4   5  -4 2934.42 169.025   3
  -4   5  -4 2867.49 160.402  10
   4  -5   4 3195.39 183.499   7
   4  -5   5 214.290 62.3317   7
  -4   5  -5 203.227 55.3618   3
  -4   5  -5 249.682 52.5589  10
   4  -5   5 307.469 55.5130   4
   4  -5   5 266.637 62.5195   1
  -4   5  -5 364.809 74.2945   2
  -4   5  -6 831.424 95.7531   3
   4  -5   6 775.338 100.902   7
   4  -5   6 841.730 109.288   1
  -4   5  -6 820.958 103.141   2
  -4   5  -7 252.285 63.1988   3
   4  -5   7 355.976 90.2196   7
   4  -5   7 293.159 67.2121   1
  -4   5  -7 240.441 60.1218   2
  -4   5  -8 68.1973 49.1709   3
   4  -5   8 81.6207 56.8975   7
   4  -5   8 39.4811 47.0563   1
  -4   5  -8-3.78589 50.1519   2
   4  -5   9 922.215 145.536   7
   4  -5   9 1126.32 131.945   1
  -4   5  -9 1271.74 129.191   2
  -4   5  -9 1153.99 129.989   3
   4  -5  10 5387.43 308.622   7
   4  -5  10 5532.42 297.882   1
  -4   5 -10 5084.81 272.263   2
  -4   5 -10 4750.46 268.850   3
   4  -5  11 2600.33 224.800   7
   4  -5  11 2923.09 229.944   1
  -4   5 -11 2569.65 195.752   2
  -4   5 -11 2557.76 202.291   3
  -4   5 -12 258.137 78.1115   3
   4  -5  12 355.949 104.161   7
   4  -5  12 467.405 107.124   1
  -4   5 -12 463.657 98.4918   2
   4  -5  13 4655.77 308.947   1
  -4   5 -13 4276.54 271.993   2
  -4   5 -13 4468.20 298.102   3
   4  -5  14 932.736 152.567   1
  -4   5 -14 860.598 139.926   2
   4  -5  15-78.0479 64.1768   1
  -4   5 -15 100.194 62.6332   2
  -4   4  15 349.850 96.6972   1
  -4   4  15 419.010 116.887   6
  -4   4  14 430.298 96.8926   1
  -4   4  14 257.995 86.6039   6
  -4   4  13 313.178 80.1054   1
   4  -4 -13 324.193 81.8122   3
  -4   4  13 502.563 117.670   6
   4  -4 -12-92.1025 66.2045   8
   4  -4 -12-15.4094 47.4845   3
  -4   4  12-15.6019 51.3494   1
  -4   4  12 38.2066 60.3167   6
   4  -4 -11 332.022 75.4952   8
  -4   4  11 347.329 92.1236   6
   4  -4 -11 337.152 74.8226   3
  -4   4  11 443.972 83.4387   1
   4  -4 -10 5331.24 272.580   8
  -4   4  10 5072.01 261.724   1
  -4   4  10 4880.32 296.433   6
   4  -4 -10 5465.03 267.604   3
  -4   4  10 4821.40 246.135  10
   4  -4  -9 5415.43 266.850   8
  -4   4   9 5619.58 260.923   1
  -4   4   9 5277.16 293.592   6
   4  -4  -9 5643.14 259.672   3
  -4   4   9 5532.65 259.384  10
   4  -4  -8 10982.4 375.174   8
  -4   4   8 11074.4 418.458   6
  -4   4   8 10827.5 369.915   1
   4  -4  -8 10833.6 364.317   3
  -4   4   8 10759.6 376.447  10
   4  -4  -7 5624.63 245.733   8
  -4   4   7 5903.41 249.867   1
  -4   4   7 5872.11 279.395   6
   4  -4  -7 5462.92 239.673   3
  -4   4   7 6045.65 263.646  10
  -4   4   6 5064.82 219.529   1
   4  -4  -6 5038.81 238.391   7
  -4   4   6 5427.21 255.410   6
  -4   4   6 5330.79 241.871  10
   4  -4  -6 5231.75 215.825   3
  -4   4   5 5362.37 217.157   1
   4  -4  -5 5199.62 231.251   7
  -4   4   5 5628.21 240.441   6
  -4   4   5 4695.42 133.059   2
   4  -4  -5 5272.21 212.985   3
  -4   4   5 5544.33 241.055  10
  -4   4   4 2515.54 141.460   1
   4  -4  -4 2500.08 151.552   7
  -4   4   4 2454.36 146.542   6
  -4   4   4 2427.34 98.4680   2
  -4   4   4 2664.68 161.724  10
   4  -4  -4 2436.34 134.160   3
   4  -4  -3 4560.80 229.401   7
  -4   4   3 5865.47 175.777   2
   4  -4  -3 5691.83 214.658   1
   4  -4  -3 6117.05 209.169   3
  -4   4   3 5705.45 239.706  10
  -4   4   3 6053.10 219.800   3
  -4   4   2 2992.85 143.573   3
   4  -4  -2 2828.76 154.624   7
  -4   4   2 2859.42 124.857   2
  -4   4   2 2618.54 129.146   6
   4  -4  -2 2739.48 141.767   1
   4  -4  -2 2894.21 133.910   3
  -4   4   2 3034.75 166.770  10
   4  -4  -1 13836.6 380.705   7
  -4   4   1 13292.4 319.358   6
  -4   4   1 13017.6 337.244   2
   4  -4  -1 13637.8 357.090   1
  -4   4   1 13753.6 389.412  10
  -4   4   1 12986.8 350.497   3
  -4   4   0 26561.0 560.497   2
   4  -4   0 24595.1 581.146   7
  -4   4   0 25549.5 499.087   6
   4  -4   0 24969.5 562.021   1
   4  -4   0 24256.1 525.906   4
  -4   4   0 26480.9 599.073  10
  -4   4   0 26092.8 561.154   3
   4  -4   1 5677.27 223.093   7
  -4   4  -1 5516.51 211.314   2
   4  -4   1 5771.81 214.412   1
  -4   4  -1 5302.98 220.086  10
   4  -4   1 5731.64 193.104   4
  -4   4  -1 5606.39 207.013   3
  -4   4  -2 2861.75 150.182   2
   4  -4   2 2988.16 152.761   1
   4  -4   2 3010.66 161.569   7
   4  -4   2 2811.62 132.900   4
  -4   4  -2 2771.22 151.235  10
  -4   4  -2 2634.09 140.576   3
   4  -4   3 3157.61 172.966   7
  -4   4  -3 3313.16 169.285   2
   4  -4   3 3208.52 166.294   1
   4  -4   3 3380.35 154.032   4
  -4   4  -3 3248.90 168.422  10
  -4   4  -3 3206.75 158.516   3
  -4   4  -4 465.729 65.7888   3
   4  -4   4 466.622 75.5169   7
   4  -4   4 478.594 60.3122   4
   4  -4   4 413.949 68.0712   1
  -4   4  -4 389.680 62.6796   2
  -4   4  -5 245.430 50.5394   3
   4  -4   5 206.928 58.4517   7
   4  -4   5 213.552 52.1958   1
   4  -4   5 264.017 52.0368   4
  -4   4  -5 187.754 45.5794   2
  -4   4  -6-19.8448 35.4289   3
   4  -4   6-42.1321 42.5386   7
   4  -4   6 18.6935 43.8458   1
   4  -4   6 43.4508 35.2183   4
  -4   4  -6-114.408 69.5728   2
  -4   4  -7 325.524 65.0826   3
   4  -4   7 471.994 86.2885   7
   4  -4   7 418.537 81.5351   1
  -4   4  -7 350.837 74.1527   2
  -4   4  -8-50.6625 50.1986   3
   4  -4   8-1.78243 48.2146   7
   4  -4   8 47.1512 47.2344   1
  -4   4  -8 11.3588 46.5415   2
  -4   4  -9 70.6463 51.1981   3
   4  -4   9 119.974 75.3621   7
   4  -4   9 39.8958 52.1391   1
  -4   4  -9-62.0256 39.6400   2
  -4   4 -10 906.665 114.108   3
   4  -4  10 636.736 108.157   7
   4  -4  10 751.173 116.730   1
  -4   4 -10 833.491 108.546   2
  -4   4 -11-8.48849 60.5509   3
   4  -4  11 12.5155 56.9472   7
   4  -4  11-11.2744 53.4274   1
  -4   4 -11-85.8033 60.3161   2
  -4   4 -12 24.3337 39.8335   3
   4  -4  12 5.53236 54.7094   7
   4  -4  12 133.799 73.4743   1
  -4   4 -12 44.1973 59.7125   2
  -4   4 -13 322.027 92.1724   3
   4  -4  13 195.589 102.373   7
   4  -4  13 353.419 95.0785   1
  -4   4 -13 227.402 79.8413   2
   4  -4  14 887.911 143.626   1
  -4   4 -14 758.524 121.827   2
   4  -4  15 11.6530 60.2376   1
  -4   3  16 47.0328 49.8857   1
  -4   3  16 152.446 75.7259   6
  -4   3  15 76.7961 58.2354   1
  -4   3  15 171.619 81.9954   6
  -4   3  14 162.767 69.9650   1
  -4   3  14 145.185 77.5511   6
   4  -3 -14 77.9103 49.7663   3
  -4   3  13 187.296 69.6021   1
  -4   3  13 233.581 94.8822   6
   4  -3 -13 189.723 75.7147   3
  -4   3  12 1.46115 45.6358   1
   4  -3 -12-72.3953 60.9435   8
  -4   3  12-58.6115 66.6546   6
   4  -3 -12-49.5149 43.7171   3
  -4   3  11 208.626 61.1529   1
   4  -3 -11 368.193 75.9613   8
  -4   3  11 236.626 78.3155   6
   4  -3 -11 260.831 59.9038   3
   4  -3 -10 409.502 78.4011   8
  -4   3  10 488.949 94.4837   6
   4  -3 -10 462.605 77.2903   3
  -4   3  10 416.534 77.5713   1
   4  -3  -9 2000.05 148.881   8
  -4   3   9 1931.76 142.976   1
  -4   3   9 2132.40 173.642   6
   4  -3  -9 1941.71 139.859   3
  -4   3   9 2094.94 140.771  10
   4  -3  -8 108.583 48.4283   8
  -4   3   8 141.408 55.6038   6
  -4   3   8 70.6926 37.1728   1
  -4   3   8 48.3102 36.1030  10
   4  -3  -8 67.0278 39.9136   3
   4  -3  -7 328.984 62.7784   8
  -4   3   7 322.769 71.1991   6
  -4   3   7 340.602 58.6711   1
  -4   3   7 379.790 64.9015  10
   4  -3  -7 401.365 65.4223   3
  -4   3   6 4052.35 178.048   1
   4  -3  -6 3788.35 208.178   7
  -4   3   6 4059.65 208.148   6
   4  -3  -6 4244.80 184.229   8
   4  -3  -6 4240.24 180.146   3
  -4   3   6 4218.03 197.672  10
  -4   3   5 3965.07 166.762   1
  -4   3   5 3844.37 191.101   6
  -4   3   5 3798.18 112.571   2
   4  -3  -5 4033.33 169.864   1
   4  -3  -5 4118.56 169.591   3
  -4   3   5 3689.61 181.324  10
  -4   3   4 11706.1 307.118   1
  -4   3   4 11636.4 259.865   2
  -4   3   4 11613.7 338.228   6
   4  -3  -4 11110.6 342.619   7
   4  -3  -4 11007.1 305.784   1
   4  -3  -4 10884.5 295.873   3
  -4   3   4 11366.7 341.618  10
  -4   3   3 12550.6 335.018   6
   4  -3  -3 10986.6 346.850   7
  -4   3   3 12116.8 285.127   2
   4  -3  -3 12473.7 312.989   1
  -4   3   3 12234.2 313.397   3
   4  -3  -3 11818.4 300.875   3
  -4   3   3 11889.3 350.108  10
  -4   3   2 27349.2 565.359   6
  -4   3   2 27338.3 606.027  10
  -4   3   2 26534.9 540.801   2
   4  -3  -2 26464.8 598.531   7
   4  -3  -2 25138.7 544.853   1
   4  -3  -2 27986.9 520.279   4
  -4   3   2 26114.1 545.812   3
   4  -3  -1 15157.9 394.718   7
  -4   3   1 14954.8 397.897  10
  -4   3   1 14073.8 340.518   6
  -4   3   1 14609.5 355.874   2
   4  -3  -1 15782.5 327.577   4
  -4   3   1 14276.8 346.141   3
  -4   3   0 35.5698 21.4104   3
  -4   3   0 28.6707 32.8613  10
   4  -3   0-9.27721 23.4094   1
   4  -3   0 10.4303 28.2845   7
  -4   3   0 8.09032 14.9254   6
   4  -3   0-2.12616 16.9268   4
  -4   3   0 52.4431 29.7631   2
  -4   3  -1 109.196 30.9999   3
   4  -3   1 148.530 46.5403   7
  -4   3  -1 155.009 27.4988   6
   4  -3   1 144.199 27.5489   4
  -4   3  -1 110.217 37.3070   2
  -4   3  -1 151.304 42.3105  10
   4  -3   1 92.4261 27.6864   1
   4  -3   2 1055.22 95.4576   7
  -4   3  -2 1081.70 92.4022   2
   4  -3   2 1172.13 88.1525   1
  -4   3  -2 1114.06 80.6636   3
   4  -3   3 11718.8 355.991   7
   4  -3   3 10937.5 330.895   1
  -4   3  -3 11144.8 341.197   2
  -4   3  -3 11805.7 316.948   3
   4  -3   4 19579.9 514.550   7
   4  -3   4 18072.1 477.531   1
  -4   3  -4 19143.0 491.875   2
  -4   3  -4 18826.1 459.448   3
   4  -3   5 4289.28 221.795   7
   4  -3   5 4315.47 206.057   1
  -4   3  -5 4270.27 208.403   2
  -4   3  -5 4440.25 195.261   3
   4  -3   6 6661.81 295.305   7
   4  -3   6 7004.05 281.304   1
  -4   3  -6 6486.83 273.206   2
  -4   3  -6 6505.38 257.751   3
   4  -3   7 4992.63 261.694   7
   4  -3   7 5036.96 247.220   1
  -4   3  -7 4923.00 240.563   2
  -4   3  -7 5381.04 239.420   3
  -4   3  -8 869.780 102.315   3
   4  -3   8 994.007 131.461   7
   4  -3   8 1090.04 117.113   1
  -4   3  -8 918.167 109.533   2
  -4   3  -9-75.8203 52.9566   3
   4  -3   9-5.54321 55.1526   7
   4  -3   9-2.88430 47.5509   1
  -4   3  -9 3.63213 44.9182   2
  -4   3 -10 247.858 70.0339   3
   4  -3  10 448.206 100.490   7
   4  -3  10 177.813 67.7229   1
  -4   3 -10 260.717 78.3499   2
  -4   3 -11 115.678 51.6859   3
   4  -3  11 85.2009 70.9993   7
   4  -3  11 156.890 61.6756   1
  -4   3 -11 140.783 57.5438   2
  -4   3 -12 154.127 68.5995   3
   4  -3  12 102.458 66.4361   7
   4  -3  12 306.927 87.9373   1
  -4   3 -12 241.287 73.9400   2
  -4   3 -13 108.692 57.1444   3
   4  -3  13 276.937 112.566   7
   4  -3  13 258.417 86.1591   1
  -4   3 -13 223.341 78.1653   2
   4  -3  14-5.63781 54.9557   1
   4  -3  15 58.5462 64.3435   1
  -4   2  17 1534.79 203.394   6
  -4   2  16 1411.56 166.786   1
  -4   2  16 1452.34 193.864   6
  -4   2  15 2336.72 197.529   1
  -4   2  15 2108.08 224.060   6
   4  -2 -15 2023.27 186.855   3
  -4   2  14 2185.66 221.230   6
   4  -2 -14 2278.15 191.307   3
  -4   2  14 1996.28 178.322   1
  -4   2  13 2087.04 171.097   1
  -4   2  13 2300.96 213.734   6
   4  -2 -13 2094.87 172.647   3
  -4   2  12 285.758 69.7721   1
  -4   2  12 258.876 71.0571   6
   4  -2 -12 181.683 55.2582   3
  -4   2  11 51.1207 33.9178   1
   4  -2 -11 128.908 47.0470   3
  -4   2  11 66.7183 49.7104   6
   4  -2 -10 176.717 51.1845   3
  -4   2  10 165.702 52.9317   1
   4  -2 -10 190.060 50.8809   8
  -4   2  10 230.513 72.4808   6
   4  -2  -9 2727.67 163.966   8
  -4   2   9 2701.95 156.434   1
  -4   2   9 2597.55 188.292   6
   4  -2  -9 2385.96 154.385   3
  -4   2   9 2440.12 139.918  10
   4  -2  -8 421.889 61.9380   8
   4  -2  -8 367.296 58.6461   3
  -4   2   8 432.076 78.9837   6
  -4   2   8 452.829 61.2725  10
  -4   2   8 491.188 65.7466   1
   4  -2  -7 2425.00 132.011   8
  -4   2   7 2110.48 120.782   1
  -4   2   7 2149.50 156.788   6
   4  -2  -7 2389.53 130.945   3
  -4   2   7 2258.78 132.944  10
   4  -2  -6 821.151 71.7403   8
  -4   2   6 764.708 69.0453   1
  -4   2   6 777.836 77.4935  10
  -4   2   6 741.006 89.7702   6
   4  -2  -6 718.889 65.4735   3
  -4   2   5 987.609 71.5475   1
  -4   2   5 1126.24 99.5922   6
   4  -2  -5 878.746 86.3266   7
  -4   2   5 985.656 56.5770   2
   4  -2  -5 1042.97 74.6202   3
  -4   2   5 1014.37 88.0122  10
  -4   2   4 1004.13 67.1837   1
   4  -2  -4 938.068 88.1736   7
  -4   2   4 971.698 62.1022   2
  -4   2   4 785.149 83.6666   6
   4  -2  -4 1113.67 70.2663   3
  -4   2   4 957.983 84.5114  10
   4  -2  -3 1845.63 116.221   7
  -4   2   3 1903.71 93.0397   2
  -4   2   3 1898.04 89.9034   3
   4  -2  -3 1861.14 89.9492   1
   4  -2  -3 1661.04 60.3715   4
   4  -2  -3 1838.27 84.8659   3
  -4   2   3 1933.81 119.253  10
   4  -2  -2 4679.52 186.529   7
  -4   2   2 4561.09 174.352   6
  -4   2   2 4293.10 158.819   2
  -4   2   2 4496.59 187.531  10
   4  -2  -2 4823.27 149.845   1
  -4   2   2 4179.64 140.143   3
   4  -2  -1 2023.14 118.369   7
  -4   2   1 1889.18 103.369   6
  -4   2   1 1911.50 106.809   2
  -4   2   1 1945.96 85.4252   3
   4  -2  -1 2027.29 93.4253   1
  -4   2   1 2018.09 121.849  10
   4  -2   0 2314.92 128.881   7
  -4   2   0 2294.24 111.253   6
  -4   2   0 2348.18 126.449   2
  -4   2   0 2474.93 98.6251   3
   4  -2   0 2299.35 107.493   1
   4  -2   1 8516.94 270.605   7
  -4   2  -1 7957.99 228.703   6
  -4   2  -1 8608.98 268.486   2
   4  -2   1 8961.07 249.310   1
  -4   2  -1 8246.11 221.060   3
   4  -2   2 23689.3 563.935   7
  -4   2  -2 24494.6 502.792   6
  -4   2  -2 24689.8 565.338   2
   4  -2   2 24724.9 534.363   1
  -4   2  -2 24562.0 505.728   3
   4  -2   3 7386.06 271.613   7
   4  -2   3 7361.93 248.645   1
  -4   2  -3 7996.47 272.863   2
  -4   2  -3 7316.75 228.671   3
   4  -2   4 1081.62 105.336   7
   4  -2   4 1296.34 101.470   1
  -4   2  -4 1105.90 103.155   2
  -4   2  -4 1075.52 90.8745   3
  -4   2  -5 625.094 72.4476   3
   4  -2   5 517.805 83.8239   7
   4  -2   5 634.073 78.0165   1
  -4   2  -5 503.985 70.5547   2
  -4   2  -6 56.2678 37.3878   3
   4  -2   6 14.7547 48.5664   7
   4  -2   6-16.1124 37.2088   1
  -4   2  -6-38.8609 50.9189   2
   4  -2   7 5402.60 253.595   1
  -4   2  -7 5270.38 250.934   2
   4  -2   7 5085.99 222.360   5
  -4   2  -7 5345.18 239.976   3
   4  -2   8 6164.55 310.591   7
   4  -2   8 6474.58 294.192   1
   4  -2   8 5539.63 241.547   5
  -4   2  -8 6271.74 273.686   3
   4  -2   9 4547.89 268.476   7
   4  -2   9 4575.13 258.726   1
  -4   2  -9 4813.88 248.701   2
  -4   2  -9 4507.63 243.646   3
   4  -2  10 5189.15 298.108   7
   4  -2  10 5014.17 282.665   1
  -4   2 -10 5121.76 267.009   2
  -4   2 -10 4493.00 260.402   3
   4  -2  11 2849.85 236.011   7
   4  -2  11 2893.05 223.374   1
  -4   2 -11 3095.72 222.232   3
  -4   2 -12 429.373 93.9736   3
   4  -2  12 500.154 123.515   7
   4  -2  12 495.238 98.2933   1
  -4   2 -12 501.122 103.629   2
  -4   2 -13 255.330 78.4763   3
   4  -2  13 432.226 103.440   1
  -4   2 -13 222.732 74.8864   2
   4  -2  14-7.71282 64.6966   1
  -4   1  17 962.580 159.821   6
  -4   1  16 535.599 128.290   6
  -4   1  15 236.979 79.5906   1
  -4   1  15 314.218 98.8797   6
   4  -1 -15 256.855 75.2140   3
  -4   1  14 85.4560 53.8938   1
  -4   1  14 70.3634 77.3157   6
   4  -1 -14 63.8416 60.3863   3
   4  -1 -13 927.846 117.019   3
  -4   1  13 1015.24 118.326   1
  -4   1  13 980.528 141.128   6
  -4   1  12 4772.71 237.472   1
  -4   1  12 4646.66 280.893   6
   4  -1 -12 4816.06 243.865   3
  -4   1  11 9064.13 323.888   1
  -4   1  11 8850.24 389.474   6
   4  -1 -11 9408.21 336.649   3
   4  -1 -11 9048.02 322.649   9
  -4   1  10 9463.38 316.087   1
  -4   1  10 10005.5 391.927   6
   4  -1 -10 9703.16 329.412   3
  -4   1   9 10015.0 307.938   1
  -4   1   9 9760.38 376.591   6
   4  -1  -9 10014.8 317.240   3
  -4   1   9 9938.24 293.831  10
  -4   1   8 4055.90 169.519   1
   4  -1  -8 4041.66 171.564   8
  -4   1   8 4182.45 222.919   6
   4  -1  -8 4058.44 173.492   3
  -4   1   8 3915.32 168.272  10
   4  -1  -7 292.462 42.5494   8
  -4   1   7 19.4667 19.8055   2
  -4   1   7 283.077 49.4151  10
  -4   1   7 346.350 71.0214   6
  -4   1   7 191.208 34.5066   1
   4  -1  -7 299.480 46.6908   3
   4  -1  -6 650.325 56.2653   8
  -4   1   6 571.189 54.1155   1
  -4   1   6 553.617 47.1861   2
  -4   1   6 600.057 79.5623   6
  -4   1   6 732.193 71.5334  10
   4  -1  -6 743.105 60.5105   3
   4  -1  -5 5420.29 159.069   8
  -4   1   5 5361.28 157.082   1
   4  -1  -5 5147.73 208.874   7
  -4   1   5 5518.53 166.247   2
  -4   1   5 5412.61 224.098   6
  -4   1   5 5610.49 206.562  10
   4  -1  -5 6171.41 171.298   3
  -4   1   4 4072.11 117.821   1
   4  -1  -4 4008.65 171.358   7
  -4   1   4 4032.41 141.586   2
  -4   1   4 3710.24 178.042   6
   4  -1  -4 3747.03 117.921   3
  -4   1   4 3662.56 114.400   3
   4  -1  -3 15157.8 379.436   7
  -4   1   3 14540.0 385.159   6
  -4   1   3 14468.4 346.903   2
  -4   1   3 14848.3 283.815   3
  -4   1   3 15010.3 292.441   3
   4  -1  -2 11253.7 310.807   7
  -4   1   2 11378.0 314.007   6
  -4   1   2 11629.9 298.567   2
   4  -1  -2 10721.5 235.155   1
  -4   1   2 11144.8 214.886   3
  -4   1   2 11087.3 220.323   3
   4  -1  -1 2515.37 130.540   7
  -4   1   1 2584.54 127.833   6
  -4   1   1 2739.12 132.634   2
   4  -1  -1 2756.85 98.3992   1
   4  -1  -1 2528.02 81.5092   3
  -4   1   1 2741.31 78.4665   3
  -4   1   1 2514.32 77.8430   3
   4  -1   0 5937.06 208.689   7
  -4   1   0 6524.08 210.054   6
  -4   1   0 6164.01 220.647   2
   4  -1   0 5914.79 175.466   1
  -4   1   0 6021.50 153.141   3
   4  -1   0 5999.95 159.776   3
   4  -1   1 1569.79 107.409   7
  -4   1  -1 1697.42 102.550   6
  -4   1  -1 1431.92 112.136   2
   4  -1   1 1704.71 91.5986   1
  -4   1  -1 1682.46 78.9972   3
   4  -1   2 2385.71 138.497   7
   4  -1   2 2630.41 126.321   1
  -4   1  -2 2659.00 113.262   3
  -4   1  -3-13.2391 24.0808   3
   4  -1   3-8.39496 40.6303   7
   4  -1   3 46.7115 31.7435   1
  -4   1  -3 34.4817 42.7454   2
  -4   1  -4 30.6328 31.0862   3
   4  -1   4 72.7353 44.8610   7
   4  -1   4 41.8283 33.4301   1
  -4   1  -4 31.9682 41.8601   2
   4  -1   5 1872.67 144.600   7
   4  -1   5 1924.00 131.877   1
  -4   1  -5 1911.55 122.741   3
   4  -1   6 2865.91 184.900   7
   4  -1   6 2905.97 173.493   1
  -4   1  -6 2918.90 178.276   2
   4  -1   6 2674.08 159.383   5
  -4   1  -6 2962.58 165.771   3
  -4   1  -7 211.786 53.4733   3
   4  -1   7 155.367 54.2479   7
   4  -1   7 263.313 71.0865   1
   4  -1   7 109.231 45.2279   5
  -4   1  -7 231.781 61.6968   2
   4  -1   8 1243.79 136.358   7
   4  -1   8 1332.12 133.142   1
  -4   1  -8 1360.45 128.820   2
   4  -1   8 1300.74 114.506   5
  -4   1  -8 1254.71 121.857   3
  -4   1  -9 526.231 90.0614   3
   4  -1   9 449.745 95.8149   7
   4  -1   9 480.771 91.7059   1
  -4   1  -9 369.531 77.6611   2
  -4   1 -10 219.345 70.8969   3
   4  -1  10 53.3139 53.4323   7
   4  -1  10-3.36126 52.8382   1
  -4   1 -10 112.936 64.6234   2
  -4   1 -11 421.427 87.7616   3
   4  -1  11 259.389 98.4364   7
   4  -1  11 354.820 89.2533   1
  -4   1 -11 131.977 65.3579   2
  -4   1 -12 849.627 131.658   3
   4  -1  12 731.425 130.891   7
   4  -1  12 1033.61 147.705   1
  -4   1 -12 936.237 134.653   2
   4  -1  13 1160.83 160.933   1
   4  -1  14 2015.30 219.135   1
  -4   0  17-14.3694 66.4231   6
   4   0 -16 14.7207 49.9622   3
  -4   0  16 89.2011 74.7158   6
   4   0 -15 82.3551 48.9071   3
  -4   0  15 137.312 78.6341   6
   4   0 -14 265.888 74.7666   3
  -4   0  14 281.055 88.7130   6
   4   0 -13 969.171 112.738   3
  -4   0  13 808.058 101.046   1
  -4   0  13 932.622 134.916   6
  -4   0  12 1360.84 120.100   1
  -4   0  12 1386.68 153.233   6
   4   0 -12 1468.61 126.591   3
  -4   0  11 1145.22 101.587   1
   4   0 -11 1170.94 111.865   9
  -4   0  11 1127.13 129.557   6
   4   0 -11 1038.69 104.443   3
   4   0 -10 301.423 58.0511   9
  -4   0  10 290.358 48.6948   1
   4   0 -10 295.196 57.6935   3
  -4   0  10 376.809 82.7719   6
   4   0  -9 618.448 68.0000   3
  -4   0   9 520.431 62.2161   1
  -4   0   9 549.269 89.4891   6
  -4   0   8 264.872 72.8544   6
  -4   0   8 245.622 38.8371   1
   4   0  -8 293.368 45.7601   3
  -4   0   7 9319.34 339.085   6
  -4   0   7 9853.66 242.866   1
   4   0  -7 9174.29 196.741   4
   4   0  -7 10221.5 262.840   3
  -4   0   6 16857.0 338.108   1
  -4   0   6 16303.0 462.866   6
   4   0  -6 16773.0 356.433   3
   4   0  -5 19473.9 458.437   7
  -4   0   5 19056.3 348.592   1
  -4   0   5 18285.2 415.846   2
  -4   0   5 19599.5 498.157   6
   4   0  -5 18925.0 366.884   3
  -4   0   5 19313.5 368.622   3
  -4   0   4 10038.9 197.524   3
   4   0  -4 9428.26 280.308   7
  -4   0   4 9793.29 273.048   2
  -4   0   4 10776.2 324.168   6
   4   0  -4 10691.1 198.293   3
  -4   0   4 9720.53 193.863   3
   4   0  -3 3405.70 148.230   7
  -4   0   3 3835.22 175.997   6
  -4   0   3 3622.06 150.755   2
  -4   0   2 2979.96 148.450   6
   4   0  -2 2779.03 126.598   7
  -4   0   2 2839.74 138.512   2
   4   0  -2 2546.92 70.0236   1
   4   0  -1 4319.04 162.736   7
  -4   0   1 4016.71 175.473   6
  -4   0   1 4461.08 179.814   2
   4   0   0 2427.52 121.684   7
  -4   0   0 2501.52 134.038   6
  -4   0   0 2504.61 137.473   2
   4   0   0 2604.46 101.057   1
  -4   0   0 2433.45 80.2377   3
   4   0   0 2516.73 86.1029   3
   4   0   1 14324.0 368.444   7
  -4   0  -1 14163.7 380.874   6
   4   0   1 14553.6 337.566   1
  -4   0  -1 14621.9 394.887   2
  -4   0  -1 14512.2 308.261   3
   4   0   2 12080.5 339.086   7
   4   0   2 11728.8 312.618   1
  -4   0  -2 11766.2 362.521   2
   4   0   2 11889.4 358.467   5
  -4   0  -2 11972.9 289.598   3
   4   0   3 6009.63 238.106   7
  -4   0  -3 6065.46 247.746   2
   4   0   3 6139.99 245.639   5
   4   0   3 6175.80 219.840   1
  -4   0  -3 6145.83 203.913   3
   4   0   4 5346.08 233.887   7
   4   0   4 5593.25 220.570   1
   4   0   4 5287.04 238.651   5
  -4   0  -4 5590.31 206.352   3
  -4   0  -5 48.8738 35.4088   3
   4   0   5 109.986 46.5690   7
   4   0   5 90.4534 44.2578   1
   4   0   5 26.8667 42.6533   5
  -4   0  -5 34.6946 49.1952   2
   4   0   6 1537.54 135.161   7
   4   0   6 1551.56 130.096   1
  -4   0  -6 1545.23 128.397   2
   4   0   6 1459.26 126.115   5
  -4   0  -6 1424.49 115.817   3
  -4   0  -7 141.789 46.7801   3
   4   0   7 131.552 55.2454   7
   4   0   7 129.746 44.8239   1
   4   0   7 107.518 47.2115   5
  -4   0  -7 153.460 63.8300   2
  -4   0  -8 185.543 57.7767   3
   4   0   8 224.821 72.7060   7
   4   0   8 135.714 45.8367   1
   4   0   8 130.411 52.3910   5
  -4   0  -8 140.249 52.7592   2
  -4   0  -9 79.9123 44.7532   3
   4   0   9-39.4963 47.2869   7
   4   0   9 54.2585 54.0079   1
  -4   0  -9 16.8063 40.8841   2
  -4   0 -10 15.3020 45.0884   3
   4   0  10 36.3514 51.6126   7
   4   0  10 73.0380 63.3701   1
  -4   0 -10-6.12599 38.9582   2
  -4   0 -11-5.21957 44.2010   3
   4   0  11-114.034 77.3763   7
   4   0  11-57.2085 60.6318   1
  -4   0 -11-24.4852 54.9228   2
   4   0  12 11.1899 55.6885   1
  -4   0 -12 130.183 62.6707   3
   4   0  13 111.076 60.1319   1
  -4  -1  18 1457.66 193.358   6
  -4  -1  17 887.615 151.321   6
   4   1 -16 493.978 93.6183   3
  -4  -1  16 470.179 110.551   6
   4   1 -15 160.612 63.4330   3
  -4  -1  15 85.4112 71.4699   6
   4   1 -14 210.367 72.5791   3
  -4  -1  14 166.325 73.1244   6
   4   1 -13 47.8079 47.0315   3
  -4  -1  13 79.7352 66.6343   6
   4   1 -12 806.614 98.3254   9
  -4  -1  12 842.490 119.069   6
   4   1 -12 657.432 87.6257   3
   4   1 -11 613.896 85.5057   9
   4   1 -11 764.052 86.1169   3
  -4  -1  11 628.278 105.444   6
   4   1 -10-29.7466 35.4255   9
   4   1 -10 105.608 34.8168   3
  -4  -1  10 52.8689 52.2634   6
  -4  -1  10 54.1701 28.4920   1
   4   1 -10 124.379 30.1996   5
  -4  -1   9 1085.44 78.2899   1
  -4  -1   9 1052.15 115.101   6
   4   1  -9 1111.45 88.3405   5
   4   1  -9 1054.93 85.5061   3
   4   1  -9 1037.30 103.480   9
   4   1  -8 767.973 92.7945   9
  -4  -1   8 747.317 56.7922   1
  -4  -1   8 696.061 93.7853   6
   4   1  -8 605.251 69.7413   5
   4   1  -8 745.034 40.8853   4
   4   1  -8 759.230 66.5459   3
  -4  -1   7 2616.29 129.123   2
  -4  -1   7 2772.58 97.7007   1
  -4  -1   7 2779.99 177.512   6
   4   1  -7 2734.45 141.949   5
   4   1  -7 2812.16 113.923   3
   4   1  -7 3029.84 173.783   9
  -4  -1   6 1254.78 90.1272   2
  -4  -1   6 1557.71 124.027   6
  -4  -1   6 1279.73 48.6958   1
   4   1  -6 1457.14 104.383   5
   4   1  -6 1447.59 66.5553   3
   4   1  -5 484.459 61.5915   7
  -4  -1   5 548.884 32.2945   3
  -4  -1   5 526.929 74.0967   6
  -4  -1   5 676.591 67.3078   2
   4   1  -5 468.880 64.6125   5
   4   1  -5 509.343 30.3220   3
  -4  -1   4 1768.55 125.235   6
  -4  -1   4 1622.56 105.940   2
   4   1  -4 1473.15 113.951   5
   4   1  -3 3068.19 129.140   7
  -4  -1   3 3455.43 156.667   2
  -4  -1   3 2969.72 160.241   6
   4   1  -3 3109.66 162.362   5
   4   1  -2 3741.90 142.695   7
  -4  -1   2 3950.36 185.858   6
  -4  -1   2 3846.89 172.927   2
   4   1  -2 4008.14 187.513   5
   4   1  -1 16457.5 364.559   7
  -4  -1   1 15889.4 423.803   6
  -4  -1   1 17336.1 425.056   2
   4   1  -1 16664.5 312.990   1
   4   1  -1 15964.2 278.250   3
   4   1  -1 15672.8 432.344   5
  -4  -1   1 14468.5 269.874   3
   4   1   0 15776.2 338.346   1
  -4  -1   0 16736.1 432.141   6
  -4  -1   0 15474.4 419.895   2
   4   1   0 15065.4 434.565   5
   4   1   0 15450.0 369.582   7
  -4  -1   0 15764.6 309.147   3
   4   1   0 15309.2 312.103   3
   4   1   1 9692.62 275.836   7
   4   1   1 9322.74 254.513   1
  -4  -1  -1 9868.42 318.482   2
   4   1   1 9483.73 324.467   5
  -4  -1  -1 9051.78 230.308   3
   4   1   2 7697.50 249.651   7
   4   1   2 7437.78 235.977   1
  -4  -1  -2 7463.64 278.527   2
   4   1   2 6482.80 275.564   5
  -4  -1  -2 7576.50 217.615   3
   4   1   2 7152.75 245.919   9
   4   1   3 213.567 44.2326   9
   4   1   3 288.090 59.4110   7
  -4  -1  -3 206.567 39.1754   3
   4   1   3 207.251 48.4433   1
  -4  -1  -3 266.609 62.3342   2
   4   1   3 206.862 56.9422   5
   4   1   4 177.067 36.1670   9
  -4  -1  -4 190.119 43.7127   3
   4   1   4 358.090 67.0114   7
   4   1   4 205.404 53.4387   1
  -4  -1  -4 165.526 54.8169   2
   4   1   4 175.446 52.3855   5
   4   1   5 4306.85 212.425   7
   4   1   5 4243.80 210.690   1
  -4  -1  -5 4153.43 225.183   2
   4   1   5 4213.27 224.027   5
  -4  -1  -5 4281.29 197.455   3
   4   1   5 4324.21 166.325   9
   4   1   6 6603.70 287.400   7
   4   1   6 7009.09 292.765   1
  -4  -1  -6 6563.02 287.122   2
   4   1   6 6531.61 295.708   5
  -4  -1  -6 7204.79 277.139   3
   4   1   7 4589.42 247.511   7
   4   1   7 4807.68 252.727   1
  -4  -1  -7 4998.14 253.379   2
   4   1   7 4204.23 237.322   5
  -4  -1  -7 4597.81 230.614   3
   4   1   8 3650.35 228.714   7
   4   1   8 3365.19 221.065   1
  -4  -1  -8 3886.25 232.032   2
   4   1   8 3237.53 213.433   5
  -4  -1  -8 3394.24 209.871   3
   4   1   9 1722.15 166.863   7
   4   1   9 1500.11 155.443   1
  -4  -1  -9 1424.30 146.866   2
  -4  -1  -9 1370.95 140.816   3
   4   1  10 1419.32 162.710   7
  -4  -1 -10 1343.64 145.027   2
   4   1  10 1224.90 151.641   1
  -4  -1 -10 1304.01 140.621   3
  -4  -1 -11-26.6945 61.5611   3
   4   1  11 142.939 75.0174   1
  -4  -1 -11 77.9364 59.3767   2
   4   1  12-13.1639 62.0245   1
   4   1  13-14.4414 64.0884   1
  -4  -2  18 252.735 92.7806   6
  -4  -2  17 116.080 94.2359   6
  -4  -2  16 33.3357 62.6880   6
  -4  -2  15 809.865 134.466   6
   4   2 -15 923.732 113.403   3
  -4  -2  14 3133.74 242.424   6
   4   2 -14 3271.12 205.740   3
  -4  -2  13 4197.67 267.429   6
   4   2 -13 4328.58 223.509   3
   4   2 -13 4176.13 233.549   9
  -4  -2  12 3971.98 250.148   6
   4   2 -12 3929.01 201.843   3
   4   2 -12 3937.14 224.437   9
  -4  -2  11 2200.85 187.158   6
   4   2 -11 2347.35 142.503   3
   4   2 -11 2140.55 161.595   9
   4   2 -10 524.220 81.7861   9
   4   2 -10 578.057 66.0984   3
  -4  -2  10 611.711 97.4039   6
   4   2 -10 553.562 64.4524   5
   4   2 -10 567.185 53.8463   4
  -4  -2   9 8529.91 345.203   6
   4   2  -9 8854.92 279.449   5
   4   2  -9 8226.50 206.614   4
   4   2  -9 8933.05 261.691   3
   4   2  -9 9063.12 336.511   9
  -4  -2   8 2687.75 177.664   6
   4   2  -8 2764.80 148.862   5
   4   2  -8 2634.12 118.948   3
   4   2  -8 2718.78 173.180   9
  -4  -2   7 2635.70 146.138   2
  -4  -2   7 2756.02 176.922   6
   4   2  -7 2695.82 151.722   5
   4   2  -7 2767.27 108.280   3
   4   2  -7 2687.52 170.352   9
  -4  -2   6 3003.00 156.623   2
  -4  -2   6 3162.72 181.566   6
   4   2  -6 3114.27 165.242   5
   4   2  -6 3043.21 97.2767   3
   4   2  -6 3068.43 178.177   9
  -4  -2   5 1144.33 110.532   6
  -4  -2   5 1186.78 99.0805   2
   4   2  -5 1194.56 102.136   5
   4   2  -5 1022.25 38.5352   3
   4   2  -5 872.707 37.2311   3
  -4  -2   5 1083.97 40.7898   3
   4   2  -5 1040.97 104.066   9
   4   2  -4 12.8077 31.7187   9
   4   2  -4 11.0299 20.7278   7
  -4  -2   4 30.9074 36.0530   6
  -4  -2   4-9.47035 30.5844   2
   4   2  -4 20.5002 31.5839   5
   4   2  -3 26.8521 31.6988   9
   4   2  -3-1.53243 17.5285   7
  -4  -2   3 30.5592 42.8800   6
  -4  -2   3 1.96092 34.0954   2
   4   2  -3 96.3598 50.6802   5
   4   2  -2 29.3063 33.3616   9
   4   2  -2 21.3435 17.6436   7
   4   2  -2 14.0104 10.3476   1
  -4  -2   2 3.25202 30.7713   6
  -4  -2   2 9.02925 39.7687   2
   4   2  -2 11.6901 38.9621   5
   4   2  -1 28.0065 11.5621   3
   4   2  -1 37.8855 17.5610   1
   4   2  -1-5.47912 28.2157   9
   4   2  -1 59.8823 25.8697   7
   4   2  -1 45.9851 15.3951   3
  -4  -2   1 101.305 45.2141   6
  -4  -2   1 12.1393 37.4917   2
   4   2  -1 97.3473 49.5440   5
  -4  -2   1 34.8288 13.1811   3
   4   2   0 14.0460 31.7179   9
   4   2   0 53.2234 23.7298   1
   4   2   0 14.5200 22.2973   7
  -4  -2   0 85.9272 45.2007   6
  -4  -2   0 16.4199 36.6353   2
   4   2   0 48.2817 49.6872   5
  -4  -2   0 16.9491 14.2548   3
   4   2   1 1803.25 102.234   7
   4   2   1 1802.79 102.501   1
  -4  -2  -1 1968.56 139.812   2
   4   2   1 1713.68 139.297   5
  -4  -2  -1 1761.34 90.6753   3
   4   2   1 1849.16 122.524   9
   4   2   2 2381.85 126.707   7
   4   2   2 2273.32 127.139   1
  -4  -2  -2 2427.80 163.563   2
   4   2   2 2300.83 165.048   5
  -4  -2  -2 2224.64 114.832   3
   4   2   2 2318.11 135.086   9
   4   2   3 2869.80 148.921   7
   4   2   3 2897.78 154.540   1
  -4  -2  -3 2816.17 176.777   2
   4   2   3 2778.61 187.174   5
  -4  -2  -3 2754.99 140.318   3
   4   2   3 2807.58 148.065   9
   4   2   4 3837.18 187.576   7
   4   2   4 3767.37 193.175   1
  -4  -2  -4 3705.72 206.767   2
   4   2   4 3737.87 221.098   5
  -4  -2  -4 3928.75 182.250   3
   4   2   4 3563.27 163.617   9
   4   2   5 5063.90 230.302   7
   4   2   5 4842.89 234.823   1
  -4  -2  -5 4904.55 245.095   2
   4   2   5 4793.54 256.035   5
  -4  -2  -5 4774.32 215.494   3
   4   2   6 4772.80 235.976   7
   4   2   6 4860.67 248.287   1
  -4  -2  -6 5068.95 250.831   2
   4   2   6 4083.73 245.073   5
  -4  -2  -6 4672.31 228.721   3
  -4  -2  -7 146.460 57.9588   3
   4   2   7 55.7375 39.8201   7
   4   2   7 117.170 55.5365   1
  -4  -2  -7 111.786 51.7884   2
   4   2   7 80.5744 63.5723   5
  -4  -2  -8 91.4056 37.6634   3
   4   2   8 132.949 51.4643   1
  -4  -2  -8 229.919 67.7466   2
  -4  -2  -9 523.576 92.3016   3
   4   2   9 576.047 100.871   1
  -4  -2  -9 486.165 96.5426   2
  -4  -2 -10 1392.71 155.603   3
   4   2  10 1794.93 184.148   1
  -4  -2 -10 1652.48 165.421   2
  -4  -2 -11 1225.04 156.700   3
   4   2  11 1389.86 165.746   1
   4   2  12 1735.29 200.003   1
  -4  -3  18 42.2328 58.9292   6
  -4  -3  17 48.5158 52.5156   6
  -4  -3  16 595.025 118.366   6
  -4  -3  15 993.270 144.861   6
  -4  -3  14 1539.99 170.931   6
   4   3 -13 807.099 110.096   9
  -4  -3  13 811.816 122.938   6
   4   3 -12 764.470 108.263   9
   4   3 -12 585.977 79.6153   3
  -4  -3  12 616.837 109.371   6
  -4  -3  11 2204.71 183.932   6
   4   3 -11 2384.65 124.324   4
   4   3 -11 2613.82 149.294   3
   4   3 -11 2534.33 184.820   9
  -4  -3  10 8380.86 350.526   6
   4   3 -10 8097.50 280.725   5
   4   3 -10 7909.43 329.349   9
   4   3 -10 7698.98 218.724   4
   4   3 -10 7657.26 259.831   3
  -4  -3   9 2076.98 167.109   6
   4   3  -9 2288.55 142.839   5
   4   3  -9 2149.17 116.717   3
   4   3  -9 2171.14 168.223   9
  -4  -3   8 11297.5 400.345   6
   4   3  -8 11802.2 363.008   5
   4   3  -8 11115.8 286.133   3
   4   3  -8 11073.3 392.633   9
  -4  -3   7 7125.00 266.667   2
  -4  -3   7 7087.83 298.212   6
   4   3  -7 6971.90 274.293   5
   4   3  -7 7228.86 194.807   3
   4   3  -7 7042.51 297.733   9
   4   3  -6 6232.72 204.033   7
  -4  -3   6 6829.30 263.078   2
  -4  -3   6 6822.79 287.671   6
   4   3  -6 6965.91 271.725   5
   4   3  -6 6621.69 167.355   3
   4   3  -6 7514.51 296.599   9
  -4  -3   5 10852.2 341.334   2
  -4  -3   5 11647.1 373.901   6
   4   3  -5 11075.4 360.892   5
   4   3  -5 10416.5 209.153   3
   4   3  -5 10890.1 366.493   9
   4   3  -4 1763.70 81.5725   7
  -4  -3   4 1904.81 132.124   2
  -4  -3   4 1616.01 130.832   6
   4   3  -4 1788.35 139.848   5
   4   3  -4 1378.64 50.7961   3
   4   3  -4 1706.17 54.2444   3
   4   3  -4 1857.31 141.918   9
   4   3  -3 625.702 82.7138   9
   4   3  -3 654.510 45.6739   7
   4   3  -3 486.281 29.8425   1
  -4  -3   3 613.621 84.3656   6
  -4  -3   3 687.074 85.0804   2
   4   3  -3 615.440 90.2661   5
   4   3  -3 471.827 30.6182   3
   4   3  -3 550.623 32.7724   3
  -4  -3   2 3394.35 192.639   6
   4   3  -2 3016.39 104.383   7
   4   3  -2 3377.47 107.721   1
  -4  -3   2 3215.16 177.742   2
   4   3  -2 2883.66 189.719   5
   4   3  -2 2959.12 96.2817   3
   4   3  -2 3075.49 102.833   3
   4   3  -2 3524.00 189.995   9
   4   3  -1 4270.26 131.760   7
   4   3  -1 4310.65 145.371   1
  -4  -3   1 4340.08 221.663   6
  -4  -3   1 4224.21 208.685   2
   4   3  -1 4182.73 138.383   3
   4   3  -1 4372.91 234.367   5
  -4  -3   1 3860.44 127.657   3
   4   3  -1 4341.57 208.310   9
   4   3   0 4513.55 144.952   7
   4   3   0 4435.67 163.985   1
  -4  -3   0 4721.73 224.844   2
   4   3   0 4309.69 234.826   5
  -4  -3   0 4431.22 150.102   3
   4   3   0 4405.75 208.322   9
   4   3   1 2542.00 157.200   9
   4   3   1 2522.80 113.431   7
   4   3   1 2619.26 134.913   1
  -4  -3  -1 2837.38 175.585   2
   4   3   1 2322.98 178.290   5
  -4  -3  -1 2530.45 118.616   3
   4   3   2 2171.02 113.922   7
   4   3   2 2111.23 129.134   1
  -4  -3  -2 2368.37 165.323   2
   4   3   2 2240.64 180.171   5
  -4  -3  -2 2206.24 120.266   3
   4   3   2 2136.64 138.937   9
   4   3   3 12.1555 30.7621   9
   4   3   3 10.1779 30.2774   1
   4   3   3-1.76001 27.0062   7
  -4  -3  -3 36.4619 49.8622   2
   4   3   3 32.6976 54.6110   5
  -4  -3  -3-6.21018 29.1844   3
   4   3   4 260.177 56.5655   1
   4   3   4 186.467 42.0657   7
  -4  -3  -4 334.671 70.1887   2
   4   3   4 292.889 82.9841   5
  -4  -3  -4 282.594 52.3354   3
  -4  -3  -5 103.426 42.5320   2
   4   3   5 126.609 51.8428   1
   4   3   5 177.994 77.6738   5
  -4  -3  -5 109.035 43.2333   3
   4   3   6-6.76327 37.2566   1
  -4  -3  -6-24.2846 55.0570   2
   4   3   6-76.6353 57.3323   5
  -4  -3  -6 13.1126 37.3597   3
   4   3   7 594.140 101.951   1
  -4  -3  -7 532.772 86.8394   2
   4   3   7 447.605 110.559   5
  -4  -3  -7 414.021 79.4936   3
   4   3   8 492.238 91.2767   1
  -4  -3  -8 582.556 95.4065   2
  -4  -3  -8 419.332 82.6270   3
   4   3   9 510.039 105.359   1
  -4  -3  -9 483.842 93.9159   3
  -4  -3  -9 704.516 114.195   2
   4   3  10 521.698 102.942   1
  -4  -3 -10 341.255 83.6314   3
   4   3  11 173.650 83.9372   1
  -4  -4  18-42.6093 70.5944   6
  -4  -4  17 113.107 70.2157   6
  -4  -4  16 68.4413 60.0548   6
  -4  -4  15 84.4307 64.8851   6
  -4  -4  14 682.979 120.985   6
  -4  -4  13 22.0175 55.2305   6
  -4  -4  12 74.1953 51.9013   6
   4   4 -12 28.4808 41.9387   9
   4   4 -11 1047.55 127.750   9
  -4  -4  11 1354.76 148.998   6
   4   4 -11 1215.62 87.7287   4
  -4  -4  10 951.908 130.238   6
   4   4 -10 1268.92 116.608   5
   4   4 -10 1164.90 133.782   9
  -4  -4   9 2031.47 171.187   6
   4   4  -9 2239.86 152.866   5
   4   4  -9 2314.04 177.053   9
  -4  -4   8 994.675 118.872   6
   4   4  -8 1077.01 109.004   5
   4   4  -8 971.144 115.219   9
   4   4  -7 161.921 61.4957   9
  -4  -4   7 134.307 56.8814   2
   4   4  -7 78.1792 31.2425   7
  -4  -4   7 38.3003 53.7241   6
   4   4  -7 174.228 55.2920   5
   4   4  -6 1060.06 116.054   9
  -4  -4   6 1016.77 113.771   6
  -4  -4   6 1069.20 112.147   2
   4   4  -6 1084.32 113.726   5
  -4  -4   5 1566.56 131.445   2
  -4  -4   5 1520.63 136.635   6
   4   4  -5 1470.54 129.014   5
   4   4  -5 1428.12 69.6680   3
   4   4  -5 1327.74 126.304   9
  -4  -4   4 8354.20 315.895   2
  -4  -4   4 8032.32 323.327   6
   4   4  -4 8234.27 336.284   5
   4   4  -4 8003.43 199.650   3
   4   4  -4 8185.83 327.335   9
  -4  -4   3 7450.32 297.801   2
  -4  -4   3 7522.29 313.978   6
   4   4  -3 7812.72 328.143   5
   4   4  -3 7314.46 196.779   3
   4   4  -3 7818.93 312.485   9
   4   4  -2 12665.5 301.622   1
  -4  -4   2 12965.8 414.366   2
  -4  -4   2 13578.4 438.899   6
   4   4  -2 12406.3 442.462   5
   4   4  -2 12544.9 300.148   3
   4   4  -2 12846.1 418.583   9
   4   4  -1 15455.3 369.988   1
  -4  -4   1 16249.7 475.669   2
   4   4  -1 14918.0 358.619   3
   4   4  -1 15321.9 502.638   5
   4   4  -1 15912.1 472.056   9
  -4  -4   0 2191.07 127.135   8
   4   4   0 2290.28 125.778   1
  -4  -4   0 2424.72 166.380   2
   4   4   0 2377.02 186.429   5
   4   4   0 2298.05 161.213   9
   4   4   1 181.820 40.6705   1
  -4  -4  -1 103.604 54.2858   2
   4   4   1 147.818 54.2005   5
  -4  -4  -1 235.301 43.1153   3
   4   4   2 66.1922 39.6373   1
  -4  -4  -2 135.132 56.3951   2
   4   4   2 104.699 61.2010   5
  -4  -4  -2 70.9789 30.7208   3
   4   4   3 1796.80 134.330   1
  -4  -4  -3 1813.36 149.449   2
   4   4   3 1522.69 164.595   5
  -4  -4  -3 1628.35 120.689   3
   4   4   4 2411.70 168.476   1
  -4  -4  -4 2379.21 179.816   2
   4   4   4 1981.95 188.233   5
  -4  -4  -4 2094.19 145.201   3
  -4  -4  -5 3656.32 228.303   2
   4   4   5 3876.07 226.533   1
   4   4   5 3682.84 265.591   5
  -4  -4  -5 3662.50 207.555   3
   4   4   6 2614.00 197.216   1
  -4  -4  -6 2668.81 196.985   2
   4   4   6 2289.95 221.138   5
  -4  -4  -6 2325.00 170.086   3
   4   4   7 580.303 104.278   1
  -4  -4  -7 730.131 106.584   2
   4   4   7 599.873 133.354   5
   4   4   8 181.673 78.6378   1
  -4  -4  -8 204.209 78.4643   2
   4   4   9 41.3091 58.9396   1
  -4  -4  -9 137.455 69.6013   2
   4   4  10 110.581 60.8633   1
  -4  -5  17 655.915 126.886   6
  -4  -5  16 224.338 75.5929   6
  -4  -5  15 826.101 133.324   6
  -4  -5  14 898.295 137.340   6
  -4  -5  13 427.189 95.5802   6
  -4  -5  12 41.0761 56.1117   6
  -4  -5  11 16.7121 58.6476   6
   4   5 -10 750.752 121.127   9
  -4  -5  10 896.530 123.462   6
   4   5 -10 1065.13 118.232   5
   4   5  -9 202.676 69.2238   9
  -4  -5   9 220.076 62.0005   6
   4   5  -9 157.981 58.2638   5
  -4  -5   8 84.7458 59.1331   6
   4   5  -8 73.7134 49.5730   5
   4   5  -8 91.3580 58.8919   9
  -4  -5   7 130.632 56.4781   6
   4   5  -7 107.702 60.9934   9
   4   5  -7 53.7902 49.5223   5
  -4  -5   6 610.450 92.6389   6
  -4  -5   6 514.982 83.6789   2
   4   5  -6 466.338 83.5437   5
   4   5  -6 687.790 106.506   9
   4   5  -5 419.710 82.9647   9
  -4  -5   5 488.964 88.4371   6
  -4  -5   5 484.129 91.0527   2
   4   5  -5 406.749 83.2814   5
   4   5  -4 579.859 93.0431   9
  -4  -5   4 558.237 91.3536   6
  -4  -5   4 384.917 82.7810   2
   4   5  -4 532.112 101.007   5
   4   5  -3 176.873 60.2009   9
  -4  -5   3 227.861 70.5186   6
  -4  -5   3 214.832 72.2895   2
   4   5  -3 150.944 64.1267   5
  -4  -5   2 11.3218 54.5590   6
  -4  -5   2 166.772 61.0303   2
   4   5  -2-26.4626 60.5150   5
  -4  -5   1 709.817 100.944   2
   4   5  -1 564.109 101.237   5
   4   5   0 5758.79 224.055   1
  -4  -5   0 5805.13 283.273   2
   4   5   0 5382.55 308.237   5
  -4  -5  -1 5198.17 236.006   8
   4   5   1 5261.62 227.134   1
  -4  -5  -1 5693.50 278.460   2
   4   5   1 4798.69 298.167   5
  -4  -5  -2 5640.76 262.444   8
   4   5   2 5681.75 253.412   1
  -4  -5  -2 6549.50 304.862   2
   4   5   2 6152.40 340.938   5
  -4  -5  -3 4698.31 262.683   2
   4   5   3 4823.15 311.249   5
   4   5   3 4957.15 245.464   1
   4   5   4 908.508 108.287   1
  -4  -5  -4 970.821 126.056   2
   4   5   4 782.892 137.612   5
   4   5   5 1025.50 121.319   1
  -4  -5  -5 860.733 128.371   2
   4   5   5 875.120 152.511   5
   4   5   6 17.2223 45.4859   1
   4   5   6-91.3454 76.3498   5
   4   5   7 344.005 85.0832   1
  -4  -5  -7 361.906 89.9723   2
   4   5   8 821.811 132.398   1
  -4  -5  -8 852.415 136.941   2
   4   5   9 1173.70 168.472   1
  -4  -6  17 785.560 140.767   6
  -4  -6  16 922.289 151.090   6
  -4  -6  15 96.2505 55.9972   6
  -4  -6  14-3.59469 47.0308   6
  -4  -6  13 435.615 103.342   6
  -4  -6  12 513.225 96.5649   6
  -4  -6  11 2489.20 201.874   6
  -4  -6  10 3952.84 252.682   6
   4   6 -10 4041.52 250.533   5
  -4  -6   9 3651.38 238.756   6
   4   6  -9 4063.80 248.659   5
  -4  -6   8 3350.14 220.993   6
   4   6  -8 3272.80 226.858   5
  -4  -6   7 21.9216 53.8925   6
   4   6  -7-13.7485 45.5365   5
  -4  -6   6 673.444 99.5339   2
  -4  -6   6 799.373 114.407   6
   4   6  -6 569.346 97.3915   5
  -4  -6   5 38.9969 55.1924   6
  -4  -6   5-26.4383 47.7366   2
   4   6  -5 117.767 73.0897   5
  -4  -6   4 318.953 84.8997   6
  -4  -6   4 374.013 84.8854   2
   4   6  -4 383.854 100.706   5
  -4  -6   3 534.375 104.554   6
  -4  -6   3 462.623 96.8086   2
   4   6  -3 495.450 117.287   5
  -4  -6   2 406.551 88.5061   2
   4   6  -2 318.370 75.0112   5
  -4  -6   1 13.4617 63.4078   2
   4   6  -1 75.3559 75.6091   5
  -4  -6   0 66.1194 52.6962   2
   4   6   0 56.3068 84.4587   5
  -4  -6  -1 291.529 72.4743   2
   4   6   1 355.568 90.3003   5
   4   6   2 53.0852 44.5271   1
  -4  -6  -2 74.9621 60.2614   2
   4   6   2 209.557 90.9443   5
   4   6   3-28.3270 40.2282   1
  -4  -6  -3 80.5048 72.3904   2
   4   6   3 52.9417 66.7134   5
   4   6   4 489.856 93.4701   1
  -4  -6  -4 341.107 84.1420   2
   4   6   4 298.891 110.926   5
   4   6   5 729.430 111.665   1
  -4  -6  -5 616.833 104.142   2
   4   6   5 723.209 156.148   5
   4   6   6 968.249 130.915   1
  -4  -6  -6 1016.52 150.889   2
   4   6   6 684.298 170.757   5
   4   6   7 1136.22 150.251   1
  -4  -6  -7 1454.27 168.857   2
   4   6   8 57.9440 64.1433   1
  -4  -7  17-11.0171 75.2583   6
  -4  -7  16 148.592 77.8856   6
  -4  -7  15 63.1402 63.7261   6
  -4  -7  14 222.501 83.7153   6
  -4  -7  13 1532.87 168.241   6
  -4  -7  12 696.730 119.308   6
  -4  -7  11 206.128 69.8058   6
  -4  -7  10 462.894 95.2316   6
   4   7 -10 520.128 108.774   5
  -4  -7   9 195.378 67.5473   6
   4   7  -9 215.848 85.4248   5
  -4  -7   8-47.1268 52.0490   6
   4   7  -8 102.520 82.4639   5
  -4  -7   7 3363.62 233.932   6
   4   7  -7 3529.29 262.768   5
  -4  -7   6 5062.43 293.919   6
   4   7  -6 5273.88 322.157   5
  -4  -7   5 3807.27 244.831   2
  -4  -7   5 3410.07 238.263   6
   4   7  -5 3768.87 277.397   5
  -4  -7   4 2953.19 221.425   2
   4   7  -4 3234.84 259.006   5
  -4  -7   3 1204.24 143.129   2
   4   7  -3 1126.97 162.575   5
  -4  -7   2 228.465 79.1348   2
   4   7  -2 375.464 107.391   5
  -4  -7   1 195.241 71.5502   2
   4   7  -1 337.939 125.632   5
  -4  -7   0 223.864 89.5885   2
   4   7   0 221.922 111.109   5
  -4  -7  -1 1370.68 166.837   2
   4   7   1 1367.33 194.690   5
  -4  -7  -2 991.477 136.419   2
   4   7   2 825.261 157.376   5
  -4  -7  -3 822.914 147.088   2
   4   7   3 765.695 152.656   5
  -4  -7  -4 359.228 99.1746   2
  -4  -7  -5 78.3545 73.5080   2
  -4  -7  -6 94.7241 64.9795   2
  -4  -8  16 251.319 88.4765   6
  -4  -8  15-113.905 75.1737   6
  -4  -8  14 344.463 86.3743   6
  -4  -8  13-24.6707 63.7156   6
  -4  -8  12 67.5307 62.6234   6
  -4  -8  11 343.694 90.2979   6
  -4  -8  10 100.564 64.6016   6
   4   8 -10-66.7443 68.3507   5
  -4  -8   9 1086.03 147.087   6
   4   8  -9 935.609 151.264   5
  -4  -8   8 33.5009 58.4908   6
   4   8  -8 180.930 94.0313   5
  -4  -8   7 647.744 114.401   6
   4   8  -7 742.041 140.007   5
  -4  -8   6 1419.07 167.379   6
   4   8  -6 1436.42 189.668   5
   4   8  -5 14.9189 74.0823   5
   4   8  -4 202.112 98.4046   5
  -4  -8   3 1124.52 147.845   2
   4   8  -3 1114.55 173.785   5
  -4  -8   2 1784.44 191.101   2
   4   8  -2 1919.35 226.313   5
  -4  -8   1 1649.30 176.135   2
   4   8  -1 1682.91 209.104   5
  -4  -8   0 2476.73 220.290   2
   4   8   0 2312.44 254.449   5
  -4  -8  -1 930.005 136.086   2
  -4  -8  -2 868.469 152.627   2
  -4  -8  -3 1147.74 162.001   2
  -4  -8  -4 96.4049 74.8836   2
  -4  -8  -5 94.8036 74.2107   2
  -4  -9  15 201.355 73.6154   6
  -4  -9  14-37.3860 56.0700   6
  -4  -9  13 1062.70 151.802   6
  -4  -9  12 798.706 127.538   6
  -4  -9  11 26.8498 58.9135   6
  -4  -9  10-76.5328 67.6180   6
  -4  -9   9 540.520 120.471   6
   4   9  -9 435.511 107.204   5
  -4  -9   8 192.163 72.3303   6
   4   9  -8-118.010 96.2100   5
  -4  -9   7 523.645 108.110   6
   4   9  -7 290.478 108.420   5
   4   9  -6 19.9107 82.3206   5
   4   9  -5 94.0546 82.3503   5
   4   9  -4 75.0875 89.8205   5
  -4  -9   1 117.455 82.4591   2
  -4  -9   0 223.661 88.6012   2
  -4  -9  -1 370.573 113.077   2
  -4  -9  -2 184.158 73.5022   2
  -4 -10  13 409.989 105.924   6
  -4 -10  12-62.8695 58.2649   6
  -4 -10  11 170.253 87.2618   6
  -4 -10  10 221.421 81.0923   6
  -4 -10   9 1732.93 195.547   6
   5 -14   0 739.143 143.579   1
   5 -14   1 394.245 111.669   1
   5 -14   2 495.222 130.399   1
  -5  14  -2 237.442 114.821   2
  -5  14  -3 107.068 76.5073   2
   5 -14   3-44.8809 81.3610   1
   5 -14   4 113.756 110.875   1
  -5  14  -4-132.961 109.502   2
   5 -14   5 316.139 104.812   1
  -5  14  -5 230.941 107.777   2
  -5  14  -6-44.2332 82.8480   2
   5 -14   6-59.1147 80.6278   1
   5 -14   7 0.53747 74.1676   1
  -5  14  -7 222.583 104.219   2
   5 -14   8 83.3093 78.5477   1
  -5  14  -8-61.0516 103.958   2
  -5  14  -9 105.423 117.295   2
  -5  14 -10 50.7103 87.0260   2
   5 -13  -3 515.719 142.222   1
  -5  13   3 602.921 138.558   1
   5 -13  -2 46.6390 83.6484   1
  -5  13   2-23.1188 64.1911   1
   5 -13  -1-17.7838 69.0600   1
   5 -13   0 719.108 135.665   1
  -5  13  -1 449.041 143.295   2
   5 -13   1 1512.78 191.840   1
   5 -13   2 893.156 155.963   1
  -5  13  -2 423.193 100.857   2
   5 -13   3 2455.71 242.737   1
  -5  13  -3 2106.94 227.326  10
   5 -13   4 1188.40 167.887   1
  -5  13  -4 800.345 144.743   2
  -5  13  -4 1087.71 162.208  10
   5 -13   5 495.171 126.336   1
  -5  13  -5 348.483 106.412   2
  -5  13  -5 530.408 126.174  10
  -5  13  -6 340.069 100.786  10
  -5  13  -6 245.973 115.958   2
   5 -13   6 518.517 122.565   1
   5 -13   7 216.349 104.690   1
  -5  13  -7 143.735 76.3096   2
  -5  13  -7 151.911 79.1360  10
   5 -13   8 30.6907 60.3227   1
  -5  13  -8-104.527 109.617   2
   5 -13   9 332.130 102.868   1
  -5  13  -9 289.404 123.884   2
   5 -13  10 113.540 101.876   1
  -5  13 -10 44.7421 92.7176   2
  -5  13 -11 84.6579 90.8202   2
  -5  13 -12 517.405 146.181   2
  -5  12   6 161.694 91.7946   6
   5 -12  -5 208.375 96.2369   1
  -5  12   5-18.8140 70.4065   1
   5 -12  -4 262.813 91.0031   1
  -5  12   4 145.384 61.8204   1
   5 -12  -3 95.0637 66.7060   1
  -5  12   3 76.0119 67.7285   1
   5 -12  -2 314.442 101.898   1
  -5  12   1 313.708 96.3354   3
   5 -12  -1 345.719 87.6721   7
  -5  12   1 340.402 101.085  10
   5 -12  -1 596.918 125.073   1
  -5  12   0 424.585 115.424   3
   5 -12   0 400.916 88.8485   7
   5 -12   0 428.807 99.9324   1
  -5  12   0 495.885 118.374  10
  -5  12  -1 95.3209 66.3823   3
   5 -12   1 155.720 82.2648   1
  -5  12  -1 93.5042 69.1578   2
  -5  12  -1 81.8519 62.9720  10
  -5  12  -2 254.451 102.220   3
   5 -12   2 112.149 63.7189   7
   5 -12   2 301.611 91.7725   1
  -5  12  -2 93.9799 62.9657  10
  -5  12  -2 107.048 73.1880   2
  -5  12  -3 15.0394 55.4109   3
   5 -12   3 34.6768 49.4282   7
  -5  12  -3 21.5402 45.8820  10
   5 -12   3 98.0748 62.6849   1
  -5  12  -3-41.4951 75.2918   2
  -5  12  -4 239.790 82.8964   3
   5 -12   4 306.323 83.8718   7
  -5  12  -4 189.944 93.6224   2
   5 -12   4 344.857 93.4771   1
  -5  12  -4 247.438 80.6661  10
  -5  12  -5 438.969 109.193   3
   5 -12   5 367.858 91.8381   7
   5 -12   5 434.840 106.565   1
  -5  12  -5 245.614 92.4300   2
  -5  12  -5 259.950 83.8492  10
  -5  12  -6 621.494 127.036   3
   5 -12   6 710.530 116.070   7
   5 -12   6 790.496 137.991   1
  -5  12  -6 442.451 105.568   2
  -5  12  -6 639.798 119.190  10
   5 -12   7 1668.97 178.512   7
   5 -12   7 2013.52 214.095   1
  -5  12  -7 1869.84 186.395  10
  -5  12  -7 1932.76 209.477   3
  -5  12  -7 1584.91 207.644   2
  -5  12  -8 818.200 140.767   3
   5 -12   8 1054.76 147.583   7
   5 -12   8 1198.79 166.543   1
  -5  12  -8 1292.04 190.495   2
   5 -12   9 317.434 107.680   7
   5 -12   9 293.661 95.1887   1
  -5  12  -9 336.103 116.518   2
   5 -12  10 962.862 152.196   7
   5 -12  10 1042.00 166.812   1
  -5  12 -10 1086.31 177.689   2
   5 -12  11 46.6806 66.4810   1
  -5  12 -11 28.0046 75.3923   2
   5 -12  12 103.065 75.4179   1
  -5  12 -12 66.3188 113.372   2
  -5  12 -13 143.463 101.830   2
   5 -11  -8 201.006 86.2104   8
  -5  11   8 293.485 110.227   6
   5 -11  -7 527.716 118.217   8
  -5  11   7 571.761 132.670   6
  -5  11   7 402.804 112.320   1
  -5  11   6 2059.30 214.501   1
   5 -11  -6 1872.11 187.040   7
  -5  11   6 1772.72 206.561   6
   5 -11  -6 2281.38 240.036   1
   5 -11  -5 104.683 61.1391   7
  -5  11   5 188.571 91.7991   6
   5 -11  -5 229.654 98.6601   1
  -5  11   5-26.1264 60.2131   1
  -5  11   4 1787.53 197.845   1
   5 -11  -4 2014.29 183.631   7
  -5  11   4 1708.51 194.752   3
   5 -11  -4 2101.79 211.745   1
   5 -11  -4 2329.85 205.467   3
  -5  11   3 2202.06 216.456   1
   5 -11  -3 2245.42 193.419   7
   5 -11  -3 2519.17 231.884   1
  -5  11   3 2173.43 231.179  10
  -5  11   3 2279.26 222.812   3
   5 -11  -2 1418.68 164.554   1
  -5  11   2 1454.49 180.493   3
   5 -11  -2 1321.66 140.419   7
  -5  11   2 879.797 161.391  10
  -5  11   1 224.914 80.9576   3
   5 -11  -1 320.812 84.6970   7
  -5  11   1 165.102 74.0116  10
   5 -11  -1 333.536 89.1520   1
  -5  11   0-5.66766 44.1678   3
   5 -11   0 57.2109 41.2158   7
  -5  11   0 188.983 85.6874  10
   5 -11   0 22.9594 49.6266   1
  -5  11   0 30.5161 72.8070   2
  -5  11  -1 63.3111 61.0768   3
   5 -11   1 130.827 55.1799   7
   5 -11   1 151.570 77.9015   1
  -5  11  -1-23.5776 57.2354   2
   5 -11   2 91.3915 69.7834   1
  -5  11  -2-54.8534 55.3994   3
   5 -11   2 41.6594 49.0207   7
  -5  11  -2-3.80975 66.3106   2
  -5  11  -2-61.3184 66.1285  10
  -5  11  -3 118.579 79.4711   3
   5 -11   3 9.32129 52.5529   7
  -5  11  -3 21.4396 72.9193   2
   5 -11   3 23.4641 61.1768   1
  -5  11  -3 127.450 69.3950  10
  -5  11  -4 21.0710 50.9143   3
   5 -11   4 4.49288 49.4496   7
   5 -11   4 32.5649 61.6741   1
  -5  11  -4 5.62296 69.8035   2
  -5  11  -4-49.3084 57.5831  10
  -5  11  -5 711.554 128.963   3
  -5  11  -5 766.401 128.032  10
   5 -11   5 717.706 116.171   7
   5 -11   5 886.241 131.721   1
  -5  11  -5 556.280 122.658   2
  -5  11  -6 46.8895 67.6128   3
   5 -11   6 24.2338 53.8657   7
   5 -11   6 85.0680 67.8549   1
  -5  11  -6-20.2421 61.2965   2
  -5  11  -6-23.2402 43.7473  10
  -5  11  -7 161.397 73.8960   3
   5 -11   7 4.71927 55.5866   7
   5 -11   7 160.822 78.2443   1
  -5  11  -7 182.324 78.6197  10
  -5  11  -7 80.9391 76.1615   2
  -5  11  -8 108.995 70.3697   3
   5 -11   8 74.6293 69.3455   7
   5 -11   8 127.511 72.9911   1
  -5  11  -8 176.791 61.3051  10
  -5  11  -8 238.563 94.6482   2
  -5  11  -9 101.893 72.4879   3
   5 -11   9-50.5777 48.8544   7
   5 -11   9 68.5688 74.9809   1
  -5  11  -9 204.417 98.4803   2
   5 -11  10 278.072 104.390   1
   5 -11  10 220.774 87.4659   7
  -5  11 -10 242.336 99.1756   2
   5 -11  11 1464.39 193.198   1
  -5  11 -11 1637.02 207.686   2
   5 -11  12 235.303 104.985   1
  -5  11 -12 180.979 106.388   2
   5 -11  13 318.928 106.253   1
  -5  11 -13 254.463 110.535   2
  -5  11 -14 595.860 149.336   2
   5 -10  -9 893.182 150.285   8
  -5  10   9 640.455 146.123   6
  -5  10   9 853.208 138.707   1
   5 -10  -8 2412.54 236.680   8
  -5  10   8 2522.42 240.339   1
  -5  10   8 2142.85 236.380   6
  -5  10   7 2724.46 236.015   1
  -5  10   7 2810.79 253.522   6
  -5  10   7 2167.40 241.758  10
  -5  10   6 732.688 139.347   3
   5 -10  -6 811.957 129.059   7
   5 -10  -6 932.961 144.460   1
  -5  10   6 791.038 145.376   6
  -5  10   6 721.052 128.885   1
   5 -10  -6 952.584 140.054   3
  -5  10   6 630.302 120.436  10
  -5  10   5 1561.27 174.919   1
  -5  10   5 1384.86 174.395   3
   5 -10  -5 1335.44 147.584   7
   5 -10  -5 1438.34 175.469   1
  -5  10   5 1229.03 155.702   6
   5 -10  -5 1731.94 175.335   3
  -5  10   5 1147.85 167.229  10
  -5  10   4 1437.27 169.889   1
   5 -10  -4 1639.74 161.753   7
  -5  10   4 1562.47 170.230   6
  -5  10   4 1591.01 186.014   3
   5 -10  -4 1836.42 184.691   1
   5 -10  -4 1800.91 171.221   3
  -5  10   4 1185.36 166.408  10
   5 -10  -3 1919.16 172.657   7
  -5  10   3 1804.56 168.987   6
   5 -10  -3 2169.09 198.088   1
  -5  10   3 1985.71 196.880   3
  -5  10   3 1754.90 194.165  10
   5 -10  -2 2810.98 206.829   7
   5 -10  -2 2839.00 224.656   1
  -5  10   2 2552.73 238.308  10
  -5  10   2 2794.58 225.668   3
  -5  10   1 136.906 74.7775   3
   5 -10  -1 13.5132 41.3094   7
   5 -10  -1 88.2898 62.0441   1
  -5  10   1 226.682 79.3243   2
  -5  10   1 314.982 101.514  10
   5 -10   0 4797.73 260.626   7
  -5  10   0 4709.87 271.560   2
   5 -10   0 5039.02 291.961   1
  -5  10   0 4701.72 309.019  10
  -5  10   0 4721.35 290.388   3
   5 -10   1 4752.94 260.327   7
  -5  10  -1 4595.44 287.070   2
   5 -10   1 5367.02 298.830   1
  -5  10  -1 4764.82 302.310  10
  -5  10  -1 5052.61 296.705   3
   5 -10   2 1996.89 168.889   7
  -5  10  -2 1542.73 166.065   3
  -5  10  -2 1792.73 179.163   2
   5 -10   2 2287.26 192.257   1
  -5  10  -2 1850.45 182.168  10
   5 -10   3 2775.35 196.573   7
  -5  10  -3 2824.54 218.806   2
   5 -10   3 2627.74 213.094   1
  -5  10  -3 2708.39 219.977  10
  -5  10  -3 2844.72 223.274   3
  -5  10  -4 431.898 89.6773   3
   5 -10   4 538.206 89.2293   7
  -5  10  -4 532.793 104.797  10
   5 -10   4 533.063 102.757   1
  -5  10  -4 338.297 96.3156   2
  -5  10  -5 85.7330 68.1317   3
   5 -10   5-87.7423 68.2844   7
   5 -10   5-42.4600 71.6903   1
  -5  10  -5 52.1829 59.3393   2
  -5  10  -5-19.8417 49.0592  10
  -5  10  -6 54.5176 47.6233   3
   5 -10   6 2.99630 54.2844   7
   5 -10   6 32.0031 57.1012   1
  -5  10  -6 37.1010 38.5389  10
  -5  10  -7 173.705 64.7810   3
   5 -10   7 58.2749 54.1292   7
   5 -10   7 154.015 67.4128   1
  -5  10  -7 139.446 57.4175  10
  -5  10  -7 291.322 96.0096   2
  -5  10  -8 22.1794 62.3246   3
   5 -10   8 89.5679 73.2082   1
   5 -10   8 170.418 76.7178   7
  -5  10  -8 119.766 67.5074   2
  -5  10  -8 131.697 56.1815  10
  -5  10  -9 111.230 80.8716   3
   5 -10   9 60.0826 63.4393   1
   5 -10   9-1.60723 63.3049   7
  -5  10  -9 130.187 84.2489   2
   5 -10  10-80.5251 71.8407   1
  -5  10 -10 2.10354 54.1892   3
   5 -10  10-8.90636 57.7527   7
  -5  10 -10-14.8097 72.5374   2
   5 -10  11-64.7794 71.4336   1
  -5  10 -11 114.052 72.5646   3
   5 -10  11-58.8216 66.7217   7
  -5  10 -11 103.314 78.7856   2
  -5  10 -12-21.0991 61.7117   2
   5 -10  12-89.6252 76.7215   1
  -5  10 -13 17.9915 75.6188   2
   5 -10  13-16.1746 64.8883   1
  -5  10 -14 66.4166 73.6398   2
   5  -9 -11 256.044 107.538   8
  -5   9  11 15.6764 54.0321   1
  -5   9  11 97.9598 93.9450   6
   5  -9 -10 63.8016 68.4468   8
  -5   9  10-39.6506 69.7155   6
  -5   9  10-51.5973 60.7910   1
   5  -9  -9 66.7160 62.5989   8
  -5   9   9 73.2265 75.1616   6
  -5   9   9-16.0744 60.4006   1
  -5   9   9 39.1436 53.4314  10
   5  -9  -8-87.7316 70.4121   8
  -5   9   8 94.1388 73.5978   3
   5  -9  -8 104.749 75.7713   7
  -5   9   8-92.3002 58.9318   6
  -5   9   8 53.7884 62.8350   1
  -5   9   8-206.263 108.959  10
   5  -9  -8-87.7358 58.9713   3
  -5   9   7 66.8044 51.1993   3
   5  -9  -7 7.68006 51.1200   7
  -5   9   7 0.43940 59.9887   6
   5  -9  -7 120.122 78.1647   1
  -5   9   7 32.5140 56.7834   1
  -5   9   7-128.156 79.9624  10
   5  -9  -7 9.18418 44.7213   3
   5  -9  -6 13.7388 45.7727   1
  -5   9   6 101.529 54.8212   3
   5  -9  -6-8.32131 48.5326   7
  -5   9   6 105.762 75.6288   6
  -5   9   6 55.8421 58.5477   1
  -5   9   6-87.4505 76.4333  10
   5  -9  -6-29.0715 45.5567   3
  -5   9   5 932.231 136.503   3
   5  -9  -5 1101.36 134.845   7
   5  -9  -5 1195.71 143.650   1
  -5   9   5 1157.57 146.294   6
  -5   9   5 1084.99 142.609   1
   5  -9  -5 1015.25 124.702   3
  -5   9   5 765.352 134.143  10
  -5   9   4 1614.17 168.112   1
   5  -9  -4 1606.71 154.027   7
  -5   9   4 1648.39 159.005   6
  -5   9   4 1398.12 159.481   3
   5  -9  -4 1756.05 172.923   1
   5  -9  -4 1767.78 161.791   3
  -5   9   4 1445.98 177.204  10
   5  -9  -3 316.510 88.0678   1
  -5   9   3 162.512 60.7234   3
   5  -9  -3 303.418 77.0450   7
  -5   9   3 372.957 80.2579   6
   5  -9  -3 351.608 82.2927   3
  -5   9   3 388.914 106.798  10
   5  -9  -2 3028.88 207.547   7
  -5   9   2 2756.60 182.927   6
  -5   9   2 2590.49 180.177   2
   5  -9  -2 3149.07 220.890   1
  -5   9   2 2785.00 229.239  10
  -5   9   2 2986.67 215.936   3
   5  -9  -1 6369.84 296.809   7
  -5   9   1 6610.24 295.805   2
   5  -9  -1 6273.95 316.913   1
  -5   9   1 6305.67 346.212  10
  -5   9   1 6342.50 319.796   3
   5  -9   0 1167.80 135.099   7
   5  -9   0 1346.14 145.407   1
  -5   9   0 1567.17 154.939   3
  -5   9   0 1152.91 125.924   2
  -5   9   0 1190.27 144.799  10
  -5   9  -1 855.146 114.900   3
   5  -9   1 886.155 110.675   7
  -5   9  -1 756.096 112.353   2
   5  -9   1 872.795 117.311   1
  -5   9  -1 1065.77 141.744  10
  -5   9  -2 196.209 63.4175   3
   5  -9   2 127.881 45.7424   7
  -5   9  -2 121.124 64.6570  10
   5  -9   2 181.420 72.8426   1
  -5   9  -2 143.588 72.4659   2
  -5   9  -3 76.5785 62.2069   3
   5  -9   3 32.9852 45.9408   7
   5  -9   3 39.0377 46.9531   1
  -5   9  -3 98.3342 57.7547  10
   5  -9   4 10446.6 401.257   7
  -5   9  -4 10121.1 429.953   2
   5  -9   4 10571.7 424.437   1
  -5   9  -4 10802.5 419.670  10
  -5   9  -4 10841.9 429.256   3
   5  -9   5 3207.15 216.399   7
  -5   9  -5 3400.60 238.742   2
   5  -9   5 3582.15 240.858   1
  -5   9  -5 3229.83 226.375   3
  -5   9  -5 3212.46 214.430  10
   5  -9   6 3203.79 225.239   7
  -5   9  -6 2997.23 235.939   2
   5  -9   6 3070.69 226.800   1
  -5   9  -6 3053.02 220.789   3
  -5   9  -6 3041.93 204.387  10
   5  -9   7 2090.80 186.713   7
  -5   9  -7 1855.29 192.749   2
   5  -9   7 1884.32 186.398   1
  -5   9  -7 1913.65 177.497   3
  -5   9  -7 1751.01 152.438  10
   5  -9   8 433.406 102.119   1
  -5   9  -8 317.366 82.0277   3
   5  -9   8 551.125 109.370   7
  -5   9  -8 438.437 110.703   2
  -5   9  -8 351.212 74.8499  10
   5  -9   9 554.698 116.900   1
  -5   9  -9 663.476 112.978   3
   5  -9   9 574.496 117.563   7
  -5   9  -9 549.546 119.897   2
  -5   9 -10-25.2103 65.0410   3
   5  -9  10 112.708 67.4336   7
  -5   9 -10 82.0760 90.9415   2
   5  -9  10 54.8353 67.4060   1
  -5   9 -11 183.100 84.0173   3
   5  -9  11 74.0677 61.6548   7
  -5   9 -11 217.329 81.0483   2
   5  -9  11 166.918 70.0161   1
  -5   9 -12 103.546 73.3677   2
   5  -9  12 196.212 88.0502   1
  -5   9 -13 180.602 87.1638   2
   5  -9  13-44.7029 69.3542   1
   5  -9  14 536.468 136.301   1
  -5   9 -14 177.354 86.6526   2
  -5   9 -15 39.9320 78.0625   2
   5  -8 -12 362.311 97.8053   8
  -5   8  12 357.177 125.533   6
  -5   8  12 246.375 82.2517   1
   5  -8 -11 542.315 125.599   8
  -5   8  11 409.576 101.658   1
  -5   8  11 413.464 116.042   6
   5  -8 -10 60.9202 63.3384   8
  -5   8  10 87.1111 71.7402   6
  -5   8  10 21.8072 50.2787   1
   5  -8  -9 631.678 122.126   8
   5  -8  -9 470.693 90.3327   7
  -5   8   9 596.308 125.258   6
  -5   8   9 427.725 99.1353   1
  -5   8   9 555.803 124.115  10
   5  -8  -9 583.271 113.983   3
   5  -8  -8 1057.45 143.961   8
   5  -8  -8 957.618 131.935   7
  -5   8   8 757.193 135.117   6
  -5   8   8 830.261 128.898   1
  -5   8   8 937.370 144.960  10
   5  -8  -8 1010.39 129.902   3
   5  -8  -7 1196.18 145.095   1
  -5   8   7 1110.22 149.437   3
   5  -8  -7 1272.89 146.545   7
  -5   8   7 1283.76 161.141   6
  -5   8   7 1107.75 141.049   1
  -5   8   7 1064.53 159.710  10
   5  -8  -7 1235.61 140.022   3
   5  -8  -6 1249.87 142.828   7
  -5   8   6 1166.12 143.737   3
  -5   8   6 1237.29 149.761   6
  -5   8   6 1204.83 141.639   1
   5  -8  -6 1276.26 146.124   1
  -5   8   6 1304.51 164.337  10
   5  -8  -6 1279.35 136.351   3
  -5   8   5 180.449 65.7488   3
   5  -8  -5 324.588 78.6962   7
  -5   8   5 281.181 73.8872   6
  -5   8   5 207.211 71.5521   1
  -5   8   5 204.873 65.6787  10
   5  -8  -5 252.748 66.6736   3
   5  -8  -5 254.132 76.7273   1
  -5   8   4 78.8441 55.7733   1
  -5   8   4 73.4522 52.9902   3
   5  -8  -4 267.983 68.8427   7
   5  -8  -4 83.2492 62.6583   1
  -5   8   4 79.6552 46.1253   6
  -5   8   4 262.558 86.9689  10
   5  -8  -4 116.402 53.2671   3
  -5   8   3 225.614 67.3737   3
   5  -8  -3 145.757 44.6407   7
  -5   8   3 286.532 69.5794   6
   5  -8  -3 271.587 78.3717   1
   5  -8  -3 242.101 64.9877   3
  -5   8   3 277.710 81.5081  10
  -5   8   2 131.598 62.2722   3
   5  -8  -2 141.005 41.5579   7
  -5   8   2 153.770 54.0722   2
  -5   8   2 136.929 48.2835   6
   5  -8  -2 170.349 53.5036   1
  -5   8   2 302.565 95.5787  10
   5  -8  -1 1273.58 136.948   7
  -5   8   1 1520.74 128.312   2
   5  -8  -1 1355.53 136.189   1
  -5   8   1 1485.69 160.670  10
  -5   8   1 1355.01 135.536   3
   5  -8   0 1376.46 133.912   7
  -5   8   0 1873.64 149.363   2
  -5   8   0 1654.47 163.478  10
   5  -8   0 1421.31 141.400   1
  -5   8   0 1677.55 155.329   3
  -5   8  -1-37.4251 59.7832   3
   5  -8   1-19.9066 43.5537   7
   5  -8   1-32.5631 60.8148   1
  -5   8  -1 52.4863 65.4100   2
  -5   8  -1 27.5497 41.1262  10
  -5   8  -2 904.071 112.509   3
   5  -8   2 927.692 112.125   7
   5  -8   2 1232.70 130.873   1
  -5   8  -2 1022.72 127.554   2
  -5   8  -2 967.063 120.603  10
   5  -8   3 5361.81 270.204   7
  -5   8  -3 5678.09 286.345   2
   5  -8   3 5533.91 281.935   1
  -5   8  -3 5403.70 276.735   3
  -5   8  -3 5382.02 277.757  10
  -5   8  -4 955.303 117.517   3
   5  -8   4 892.279 114.754   7
   5  -8   4 967.876 121.707   1
  -5   8  -4 1043.08 131.946   2
  -5   8  -4 1155.11 126.660  10
  -5   8  -5 222.338 61.2745   3
   5  -8   5 382.719 85.9993   1
   5  -8   5 423.790 85.7712   7
  -5   8  -5 137.304 55.0300  10
  -5   8  -5 286.897 92.7011   2
   5  -8   6 676.410 110.370   1
  -5   8  -6 612.283 100.645   3
   5  -8   6 760.935 107.940   7
  -5   8  -6 670.936 95.1088  10
  -5   8  -6 704.700 118.997   2
   5  -8   7 230.855 83.7636   1
  -5   8  -7 163.558 72.9824   3
   5  -8   7 156.390 68.7841   7
  -5   8  -7 225.085 54.8063  10
  -5   8  -7 232.038 87.7060   2
   5  -8   8 3680.92 250.299   7
  -5   8  -8 3478.53 244.236   2
   5  -8   8 3282.03 237.099   1
  -5   8  -8 3166.96 227.015   3
  -5   8  -8 3229.59 197.413  10
   5  -8   9 2493.31 218.805   7
  -5   8  -9 2601.99 215.752   2
   5  -8   9 2426.98 214.082   1
  -5   8  -9 2303.39 199.140   3
   5  -8  10 2052.56 206.348   7
  -5   8 -10 2158.80 205.772   2
   5  -8  10 2309.31 213.520   1
  -5   8 -10 2046.43 197.129   3
   5  -8  11 1500.81 185.035   7
  -5   8 -11 1597.70 178.903   2
   5  -8  11 1928.58 204.611   1
  -5   8 -11 1752.54 193.145   3
  -5   8 -12 439.283 113.695   3
   5  -8  12 646.966 135.164   7
  -5   8 -12 337.143 97.8836   2
   5  -8  12 790.772 135.371   1
  -5   8 -13 204.393 60.7626   2
   5  -8  13 313.777 105.005   1
  -5   8 -14 272.439 98.6944   2
   5  -8  14 66.0345 60.1902   1
  -5   8 -15 35.9875 59.7884   2
   5  -7 -13 158.184 65.4943   8
  -5   7  13 109.645 80.5825   6
  -5   7  13 159.240 70.7677   1
   5  -7 -12 863.630 138.285   8
  -5   7  12 543.744 134.713   6
  -5   7  12 990.547 145.170   1
   5  -7 -11 2498.52 223.775   8
  -5   7  11 2645.24 223.588   1
  -5   7  11 2348.07 233.227   6
   5  -7 -11 2386.82 215.985   3
   5  -7 -10 3544.78 256.909   8
  -5   7  10 3248.72 238.663   1
   5  -7 -10 3271.63 242.028   7
  -5   7  10 3421.03 279.576   6
   5  -7 -10 3185.69 234.856   3
  -5   7  10 2868.53 238.074  10
   5  -7  -9 4831.59 290.844   8
  -5   7   9 4988.40 286.044   1
   5  -7  -9 4478.91 283.369   7
  -5   7   9 4990.41 322.104   6
   5  -7  -9 4657.27 276.459   3
  -5   7   9 4923.92 303.516  10
   5  -7  -8 3334.23 231.535   8
  -5   7   8 3092.71 221.821   1
   5  -7  -8 3314.25 233.264   7
  -5   7   8 3359.67 251.098   6
   5  -7  -8 3436.15 227.384   3
  -5   7   8 3410.81 248.793  10
  -5   7   7 2376.26 189.196   1
  -5   7   7 2498.22 209.639   6
   5  -7  -7 2496.73 196.643   1
   5  -7  -7 2512.72 185.699   3
  -5   7   7 2508.94 212.505  10
  -5   7   6 618.242 99.8396   3
   5  -7  -6 481.326 94.2093   7
  -5   7   6 727.959 104.939   6
   5  -7  -6 528.299 101.638   1
  -5   7   6 494.158 90.9526   1
  -5   7   6 708.299 116.370  10
   5  -7  -6 571.829 88.2321   3
  -5   7   5 47.5920 42.3819   3
   5  -7  -5 157.442 63.0848   7
  -5   7   5 16.2477 49.3188   6
  -5   7   5 63.8392 44.8952   1
   5  -7  -5-31.2095 46.5449   1
  -5   7   5 61.8520 57.3231  10
   5  -7  -5 48.7308 36.2147   3
  -5   7   4 1237.69 126.499   3
   5  -7  -4 1292.52 132.976   7
  -5   7   4 1174.08 118.537   6
   5  -7  -4 1429.99 134.107   1
   5  -7  -4 1143.03 116.326   3
  -5   7   4 1120.75 137.513  10
   5  -7  -3 5760.53 270.969   7
  -5   7   3 5442.07 241.133   6
  -5   7   3 5373.22 213.138   2
   5  -7  -3 5403.26 264.392   1
   5  -7  -3 5774.84 256.044   3
  -5   7   3 5658.63 300.378  10
  -5   7   3 5289.58 264.740   3
   5  -7  -2 5777.58 272.165   7
  -5   7   2 5523.20 229.945   2
   5  -7  -2 5542.47 264.789   1
  -5   7   2 5793.48 296.406  10
  -5   7   2 5448.60 260.604   3
   5  -7  -1 4645.98 240.643   7
  -5   7   1 4433.29 189.318   6
  -5   7   1 5260.74 231.141   2
   5  -7  -1 4936.39 245.717   1
  -5   7   1 5226.63 274.822  10
  -5   7   1 4631.50 239.831   3
   5  -7   0 4728.96 237.071   7
  -5   7   0 4749.49 225.267   2
   5  -7   0 4440.01 242.147   1
  -5   7   0 4710.62 257.106  10
  -5   7   0 4673.62 236.295   3
  -5   7  -1 569.729 91.2108   3
   5  -7   1 539.313 83.3882   7
   5  -7   1 712.230 92.4387   1
  -5   7  -1 576.791 96.2999   2
  -5   7  -1 516.474 90.1859  10
  -5   7  -2 288.863 72.9626   3
  -5   7  -2 290.197 62.7613  10
   5  -7   2 229.109 55.2035   7
   5  -7   2 246.895 64.0728   1
  -5   7  -2 344.616 77.8832   2
  -5   7  -3 1091.69 116.387   3
   5  -7   3 990.875 114.259   7
   5  -7   3 1033.16 116.596   1
  -5   7  -3 1082.54 115.164   2
  -5   7  -3 829.462 104.684  10
  -5   7  -4 137.853 50.4358   3
   5  -7   4 124.629 56.3329   1
   5  -7   4-55.0095 50.2143   7
  -5   7  -4 14.2393 56.4327   2
  -5   7  -4-12.6966 45.3973  10
   5  -7   5 542.113 95.2715   1
  -5   7  -5 547.514 87.6221   3
   5  -7   5 578.253 99.4702   7
  -5   7  -5 690.712 93.4026  10
  -5   7  -5 602.740 99.6654   2
   5  -7   6 3862.08 240.103   7
  -5   7  -6 3832.01 238.807   2
   5  -7   6 3627.65 231.232   1
  -5   7  -6 3438.45 216.759   3
  -5   7  -6 3401.45 201.826  10
  -5   7  -7 515.243 92.5644   3
   5  -7   7 537.899 99.4942   7
  -5   7  -7 648.127 104.641   2
   5  -7   7 645.725 103.417   1
  -5   7  -8 529.996 94.0949   3
   5  -7   8 540.663 107.587   7
  -5   7  -8 421.677 99.3208   2
   5  -7   8 562.582 103.142   1
  -5   7  -9 39.2965 55.1878   3
   5  -7   9 52.1382 70.1577   7
  -5   7  -9-60.5478 60.2245   2
   5  -7   9 75.6111 64.2120   1
  -5   7 -10 284.826 79.6441   3
   5  -7  10 245.757 79.1324   7
  -5   7 -10 191.583 64.5366   2
   5  -7  10 327.295 95.7734   1
  -5   7 -11-62.4951 57.8127   3
   5  -7  11 155.565 81.2334   7
   5  -7  11-4.57711 57.6173   1
  -5   7 -11-30.7075 78.1446   2
  -5   7 -12 1155.10 152.581   3
   5  -7  12 1060.05 168.424   7
   5  -7  12 1043.36 151.812   1
  -5   7 -12 946.089 142.749   2
   5  -7  13 125.261 74.6280   1
  -5   7 -13 7.33774 56.7410   2
   5  -7  14 534.835 125.614   1
  -5   7 -14 589.646 121.477   2
  -5   7 -15 587.943 131.573   2
  -5   6  14-72.6026 53.6715   1
   5  -6 -14-32.3439 58.6764   8
  -5   6  14-86.9680 80.6769   6
  -5   6  13 56.5122 47.4287   1
   5  -6 -13 114.859 71.0621   8
  -5   6  13-44.1232 84.4010   6
   5  -6 -12 375.907 88.1888   8
  -5   6  12 505.697 127.092   6
   5  -6 -12 411.103 100.547   3
  -5   6  12 453.788 94.7895   1
   5  -6 -11 323.593 88.2277   8
   5  -6 -11 389.255 95.6257   7
  -5   6  11 326.232 89.7471   6
  -5   6  11 386.990 83.2775   1
   5  -6 -11 253.307 71.4880   3
   5  -6 -10 216.702 73.8229   8
   5  -6 -10 158.200 68.6427   7
  -5   6  10 62.4752 47.7062   1
  -5   6  10 140.580 75.9211   6
  -5   6  10 71.3472 50.5129  10
   5  -6 -10 148.020 65.2162   3
   5  -6  -9-4.11537 44.0051   8
   5  -6  -9-31.2627 47.6476   7
  -5   6   9-7.92836 54.5914   6
  -5   6   9-12.8864 48.6910   1
  -5   6   9 25.0532 47.6742  10
   5  -6  -9 53.0214 51.0778   3
   5  -6  -8 226.009 60.5814   8
   5  -6  -8 236.653 71.8178   7
  -5   6   8 276.893 70.0259  10
  -5   6   8 334.277 92.5684   6
  -5   6   8 333.994 72.7959   1
   5  -6  -8 238.785 57.7798   3
  -5   6   7 2191.78 166.723   1
   5  -6  -7 2016.71 173.692   7
  -5   6   7 2000.63 175.858   6
   5  -6  -7 2178.90 170.026   1
   5  -6  -7 2148.25 159.757   3
  -5   6   7 2118.37 178.634  10
  -5   6   6 3692.94 212.529   1
   5  -6  -6 3631.77 221.811   7
  -5   6   6 3796.47 231.940   6
   5  -6  -6 3584.04 219.769   1
   5  -6  -6 3648.44 207.330   3
  -5   6   6 3723.18 236.174  10
  -5   6   5 10603.2 371.233   1
  -5   6   5 11470.6 396.594   6
  -5   6   5 10520.0 379.486   3
   5  -6  -5 9549.97 374.025   1
   5  -6  -5 10062.1 353.057   3
  -5   6   5 10973.2 417.364  10
   5  -6  -4 4882.04 252.451   7
  -5   6   4 5126.23 243.983   3
  -5   6   4 4771.66 239.064   6
   5  -6  -4 5000.28 238.813   1
  -5   6   4 5115.05 271.042  10
   5  -6  -4 5242.32 232.301   3
   5  -6  -3 8786.24 334.269   7
  -5   6   3 8484.51 299.042   6
  -5   6   3 7895.19 254.579   2
   5  -6  -3 8757.17 317.988   1
   5  -6  -3 8037.94 299.465   3
  -5   6   3 8558.22 351.419  10
  -5   6   3 8233.82 313.091   3
   5  -6  -2 1659.65 139.868   7
  -5   6   2 1803.59 119.488   6
  -5   6   2 1569.28 113.716   2
   5  -6  -2 1529.11 126.338   1
  -5   6   2 1669.56 149.318  10
  -5   6   2 1537.56 127.550   3
  -5   6   1-12.9476 38.2836   3
   5  -6  -1 28.0790 51.1326   7
  -5   6   1 56.1422 28.9196   6
  -5   6   1 171.413 56.0986   2
  -5   6   1 34.6978 47.8695  10
   5  -6  -1 2.69019 37.4274   1
  -5   6   0 561.822 75.2220   3
   5  -6   0 736.938 103.529   7
  -5   6   0 612.639 55.3550   6
   5  -6   0 848.914 94.7806   1
  -5   6   0 662.850 78.6367   2
  -5   6   0 736.478 99.6161  10
   5  -6   1 2916.50 179.989   7
  -5   6  -1 2656.41 164.762   2
   5  -6   1 2927.48 176.195   1
  -5   6  -1 2576.22 177.330  10
  -5   6  -1 2568.29 163.788   3
   5  -6   2 6557.27 283.130   7
  -5   6  -2 6805.06 276.108   2
   5  -6   2 6825.28 279.282   1
  -5   6  -2 6750.53 285.654  10
  -5   6  -2 6391.88 268.539   3
   5  -6   3 9203.48 343.874   7
  -5   6  -3 8608.59 328.146   2
   5  -6   3 9022.39 335.605   1
  -5   6  -3 9032.08 324.156   3
  -5   6  -3 8348.66 326.531  10
   5  -6   4 9196.72 359.382   7
  -5   6  -4 9617.98 356.190   2
   5  -6   4 9311.34 354.514   1
  -5   6  -4 9189.58 335.518   3
   5  -6   4 8937.36 315.195   4
  -5   6  -4 8834.89 335.555  10
   5  -6   5 4294.99 239.013   7
  -5   6  -5 3880.25 227.618   2
   5  -6   5 3681.98 219.816   1
  -5   6  -5 3631.83 207.291   3
  -5   6  -5 3756.31 207.311  10
  -5   6  -6 1013.64 113.840   3
   5  -6   6 912.760 122.702   7
  -5   6  -6 998.633 119.089   2
   5  -6   6 1059.61 122.400   1
   5  -6   7 1282.55 139.698   7
  -5   6  -7 1144.69 129.843   2
   5  -6   7 1209.65 135.779   1
  -5   6  -7 1264.29 131.320   3
  -5   6  -8 220.308 64.4902   3
   5  -6   8 235.442 82.2943   7
   5  -6   8 246.372 79.7803   1
  -5   6  -8 234.126 70.5300   2
  -5   6  -9 372.171 78.1005   3
   5  -6   9 542.412 106.664   7
   5  -6   9 612.312 105.711   1
  -5   6  -9 666.651 103.722   2
  -5   6 -10 99.9610 71.1181   3
   5  -6  10 111.998 72.2484   7
   5  -6  10 146.181 77.0127   1
  -5   6 -10 176.696 76.0090   2
  -5   6 -11-6.83399 49.9618   3
   5  -6  11-33.5187 58.6478   7
   5  -6  11 39.9219 65.8694   1
  -5   6 -11-38.1580 59.0671   2
   5  -6  12 119.662 78.6243   7
  -5   6 -12 74.2984 56.7403   3
   5  -6  12 131.459 76.7040   1
  -5   6 -12 43.1061 54.9162   2
   5  -6  13 86.1874 64.8673   1
  -5   6 -13 57.1840 60.1253   2
   5  -6  14 144.506 82.5727   1
  -5   6 -14 104.002 71.3352   2
  -5   6 -15 146.765 76.5658   2
  -5   5  15 729.420 130.027   1
  -5   5  15 769.598 151.048   6
  -5   5  14 118.468 65.4744   1
  -5   5  14 205.514 90.0327   6
   5  -5 -13 85.5520 57.1012   8
  -5   5  13 6.22140 74.1422   6
  -5   5  13 28.0280 47.6164   1
   5  -5 -13 22.0454 52.6217   3
   5  -5 -12 64.1453 60.2218   8
  -5   5  12 69.6324 77.7731   6
   5  -5 -12 48.3717 47.5636   3
  -5   5  12 67.4382 58.1903   1
   5  -5 -11 951.066 131.643   8
  -5   5  11 893.662 141.364   6
  -5   5  11 870.826 120.119   1
   5  -5 -11 1067.08 123.497   3
   5  -5 -10 969.204 121.445   8
  -5   5  10 857.665 114.412  10
   5  -5 -10 831.871 117.803   7
  -5   5  10 975.476 120.628   1
  -5   5  10 979.483 146.106   6
   5  -5 -10 1101.98 129.405   3
   5  -5  -9 267.307 64.6417   8
   5  -5  -9 254.029 69.8504   7
  -5   5   9 400.254 81.1449  10
  -5   5   9 125.492 55.1511   6
  -5   5   9 296.835 69.8419   1
   5  -5  -9 416.594 72.5700   3
   5  -5  -8 75.4391 42.2793   8
   5  -5  -8 112.786 66.2061   7
  -5   5   8 77.1875 58.6084   6
  -5   5   8 20.6798 34.8402   1
  -5   5   8 105.020 50.9049  10
   5  -5  -8 80.4647 51.5172   3
   5  -5  -7 54.3083 51.4559   7
  -5   5   7 5.27912 48.3351   6
  -5   5   7 6.15469 32.2651   1
  -5   5   7 53.4920 38.7939  10
   5  -5  -7-5.56867 36.9873   3
   5  -5  -6-7.97099 41.8587   7
  -5   5   6-85.9254 59.0641   6
  -5   5   6-33.6521 42.3339   1
  -5   5   6-15.2182 40.1275  10
   5  -5  -6 31.4483 40.7540   3
   5  -5  -6-25.6139 37.0332   1
  -5   5   5 331.795 67.7970   3
   5  -5  -5 246.787 69.9837   7
  -5   5   5 324.560 69.3066   6
  -5   5   5 284.746 60.0868   1
   5  -5  -5 246.908 54.6432   1
  -5   5   5 247.082 62.0874  10
   5  -5  -5 419.264 69.6834   3
   5  -5  -4 92.4094 48.2876   1
  -5   5   4 87.3069 42.5343   3
   5  -5  -4 143.926 50.5132   7
  -5   5   4 141.720 43.9738   6
  -5   5   4 107.793 32.6641   2
  -5   5   4 66.1321 42.0776  10
   5  -5  -4 117.893 42.0850   3
  -5   5   3-25.0054 32.1094   3
   5  -5  -3-0.66752 42.1997   7
  -5   5   3 24.8155 33.6555   6
   5  -5  -3 22.1132 33.4122   1
  -5   5   3-21.6528 27.3896   2
  -5   5   3-6.13105 38.5403  10
   5  -5  -3 16.3126 37.4777   3
   5  -5  -2 553.850 74.5346   1
  -5   5   2 623.468 73.0470   3
   5  -5  -2 683.151 89.1693   7
  -5   5   2 553.628 67.1746   6
  -5   5   2 512.731 60.1565   2
  -5   5   2 616.741 85.6623  10
   5  -5  -1 12872.5 402.857   7
  -5   5   1 12455.9 328.232   6
  -5   5   1 13305.8 361.611   2
  -5   5   1 12435.8 407.504  10
  -5   5   1 12602.2 372.157   3
   5  -5   0 2847.09 179.360   7
  -5   5   0 3343.95 130.144   6
  -5   5   0 3066.73 161.504   2
   5  -5   0 3262.94 169.991   1
  -5   5   0 3257.71 187.779  10
  -5   5   0 2676.69 152.797   3
   5  -5   1 8335.13 308.676   7
  -5   5  -1 8247.17 211.125   6
  -5   5  -1 7788.67 281.610   2
   5  -5   1 7656.94 283.163   1
   5  -5   1 8571.85 272.787   4
  -5   5  -1 8303.57 312.245  10
  -5   5  -1 7941.80 280.096   3
   5  -5   2 5471.11 251.364   7
  -5   5  -2 5548.42 237.495   2
   5  -5   2 5007.46 226.399   1
   5  -5   2 5535.86 216.342   4
  -5   5  -2 5438.52 245.183  10
  -5   5  -2 5074.03 219.788   3
  -5   5  -3 556.673 76.9739   3
   5  -5   3 565.769 84.5098   7
   5  -5   3 599.339 74.9183   4
  -5   5  -3 476.626 73.5682   2
  -5   5  -3 518.295 72.3279  10
   5  -5   3 473.996 72.9617   1
  -5   5  -4 14.4426 41.2797   3
   5  -5   4 78.0864 61.0425   7
   5  -5   4 85.9760 39.6097   4
  -5   5  -4-66.2012 65.0459   2
   5  -5   4 5.19902 41.7505   1
   5  -5   5 973.105 120.003   7
   5  -5   5 1016.14 100.357   4
  -5   5  -5 912.231 101.008   2
   5  -5   5 1125.75 117.516   1
  -5   5  -5 1021.24 105.213   3
   5  -5   6 1637.91 157.571   7
  -5   5  -6 1762.25 155.529   2
   5  -5   6 1930.87 157.129   1
  -5   5  -6 1865.45 146.574   3
   5  -5   7 4326.53 257.873   7
  -5   5  -7 4475.35 247.298   2
   5  -5   7 4485.21 253.513   1
  -5   5  -7 4200.82 227.612   3
   5  -5   8 5077.81 289.013   7
  -5   5  -8 4647.40 263.404   2
   5  -5   8 5352.19 283.135   1
  -5   5  -8 4480.67 256.453   3
   5  -5   9 1642.89 183.958   7
  -5   5  -9 1768.37 171.035   2
   5  -5   9 1942.02 179.235   1
  -5   5  -9 1568.90 156.647   3
  -5   5 -10 2714.76 216.992   2
   5  -5  10 3183.29 235.715   1
  -5   5 -10 2645.31 207.805   3
  -5   5 -11 505.371 97.9047   3
   5  -5  11 684.005 127.482   7
   5  -5  11 608.892 109.443   1
  -5   5 -11 615.043 112.651   2
  -5   5 -12 52.0513 52.1173   3
   5  -5  12-65.1192 83.8143   7
   5  -5  12-71.1981 61.0888   1
  -5   5 -12 10.3207 50.8756   2
   5  -5  13 138.214 85.9381   1
  -5   5 -13 68.4597 53.5225   2
   5  -5  14-75.0739 66.0843   1
  -5   5 -14-134.202 70.3604   2
  -5   5 -15 269.359 94.4268   2
  -5   4  15 221.327 102.550   6
  -5   4  14 766.618 120.488   1
  -5   4  14 817.566 154.452   6
   5  -4 -14 930.518 132.382   3
   5  -4 -13 2567.91 206.920   8
  -5   4  13 2127.40 186.187   1
  -5   4  13 2153.98 220.099   6
   5  -4 -13 2678.69 208.130   3
   5  -4 -12 3731.47 241.125   8
  -5   4  12 3441.58 228.723   1
  -5   4  12 3532.12 272.935   6
   5  -4 -12 3589.14 234.924   3
   5  -4 -11 6788.64 317.494   8
  -5   4  11 6278.32 300.651   1
  -5   4  11 6557.91 359.993   6
   5  -4 -11 6949.67 320.734   3
   5  -4 -10 1503.71 138.136   8
  -5   4  10 1343.55 128.809   1
  -5   4  10 1354.84 161.188   6
   5  -4 -10 1283.74 131.658   3
   5  -4  -9 1865.91 145.802   8
  -5   4   9 1918.23 146.487   1
   5  -4  -9 1939.49 168.138   7
  -5   4   9 1857.27 169.668   6
   5  -4  -9 1777.23 144.848   3
  -5   4   9 2032.49 156.810  10
   5  -4  -8 523.331 79.3719   8
   5  -4  -8 479.637 91.9439   7
  -5   4   8 522.453 91.5124   6
  -5   4   8 458.365 71.6803   1
  -5   4   8 570.873 89.0539  10
   5  -4  -8 478.594 73.3552   3
   5  -4  -7 934.992 96.9179   8
  -5   4   7 902.776 94.4749   1
   5  -4  -7 965.500 113.090   7
  -5   4   7 1023.26 122.603   6
   5  -4  -7 937.503 96.5918   3
  -5   4   7 922.052 102.876  10
  -5   4   6 1672.06 123.642   1
   5  -4  -6 1779.05 148.533   7
  -5   4   6 1830.59 150.019   6
   5  -4  -6 2067.89 130.066   3
  -5   4   6 1909.50 144.209  10
  -5   4   5 1073.16 94.2278   1
   5  -4  -5 934.662 106.546   7
  -5   4   5 921.346 60.5889   2
  -5   4   5 957.457 102.138   6
   5  -4  -5 1085.06 93.2183   1
   5  -4  -5 1035.62 90.3314   3
  -5   4   5 1017.31 107.811  10
   5  -4  -4 1511.59 126.010   7
  -5   4   4 1575.60 114.621   3
  -5   4   4 1554.39 119.253   6
  -5   4   4 1553.19 88.3696   2
   5  -4  -4 1157.75 101.712   1
   5  -4  -4 1596.73 105.627   3
  -5   4   4 1345.87 120.740  10
   5  -4  -3 1963.16 138.484   7
  -5   4   3 1550.25 117.323   6
  -5   4   3 1816.94 105.207   2
  -5   4   3 1749.53 113.745   3
   5  -4  -3 1857.24 116.411   1
  -5   4   3 1674.28 133.165  10
   5  -4  -2 1926.58 139.261   7
  -5   4   2 2040.86 118.600   6
  -5   4   2 1850.62 109.078   2
   5  -4  -2 1603.67 113.912   1
  -5   4   2 1899.67 138.949  10
  -5   4   2 1918.01 117.177   3
  -5   4   1 105.539 37.1749   3
   5  -4  -1 97.9415 45.1666   7
  -5   4   1 122.902 29.9618   6
   5  -4  -1 89.0581 39.8196   1
   5  -4  -1 120.122 32.8822   4
  -5   4   1 123.588 39.7861   2
  -5   4   1 131.768 43.0935  10
  -5   4   0 538.477 61.7175   3
   5  -4   0 638.766 84.8170   7
   5  -4   0 522.143 64.5963   1
  -5   4   0 449.154 50.9519   6
   5  -4   0 375.155 47.6101   4
  -5   4   0 497.786 63.9048   2
  -5   4   0 483.062 75.3424  10
   5  -4   1-33.8451 35.9833   1
  -5   4  -1 22.7422 27.8444   3
   5  -4   1 35.8825 42.5149   7
  -5   4  -1 5.37273 16.7623   6
   5  -4   1 48.1629 31.2187   4
  -5   4  -1 6.37966 35.4695   2
  -5   4  -1 38.5743 35.3023  10
  -5   4  -2 596.397 67.1263   3
   5  -4   2 648.723 85.7339   7
  -5   4  -2 594.337 50.8132   6
   5  -4   2 721.900 73.3343   4
  -5   4  -2 559.865 81.4216   2
   5  -4   2 550.471 74.7972   1
   5  -4   3 3753.18 206.783   7
  -5   4  -3 3573.00 195.838   2
   5  -4   3 3900.38 193.845   1
   5  -4   3 3907.27 175.470   4
  -5   4  -3 3334.02 168.314   3
  -5   4  -4 26.2611 34.5163   3
   5  -4   4 216.096 63.5024   7
   5  -4   4 170.103 47.4871   4
  -5   4  -4 153.563 57.4758   2
   5  -4   4 233.220 61.4372   1
   5  -4   5 5783.48 277.038   7
  -5   4  -5 5590.60 258.055   2
   5  -4   5 5752.09 257.949   1
   5  -4   5 5619.61 235.705   4
  -5   4  -5 5078.22 226.818   3
   5  -4   6 1817.03 159.251   7
  -5   4  -6 1779.89 150.796   2
   5  -4   6 1826.38 148.498   1
   5  -4   6 1657.97 132.020   4
  -5   4  -6 1674.18 130.492   3
   5  -4   7 1347.20 151.160   7
  -5   4  -7 1268.43 130.430   2
   5  -4   7 1470.45 137.087   1
  -5   4  -7 1197.23 120.424   3
  -5   4  -8 731.982 99.8916   3
   5  -4   8 580.477 107.108   7
   5  -4   8 822.960 111.552   1
  -5   4  -8 851.566 110.765   2
  -5   4  -9-16.5418 44.1530   3
   5  -4   9 35.9246 56.2804   7
   5  -4   9 48.3468 54.6733   1
  -5   4  -9-50.4607 47.9507   2
  -5   4 -10 1049.85 128.460   3
   5  -4  10 817.079 140.066   7
   5  -4  10 985.574 137.270   1
  -5   4 -10 843.752 127.392   2
   5  -4  11 1247.98 172.982   7
   5  -4  11 1481.41 168.596   1
  -5   4 -11 1258.31 154.611   2
  -5   4 -11 1389.93 153.936   3
  -5   4 -12 1336.49 157.346   3
   5  -4  12 1342.68 190.462   7
   5  -4  12 1466.94 171.064   1
  -5   4 -12 1161.22 157.536   2
   5  -4  13 1113.03 159.847   1
  -5   4 -13 1181.66 159.547   2
   5  -4  14 905.682 147.788   1
  -5   4 -14 738.352 137.494   2
  -5   3  16 403.324 116.471   6
  -5   3  15 443.402 117.533   6
  -5   3  14 1087.19 173.020   6
   5  -3 -14 978.540 135.309   3
  -5   3  13 525.089 89.4085   1
  -5   3  13 908.638 151.163   6
   5  -3 -13 578.782 98.3246   3
  -5   3  12 905.730 111.168   1
  -5   3  12 842.048 138.954   6
   5  -3 -12 928.195 118.019   3
   5  -3 -11 327.382 68.6684   8
  -5   3  11 384.252 72.0413   1
   5  -3 -11 584.471 100.178   3
  -5   3  11 397.335 95.9252   6
   5  -3 -10 1006.22 104.440   8
  -5   3  10 857.060 125.028   6
  -5   3  10 872.324 97.4227   1
   5  -3 -10 970.547 104.538   3
   5  -3  -9 4640.41 220.120   8
  -5   3   9 4617.74 214.931   1
  -5   3   9 4448.32 263.497   6
   5  -3  -9 4515.87 213.985   3
  -5   3   9 4302.48 213.632  10
   5  -3  -8 9361.38 314.382   8
  -5   3   8 9332.47 307.862   1
   5  -3  -8 9696.77 369.531   7
  -5   3   8 9525.79 374.341   6
   5  -3  -8 9564.54 315.189   3
  -5   3   8 9039.99 326.031  10
   5  -3  -7 15601.0 406.278   8
  -5   3   7 15725.9 409.143   1
  -5   3   7 15146.7 479.082   6
   5  -3  -7 15875.6 415.300   3
  -5   3   7 14788.6 439.728  10
  -5   3   6 8818.59 271.435   1
  -5   3   6 8858.74 330.449   6
   5  -3  -6 8737.24 271.915   3
  -5   3   6 8688.75 311.407  10
  -5   3   5 10838.7 300.039   1
   5  -3  -5 10658.5 361.885   7
  -5   3   5 11280.0 269.646   2
  -5   3   5 11301.8 361.840   6
  -5   3   5 10420.7 348.528  10
   5  -3  -5 9950.41 302.183   1
   5  -3  -5 10975.0 300.453   3
   5  -3  -4 4650.42 221.273   7
  -5   3   4 4489.89 164.987   2
  -5   3   4 4640.42 177.400   3
   5  -3  -4 4389.91 169.325   1
   5  -3  -4 4424.11 166.803   3
  -5   3   4 4562.84 213.469  10
  -5   3   3 380.466 50.0475   3
   5  -3  -3 352.481 65.5645   7
  -5   3   3 372.930 59.1986   6
   5  -3  -3 362.490 48.8257   1
  -5   3   3 337.437 47.5507   2
   5  -3  -3 338.279 37.9827   4
  -5   3   3 309.608 63.3892  10
  -5   3   2 487.016 53.1682   3
   5  -3  -2 353.972 59.8337   7
  -5   3   2 441.596 54.6150   6
   5  -3  -2 423.135 42.7639   4
  -5   3   2 386.589 54.4184   2
   5  -3  -2 281.140 47.9667   1
  -5   3   2 388.675 67.7677  10
   5  -3  -1 1375.14 108.123   7
  -5   3   1 1352.42 94.5996   6
  -5   3   1 918.934 84.9820   2
   5  -3  -1 1360.12 89.3809   1
   5  -3  -1 1360.48 77.3089   4
  -5   3   1 1461.95 121.270  10
  -5   3   1 1441.65 86.7280   3
   5  -3   0 12287.7 377.360   7
  -5   3   0 13359.6 322.079   3
  -5   3   0 13256.1 333.336   6
  -5   3   0 13174.5 369.432   2
   5  -3   0 12610.6 339.775   1
   5  -3   1 6467.54 260.073   7
  -5   3  -1 6790.41 212.146   6
  -5   3  -1 6946.02 256.817   2
   5  -3   1 6439.66 231.335   1
  -5   3  -1 6401.54 209.890   3
   5  -3   2 9531.89 329.269   7
  -5   3  -2 9701.66 261.187   6
  -5   3  -2 9652.40 326.088   2
   5  -3   2 9604.82 301.998   1
  -5   3  -2 9181.21 274.223   3
   5  -3   3 1877.19 145.206   7
  -5   3  -3 2096.28 147.474   2
   5  -3   3 2125.63 137.598   1
  -5   3  -3 2092.31 123.511   3
  -5   3  -4-16.9483 31.1967   3
   5  -3   4 48.5602 54.6734   7
   5  -3   4 24.2684 33.2049   1
  -5   3  -4-12.8716 46.8630   2
  -5   3  -5 519.862 72.0746   3
   5  -3   5 573.889 91.7597   7
   5  -3   5 623.005 84.3198   1
  -5   3  -5 670.003 92.8255   2
  -5   3  -6 438.215 67.1862   3
   5  -3   6 349.601 81.5529   7
   5  -3   6 423.960 74.0732   1
  -5   3  -6 421.375 78.5577   2
  -5   3  -7 286.541 61.6730   3
   5  -3   7 388.308 83.6811   7
   5  -3   7 377.879 77.6660   1
  -5   3  -7 266.586 67.0018   2
  -5   3  -8-16.0428 42.5195   3
   5  -3   8-24.7590 64.1625   7
   5  -3   8 107.833 51.8059   1
   5  -3   8 94.4567 49.7960   5
  -5   3  -8 131.554 55.7419   2
  -5   3  -9 116.860 51.7371   3
   5  -3   9 160.148 56.6770   1
  -5   3  -9 91.0850 57.2579   2
  -5   3 -10 266.205 80.3183   3
   5  -3  10 278.907 99.9567   7
   5  -3  10 301.304 74.7748   1
  -5   3 -10 61.5312 53.5253   2
  -5   3 -11 308.192 84.8109   3
   5  -3  11 289.358 99.2831   7
   5  -3  11 296.614 91.6452   1
  -5   3 -11 265.887 81.9657   2
  -5   3 -12 2.66941 44.8397   3
   5  -3  12 197.983 85.5260   7
   5  -3  12 195.776 72.3308   1
  -5   3 -12 10.5397 47.4652   2
   5  -3  13 50.8389 69.0216   1
  -5   3 -13-11.1061 67.8868   2
   5  -3  14 63.6738 78.4149   1
  -5   3 -14-22.1246 62.1873   2
  -5   2  16-29.7417 58.8691   6
  -5   2  15 18.5866 62.0556   6
   5  -2 -15 60.1739 61.6811   3
  -5   2  14 270.081 89.2671   6
   5  -2 -14 276.297 72.5844   3
  -5   2  13 175.924 90.2351   6
   5  -2 -13 121.477 48.2932   3
  -5   2  12 4.68735 47.4105   6
   5  -2 -12 25.6356 43.7635   3
  -5   2  11-12.2792 30.9589   1
  -5   2  11-22.5092 54.7216   6
   5  -2 -11-43.7681 44.5447   3
  -5   2  10 95.4410 32.1178   1
   5  -2 -10 80.7271 37.6082   8
  -5   2  10 152.631 69.0518   6
   5  -2 -10 118.986 49.7181   3
   5  -2  -9 356.537 55.8853   8
   5  -2  -9 373.662 62.5848   3
  -5   2   9 444.813 88.6819   6
  -5   2   9 327.229 57.4180  10
  -5   2   9 419.554 61.5082   1
   5  -2  -8 1121.04 94.5347   8
  -5   2   8 1102.61 91.4404   1
   5  -2  -8 1264.53 125.960   7
  -5   2   8 1109.65 120.380   6
   5  -2  -8 1113.76 93.7775   3
  -5   2   8 1118.26 100.670  10
   5  -2  -7 1156.21 84.4650   8
  -5   2   7 1118.99 83.2895   1
   5  -2  -7 1049.25 112.567   7
  -5   2   7 1012.81 119.156   6
  -5   2   7 1024.91 94.8271  10
   5  -2  -7 1238.08 89.9075   3
   5  -2  -6 7.72795 21.5325   8
   5  -2  -6 48.0822 45.2286   7
  -5   2   6-13.2192 37.4151   6
  -5   2   6 14.2795 19.7689   2
  -5   2   6-0.63598 21.8247   1
  -5   2   6-8.90029 39.9514  10
   5  -2  -6 42.8348 30.6918   3
  -5   2   5 2003.61 97.5658   1
   5  -2  -5 1868.19 136.567   7
  -5   2   5 1926.75 101.764   2
  -5   2   5 2022.17 139.968   6
   5  -2  -5 1835.36 100.599   1
   5  -2  -5 1889.38 94.5517   3
  -5   2   5 2065.75 134.411  10
  -5   2   5 1916.09 104.318   3
  -5   2   4 7656.76 208.347   1
   5  -2  -4 7924.02 282.183   7
  -5   2   4 7675.16 275.903   6
  -5   2   4 7511.18 231.126   2
  -5   2   4 8025.99 285.403  10
   5  -2  -4 7139.72 207.144   1
  -5   2   4 7476.25 210.652   3
   5  -2  -4 8046.88 207.839   3
   5  -2  -3 12953.1 374.252   7
  -5   2   3 13072.0 369.140   6
  -5   2   3 12616.6 330.851   2
   5  -2  -3 12016.3 287.425   1
  -5   2   3 12243.7 282.606   3
   5  -2  -2 3789.98 178.050   7
  -5   2   2 3873.93 174.062   6
  -5   2   2 3663.31 161.617   2
  -5   2   2 3328.27 107.514   3
  -5   2   2 3311.07 114.676   3
   5  -2  -1 20773.1 529.403   7
  -5   2   1 23039.1 514.803   6
  -5   2   1 21318.6 514.739   2
   5  -2  -1 22566.4 459.949   1
  -5   2   1 20982.2 424.601   3
   5  -2   0 8621.37 295.873   7
  -5   2   0 9072.80 275.273   6
  -5   2   0 9158.99 296.442   2
   5  -2   0 8713.59 251.489   1
  -5   2   0 8716.45 222.500   3
  -5   2  -1 117.707 29.6938   3
   5  -2   1 218.217 55.9459   7
  -5   2  -1 167.131 39.4334   6
  -5   2  -1 161.570 46.3787   2
   5  -2   1 167.035 38.0797   1
  -5   2  -2 40.7366 26.3612   3
   5  -2   2 25.0578 38.2355   7
   5  -2   2 30.2679 30.3726   1
  -5   2  -2-21.4712 40.0067   2
   5  -2   3 1014.53 108.433   7
   5  -2   3 1077.62 97.0035   1
  -5   2  -3 755.989 103.545   2
  -5   2  -3 1030.25 81.8163   3
   5  -2   4 8740.91 324.566   7
   5  -2   4 8138.31 291.176   1
  -5   2  -4 8254.45 268.151   3
   5  -2   5 4593.10 243.476   7
   5  -2   5 4640.19 222.593   1
  -5   2  -5 4831.91 240.087   2
  -5   2  -5 4373.23 201.810   3
   5  -2   6 8566.32 351.518   7
   5  -2   6 8476.55 330.159   1
  -5   2  -6 8509.46 345.780   2
  -5   2  -6 8405.22 305.901   3
   5  -2   7 2454.64 190.993   7
   5  -2   7 2694.88 187.646   1
  -5   2  -7 2181.12 180.182   2
  -5   2  -7 2382.70 167.544   3
  -5   2  -8 549.019 87.4651   3
   5  -2   8 571.170 111.963   7
   5  -2   8 631.861 97.5590   1
   5  -2   8 528.006 83.0456   5
  -5   2  -8 656.633 101.648   2
  -5   2  -9 816.584 110.514   3
   5  -2   9 944.710 134.248   7
   5  -2   9 1129.36 133.331   1
  -5   2  -9 654.489 118.383   2
  -5   2 -10 65.0826 41.7939   3
   5  -2  10 141.763 79.1586   7
   5  -2  10 161.058 59.2469   1
  -5   2 -10 97.2402 46.8431   2
  -5   2 -11-22.5778 46.7965   3
   5  -2  11-12.9576 66.1767   7
   5  -2  11 11.1901 59.3618   1
  -5   2 -11 1.04017 50.3919   2
  -5   2 -12 138.012 60.7622   3
   5  -2  12 102.294 69.6163   1
  -5   2 -12 28.2080 56.3026   2
   5  -2  13 103.851 69.7113   1
  -5   2 -13-9.61535 49.9450   2
  -5   1  17 434.648 123.426   6
  -5   1  16 517.935 122.922   6
  -5   1  15 1713.22 199.856   6
  -5   1  14 2745.97 238.578   6
   5  -1 -14 2902.95 207.800   3
  -5   1  13 1655.51 182.744   6
   5  -1 -13 1536.47 143.050   3
  -5   1  12 1258.12 154.919   6
   5  -1 -12 1469.89 129.189   3
   5  -1 -12 1235.90 125.026   9
  -5   1  11-0.34276 55.9345   6
   5  -1 -11-55.7405 48.8893   3
  -5   1  10 145.489 62.4830   6
   5  -1 -10 260.788 52.5141   3
  -5   1   9 254.836 62.8493   6
   5  -1  -9 306.857 49.5642   3
   5  -1  -8 790.380 107.271   7
  -5   1   8 812.678 112.852   6
   5  -1  -8 935.542 77.7695   3
   5  -1  -7 4016.66 215.501   7
  -5   1   7 4701.02 157.531   1
  -5   1   7 4240.76 233.490   6
   5  -1  -7 5014.13 172.293   3
   5  -1  -6 16.3091 17.3341   8
   5  -1  -6 69.2663 41.7257   7
  -5   1   6-24.5540 40.6578   6
  -5   1   6 58.3277 27.6989   2
  -5   1   6 23.4028 16.4647   1
   5  -1  -6 19.6288 19.9052   3
  -5   1   5 43.2422 20.0305   3
   5  -1  -5 45.3676 41.9116   7
  -5   1   5-2.43833 34.4004   6
  -5   1   5 79.9625 26.7325   2
  -5   1   5 42.9922 14.6104   1
   5  -1  -5 37.9948 16.2015   3
  -5   1   4 3577.06 101.911   1
   5  -1  -4 3532.38 173.726   7
  -5   1   4 3824.32 160.480   2
  -5   1   4 3623.88 184.172   6
  -5   1   4 3351.98 95.2410   3
  -5   1   4 3415.07 100.963   3
   5  -1  -3 941.169 94.1538   7
  -5   1   3 1035.79 94.3006   6
  -5   1   3 920.145 84.6911   2
  -5   1   3 879.720 35.1726   3
  -5   1   3 752.784 32.3106   3
   5  -1  -2 329.159 54.5885   7
  -5   1   2 279.591 52.4462   6
   5  -1  -2 288.406 32.3225   1
  -5   1   2 286.346 52.6719   2
  -5   1   2 260.741 17.4441   3
  -5   1   2 276.651 18.8923   3
  -5   1   1 15.2306 8.64155   3
   5  -1  -1 26.7253 19.3587   1
   5  -1  -1-3.10082 32.0984   7
  -5   1   1 23.3370 29.5642   6
  -5   1   1 28.2624 35.3114   2
  -5   1   1 13.7732 10.2955   3
   5  -1   0 367.739 37.0020   3
   5  -1   0 495.282 71.0645   7
  -5   1   0 376.232 56.0065   6
  -5   1   0 379.137 65.2902   2
   5  -1   0 319.344 43.8870   1
  -5   1   0 397.181 34.4947   3
   5  -1   1 938.730 93.4515   7
  -5   1  -1 1143.87 94.1035   6
   5  -1   1 1038.29 80.7431   1
  -5   1  -1 938.440 94.8754   2
  -5   1  -1 1061.76 65.7931   3
   5  -1   2 4052.04 194.398   7
  -5   1  -2 3765.06 203.537   2
   5  -1   2 3774.46 167.532   1
  -5   1  -2 3814.70 146.053   3
   5  -1   3 9840.79 340.760   7
   5  -1   3 9744.48 310.303   1
  -5   1  -3 10008.1 352.490   2
  -5   1  -3 9957.70 282.685   3
   5  -1   4 5572.74 254.612   7
   5  -1   4 5322.69 229.799   1
  -5   1  -4 5791.53 262.267   2
  -5   1  -4 5359.72 208.614   3
   5  -1   5 2774.98 182.259   7
   5  -1   5 2813.67 171.825   1
   5  -1   5 2858.33 178.837   5
  -5   1  -5 2783.08 156.605   3
  -5   1  -6 724.262 85.6794   3
   5  -1   6 659.668 100.270   7
   5  -1   6 728.004 96.6521   1
   5  -1   6 614.186 91.2188   5
  -5   1  -6 598.622 92.7651   2
  -5   1  -7 36.9318 40.0372   3
   5  -1   7 70.8473 61.6328   7
   5  -1   7-61.5120 47.5494   1
   5  -1   7 64.6112 49.5667   5
  -5   1  -7-53.8949 43.0319   2
   5  -1   8 1589.07 166.870   7
   5  -1   8 1618.63 154.503   1
  -5   1  -8 1608.86 155.760   2
   5  -1   8 1380.32 134.681   5
  -5   1  -8 1560.38 139.109   3
  -5   1  -9 1097.13 124.629   3
   5  -1   9 969.038 134.349   7
   5  -1   9 1043.15 129.601   1
  -5   1  -9 1055.79 127.778   2
   5  -1  10 3035.37 247.071   7
   5  -1  10 3088.28 234.968   1
  -5   1 -10 3055.26 231.188   2
  -5   1 -10 2733.45 204.979   3
   5  -1  11 1179.93 162.676   7
   5  -1  11 1348.78 164.837   1
  -5   1 -11 1052.03 148.659   2
  -5   1 -11 1368.65 152.455   3
   5  -1  12 1083.56 156.801   1
  -5   1 -12 732.674 131.879   2
   5  -1  13 1053.71 163.335   1
  -5   0  17 770.660 150.519   6
  -5   0  16 1450.22 184.931   6
  -5   0  15 1002.10 150.069   6
  -5   0  14 964.600 146.150   6
  -5   0  13-1.97931 59.8390   6
   5   0 -12 937.079 112.912   9
  -5   0  12 926.360 136.059   6
   5   0 -12 1009.11 105.290   3
  -5   0  11 2539.24 205.041   6
   5   0 -11 2860.45 160.425   3
   5   0 -11 2473.74 177.791   9
  -5   0  10 8840.25 379.643   6
   5   0 -10 8817.86 287.745   3
   5   0 -10 8632.49 342.861   9
  -5   0   9 2144.67 182.738   6
   5   0  -9 2515.58 130.428   3
   5   0  -8 7496.17 292.491   7
  -5   0   8 7173.62 315.591   6
   5   0  -8 6932.79 163.939   4
   5   0  -8 7313.85 219.614   3
   5   0  -7 8470.72 307.600   7
  -5   0   7 9424.86 354.706   6
   5   0  -7 9060.61 230.907   3
   5   0  -6 1668.71 127.339   7
  -5   0   6 1818.19 111.576   2
  -5   0   6 1875.42 145.048   6
   5   0  -6 1867.90 75.4468   3
   5   0  -5 52.2744 41.6307   7
  -5   0   5 156.229 48.6388   6
  -5   0   5 96.7004 37.2129   2
   5   0  -4 2529.55 139.775   7
  -5   0   4 2545.47 138.903   2
  -5   0   4 2432.46 160.394   6
   5   0  -3 5162.49 202.082   7
  -5   0   3 5045.09 228.945   6
  -5   0   3 5566.90 219.784   2
   5   0  -2 2254.92 128.025   7
  -5   0   2 2288.43 144.738   6
  -5   0   2 2278.44 137.423   2
   5   0  -2 2190.93 69.7330   1
   5   0  -1 1031.07 89.7781   7
  -5   0   1 1116.35 103.111   6
  -5   0   1 1119.46 100.981   2
   5   0  -1 1096.70 60.2668   1
  -5   0   0 192.522 23.0102   3
   5   0   0 149.127 22.9902   3
   5   0   0 179.029 41.8692   7
  -5   0   0 193.186 53.8441   6
   5   0   0 204.727 35.9061   1
  -5   0   0 173.490 47.4484   2
  -5   0  -1 383.177 40.2072   3
   5   0   1 394.772 61.9988   7
  -5   0  -1 433.824 75.2546   6
   5   0   1 407.818 51.9606   1
  -5   0  -1 435.281 79.0793   2
   5   0   1 229.371 73.0289   5
  -5   0  -2 245.081 39.2971   3
   5   0   2 216.477 59.1340   7
   5   0   2 201.969 40.4865   1
  -5   0  -2 219.613 64.2602   2
   5   0   2 245.712 58.5264   5
  -5   0  -3 1.50652 22.5227   3
   5   0   3 31.4211 41.8685   7
   5   0   3 14.5860 34.6134   1
  -5   0  -3 27.3807 40.0712   2
   5   0   3 16.3102 42.5480   5
  -5   0  -4 21.0343 30.6270   3
   5   0   4 34.6527 39.9642   7
   5   0   4-29.0589 33.7308   1
  -5   0  -4-37.4364 42.1391   2
   5   0   4 14.4198 42.0205   5
   5   0   5 122.218 30.2875   9
  -5   0  -5 130.817 36.1926   3
   5   0   5 18.5465 46.3607   7
   5   0   5 147.167 48.3947   1
  -5   0  -5 120.442 60.1644   2
   5   0   5 159.645 55.8463   5
  -5   0  -6 501.316 72.4842   3
   5   0   6 381.958 80.1965   7
   5   0   6 335.043 64.1658   1
  -5   0  -6 328.140 72.7482   2
   5   0   6 393.444 80.7907   5
   5   0   7 2826.05 199.208   7
   5   0   7 2952.70 199.238   1
  -5   0  -7 2595.03 201.258   2
   5   0   7 2583.74 191.075   5
  -5   0  -7 2904.31 182.011   3
   5   0   8 1509.75 156.020   7
   5   0   8 1242.50 140.270   1
  -5   0  -8 1309.44 144.513   2
  -5   0  -8 1198.90 124.414   3
  -5   0  -9 746.690 105.008   3
   5   0   9 855.724 123.750   7
   5   0   9 923.452 131.012   1
  -5   0  -9 834.917 120.865   2
  -5   0 -10 379.287 82.9237   3
   5   0  10 563.526 112.573   7
   5   0  10 461.220 100.215   1
  -5   0 -10 348.904 86.6872   2
  -5   0 -11 106.693 62.2245   3
   5   0  11 108.832 57.8151   7
   5   0  11 116.781 57.9599   1
  -5   0 -11 51.1387 44.5574   2
   5   0  12 149.561 80.9313   1
  -5   0 -12 32.0243 59.9948   2
  -5  -1  17-17.3948 67.6387   6
  -5  -1  16 49.5401 61.1248   6
  -5  -1  15 49.1933 62.5204   6
  -5  -1  14 37.5315 49.6419   6
   5   1 -13 273.878 73.2855   9
  -5  -1  13 433.172 98.6456   6
  -5  -1  12 3500.54 244.723   6
   5   1 -12 3189.00 212.154   9
  -5  -1  11 2381.45 204.130   6
   5   1 -11 2304.51 177.924   9
  -5  -1  10 5705.50 303.198   6
   5   1 -10 5698.53 232.330   5
   5   1 -10 5909.61 282.916   9
   5   1  -9 119.938 52.6103   9
  -5  -1   9 203.320 68.4609   6
   5   1  -9 154.040 44.0156   5
   5   1  -9 85.8611 17.4226   4
   5   1  -8 528.402 81.6018   9
   5   1  -8 586.169 83.3882   7
  -5  -1   8 485.141 85.1523   6
  -5  -1   8 491.462 66.8839   2
   5   1  -8 648.693 79.5570   5
   5   1  -7 1438.99 111.785   7
  -5  -1   7 1515.27 139.633   6
   5   1  -7 1536.64 120.363   5
   5   1  -7 1548.17 138.206   9
   5   1  -6 5679.65 223.528   7
  -5  -1   6 6090.67 230.752   2
  -5  -1   6 5933.70 272.069   6
   5   1  -6 5991.29 253.351   5
   5   1  -5 11634.5 344.100   7
  -5  -1   5 13372.1 371.883   2
  -5  -1   5 13822.1 425.169   6
   5   1  -5 12914.7 397.432   5
   5   1  -4 10687.9 307.133   7
  -5  -1   4 11186.6 340.354   2
  -5  -1   4 11110.3 370.972   6
   5   1  -4 10918.2 363.333   5
   5   1  -3 11394.7 316.872   7
  -5  -1   3 12071.9 361.718   2
  -5  -1   3 11867.7 385.220   6
   5   1  -3 11585.6 381.371   5
   5   1  -2 8441.49 256.351   7
  -5  -1   2 8580.63 315.643   6
  -5  -1   2 8650.68 305.344   2
   5   1  -2 8566.97 319.898   5
   5   1  -1 2032.31 114.653   7
  -5  -1   1 1733.21 135.531   6
  -5  -1   1 1872.50 139.793   2
   5   1  -1 2016.85 83.4782   1
   5   1  -1 1727.42 145.045   5
   5   1   0 102.408 40.1705   7
  -5  -1   0 132.717 53.7397   6
   5   1   0 92.0740 28.7533   1
  -5  -1   0 189.061 63.6517   2
   5   1   0 108.216 53.3410   5
   5   1   1 4579.59 196.070   7
   5   1   1 4743.09 177.265   1
  -5  -1  -1 4712.92 233.275   2
   5   1   1 4474.16 239.074   5
   5   1   1 4788.59 218.415   9
   5   1   2 829.541 88.5486   9
   5   1   2 924.068 88.3648   7
   5   1   2 833.485 79.1640   1
  -5  -1  -2 816.664 105.621   2
   5   1   2 835.576 108.111   5
  -5  -1  -2 824.727 66.6977   3
   5   1   3 4512.77 208.107   7
   5   1   3 4480.31 200.169   1
  -5  -1  -3 4249.50 230.709   2
   5   1   3 4109.28 235.706   5
  -5  -1  -3 4151.47 171.872   3
   5   1   3 4078.80 193.235   9
   5   1   4 2343.41 156.898   7
   5   1   4 2547.74 158.211   1
  -5  -1  -4 2653.12 186.072   2
   5   1   4 2281.43 177.800   5
  -5  -1  -4 2331.58 136.908   3
   5   1   4 2222.42 138.186   9
   5   1   5 3269.25 195.406   7
   5   1   5 3636.15 202.906   1
  -5  -1  -5 3815.42 231.685   2
   5   1   5 3326.25 223.309   5
  -5  -1  -5 3473.45 180.657   3
   5   1   6 852.003 107.982   7
   5   1   6 856.088 107.297   1
  -5  -1  -6 834.383 93.3213   3
  -5  -1  -6 758.029 117.306   2
   5   1   6 745.308 105.625   5
  -5  -1  -7 46.2139 36.4838   3
   5   1   7-75.6443 52.8979   7
   5   1   7 14.1545 40.9130   1
  -5  -1  -7 20.8862 44.8033   2
   5   1   7-26.2347 58.1014   5
   5   1   8 46.7652 60.1779   7
   5   1   8 22.1753 45.6653   1
  -5  -1  -8-10.6521 48.0508   3
  -5  -1  -8-7.90661 51.1578   2
   5   1   9 80.9201 61.7308   1
  -5  -1  -9-26.9791 47.7597   2
   5   1  10 80.8818 47.2546   1
  -5  -1 -10 87.4416 63.2791   2
   5   1  11 114.387 75.1956   1
  -5  -1 -11 43.9952 55.9951   2
   5   1  12 113.164 72.7416   1
  -5  -2  17 1293.71 185.960   6
  -5  -2  16 372.199 96.8656   6
  -5  -2  15 29.5796 50.8799   6
  -5  -2  14 453.031 99.7659   6
   5   2 -13 48.9296 47.0932   9
  -5  -2  13-47.5108 49.1716   6
   5   2 -12 344.769 83.8215   9
  -5  -2  12 294.208 88.4674   6
   5   2 -11 645.479 98.2212   9
  -5  -2  11 559.404 108.283   6
   5   2 -11 639.354 58.9794   4
   5   2 -10 243.480 67.2351   9
  -5  -2  10 213.475 70.0430   6
   5   2 -10 194.324 53.5231   5
   5   2 -10 199.382 27.6131   4
   5   2  -9 358.552 78.0881   9
  -5  -2   9 342.261 79.9223   6
   5   2  -9 380.860 69.8144   5
   5   2  -8 652.130 98.2777   9
   5   2  -8 416.170 64.5847   7
  -5  -2   8 547.399 98.4054   6
  -5  -2   8 562.906 78.7562   2
   5   2  -8 469.017 73.5161   5
   5   2  -7 487.091 83.9420   9
   5   2  -7 428.678 60.5186   7
  -5  -2   7 510.348 83.2763   6
  -5  -2   7 570.792 81.5657   2
   5   2  -7 717.334 96.4808   5
  -5  -2   6 2657.27 159.013   2
  -5  -2   6 2340.66 171.442   6
   5   2  -6 2858.99 175.630   5
   5   2  -6 2879.88 189.155   9
   5   2  -5 132.138 58.8014   9
   5   2  -5 67.1838 37.2890   7
  -5  -2   5 31.5353 39.5410   6
  -5  -2   5 76.4937 39.6903   2
   5   2  -5 93.6128 42.8125   5
   5   2  -4 214.190 60.5049   9
   5   2  -4 262.865 42.9211   7
  -5  -2   4 265.878 64.5980   6
  -5  -2   4 299.654 65.0853   2
   5   2  -4 284.949 73.2063   5
   5   2  -3 285.641 61.6296   9
   5   2  -3 180.401 32.9346   7
  -5  -2   3 345.379 69.6422   6
  -5  -2   3 288.246 69.1254   2
   5   2  -3 292.625 73.0778   5
   5   2  -2 2465.51 118.073   7
  -5  -2   2 2300.67 164.619   6
  -5  -2   2 2367.47 162.207   2
   5   2  -2 2566.16 180.025   5
   5   2  -2 2512.49 168.170   9
   5   2  -1 4475.87 169.981   7
  -5  -2   1 4722.21 236.958   6
  -5  -2   1 4469.58 223.934   2
   5   2  -1 4349.39 234.425   5
   5   2  -1 4960.23 234.954   9
   5   2   0 9680.24 285.775   7
  -5  -2   0 10166.3 371.213   6
   5   2   0 9915.35 266.477   1
  -5  -2   0 10606.2 369.818   2
   5   2   0 9820.53 379.457   5
   5   2   0 9598.54 341.484   9
   5   2   1 15194.9 388.624   7
   5   2   1 14862.1 379.968   1
  -5  -2  -1 15212.5 473.924   2
   5   2   1 14229.1 483.570   5
   5   2   1 15121.3 443.351   9
   5   2   2 1084.23 94.6775   7
   5   2   2 1030.71 92.1560   1
  -5  -2  -2 1115.84 115.708   2
   5   2   2 902.572 113.032   5
   5   2   2 934.764 98.1892   9
   5   2   3 1412.54 110.894   7
   5   2   3 1263.05 107.230   1
  -5  -2  -3 1411.60 140.758   2
   5   2   3 1336.85 142.046   5
   5   2   3 1231.03 106.719   9
   5   2   4 843.146 95.2379   1
  -5  -2  -4 926.067 115.669   2
   5   2   4 884.379 120.401   5
   5   2   5 178.086 52.2648   1
  -5  -2  -5 281.195 79.2973   2
   5   2   5 21.1369 49.9499   5
   5   2   6 873.680 107.934   1
  -5  -2  -6 878.571 118.026   2
   5   2   6 753.710 118.960   5
   5   2   7 809.863 112.299   1
  -5  -2  -7 1153.46 140.065   2
   5   2   7 979.955 137.808   5
   5   2   8 2377.36 200.787   1
  -5  -2  -8 2087.57 195.856   2
   5   2   9 2784.29 227.743   1
  -5  -2  -9 2479.53 213.733   2
   5   2  10 657.696 121.288   1
  -5  -2 -10 605.641 108.014   2
   5   2  11 297.080 87.3895   1
  -5  -3  17 840.109 146.587   6
  -5  -3  16 8.54483 61.3813   6
  -5  -3  15-55.9957 68.2753   6
   5   3 -14 511.575 98.8267   9
  -5  -3  14 461.976 105.714   6
  -5  -3  13 2425.67 216.370   6
   5   3 -13 2243.05 198.248   9
  -5  -3  12 1824.02 179.860   6
   5   3 -12 1955.98 116.628   4
   5   3 -12 1783.34 167.856   9
  -5  -3  11 2610.08 206.551   6
   5   3 -11 2682.72 119.290   4
   5   3 -11 2762.94 208.548   9
  -5  -3  10 1826.41 171.030   6
   5   3 -10 1836.15 143.171   5
   5   3 -10 1990.00 173.312   9
   5   3  -9 700.301 100.401   9
   5   3  -9 497.703 70.8536   7
  -5  -3   9 635.786 105.348   6
   5   3  -9 653.440 89.8893   5
   5   3  -8 83.9275 51.0563   9
   5   3  -8 30.6170 31.9286   7
  -5  -3   8 34.0390 53.6686   6
  -5  -3   8 23.8963 34.2659   2
   5   3  -8 13.7118 34.7935   5
   5   3  -7 602.610 92.7623   9
   5   3  -7 437.410 65.0374   7
  -5  -3   7 722.723 107.415   6
  -5  -3   7 631.322 85.4601   2
   5   3  -7 656.193 91.4303   5
   5   3  -6 1327.28 89.1069   7
  -5  -3   6 1299.77 123.481   2
  -5  -3   6 1287.51 133.426   6
   5   3  -6 1505.22 136.834   5
   5   3  -6 1296.95 134.121   9
   5   3  -5 122.908 54.1869   9
   5   3  -5 93.5683 30.6838   7
  -5  -3   5 56.6722 47.6281   6
  -5  -3   5 141.769 52.9495   2
   5   3  -5 153.949 61.2517   5
   5   3  -4 9.10870 44.2133   9
  -5  -3   4 15.0084 43.9175   6
  -5  -3   4 58.2873 49.9573   2
   5   3  -4 80.5075 59.7259   5
   5   3  -3 161.589 58.7189   9
  -5  -3   3 147.307 55.5074   6
  -5  -3   3 166.018 51.2295   2
   5   3  -3 104.812 54.5070   5
   5   3  -2 123.327 48.7179   9
  -5  -3   2 80.8100 55.8096   6
  -5  -3   2 51.0920 44.1250   2
   5   3  -2 178.704 65.0417   5
   5   3  -1 569.198 81.4738   9
  -5  -3   1 700.945 102.782   6
  -5  -3   1 647.855 90.8792   2
   5   3  -1 572.111 94.7200   5
  -5  -3   0 2229.27 167.939   2
   5   3   0 2375.89 189.264   5
   5   3   0 2499.14 170.512   9
   5   3   1 873.964 101.185   9
  -5  -3  -1 841.925 107.250   2
   5   3   1 913.452 130.883   5
   5   3   2 59.5844 41.5361   9
   5   3   2 21.2484 29.6558   1
  -5  -3  -2 87.4161 67.0052   2
   5   3   2 2.35420 55.7327   5
   5   3   3 1987.95 141.431   1
  -5  -3  -3 2132.74 172.372   2
   5   3   3 1528.89 163.602   5
   5   3   3 1680.06 137.546   9
   5   3   4 1352.81 124.285   1
  -5  -3  -4 1401.61 145.331   2
   5   3   4 1489.36 165.237   5
   5   3   5 3051.65 198.663   1
  -5  -3  -5 3057.86 216.147   2
   5   3   5 2868.07 239.000   5
   5   3   6 1694.15 160.295   1
  -5  -3  -6 1900.88 173.505   2
   5   3   6 1529.28 171.744   5
   5   3   7 1773.29 168.608   1
  -5  -3  -7 1774.66 177.109   2
   5   3   7 1914.16 199.880   5
   5   3   8 538.418 103.406   1
  -5  -3  -8 591.356 115.071   2
   5   3   9-66.6684 52.4282   1
  -5  -3  -9-23.5716 50.9877   2
   5   3  10-7.49663 61.8310   1
  -5  -4  17-13.1119 58.8242   6
  -5  -4  16 451.913 114.721   6
  -5  -4  15 935.874 140.212   6
  -5  -4  14 1085.87 150.548   6
  -5  -4  13 2636.66 219.160   6
   5   4 -13 2683.53 223.547   9
   5   4 -12 784.639 119.004   9
  -5  -4  12 808.623 123.334   6
   5   4 -12 725.062 70.6381   4
   5   4 -11 334.453 81.0022   9
  -5  -4  11 285.687 77.4362   6
   5   4 -10 34.2276 45.0249   9
  -5  -4  10 38.5559 50.5459   6
   5   4 -10 71.0812 39.9214   5
  -5  -4   9 1375.17 151.753   6
   5   4  -9 1521.73 141.434   5
   5   4  -9 1496.26 156.575   9
  -5  -4   8 1590.03 139.313   2
  -5  -4   8 1514.62 150.682   6
   5   4  -8 1437.99 142.954   5
   5   4  -8 1417.07 151.251   9
  -5  -4   7 6545.92 293.536   2
  -5  -4   7 6717.99 317.807   6
   5   4  -7 6391.14 304.959   5
   5   4  -7 6191.54 312.732   9
  -5  -4   6 12015.8 413.609   2
  -5  -4   6 11743.9 437.135   6
   5   4  -6 11824.0 435.427   5
   5   4  -6 11850.2 441.356   9
  -5  -4   5 2529.40 181.319   2
  -5  -4   5 2532.90 188.935   6
   5   4  -5 2594.67 193.522   5
   5   4  -5 2700.86 195.842   9
   5   4  -4 1085.86 129.087   9
  -5  -4   4 919.406 118.407   6
  -5  -4   4 947.214 113.270   2
   5   4  -4 1054.02 134.277   5
   5   4  -3 81.0364 45.0738   9
  -5  -4   3 67.7936 47.5707   6
  -5  -4   3 117.290 59.3811   2
   5   4  -3 63.8829 52.0291   5
   5   4  -2 45.1925 49.4882   9
  -5  -4   2 48.5528 49.7320   6
  -5  -4   2-11.1924 48.6261   2
   5   4  -2-21.3572 55.3111   5
  -5  -4   1 1370.41 130.399   2
   5   4  -1 1258.12 147.963   5
   5   4  -1 1328.06 130.914   9
   5   4   0 606.905 89.4341   9
  -5  -4   0 635.265 103.498   2
   5   4   0 567.607 108.660   5
   5   4   1 195.127 52.9769   9
  -5  -4  -1 239.590 68.9816   2
   5   4   1 151.424 60.4524   5
  -5  -4  -2 735.417 107.365   2
   5   4   2 802.423 128.229   5
  -5  -4  -3 305.096 84.4488   2
   5   4   3 221.957 83.1798   5
  -5  -4  -4-61.8575 46.5501   2
   5   4   4 8.24248 60.5544   5
   5   4   5 5.85810 46.2085   1
  -5  -4  -5 71.6982 62.6762   2
   5   4   5-37.4035 89.1743   5
   5   4   6 33.3371 46.3935   1
  -5  -4  -6-85.2808 74.9005   2
   5   4   6 85.3827 86.1795   5
   5   4   7 28.5507 49.9351   1
  -5  -4  -7 133.302 64.8066   2
   5   4   8 192.933 67.9654   1
  -5  -4  -8 255.469 74.3913   2
   5   4   9 312.163 95.7698   1
  -5  -4  -9 85.3375 71.5671   2
  -5  -5  17 61.9349 51.3707   6
  -5  -5  16 40.3532 50.9450   6
  -5  -5  15 403.786 108.938   6
  -5  -5  14 43.5552 59.6658   6
  -5  -5  13 13.9189 48.4608   6
  -5  -5  12 65.3647 47.2911   6
   5   5 -12 28.8714 24.1059   4
   5   5 -11 217.255 78.7650   9
  -5  -5  11 199.090 66.7877   6
   5   5 -10 824.255 129.169   9
  -5  -5  10 628.054 113.856   6
   5   5 -10 563.123 99.6084   5
  -5  -5   9 2557.82 205.813   6
   5   5  -9 2357.93 187.122   5
   5   5  -9 2276.82 206.509   9
   5   5  -8 1290.94 148.714   9
  -5  -5   8 1188.43 145.553   6
   5   5  -8 1369.77 147.437   5
   5   5  -7 916.875 125.137   9
  -5  -5   7 974.732 129.601   6
  -5  -5   7 965.400 118.875   2
   5   5  -7 1057.10 124.646   5
   5   5  -6 148.163 62.6498   9
  -5  -5   6 41.3329 50.2872   6
  -5  -5   6 55.5301 52.7337   2
   5   5  -6 120.782 75.1651   5
   5   5  -5 292.319 71.1913   9
  -5  -5   5 457.671 90.1955   6
  -5  -5   5 361.372 86.2308   2
   5   5  -5 322.430 80.2675   5
   5   5  -4 1151.28 139.981   9
  -5  -5   4 1293.21 145.308   6
  -5  -5   4 1127.75 132.212   2
   5   5  -4 1243.24 152.687   5
  -5  -5   3 4915.07 274.881   2
  -5  -5   3 5187.32 290.154   6
   5   5  -3 4934.75 296.032   5
   5   5  -3 4459.25 268.729   9
   5   5  -2 4780.70 272.750   9
  -5  -5   2 5299.23 284.092   2
   5   5  -2 4954.82 303.078   5
  -5  -5   1 4300.55 254.220   2
   5   5  -1 4391.58 291.982   5
  -5  -5   0 3196.76 228.320   2
   5   5   0 3096.06 247.602   5
  -5  -5  -1 1546.61 163.350   2
   5   5   1 1452.14 175.630   5
  -5  -5  -2 113.647 70.2734   2
   5   5   2 118.824 69.1919   5
  -5  -5  -3 110.964 67.7210   2
   5   5   3 68.9523 64.5489   5
  -5  -5  -4 692.086 115.175   2
   5   5   4 734.994 148.530   5
  -5  -5  -5 1374.53 163.269   2
   5   5   5 1251.17 190.697   5
  -5  -5  -6 858.295 139.455   2
  -5  -5  -7 549.230 122.043   2
  -5  -6  16-12.2440 52.0669   6
  -5  -6  15 1002.28 157.429   6
  -5  -6  14 1426.02 176.021   6
  -5  -6  13 186.248 87.0684   6
  -5  -6  12 605.303 115.557   6
  -5  -6  11 173.902 70.7518   6
  -5  -6  10 14.7372 54.2461   6
   5   6 -10 88.1348 53.1415   5
  -5  -6   9-44.8974 48.9962   6
   5   6  -9-14.6988 52.7496   5
  -5  -6   8 379.374 96.3253   6
   5   6  -8 333.329 90.3460   5
  -5  -6   7 210.996 76.9116   6
   5   6  -7 332.280 96.2263   5
  -5  -6   6 35.1310 57.2706   6
  -5  -6   6 144.725 65.6618   2
   5   6  -6 41.1656 66.8627   5
  -5  -6   5 222.484 79.3565   6
  -5  -6   5 202.767 69.6934   2
   5   6  -5 278.858 92.4939   5
  -5  -6   4 996.636 140.917   6
  -5  -6   4 822.001 118.605   2
   5   6  -4 1009.24 148.479   5
  -5  -6   3 481.681 97.6415   2
   5   6  -3 529.305 128.992   5
  -5  -6   2 224.321 77.1152   2
   5   6  -2 200.427 86.6085   5
  -5  -6   1 48.5088 53.3794   2
   5   6  -1 114.029 97.1965   5
  -5  -6   0 84.0089 70.2411   2
   5   6   0 19.5712 66.0472   5
  -5  -6  -1 1802.58 180.057   2
   5   6   1 1403.00 198.205   5
  -5  -6  -2 1819.09 196.575   2
   5   6   2 1932.52 224.949   5
  -5  -6  -3 590.686 116.305   2
   5   6   3 429.532 117.230   5
  -5  -6  -4 2334.60 211.951   2
  -5  -6  -5 1660.11 188.240   2
  -5  -6  -6 346.940 105.798   2
  -5  -7  15 388.254 108.411   6
  -5  -7  14 32.4822 54.4822   6
  -5  -7  13 19.4300 59.3655   6
  -5  -7  12-25.6034 54.2319   6
  -5  -7  11 612.815 114.800   6
  -5  -7  10 1616.08 176.274   6
   5   7 -10 1376.23 165.761   5
  -5  -7   9 1140.79 148.646   6
   5   7  -9 1122.86 154.776   5
  -5  -7   8 1888.18 191.480   6
   5   7  -8 1808.07 196.576   5
  -5  -7   7 93.8928 65.2724   6
   5   7  -7 63.9776 85.4341   5
  -5  -7   6 542.107 101.551   2
  -5  -7   6 357.973 93.2661   6
   5   7  -6 495.437 120.774   5
  -5  -7   5 83.9791 70.4477   6
  -5  -7   5 65.7337 75.8557   2
   5   7  -5-12.9752 82.4149   5
  -5  -7   4 461.905 109.351   2
   5   7  -4 325.600 96.4410   5
  -5  -7   3 272.169 83.8112   2
   5   7  -3 45.3020 69.1645   5
  -5  -7   2 0.79500 52.9359   2
   5   7  -2-59.9050 76.4012   5
  -5  -7   1 114.738 78.5198   2
   5   7  -1-37.9805 79.2844   5
  -5  -7   0 104.931 66.2484   2
  -5  -7  -1 90.6329 84.3069   2
  -5  -7  -2 109.327 66.9778   2
  -5  -7  -3 114.743 88.0738   2
  -5  -7  -4-47.2523 74.2170   2
  -5  -8  14-47.8466 70.9736   6
  -5  -8  13 172.731 84.9713   6
  -5  -8  12 1603.33 185.595   6
  -5  -8  11 410.602 100.505   6
  -5  -8  10 353.603 98.0286   6
   5   8 -10 544.905 127.021   5
  -5  -8   9 603.616 122.595   6
   5   8  -9 505.188 127.455   5
  -5  -8   8 32.3825 56.4231   6
   5   8  -8-50.2594 82.9308   5
  -5  -8   7 261.179 95.4126   6
   5   8  -7 227.012 119.189   5
  -5  -8   6 978.813 152.704   6
   5   8  -6 891.317 173.477   5
   5   8  -5 637.955 138.803   5
  -5  -8   4 2253.71 222.091   2
  -5  -8   3 1219.40 164.827   2
  -5  -8   2 1214.55 167.304   2
  -5  -8   1 371.781 101.196   2
  -5  -8   0 15.7992 64.9264   2
  -5  -8  -1-5.70711 65.7324   2
  -5  -8  -2-126.146 78.9323   2
  -5  -9  13-1.95226 62.8506   6
  -5  -9  12 7.18686 55.5340   6
  -5  -9  11 112.260 65.1726   6
  -5  -9  10 218.878 95.8409   6
  -5  -9   9 186.469 82.7334   6
  -5  -9   8 543.195 123.970   6
  -5  -9   2 298.678 103.509   2
  -5  -9   1 643.621 137.428   2
  -5  -9   0 964.928 156.120   2
  -5 -10  10 124.048 72.6157   6
  -5 -10   9 163.898 93.7622   6
   6 -14   1 113.375 61.7415   1
   6 -14   2 58.9287 74.5617   1
   6 -14   3 31.0153 72.0885   1
  -6  14  -3 146.113 88.2177   2
   6 -14   4 316.558 121.034   1
  -6  14  -4 406.632 137.714   2
   6 -14   5-60.3620 75.2460   1
  -6  14  -5 19.9865 114.331   2
  -6  14  -6 69.5009 76.4825   2
   6 -14   6 149.061 87.9787   1
  -6  14  -7 44.1776 67.9632   2
  -6  14  -8 308.786 126.215   2
  -6  13   3 213.879 98.9955   1
   6 -13  -3 177.662 88.0247   1
  -6  13   2 884.602 156.002   1
   6 -13  -2 949.692 160.841   1
   6 -13  -1 610.761 128.990   1
   6 -13   0 1324.08 177.894   1
   6 -13   1 853.073 134.397   7
   6 -13   1 1225.38 171.550   1
   6 -13   2 88.9325 48.0784   7
   6 -13   2 244.439 93.6868   1
  -6  13  -2 176.854 82.7759   2
   6 -13   3 279.025 90.4645   1
   6 -13   3 147.451 68.8961   7
  -6  13  -3 169.473 106.772   2
   6 -13   4 249.407 91.7219   1
   6 -13   4 238.342 86.1069   7
  -6  13  -4 141.463 91.9222   2
   6 -13   5-22.1038 54.7433   7
   6 -13   5 106.643 89.8304   1
  -6  13  -5 48.5347 97.8694   2
   6 -13   6 64.2533 52.1771   7
   6 -13   6 1.52314 67.6243   1
  -6  13  -6 70.5687 81.8665   2
  -6  13  -6 87.3399 79.3667  10
   6 -13   7 86.3264 68.1277   1
  -6  13  -7 60.8997 69.2387  10
   6 -13   8 99.0658 74.7690   1
  -6  13  -8 173.872 113.268   2
   6 -13   9 229.956 79.0106   1
  -6  13  -9 54.1220 93.2280   2
  -6  13 -10 218.182 118.249   2
   6 -12  -5 1601.79 199.243   1
  -6  12   5 1169.93 168.388   1
  -6  12   4 646.962 126.028   1
   6 -12  -4 1046.07 161.103   1
   6 -12  -3 725.671 126.403   7
   6 -12  -3 999.407 154.070   1
  -6  12   3 940.013 149.638   1
   6 -12  -2 1024.65 156.312   1
   6 -12  -2 733.850 117.456   7
  -6  12   1 117.771 66.4708   3
   6 -12  -1 277.353 93.4903   7
   6 -12  -1 303.601 92.3566   1
  -6  12   0 2.32203 65.0676   3
   6 -12   0 130.552 68.7377   7
   6 -12   0 68.4543 58.2096   1
  -6  12   0 67.0112 63.9350  10
  -6  12  -1 200.277 79.7429   3
   6 -12   1 336.626 89.5699   7
   6 -12   1 488.555 106.190   1
  -6  12  -1 326.743 111.710   2
  -6  12  -1 371.977 108.564  10
   6 -12   2 704.059 135.439   1
  -6  12  -2 379.845 97.1885   3
   6 -12   2 511.600 95.1790   7
  -6  12  -2 535.966 118.427  10
  -6  12  -3 875.793 143.130   3
   6 -12   3 989.547 136.455   7
  -6  12  -3 907.961 158.164   2
  -6  12  -3 951.567 144.924  10
   6 -12   3 977.662 152.734   1
  -6  12  -4 1346.42 174.364   3
   6 -12   4 1656.70 180.210   7
   6 -12   4 1483.24 178.313   1
  -6  12  -4 1205.39 182.833   2
  -6  12  -4 1369.68 177.308  10
   6 -12   5 1898.18 194.422   7
  -6  12  -5 1876.19 230.965   2
   6 -12   5 2238.71 217.629   1
  -6  12  -5 1644.67 207.006   3
  -6  12  -5 1757.38 192.850  10
  -6  12  -6 482.466 111.254   3
   6 -12   6 675.816 120.941   7
   6 -12   6 688.411 123.781   1
  -6  12  -6 912.517 170.555   2
  -6  12  -6 539.929 105.959  10
   6 -12   7 820.728 138.179   7
   6 -12   7 854.154 142.539   1
  -6  12  -7 702.995 145.574   2
  -6  12  -7 742.434 118.006  10
   6 -12   8 144.023 91.2763   7
   6 -12   8 95.1310 61.7713   1
  -6  12  -8 164.265 101.392   2
   6 -12   9 43.7142 68.4504   1
  -6  12  -9 10.9626 64.4107   2
   6 -12  10 86.0216 95.7110   1
  -6  12 -10 43.9882 86.7704   2
   6 -12  11-55.5577 72.9110   1
  -6  12 -11-96.7604 86.8027   2
  -6  12 -12 48.8993 93.4970   2
   6 -11  -8 86.7090 69.0039   8
  -6  11   8 217.873 101.709   6
  -6  11   8 118.373 81.4402   1
  -6  11   7 59.2526 79.0822   6
   6 -11  -7 156.701 83.6397   1
  -6  11   7 145.355 66.9244   1
   6 -11  -6 190.902 97.4890   1
  -6  11   6 104.622 73.6848   1
   6 -11  -5 107.832 68.1880   1
   6 -11  -5 205.876 75.0739   7
  -6  11   5 128.372 75.1863   1
  -6  11   4 22.6802 65.3688   3
   6 -11  -4-40.5001 51.7329   7
   6 -11  -4 24.6182 86.0108   1
  -6  11   4 74.8285 55.4169   1
  -6  11   3 249.126 91.6428   3
   6 -11  -3 297.225 82.8808   7
   6 -11  -3 359.675 104.617   1
  -6  11   3 163.647 87.2737  10
  -6  11   2 111.230 74.6533   3
   6 -11  -2 221.933 71.1062   7
   6 -11  -2 203.396 88.6491   1
  -6  11   2 146.882 89.9421  10
  -6  11   1 118.466 74.0176   3
   6 -11  -1 76.3223 60.7956   7
   6 -11  -1 105.471 78.7396   1
  -6  11   1 174.486 74.8668  10
  -6  11   0 782.299 136.124   3
   6 -11   0 904.446 132.923   7
   6 -11   0 864.457 137.668   1
  -6  11   0 768.753 124.690   2
  -6  11   0 767.340 133.114  10
   6 -11   1 449.414 104.358   1
  -6  11  -1 400.454 99.8903   3
   6 -11   1 477.212 98.6330   7
  -6  11  -1 641.249 123.129   2
  -6  11  -1 449.553 104.891  10
  -6  11  -2 792.822 136.263   3
   6 -11   2 998.090 134.402   7
  -6  11  -2 851.755 133.366   2
  -6  11  -2 901.612 142.100  10
   6 -11   2 993.748 146.718   1
  -6  11  -3 346.982 101.550   3
   6 -11   3 488.219 101.053   7
   6 -11   3 589.104 111.429   1
  -6  11  -3 503.315 114.056   2
  -6  11  -3 556.518 117.037  10
  -6  11  -4 131.455 57.2289   3
   6 -11   4 73.8298 66.7409   7
  -6  11  -4 127.737 72.8260  10
   6 -11   4 275.307 90.4382   1
  -6  11  -4 145.631 78.5497   2
  -6  11  -5 149.751 58.0262  10
  -6  11  -5 287.945 97.2222   3
   6 -11   5 194.001 73.6014   7
   6 -11   5 263.698 80.7651   1
  -6  11  -5 212.373 97.9860   2
  -6  11  -6 720.464 123.195   3
   6 -11   6 525.094 106.395   7
   6 -11   6 780.387 130.378   1
  -6  11  -6 837.763 142.745   2
  -6  11  -6 573.555 108.486  10
  -6  11  -7 646.801 123.539   3
   6 -11   7 584.026 122.991   7
   6 -11   7 695.901 123.648   1
  -6  11  -7 562.302 108.098  10
  -6  11  -7 635.805 135.512   2
  -6  11  -8 1017.98 154.930   3
   6 -11   8 688.323 133.185   7
   6 -11   8 1089.08 157.644   1
  -6  11  -8 1021.50 168.699   2
  -6  11  -8 813.247 118.269  10
   6 -11   9 1055.71 159.332   7
   6 -11   9 1067.80 162.022   1
  -6  11  -9 719.456 144.692   2
   6 -11  10 718.101 135.617   1
  -6  11 -10 669.832 147.653   2
   6 -11  11 646.498 136.489   1
  -6  11 -11 613.122 151.705   2
   6 -11  12 198.525 98.1251   1
  -6  11 -12 168.245 92.2471   2
   6 -10  -9 1127.46 174.334   8
  -6  10   9 1129.92 180.632   6
  -6  10   9 1128.58 167.503   1
   6 -10  -8 667.091 132.818   8
  -6  10   8 617.742 129.884   6
  -6  10   8 695.534 130.421   1
  -6  10   7 91.9837 60.8353   6
   6 -10  -7 118.531 83.4904   1
  -6  10   7 128.589 74.3000   1
  -6  10   6 350.942 94.1753   3
   6 -10  -6 408.163 102.786   7
  -6  10   6 230.661 81.2971   6
  -6  10   6 504.363 115.081   1
   6 -10  -6 392.986 91.8250   1
   6 -10  -6 423.671 99.4335   3
  -6  10   6 203.147 104.292  10
   6 -10  -5 839.383 140.206   1
  -6  10   5 771.584 135.093   3
   6 -10  -5 804.872 131.148   7
  -6  10   5 688.734 109.757   6
   6 -10  -5 835.871 128.802   3
  -6  10   5 799.424 134.203   1
  -6  10   5 858.669 154.477  10
  -6  10   4 846.878 128.932   3
   6 -10  -4 1077.62 137.337   7
   6 -10  -4 916.306 141.300   1
  -6  10   4 747.109 132.325   1
  -6  10   4 874.988 149.442  10
   6 -10  -3 1294.04 153.010   1
  -6  10   3 1027.18 143.736   3
   6 -10  -3 867.606 131.863   7
  -6  10   3 810.690 143.126  10
  -6  10   2 613.660 110.927   3
   6 -10  -2 960.342 125.374   7
   6 -10  -2 806.345 126.083   1
  -6  10   2 629.041 129.163  10
  -6  10   1 418.148 97.3608   3
   6 -10  -1 257.383 71.0936   7
   6 -10  -1 284.501 86.0744   1
  -6  10   1 254.632 86.0405  10
  -6  10   0 226.856 66.3076   3
   6 -10   0 317.016 89.6773   1
   6 -10   0 337.341 79.8832   7
  -6  10   0 418.665 94.1246   2
  -6  10   0 333.846 87.9206  10
   6 -10   1 304.628 84.5783   1
  -6  10  -1 147.790 64.7799   3
   6 -10   1 229.123 75.5874   7
  -6  10  -1 171.611 73.6211   2
  -6  10  -1 298.889 84.4133  10
  -6  10  -2 302.372 89.0560   3
   6 -10   2 126.328 68.4311   7
   6 -10   2 182.618 57.5246   1
  -6  10  -2 288.768 95.7356   2
  -6  10  -2 128.952 71.3333  10
  -6  10  -3 327.980 84.6422   3
   6 -10   3 484.292 86.4412   7
   6 -10   3 468.858 94.7822   1
  -6  10  -3 278.793 87.3713   2
  -6  10  -3 409.134 93.1722  10
  -6  10  -4 47.6033 50.9684   3
   6 -10   4 83.4906 63.7036   7
   6 -10   4 76.1813 79.6712   1
  -6  10  -4 121.007 83.2283   2
  -6  10  -4 51.1132 50.9380  10
  -6  10  -5 239.143 76.2736   3
   6 -10   5 118.298 52.8175   7
   6 -10   5 187.978 80.0832   1
  -6  10  -5 174.976 85.8086   2
  -6  10  -5 68.7765 53.8748  10
  -6  10  -6 338.129 93.3171   3
   6 -10   6 495.790 102.938   7
   6 -10   6 362.758 79.4106   1
  -6  10  -6 449.436 98.6278  10
  -6  10  -6 461.214 111.118   2
  -6  10  -7 251.159 87.8720   3
   6 -10   7 308.952 90.2781   7
   6 -10   7 264.916 83.2941   1
  -6  10  -7 307.997 90.3678   2
  -6  10  -7 162.938 64.1935  10
  -6  10  -8-72.4687 58.0267   3
   6 -10   8-125.126 86.0087   1
   6 -10   8-41.4539 60.6010   7
  -6  10  -8-0.86160 75.7807   2
  -6  10  -8-26.0950 41.4531  10
  -6  10  -9 87.5243 61.9974   3
   6 -10   9 196.804 95.2911   1
   6 -10   9 230.293 97.6011   7
  -6  10  -9 28.5532 68.1176   2
   6 -10  10 143.293 83.3355   1
  -6  10 -10 70.4465 77.7493   3
  -6  10 -10-56.7336 72.3574   2
   6 -10  11 383.765 108.275   1
  -6  10 -11 127.457 83.4893   2
   6 -10  12 461.629 115.795   1
  -6  10 -12 229.131 98.1725   2
  -6  10 -13 357.414 102.690   2
   6  -9 -11 183.640 101.947   8
  -6   9  11 198.351 73.1636   1
  -6   9  11 179.722 82.0479   6
   6  -9 -10-28.7870 65.0871   8
  -6   9  10-38.8777 74.2554   6
  -6   9  10-10.6995 50.6318   1
   6  -9  -9 286.921 81.2116   8
  -6   9   9 257.002 100.866   6
  -6   9   9 290.470 91.8313   1
  -6   9   9 192.767 85.5458  10
   6  -9  -8 1566.47 178.971   8
  -6   9   8 1159.03 160.493   3
  -6   9   8 958.680 152.242   6
  -6   9   8 1281.42 159.295   1
  -6   9   8 1061.72 161.636  10
   6  -9  -8 1353.74 160.888   3
  -6   9   7 1530.95 172.828   1
   6  -9  -7 1753.79 179.054   7
  -6   9   7 1541.09 174.413   3
  -6   9   7 1647.61 184.257   6
   6  -9  -7 1935.71 201.010   1
   6  -9  -7 1880.03 183.436   3
  -6   9   7 2048.69 225.814  10
  -6   9   6 3173.92 233.379   1
   6  -9  -6 3158.63 235.148   7
  -6   9   6 3208.64 238.100   6
   6  -9  -6 3235.17 241.355   1
   6  -9  -6 2735.31 215.050   3
  -6   9   6 2882.00 258.479  10
  -6   9   6 3017.36 242.502   3
  -6   9   5 3183.28 232.987   1
   6  -9  -5 3317.59 234.453   7
  -6   9   5 2934.64 223.200   6
   6  -9  -5 3466.98 245.089   1
   6  -9  -5 3210.42 228.011   3
  -6   9   5 2829.89 247.422  10
  -6   9   5 2986.94 235.226   3
  -6   9   4 2215.16 192.953   1
   6  -9  -4 2254.19 187.910   7
  -6   9   4 1581.60 166.946   6
   6  -9  -4 2413.25 199.677   1
  -6   9   4 2024.09 208.946  10
  -6   9   4 1974.78 180.816   3
   6  -9  -3 1900.64 172.589   7
   6  -9  -3 1803.84 175.895   1
  -6   9   3 1778.70 196.582  10
  -6   9   3 1772.51 172.349   3
  -6   9   2 35.0906 44.4861   3
   6  -9  -2-5.42495 46.1547   7
   6  -9  -2 30.0984 46.0812   1
  -6   9   2-68.1583 71.3864  10
  -6   9   1 1154.53 135.207   3
   6  -9  -1 1161.80 138.181   7
   6  -9  -1 984.286 125.688   1
  -6   9   1 866.356 112.235   2
  -6   9   1 1004.34 140.186  10
   6  -9   0 396.878 84.2718   1
  -6   9   0 499.838 97.1718   3
   6  -9   0 583.075 90.8446   7
  -6   9   0 761.091 106.820   2
  -6   9   0 494.972 99.3035  10
   6  -9   1 3372.96 227.609   7
  -6   9  -1 3295.77 221.338   2
  -6   9  -1 3397.18 243.891  10
   6  -9   1 3106.53 222.967   1
  -6   9  -1 3037.71 218.971   3
   6  -9   2 2460.83 196.655   7
  -6   9  -2 2235.01 194.284   2
   6  -9   2 2472.53 197.146   1
  -6   9  -2 2521.82 207.381  10
  -6   9  -2 2261.87 189.145   3
   6  -9   3 3267.19 224.031   7
  -6   9  -3 3005.82 219.733   2
   6  -9   3 3180.81 231.325   1
  -6   9  -3 2999.23 222.810  10
  -6   9  -3 2999.82 220.431   3
  -6   9  -4 1170.02 138.596   3
   6  -9   4 1496.36 161.744   7
   6  -9   4 1095.05 135.247   1
  -6   9  -4 1356.42 157.698   2
  -6   9  -4 1264.93 141.102  10
  -6   9  -5 93.5383 54.3045   3
   6  -9   5 81.3178 64.4969   7
  -6   9  -5 162.230 71.5654   2
  -6   9  -5 150.962 59.2993  10
  -6   9  -6 28.9449 50.3608   3
   6  -9   6 144.064 59.9821   7
   6  -9   6 49.6570 67.6843   1
  -6   9  -6 101.255 68.3315  10
  -6   9  -7 117.728 60.1984   3
   6  -9   7 200.390 81.5285   1
   6  -9   7 287.648 92.0584   7
  -6   9  -7 145.360 81.0188   2
  -6   9  -7 188.470 74.6177  10
   6  -9   8 152.537 72.9193   1
  -6   9  -8-24.5169 48.8958   3
   6  -9   8 4.12951 49.0667   7
  -6   9  -8-0.40024 61.5786   2
   6  -9   9 43.5821 62.5857   1
  -6   9  -9-43.7127 66.2533   3
   6  -9   9-49.4373 75.8159   7
  -6   9  -9-54.8442 82.3888   2
  -6   9 -10-64.1245 60.7625   3
   6  -9  10-36.1302 76.4485   7
  -6   9 -10 12.0948 55.8178   2
   6  -9  10-23.9425 66.8895   1
  -6   9 -11-20.2016 60.9764   2
   6  -9  11 135.376 91.5877   1
  -6   9 -12-70.3494 60.6386   2
   6  -9  12 34.2854 65.7922   1
  -6   9 -13 88.1883 74.5790   2
   6  -9  13 133.329 82.0489   1
   6  -8 -12-69.2335 69.5008   8
  -6   8  12 1.82117 86.2440   6
  -6   8  12 57.1747 53.6684   1
   6  -8 -11 200.810 83.8469   8
  -6   8  11 136.599 72.3162   1
  -6   8  11 247.697 93.5196   6
   6  -8 -10 115.559 74.9740   8
  -6   8  10-8.31252 63.8866   6
  -6   8  10-3.57358 61.1608   1
   6  -8  -9 86.4346 57.4098   8
  -6   8   9 0.83601 57.4081   3
   6  -8  -9 32.9844 59.9116   7
  -6   8   9-86.5796 76.9886   6
  -6   8   9 34.4217 49.8331   1
  -6   8   9 160.603 69.9003  10
   6  -8  -9 185.055 71.5454   3
   6  -8  -8 72.1257 64.5469   8
  -6   8   8 93.3589 64.7235   3
   6  -8  -8 73.9269 70.7629   7
  -6   8   8 95.6974 63.5229   6
  -6   8   8 79.1681 67.3363   1
  -6   8   8 121.880 77.4523  10
   6  -8  -8 49.5089 53.7783   3
   6  -8  -7 51.1971 49.6926   1
  -6   8   7 144.496 62.3308   3
   6  -8  -7 62.2695 54.3379   7
  -6   8   7 74.7635 50.2402   6
  -6   8   7 41.8618 44.1819   1
  -6   8   7 116.327 67.7594  10
   6  -8  -7 77.2561 49.8788   3
  -6   8   6 11.7316 49.6701   3
   6  -8  -6 95.5248 71.3550   7
   6  -8  -6-26.7775 47.0095   1
  -6   8   6 81.7793 50.9552   6
  -6   8   6-89.4644 49.0599   1
  -6   8   6 31.9919 61.9981  10
   6  -8  -6 69.4247 56.5458   3
  -6   8   5 174.211 66.3855   3
   6  -8  -5 144.753 76.5601   7
  -6   8   5 165.315 64.0113   6
   6  -8  -5 50.9573 45.7354   1
  -6   8   5 154.753 57.2471   1
  -6   8   5 79.1569 59.3797  10
   6  -8  -5 97.4730 47.2864   3
   6  -8  -4 829.599 125.777   1
  -6   8   4 990.712 124.254   3
   6  -8  -4 1044.36 131.294   7
  -6   8   4 824.832 108.958   6
  -6   8   4 1105.41 146.407  10
   6  -8  -3 1338.04 140.821   7
  -6   8   3 1121.28 110.643   6
   6  -8  -3 1269.96 133.520   1
  -6   8   3 1349.58 144.227   3
  -6   8   3 1294.49 156.141  10
   6  -8  -2 4957.80 271.841   7
  -6   8   2 4866.00 228.743   2
   6  -8  -2 4737.70 258.108   1
  -6   8   2 4530.45 284.760  10
  -6   8   2 4723.18 262.764   3
   6  -8  -1 5914.32 291.441   7
  -6   8   1 5818.73 264.441   2
   6  -8  -1 5845.53 293.832   1
  -6   8   1 5768.90 315.270  10
  -6   8   1 5894.13 291.568   3
   6  -8   0 3363.24 222.859   7
  -6   8   0 2770.51 192.101   2
   6  -8   0 3238.12 214.256   1
  -6   8   0 3248.05 229.979  10
  -6   8   0 2963.42 202.438   3
  -6   8  -1 711.333 100.083   3
   6  -8   1 861.311 115.783   7
   6  -8   1 821.339 109.190   1
  -6   8  -1 829.526 109.986   2
  -6   8  -1 825.648 116.238  10
  -6   8  -2 54.7686 42.6401   3
   6  -8   2 78.5264 56.6771   7
   6  -8   2 60.5188 53.8014   1
  -6   8  -2 60.4352 45.1788   2
  -6   8  -2 84.0943 50.6547  10
  -6   8  -3 17.1108 47.3558   3
   6  -8   3-30.7734 47.2818   7
   6  -8   3 12.9941 48.6702   1
  -6   8  -3 4.70881 48.0625   2
  -6   8  -3-1.83501 40.2905  10
  -6   8  -4 532.796 91.1176   3
   6  -8   4 516.244 93.0876   7
   6  -8   4 390.443 83.3851   1
  -6   8  -4 380.018 84.8592   2
  -6   8  -4 412.566 80.4532  10
   6  -8   5 2137.88 186.934   7
  -6   8  -5 1974.17 177.129   2
   6  -8   5 2224.10 187.126   1
  -6   8  -5 2036.19 173.754   3
  -6   8  -5 2026.80 171.991  10
   6  -8   6 2630.58 219.934   7
  -6   8  -6 2497.96 201.948   2
   6  -8   6 2842.46 217.092   1
  -6   8  -6 2373.81 188.443   3
  -6   8  -6 2401.34 189.418  10
   6  -8   7 4037.37 273.568   7
  -6   8  -7 3677.60 256.114   2
   6  -8   7 4099.44 269.801   1
  -6   8  -7 3523.43 242.074   3
  -6   8  -8 2895.43 233.228   2
   6  -8   8 2918.63 231.454   1
  -6   8  -8 2792.91 217.363   3
  -6   8  -9 265.725 78.4427   3
   6  -8   9 374.479 92.2530   7
  -6   8  -9 233.177 76.6102   2
   6  -8   9 398.295 91.0653   1
  -6   8 -10 238.053 83.2346   3
   6  -8  10 345.830 93.3996   7
  -6   8 -10 237.735 93.4291   2
   6  -8  10 311.645 92.5881   1
  -6   8 -11 75.3793 67.2695   3
  -6   8 -11 145.273 84.8236   2
   6  -8  11 13.9950 56.7119   1
  -6   8 -12 6.69740 61.3042   2
   6  -8  12 117.921 63.1111   1
  -6   8 -13-32.3751 68.1794   2
   6  -8  13 138.308 92.6962   1
  -6   8 -14 227.993 102.882   2
   6  -7 -13 1631.10 191.837   8
  -6   7  13 1438.58 203.822   6
  -6   7  13 1263.21 162.259   1
   6  -7 -12 1310.20 172.192   8
  -6   7  12 1600.41 212.006   6
  -6   7  12 1525.16 174.340   1
   6  -7 -11 873.342 138.016   8
  -6   7  11 800.089 139.645   6
  -6   7  11 678.751 114.991   1
   6  -7 -11 697.434 114.623   3
   6  -7 -10 291.337 77.1430   8
   6  -7 -10 247.760 86.5861   7
  -6   7  10 259.926 100.162   6
  -6   7  10 255.722 71.6213   1
   6  -7 -10 308.065 75.9837   3
   6  -7  -9 116.570 61.5558   8
   6  -7  -9 159.196 71.6391   7
  -6   7   9 96.5261 70.8220   6
  -6   7   9 77.4423 46.4779   1
  -6   7   9 199.412 76.8672  10
   6  -7  -9 105.985 49.7824   3
   6  -7  -8 37.5634 52.2977   8
  -6   7   8 64.8028 67.9313   3
   6  -7  -8 39.1791 56.6343   7
  -6   7   8-28.5270 51.3503   6
  -6   7   8 36.5865 49.5249   1
  -6   7   8 156.465 61.7565  10
   6  -7  -8 84.5837 62.5557   3
  -6   7   7 1255.20 135.423   1
   6  -7  -7 1511.09 165.435   7
  -6   7   7 1183.93 140.614   3
  -6   7   7 1241.02 144.557   6
   6  -7  -7 1414.76 148.542   1
   6  -7  -7 1291.28 129.904   3
  -6   7   7 1277.68 152.549  10
  -6   7   6 852.840 114.900   3
   6  -7  -6 1205.95 134.199   7
   6  -7  -6 953.920 116.698   1
  -6   7   6 892.357 112.802   6
  -6   7   6 811.530 108.443   1
  -6   7   6 829.008 123.678  10
   6  -7  -6 1025.92 116.501   3
  -6   7   5 325.307 78.4608   3
   6  -7  -5 354.046 82.3751   7
  -6   7   5 218.342 63.0494   6
   6  -7  -5 310.218 78.4663   1
  -6   7   5 245.392 65.0584   1
  -6   7   5 261.139 75.7009  10
   6  -7  -5 317.610 71.9316   3
   6  -7  -4 627.998 90.8220   1
  -6   7   4 644.790 96.4213   3
   6  -7  -4 889.398 118.861   7
  -6   7   4 702.508 99.1083   6
   6  -7  -4 859.866 101.778   3
  -6   7   4 572.292 105.975  10
  -6   7   3 227.347 65.8949   3
   6  -7  -3 162.554 65.9894   7
  -6   7   3 184.170 53.2696   6
   6  -7  -3 122.635 46.7474   1
  -6   7   3 125.536 53.3984  10
  -6   7   2 149.980 55.3114   3
   6  -7  -2 181.863 57.6046   7
   6  -7  -2 76.3875 42.5346   1
  -6   7   2 67.7574 33.3700   6
  -6   7   2 43.9577 31.0396   2
  -6   7   2 120.600 58.4408  10
   6  -7  -1-13.4774 47.1229   1
  -6   7   1-48.2436 45.8150   3
   6  -7  -1 50.5353 52.9109   7
  -6   7   1 20.8954 35.8939   2
  -6   7   1 54.1788 49.6299  10
  -6   7   0 131.335 57.8334   3
   6  -7   0 181.768 64.3351   7
   6  -7   0 217.793 60.9527   1
  -6   7   0 184.466 54.9409   2
  -6   7   0-9.51821 45.4211  10
  -6   7  -1 181.626 57.6905   3
   6  -7   1 216.669 65.4183   7
   6  -7   1 237.448 69.4372   1
  -6   7  -1 175.421 62.9122   2
  -6   7  -1 225.527 76.2800  10
   6  -7   2 3142.00 213.998   7
  -6   7  -2 2791.96 190.146   2
   6  -7   2 2820.35 193.457   1
  -6   7  -2 2876.73 201.172  10
  -6   7  -2 2949.92 190.865   3
   6  -7   3 2218.57 177.392   7
  -6   7  -3 2163.82 167.555   2
   6  -7   3 2210.49 172.655   1
  -6   7  -3 2236.16 175.711  10
  -6   7  -3 2030.24 159.458   3
   6  -7   4 1626.80 161.866   7
  -6   7  -4 1687.09 156.400   2
   6  -7   4 1427.06 149.387   1
  -6   7  -4 1744.47 151.038   3
  -6   7  -4 1719.43 152.778  10
   6  -7   5 1591.34 161.743   7
  -6   7  -5 1396.69 145.329   2
   6  -7   5 1280.51 145.047   1
  -6   7  -5 1272.53 132.831   3
  -6   7  -5 1304.28 131.268  10
  -6   7  -6 153.021 65.2362   3
   6  -7   6 318.486 82.0308   7
  -6   7  -6 183.504 60.4381   2
   6  -7   6 155.246 66.6049   1
  -6   7  -7-68.1054 58.3507   3
   6  -7   7-50.5838 67.6068   7
  -6   7  -7-95.5424 84.9286   2
   6  -7   7-15.4728 50.4524   1
  -6   7  -8 90.0407 55.4274   3
   6  -7   8-10.4132 65.3835   7
  -6   7  -8 74.2921 58.4254   2
   6  -7   8 72.7386 60.8357   1
  -6   7  -9 628.936 107.406   3
   6  -7   9 635.391 130.264   7
  -6   7  -9 722.854 115.957   2
   6  -7   9 828.909 134.013   1
  -6   7 -10 954.953 138.938   3
   6  -7  10 702.742 135.556   7
  -6   7 -10 987.413 144.113   2
   6  -7  10 1037.11 147.120   1
   6  -7  11 1937.26 205.649   1
  -6   7 -11 1562.38 186.072   2
  -6   7 -11 1592.44 180.923   3
  -6   7 -12 699.838 129.491   2
   6  -7  12 900.285 152.520   1
  -6   7 -13 457.104 121.496   2
   6  -7  13 678.047 135.071   1
  -6   7 -14 393.690 116.522   2
  -6   6  14 409.591 125.037   6
   6  -6 -13 64.5964 65.0830   8
  -6   6  13 247.331 93.7314   6
   6  -6 -12-72.8452 61.8368   8
  -6   6  12 63.3545 81.2873   6
   6  -6 -12-36.3266 48.5525   3
  -6   6  12 61.1208 47.9152   1
   6  -6 -11 364.068 88.2705   8
  -6   6  11 266.078 101.805   6
  -6   6  11 289.234 78.8547   1
   6  -6 -11 309.988 75.9504   3
   6  -6 -10 2113.78 181.007   8
  -6   6  10 2026.32 177.270   1
   6  -6 -10 1831.27 196.373   7
  -6   6  10 2086.73 210.396   6
   6  -6 -10 2292.18 186.718   3
   6  -6  -9 3938.73 242.288   8
  -6   6   9 4125.30 238.279   1
   6  -6  -9 3972.89 263.462   7
  -6   6   9 4362.46 291.594   6
   6  -6  -9 3751.04 234.794   3
  -6   6   9 4482.28 272.514  10
   6  -6  -8 5097.90 269.133   8
  -6   6   8 5126.64 265.130   1
  -6   6   8 5461.35 309.149   6
   6  -6  -8 5775.60 278.184   3
  -6   6   8 5930.64 311.585  10
  -6   6   7 3056.10 196.662   1
  -6   6   7 3264.72 224.534   6
   6  -6  -7 3092.96 197.351   1
   6  -6  -7 3135.05 194.839   3
  -6   6   7 3298.74 229.349  10
  -6   6   7 2868.53 200.327   3
  -6   6   6 1937.82 151.761   1
   6  -6  -6 1740.98 173.501   7
  -6   6   6 2254.66 178.070   6
   6  -6  -6 2121.60 157.256   1
   6  -6  -6 2102.61 156.378   3
  -6   6   6 1915.97 175.094  10
  -6   6   6 2182.61 169.214   3
  -6   6   5 403.280 77.9009   3
   6  -6  -5 386.357 86.0590   7
  -6   6   5 428.647 80.6686   6
   6  -6  -5 378.973 66.4354   1
  -6   6   5 387.891 72.8820   1
  -6   6   5 414.776 79.8676  10
   6  -6  -5 414.861 69.5184   3
   6  -6  -4 223.250 56.1928   1
  -6   6   4 160.528 55.5463   3
   6  -6  -4 242.159 72.3311   7
  -6   6   4 196.256 53.9134   6
  -6   6   4 174.913 70.5215  10
   6  -6  -3 1764.26 154.024   7
  -6   6   3 1828.45 128.265   6
  -6   6   3 1795.49 116.523   2
   6  -6  -3 1801.80 140.946   1
  -6   6   3 1656.48 153.860  10
  -6   6   3 1624.23 133.695   3
   6  -6  -2 1516.20 142.189   7
  -6   6   2 1380.76 105.580   6
  -6   6   2 1668.22 117.581   2
   6  -6  -2 1425.85 126.778   1
  -6   6   2 1569.91 148.384  10
  -6   6   2 1429.96 121.378   3
   6  -6  -1 1398.36 135.152   7
  -6   6   1 1553.76 101.109   6
  -6   6   1 1474.59 119.742   2
   6  -6  -1 1501.71 122.738   1
  -6   6   1 1411.02 139.849  10
  -6   6   1 1443.90 126.870   3
   6  -6   0 2546.10 184.362   7
  -6   6   0 2473.59 161.272   2
   6  -6   0 2635.17 171.325   1
  -6   6   0 2593.42 185.962  10
  -6   6   0 2573.67 162.126   3
   6  -6   1 1636.35 149.742   7
  -6   6  -1 1399.34 118.251   2
   6  -6   1 1458.53 131.171   1
  -6   6  -1 1348.84 138.274  10
  -6   6  -1 1564.31 129.172   3
  -6   6  -2 819.405 92.0642   3
   6  -6   2 639.764 97.0791   7
   6  -6   2 754.267 94.3669   1
   6  -6   2 725.464 82.0357   4
  -6   6  -2 661.340 92.2310   2
  -6   6  -2 728.638 103.405  10
  -6   6  -3 132.735 50.4663   3
   6  -6   3 178.467 58.1699   1
   6  -6   3 242.468 76.7688   7
   6  -6   3 88.7275 42.9279   4
  -6   6  -3 34.5906 49.8056   2
  -6   6  -3 92.6809 46.9756  10
   6  -6   4 24.9014 50.2388   1
  -6   6  -4 7.80686 37.8974   3
   6  -6   4 133.871 74.8208   7
   6  -6   4 74.1425 38.3224   4
  -6   6  -4 28.2781 44.7302   2
  -6   6  -5-26.5866 39.1405   3
   6  -6   5 12.4837 60.3342   7
  -6   6  -5-4.81910 43.7125   2
   6  -6   5-4.57783 41.3436   1
  -6   6  -6 754.238 102.700   3
   6  -6   6 740.033 116.570   7
  -6   6  -6 718.510 114.230   2
   6  -6   6 634.253 102.033   1
  -6   6  -7 173.858 64.1854   3
   6  -6   7 195.832 73.3500   7
  -6   6  -7 137.520 64.7610   2
   6  -6   7 222.156 73.7618   1
  -6   6  -8 90.0163 61.7660   3
   6  -6   8 250.694 91.7259   7
  -6   6  -8 90.9998 46.5912   2
   6  -6   8 126.403 54.8959   1
  -6   6  -9 271.519 78.4500   3
   6  -6   9 266.846 88.6914   7
  -6   6  -9 481.209 99.3088   2
   6  -6   9 350.127 83.0952   1
  -6   6 -10 437.488 94.0828   3
   6  -6  10 386.738 108.643   7
  -6   6 -10 501.848 119.151   2
  -6   6 -11 246.826 72.7001   3
   6  -6  11 305.284 74.7162   1
  -6   6 -11 296.532 102.551   2
   6  -6  12-2.37817 70.3777   1
  -6   6 -12-56.0636 65.5003   2
   6  -6  13-25.1510 54.1264   1
  -6   6 -13-35.8805 72.3926   2
  -6   6 -14 95.1770 74.5817   2
  -6   5  14 82.6632 90.9121   6
  -6   5  13 123.467 83.8089   6
   6  -5 -13 71.0627 52.5022   3
   6  -5 -12 229.126 71.9315   8
  -6   5  12 182.027 97.1098   6
   6  -5 -12 333.000 80.2133   3
   6  -5 -11 320.827 75.4455   8
   6  -5 -11 381.518 89.6552   7
  -6   5  11 457.936 110.374   6
  -6   5  11 377.610 81.8199   1
   6  -5 -11 248.784 73.1420   3
   6  -5 -10 1571.01 148.482   8
  -6   5  10 1597.90 145.184   1
   6  -5 -10 1614.75 176.616   7
  -6   5  10 1751.09 191.761   6
   6  -5 -10 1663.17 149.991   3
   6  -5  -9 791.125 100.025   8
   6  -5  -9 709.007 119.658   7
  -6   5   9 910.379 130.418   6
  -6   5   9 770.018 102.171   1
  -6   5   9 754.421 105.688  10
   6  -5  -9 883.808 107.459   3
   6  -5  -8 741.743 96.1390   8
   6  -5  -8 661.233 117.131   7
  -6   5   8 814.432 123.192   6
  -6   5   8 636.725 91.5131   1
  -6   5   8 764.117 103.787  10
   6  -5  -8 876.248 99.9533   3
  -6   5   7 262.693 78.4166   3
   6  -5  -7 57.0141 53.3287   7
  -6   5   7 131.516 55.0827   6
  -6   5   7 131.223 47.0695   1
  -6   5   7 215.188 63.3551  10
   6  -5  -7 189.321 46.8794   3
  -6   5   6 1083.62 106.159   1
   6  -5  -6 850.786 131.476   7
  -6   5   6 1271.77 130.597   6
   6  -5  -6 1168.29 109.818   1
   6  -5  -6 1373.33 116.250   3
  -6   5   6 1421.15 134.156  10
  -6   5   6 1371.90 123.599   3
  -6   5   5 5683.16 244.714   1
   6  -5  -5 5569.40 282.721   7
  -6   5   5 5673.30 269.814   6
  -6   5   5 6498.02 263.511   3
   6  -5  -5 5858.93 236.366   3
  -6   5   5 5886.25 286.988  10
   6  -5  -4 13151.1 443.065   7
  -6   5   4 13227.7 404.705   6
  -6   5   4 11865.5 332.001   2
   6  -5  -4 12911.5 385.741   1
  -6   5   4 13158.8 446.180  10
  -6   5   4 12939.7 389.660   3
   6  -5  -3 4906.68 248.722   7
  -6   5   3 4935.50 216.519   6
  -6   5   3 4381.95 188.999   2
   6  -5  -3 4871.67 214.767   1
  -6   5   3 4610.96 247.843  10
  -6   5   3 4743.05 212.426   3
   6  -5  -2 7236.46 301.984   7
  -6   5   2 7003.06 249.942   6
  -6   5   2 6792.96 254.114   2
   6  -5  -2 6811.41 260.132   1
  -6   5   2 6869.80 304.157  10
  -6   5   2 6741.58 256.564   3
   6  -5  -1 4644.01 238.611   7
  -6   5   1 4359.98 183.570   6
  -6   5   1 4652.59 211.161   2
   6  -5  -1 4236.62 205.906   1
  -6   5   1 4565.44 243.943  10
  -6   5   1 4506.50 201.978   3
   6  -5   0 2577.93 174.083   7
  -6   5   0 2432.99 150.150   2
   6  -5   0 2329.24 146.928   1
   6  -5   0 2312.09 132.947   4
  -6   5   0 2306.92 169.460  10
  -6   5   0 2019.42 130.337   3
  -6   5  -1 213.498 48.1059   3
   6  -5   1 276.049 66.2776   7
   6  -5   1 312.210 57.5361   1
   6  -5   1 193.531 40.5378   4
  -6   5  -1 318.535 65.9387   2
  -6   5  -1 244.285 70.0283  10
   6  -5   2 956.228 104.432   1
   6  -5   2 1035.36 116.945   7
   6  -5   2 1030.83 96.4854   4
  -6   5  -2 900.431 103.247   2
  -6   5  -2 1011.60 96.6816   3
   6  -5   3 3723.55 228.758   7
  -6   5  -3 3791.89 218.120   2
   6  -5   3 3948.32 212.135   1
   6  -5   3 3436.16 184.293   4
  -6   5  -3 3916.68 194.786   3
   6  -5   4 2955.68 205.883   7
  -6   5  -4 2678.67 192.365   2
   6  -5   4 2812.45 186.126   1
   6  -5   4 2994.01 175.536   4
  -6   5  -4 3154.12 179.300   3
   6  -5   5 3423.14 229.289   7
  -6   5  -5 3083.28 209.375   2
   6  -5   5 3065.50 202.723   1
   6  -5   5 3063.25 183.506   4
  -6   5  -5 2903.59 179.784   3
   6  -5   6 2073.27 180.540   7
  -6   5  -6 1920.18 166.377   2
   6  -5   6 1987.10 168.743   1
  -6   5  -6 1841.96 149.224   3
  -6   5  -7 603.882 100.927   3
   6  -5   7 726.965 123.742   7
   6  -5   7 715.925 112.566   1
  -6   5  -7 640.237 109.733   2
  -6   5  -8 59.8813 49.4646   3
   6  -5   8 29.9445 60.6178   7
   6  -5   8 186.474 84.7484   1
  -6   5  -8 36.6804 56.8683   2
  -6   5  -9 283.774 69.8392   3
   6  -5   9 276.890 96.2179   7
   6  -5   9 369.833 91.1920   1
  -6   5  -9 364.384 91.3090   2
  -6   5 -10 121.327 63.7478   3
   6  -5  10 229.658 89.8570   7
   6  -5  10 114.986 65.9743   1
  -6   5 -10 112.067 79.5684   2
  -6   5 -11-95.6305 59.2145   3
   6  -5  11-111.692 74.7177   7
   6  -5  11 33.3075 65.8497   1
  -6   5 -11 67.7482 65.3119   2
   6  -5  12 75.9963 58.7285   1
  -6   5 -12 10.1036 71.0934   2
   6  -5  13 57.9231 57.3424   1
  -6   5 -13-44.4306 59.6493   2
  -6   4  15 716.426 151.182   6
  -6   4  14 260.413 107.188   6
  -6   4  13 496.735 131.685   6
   6  -4 -12-51.3630 67.0848   7
  -6   4  12 148.520 80.3734   6
   6  -4 -12 154.780 66.5247   3
   6  -4 -11 207.246 77.0302   7
  -6   4  11 266.485 91.9744   6
   6  -4 -11 409.572 78.9135   3
   6  -4 -10 297.140 62.9810   8
   6  -4 -10 141.270 56.3413   7
  -6   4  10 346.150 90.4879   6
   6  -4 -10 286.472 63.4190   3
   6  -4  -9 136.234 49.2735   8
   6  -4  -9 61.3339 49.4038   7
  -6   4   9 73.6509 60.0150   6
  -6   4   9 64.9752 35.4244  10
   6  -4  -9 58.0050 34.5860   3
   6  -4  -8 440.080 70.5129   8
   6  -4  -8 306.144 77.6385   7
  -6   4   8 402.591 89.8698   6
  -6   4   8 232.286 47.3393   1
  -6   4   8 309.452 67.0081  10
   6  -4  -8 435.527 69.8609   3
   6  -4  -7 264.978 49.5151   8
   6  -4  -7 140.742 63.1324   7
  -6   4   7 160.385 63.5076   6
  -6   4   7 119.187 42.5310   1
  -6   4   7 188.596 56.5026  10
   6  -4  -7 241.227 51.5610   3
   6  -4  -6 82.8676 39.7161   1
  -6   4   6 171.734 46.3142   3
   6  -4  -6 108.116 61.9279   7
  -6   4   6 222.568 65.1314   6
  -6   4   6 132.681 40.1233   1
  -6   4   6 175.931 56.4679  10
   6  -4  -6 192.372 49.7543   3
  -6   4   5 420.570 64.7499   3
   6  -4  -5 509.676 84.1768   7
  -6   4   5 358.649 77.4309   6
  -6   4   5 501.608 61.2785   1
   6  -4  -5 526.118 75.7568   1
  -6   4   5 476.705 78.3429  10
   6  -4  -5 475.214 58.7816   3
  -6   4   4 534.387 67.1913   3
   6  -4  -4 585.622 85.9140   7
  -6   4   4 554.183 76.8196   6
  -6   4   4 523.705 58.5894   2
  -6   4   4 473.995 75.2170  10
   6  -4  -4 457.386 59.4415   1
  -6   4   3 3.82067 29.0351   3
   6  -4  -3 52.3379 51.8477   7
   6  -4  -3 22.3445 30.9055   1
  -6   4   3 29.5113 35.6616   6
  -6   4   3 2.88115 29.8138   2
  -6   4   3 21.0207 40.8599  10
   6  -4  -2 833.561 103.567   7
  -6   4   2 792.993 81.6436   6
   6  -4  -2 856.501 71.8462   4
  -6   4   2 731.665 81.8325   2
  -6   4   2 812.226 77.2446   3
  -6   4   2 780.359 97.8632  10
   6  -4  -2 764.897 77.8459   1
   6  -4  -1 2693.87 186.442   7
  -6   4   1 2958.51 153.751   6
  -6   4   1 2179.58 146.829   2
   6  -4  -1 3248.06 159.427   1
   6  -4  -1 3305.96 144.644   4
  -6   4   1 2964.56 188.494  10
  -6   4   1 3153.26 148.904   3
   6  -4   0 5806.35 263.626   7
  -6   4   0 5990.59 210.788   6
  -6   4   0 5698.93 243.364   2
   6  -4   0 5112.35 215.275   1
   6  -4   0 5366.00 201.318   4
  -6   4   0 5441.55 203.168   3
   6  -4   1 2773.18 180.296   7
  -6   4  -1 2392.56 125.103   6
  -6   4  -1 2676.22 170.202   2
   6  -4   1 2550.72 149.080   1
   6  -4   1 2673.36 141.758   4
  -6   4  -1 2335.64 130.916   3
   6  -4   2 8403.18 337.617   7
  -6   4  -2 8763.00 252.331   6
  -6   4  -2 8505.59 330.290   2
   6  -4   2 8330.37 304.785   1
   6  -4   2 9015.92 288.172   4
  -6   4  -2 8440.48 276.213   3
   6  -4   3 5424.36 271.442   7
  -6   4  -3 4880.47 256.061   2
   6  -4   3 5108.85 242.060   1
   6  -4   3 5270.57 221.435   4
  -6   4  -3 5163.31 214.165   3
   6  -4   4 2068.92 170.483   7
  -6   4  -4 1996.18 160.495   2
   6  -4   4 1897.86 147.403   1
   6  -4   4 1783.50 133.857   4
  -6   4  -4 1746.37 127.641   3
  -6   4  -5 96.1204 35.7274   3
   6  -4   5 77.8342 53.4012   7
   6  -4   5 107.048 41.5083   4
  -6   4  -5 177.782 52.4110   2
   6  -4   5 102.177 50.1318   1
  -6   4  -6 322.216 61.8022   3
   6  -4   6 316.212 83.1187   7
   6  -4   6 316.285 76.1083   1
  -6   4  -6 426.097 79.9861   2
   6  -4   7 1780.73 177.948   7
  -6   4  -7 1532.59 159.453   2
   6  -4   7 1615.09 155.576   1
  -6   4  -7 1723.85 145.009   3
   6  -4   8 1200.79 155.712   7
  -6   4  -8 1339.59 152.626   2
   6  -4   8 1327.02 148.546   1
  -6   4  -8 1133.09 127.465   3
   6  -4   9 3371.28 241.330   1
  -6   4  -9 2844.98 206.914   3
   6  -4  10 1207.66 169.055   7
   6  -4  10 1414.90 168.601   1
  -6   4 -10 1317.27 160.632   2
  -6   4 -10 1328.09 148.818   3
  -6   4 -11 652.420 113.535   3
   6  -4  11 872.653 130.670   1
  -6   4 -11 795.669 135.291   2
   6  -4  12 245.771 82.0969   1
  -6   4 -12 367.711 92.3326   2
   6  -4  13 67.8777 55.2685   1
  -6   4 -13 79.6467 66.0095   2
  -6   3  15 351.128 107.210   6
  -6   3  14 18.3442 65.4799   6
  -6   3  13 1011.11 156.061   6
   6  -3 -12 3878.91 275.872   7
  -6   3  12 3898.69 286.649   6
   6  -3 -11 2500.79 211.890   7
  -6   3  11 2791.06 229.566   6
   6  -3 -10 3625.02 242.072   7
  -6   3  10 3535.02 251.810   6
   6  -3 -10 3555.63 197.387   3
   6  -3  -9 5191.70 290.883   7
  -6   3   9 5715.96 303.122   6
   6  -3  -9 5423.36 235.221   3
  -6   3   9 5068.94 247.567  10
   6  -3  -8 140.817 63.1557   7
  -6   3   8 176.152 59.2225   6
  -6   3   8 110.989 52.7418  10
   6  -3  -8 173.787 44.7039   3
   6  -3  -7 87.5358 53.9826   7
  -6   3   7 194.596 57.2458   6
  -6   3   7 101.182 43.9346  10
   6  -3  -7 145.032 38.8206   3
  -6   3   6 440.337 59.9298   3
   6  -3  -6 310.380 71.4432   7
  -6   3   6 251.276 63.0373   6
  -6   3   6 348.418 66.4205  10
   6  -3  -6 291.242 46.3197   3
  -6   3   5 1055.27 81.8499   1
   6  -3  -5 971.822 119.666   7
  -6   3   5 1088.05 84.4587   2
  -6   3   5 1139.57 115.902   6
   6  -3  -5 1188.08 83.1754   3
  -6   3   5 1060.03 111.627  10
  -6   3   5 1087.86 80.4391   3
   6  -3  -4 4238.01 220.432   7
  -6   3   4 4014.81 204.397   6
  -6   3   4 4049.41 170.691   2
   6  -3  -4 3568.23 153.542   1
   6  -3  -4 3787.46 137.917   4
  -6   3   4 4047.27 215.783  10
  -6   3   4 3890.54 157.055   3
   6  -3  -3 1540.47 127.070   7
  -6   3   3 1351.19 113.224   6
  -6   3   3 1423.90 106.240   2
   6  -3  -3 1327.96 89.7798   1
   6  -3  -3 1384.30 75.9526   4
  -6   3   3 1387.97 84.1738   3
  -6   3   2 28.3879 23.4857   3
   6  -3  -2-7.32361 45.6187   7
  -6   3   2 5.50583 27.7808   6
   6  -3  -2-6.12654 17.0632   4
  -6   3   2 13.8898 32.6857   2
   6  -3  -2 9.17221 25.2447   1
  -6   3   1 429.304 49.4640   3
   6  -3  -1 460.158 74.9260   7
  -6   3   1 602.618 73.5766   6
   6  -3  -1 457.640 58.5819   1
  -6   3   1 417.740 69.1004   2
  -6   3   0 17.1866 20.2792   3
   6  -3   0 64.6410 30.2819   1
   6  -3   0 64.0897 52.3078   7
  -6   3   0 0.31128 25.8873   6
  -6   3   0 12.8224 34.4169   2
   6  -3   1 125.070 44.3395   1
  -6   3  -1 69.4175 26.2907   3
   6  -3   1 134.402 56.8097   7
  -6   3  -1 80.2254 32.7519   6
  -6   3  -1 67.0085 48.6044   2
  -6   3  -2-18.3780 24.2023   3
   6  -3   2-35.9780 55.5694   7
  -6   3  -2 38.4193 29.2789   6
  -6   3  -2-26.9590 55.5921   2
   6  -3   2 29.3302 37.3196   1
  -6   3  -3 100.411 33.0793   3
   6  -3   3 111.066 47.1722   7
  -6   3  -3 117.379 51.5009   2
   6  -3   3 134.679 49.1376   1
  -6   3  -4 540.695 70.6472   3
   6  -3   4 506.057 92.3007   7
  -6   3  -4 407.108 82.0639   2
   6  -3   4 626.717 87.4831   1
  -6   3  -5 380.084 68.5827   3
   6  -3   5 522.142 90.3006   7
   6  -3   5 413.421 74.4943   1
  -6   3  -5 514.669 94.8002   2
   6  -3   6 2905.18 215.572   7
  -6   3  -6 2881.27 211.520   2
   6  -3   6 3025.82 197.206   1
  -6   3  -6 2849.33 175.736   3
   6  -3   7 1743.13 173.222   7
  -6   3  -7 1605.92 163.164   2
   6  -3   7 1578.33 151.094   1
   6  -3   7 1336.63 137.501   5
  -6   3  -7 1629.13 138.207   3
   6  -3   8 1690.46 178.270   7
   6  -3   8 1569.58 160.277   1
   6  -3   8 1272.17 133.442   5
  -6   3  -8 1198.86 145.308   2
  -6   3  -8 1183.23 126.363   3
  -6   3  -9 52.9319 38.1063   3
   6  -3   9 205.303 87.8183   7
   6  -3   9 95.4628 59.3718   1
  -6   3  -9 139.368 73.6870   2
  -6   3 -10-32.8924 39.7339   3
   6  -3  10-85.3764 76.5093   7
   6  -3  10 92.4924 58.4781   1
  -6   3 -10 3.75797 49.1224   2
  -6   3 -11 68.1702 63.5480   3
   6  -3  11 112.049 71.0875   1
  -6   3 -11 142.240 72.6158   2
   6  -3  12 110.824 60.8470   1
  -6   3 -12 30.4552 74.1289   2
   6  -3  13 713.638 135.972   1
  -6   3 -13 616.753 131.885   2
  -6   2  16 172.144 94.9368   6
  -6   2  15 326.693 96.3460   6
  -6   2  14 646.196 131.484   6
  -6   2  13 1744.04 197.316   6
  -6   2  12 1326.92 167.697   6
   6  -2 -11 2104.57 195.451   7
  -6   2  11 2309.25 208.742   6
   6  -2 -10 279.196 83.5696   7
  -6   2  10 451.556 96.6303   6
   6  -2  -9 1279.72 144.230   7
  -6   2   9 1132.68 132.179   6
  -6   2   8 3900.38 239.830   6
   6  -2  -7 20.0611 52.9706   7
  -6   2   7-19.7172 41.0679   6
  -6   2   6 8983.76 270.587   2
  -6   2   6 9799.04 364.147   6
   6  -2  -5 13826.3 442.282   7
  -6   2   5 17494.5 403.587   2
  -6   2   5 17112.8 482.573   6
   6  -2  -5 13964.8 284.974   4
   6  -2  -4 4894.85 227.273   7
  -6   2   4 4465.14 218.489   6
  -6   2   4 4453.37 190.220   2
   6  -2  -3 1034.65 109.759   7
  -6   2   3 1270.52 112.866   6
  -6   2   3 1222.71 102.941   2
   6  -2  -3 1046.34 68.7578   1
   6  -2  -2 1042.62 113.848   7
  -6   2   2 1594.23 122.491   6
  -6   2   2 1381.52 112.646   2
   6  -2  -2 1339.70 81.3212   1
   6  -2  -1 166.410 55.1303   7
   6  -2  -1 200.170 36.0970   1
  -6   2   1 214.954 53.3607   6
  -6   2   1 189.328 50.7408   2
   6  -2   0 5710.20 248.035   7
  -6   2   0 6194.06 239.207   6
  -6   2   0 5569.65 247.301   2
   6  -2   0 5321.91 199.034   1
   6  -2   1 1525.15 130.767   7
  -6   2  -1 1686.78 121.356   6
  -6   2  -1 1644.75 141.928   2
   6  -2   1 1765.96 115.962   1
  -6   2  -2 522.188 58.1134   3
   6  -2   2 583.094 87.5436   7
  -6   2  -2 532.924 88.7549   2
   6  -2   2 535.103 69.9160   1
   6  -2   3 1110.26 121.315   7
   6  -2   3 1142.52 106.493   1
  -6   2  -3 873.880 113.845   2
  -6   2  -3 1172.05 89.2698   3
  -6   2  -4 726.700 76.4950   3
   6  -2   4 596.654 92.3420   7
   6  -2   4 702.216 89.5298   1
  -6   2  -4 555.963 97.0938   2
  -6   2  -5 193.122 50.7708   3
   6  -2   5 247.045 69.8472   7
   6  -2   5 318.184 71.6220   1
   6  -2   5 114.454 64.2894   5
  -6   2  -5 170.375 72.8596   2
  -6   2  -6 108.844 46.1532   3
   6  -2   6 19.5057 46.8864   7
   6  -2   6 74.5901 40.5767   1
   6  -2   6 63.8031 51.5177   5
  -6   2  -6 140.150 61.1824   2
  -6   2  -7 43.8540 35.3487   3
   6  -2   7 102.475 76.0420   7
   6  -2   7 69.1185 59.0122   1
   6  -2   7-50.1741 56.5398   5
  -6   2  -7-13.8566 52.2368   2
  -6   2  -8 71.6202 44.9592   3
   6  -2   8 110.830 81.4483   7
   6  -2   8 86.6067 54.2603   1
  -6   2  -8 25.9225 48.3838   2
   6  -2   9 71.7582 65.4861   7
   6  -2   9 142.852 56.6101   1
  -6   2  -9 137.777 61.9528   2
   6  -2  10 128.363 77.0056   7
   6  -2  10 237.949 81.5356   1
  -6   2 -10 290.680 72.8422   2
   6  -2  11 249.587 74.6745   1
  -6   2 -11 90.7599 70.8701   2
   6  -2  12 386.506 108.868   1
  -6   2 -12 175.004 83.2551   2
  -6   1  16 79.0689 63.8170   6
  -6   1  15-17.3578 65.7103   6
  -6   1  14-24.6258 59.9162   6
  -6   1  13 159.799 62.8964   6
   6  -1 -12 135.274 52.8992   9
  -6   1  12 161.628 79.9273   6
   6  -1 -11 64.6541 53.8941   7
  -6   1  11 22.8184 53.9845   6
   6  -1 -10 29.3682 47.0459   7
  -6   1  10 43.9751 47.7914   6
  -6   1   9 2653.25 207.338   6
   6  -1  -8 1008.19 118.376   7
  -6   1   8 1079.32 128.257   6
  -6   1   7 9173.81 364.706   6
   6  -1  -6 301.923 65.3460   7
  -6   1   6 481.757 86.0815   6
  -6   1   6 401.491 56.7013   2
   6  -1  -5 1273.45 113.746   7
  -6   1   5 1288.82 103.491   2
  -6   1   5 1183.21 119.875   6
   6  -1  -4 204.977 51.7387   7
  -6   1   4 168.189 54.9250   6
  -6   1   4 170.522 46.9346   2
   6  -1  -3 215.171 55.2369   7
  -6   1   3 147.099 49.6767   6
  -6   1   3 214.138 53.7871   2
   6  -1  -2 12689.7 389.832   7
  -6   1   2 13814.7 414.373   6
  -6   1   2 13629.3 405.501   2
   6  -1  -1 11600.4 367.856   7
  -6   1   1 12194.0 381.178   6
  -6   1   1 11874.8 387.524   2
   6  -1   0 3823.85 196.929   7
  -6   1   0 4124.98 203.068   6
  -6   1   0 3894.85 208.524   2
   6  -1   0 3649.21 151.065   1
   6  -1   1 9035.77 324.522   7
  -6   1  -1 9341.45 324.458   6
  -6   1  -1 9004.27 344.292   2
   6  -1   1 8084.50 266.703   1
   6  -1   2 2533.40 171.836   7
  -6   1  -2 2730.88 190.068   2
   6  -1   2 2578.36 146.606   1
   6  -1   3 48.5418 50.7066   7
   6  -1   3 7.16856 29.2144   1
  -6   1  -3 58.9860 46.7444   2
   6  -1   3 23.0642 50.5619   5
   6  -1   4 193.619 58.1020   7
   6  -1   4 140.199 44.7282   1
  -6   1  -4 135.491 55.5422   2
   6  -1   4 100.982 46.4941   5
   6  -1   5 777.857 110.003   7
   6  -1   5 697.556 93.3446   1
  -6   1  -5 692.750 107.033   2
   6  -1   5 575.585 96.6560   5
   6  -1   6 2051.29 183.556   7
   6  -1   6 2058.40 162.040   1
  -6   1  -6 1825.24 174.061   2
   6  -1   6 2017.01 174.679   5
   6  -1   7 3135.14 227.489   7
   6  -1   7 3136.47 217.470   1
  -6   1  -7 3296.47 230.878   2
   6  -1   7 3125.89 219.656   5
   6  -1   8 718.853 117.466   7
   6  -1   8 763.167 114.155   1
  -6   1  -8 735.591 120.941   2
   6  -1   9 724.141 122.946   7
   6  -1   9 766.392 119.567   1
  -6   1  -9 871.827 135.605   2
   6  -1  10 115.557 68.7434   7
   6  -1  10 251.725 96.0423   1
  -6   1 -10 99.5279 64.8670   2
   6  -1  11 59.5952 74.2373   1
  -6   1 -11 36.4101 65.3184   2
   6  -1  12 64.5772 70.8773   1
  -6   1 -12 9.56180 53.5044   2
  -6   0  16 157.425 76.7314   6
  -6   0  15 2027.44 214.076   6
  -6   0  14 1012.18 161.281   6
  -6   0  13 2102.57 215.608   6
   6   0 -13 1658.84 163.630   9
  -6   0  12 2353.50 217.093   6
   6   0 -12 2422.32 192.988   9
   6   0 -11 1252.21 138.807   9
   6   0 -11 1143.00 140.423   7
  -6   0  11 1175.03 142.793   6
   6   0 -10 70.9396 51.5273   7
  -6   0  10 89.0259 50.6529   6
   6   0 -10-59.5122 49.0846   5
   6   0 -10 85.8990 56.9926   9
   6   0  -9 128.363 53.5587   7
  -6   0   9 28.3309 47.3289   6
   6   0  -8 577.537 92.6971   7
  -6   0   8 550.423 90.8136   6
   6   0  -7 1844.17 142.375   7
  -6   0   7 1847.72 158.121   6
   6   0  -6 1057.42 109.571   7
  -6   0   6 1058.04 98.4146   2
  -6   0   6 1217.46 131.486   6
   6   0  -5 30.3774 32.5714   7
  -6   0   5-1.26233 42.0808   6
  -6   0   5-21.9156 33.3288   2
   6   0  -4-3.06722 30.3315   7
  -6   0   4 6.53494 38.9577   6
  -6   0   4 5.97595 34.3229   2
   6   0  -3 4136.58 190.203   7
  -6   0   3 4062.55 217.696   6
  -6   0   3 4298.58 209.760   2
   6   0  -2 38.8791 39.6344   7
  -6   0   2 33.6362 42.2136   6
  -6   0   2 38.7462 41.4995   2
   6   0  -1 272.354 49.1583   7
  -6   0   1 287.462 60.3533   6
  -6   0   1 362.346 66.5127   2
   6   0  -1 263.330 70.9060   5
   6   0   0 1431.86 116.654   7
  -6   0   0 1571.52 132.915   6
  -6   0   0 1679.60 140.936   2
   6   0   0 1315.79 140.711   5
   6   0   1 116.564 41.1667   7
  -6   0  -1 131.595 56.8627   2
   6   0   1 27.0707 39.9326   5
   6   0   2 12765.1 402.196   7
  -6   0  -2 12568.4 435.603   2
   6   0   2 12190.9 358.386   1
   6   0   2 12517.1 449.945   5
   6   0   3 3497.28 199.355   7
  -6   0  -3 3527.00 221.482   2
   6   0   3 3505.81 183.747   1
   6   0   3 3513.44 224.801   5
   6   0   4 1911.26 152.362   7
  -6   0  -4 1898.46 168.040   2
   6   0   4 1864.51 138.661   1
   6   0   4 1682.80 162.154   5
   6   0   4 1650.54 126.209   9
   6   0   5 2255.38 172.932   7
   6   0   5 2171.53 162.635   1
  -6   0  -5 2353.06 194.048   2
   6   0   5 1916.30 175.188   5
   6   0   6 3086.07 208.688   7
   6   0   6 3014.04 203.359   1
  -6   0  -6 2912.65 213.027   2
   6   0   6 2769.54 211.816   5
   6   0   7 201.239 65.2902   7
   6   0   7 276.644 67.2481   1
  -6   0  -7 296.237 84.8849   2
   6   0   7 150.083 65.3247   5
   6   0   8-11.4544 50.5618   7
   6   0   8 28.6842 53.6836   1
  -6   0  -8 39.5844 57.8011   2
   6   0   9 110.558 75.1517   1
  -6   0  -9 77.2244 65.7820   2
   6   0  10 549.190 107.267   1
  -6   0 -10 407.915 111.592   2
   6   0  11 1129.86 161.789   1
  -6   0 -11 759.690 140.317   2
  -6  -1  17 496.583 128.509   6
  -6  -1  16 1279.29 180.360   6
  -6  -1  15 608.339 128.844   6
  -6  -1  14 960.268 146.234   6
   6   1 -13 1290.48 149.291   9
  -6  -1  13 1323.28 170.279   6
   6   1 -12-14.1101 54.1751   9
  -6  -1  12 20.8852 52.0875   6
   6   1 -11 786.763 112.157   9
   6   1 -11 959.997 124.525   7
  -6  -1  11 940.293 136.688   6
  -6  -1  10 1831.62 171.714   6
   6   1 -10 1847.71 146.889   5
   6   1 -10 1817.73 80.5442   4
   6   1 -10 1843.92 166.991   9
  -6  -1   9 4734.99 279.884   6
   6   1  -9 5001.35 244.397   5
   6   1  -9 5133.91 280.404   9
  -6  -1   8 5706.13 295.329   6
   6   1  -8 5761.61 268.226   5
   6   1  -8 6001.92 300.530   9
   6   1  -7 2306.71 150.341   7
  -6  -1   7 2558.06 193.677   6
   6   1  -7 2505.68 175.773   5
   6   1  -7 2942.79 201.360   9
   6   1  -6 2299.50 146.134   7
  -6  -1   6 2297.47 153.726   2
  -6  -1   6 2105.73 174.392   6
   6   1  -6 2453.20 174.336   5
   6   1  -6 2597.06 187.870   9
   6   1  -5 32.2221 29.7478   7
  -6  -1   5 105.759 52.1183   6
  -6  -1   5 87.7990 42.7638   2
   6   1  -5 50.6413 39.4017   5
   6   1  -4 99.5520 42.6772   7
  -6  -1   4 40.4103 38.7624   6
  -6  -1   4 65.0665 54.9864   2
   6   1  -4 23.0081 40.3974   5
   6   1  -3 615.120 74.1017   7
  -6  -1   3 521.363 87.9806   6
  -6  -1   3 571.994 83.2202   2
   6   1  -3 665.700 95.6934   5
   6   1  -2 680.525 75.3903   7
  -6  -1   2 889.431 104.824   6
  -6  -1   2 865.013 102.006   2
   6   1  -2 863.814 113.272   5
   6   1  -1 638.334 75.0230   7
  -6  -1   1 792.905 102.029   6
  -6  -1   1 693.769 99.7844   2
   6   1  -1 686.497 103.839   5
   6   1  -1 756.322 96.6435   9
   6   1   0 1933.06 130.834   7
  -6  -1   0 2099.28 164.652   6
  -6  -1   0 1959.61 156.782   2
   6   1   0 1692.31 161.698   5
   6   1   0 1953.17 150.830   9
   6   1   1 900.925 99.8079   9
   6   1   1 932.836 94.9445   7
  -6  -1  -1 843.775 108.063   2
   6   1   1 695.124 102.667   5
   6   1   2 1815.63 135.320   7
  -6  -1  -2 2186.72 174.993   2
   6   1   2 1857.18 170.862   5
   6   1   2 1789.65 139.840   9
   6   1   3 69.4308 33.8717   9
   6   1   3 45.8578 38.9208   7
  -6  -1  -3 74.8839 51.0700   2
   6   1   3 64.4103 65.5332   5
   6   1   4 2714.52 174.507   1
  -6  -1  -4 2521.15 197.877   2
   6   1   4 2120.67 190.645   5
   6   1   5 76.6758 55.5665   1
  -6  -1  -5 123.066 66.1340   2
   6   1   5 21.1215 50.4717   5
   6   1   6 1373.68 140.935   1
  -6  -1  -6 1272.34 146.479   2
   6   1   6 1217.09 154.412   5
   6   1   7 61.6534 44.7084   1
  -6  -1  -7 191.955 79.8541   2
   6   1   7 55.0696 61.9886   5
   6   1   8 640.728 118.637   1
  -6  -1  -8 790.359 124.608   2
   6   1   9 1274.59 158.299   1
  -6  -1  -9 1242.60 167.777   2
   6   1  10 493.001 110.243   1
  -6  -1 -10 381.859 110.339   2
  -6  -2  17 147.589 92.5770   6
  -6  -2  16 319.486 100.976   6
  -6  -2  15 140.777 67.0989   6
   6   2 -14 75.5601 63.2410   9
  -6  -2  14 51.4035 50.0059   6
   6   2 -13 274.431 83.1230   9
  -6  -2  13 357.451 95.2790   6
   6   2 -12 358.301 88.4601   9
   6   2 -12 600.910 107.861   7
  -6  -2  12 642.241 116.760   6
   6   2 -11 1133.05 141.662   9
   6   2 -11 873.678 117.944   7
  -6  -2  11 1162.42 145.433   6
   6   2 -11 1154.42 71.5420   4
  -6  -2  10 2762.76 216.295   6
   6   2 -10 2607.28 181.179   5
   6   2 -10 2855.99 216.209   9
   6   2  -9 2407.32 164.657   7
  -6  -2   9 3229.14 227.009   6
   6   2  -9 3080.06 199.347   5
   6   2  -9 3046.42 221.194   9
   6   2  -8 685.642 106.821   9
   6   2  -8 598.521 77.7376   7
  -6  -2   8 785.139 114.345   6
  -6  -2   8 418.515 81.3992   2
   6   2  -8 782.379 105.435   5
   6   2  -7-28.7099 51.2682   9
   6   2  -7 74.7432 35.3578   7
  -6  -2   7 31.6022 43.6481   6
  -6  -2   7 114.842 51.5675   2
   6   2  -7-34.8882 44.4273   5
   6   2  -6 17.0373 42.7707   9
   6   2  -6-55.6456 36.8953   7
  -6  -2   6-40.3130 51.2231   6
  -6  -2   6-37.0114 34.5026   2
   6   2  -6 18.8033 38.2232   5
  -6  -2   5 4144.90 218.348   2
  -6  -2   5 3799.00 233.419   6
   6   2  -5 4013.71 235.597   5
   6   2  -5 4006.57 242.092   9
  -6  -2   4 6578.03 290.592   2
  -6  -2   4 6416.81 305.109   6
   6   2  -4 6557.40 310.313   5
   6   2  -4 6522.34 310.139   9
  -6  -2   3 5110.49 258.259   2
  -6  -2   3 5255.26 272.698   6
   6   2  -3 5310.61 280.946   5
   6   2  -3 4899.95 263.946   9
  -6  -2   2 4969.05 266.665   6
  -6  -2   2 5640.91 268.210   2
   6   2  -2 5058.19 281.845   5
   6   2  -2 5470.12 273.530   9
  -6  -2   1 2372.06 183.750   6
  -6  -2   1 2461.79 180.923   2
   6   2  -1 2389.70 192.312   5
   6   2  -1 2348.64 175.326   9
  -6  -2   0 2309.15 182.077   2
   6   2   0 2560.79 201.644   5
   6   2   0 2328.66 172.195   9
   6   2   1 778.587 97.9498   9
  -6  -2  -1 682.096 99.4633   2
   6   2   1 576.130 99.0626   5
   6   2   2 459.266 77.8649   9
  -6  -2  -2 275.700 73.5294   2
   6   2   2 419.700 97.4961   5
  -6  -2  -3 430.686 90.6820   2
   6   2   3 411.191 99.5097   5
  -6  -2  -4 466.162 92.3846   2
   6   2   4 208.905 65.5066   5
  -6  -2  -5 380.145 89.5516   2
   6   2   5 157.669 71.4256   5
  -6  -2  -6 1750.20 175.393   2
   6   2   6 1166.41 168.793   5
  -6  -2  -7 83.6780 60.0976   2
   6   2   7-19.1889 68.9868   5
  -6  -2  -8-31.5941 65.5145   2
  -6  -2  -9 60.8701 59.2946   2
  -6  -3  16 953.649 157.455   6
  -6  -3  15 425.462 111.298   6
  -6  -3  14-79.0929 81.3898   6
   6   3 -13 281.632 83.1233   9
  -6  -3  13 208.815 85.0554   6
   6   3 -12 30.0773 45.6801   9
  -6  -3  12 52.8516 61.0903   6
   6   3 -12 27.8021 23.1217   4
   6   3 -11 160.098 65.2888   9
  -6  -3  11 199.487 84.7808   6
   6   3 -10 427.548 86.5926   9
  -6  -3  10 323.334 91.3170   6
   6   3 -10 262.270 68.8371   5
   6   3  -9 11.3455 49.5257   9
  -6  -3   9-0.25400 41.5786   2
  -6  -3   9 50.9960 55.4543   6
   6   3  -9 39.5011 42.7814   5
   6   3  -8-15.4672 39.7662   9
  -6  -3   8 67.7441 55.8020   6
  -6  -3   8-18.7516 41.2869   2
   6   3  -8 29.4595 43.4229   5
   6   3  -7 540.009 97.8566   9
  -6  -3   7 373.000 86.5506   6
  -6  -3   7 424.413 86.8753   2
   6   3  -7 398.284 85.8164   5
  -6  -3   6 2836.59 191.108   2
  -6  -3   6 2421.83 195.031   6
   6   3  -6 2645.74 197.047   5
   6   3  -6 2548.59 203.679   9
  -6  -3   5 2699.24 186.771   2
  -6  -3   5 2705.02 205.400   6
   6   3  -5 2660.51 201.914   5
   6   3  -5 2542.81 198.492   9
   6   3  -4 254.568 70.8190   9
  -6  -3   4 265.671 74.0968   6
  -6  -3   4 249.431 66.8298   2
   6   3  -4 242.460 76.1479   5
   6   3  -3 554.848 91.9931   9
  -6  -3   3 592.189 101.225   6
  -6  -3   3 490.763 91.9828   2
   6   3  -3 556.219 110.500   5
   6   3  -2 39.8843 38.8087   9
  -6  -3   2 18.4339 46.1518   6
  -6  -3   2 116.267 51.9303   2
   6   3  -2 42.8296 46.5502   5
   6   3  -1 834.437 110.087   9
  -6  -3   1 900.878 117.546   2
   6   3  -1 621.705 106.131   5
  -6  -3   0 1516.91 149.380   2
   6   3   0 1416.56 164.245   5
   6   3   0 1330.46 133.439   9
  -6  -3  -1 3110.78 223.269   2
   6   3   1 2953.97 236.612   5
   6   3   1 2920.70 198.115   9
  -6  -3  -2 7048.50 338.500   2
   6   3   2 6203.29 352.667   5
   6   3   2 5775.36 284.252   9
  -6  -3  -3 2016.07 183.711   2
   6   3   3 1502.54 176.936   5
  -6  -3  -4 2372.72 201.138   2
   6   3   4 2108.13 213.744   5
  -6  -3  -5 673.513 113.779   2
   6   3   5 602.428 120.759   5
  -6  -3  -6 164.191 77.4981   2
   6   3   6 133.080 63.0158   5
  -6  -3  -7 284.408 90.3662   2
  -6  -3  -8 334.031 97.0250   2
  -6  -4  16 423.759 105.621   6
  -6  -4  15 225.514 95.1410   6
  -6  -4  14 143.806 77.2190   6
  -6  -4  13 464.549 116.018   6
   6   4 -13 594.297 67.7394   4
  -6  -4  12 2142.77 211.221   6
   6   4 -12 1694.71 99.1509   4
   6   4 -12 2045.22 200.875   9
   6   4 -11 1034.71 149.945   9
  -6  -4  11 766.837 127.339   6
   6   4 -10 1052.46 141.923   9
  -6  -4  10 1117.55 146.130   6
   6   4 -10 978.044 124.860   5
  -6  -4   9 3755.18 254.502   6
   6   4  -9 4036.71 254.900   5
   6   4  -9 3617.80 259.770   9
   6   4  -8 33.3218 45.8520   9
  -6  -4   8 31.3694 59.8741   6
  -6  -4   8 57.8572 49.6165   2
   6   4  -8 139.944 66.0506   5
   6   4  -7 17.4949 41.9888   9
  -6  -4   7 57.7971 60.4105   6
  -6  -4   7 101.179 54.0609   2
   6   4  -7 18.3623 55.5290   5
   6   4  -6 242.877 70.0369   9
  -6  -4   6 282.844 80.7861   6
  -6  -4   6 144.197 59.8806   2
   6   4  -6 300.262 84.5035   5
   6   4  -5 315.399 83.3265   9
  -6  -4   5 246.364 70.2082   6
  -6  -4   5 189.506 71.1957   2
   6   4  -5 95.8887 61.7590   5
   6   4  -4 301.290 75.4668   9
  -6  -4   4 339.874 90.5572   6
  -6  -4   4 282.263 71.2161   2
   6   4  -4 312.785 77.8233   5
   6   4  -3 26.0801 53.5833   9
  -6  -4   3-4.53520 56.0275   6
  -6  -4   3-39.3888 56.8010   2
   6   4  -3 6.90218 62.2337   5
   6   4  -2 137.108 54.0453   9
  -6  -4   2 153.885 77.3216   6
  -6  -4   2 96.1326 64.5070   2
   6   4  -2 141.918 63.9320   5
   6   4  -1 371.839 85.3418   9
  -6  -4   1 301.649 87.6413   2
   6   4  -1 240.969 87.4860   5
   6   4   0 39.8909 39.3724   9
  -6  -4   0 53.4717 60.9915   2
   6   4   0-55.4237 82.8210   5
   6   4   1 348.799 83.2335   9
  -6  -4  -1 247.073 71.2029   2
   6   4   1 280.914 87.2479   5
  -6  -4  -2 168.106 63.8336   2
   6   4   2 54.9685 64.3303   5
  -6  -4  -3 183.691 79.7156   2
   6   4   3 306.827 105.321   5
  -6  -4  -4 130.256 56.4250   2
   6   4   4 143.996 88.3210   5
  -6  -4  -5 660.163 127.280   2
  -6  -4  -6 1263.18 168.402   2
  -6  -4  -7 845.815 148.160   2
  -6  -5  16-29.0208 68.9718   6
  -6  -5  15 376.310 105.725   6
  -6  -5  14 696.031 133.973   6
  -6  -5  13 977.388 148.671   6
   6   5 -13 897.347 83.2656   4
  -6  -5  12 631.340 121.493   6
  -6  -5  11 999.385 138.608   6
  -6  -5  10 97.8354 61.3793   6
   6   5 -10 107.288 69.5083   5
   6   5  -9-18.7280 64.9608   9
  -6  -5   9 84.0423 66.8806   6
   6   5  -9 57.0356 60.2924   5
   6   5  -8 1060.76 150.927   9
  -6  -5   8 1027.94 134.588   2
  -6  -5   8 1057.76 140.911   6
   6   5  -8 760.594 107.081   5
   6   5  -7 466.081 103.838   9
  -6  -5   7 387.596 81.1557   6
  -6  -5   7 328.716 83.9147   2
   6   5  -7 254.105 82.3348   5
  -6  -5   6 2479.98 204.558   2
  -6  -5   6 2646.92 218.375   6
   6   5  -6 2630.30 221.515   5
   6   5  -6 2637.98 221.618   9
  -6  -5   5 6334.08 329.169   2
  -6  -5   5 6271.23 342.832   6
   6   5  -5 6291.36 353.662   5
   6   5  -5 6415.46 354.027   9
   6   5  -4 316.990 81.4105   9
  -6  -5   4 318.725 90.8121   6
  -6  -5   4 382.522 92.4812   2
   6   5  -4 517.375 117.018   5
   6   5  -3 587.954 109.810   9
  -6  -5   3 701.404 121.785   6
  -6  -5   3 831.554 125.468   2
   6   5  -3 629.601 110.065   5
   6   5  -2 135.305 68.5950   9
  -6  -5   2 149.543 63.9473   2
   6   5  -2 64.5242 78.7576   5
  -6  -5   1 167.024 87.5069   2
   6   5  -1 222.767 80.1003   5
  -6  -5   0 166.256 87.5744   2
   6   5   0 150.051 86.7288   5
  -6  -5  -1 187.352 87.3020   2
   6   5   1 218.469 87.7578   5
  -6  -5  -2 156.997 75.0047   2
  -6  -5  -3 74.4426 73.1666   2
  -6  -5  -4 70.9358 64.2485   2
  -6  -5  -5 72.5969 75.2450   2
  -6  -6  15-29.1503 57.4720   6
  -6  -6  14 791.892 137.708   6
  -6  -6  13 306.684 93.3232   6
  -6  -6  12-1.37126 51.0246   6
  -6  -6  11-33.6922 57.4134   6
  -6  -6  10 212.829 73.6526   6
   6   6 -10 351.887 97.4430   5
  -6  -6   9 628.368 114.154   6
   6   6  -9 792.375 129.338   5
  -6  -6   8 1036.38 146.342   6
   6   6  -8 1097.02 150.146   5
  -6  -6   7 1537.00 178.220   6
  -6  -6   7 1487.58 165.822   2
   6   6  -7 1397.83 180.886   5
  -6  -6   6 533.798 115.649   6
  -6  -6   6 601.833 106.562   2
   6   6  -6 764.944 135.012   5
  -6  -6   5 210.360 80.1972   6
  -6  -6   5 221.969 83.1661   2
   6   6  -5 152.238 83.1448   5
  -6  -6   4 71.7328 72.6304   6
  -6  -6   4 9.86436 63.4478   2
   6   6  -4-6.86082 65.6558   5
  -6  -6   3 119.754 68.7507   2
   6   6  -3 13.6140 62.4872   5
  -6  -6   2 2260.05 222.785   2
   6   6  -2 1823.16 220.813   5
  -6  -6   1 3652.30 272.999   2
  -6  -6   0 863.358 137.365   2
  -6  -6  -1 1656.67 190.767   2
  -6  -6  -2 322.158 107.721   2
  -6  -6  -3 156.175 78.3586   2
  -6  -6  -4-1.94731 64.5337   2
  -6  -7  14 328.132 96.7052   6
  -6  -7  13 309.566 102.361   6
  -6  -7  12 190.878 90.4704   6
  -6  -7  11 18.2940 57.9077   6
  -6  -7  10 106.251 75.2594   6
   6   7 -10-17.6316 67.7570   5
  -6  -7   9 102.726 84.7858   6
   6   7  -9 37.6794 73.8493   5
  -6  -7   8 150.140 91.7126   6
   6   7  -8 237.460 107.981   5
  -6  -7   7 27.9476 72.3720   6
   6   7  -7 78.3025 77.3419   5
  -6  -7   6-14.0996 68.1093   6
  -6  -7   6 14.6343 72.4899   2
  -6  -7   5 217.493 96.8473   2
  -6  -7   4 65.0859 74.4319   2
  -6  -7   3 1626.64 192.723   2
  -6  -7   2 235.713 95.4392   2
  -6  -7   1 183.686 93.8754   2
  -6  -7   0 32.7005 64.6164   2
  -6  -7  -1 59.6905 66.6933   2
  -6  -7  -2 820.073 154.154   2
  -6  -8  12 199.805 81.4166   6
  -6  -8  11 227.203 91.6217   6
  -6  -8  10 382.360 109.567   6
  -6  -8   9 971.527 156.196   6
  -6  -8   8 683.413 137.055   6
  -6  -8   7 410.146 112.867   6
  -6  -8   5 425.677 117.238   2
  -6  -8   4 41.4913 72.2237   2
  -6  -8   3 129.060 81.6561   2
  -6  -8   2-34.8029 77.0918   2
  -6  -8   1 90.3170 85.9036   2
  -7  14  -3 81.1937 92.3782   2
  -7  14  -4 158.703 96.9067   2
  -7  14  -5 103.317 83.1041   2
  -7  14  -6 682.094 155.677   2
   7 -13  -2 139.781 76.9073   1
   7 -13  -1 226.821 87.4602   1
   7 -13   0 498.151 122.186   1
   7 -13   1 45.5602 67.3938   1
   7 -13   2-2.04644 76.0794   1
  -7  13  -2 7.58137 73.9625   2
   7 -13   3 300.486 84.3984   1
  -7  13  -3 338.825 118.410   2
  -7  13  -4-56.6179 67.3774   2
   7 -13   4-22.3235 87.0033   1
   7 -13   5 129.585 91.5481   1
  -7  13  -5 165.677 85.7644   2
   7 -13   6 393.735 121.562   1
  -7  13  -6 214.149 98.5527   2
   7 -13   7 80.3853 76.1019   1
  -7  13  -7 3.35494 92.8066   2
  -7  13  -8 218.528 117.545   2
  -7  13  -9 20.7416 88.7156   2
   7 -12  -5 182.229 97.1483   1
  -7  12   5 421.150 121.993   1
  -7  12   4 201.158 82.1865   1
   7 -12  -4-10.0526 69.2208   1
  -7  12   3 172.643 84.4927   1
   7 -12  -3 137.665 82.5742   1
   7 -12  -2 587.253 121.572   1
   7 -12  -1 1443.76 183.667   1
  -7  12   0 322.199 110.118   3
   7 -12   0 246.422 81.8915   7
   7 -12   0 319.717 106.176   1
  -7  12  -1 189.357 83.3281   3
   7 -12   1 256.305 90.5642   7
   7 -12   1 199.896 91.3700   1
   7 -12   2 514.923 111.898   1
  -7  12  -2 469.671 115.267   3
   7 -12   2 445.887 89.1374   7
  -7  12  -2 494.049 109.771   2
  -7  12  -3 316.753 91.1148   3
   7 -12   3 487.237 100.434   7
  -7  12  -3 558.847 127.704   2
   7 -12   3 509.280 104.882   1
  -7  12  -4 524.142 120.115   3
   7 -12   4 521.378 118.091   7
  -7  12  -4 421.884 108.722  10
   7 -12   4 750.053 139.544   1
  -7  12  -4 535.389 133.588   2
   7 -12   5 118.410 74.6576   1
  -7  12  -5 78.0980 85.2023   2
  -7  12  -5-61.1977 77.0889  10
   7 -12   6 19.2178 81.6190   1
  -7  12  -6 86.9337 87.2630   2
  -7  12  -6 36.2321 55.6170  10
   7 -12   7 57.7313 68.0098   1
  -7  12  -7 36.8173 78.4937   2
  -7  12  -7 74.6985 62.7361  10
   7 -12   8-153.500 89.0575   1
  -7  12  -8-4.26760 80.5242   2
   7 -12   9 8.08697 65.4230   1
  -7  12  -9-28.6994 71.0143   2
  -7  12 -10-23.2177 81.4319   2
   7 -11  -7 125.147 74.0040   1
  -7  11   7 91.9731 66.4728   1
  -7  11   6 126.955 77.1778   1
   7 -11  -6 199.546 86.5395   1
   7 -11  -5 516.462 117.237   1
  -7  11   5 273.047 83.0430   1
  -7  11   4 709.016 134.802   3
   7 -11  -4 946.277 156.462   1
  -7  11   4 1081.10 157.869   1
   7 -11  -3 1427.13 177.307   1
  -7  11   3 1182.91 165.687   3
   7 -11  -3 1191.18 157.274   7
  -7  11   2 785.818 141.368   3
   7 -11  -2 592.270 117.786   7
   7 -11  -2 846.734 143.907   1
  -7  11   2 521.876 140.992  10
   7 -11  -1 1902.30 188.078   7
   7 -11  -1 1959.17 205.530   1
  -7  11   1 1848.63 216.082  10
  -7  11   1 1971.27 200.191   3
  -7  11   0 1185.41 162.381   3
   7 -11   0 922.213 140.905   7
   7 -11   0 1228.17 165.845   1
  -7  11   0 802.261 145.249  10
   7 -11   1 1.67612 58.9705   1
  -7  11  -1-75.4680 68.4224   3
   7 -11   1-90.1904 63.6685   7
  -7  11  -1-69.0544 75.5166   2
  -7  11  -1 111.648 82.3013  10
  -7  11  -2 60.4440 55.7793   3
   7 -11   2 172.437 81.4440   7
  -7  11  -2 211.485 87.1440   2
  -7  11  -2 49.6771 66.6022  10
   7 -11   2 180.149 71.0911   1
  -7  11  -3 145.345 74.2817   3
   7 -11   3 216.093 80.7267   7
   7 -11   3 307.604 95.1312   1
  -7  11  -3 176.199 79.9731   2
  -7  11  -3 212.716 77.9091  10
  -7  11  -4 734.112 129.993   3
   7 -11   4 738.950 130.656   7
   7 -11   4 624.919 128.693   1
  -7  11  -4 571.655 131.039   2
  -7  11  -5 1306.13 166.338   3
   7 -11   5 1420.61 178.949   7
   7 -11   5 1488.05 181.360   1
  -7  11  -5 1137.97 176.271   2
  -7  11  -5 1082.54 152.898  10
  -7  11  -6 683.779 130.476   3
   7 -11   6 710.268 121.439   7
   7 -11   6 955.675 149.974   1
  -7  11  -6 677.149 140.981   2
  -7  11  -6 780.440 130.053  10
  -7  11  -7 575.795 105.054  10
  -7  11  -7 843.033 145.948   3
   7 -11   7 721.639 136.213   1
  -7  11  -7 873.091 160.278   2
   7 -11   8 163.782 78.4079   1
  -7  11  -8 208.270 99.8606   2
  -7  11  -8 263.098 80.3180  10
   7 -11   9 14.7761 68.4461   1
  -7  11  -9-3.57062 87.8749   2
   7 -11  10 171.063 94.9607   1
  -7  11 -10 215.108 77.3383   2
  -7  11 -11 56.7745 68.2178   2
   7 -10  -9 44.4941 61.3845   8
  -7  10   9-138.835 108.514   6
  -7  10   9-68.2563 58.4358   1
   7 -10  -8 14.3127 58.5863   8
  -7  10   8-88.9331 81.0677   6
  -7  10   8 146.611 62.3054   1
   7 -10  -7 46.2901 63.8848   1
  -7  10   7 42.5551 51.5231   1
   7 -10  -6-5.92121 60.1150   1
  -7  10   6 87.3691 52.5639   1
  -7  10   5-101.642 77.2719   3
   7 -10  -5-74.0316 65.0549   7
  -7  10   5 29.2962 51.4156   1
   7 -10  -5-81.1244 67.3732   1
  -7  10   5 13.8798 54.5096  10
  -7  10   4-11.7931 55.3938   1
  -7  10   4 85.1379 68.3107   3
   7 -10  -4 31.4445 55.2409   7
   7 -10  -4 1.58383 51.2737   1
  -7  10   4 71.4255 65.7061  10
  -7  10   3-8.35012 56.6410   3
   7 -10  -3-27.7174 54.8232   7
  -7  10   3 51.1566 78.2418  10
   7 -10  -3-61.6991 69.3867   1
  -7  10   2 4.27213 61.2515   3
   7 -10  -2 52.6756 56.3332   7
   7 -10  -2 3.02217 56.6681   1
  -7  10   2 112.339 61.5411  10
  -7  10   1 151.221 78.6185   3
   7 -10  -1 214.283 76.0869   7
   7 -10  -1 160.245 75.4873   1
  -7  10   1 320.216 101.901  10
   7 -10   0 983.738 139.704   1
  -7  10   0 884.931 135.275   3
   7 -10   0 777.814 131.057   7
  -7  10   0 964.559 131.734   2
  -7  10   0 842.453 141.288  10
  -7  10  -1 1501.09 164.568   3
   7 -10   1 1374.90 163.998   7
  -7  10  -1 1458.99 159.181   2
  -7  10  -1 1368.14 166.813  10
   7 -10   1 1561.55 167.641   1
  -7  10  -2 929.822 138.172   3
   7 -10   2 1126.57 142.962   7
   7 -10   2 944.391 145.255   1
  -7  10  -2 1219.84 153.064   2
  -7  10  -2 1062.86 154.387  10
  -7  10  -3 865.813 126.753   3
   7 -10   3 715.741 116.251   7
   7 -10   3 967.447 139.803   1
  -7  10  -3 798.960 139.911   2
  -7  10  -3 830.229 129.196  10
  -7  10  -4 790.262 130.401   3
   7 -10   4 883.332 138.783   7
   7 -10   4 840.488 130.699   1
  -7  10  -4 1066.08 152.881   2
  -7  10  -4 708.701 121.570  10
  -7  10  -5 37.5487 51.9720   3
   7 -10   5 140.631 67.9618   7
   7 -10   5 95.1863 70.5185   1
  -7  10  -5 89.1920 63.1007   2
  -7  10  -5 103.809 63.0053  10
  -7  10  -6-61.6990 67.3467   3
   7 -10   6-57.7147 53.5689   7
   7 -10   6 32.2061 65.4116   1
  -7  10  -6 11.9597 70.9437   2
  -7  10  -6-3.07508 52.4324  10
  -7  10  -7 186.186 82.0331   3
   7 -10   7 138.161 78.7137   7
   7 -10   7 80.8019 60.6531   1
  -7  10  -7 114.576 68.9739   2
  -7  10  -7 21.0010 52.2732  10
  -7  10  -8 123.342 76.2357   3
   7 -10   8 114.485 77.1291   1
  -7  10  -8-6.92095 66.8282   2
   7 -10   9 715.281 139.419   1
  -7  10  -9 333.679 97.9017   2
   7 -10  10 1666.06 205.365   1
  -7  10 -10 1549.95 204.272   2
   7 -10  11 842.679 165.123   1
  -7  10 -11 498.626 130.157   2
  -7  10 -12 240.181 92.9372   2
   7  -9 -10 1398.53 178.303   8
  -7   9  10 1481.15 198.862   6
  -7   9  10 1142.68 161.647   1
   7  -9  -9 1522.01 178.964   8
  -7   9   9 1569.77 181.029   1
  -7   9   9 1691.52 203.600   6
  -7   9   8 1056.67 159.964   3
  -7   9   8 1759.94 203.126   6
   7  -9  -8 1810.64 185.225   3
  -7   9   8 1435.79 169.158   1
  -7   9   8 1589.93 205.880  10
  -7   9   7 475.662 107.105   3
  -7   9   7 774.914 134.010   6
   7  -9  -7 322.921 84.8473   1
  -7   9   7 318.093 84.4597   1
  -7   9   7 547.048 131.808  10
   7  -9  -7 493.629 104.251   3
  -7   9   6-53.9284 52.1554   3
   7  -9  -6 108.802 71.7644   7
   7  -9  -6 37.3370 48.8759   1
  -7   9   6 13.5023 59.8105   6
   7  -9  -6-7.05585 49.4698   3
  -7   9   6-62.9620 49.3127   1
  -7   9   6-3.91672 59.5203  10
  -7   9   5-32.2751 54.2729   3
   7  -9  -5 63.1115 45.8846   7
   7  -9  -5 42.9391 48.1642   1
  -7   9   5-47.5443 44.5959   1
  -7   9   5-36.5457 73.0413  10
  -7   9   4 373.377 85.6368   3
   7  -9  -4 369.294 78.9052   1
   7  -9  -4 288.528 85.5013   7
  -7   9   4 347.386 104.639  10
  -7   9   3 324.244 88.1660   3
   7  -9  -3 425.318 90.4710   7
   7  -9  -3 423.465 87.8624   1
  -7   9   3 333.468 106.262  10
   7  -9  -2 1426.67 161.507   7
  -7   9   2 1276.08 148.087   3
   7  -9  -2 1203.52 146.118   1
  -7   9   2 1344.93 177.195  10
  -7   9   1 762.348 115.128   3
   7  -9  -1 931.967 130.959   7
   7  -9  -1 785.220 117.238   1
  -7   9   1 721.836 99.4319   2
  -7   9   1 939.558 141.272  10
   7  -9   0 440.405 96.5883   1
  -7   9   0 335.232 82.0292   3
   7  -9   0 377.295 81.1621   7
  -7   9   0 497.834 90.6258   2
  -7   9   0 473.440 101.689  10
  -7   9  -1 84.0741 49.8860   3
   7  -9   1 355.650 95.2846   7
  -7   9  -1 337.747 79.6031   2
   7  -9   1 264.402 74.1939   1
  -7   9  -1 235.102 76.9488  10
  -7   9  -2 116.346 60.1916   3
   7  -9   2-25.7610 60.5152   7
   7  -9   2 72.4004 54.1654   1
  -7   9  -2 70.7990 48.8126   2
  -7   9  -2 72.9876 64.2035  10
  -7   9  -3 6.61292 41.7644   3
   7  -9   3 64.4240 65.3976   7
   7  -9   3 13.1084 51.4933   1
  -7   9  -3-44.3814 52.6079   2
  -7   9  -3 2.22443 44.8263  10
  -7   9  -4 117.458 56.2129   3
   7  -9   4 267.021 89.8682   7
   7  -9   4 312.793 82.3567   1
  -7   9  -4 189.210 80.5051   2
  -7   9  -4 181.070 64.3717  10
  -7   9  -5 252.763 74.0809   3
   7  -9   5 205.250 90.3547   7
   7  -9   5 241.370 87.9905   1
  -7   9  -5 321.620 92.0027   2
  -7   9  -5 389.505 84.9856  10
  -7   9  -6 236.666 80.6361   3
   7  -9   6 157.664 72.4688   7
   7  -9   6 299.175 85.3915   1
  -7   9  -6 91.6197 57.5060   2
  -7   9  -6 253.634 80.6326  10
  -7   9  -7 1057.62 138.315   3
   7  -9   7 1228.91 165.479   1
   7  -9   7 960.941 153.425   7
  -7   9  -7 1248.64 159.549   2
   7  -9   8 19.2699 52.6931   1
  -7   9  -8-23.9568 65.4093   3
   7  -9   8 142.755 87.6743   7
  -7   9  -8 70.3911 79.2485   2
   7  -9   9-7.86055 59.6670   1
  -7   9  -9-23.1235 65.9450   3
  -7   9  -9 135.100 84.8357   2
  -7   9 -10 78.4322 62.5462   2
   7  -9  10 65.4612 68.4736   1
  -7   9 -11 65.8708 68.9571   2
   7  -9  11 35.6980 67.9763   1
  -7   9 -12 41.1268 72.2289   2
   7  -8 -11 170.864 90.9491   8
  -7   8  11 432.839 128.047   6
   7  -8 -10 436.609 103.095   8
  -7   8  10 741.989 136.797   6
   7  -8  -9 184.237 77.1059   8
  -7   8   9-89.7022 70.5607   3
  -7   8   9 56.9248 70.0399   6
  -7   8   9 3.98691 46.9227   1
  -7   8   9 16.8959 68.0132  10
   7  -8  -9 136.387 71.2265   3
  -7   8   8 651.076 122.745   3
  -7   8   8 782.991 135.082   6
  -7   8   8 558.777 103.473   1
  -7   8   8 771.398 135.329  10
   7  -8  -8 792.420 117.270   3
  -7   8   7 757.540 121.981   3
   7  -8  -7 807.002 124.611   7
  -7   8   7 757.110 126.152   6
   7  -8  -7 775.419 129.369   1
  -7   8   7 806.318 115.159   1
  -7   8   7 739.574 139.143  10
   7  -8  -7 912.114 121.560   3
  -7   8   6 1321.90 145.445   1
  -7   8   6 1397.51 150.791   3
   7  -8  -6 1509.92 164.811   7
  -7   8   6 1716.54 166.502   6
   7  -8  -6 1322.42 153.436   1
   7  -8  -6 1788.37 165.235   3
  -7   8   6 1562.48 180.266  10
  -7   8   5 3351.39 221.672   1
   7  -8  -5 3363.96 252.964   7
  -7   8   5 3330.77 218.872   6
   7  -8  -5 3308.13 222.746   1
  -7   8   5 3484.30 266.348  10
  -7   8   5 3051.39 223.507   3
   7  -8  -4 4858.00 288.597   7
   7  -8  -4 4058.92 253.502   1
  -7   8   4 4462.20 298.388  10
  -7   8   4 4472.58 263.047   3
  -7   8   3 1213.30 138.347   3
   7  -8  -3 1046.58 137.310   7
   7  -8  -3 1004.72 124.084   1
  -7   8   3 1344.81 160.836  10
  -7   8   2 109.808 52.7337   3
   7  -8  -2 390.518 89.7844   7
   7  -8  -2 379.339 75.5709   1
  -7   8   2 280.981 83.0654  10
   7  -8  -1 479.013 90.4392   1
  -7   8   1 398.834 86.4633   3
   7  -8  -1 486.312 108.012   7
  -7   8   1 455.461 75.1332   2
  -7   8   1 451.961 95.1341  10
  -7   8   0 624.909 97.4258   3
   7  -8   0 579.311 108.512   7
  -7   8   0 492.244 76.3137   2
   7  -8   0 643.614 102.341   1
  -7   8   0 397.471 91.8164  10
  -7   8  -1 336.321 69.7353   3
   7  -8   1 309.973 86.2514   7
   7  -8   1 263.508 74.3403   1
  -7   8  -1 198.600 60.2108   2
  -7   8  -1 180.451 62.3694  10
   7  -8   2 1525.13 162.004   7
   7  -8   2 1324.16 145.776   1
  -7   8  -2 1331.34 143.474   2
  -7   8  -2 1451.86 160.517  10
  -7   8  -2 1451.77 141.370   3
   7  -8   3 1766.32 172.782   7
  -7   8  -3 1760.64 171.962   2
   7  -8   3 2012.11 177.856   1
  -7   8  -3 1745.27 170.655  10
  -7   8  -3 1734.30 159.152   3
  -7   8  -4 552.974 91.3592   3
   7  -8   4 691.156 115.374   7
   7  -8   4 807.453 118.983   1
  -7   8  -4 880.685 123.169   2
  -7   8  -4 767.140 111.556  10
  -7   8  -5 562.710 103.910   3
   7  -8   5 765.983 124.109   1
   7  -8   5 652.628 119.967   7
  -7   8  -5 690.245 121.245   2
   7  -8   6 481.110 91.6910   1
  -7   8  -6 424.639 98.2575   3
   7  -8   6 196.479 74.2067   7
  -7   8  -6 468.230 112.668   2
   7  -8   7 16.1874 51.2272   1
  -7   8  -7 100.762 51.5057   3
   7  -8   7 184.767 86.9541   7
  -7   8  -7 225.756 84.1973   2
  -7   8  -8-27.1974 54.6664   3
   7  -8   8-34.7772 52.9549   7
  -7   8  -8 72.5154 83.3634   2
  -7   8  -9-50.0747 44.2779   3
  -7   8  -9-89.1356 60.6763   2
   7  -8   9-78.2676 70.8037   1
  -7   8 -10 74.6305 58.9084   3
  -7   8 -10 31.6709 56.8248   2
   7  -8  10 87.7966 60.7697   1
  -7   8 -11 34.2004 69.4484   2
   7  -8  11 67.2078 72.8381   1
  -7   8 -12-8.96990 63.2898   2
   7  -8  12 137.255 99.4022   1
  -7   7  12 145.935 113.025   6
  -7   7  11 151.342 70.9822   6
   7  -7 -10 74.8229 50.6697   8
  -7   7  10-7.25152 66.1419   6
   7  -7  -9 77.1854 52.2583   8
   7  -7  -9-32.8027 65.3847   7
  -7   7   9 166.025 81.9652   6
  -7   7   9-10.2707 49.4153  10
   7  -7  -9 106.983 52.3257   3
   7  -7  -8 18.1747 39.2953   8
   7  -7  -8 122.446 71.3606   7
  -7   7   8 195.202 77.6037   6
  -7   7   8 50.5574 39.3611   1
  -7   7   8-38.1961 54.9744  10
   7  -7  -8-15.3220 51.2346   3
  -7   7   7 200.357 68.6891   3
   7  -7  -7 223.286 75.5486   7
  -7   7   7 184.992 64.3440   6
   7  -7  -7 344.674 89.9246   1
  -7   7   7 185.870 59.4637   1
  -7   7   7 303.913 80.5113  10
   7  -7  -7 244.644 68.2875   3
  -7   7   6 1305.22 133.453   1
   7  -7  -6 1371.67 152.915   7
  -7   7   6 1721.91 160.911   6
   7  -7  -6 1555.99 151.941   1
  -7   7   6 1669.32 176.784  10
  -7   7   6 1423.87 145.904   3
   7  -7  -6 1181.53 127.042   3
  -7   7   5 152.269 53.2340   3
   7  -7  -5 52.9355 54.3446   7
  -7   7   5 182.185 62.9268   6
   7  -7  -5 63.2511 45.3722   1
  -7   7   5 152.366 64.2302   1
  -7   7   5 115.353 68.7504  10
   7  -7  -4 268.246 69.1844   1
  -7   7   4 310.184 73.1553   3
   7  -7  -4 296.460 78.3961   7
  -7   7   4 172.030 59.5190   6
  -7   7   4 271.983 89.0140  10
  -7   7   3-32.0518 47.6261   3
   7  -7  -3 25.1504 46.9828   7
   7  -7  -3 51.8698 44.8381   1
  -7   7   3 65.7713 53.9909  10
  -7   7   2 931.261 109.411   3
   7  -7  -2 1218.52 132.689   7
   7  -7  -2 994.990 113.446   1
  -7   7   2 919.920 98.5169   2
  -7   7   2 1042.25 132.771  10
   7  -7  -1 4000.73 262.104   7
  -7   7   1 4780.53 236.095   2
   7  -7  -1 4183.21 232.806   1
  -7   7   1 4761.15 280.108  10
  -7   7   1 4408.98 236.830   3
   7  -7   0 4406.10 263.871   7
  -7   7   0 4188.45 227.261   2
   7  -7   0 3936.85 233.846   1
  -7   7   0 3879.60 252.659  10
  -7   7   0 3924.98 221.739   3
   7  -7   1 2518.44 199.192   7
  -7   7  -1 2132.95 168.367   2
   7  -7   1 2230.69 169.781   1
  -7   7  -1 2099.47 186.856  10
  -7   7  -1 2070.86 157.922   3
   7  -7   2 1877.38 175.322   7
  -7   7  -2 2249.61 175.382   2
   7  -7   2 1845.08 157.372   1
  -7   7  -2 2081.95 181.376  10
  -7   7  -2 1843.67 150.292   3
   7  -7   3 1578.58 170.847   7
  -7   7  -3 1570.81 156.265   2
   7  -7   3 1624.06 152.017   1
  -7   7  -3 1561.72 140.712   3
  -7   7  -3 1666.92 163.212  10
  -7   7  -4-13.8826 44.0919   3
   7  -7   4-66.8349 62.8632   1
   7  -7   4 2.17455 56.1977   7
  -7   7  -4-1.59621 47.9003   2
   7  -7   5 63.8815 64.7840   1
  -7   7  -5-8.05994 43.0945   3
   7  -7   5 48.0118 56.2169   7
  -7   7  -5 53.6667 47.5671   2
   7  -7   6 1372.82 162.854   7
   7  -7   6 1710.74 170.801   1
  -7   7  -6 1527.95 164.021   2
  -7   7  -6 1443.95 142.150   3
  -7   7  -7 751.944 106.600   3
   7  -7   7 1189.63 165.209   7
  -7   7  -7 844.081 126.014   2
   7  -7   7 931.379 133.688   1
  -7   7  -8 633.598 101.867   3
   7  -7   8 793.377 136.308   7
  -7   7  -8 587.088 117.632   2
   7  -7   8 718.647 125.667   1
  -7   7  -9 555.392 107.345   3
   7  -7   9 1001.33 158.779   7
  -7   7  -9 1127.97 161.396   2
   7  -7   9 820.352 138.680   1
  -7   7 -10 470.441 103.433   3
  -7   7 -10 390.971 103.926   2
   7  -7  10 399.299 92.4681   1
  -7   7 -11 337.352 107.658   2
   7  -7  11 258.109 101.079   1
  -7   7 -12 165.753 91.5441   2
   7  -7  12 401.182 108.725   1
  -7   6  13 1345.87 196.456   6
  -7   6  12 1208.62 182.078   6
  -7   6  11 1623.12 192.593   6
  -7   6  10 1245.18 168.564   6
  -7   6   9 48.5468 52.9559   6
  -7   6   9 79.9315 49.7048  10
   7  -6  -8 59.8821 43.0612   8
   7  -6  -8 34.2531 57.4506   7
  -7   6   8-14.8946 44.5778   6
  -7   6   8-36.2161 60.5138  10
   7  -6  -8 57.1042 40.3611   3
   7  -6  -7 99.9748 64.1670   7
   7  -6  -7 0.76155 36.3101   1
  -7   6   7-3.35587 52.1297   6
  -7   6   7-15.6641 41.7360  10
   7  -6  -7-12.9794 38.2262   3
   7  -6  -6 58.8386 51.7476   7
   7  -6  -6 110.495 49.7411   1
  -7   6   6 90.1386 57.2475   6
   7  -6  -6 64.9346 46.5344   3
  -7   6   6 73.1180 45.7610   1
  -7   6   6 71.6717 56.3129  10
   7  -6  -5 459.726 99.8803   7
  -7   6   5 458.587 80.3795   6
   7  -6  -5 337.019 81.7109   1
  -7   6   5 327.791 72.4717   1
  -7   6   5 537.448 93.0555  10
  -7   6   4 319.250 65.8010   3
   7  -6  -4 374.021 82.5987   7
  -7   6   4 282.748 60.9221   6
  -7   6   4 312.939 81.5659  10
   7  -6  -4 305.217 63.4158   1
  -7   6   3 62.5823 32.8186   3
   7  -6  -3 29.5402 47.4447   7
  -7   6   3 22.6653 30.5902   6
   7  -6  -3-9.67023 37.1747   1
  -7   6   3 18.5223 33.5450   2
  -7   6   3 48.0758 47.7478  10
   7  -6  -2 898.877 99.8293   1
  -7   6   2 836.120 97.0016   3
   7  -6  -2 711.615 117.739   7
  -7   6   2 678.387 78.9565   6
  -7   6   2 700.253 88.6308   2
  -7   6   2 801.135 114.883  10
  -7   6   1 132.236 50.2459   3
   7  -6  -1 220.833 72.4620   7
  -7   6   1 187.517 60.7142   2
   7  -6  -1 78.8124 50.2381   1
  -7   6   1 87.6190 45.8575  10
  -7   6   0 436.113 62.9469   3
   7  -6   0 498.785 93.8245   7
   7  -6   0 438.735 75.9576   1
  -7   6   0 473.672 77.5169   2
  -7   6   0 502.590 91.3572  10
  -7   6  -1 511.363 76.4882   3
   7  -6   1 644.385 101.689   7
   7  -6   1 600.438 87.9688   1
   7  -6   1 486.939 73.7658   4
  -7   6  -1 401.108 81.0040   2
  -7   6  -1 659.724 106.699  10
  -7   6  -2 865.896 98.6857   3
   7  -6   2 747.188 111.024   7
   7  -6   2 776.586 102.465   1
   7  -6   2 740.675 90.9659   4
  -7   6  -2 858.040 114.308   2
   7  -6   3 2579.99 206.720   7
  -7   6  -3 2247.03 182.542   2
   7  -6   3 2269.41 178.910   1
   7  -6   3 2289.65 162.233   4
  -7   6  -3 2286.57 158.515   3
   7  -6   4 1605.18 168.969   7
  -7   6  -4 1457.57 159.666   2
   7  -6   4 1347.68 143.731   1
   7  -6   4 1438.11 132.052   4
  -7   6  -4 1637.40 139.480   3
   7  -6   5 1684.01 176.358   7
  -7   6  -5 1527.93 159.274   2
   7  -6   5 1528.45 151.855   1
  -7   6  -5 1445.99 133.093   3
   7  -6   6 1486.68 171.014   7
  -7   6  -6 1760.98 176.083   2
   7  -6   6 1526.69 156.554   1
  -7   6  -6 1374.68 138.089   3
  -7   6  -7 978.772 121.102   3
   7  -6   7 982.273 150.689   7
  -7   6  -7 1043.69 141.406   2
   7  -6   7 1242.86 150.169   1
  -7   6  -8 72.4368 46.6443   3
   7  -6   8 90.3867 76.3726   7
  -7   6  -8 171.545 80.7834   2
   7  -6   8 203.714 65.2182   1
  -7   6  -9-9.83824 39.4491   3
   7  -6   9 94.6007 84.3575   7
  -7   6  -9 47.2509 63.5296   2
   7  -6   9-46.0374 62.6517   1
  -7   6 -10 291.219 80.9511   3
  -7   6 -10 423.184 95.8505   2
   7  -6  10 536.251 112.741   1
  -7   6 -11 227.517 107.941   2
   7  -6  11 477.688 115.103   1
  -7   6 -12 384.349 111.368   2
   7  -6  12 659.337 140.901   1
  -7   5  14 89.3242 84.7988   6
  -7   5  13 743.342 142.823   6
  -7   5  12 891.546 159.611   6
  -7   5  11 88.4106 69.9728   6
   7  -5 -10 455.177 105.857   7
  -7   5  10 495.102 106.006   6
   7  -5  -9 2045.25 194.683   7
  -7   5   9 2108.31 199.479   6
  -7   5   9 2194.93 184.814  10
  -7   5   8 4287.50 271.842   6
  -7   5   8 4326.09 259.199  10
   7  -5  -7 4034.10 257.335   7
  -7   5   7 3906.81 254.445   6
  -7   5   7 4025.10 248.070  10
   7  -5  -6 4535.79 263.414   7
  -7   5   6 4073.64 241.110   6
  -7   5   6 4063.26 248.497  10
   7  -5  -5 3493.97 228.477   7
  -7   5   5 3633.71 233.473  10
   7  -5  -4 189.039 64.8413   7
  -7   5   4 251.967 56.9438   6
  -7   5   4 253.442 70.1020  10
   7  -5  -4 225.037 49.1290   1
   7  -5  -3 17.9717 46.5290   7
  -7   5   3 3.37472 27.8451   6
   7  -5  -3-11.5949 27.7274   1
  -7   5   3 5.61075 31.3233   2
  -7   5   3-17.6469 43.2167  10
   7  -5  -2 392.923 64.8464   1
   7  -5  -2 242.473 71.7423   7
  -7   5   2 424.473 65.2241   6
  -7   5   2 401.792 66.4690   2
  -7   5   2 532.193 96.2720  10
   7  -5  -1 407.494 78.8257   7
  -7   5   1 354.087 61.7532   6
   7  -5  -1 401.842 61.2855   4
  -7   5   1 323.616 66.7926   2
   7  -5  -1 360.332 68.2359   1
  -7   5   1 463.045 82.3332  10
   7  -5   0 2755.48 193.588   7
  -7   5   0 2502.19 171.613   2
   7  -5   0 2384.48 158.684   1
   7  -5   0 2473.45 147.214   4
   7  -5   1 690.993 109.579   7
   7  -5   1 712.795 88.3390   1
   7  -5   1 586.655 74.7543   4
  -7   5  -1 561.633 95.4933   2
   7  -5   2 55.2309 44.1990   1
   7  -5   2-1.53998 44.0510   7
   7  -5   2 97.7900 46.8837   4
  -7   5  -2 50.0535 42.8490   2
   7  -5   3 1927.87 174.753   7
  -7   5  -3 1795.57 164.955   2
   7  -5   3 1796.70 147.328   1
   7  -5   3 1838.89 139.230   4
  -7   5  -4 331.077 65.8701   3
   7  -5   4 250.767 77.5403   7
   7  -5   4 281.131 61.0659   4
  -7   5  -4 256.916 71.6322   2
   7  -5   4 148.931 56.9055   1
  -7   5  -5 409.695 72.4751   3
   7  -5   5 447.507 87.5454   7
  -7   5  -5 463.888 97.8999   2
   7  -5   5 435.408 84.0532   1
  -7   5  -6 236.741 70.8141   3
   7  -5   6 320.780 88.2197   7
  -7   5  -6 309.563 82.0978   2
   7  -5   6 257.648 78.6147   1
   7  -5   7 187.590 70.8601   7
  -7   5  -7 324.442 98.1731   2
   7  -5   7 254.900 77.9089   1
   7  -5   8 206.140 89.3993   7
  -7   5  -8 64.9582 56.0424   2
   7  -5   8 191.995 75.6637   1
   7  -5   9 386.791 103.906   7
  -7   5  -9 483.600 102.131   2
   7  -5   9 468.735 100.601   1
  -7   5 -10 172.417 88.9444   2
   7  -5  10 242.200 92.0068   1
  -7   5 -11 187.172 95.5356   2
   7  -5  11 93.5526 54.5466   1
  -7   5 -12 117.818 83.5512   2
   7  -5  12 105.050 75.8295   1
  -7   4  14 259.158 92.2378   6
  -7   4  13 33.9194 81.7560   6
  -7   4  12 434.600 113.169   6
   7  -4 -11 307.566 105.645   7
  -7   4  11 391.167 104.598   6
   7  -4 -10 266.097 80.5761   7
  -7   4  10 160.575 64.4409   6
   7  -4  -9 1995.51 194.372   7
  -7   4   9 2367.12 202.757   6
  -7   4   9 1980.74 166.991  10
   7  -4  -8 1802.00 175.087   7
  -7   4   8 1778.69 173.252   6
  -7   4   8 1583.70 151.183  10
   7  -4  -7 69.1293 53.4080   7
  -7   4   7 40.4994 54.1008   6
  -7   4   7-24.0759 43.8948  10
   7  -4  -6 242.688 74.3300   7
  -7   4   6 190.319 65.3946   6
  -7   4   6 290.568 73.0311  10
   7  -4  -5 1585.14 152.955   7
  -7   4   5 1344.11 131.196   6
  -7   4   5 1244.72 133.040  10
   7  -4  -4 1142.93 121.289   7
  -7   4   4 1233.45 117.079   6
  -7   4   4 1104.73 99.5257   2
  -7   4   4 1237.97 131.917  10
   7  -4  -3 4831.32 255.793   7
  -7   4   3 4863.92 230.112   6
  -7   4   3 4829.13 215.564   2
   7  -4  -3 4638.31 184.891   4
   7  -4  -2 7137.89 308.029   7
  -7   4   2 7230.39 278.860   2
   7  -4  -2 6589.50 238.433   1
   7  -4  -2 7719.61 237.146   4
   7  -4  -1 3497.46 217.986   7
  -7   4   1 3341.02 179.113   6
  -7   4   1 3877.64 208.511   2
   7  -4  -1 3702.20 177.596   1
   7  -4  -1 3608.00 162.780   4
   7  -4   0 2480.04 184.051   7
  -7   4   0 2698.22 151.804   6
  -7   4   0 2569.43 180.211   2
   7  -4   0 2751.49 155.915   1
   7  -4   0 2662.25 145.009   4
   7  -4   1 1082.23 128.820   7
   7  -4   1 1005.46 99.7965   1
   7  -4   1 1045.43 94.5342   4
  -7   4  -1 926.087 112.286   2
   7  -4   2 9.90233 30.9109   1
   7  -4   2-16.8108 42.3222   7
   7  -4   2 43.4355 27.6235   4
  -7   4  -2-1.63183 42.9477   2
   7  -4   3 1504.49 149.138   7
   7  -4   3 1259.43 124.923   1
  -7   4  -3 1163.04 127.262   2
   7  -4   4 1067.80 131.093   7
  -7   4  -4 936.482 124.534   2
   7  -4   4 1076.52 120.977   1
   7  -4   5 370.728 87.7215   7
  -7   4  -5 299.634 82.3712   2
   7  -4   5 240.609 66.3399   1
   7  -4   6 895.892 126.295   7
  -7   4  -6 1073.28 145.125   2
   7  -4   6 1059.63 130.720   1
   7  -4   7 1676.30 176.927   7
  -7   4  -7 1830.56 185.036   2
   7  -4   7 1873.00 176.345   1
   7  -4   8 219.270 87.2982   7
   7  -4   8 84.5093 52.2323   1
  -7   4  -8 248.440 76.6343   2
   7  -4   9 170.730 89.3200   7
   7  -4   9 109.193 76.0247   1
  -7   4  -9-1.22007 70.4889   2
   7  -4  10 317.124 98.2114   1
  -7   4 -10 260.280 100.043   2
   7  -4  11-76.3077 67.7695   1
  -7   4 -11 28.3190 66.3440   2
  -7   4 -12 35.8265 66.2399   2
  -7   3  15 947.182 173.575   6
  -7   3  14 244.723 94.6517   6
  -7   3  13 181.789 85.1420   6
   7  -3 -12 686.426 127.689   7
  -7   3  12 787.385 141.435   6
   7  -3 -11 8.00222 52.6535   7
  -7   3  11-23.0553 55.9220   6
   7  -3 -10 747.464 123.538   7
  -7   3  10 921.706 136.390   6
   7  -3  -9 528.929 107.367   7
  -7   3   9 335.458 86.9389   6
   7  -3  -8 565.790 103.784   7
  -7   3   8 438.903 92.1693   6
   7  -3  -7 125.899 56.8457   7
  -7   3   7 129.485 60.5237   6
   7  -3  -6 213.844 65.8250   7
  -7   3   6 183.059 53.2720   6
  -7   3   5 4299.97 196.184   2
  -7   3   5 4579.69 245.379   6
   7  -3  -5 5072.06 172.031   4
   7  -3  -4 1475.77 149.240   7
  -7   3   4 1682.33 142.989   6
  -7   3   4 1684.11 124.469   2
   7  -3  -4 1683.40 90.0693   4
   7  -3  -3 322.238 70.4782   7
  -7   3   3 341.706 66.8707   6
  -7   3   3 428.475 71.8122   2
   7  -3  -3 358.535 43.0649   4
   7  -3  -2 268.176 73.6597   7
  -7   3   2 340.971 57.7744   6
  -7   3   2 297.536 57.1151   2
   7  -3  -1 640.941 98.2046   7
  -7   3   1 732.081 84.6064   6
  -7   3   1 587.345 89.7187   2
   7  -3   0 146.602 55.8579   7
  -7   3   0 262.958 56.5743   6
  -7   3   0 191.680 58.3968   2
   7  -3   1 1680.72 151.178   7
  -7   3  -1 1485.12 120.015   6
  -7   3  -1 1571.94 146.594   2
   7  -3   1 1646.81 122.176   1
   7  -3   2 4342.54 250.827   7
  -7   3  -2 4491.25 246.135   2
   7  -3   2 4124.60 207.639   1
   7  -3   3 4041.60 242.371   7
  -7   3  -3 3843.67 241.144   2
   7  -3   3 4084.08 216.233   1
   7  -3   4 1750.86 168.056   7
  -7   3  -4 1377.01 149.727   2
   7  -3   4 1729.09 144.936   1
   7  -3   5 2243.59 195.148   7
  -7   3  -5 2057.80 186.875   2
   7  -3   5 2136.37 174.005   1
   7  -3   6 600.468 111.368   7
   7  -3   6 151.878 72.5399   5
   7  -3   6 468.398 92.9326   1
  -7   3  -6 441.116 107.781   2
   7  -3   7-88.0837 81.5686   7
   7  -3   7 41.4338 48.9999   1
   7  -3   7-98.6727 63.7609   5
  -7   3  -7-8.10108 56.4901   2
   7  -3   8 460.316 104.477   7
   7  -3   8 484.693 93.5014   1
  -7   3  -8 572.128 120.837   2
   7  -3   9 47.8659 55.6806   7
   7  -3   9 251.976 79.2728   1
  -7   3  -9 347.983 97.0994   2
   7  -3  10 889.448 138.732   1
  -7   3 -10 667.411 123.346   2
   7  -3  11 893.909 147.291   1
  -7   3 -11 641.222 149.318   2
  -7   2  15 644.598 144.155   6
  -7   2  14 59.0581 70.1194   6
  -7   2  13-23.7910 73.7687   6
   7  -2 -12 789.978 138.637   7
  -7   2  12 654.981 124.951   6
  -7   2  11 2803.56 253.744   6
   7  -2 -10 1161.26 147.787   7
  -7   2  10 873.660 128.641   6
  -7   2   9 4134.40 269.097   6
  -7   2   8 2593.55 202.104   6
   7  -2  -7 606.414 97.9494   7
  -7   2   7 466.654 80.7676   6
   7  -2  -6 312.002 68.2578   7
  -7   2   6 315.487 75.7462   6
   7  -2  -6 228.706 29.1449   4
   7  -2  -5 559.566 94.0212   7
  -7   2   5 583.510 88.6096   6
  -7   2   5 688.615 79.6561   2
   7  -2  -4 415.614 71.8005   7
  -7   2   4 375.786 74.5812   6
  -7   2   4 393.843 63.0705   2
   7  -2  -3 1345.35 128.360   7
  -7   2   3 1508.80 131.288   6
  -7   2   3 1246.52 114.494   2
   7  -2  -2 520.718 81.5934   7
  -7   2   2 527.249 80.1583   6
  -7   2   2 491.550 81.3320   2
   7  -2  -1 35.0881 41.4891   7
  -7   2   1 66.8767 44.7289   6
  -7   2   1 32.9977 41.4263   2
   7  -2   0 21.2653 47.1187   7
  -7   2   0 24.5784 28.9554   6
  -7   2   0 48.4472 37.1484   2
   7  -2   1 62.8168 41.7855   7
  -7   2  -1 38.7152 41.9773   6
  -7   2  -1 18.2731 43.1165   2
   7  -2   2 857.812 111.279   7
  -7   2  -2 709.838 103.049   2
   7  -2   3 570.092 98.2919   7
  -7   2  -3 218.475 72.9128   2
   7  -2   3 399.222 70.5545   1
   7  -2   4 41.9731 49.3146   7
  -7   2  -4-30.7386 52.2278   2
   7  -2   4-10.8647 56.3514   5
   7  -2   4 30.3528 42.2196   1
   7  -2   5 1065.71 135.581   7
   7  -2   5 970.447 117.359   1
  -7   2  -5 954.479 135.005   2
   7  -2   5 560.469 107.094   5
   7  -2   6 1178.37 146.058   7
   7  -2   6 1420.74 146.799   1
  -7   2  -6 1301.90 156.487   2
   7  -2   6 1286.03 147.426   5
   7  -2   7 669.194 122.819   7
   7  -2   7 795.923 114.066   1
  -7   2  -7 624.649 117.110   2
   7  -2   7 641.036 112.789   5
   7  -2   8 1121.59 161.437   7
   7  -2   8 1315.29 157.738   1
  -7   2  -8 1302.94 162.525   2
   7  -2   9 1197.12 170.924   7
   7  -2   9 957.523 141.217   1
  -7   2  -9 758.654 133.261   2
   7  -2  10 129.954 65.3972   1
  -7   2 -10 145.716 73.9705   2
   7  -2  11-16.8282 56.6449   1
  -7   2 -11 53.1318 54.5615   2
  -7   1  15 10.4320 64.4569   6
  -7   1  14 470.825 124.641   6
   7  -1 -13 301.277 87.0351   9
   7  -1 -13 271.352 90.6716   7
  -7   1  13 201.592 102.875   6
   7  -1 -12 1286.94 152.263   9
   7  -1 -12 1280.03 158.347   7
  -7   1  12 1498.47 181.741   6
   7  -1 -11 2078.32 196.280   7
  -7   1  11 2371.00 216.634   6
   7  -1 -10 1655.71 167.429   7
  -7   1  10 1912.28 182.252   6
   7  -1  -9 289.843 83.3845   7
  -7   1   9 430.325 86.0020   6
   7  -1  -8 606.030 100.527   7
  -7   1   8 683.283 111.867   6
   7  -1  -7 3451.67 213.366   7
  -7   1   7 3516.97 227.848   6
   7  -1  -6 1057.57 120.988   7
  -7   1   6 1076.23 104.389   2
  -7   1   6 1190.33 131.673   6
   7  -1  -5 7073.85 288.231   7
  -7   1   5 6766.58 266.876   2
   7  -1  -4 8253.57 318.251   7
  -7   1   4 8554.29 343.224   6
  -7   1   4 8092.85 309.525   2
   7  -1  -3 791.710 95.6361   7
  -7   1   3 610.672 89.3188   6
  -7   1   3 914.262 104.025   2
   7  -1  -2 1216.32 119.561   7
  -7   1   2 1330.28 127.397   6
  -7   1   2 1132.97 118.657   2
   7  -1  -1 1327.83 125.078   7
  -7   1   1 1713.98 141.466   6
  -7   1   1 1507.13 140.104   2
   7  -1   0 26.0187 35.3163   7
  -7   1   0 64.5501 46.3382   6
  -7   1   0-18.3358 56.3469   2
   7  -1   1 1061.08 120.444   7
  -7   1  -1 1027.81 126.957   2
   7  -1   1 731.162 128.453   5
   7  -1   2 1760.38 151.585   7
  -7   1  -2 1635.86 157.840   2
   7  -1   2 1485.70 165.239   5
   7  -1   3 18.0118 41.9957   7
  -7   1  -3 36.9657 50.2376   2
   7  -1   3 56.8810 54.6070   5
   7  -1   4 743.770 105.214   7
  -7   1  -4 912.284 129.141   2
   7  -1   4 770.015 119.136   5
   7  -1   5 457.174 92.9869   7
  -7   1  -5 445.121 107.709   2
   7  -1   5 451.121 101.624   5
   7  -1   6-8.49856 51.2185   7
  -7   1  -6-49.7462 57.7238   2
   7  -1   6-1.50072 48.3893   5
   7  -1   7-36.0062 55.5611   7
   7  -1   7-19.0322 46.1027   1
  -7   1  -7 17.2249 67.9112   2
   7  -1   7 76.4025 51.7111   5
   7  -1   8 61.9037 71.0858   1
  -7   1  -8-30.1875 61.6642   2
   7  -1   9 74.6435 50.6521   1
  -7   1  -9 2.61055 66.4895   2
   7  -1  10 76.0736 55.8104   1
  -7   1 -10 99.2176 68.3742   2
  -7   0  16 374.293 120.439   6
  -7   0  15 182.898 89.9764   6
  -7   0  14 247.151 101.111   6
   7   0 -13 24.4851 53.4526   9
   7   0 -13-68.2947 70.0931   7
  -7   0  13 94.2677 55.8055   6
   7   0 -12 202.151 76.5349   9
   7   0 -12 4.47115 61.3968   7
  -7   0  12 124.079 69.3951   6
   7   0 -11 329.929 84.6785   9
   7   0 -11 193.783 77.4877   7
  -7   0  11 348.874 101.705   6
   7   0 -10-1.08143 42.8566   9
   7   0 -10-73.0296 60.9417   7
  -7   0  10 7.21327 53.1648   6
   7   0 -10-17.9411 39.1369   5
   7   0  -9 23.7551 49.3085   7
  -7   0   9-18.6011 59.4566   6
   7   0  -9 51.7722 45.5313   5
   7   0  -9 1.75099 43.4313   9
   7   0  -8 635.258 93.1132   7
  -7   0   8 535.523 97.2937   6
   7   0  -8 507.526 99.9729   5
   7   0  -7 1906.53 150.209   7
  -7   0   7 1823.15 136.499   2
  -7   0   7 1896.78 173.135   6
   7   0  -7 1508.32 159.503   5
   7   0  -6 2299.85 160.890   7
  -7   0   6 2308.54 157.367   2
  -7   0   6 2564.90 194.709   6
   7   0  -5 1542.62 127.283   7
  -7   0   5 1381.04 126.509   2
  -7   0   5 1458.38 143.178   6
   7   0  -5 1009.38 132.614   5
   7   0  -4 35.6327 40.3690   7
  -7   0   4-35.9068 49.4333   6
  -7   0   4 55.1760 38.9617   2
   7   0  -4 45.2218 49.1682   5
   7   0  -3 15.0217 39.3423   7
  -7   0   3 40.4436 42.8416   6
  -7   0   3-83.8922 56.1887   2
   7   0  -3 1.50660 60.0183   5
   7   0  -2-12.7084 44.3050   7
  -7   0   2-22.7409 43.8779   6
  -7   0   2 65.4846 58.9345   2
   7   0  -2 62.4728 61.6286   5
   7   0  -1 6226.31 267.215   7
  -7   0   1 6827.38 306.833   6
  -7   0   1 6189.52 294.085   2
   7   0  -1 6091.30 315.218   5
   7   0   0 3274.33 189.644   7
  -7   0   0 3682.97 221.389   6
  -7   0   0 3133.08 212.286   2
   7   0   0 3187.80 228.591   5
   7   0   1 3578.57 207.122   7
  -7   0  -1 4080.81 245.392   2
   7   0   1 3658.76 248.833   5
   7   0   2 3279.65 205.146   7
  -7   0  -2 3860.10 245.825   2
   7   0   2 3457.67 245.149   5
   7   0   2 3695.59 222.941   9
   7   0   3 812.439 101.340   9
  -7   0  -3 866.274 122.214   2
   7   0   3 717.511 118.420   5
  -7   0  -4 109.193 63.5205   2
   7   0   4 107.393 65.4880   5
  -7   0  -5 86.1793 55.5229   2
   7   0   5 116.383 59.7838   5
  -7   0  -6 28.6542 55.2285   2
   7   0   6 131.458 78.2708   5
  -7   0  -7 306.279 88.8002   2
   7   0   7 235.606 75.9945   5
  -7   0  -8 331.755 106.034   2
  -7   0  -9 528.953 115.789   2
  -7  -1  16 41.2719 85.4495   6
  -7  -1  15 33.5806 57.7812   6
   7   1 -14 398.589 109.223   7
  -7  -1  14 666.094 134.004   6
   7   1 -13 605.161 124.797   7
  -7  -1  13 952.928 153.591   6
   7   1 -12 1277.20 156.003   9
   7   1 -12 800.444 143.867   7
  -7  -1  12 1102.44 157.468   6
   7   1 -11 196.708 71.9827   9
   7   1 -11 218.752 72.2076   7
  -7  -1  11 117.687 63.4692   6
   7   1 -10 281.068 78.0998   9
   7   1 -10 226.735 66.1367   7
  -7  -1  10 136.248 61.1679   6
   7   1 -10 199.695 53.0476   5
   7   1  -9 306.502 81.3567   9
   7   1  -9 290.508 68.6190   7
  -7  -1   9 325.403 85.8009   6
   7   1  -9 309.355 78.1979   5
   7   1  -8 52.1742 53.7679   9
   7   1  -8 21.2127 34.9496   7
  -7  -1   8 116.090 66.5200   6
   7   1  -8 166.406 53.9704   5
   7   1  -7 613.513 103.700   9
   7   1  -7 719.333 88.1082   7
  -7  -1   7 584.038 100.415   6
  -7  -1   7 566.178 89.6328   2
   7   1  -7 685.739 105.616   5
   7   1  -6 70.8546 58.2036   9
  -7  -1   6 74.1453 53.0157   6
  -7  -1   6 73.6211 40.5882   2
   7   1  -6 172.676 68.9517   5
   7   1  -5 356.576 82.1117   9
  -7  -1   5 313.403 75.6400   6
  -7  -1   5 283.981 64.1298   2
   7   1  -5 299.894 81.4045   5
   7   1  -4 997.074 123.287   9
  -7  -1   4 1115.99 135.290   6
  -7  -1   4 740.999 99.0631   2
   7   1  -4 1033.81 137.195   5
   7   1  -3 1003.34 126.822   9
  -7  -1   3 872.952 115.705   6
  -7  -1   3 1109.62 122.230   2
   7   1  -3 1134.19 140.395   5
   7   1  -2 771.486 109.111   9
  -7  -1   2 893.013 113.886   6
  -7  -1   2 712.370 107.660   2
   7   1  -2 813.270 123.461   5
   7   1  -1 207.954 70.7748   9
  -7  -1   1 82.3257 50.4611   6
  -7  -1   1 185.424 69.5009   2
   7   1  -1 153.734 70.9369   5
   7   1   0 69.2827 44.2359   9
  -7  -1   0 68.4656 43.1608   2
   7   1   0 54.0316 62.5614   5
   7   1   1 470.385 85.4492   9
  -7  -1  -1 375.439 91.2303   2
   7   1   1 455.625 101.058   5
   7   1   2 32.1412 38.5128   9
  -7  -1  -2 12.4062 44.9382   2
   7   1   2 40.8280 64.3162   5
  -7  -1  -3 1359.66 161.284   2
   7   1   3 1210.22 155.106   5
  -7  -1  -4 1360.47 161.800   2
   7   1   4 1370.04 171.368   5
  -7  -1  -5 1513.32 176.937   2
   7   1   5 1432.07 176.082   5
  -7  -1  -6 2159.49 209.760   2
   7   1   6 1753.28 201.042   5
  -7  -1  -7 1154.25 167.320   2
  -7  -1  -8 43.9076 58.9865   2
  -7  -2  15 947.203 154.805   6
  -7  -2  14 1626.55 192.173   6
  -7  -2  13 1114.11 158.674   6
  -7  -2  12 738.535 137.904   6
   7   2 -11 7.82461 52.1689   9
  -7  -2  11 24.8309 52.0237   6
   7   2 -11 45.8664 13.5223   4
   7   2 -10 115.753 68.6531   9
  -7  -2  10 225.049 83.9964   6
   7   2 -10 216.045 67.8670   5
   7   2  -9 1277.45 156.241   9
  -7  -2   9 1106.78 150.782   6
   7   2  -9 1206.60 140.639   5
  -7  -2   8 1848.58 180.029   6
   7   2  -8 2096.42 181.438   5
   7   2  -8 1841.30 182.321   9
  -7  -2   7 1593.15 147.948   2
  -7  -2   7 1669.76 174.125   6
   7   2  -7 1858.36 173.398   5
   7   2  -7 1771.12 176.619   9
  -7  -2   6 3210.23 212.170   2
  -7  -2   6 3176.65 229.568   6
   7   2  -6 3528.49 238.568   5
   7   2  -6 3592.38 248.383   9
  -7  -2   5 3819.19 228.832   2
  -7  -2   5 3634.44 247.262   6
   7   2  -5 3627.33 249.486   5
   7   2  -5 3881.90 258.060   9
   7   2  -4 26.8583 47.2806   9
  -7  -2   4 188.858 72.1429   6
  -7  -2   4 65.1781 45.1660   2
   7   2  -4 30.8860 55.0181   5
   7   2  -3 161.589 58.6140   9
  -7  -2   3 309.045 82.2053   6
  -7  -2   3 178.409 70.9411   2
   7   2  -3 345.417 88.1768   5
   7   2  -2 8.27341 43.3720   9
  -7  -2   2 55.8103 63.6695   6
  -7  -2   2 13.5652 47.8465   2
   7   2  -2 63.1644 68.4159   5
   7   2  -1 111.857 56.4314   9
  -7  -2   1 189.256 72.5712   6
  -7  -2   1 101.426 50.7511   2
   7   2  -1 122.639 62.5867   5
   7   2   0 33.2085 42.3184   9
  -7  -2   0 53.7883 53.4357   2
   7   2   0-9.12155 54.7017   5
   7   2   1 35.8375 38.6691   9
  -7  -2  -1 0.35703 52.6235   2
   7   2   1-36.1150 58.0814   5
  -7  -2  -2-22.8017 54.3772   2
   7   2   2 18.5825 66.8891   5
  -7  -2  -3-21.4744 49.5928   2
   7   2   3-46.0764 72.2276   5
  -7  -2  -4 25.7092 62.0993   2
   7   2   4-15.0578 90.7248   5
  -7  -2  -5 225.676 86.3796   2
  -7  -2  -6 44.1396 67.3489   2
  -7  -2  -7 188.859 82.3482   2
  -7  -3  15 89.0383 65.0124   6
  -7  -3  14 491.009 124.056   6
  -7  -3  13 134.974 66.3719   6
   7   3 -13 125.432 33.2259   4
  -7  -3  12 1212.66 171.645   6
   7   3 -12 914.204 67.0592   4
  -7  -3  11 215.831 90.5097   6
  -7  -3  10 1175.32 151.817   6
   7   3 -10 1353.43 151.510   5
   7   3  -9 1226.79 151.051   9
  -7  -3   9 1043.81 141.097   6
  -7  -3   9 1133.45 135.334   2
   7   3  -9 1037.91 138.662   5
   7   3  -8 1160.84 152.640   9
  -7  -3   8 1161.23 149.366   6
  -7  -3   8 870.719 120.340   2
   7   3  -8 919.320 127.146   5
   7   3  -7 766.166 122.111   9
  -7  -3   7 939.585 140.034   6
  -7  -3   7 567.951 101.193   2
   7   3  -7 802.458 122.992   5
   7   3  -6 59.1101 59.2336   9
  -7  -3   6 61.1109 60.5980   6
  -7  -3   6 134.556 63.5682   2
   7   3  -6 2.62589 66.4704   5
   7   3  -5 547.058 110.243   9
  -7  -3   5 535.944 109.789   6
  -7  -3   5 570.832 103.302   2
   7   3  -5 546.392 102.550   5
   7   3  -4 554.137 102.846   9
  -7  -3   4 658.443 107.219   6
  -7  -3   4 570.453 102.230   2
   7   3  -4 605.300 116.762   5
  -7  -3   3 2613.06 201.122   2
  -7  -3   3 2355.08 205.133   6
   7   3  -3 2577.23 228.065   5
   7   3  -3 2635.33 208.941   9
  -7  -3   2 3689.98 249.756   2
  -7  -3   2 4053.63 269.434   6
   7   3  -2 3496.40 267.264   5
   7   3  -2 3815.42 253.502   9
  -7  -3   1 2986.39 223.801   2
   7   3  -1 2910.71 245.469   5
   7   3  -1 2531.86 206.415   9
   7   3   0 547.770 97.0244   9
  -7  -3   0 579.667 101.635   2
   7   3   0 675.671 135.721   5
  -7  -3  -1 242.025 78.3048   2
   7   3   1 177.832 81.1871   5
  -7  -3  -2 128.661 76.2330   2
   7   3   2 148.068 78.5018   5
  -7  -3  -3 22.3193 61.5728   2
  -7  -3  -4 84.6433 76.9382   2
  -7  -3  -5 383.226 107.904   2
  -7  -3  -6 308.104 108.311   2
  -7  -4  15 138.496 78.6557   6
  -7  -4  14 631.076 134.469   6
  -7  -4  13 405.309 108.301   6
   7   4 -13 307.640 46.0928   4
  -7  -4  12-54.2669 56.3736   6
  -7  -4  11 59.3757 53.9558   6
  -7  -4  10 804.590 143.789   6
   7   4 -10 700.587 122.396   5
  -7  -4   9 272.986 89.7519   6
  -7  -4   9 217.437 78.2996   2
   7   4  -9 192.745 87.0825   5
  -7  -4   8 48.8527 53.1911   6
  -7  -4   8 91.5549 70.1058   2
   7   4  -8 41.3202 72.1723   5
  -7  -4   7-87.4367 55.4433   6
  -7  -4   7 45.7004 63.3553   2
   7   4  -7-125.289 81.8552   5
   7   4  -6 487.110 104.132   9
  -7  -4   6 518.367 103.187   6
  -7  -4   6 465.604 102.604   2
   7   4  -6 519.690 105.468   5
   7   4  -5 255.755 76.9728   9
  -7  -4   5 324.420 100.759   6
  -7  -4   5 335.913 92.5914   2
   7   4  -5 264.510 81.5215   5
   7   4  -4 780.326 125.588   9
  -7  -4   4 730.596 121.103   6
  -7  -4   4 949.611 136.131   2
   7   4  -4 763.931 136.121   5
  -7  -4   3 1534.64 179.209   6
  -7  -4   3 1389.36 157.605   2
   7   4  -3 1505.24 188.883   5
   7   4  -3 1477.78 166.939   9
   7   4  -2 526.355 106.787   9
  -7  -4   2 404.054 95.0291   2
   7   4  -2 646.114 128.463   5
   7   4  -1-7.69223 46.2559   9
  -7  -4   1 138.716 78.8448   2
   7   4  -1-85.7015 81.4873   5
   7   4   0 57.2777 55.2641   9
  -7  -4   0-108.401 75.5314   2
  -7  -4  -1 1213.56 158.141   2
  -7  -4  -2 1547.32 179.807   2
  -7  -4  -3 1207.30 164.240   2
  -7  -4  -4 800.814 143.439   2
  -7  -5  14 182.058 86.9924   6
  -7  -5  13-18.1984 65.9066   6
   7   5 -13 65.4094 25.1878   4
  -7  -5  12-37.2032 67.1548   6
  -7  -5  11 103.432 56.9522   6
  -7  -5  10 1061.47 155.980   6
   7   5 -10 980.563 148.930   5
  -7  -5   9 793.929 128.416   6
   7   5  -9 569.635 118.561   5
  -7  -5   8 435.238 107.824   6
  -7  -5   8 374.977 100.490   2
   7   5  -8 340.189 84.2481   5
  -7  -5   7 97.5908 77.6159   6
  -7  -5   7 77.3977 69.4175   2
   7   5  -7-28.9528 67.4429   5
  -7  -5   6 85.3986 73.3488   6
  -7  -5   6 44.9795 57.5866   2
   7   5  -6-38.5452 98.3423   5
  -7  -5   5 79.3036 71.4708   6
  -7  -5   5 85.0588 69.8098   2
   7   5  -5 9.74170 71.2456   5
  -7  -5   4 98.3558 68.7836   6
  -7  -5   4-20.8541 68.1632   2
  -7  -5   3 473.999 109.691   2
  -7  -5   2 163.279 94.7681   2
  -7  -5   1 59.4742 68.4045   2
  -7  -5   0 303.939 97.7029   2
  -7  -5  -1 387.077 109.524   2
  -7  -5  -2 137.420 66.9004   2
  -7  -5  -3-59.9886 60.9046   2
  -7  -6  13 365.629 111.608   6
  -7  -6  12 711.099 138.177   6
  -7  -6  11 1304.75 179.895   6
  -7  -6  10 726.415 143.020   6
  -7  -6   9 284.721 92.1735   6
  -7  -6   8 78.1494 83.6345   2
  -7  -6   8 69.7617 59.4899   6
  -7  -6   7 391.975 111.485   6
  -7  -6   7 237.817 79.5319   2
  -7  -6   6 1290.00 177.852   6
  -7  -6   6 1574.75 188.213   2
  -7  -6   5 537.577 127.961   6
  -7  -6   5 573.012 122.881   2
  -7  -6   4 187.706 72.3453   2
  -7  -6   3 596.563 127.448   2
  -7  -6   2 415.878 114.089   2
  -7  -6   1 162.161 80.2526   2
  -7  -6   0 72.7283 83.6868   2
  -7  -6  -1 215.341 90.2472   2
  -7  -7  11 415.812 110.478   6
  -7  -7  10 234.201 84.3967   6
  -7  -7   9 260.473 90.7955   6
  -7  -7   8 1015.78 170.552   6
  -7  -7   7 925.407 158.022   6
  -7  -7   6 388.776 113.781   6
  -7  -7   6 662.078 153.668   2
  -7  -7   5 313.606 98.6546   2
  -7  -7   4 472.708 121.929   2
  -7  -7   3 113.943 84.5149   2
  -7  -7   2 285.323 109.077   2
   8 -13  -1 263.557 96.4608   1
   8 -13   0 179.799 103.493   1
   8 -13   1 327.880 96.1408   1
   8 -13   2 517.517 114.331   1
   8 -13   3 123.419 73.9165   1
  -8  13  -3 208.471 99.0719   2
  -8  13  -4-30.8853 72.6360   2
   8 -13   4-58.9818 69.2340   1
   8 -13   5-101.529 80.4069   1
  -8  13  -5 178.273 101.136   2
  -8  13  -6 162.558 96.2442   2
   8 -12  -4 76.0196 70.7545   1
  -8  12   4 146.145 84.0675   1
   8 -12  -3-21.1569 68.7774   1
   8 -12  -2 51.2036 67.9189   1
   8 -12  -1 171.525 93.8034   1
   8 -12   0 46.3190 59.7473   1
   8 -12   1 53.6660 59.2058   1
   8 -12   2 173.320 84.2300   1
  -8  12  -2 156.324 77.2924   2
  -8  12  -3 297.245 110.189   2
   8 -12   3 255.898 86.4387   1
   8 -12   4 241.929 103.281   1
  -8  12  -4 75.7647 74.3324   2
   8 -12   5 425.626 111.237   1
  -8  12  -5 134.258 78.7272   2
   8 -12   6 303.378 102.717   1
  -8  12  -6 356.146 117.125   2
   8 -12   7 170.482 102.831   1
  -8  12  -7 141.436 98.1237   2
  -8  12  -8-75.5225 103.316   2
   8 -11  -6 681.748 142.945   1
  -8  11   6 796.508 139.877   1
   8 -11  -5 1224.46 166.872   1
  -8  11   5 1011.60 154.434   1
   8 -11  -4 767.804 144.385   1
  -8  11   4 667.262 129.452   1
   8 -11  -3 118.894 84.6690   1
  -8  11   3 241.905 99.6284   3
  -8  11   2 7.57652 76.6079   3
   8 -11  -2-6.48739 49.4561   1
  -8  11   1 116.753 77.6767   3
   8 -11  -1 56.8192 81.8087   1
  -8  11   0 50.7862 58.3536   3
   8 -11   0 105.301 66.2604   1
   8 -11   1 131.368 54.5508   1
  -8  11  -1 99.2465 56.1044   3
  -8  11  -1 199.126 76.7684   2
  -8  11  -2 592.422 117.692   3
  -8  11  -2 755.042 136.728   2
   8 -11   2 602.453 118.792   1
  -8  11  -3 601.897 120.641   3
   8 -11   3 907.259 144.171   1
  -8  11  -3 692.491 133.727   2
  -8  11  -4-51.5567 64.7887   3
   8 -11   4 2.28684 51.2781   1
  -8  11  -4-82.2722 77.8920   2
  -8  11  -5-156.273 70.6686   3
   8 -11   5 72.0003 81.1497   1
  -8  11  -5 79.7755 67.6590   2
   8 -11   6 35.9613 62.7731   1
  -8  11  -6 147.595 76.6432   2
   8 -11   7 109.603 88.7140   1
  -8  11  -7-52.7540 96.8982   2
   8 -11   8 123.078 86.8684   1
  -8  11  -8-53.8000 91.4535   2
   8 -11   9 243.920 105.176   1
  -8  11  -9 296.101 102.561   2
  -8  10   7 45.9222 56.5236   1
   8 -10  -7 115.285 75.7586   1
   8 -10  -6-16.3241 51.0304   1
  -8  10   6-69.3093 58.5860   1
  -8  10   5 213.623 83.0285   1
   8 -10  -5 308.306 94.7589   1
  -8  10   4 653.755 122.088   1
   8 -10  -4 726.381 117.908   1
   8 -10  -3 452.285 104.148   1
  -8  10   2 873.757 129.959   3
   8 -10  -2 1110.29 156.943   7
   8 -10  -2 1151.27 159.114   1
  -8  10   2 1235.35 173.889  10
   8 -10  -1 2191.21 216.298   7
   8 -10  -1 1973.35 195.508   1
  -8  10   1 2395.82 236.260  10
  -8  10   1 1951.12 190.755   3
   8 -10   0 1266.43 156.631   1
  -8  10   0 955.469 131.001   3
   8 -10   0 1162.91 154.668   7
  -8  10   0 1244.17 145.420   2
  -8  10   0 1020.54 153.406  10
  -8  10  -1 459.999 104.946   3
   8 -10   1 521.926 110.721   7
  -8  10  -1 418.597 93.4639   2
  -8  10  -1 410.329 112.366  10
   8 -10   1 453.711 97.6553   1
  -8  10  -2 158.786 78.9066   3
   8 -10   2 84.6072 83.6959   7
  -8  10  -2-63.3916 66.7461   2
   8 -10   2-25.2987 61.7098   1
  -8  10  -2-27.1377 59.6810  10
  -8  10  -3 92.8437 56.4809   3
   8 -10   3 41.8696 60.7012   7
   8 -10   3 6.56088 56.0201   1
  -8  10  -3-42.3875 75.5498   2
  -8  10  -3-82.3292 74.6558  10
  -8  10  -4 35.3448 54.9364   3
   8 -10   4-38.0600 69.8194   1
  -8  10  -4-104.963 85.6936   2
  -8  10  -4-139.208 82.8352  10
  -8  10  -5 170.338 74.4539   3
   8 -10   5 220.259 97.2195   1
  -8  10  -5 161.826 70.9230   2
  -8  10  -5 180.835 83.9110  10
  -8  10  -6 979.180 141.995   3
   8 -10   6 1233.05 168.387   1
  -8  10  -6 1077.24 168.956   2
  -8  10  -7 303.555 94.5093   3
   8 -10   7 497.458 120.494   1
  -8  10  -7 328.470 117.455   2
   8 -10   8 63.9061 77.0504   1
  -8  10  -8 175.521 104.855   2
   8 -10   9 651.893 136.512   1
  -8  10  -9 777.334 155.273   2
  -8  10 -10 205.335 89.4361   2
  -8   9   9 63.8745 70.6300   6
   8  -9  -7 81.4055 73.9730   1
   8  -9  -6 59.7761 56.5467   1
   8  -9  -5-4.67218 53.0380   1
  -8   9   5-24.6983 48.5018   1
  -8   9   5 36.4903 65.9482  10
   8  -9  -4 99.2843 57.3371   1
   8  -9  -4 0.42156 53.3863   7
  -8   9   4 3.81942 54.1224  10
   8  -9  -3 41.9797 45.9533   1
  -8   9   3 116.473 61.8005  10
   8  -9  -2 107.437 61.4965   7
   8  -9  -2 54.0693 46.2887   1
  -8   9   2 91.5626 80.0904  10
   8  -9  -1 134.160 78.3084   7
   8  -9  -1 24.7912 45.5549   1
  -8   9   1 72.9991 67.1354  10
   8  -9   0 296.174 86.7086   1
   8  -9   0 296.224 95.9217   7
  -8   9   0 250.796 83.4371   2
  -8   9   0 277.211 89.5702  10
  -8   9  -1 80.8030 48.8150   3
   8  -9   1-7.35136 65.1669   7
  -8   9  -1-13.7863 46.5561   2
   8  -9   1 39.5418 51.7391   1
  -8   9  -1 136.220 74.7525  10
  -8   9  -2 385.983 85.6641   3
   8  -9   2 623.414 124.970   7
   8  -9   2 664.633 114.801   1
  -8   9  -2 528.287 110.756   2
  -8   9  -2 627.870 115.588  10
   8  -9   3 2128.65 210.822   7
  -8   9  -3 2061.05 199.843   2
   8  -9   3 1959.95 187.969   1
  -8   9  -3 1559.18 159.379   3
  -8   9  -3 1868.82 197.608  10
  -8   9  -4 846.874 125.273   3
   8  -9   4 1114.50 160.695   7
   8  -9   4 1030.67 152.474   1
  -8   9  -4 846.717 134.008   2
  -8   9  -4 831.397 133.395  10
  -8   9  -5 668.237 112.979   3
   8  -9   5 805.153 132.286   7
   8  -9   5 633.978 114.465   1
  -8   9  -5 773.710 131.788   2
  -8   9  -6 196.152 72.7171   3
   8  -9   6 159.049 86.0087   1
  -8   9  -6 340.515 115.880   2
  -8   9  -7-16.0129 59.8108   3
   8  -9   7 12.5864 58.8067   1
  -8   9  -7-62.1973 61.5793   2
   8  -9   8 38.8252 69.8748   1
  -8   9  -8-72.2944 64.4886   2
   8  -9   9 147.253 83.9439   1
  -8   9  -9 151.221 76.7754   2
   8  -9  10 601.764 136.877   1
  -8   9 -10 441.227 133.105   2
  -8   8  10 768.244 145.723   6
  -8   8   9 1212.26 175.779   6
  -8   8   8 1364.30 179.098   6
  -8   8   8 1450.79 181.922  10
  -8   8   7 1412.54 162.973   6
  -8   8   7 1485.13 182.194  10
   8  -8  -6 367.324 103.798   7
  -8   8   6 256.431 88.0699  10
   8  -8  -5 220.303 87.3424   7
   8  -8  -5 171.845 49.1612   1
  -8   8   5 206.689 73.5558  10
   8  -8  -4 64.0715 44.2438   1
   8  -8  -4 81.5073 59.1869   7
   8  -8  -3 60.6642 67.0345   7
   8  -8  -3 141.100 51.2492   1
  -8   8   3 127.426 60.7707  10
   8  -8  -2 313.849 90.7189   7
   8  -8  -2 190.282 57.4250   1
  -8   8   2 211.419 77.2398  10
   8  -8  -1 165.655 57.7354   1
   8  -8  -1 279.540 85.1256   7
  -8   8   1 282.306 66.5626   2
  -8   8   1 247.197 77.8083  10
   8  -8   0 93.3132 61.8351   7
  -8   8   0-45.8855 55.5447   2
   8  -8   0-5.00590 51.4169   1
  -8   8   0 86.7139 64.3678  10
   8  -8   1 94.3303 61.5888   7
   8  -8   1 37.8494 48.8929   1
  -8   8  -1 106.832 58.2363   2
  -8   8  -1 87.1413 63.7445  10
   8  -8   2-25.5633 52.5803   7
   8  -8   2 32.6278 41.9341   1
  -8   8  -2 6.79073 47.9032   2
  -8   8  -2-21.3693 39.7407  10
   8  -8   3 238.484 88.0838   7
   8  -8   3 179.717 48.1020   1
  -8   8  -3 141.513 73.7390   2
   8  -8   4 76.5004 66.2610   7
   8  -8   4 31.9881 51.8845   1
  -8   8  -4 127.328 74.7365   2
   8  -8   5-83.3582 69.3638   7
   8  -8   5 49.0480 49.7108   1
  -8   8  -5-53.8736 63.0103   2
   8  -8   6 298.006 95.2657   1
   8  -8   6 326.001 100.040   7
  -8   8  -6 300.890 94.6385   2
   8  -8   7 633.330 124.793   1
  -8   8  -7 674.211 134.772   2
   8  -8   8 623.767 136.489   1
  -8   8  -8 451.696 127.935   2
  -8   8  -9 602.400 138.142   2
   8  -8   9 393.138 107.546   1
  -8   8 -10 127.550 71.1860   2
   8  -8  10 16.9464 64.9073   1
  -8   7  11 505.643 129.475   6
  -8   7  10 466.108 112.532   6
  -8   7   9 474.166 110.536   6
  -8   7   9 360.956 92.6055  10
  -8   7   8-58.9639 66.5517   6
  -8   7   8 64.2264 54.8788  10
   8  -7  -7 227.040 94.7186   7
  -8   7   7 120.120 65.7084   6
  -8   7   7 127.156 69.0734  10
   8  -7  -6 857.989 149.021   7
  -8   7   6 806.116 116.010   6
  -8   7   6 808.922 127.657  10
   8  -7  -5 1364.64 178.569   7
  -8   7   5 1585.17 177.302  10
   8  -7  -4 4980.61 298.606   7
  -8   7   4 4224.52 286.879  10
   8  -7  -3 3205.26 250.245   7
   8  -7  -3 3283.50 210.988   1
  -8   7   3 3488.94 255.875  10
   8  -7  -2 1151.21 155.874   7
  -8   7   2 1313.61 128.524   2
   8  -7  -2 1571.73 143.041   1
  -8   7   2 1340.35 161.683  10
   8  -7  -1 422.452 75.3956   1
   8  -7  -1 505.346 98.4413   7
  -8   7   1 437.875 87.0776   2
  -8   7   1 513.450 106.519  10
   8  -7   0 551.336 104.978   7
  -8   7   0 598.240 101.224   2
   8  -7   0 450.882 87.1786   1
  -8   7   0 540.521 109.004  10
   8  -7   1 48.9594 61.3840   7
   8  -7   1-5.78662 42.0196   1
  -8   7  -1 53.7268 50.2697   2
   8  -7   2 347.325 95.8152   7
   8  -7   2 219.559 64.8232   1
  -8   7  -2 326.345 75.3556   2
   8  -7   3 890.101 137.825   7
   8  -7   3 686.656 108.720   1
  -8   7  -3 740.250 122.882   2
   8  -7   4 499.545 100.861   1
   8  -7   4 450.328 112.453   7
  -8   7  -4 554.323 112.703   2
   8  -7   5 240.897 76.4102   1
   8  -7   5 335.771 98.2018   7
  -8   7  -5 217.672 85.6701   2
   8  -7   6 381.199 92.7937   1
   8  -7   6 339.926 103.610   7
  -8   7  -6 304.074 100.201   2
  -8   7  -7 258.663 82.3816   2
   8  -7   7 292.699 94.5202   1
  -8   7  -8 72.3770 86.5286   2
   8  -7   8 26.0666 67.1690   1
  -8   7  -9 150.687 78.4984   2
   8  -7   9 39.7697 58.0609   1
  -8   7 -10-73.2421 76.2002   2
   8  -7  10 68.2589 81.2079   1
  -8   6  12 7.81901 78.4118   6
  -8   6  11 90.6417 74.4453   6
  -8   6  10 88.3796 60.1245   6
  -8   6   9 85.2346 71.1099   6
  -8   6   9 8.21298 51.3931  10
   8  -6  -8 78.6523 68.7615   7
  -8   6   8 49.2988 52.1282   6
  -8   6   8 119.089 65.9324  10
   8  -6  -7 828.422 122.006   7
  -8   6   7 614.929 111.209   6
  -8   6   7 649.888 111.388  10
   8  -6  -6 40.7612 60.4862   7
  -8   6   6 43.6294 43.9325   6
  -8   6   6-37.9837 53.8673  10
   8  -6  -5 180.306 85.9882   7
  -8   6   5 515.181 93.9145   6
  -8   6   5 457.177 97.4563  10
   8  -6  -4 593.616 110.783   7
  -8   6   4 420.885 77.8277   6
  -8   6   4 454.764 99.6816  10
   8  -6  -3-62.0680 59.4882   7
  -8   6   3 18.2140 45.1716  10
   8  -6  -2 21.4176 54.1974   7
  -8   6   2 62.6954 44.4264   2
  -8   6   2 52.2113 56.5278  10
   8  -6  -1 1355.67 153.575   7
  -8   6   1 1286.03 131.881   2
   8  -6   0 1893.88 187.476   7
  -8   6   0 1941.37 167.801   2
   8  -6   0 2068.67 154.689   1
   8  -6   0 1925.85 147.522   4
   8  -6   1 2384.59 200.996   7
  -8   6  -1 2052.11 175.544   2
   8  -6   1 2472.92 175.776   1
   8  -6   1 2143.34 158.196   4
   8  -6   2 1984.45 187.532   7
  -8   6  -2 1414.73 155.347   2
   8  -6   2 1697.45 150.540   1
   8  -6   2 1534.68 137.186   4
   8  -6   3 2020.23 193.083   7
  -8   6  -3 1820.16 177.070   2
   8  -6   3 2164.39 182.041   1
   8  -6   3 1861.30 155.526   4
   8  -6   4 514.403 92.9276   1
   8  -6   4 629.436 117.398   7
  -8   6  -4 719.905 116.815   2
   8  -6   5 54.0394 59.4398   1
   8  -6   5-138.178 76.2369   7
  -8   6  -5-94.9142 83.0328   2
   8  -6   6 36.9688 51.8382   7
  -8   6  -6-34.9917 58.8025   2
   8  -6   6-54.3490 58.0250   1
   8  -6   7 411.836 119.143   7
  -8   6  -7 226.839 85.8549   2
   8  -6   7 320.836 92.4716   1
  -8   6  -8 313.560 98.9053   2
   8  -6   8 401.523 96.1910   1
  -8   6  -9 491.387 125.908   2
   8  -6   9 504.700 111.294   1
  -8   6 -10 142.276 83.7893   2
   8  -6  10 463.864 120.018   1
  -8   5  13 314.601 100.921   6
  -8   5  12 825.996 160.483   6
  -8   5  11 1213.66 172.608   6
  -8   5  10 862.696 149.759   6
   8  -5  -9 684.053 133.557   7
  -8   5   9 502.084 109.552   6
  -8   5   9 371.894 87.6874  10
   8  -5  -8 271.072 77.8329   7
  -8   5   8 123.832 57.0376   6
  -8   5   8 181.869 70.1437  10
   8  -5  -7 203.699 65.4858   7
  -8   5   7 362.537 83.5266   6
  -8   5   7 274.743 68.1052  10
   8  -5  -6 65.8584 59.8818   7
  -8   5   6 78.7780 41.9270   6
  -8   5   6 92.4883 57.6539  10
   8  -5  -5 545.117 101.657   7
  -8   5   5 406.625 84.5875   6
  -8   5   5 388.135 89.3043  10
   8  -5  -4 459.194 93.9324   7
  -8   5   4 331.053 67.9039   6
  -8   5   3-40.2253 34.7058   6
  -8   5   3-29.6551 37.8942   2
   8  -5  -2 177.287 65.5492   7
  -8   5   2 159.562 60.7835   2
   8  -5  -2 248.476 51.4510   4
   8  -5  -1 258.585 89.5741   7
  -8   5   1 122.927 57.3508   2
   8  -5  -1 165.270 46.1170   4
   8  -5   0 191.663 76.7735   7
  -8   5   0 164.885 67.1715   2
   8  -5   0 278.082 58.6527   4
   8  -5   1 41.0361 50.2609   7
   8  -5   1 89.5631 44.5668   4
  -8   5  -1 72.0430 52.4997   2
   8  -5   2 7.25242 55.4335   7
   8  -5   2-39.8678 42.8930   4
  -8   5  -2 117.200 68.5232   2
   8  -5   3 117.090 51.1231   1
   8  -5   3 42.4127 60.7406   7
   8  -5   3 169.583 60.6850   4
  -8   5  -3 235.442 83.1758   2
   8  -5   4 736.712 106.694   1
   8  -5   4 891.280 139.219   7
   8  -5   4 514.285 83.4605   4
  -8   5  -4 769.567 124.364   2
   8  -5   5 603.374 116.331   7
  -8   5  -5 383.381 97.8705   2
   8  -5   5 369.398 81.6439   1
   8  -5   6 1092.76 153.926   7
  -8   5  -6 1025.94 149.328   2
   8  -5   6 974.867 132.872   1
   8  -5   7 976.539 151.845   7
  -8   5  -7 898.755 151.648   2
   8  -5   7 1049.85 143.128   1
  -8   5  -8 802.516 157.456   2
   8  -5   8 865.315 139.796   1
  -8   5  -9 209.108 90.5729   2
   8  -5   9 146.735 71.9210   1
  -8   5 -10 16.5334 74.2769   2
   8  -5  10 55.8224 59.3609   1
  -8   4  13 906.524 160.247   6
  -8   4  12 1242.81 183.804   6
  -8   4  11 1250.01 167.765   6
   8  -4 -10 79.5073 72.7852   7
  -8   4  10 103.042 79.3526   6
   8  -4  -9 65.6079 61.5754   7
  -8   4   9 225.011 78.8351   6
   8  -4  -8 2560.83 214.107   7
  -8   4   8 2393.82 213.952   6
   8  -4  -7 1524.68 162.820   7
  -8   4   7 1291.61 144.851   6
   8  -4  -6 1165.22 137.771   7
  -8   4   6 1222.87 138.453   6
   8  -4  -5 1885.84 174.629   7
  -8   4   5 1883.07 163.293   6
   8  -4  -4 3646.53 235.262   7
  -8   4   4 3551.18 215.601   6
  -8   4   4 3142.39 184.632   2
   8  -4  -4 3244.09 161.634   4
   8  -4  -3 872.404 114.719   7
  -8   4   3 1004.45 111.772   6
  -8   4   3 903.818 102.795   2
   8  -4  -3 888.482 82.4030   4
   8  -4  -2 192.259 63.6398   7
  -8   4   2 188.227 52.1688   6
  -8   4   2 65.7770 46.0438   2
   8  -4  -2 134.740 36.6167   4
   8  -4  -1 133.165 74.7036   7
  -8   4   1 46.7806 29.5491   6
  -8   4   1 63.5776 39.3119   2
   8  -4  -1 107.388 39.3288   4
   8  -4   0 333.962 76.6715   7
  -8   4   0 140.367 59.2180   2
   8  -4   0 263.534 56.8677   4
   8  -4   1 116.715 58.4509   7
  -8   4  -1 270.304 76.9439   2
   8  -4   1 257.188 54.3006   4
   8  -4   2 599.861 118.001   7
   8  -4   2 503.159 75.7506   4
  -8   4  -2 504.213 98.7906   2
   8  -4   3 52.8858 47.6515   7
   8  -4   3 18.6271 33.2958   4
  -8   4  -3 77.4623 54.8765   2
   8  -4   4 163.939 59.8814   7
  -8   4  -4-28.3679 47.6688   2
   8  -4   5 131.531 74.8186   7
  -8   4  -5-58.4025 64.1198   2
   8  -4   6 42.5985 63.9367   7
  -8   4  -6-72.5516 76.6865   2
   8  -4   7 51.3828 60.4142   7
   8  -4   7-58.9444 60.2846   5
  -8   4  -7 54.2294 73.2638   2
   8  -4   7-20.7322 49.4504   1
  -8   4  -8 62.8924 71.4887   2
   8  -4   8 49.5111 67.1506   1
  -8   4  -9 8.36588 78.5079   2
   8  -4   9 96.4829 55.1738   1
  -8   4 -10 114.002 98.5334   2
   8  -4  10 238.270 96.8442   1
  -8   3  14 237.247 114.901   6
  -8   3  13-29.1213 76.0112   6
  -8   3  12-23.3647 63.2911   6
   8  -3 -11 17.0648 55.1377   7
  -8   3  11-60.9844 73.4493   6
   8  -3 -10 383.849 99.7283   7
  -8   3  10 454.872 97.2194   6
   8  -3  -9 1055.33 145.030   7
  -8   3   9 843.794 133.667   6
   8  -3  -8 2670.29 216.456   7
  -8   3   8 2498.05 211.061   6
   8  -3  -7 1194.46 140.223   7
  -8   3   7 1284.26 146.525   6
   8  -3  -6 1745.59 163.350   7
  -8   3   6 1807.85 167.057   6
   8  -3  -5 51.8526 49.0900   7
  -8   3   5-15.5190 44.7110   6
   8  -3  -5 30.2547 27.0872   4
   8  -3  -4 2564.14 189.512   7
  -8   3   4 2429.35 181.876   6
  -8   3   4 2571.41 170.641   2
   8  -3  -4 2504.41 121.757   4
   8  -3  -3 1085.72 125.864   7
  -8   3   3 934.937 111.286   6
  -8   3   3 941.018 108.737   2
   8  -3  -3 825.901 70.2556   4
   8  -3  -2 1759.87 167.282   7
  -8   3   2 1773.57 147.582   6
  -8   3   2 1798.04 150.956   2
   8  -3  -1 3730.63 234.669   7
  -8   3   1 4258.49 224.728   6
  -8   3   1 3674.24 226.852   2
   8  -3   0 2693.16 202.961   7
  -8   3   0 3306.56 193.691   6
  -8   3   0 3258.52 215.799   2
   8  -3   1 1465.62 150.390   7
  -8   3  -1 1356.29 146.963   2
   8  -3   2 1804.62 169.868   7
  -8   3  -2 1595.46 167.385   2
   8  -3   3 186.963 72.4865   7
  -8   3  -3 195.626 67.1814   2
   8  -3   4-43.2983 57.0938   7
  -8   3  -4-41.6594 71.1526   2
  -8   3  -5 29.6829 56.2468   2
   8  -3   5 35.9242 50.5877   5
   8  -3   6 246.775 86.2884   7
   8  -3   6 175.181 60.1964   5
   8  -3   7 694.465 125.909   7
  -8   3  -7 636.274 126.318   2
   8  -3   7 675.356 125.176   5
  -8   3  -8 96.8872 69.8588   2
  -8   3  -9 88.1594 61.2040   2
  -8   2  14 899.624 166.648   6
  -8   2  13 658.629 126.232   6
  -8   2  12 96.6083 78.5614   6
   8  -2 -11 71.0151 80.8869   7
  -8   2  11-17.0428 61.9987   6
   8  -2 -10 54.4060 59.2141   7
  -8   2  10-28.5245 54.3477   6
   8  -2  -9 39.8799 50.5604   7
  -8   2   9 3.12713 42.8376   6
   8  -2  -8 166.079 70.4120   7
  -8   2   8 285.200 84.7293   6
   8  -2  -7 62.2955 54.4383   7
  -8   2   7 44.8838 42.2782   6
   8  -2  -7 32.2031 17.1187   4
   8  -2  -6 5.16716 44.1940   7
  -8   2   6 53.6191 47.4737   6
   8  -2  -6 39.7628 20.3294   4
   8  -2  -5 42.7147 42.3798   7
  -8   2   5-19.1876 46.2486   6
  -8   2   5-53.6250 51.2231   2
   8  -2  -4 780.220 104.156   7
  -8   2   4 896.423 113.322   6
  -8   2   4 919.699 107.870   2
   8  -2  -3 1293.39 140.835   7
  -8   2   3 1360.31 133.121   6
  -8   2   3 1295.78 132.908   2
  -8   2   2 783.728 104.253   6
  -8   2   2 584.170 97.1013   2
  -8   2   1 94.8447 55.0364   6
  -8   2   1 73.1533 55.9856   2
   8  -2   0 114.252 53.1257   7
  -8   2   0 224.864 68.5822   6
  -8   2   0 224.352 79.3118   2
   8  -2   1 237.003 79.5504   7
  -8   2  -1 153.486 65.7686   2
   8  -2   2 1232.16 144.187   7
  -8   2  -2 1265.81 153.303   2
   8  -2   2 902.929 141.818   5
   8  -2   3 3392.42 239.422   7
  -8   2  -3 3273.93 240.407   2
   8  -2   4 2252.88 195.787   7
  -8   2  -4 2511.04 214.708   2
   8  -2   4 1952.64 198.598   5
   8  -2   5 1426.82 166.692   7
  -8   2  -5 1301.83 164.750   2
   8  -2   5 1222.83 156.636   5
   8  -2   6 111.322 62.7968   7
  -8   2  -6 168.518 75.9860   2
   8  -2   6 114.405 70.2345   5
  -8   2  -7 190.411 72.4302   2
   8  -2   7 37.8656 67.7941   5
  -8   2  -8 229.558 93.2672   2
  -8   2  -9-47.0258 67.1235   2
  -8   1  14 528.432 138.715   6
  -8   1  13 436.194 134.954   6
   8  -1 -12 69.3546 70.1872   7
  -8   1  12-18.5812 56.0374   6
   8  -1 -11 160.922 74.6981   7
  -8   1  11 214.415 81.8844   6
   8  -1 -10 863.979 128.029   7
  -8   1  10 970.355 142.741   6
   8  -1  -9 1448.65 155.587   7
  -8   1   9 1295.10 163.065   6
   8  -1  -8 1160.66 139.084   7
  -8   1   8 1346.15 156.387   6
   8  -1  -8 907.573 49.2683   4
   8  -1  -7 1191.71 133.764   7
  -8   1   7 1175.35 140.614   6
   8  -1  -6 167.605 63.4572   7
  -8   1   6 116.710 53.5000   6
  -8   1   6 170.112 62.6432   2
   8  -1  -5 165.183 65.7511   7
  -8   1   5 113.543 46.5835   6
  -8   1   5 133.421 47.5657   2
   8  -1  -4 431.881 79.2656   7
  -8   1   4 569.477 91.5438   6
  -8   1   4 371.179 75.4874   2
   8  -1  -3 399.730 76.5058   7
  -8   1   3 473.689 87.7406   6
  -8   1   3 460.651 85.3883   2
   8  -1  -2 64.9265 47.4532   7
  -8   1   2 30.0532 57.0828   6
  -8   1   2 13.7799 42.5012   2
   8  -1  -2-12.3381 57.7619   5
   8  -1  -1 30.7499 39.3310   7
  -8   1   1 110.050 60.3981   6
  -8   1   1 14.1533 47.2466   2
   8  -1  -1-69.7442 60.9345   5
   8  -1   0 102.975 54.1800   7
  -8   1   0 41.1886 52.9981   6
  -8   1   0 48.3867 49.7314   2
   8  -1   0-2.93958 55.2119   5
  -8   1  -1 45.7080 51.9545   2
   8  -1   1-39.1386 59.8244   5
  -8   1  -2 296.982 73.5307   2
   8  -1   2 250.380 85.9085   5
  -8   1  -3 24.9060 58.9392   2
   8  -1   3-28.1017 64.1965   5
  -8   1  -4 188.763 89.9593   2
   8  -1   4-6.31842 67.7513   5
  -8   1  -5 281.667 95.6992   2
   8  -1   5 331.264 90.2258   5
  -8   1  -6 64.7662 50.8726   2
  -8   1  -7 590.774 143.875   2
  -8   1  -8 442.904 127.160   2
  -8   0  14 43.5860 78.8463   6
  -8   0  13 211.001 91.7621   6
  -8   0  12 883.602 148.488   6
  -8   0  11 2422.61 229.847   6
  -8   0  10 1295.81 168.569   6
  -8   0   9 1319.04 169.275   6
   8   0  -9 1044.86 137.313   5
  -8   0   8 122.423 61.4631   6
   8   0  -8 164.630 70.3393   5
   8   0  -8 172.856 55.7212   9
  -8   0   7 113.422 61.2738   6
   8   0  -7 259.284 84.0451   5
  -8   0   6 317.712 82.2599   6
  -8   0   6 343.987 76.2937   2
   8   0  -6 232.536 68.9606   5
  -8   0   5 1318.31 148.836   6
  -8   0   5 1017.93 123.424   2
   8   0  -5 1198.36 154.208   5
  -8   0   4 2128.42 175.876   2
  -8   0   4 2046.55 181.623   6
   8   0  -4 2003.92 190.796   5
  -8   0   3 2754.22 210.258   6
  -8   0   3 2907.10 205.392   2
   8   0  -3 2641.77 222.273   5
  -8   0   2 2486.30 198.486   6
  -8   0   2 2383.23 192.310   2
   8   0  -2 2451.84 204.552   5
  -8   0   1 697.223 113.740   6
  -8   0   1 700.170 109.680   2
   8   0  -1 374.473 85.0388   5
   8   0   0-112.989 70.7953   5
   8   0   0-1.35385 39.6706   9
   8   0   1 23.2140 41.1706   9
  -8   0  -1 65.3029 70.9227   2
   8   0   1-41.7069 54.7349   5
   8   0   2 14.9287 46.5242   9
  -8   0  -2-80.1762 55.7703   2
   8   0   2-28.9724 51.7241   5
  -8   0  -3 229.735 74.6515   2
   8   0   3 322.185 82.4094   5
  -8   0  -4 125.182 85.1738   2
   8   0   4 71.0971 65.2555   5
  -8   0  -5-108.443 73.2114   2
  -8   0  -6 77.8624 69.8320   2
  -8   0  -7 162.002 90.1121   2
  -8  -1  14 92.6851 60.6020   6
  -8  -1  13 22.9756 74.5934   6
  -8  -1  12 151.101 71.8534   6
  -8  -1  11 174.838 74.0360   6
  -8  -1  10 17.9394 56.7551   6
  -8  -1   9 28.2796 51.5631   6
   8   1  -9-25.6395 55.3899   5
  -8  -1   8 151.838 71.2791   6
   8   1  -8 77.3909 61.7475   5
  -8  -1   7 1585.09 151.536   2
  -8  -1   7 1714.89 176.504   6
   8   1  -7 1737.18 176.169   5
   8   1  -7 1585.22 176.234   9
   8   1  -6 918.455 136.936   9
  -8  -1   6 901.549 131.773   6
  -8  -1   6 1006.45 119.281   2
   8   1  -6 825.290 128.524   5
   8   1  -5 1047.77 145.484   9
  -8  -1   5 712.254 116.104   6
  -8  -1   5 904.630 120.929   2
   8   1  -5 768.472 127.642   5
   8   1  -4 861.896 130.837   9
  -8  -1   4 802.576 116.725   6
  -8  -1   4 683.000 111.907   2
   8   1  -4 729.113 117.934   5
   8   1  -3 522.553 100.882   9
  -8  -1   3 631.314 110.304   6
  -8  -1   3 544.414 105.198   2
   8   1  -3 559.806 117.747   5
   8   1  -2 121.140 59.6283   9
  -8  -1   2 100.008 69.2712   6
  -8  -1   2 84.1667 55.9573   2
   8   1  -2 142.361 66.9070   5
   8   1  -1 402.611 94.9545   9
  -8  -1   1 438.050 99.1091   6
  -8  -1   1 448.680 86.6907   2
   8   1  -1 463.788 110.052   5
  -8  -1   0 1386.60 158.570   2
   8   1   0 1345.56 171.581   5
   8   1   0 1511.58 156.711   9
  -8  -1  -1 1658.99 180.905   2
   8   1   1 1341.97 170.094   5
   8   1   1 1447.00 156.246   9
  -8  -1  -2 1586.42 179.326   2
  -8  -1  -3 1256.31 167.493   2
  -8  -1  -4 181.000 80.3612   2
  -8  -1  -5 329.047 112.197   2
  -8  -1  -6 269.275 101.912   2
  -8  -2  14-107.462 75.9634   6
  -8  -2  13 433.247 121.727   6
  -8  -2  12 1235.40 179.843   6
  -8  -2  11 732.257 133.175   6
  -8  -2  10 598.300 124.868   6
  -8  -2   9-1.73217 51.5405   6
   8   2  -9 28.4674 62.1160   5
  -8  -2   8 16.4159 57.8329   6
  -8  -2   8-19.5199 42.0749   2
   8   2  -8 136.578 66.2564   5
  -8  -2   7 268.243 90.0208   6
  -8  -2   7 325.222 90.6994   2
   8   2  -7 114.829 65.1963   5
  -8  -2   6 52.1803 48.5700   6
  -8  -2   6 165.774 64.5873   2
   8   2  -6 81.9783 61.2191   5
  -8  -2   5 130.900 81.3321   6
  -8  -2   5 59.9875 63.4318   2
   8   2  -5 162.172 87.4973   5
   8   2  -4 124.919 62.7919   9
  -8  -2   4 273.913 85.9448   6
  -8  -2   4 91.8432 51.0678   2
   8   2  -4 96.5421 65.1148   5
   8   2  -3 559.723 105.127   9
  -8  -2   3 519.804 108.727   6
  -8  -2   3 479.850 94.4789   2
   8   2  -3 330.532 100.877   5
   8   2  -2-8.57600 44.4924   9
  -8  -2   2-25.9296 56.3097   6
  -8  -2   2 94.1283 60.2368   2
   8   2  -2-63.9205 61.4095   5
   8   2  -1 338.936 84.8821   9
  -8  -2   1 356.876 99.6235   2
   8   2  -1 277.861 95.4835   5
   8   2   0 879.303 127.695   9
  -8  -2   0 919.075 138.418   2
  -8  -2  -1 471.672 119.064   2
  -8  -2  -2-3.07059 59.0574   2
  -8  -2  -3 39.7380 65.2263   2
  -8  -2  -4 232.411 90.3335   2
  -8  -2  -5 355.094 122.683   2
  -8  -3  13 1322.56 178.504   6
   8   3 -13 1481.55 94.0584   4
  -8  -3  12 409.935 107.742   6
   8   3 -12 314.281 33.5124   4
  -8  -3  11-17.4686 74.2196   6
  -8  -3  10 333.177 97.0371   6
  -8  -3   9-18.2819 67.0228   6
   8   3  -9 57.0563 57.0892   5
  -8  -3   8 533.063 112.713   6
  -8  -3   8 448.802 96.9104   2
   8   3  -8 530.464 117.304   5
  -8  -3   7 880.592 146.408   6
  -8  -3   7 449.285 98.4267   2
   8   3  -7 854.619 148.046   5
  -8  -3   6 1033.52 145.828   6
  -8  -3   6 970.887 140.160   2
   8   3  -6 1037.49 162.034   5
  -8  -3   5 523.132 117.175   6
  -8  -3   5 474.923 100.287   2
   8   3  -5 450.412 105.756   5
  -8  -3   4 267.911 84.1947   6
  -8  -3   4 586.259 111.707   2
  -8  -3   3 242.475 87.4707   6
  -8  -3   3 211.169 70.3986   2
  -8  -3   2 36.5096 75.6884   2
  -8  -3   1 338.353 109.709   2
  -8  -3   0 32.1184 57.1144   2
  -8  -3  -1 34.2698 66.0732   2
  -8  -3  -2 75.3579 77.2860   2
  -8  -3  -3 7.86907 68.4142   2
  -8  -4  12 93.4710 87.8349   6
  -8  -4  11-20.3470 60.2483   6
  -8  -4  10 383.107 107.177   6
  -8  -4   9 736.433 145.217   6
  -8  -4   9 584.315 115.345   2
  -8  -4   8 1196.33 166.372   6
  -8  -4   8 1069.20 151.857   2
  -8  -4   7 909.583 148.004   6
  -8  -4   7 895.788 145.585   2
  -8  -4   6 869.545 156.596   6
  -8  -4   6 539.646 114.068   2
  -8  -4   5 60.9983 70.1238   6
  -8  -4   5-4.18273 71.6194   2
  -8  -4   4 104.364 72.0750   6
  -8  -4   4 192.632 91.4456   2
  -8  -4   3 237.646 85.6969   2
  -8  -4   2 1065.50 160.953   2
  -8  -4   1 426.828 120.643   2
  -8  -4   0 1220.00 179.055   2
  -8  -4  -1 626.664 136.641   2
  -8  -5  11 393.388 100.989   6
  -8  -5  10 33.8522 56.6556   6
  -8  -5   9 296.375 97.4392   2
  -8  -5   9 658.732 134.053   6
  -8  -5   8 528.290 124.950   6
  -8  -5   8 562.309 127.099   2
  -8  -5   7 133.988 85.1898   6
  -8  -5   7 120.786 84.8813   2
  -8  -5   6 136.353 97.7031   6
  -8  -5   6-84.2446 94.2781   2
  -8  -5   5 690.456 141.738   6
  -8  -5   5 550.201 124.042   2
  -8  -5   4-13.7487 68.5788   2
  -8  -5   3 587.597 131.729   2
  -8  -5   2 1150.98 170.825   2
  -8  -5   1 199.938 110.924   2
  -8  -6   7 76.2484 89.9610   6
  -8  -6   7 157.554 81.8548   2
  -8  -6   6 368.246 124.665   6
  -8  -6   6 270.403 111.023   2
   9 -12  -2-36.7052 61.9266   1
   9 -12  -1 173.956 80.9216   1
   9 -12   0 605.781 132.699   1
   9 -12   1 202.372 75.4762   1
   9 -12   2 384.612 101.021   1
  -9  12  -3 520.373 115.435   2
   9 -12   3 724.374 144.777   1
  -9  12  -4 49.2722 75.4102   2
   9 -12   4 148.229 81.4353   1
   9 -12   5-57.0607 84.4004   1
  -9  12  -5 35.1884 79.6416   2
   9 -11  -4 97.5247 72.6118   1
   9 -11  -3-7.97643 58.5264   1
   9 -11  -2-117.306 77.1608   1
   9 -11  -1-67.8352 71.4975   1
   9 -11   0 63.1584 65.4149   1
   9 -11   1-18.5052 62.4974   1
  -9  11  -2-50.0611 82.9325   2
   9 -11   2 137.885 79.8883   1
  -9  11  -3 183.429 96.6288   2
   9 -11   3 278.430 97.3199   1
   9 -11   4 14.9599 51.6653   1
  -9  11  -4-40.6470 77.3937   2
   9 -11   5 182.208 101.057   1
  -9  11  -5-96.8201 89.5626   2
   9 -11   6 474.086 117.875   1
  -9  11  -6 425.438 131.064   2
   9 -10  -2 299.647 78.6765   1
   9 -10  -1 23.7583 67.9066   1
   9 -10   0-1.60797 47.2099   1
  -9  10  -1-2.77299 55.3251   2
   9 -10   1-13.9956 55.3472   1
  -9  10  -2 66.3246 62.3103   2
   9 -10   2-4.21523 52.1942   1
   9 -10   3 441.761 97.8067   1
  -9  10  -3 361.294 110.922   2
   9 -10   4 427.478 118.596   1
  -9  10  -4 367.614 119.038   2
   9 -10   5-10.2726 70.9910   1
  -9  10  -5-50.2325 68.9489   2
   9 -10   6 92.8674 57.8129   1
  -9  10  -6 255.515 100.210   2
   9 -10   7 123.747 53.7709   1
  -9  10  -7 112.367 90.2097   2
   9  -9   0 1351.56 156.444   1
  -9   9   0 1265.80 152.307   2
  -9   9  -1 616.471 115.124   2
   9  -9   1 712.474 112.472   1
   9  -9   2 971.948 134.357   1
  -9   9  -2 1193.87 153.742   2
   9  -9   3 312.461 95.0670   1
  -9   9  -3-0.42326 54.8146   2
   9  -9   4 7.95493 52.6549   1
  -9   9  -4 102.019 60.5042   2
   9  -9   5 35.4931 53.6281   1
  -9   9  -5 9.35536 63.1357   2
   9  -9   6 42.7643 55.3171   1
  -9   9  -6 215.690 98.6105   2
   9  -9   7 412.162 106.729   1
  -9   9  -7 505.720 136.639   2
   9  -9   8 87.3909 71.0772   1
  -9   9  -8 238.476 105.546   2
  -9   8   3 144.980 72.8329  10
   9  -8  -2-47.0500 68.9356   7
  -9   8   2 69.6935 60.7979  10
   9  -8  -1 241.794 92.4903   7
  -9   8   1 171.029 100.551  10
   9  -8   0 57.6429 70.1495   7
  -9   8   0-18.5524 54.2682   2
   9  -8   1-25.1028 72.3409   7
  -9   8  -1 29.9904 47.0987   2
  -9   8  -2 143.439 71.3438   2
   9  -8   3 681.021 121.409   1
  -9   8  -3 606.400 120.120   2
   9  -8   4 564.549 116.005   1
  -9   8  -4 727.353 139.056   2
   9  -8   5 847.613 129.536   1
  -9   8  -5 817.285 147.098   2
   9  -8   6 665.827 120.012   1
  -9   8  -6 852.717 155.949   2
   9  -8   7-28.4024 69.3448   1
  -9   8  -7 62.4206 58.9176   2
   9  -8   8-3.46120 53.1699   1
  -9   8  -8 76.7336 68.4967   2
  -9   7  10 201.655 92.8836   6
  -9   7   9 643.111 133.829   6
  -9   7   8 1290.40 164.992   6
  -9   7   6 32.1453 46.8389  10
  -9   7   5 993.164 148.529  10
   9  -7  -4 191.934 77.1007   7
  -9   7   4 266.095 90.1989  10
   9  -7  -3-3.34065 62.8939   7
  -9   7   3-20.1943 55.9233  10
   9  -7  -2 217.410 90.8730   7
   9  -7  -1 207.059 93.9799   7
  -9   7   1 145.640 63.4814   2
   9  -7   0-74.1030 79.4558   7
  -9   7   0 67.4736 50.3328   2
   9  -7   1 22.1132 59.3374   7
  -9   7  -1-6.39208 46.3515   2
   9  -7   2 44.3986 69.0924   7
  -9   7  -2 6.01975 58.9421   2
   9  -7   3-10.6386 62.9666   7
  -9   7  -3 45.2323 62.8648   2
  -9   7  -4 146.450 84.3763   2
  -9   7  -5 152.644 78.7366   2
  -9   7  -6-12.0556 68.9952   2
  -9   7  -7 43.3156 75.3005   2
   9  -7   8 177.573 89.8750   1
  -9   7  -8 278.240 100.032   2
  -9   6  11 505.319 133.361   6
  -9   6  10 982.098 159.099   6
  -9   6   9 904.366 150.779   6
  -9   6   8 701.368 127.234   6
  -9   6   8 661.395 118.316  10
  -9   6   7 204.079 72.6040   6
  -9   6   7 109.256 76.3843  10
   9  -6  -6 44.4971 69.9892   7
  -9   6   6 113.232 62.0883   6
   9  -6  -5 242.975 82.8859   7
   9  -6  -4 1013.99 167.386   7
   9  -6  -3 479.275 104.206   7
   9  -6  -2 850.280 135.472   7
  -9   6   2 766.938 104.256   2
   9  -6  -1 2099.70 217.509   7
  -9   6   1 2468.01 198.226   2
   9  -6   0 704.499 122.969   7
  -9   6   0 625.257 112.545   2
   9  -6   0 582.572 86.4143   4
   9  -6   1 424.625 109.636   7
  -9   6  -1 167.549 74.3471   2
   9  -6   1 252.953 65.5878   4
   9  -6   2 62.7779 68.9326   7
  -9   6  -2-37.4708 54.5891   2
   9  -6   2-28.4953 36.1998   4
   9  -6   3 76.8030 66.0499   7
  -9   6  -3 282.915 102.563   2
   9  -6   4 306.343 106.787   7
  -9   6  -4 324.755 102.316   2
  -9   6  -5 33.9338 58.5461   2
  -9   6  -6 78.6924 86.7399   2
  -9   6  -7 11.5334 54.7176   2
  -9   6  -8 119.581 84.9493   2
  -9   5  11 85.3242 60.5608   6
  -9   5  10-45.7909 81.8118   6
  -9   5   9 16.8413 57.2162   6
  -9   5   8-22.7376 52.1557   6
   9  -5  -7 357.085 97.0452   7
  -9   5   7 335.816 94.5474   6
   9  -5  -6 359.185 106.418   7
  -9   5   6 312.789 84.0804   6
   9  -5  -5 464.693 97.7010   7
  -9   5   5 658.213 107.089   6
   9  -5  -4 1122.45 160.634   7
   9  -5  -3 1021.29 145.725   7
  -9   5   3 1134.87 122.909   2
   9  -5  -2-54.4563 57.8652   7
  -9   5   2-13.4111 54.5322   2
   9  -5  -2-8.03981 29.5420   4
   9  -5  -1 232.905 85.4124   7
  -9   5   1 399.452 89.5355   2
   9  -5  -1 313.486 59.9225   4
   9  -5   0 460.000 94.2734   7
  -9   5   0 423.989 85.5453   2
   9  -5   0 493.491 81.3203   4
   9  -5   1 430.492 106.932   7
  -9   5  -1 542.395 104.941   2
   9  -5   1 490.677 80.0199   4
   9  -5   2 553.050 116.613   7
  -9   5  -2 538.392 105.196   2
   9  -5   2 601.502 95.8578   4
   9  -5   3 2626.20 237.900   7
  -9   5  -3 2704.55 229.174   2
   9  -5   3 2475.81 186.120   4
   9  -5   4 641.997 127.611   7
  -9   5  -4 599.147 109.666   2
  -9   5  -5 401.688 103.255   2
  -9   5  -6 130.920 94.2141   2
  -9   5  -7-39.7706 85.9186   2
  -9   5  -8-26.5674 76.1154   2
  -9   4  12 339.854 108.732   6
  -9   4  11 1032.24 165.072   6
  -9   4  10 892.979 158.255   6
  -9   4   9 345.073 99.7016   6
   9  -4  -8 210.376 97.5702   7
  -9   4   8 335.552 90.1427   6
   9  -4  -7 323.469 91.7653   7
  -9   4   7 222.972 86.3864   6
   9  -4  -6-6.90228 54.6348   7
  -9   4   6 13.3543 39.5060   6
   9  -4  -5 45.9367 63.4833   7
  -9   4   5-85.1934 53.5968   6
  -9   4   4-2.14850 41.8216   6
   9  -4  -4 11.2083 25.3554   4
   9  -4  -3 377.611 90.3298   7
  -9   4   3 337.946 74.1246   6
  -9   4   3 269.909 69.9272   2
   9  -4  -3 258.499 53.8691   4
  -9   4   2 16.7052 39.7563   2
   9  -4  -2 89.1521 36.8335   4
   9  -4  -1-33.2590 65.9522   7
  -9   4   1 110.766 53.1321   2
   9  -4  -1 66.0622 37.5990   4
   9  -4   0 121.567 64.5974   7
  -9   4   0 137.049 67.3178   2
   9  -4   0 124.675 46.4595   4
   9  -4   1 259.376 82.9107   7
  -9   4  -1 273.870 85.8667   2
   9  -4   1 248.588 58.3396   4
   9  -4   2 94.4751 66.0185   7
  -9   4  -2-16.1659 49.0985   2
   9  -4   2 88.4810 52.1216   4
  -9   4  -3 75.6643 67.2289   2
   9  -4   3 43.4610 37.4361   4
   9  -4   4 155.627 62.5775   7
  -9   4  -4 201.020 89.6244   2
   9  -4   4 233.017 73.5379   4
  -9   4  -5 157.926 83.7381   2
  -9   4  -6 503.422 105.435   2
  -9   4  -7 903.163 163.493   2
  -9   3  12 539.411 117.818   6
  -9   3  11 734.825 141.375   6
  -9   3  10 734.498 128.604   6
   9  -3  -9-71.1524 71.3936   7
  -9   3   9-68.4197 62.6249   6
   9  -3  -8-69.1016 69.1287   7
  -9   3   8 117.706 62.6899   6
   9  -3  -7 628.653 107.733   7
  -9   3   7 620.164 110.738   6
  -9   3   6 804.239 120.747   6
   9  -3  -6 1144.87 89.0489   4
   9  -3  -5 861.187 131.386   7
  -9   3   5 1010.77 128.456   6
   9  -3  -5 977.708 81.8350   4
   9  -3  -4 1529.72 162.030   7
  -9   3   4 1376.17 145.263   6
  -9   3   4 1532.93 146.306   2
   9  -3  -4 1520.34 102.597   4
   9  -3  -3 661.352 114.308   7
  -9   3   3 947.411 119.412   6
  -9   3   3 1065.37 127.290   2
   9  -3  -3 952.092 86.6915   4
   9  -3  -2 53.3045 57.0469   7
  -9   3   2 9.24836 45.3664   6
  -9   3   2-16.5948 50.9851   2
   9  -3  -1 32.0947 50.8010   7
  -9   3   1-1.65040 57.1511   2
   9  -3   0 70.6540 66.6270   7
  -9   3   0 59.3350 50.3071   2
   9  -3   1 103.626 75.1484   7
  -9   3  -1-47.1392 60.1327   2
   9  -3   2 45.8042 70.8580   7
  -9   3  -2 77.2991 56.4022   2
   9  -3   3 78.8979 75.2791   7
  -9   3  -3 28.4225 67.9101   2
   9  -3   4-40.9986 82.6316   7
  -9   3  -4 15.3650 60.8238   2
  -9   3  -5 61.8706 61.4338   2
  -9   3  -6 3.75014 58.0272   2
  -9   3  -7 72.2451 67.9303   2
  -9   2  13 482.658 121.896   6
  -9   2  12 109.242 75.4276   6
  -9   2  11-72.9145 67.3817   6
   9  -2 -10-21.1582 67.4778   7
  -9   2  10 70.8810 83.0091   6
   9  -2  -9 521.054 106.415   7
  -9   2   9 364.485 97.8748   6
   9  -2  -8 544.092 118.466   7
  -9   2   8 753.239 134.863   6
   9  -2  -7 994.493 145.396   7
  -9   2   7 1331.02 161.005   6
   9  -2  -7 1155.51 78.3526   4
   9  -2  -6 959.463 143.646   7
  -9   2   6 1509.66 162.797   6
   9  -2  -6 1232.20 78.3919   4
   9  -2  -5 208.988 66.2337   7
  -9   2   5 126.126 68.2226   6
   9  -2  -4 326.236 79.7746   7
  -9   2   4 391.704 82.5036   6
  -9   2   4 436.487 84.4785   2
   9  -2  -3 133.326 59.2461   7
  -9   2   3 161.605 62.7046   6
  -9   2   3 161.840 63.2200   2
   9  -2  -2 280.184 75.4859   7
  -9   2   2 364.211 84.6902   6
  -9   2   2 349.596 84.2326   2
  -9   2   1 761.402 114.540   6
  -9   2   1 653.523 114.325   2
   9  -2  -1 307.672 114.301   5
  -9   2   0 2328.57 190.164   6
  -9   2   0 2050.94 191.242   2
  -9   2  -1 1311.01 160.216   2
   9  -2   1 1085.31 162.998   5
  -9   2  -2 360.874 99.9086   2
  -9   2  -3 391.411 102.138   2
  -9   2  -4 124.607 79.8174   2
  -9   2  -5 135.301 64.1887   2
  -9   2  -6-99.8580 86.1487   2
  -9   1  13 289.588 109.053   6
  -9   1  12 986.518 170.008   6
  -9   1  11 395.948 112.322   6
  -9   1  10 187.125 71.6506   6
  -9   1   9-101.712 56.2147   6
   9  -1  -9-26.5917 52.3315   5
  -9   1   8 14.7117 58.0190   6
   9  -1  -8-12.7219 55.3713   5
   9  -1  -8-9.33416 10.2294   4
  -9   1   7 139.516 74.1822   6
   9  -1  -7 32.8329 60.2041   5
  -9   1   6 119.808 63.9198   6
   9  -1  -6-113.325 77.1220   5
  -9   1   5-16.5016 51.0017   6
  -9   1   5 14.0761 50.2130   2
   9  -1  -5 77.5605 78.1445   5
  -9   1   4 186.622 75.3221   6
  -9   1   4 245.110 66.2847   2
   9  -1  -4 85.2615 78.2177   5
  -9   1   3 1244.58 149.995   6
  -9   1   3 1187.85 142.052   2
   9  -1  -3 828.027 149.884   5
  -9   1   2 1052.41 139.603   6
  -9   1   2 1093.13 142.670   2
   9  -1  -2 809.286 139.042   5
  -9   1   1-19.3973 47.5865   6
  -9   1   1 7.37074 48.6256   2
  -9   1   0 528.846 108.028   2
  -9   1  -1 5.63641 57.6195   2
  -9   1  -2 80.4873 67.5728   2
  -9   1  -3 232.047 93.0016   2
  -9   1  -4 799.249 141.765   2
  -9   1  -5 580.577 127.187   2
  -9   0  12 189.891 92.3560   6
  -9   0  11 263.688 92.4361   6
  -9   0  10 66.7379 58.4570   6
  -9   0   9 647.910 128.580   6
   9   0  -9 461.767 101.509   5
  -9   0   8 2386.98 224.046   6
   9   0  -8 2781.43 228.990   5
  -9   0   7 421.357 97.7262   6
   9   0  -7 223.144 78.0077   5
  -9   0   6 78.8406 57.4412   6
  -9   0   6 109.110 55.1501   2
   9   0  -6 83.0660 61.8421   5
  -9   0   5 632.423 118.765   6
  -9   0   5 516.326 95.8812   2
   9   0  -5 423.369 106.009   5
  -9   0   4 51.2710 60.3645   6
  -9   0   4 24.2648 52.9368   2
   9   0  -4 26.4231 62.4873   5
  -9   0   3-31.7476 45.3440   6
  -9   0   3-3.62517 54.0401   2
  -9   0   2 112.472 65.8222   6
  -9   0   2 213.654 81.6615   2
  -9   0   1 107.758 72.8780   2
  -9   0   0-99.2281 64.0292   2
  -9   0  -1 149.715 82.8600   2
  -9   0  -2-50.4449 61.8977   2
  -9   0  -3-65.1558 66.9017   2
  -9   0  -4 247.575 95.9204   2
  -9  -1  12 116.705 57.1482   6
  -9  -1  11 666.080 139.643   6
  -9  -1  10 971.377 156.378   6
  -9  -1   9 939.656 149.633   6
  -9  -1   8 199.255 91.0014   6
  -9  -1   7 149.113 78.2911   6
  -9  -1   6 465.054 108.013   6
  -9  -1   6 385.023 87.4155   2
  -9  -1   5 360.000 105.526   6
  -9  -1   5 543.398 110.621   2
  -9  -1   4 1352.12 167.954   6
  -9  -1   4 1183.41 148.421   2
  -9  -1   3 201.164 79.2459   6
  -9  -1   3 117.734 65.8145   2
  -9  -1   2 663.051 122.370   6
  -9  -1   2 572.076 107.870   2
  -9  -1   1 1662.24 187.994   2
  -9  -1   0 18.5372 58.8362   2
  -9  -1  -1 111.577 61.5136   2
  -9  -1  -2-11.9473 63.6141   2
  -9  -1  -3-115.901 79.5611   2
  -9  -2  11 438.799 128.100   6
  -9  -2  10 190.988 88.1683   6
  -9  -2   9 86.5557 69.0366   6
  -9  -2   8 93.3645 76.1993   6
  -9  -2   7 59.4627 60.3738   6
  -9  -2   7 55.5188 63.5418   2
  -9  -2   6 1329.34 175.202   6
  -9  -2   6 1095.98 154.075   2
  -9  -2   5 908.371 151.808   6
  -9  -2   5 903.107 138.681   2
  -9  -2   4 102.272 70.5504   6
  -9  -2   4 217.650 88.8410   2
  -9  -2   3 516.399 117.098   6
  -9  -2   3 436.276 110.313   2
  -9  -2   2 1064.49 149.526   2
  -9  -2   1 105.094 63.8605   2
  -9  -2   0 178.056 74.6733   2
  -9  -2  -1 33.4644 64.4600   2
  -9  -3  10 101.593 74.5119   6
  -9  -3   9 33.0307 70.6574   6
  -9  -3   8 247.846 95.6979   6
  -9  -3   7-25.4742 58.4319   6
  -9  -3   7 64.9011 68.5271   2
  -9  -3   6-42.0833 58.6594   6
  -9  -3   6 50.9490 65.2631   2
  -9  -3   5 84.9284 89.9227   6
  -9  -3   5 253.855 98.1138   2
  -9  -3   4 59.1185 68.2031   6
  -9  -3   4 223.307 102.004   2
  -9  -3   3 156.120 83.3543   2
  -9  -3   2 57.4869 80.6120   2
  -9  -3   1 84.0667 70.2774   2
  -9  -4   7 866.264 152.012   6
  -9  -4   7 906.913 162.461   2
  -9  -4   6 258.851 111.819   6
  -9  -4   6 122.946 66.5734   2
  -9  -4   5 376.876 104.281   6
  -9  -4   5 399.494 109.994   2
 -10  10  -2 88.4041 64.2558   2
 -10  10  -3 27.1138 64.5097   2
 -10  10  -4 104.650 73.3969   2
 -10   9  -1 58.8960 56.7894   2
 -10   9  -2 121.591 81.0337   2
 -10   9  -3 95.3662 73.8797   2
 -10   9  -4-157.432 92.5957   2
 -10   9  -5 39.4313 66.7745   2
 -10   8   0 253.264 86.8115   2
 -10   8  -1 1071.46 159.703   2
 -10   8  -2 425.577 109.747   2
 -10   8  -3 87.6431 78.3644   2
 -10   8  -4 770.908 149.540   2
 -10   8  -5 60.5803 64.6793   2
 -10   7   1 420.268 98.7336   2
 -10   7   0 185.882 83.5191   2
 -10   7  -1 91.0071 77.0774   2
 -10   7  -2-79.0014 70.7006   2
 -10   7  -3 33.9407 73.2909   2
 -10   7  -4 386.919 114.332   2
 -10   7  -5 710.310 145.712   2
 -10   6   9 264.597 85.3802   6
 -10   6   1-49.9341 59.7965   2
  10  -6  -1-21.0780 41.0919   4
 -10   6   0 60.9809 55.6666   2
  10  -6   0 129.495 57.4046   4
 -10   6  -1 17.7768 56.3264   2
  10  -6   1-1.86255 41.0142   4
 -10   6  -2 33.2522 54.7385   2
  10  -6   2 44.2697 36.6331   4
 -10   6  -3 35.9126 64.6239   2
 -10   6  -4 448.078 128.500   2
 -10   6  -5 20.3012 79.8235   2
 -10   5   9 356.316 96.7187   6
 -10   5   8 533.338 107.337   6
 -10   5   7 930.471 144.488   6
  10  -5  -3 453.166 78.8169   4
 -10   5   2 1493.39 157.987   2
  10  -5  -2 1437.42 130.539   4
 -10   5   1 343.795 73.8658   2
  10  -5  -1 523.110 87.9118   4
 -10   5   0 346.198 95.7256   2
  10  -5   0 260.560 70.4629   4
 -10   5  -1 189.051 76.2197   2
  10  -5   1 234.354 69.2991   4
 -10   5  -2 417.939 104.093   2
  10  -5   2 279.459 71.3953   4
 -10   5  -3-40.0787 58.1719   2
 -10   5  -4-18.5295 70.8943   2
 -10   5  -5 80.3376 80.8897   2
 -10   4  10 141.177 84.9317   6
 -10   4   9 66.1130 57.8460   6
 -10   4   8-106.482 74.5134   6
 -10   4   7-22.8670 53.7069   6
 -10   4   6 103.157 52.6569   6
  10  -4  -4 262.172 89.9857   7
  10  -4  -4 252.755 56.4006   4
  10  -4  -3 783.910 143.128   7
 -10   4   3 1193.56 136.758   2
  10  -4  -3 1173.65 109.590   4
  10  -4  -2 128.294 72.0482   7
 -10   4   2 244.279 73.8959   2
  10  -4  -2 250.699 59.9510   4
  10  -4  -1 64.9994 67.4486   7
 -10   4   1 16.1268 45.0696   2
  10  -4  -1 28.8258 41.7810   4
  10  -4   0 35.6362 53.5349   7
 -10   4   0 47.4277 62.6754   2
  10  -4   0 28.6424 32.5112   4
 -10   4  -1 70.9380 65.2712   2
  10  -4   1 16.8522 46.1621   4
 -10   4  -2 579.048 117.690   2
  10  -4   2 455.395 88.8635   4
 -10   4  -3 411.089 102.072   2
  10  -4   3 449.595 94.6455   4
 -10   4  -4 380.224 113.577   2
 -10   3  10 177.844 88.4350   6
 -10   3   9 123.165 64.6763   6
 -10   3   8 440.342 106.395   6
 -10   3   7-24.1397 51.2989   6
  10  -3  -6 29.8655 57.2944   7
 -10   3   6-0.40356 61.2310   6
  10  -3  -6 41.8303 26.4548   4
  10  -3  -5 17.0474 50.5812   7
 -10   3   5-23.0997 65.4563   6
  10  -3  -5-4.43223 29.4757   4
 -10   3   4 50.5446 54.9400   6
  10  -3  -4 9.51110 32.5151   4
 -10   3   3-47.7473 54.1252   2
  10  -3  -3 0.18677 31.3358   4
 -10   3   2 181.386 69.1087   2
  10  -3  -2 24.8840 33.1697   4
 -10   3   1 29.2773 54.6741   2
 -10   3   0 626.073 123.592   2
 -10   3  -1 392.346 104.158   2
 -10   3  -2-96.7553 70.5623   2
 -10   3  -3 35.5310 52.8648   2
 -10   3  -4 231.609 92.3878   2
 -10   2  10 510.604 134.697   6
 -10   2   9 104.554 69.0593   6
 -10   2   8 20.6109 57.0046   6
 -10   2   7 50.8533 47.8517   6
  10  -2  -7 16.2794 20.6540   4
 -10   2   6 180.997 73.8078   6
  10  -2  -6 122.132 34.7790   4
 -10   2   5 365.011 99.4162   6
  10  -2  -5 319.502 49.5551   4
 -10   2   4 948.544 137.964   6
 -10   2   4 738.606 112.980   2
 -10   2   3 399.168 92.5386   6
 -10   2   3 431.649 97.8703   2
 -10   2   2 630.378 119.299   2
 -10   2   1 178.578 78.6567   2
 -10   2   0 57.3245 65.9342   2
 -10   2  -1 164.267 92.4285   2
 -10   2  -2 53.8428 84.3637   2
 -10   2  -3 43.0734 79.8753   2
 -10   1  10 22.7598 64.5477   6
 -10   1   9 76.2777 62.9836   6
 -10   1   8 606.922 116.967   6
  10  -1  -8 324.189 41.3336   4
 -10   1   7 357.732 100.017   6
  10  -1  -7 260.926 34.6380   4
 -10   1   6 564.270 112.283   6
 -10   1   5 520.571 110.265   6
 -10   1   4 155.710 69.6753   6
 -10   1   4 76.7143 57.2602   2
 -10   1   3 28.5489 54.4811   6
 -10   1   3 78.2946 60.4989   2
 -10   1   2 66.6120 59.3651   6
 -10   1   2 32.4492 61.8565   2
 -10   1   1-17.0023 60.3521   2
 -10   1   0 586.404 131.428   2
 -10   1  -1 695.621 131.074   2
 -10   0   9 71.3685 62.8371   6
 -10   0   8 81.1932 76.1430   6
 -10   0   7 212.557 80.7464   6
 -10   0   6 282.912 89.5872   6
 -10   0   5 143.782 79.3894   6
 -10   0   5 20.7981 58.0873   2
 -10   0   4 17.1031 49.8480   6
 -10   0   4 83.7005 63.8060   2
 -10   0   3 225.187 79.9776   6
 -10   0   3 218.037 83.8277   2
 -10   0   2 230.213 90.6857   2
 -10   0   1-2.30946 66.0121   2
 -10   0   0 221.988 77.2961   2
 -10  -1   7 447.877 118.287   6
 -10  -1   6 355.060 97.5891   6
 -10  -1   6 114.278 64.4463   2
 -10  -1   5 124.337 82.9016   6
 -10  -1   5 166.461 76.5246   2
 -10  -1   4 5.82730 64.4223   6
 -10  -1   4-66.4958 51.9479   2
 -10  -1   3-19.3949 62.8223   6
 -10  -1   3 9.14188 58.3232   2
 -11   6   0 200.253 90.3768   2
  11  -6   0 43.5979 42.5753   4
  11  -5  -2-34.5369 35.2566   4
 -11   5   1 2.54873 56.9389   2
  11  -5  -1 81.3686 57.5232   4
  11  -4  -4 13.8900 40.0361   4
  11  -4  -3 5.10531 32.0941   4
 -11   4   2 59.6263 58.5443   2
  11  -4  -2 50.2318 42.6218   4
 -11   4   1 296.737 76.2052   2
  11  -4  -1 332.482 73.2225   4
  11  -3  -4 34.0003 32.3583   4
   0   0   0    0.00    0.00   0
TITL JS-irgendwas in P-1
REM P-1 (#2 in standard setting)
CELL 0.71073   7.777672  10.585050  13.089811 106.2730  98.3403 110.3842
ZERR    2.00   0.000400   0.000607   0.000519   0.0043   0.0039   0.0050
LATT  1
SFAC C F I
UNIT 36.00 24.00 4.00
TREF
HKLF 4
END
;
_shelx_hkl_checksum              71967
loop_
_space_group_symop_operation_xyz
'x, y, z'
'-x, -y, -z'
loop_
_atom_site_label
_atom_site_type_symbol
_atom_site_fract_x
_atom_site_fract_y
_atom_site_fract_z
_atom_site_U_iso_or_equiv
_atom_site_adp_type
_atom_site_occupancy
_atom_site_site_symmetry_order
_atom_site_calc_flag
_atom_site_refinement_flags_posn
_atom_site_refinement_flags_adp
_atom_site_refinement_flags_occupancy
_atom_site_disorder_assembly
_atom_site_disorder_group
I1 I 1.14930(3) 0.92541(2) 0.92068(2) 0.03622(8) Uani 1 1 d . . . . .
I2 I 0.43172(3) 0.65519(2) 0.95802(2) 0.03687(8) Uani 1 1 d . . . . .
F1 F 0.9212(3) 0.6135(2) 0.48327(14) 0.0372(5) Uani 1 1 d . . . . .
F2 F 1.2413(3) 0.7745(2) 0.44545(15) 0.0430(5) Uani 1 1 d . . . . .
F3 F 1.5203(2) 1.0003(2) 0.61468(16) 0.0370(5) Uani 1 1 d . . . . .
F4 F 1.4798(2) 1.0635(2) 0.82038(15) 0.0396(5) Uani 1 1 d . . . . .
F5 F 0.6853(2) 0.7937(2) 0.64389(18) 0.0400(5) Uani 1 1 d . . . . .
F6 F 0.3717(2) 0.62914(19) 0.68118(17) 0.0351(4) Uani 1 1 d . . . . .
F7 F 0.6818(2) 0.34896(19) 0.77175(16) 0.0326(4) Uani 1 1 d . . . . .
F8 F 0.9975(2) 0.5169(2) 0.73659(16) 0.0347(4) Uani 1 1 d . . . . .
F9 F 0.2891(3) 0.20084(18) 0.58922(15) 0.0352(4) Uani 1 1 d . . . . .
F10 F -0.0217(3) 0.02966(19) 0.62705(17) 0.0436(5) Uani 1 1 d . . . . .
F11 F -0.1241(3) 0.1262(2) 0.81424(18) 0.0469(5) Uani 1 1 d . . . . .
F12 F 0.0760(3) 0.3962(2) 0.95678(17) 0.0479(5) Uani 1 1 d . . . . .
C1 C 1.0300(4) 0.7539(3) 0.6730(2) 0.0217(6) Uani 1 1 d . . . . .
C2 C 1.0565(4) 0.7256(3) 0.5686(2) 0.0247(6) Uani 1 1 d . . . . .
C3 C 1.2194(4) 0.8062(3) 0.5478(2) 0.0260(6) Uani 1 1 d . . . . .
C4 C 1.3620(4) 0.9210(3) 0.6338(3) 0.0268(7) Uani 1 1 d . . . . .
C5 C 1.3381(4) 0.9514(3) 0.7387(3) 0.0258(6) Uani 1 1 d . . . . .
C6 C 1.1740(4) 0.8701(3) 0.7598(2) 0.0229(6) Uani 1 1 d . . . . .
C7 C 0.8512(4) 0.6603(3) 0.6902(2) 0.0215(6) Uani 1 1 d . . . . .
C8 C 0.6872(4) 0.6848(3) 0.6762(3) 0.0247(6) Uani 1 1 d . . . . .
C9 C 0.5244(4) 0.5984(3) 0.6948(3) 0.0250(6) Uani 1 1 d . . . . .
C10 C 0.5180(4) 0.4853(3) 0.7287(2) 0.0210(6) Uani 1 1 d . . . . .
C11 C 0.6811(4) 0.4587(3) 0.7405(2) 0.0223(6) Uani 1 1 d . . . . .
C12 C 0.8432(4) 0.5455(3) 0.7219(2) 0.0220(6) Uani 1 1 d . . . . .
C13 C 0.3460(4) 0.3946(3) 0.7532(2) 0.0206(6) Uani 1 1 d . . . . .
C14 C 0.2397(4) 0.2535(3) 0.6814(2) 0.0250(6) Uani 1 1 d . . . . .
C15 C 0.0813(4) 0.1637(3) 0.7004(3) 0.0291(7) Uani 1 1 d . . . . .
C16 C 0.0274(4) 0.2135(3) 0.7947(3) 0.0310(7) Uani 1 1 d . . . . .
C17 C 0.1306(4) 0.3523(4) 0.8662(3) 0.0290(7) Uani 1 1 d . . . . .
C18 C 0.2878(4) 0.4443(3) 0.8465(2) 0.0226(6) Uani 1 1 d . . . . .
loop_
_atom_site_aniso_label
_atom_site_aniso_U_11
_atom_site_aniso_U_22
_atom_site_aniso_U_33
_atom_site_aniso_U_23
_atom_site_aniso_U_13
_atom_site_aniso_U_12
I1 0.03648(13) 0.03559(13) 0.02640(12) 0.00274(9) 0.01348(9) 0.00776(10)
I2 0.04432(14) 0.02716(12) 0.03012(13) 0.00049(9) 0.00216(10) 0.01517(10)
F1 0.0319(10) 0.0329(10) 0.0250(10) 0.0032(8) 0.0013(8) -0.0033(8)
F2 0.0466(12) 0.0469(12) 0.0251(10) 0.0109(9) 0.0172(9) 0.0058(10)
F3 0.0270(10) 0.0350(11) 0.0440(12) 0.0177(9) 0.0167(8) 0.0013(8)
F4 0.0268(10) 0.0304(10) 0.0343(11) -0.0014(8) 0.0054(8) -0.0080(8)
F5 0.0271(10) 0.0328(11) 0.0732(15) 0.0371(10) 0.0163(10) 0.0116(8)
F6 0.0182(9) 0.0330(10) 0.0623(13) 0.0280(10) 0.0107(8) 0.0111(8)
F7 0.0318(10) 0.0286(10) 0.0509(12) 0.0266(9) 0.0174(9) 0.0156(8)
F8 0.0227(9) 0.0386(11) 0.0565(13) 0.0277(10) 0.0171(9) 0.0172(8)
F9 0.0400(11) 0.0229(9) 0.0316(10) 0.0020(8) 0.0149(8) 0.0041(8)
F10 0.0352(11) 0.0216(10) 0.0531(13) 0.0075(9) 0.0048(9) -0.0047(8)
F11 0.0277(10) 0.0506(13) 0.0682(15) 0.0364(12) 0.0233(10) 0.0066(9)
F12 0.0492(12) 0.0583(14) 0.0476(13) 0.0211(11) 0.0329(10) 0.0256(11)
C1 0.0176(14) 0.0194(14) 0.0292(16) 0.0108(12) 0.0083(12) 0.0064(12)
C2 0.0224(15) 0.0205(15) 0.0238(15) 0.0055(12) 0.0023(12) 0.0037(12)
C3 0.0269(16) 0.0292(17) 0.0222(15) 0.0109(13) 0.0096(12) 0.0092(13)
C4 0.0199(15) 0.0238(16) 0.0362(18) 0.0136(13) 0.0115(13) 0.0044(12)
C5 0.0200(15) 0.0191(15) 0.0292(16) 0.0045(12) 0.0037(12) 0.0022(12)
C6 0.0222(15) 0.0211(15) 0.0244(15) 0.0079(12) 0.0081(12) 0.0074(12)
C7 0.0188(14) 0.0165(14) 0.0232(15) 0.0055(11) 0.0051(11) 0.0019(11)
C8 0.0229(15) 0.0165(14) 0.0352(17) 0.0133(13) 0.0061(13) 0.0060(12)
C9 0.0162(14) 0.0231(15) 0.0338(17) 0.0111(13) 0.0036(12) 0.0064(12)
C10 0.0191(14) 0.0161(14) 0.0238(15) 0.0053(11) 0.0044(11) 0.0046(11)
C11 0.0237(15) 0.0163(14) 0.0281(16) 0.0109(12) 0.0083(12) 0.0066(12)
C12 0.0172(14) 0.0243(15) 0.0233(15) 0.0076(12) 0.0062(11) 0.0076(12)
C13 0.0183(14) 0.0176(14) 0.0263(15) 0.0107(12) 0.0052(11) 0.0058(11)
C14 0.0261(16) 0.0233(15) 0.0238(15) 0.0081(12) 0.0062(12) 0.0085(13)
C15 0.0217(15) 0.0192(15) 0.0373(18) 0.0100(13) 0.0014(13) 0.0008(12)
C16 0.0161(15) 0.0303(17) 0.049(2) 0.0257(16) 0.0079(14) 0.0033(13)
C17 0.0270(16) 0.0390(19) 0.0323(17) 0.0192(15) 0.0157(14) 0.0182(15)
C18 0.0189(14) 0.0190(14) 0.0283(16) 0.0090(12) 0.0029(12) 0.0068(12)
loop_
_atom_type_symbol
_atom_type_description
_atom_type_scat_dispersion_real
_atom_type_scat_dispersion_imag
_atom_type_scat_source
C C 0.0033 0.0016 'International Tables Vol C Tables 4.2.6.8 and 6.1.1.4'
F F 0.0171 0.0103 'International Tables Vol C Tables 4.2.6.8 and 6.1.1.4'
I I -0.4742 1.8119 'International Tables Vol C Tables 4.2.6.8 and 6.1.1.4'
loop_
_geom_angle_atom_site_label_1
_geom_angle_atom_site_label_2
_geom_angle_atom_site_label_3
_geom_angle
_geom_angle_site_symmetry_1
_geom_angle_site_symmetry_3
_geom_angle_publ_flag
C2 C1 C6 118.2(3) . . ?
C2 C1 C7 119.6(3) . . ?
C6 C1 C7 122.2(3) . . ?
F1 C2 C3 118.0(3) . . ?
F1 C2 C1 119.6(3) . . ?
C3 C2 C1 122.4(3) . . ?
F2 C3 C2 120.7(3) . . ?
F2 C3 C4 119.8(3) . . ?
C2 C3 C4 119.4(3) . . ?
F3 C4 C5 120.8(3) . . ?
F3 C4 C3 120.0(3) . . ?
C5 C4 C3 119.1(3) . . ?
F4 C5 C4 117.6(3) . . ?
F4 C5 C6 121.0(3) . . ?
C4 C5 C6 121.5(3) . . ?
C5 C6 C1 119.4(3) . . ?
C5 C6 I1 118.8(2) . . ?
C1 C6 I1 121.8(2) . . ?
C12 C7 C8 117.0(3) . . ?
C12 C7 C1 120.9(2) . . ?
C8 C7 C1 122.1(3) . . ?
F5 C8 C9 119.1(2) . . ?
F5 C8 C7 119.8(3) . . ?
C9 C8 C7 121.1(3) . . ?
F6 C9 C10 120.1(2) . . ?
F6 C9 C8 118.1(3) . . ?
C10 C9 C8 121.8(3) . . ?
C9 C10 C11 117.1(3) . . ?
C9 C10 C13 122.4(2) . . ?
C11 C10 C13 120.4(2) . . ?
F7 C11 C12 119.6(2) . . ?
F7 C11 C10 119.6(2) . . ?
C12 C11 C10 120.8(3) . . ?
F8 C12 C7 119.5(2) . . ?
F8 C12 C11 118.3(3) . . ?
C7 C12 C11 122.2(3) . . ?
C14 C13 C18 118.0(3) . . ?
C14 C13 C10 119.1(3) . . ?
C18 C13 C10 122.9(2) . . ?
F9 C14 C15 117.9(3) . . ?
F9 C14 C13 120.3(3) . . ?
C15 C14 C13 121.8(3) . . ?
F10 C15 C14 120.0(3) . . ?
F10 C15 C16 120.4(3) . . ?
C14 C15 C16 119.6(3) . . ?
F11 C16 C17 120.9(3) . . ?
F11 C16 C15 119.7(3) . . ?
C17 C16 C15 119.3(3) . . ?
F12 C17 C16 117.8(3) . . ?
F12 C17 C18 120.8(3) . . ?
C16 C17 C18 121.5(3) . . ?
C17 C18 C13 119.8(3) . . ?
C17 C18 I2 118.7(2) . . ?
C13 C18 I2 121.5(2) . . ?
loop_
_geom_bond_atom_site_label_1
_geom_bond_atom_site_label_2
_geom_bond_distance
_geom_bond_site_symmetry_2
_geom_bond_publ_flag
I1 C6 2.079(3) . ?
I2 C18 2.080(3) . ?
F1 C2 1.345(3) . ?
F2 C3 1.338(3) . ?
F3 C4 1.331(3) . ?
F4 C5 1.342(3) . ?
F5 C8 1.339(3) . ?
F6 C9 1.338(3) . ?
F7 C11 1.337(3) . ?
F8 C12 1.337(3) . ?
F9 C14 1.349(3) . ?
F10 C15 1.341(3) . ?
F11 C16 1.330(3) . ?
F12 C17 1.333(3) . ?
C1 C2 1.377(4) . ?
C1 C6 1.395(4) . ?
C1 C7 1.491(4) . ?
C2 C3 1.372(4) . ?
C3 C4 1.380(4) . ?
C4 C5 1.376(4) . ?
C5 C6 1.384(4) . ?
C7 C12 1.374(4) . ?
C7 C8 1.385(4) . ?
C8 C9 1.380(4) . ?
C9 C10 1.377(4) . ?
C10 C11 1.388(4) . ?
C10 C13 1.489(4) . ?
C11 C12 1.378(4) . ?
C13 C14 1.388(4) . ?
C13 C18 1.392(4) . ?
C14 C15 1.374(4) . ?
C15 C16 1.383(5) . ?
C16 C17 1.367(5) . ?
C17 C18 1.382(4) . ?
