#------------------------------------------------------------------------------
#$Date: 2022-09-24 01:36:04 +0300 (Sat, 24 Sep 2022) $
#$Revision: 278136 $
#$URL: file:///home/coder/svn-repositories/cod/cif/7/24/55/7245561.cif $
#------------------------------------------------------------------------------
#
# This file is available in the Crystallography Open Database (COD),
# http://www.crystallography.net/
#
# All data on this site have been placed in the public domain by the
# contributors.
#
data_7245561
loop_
_publ_author_name
'Zhou, Juan'
'Yu, Ting'
'Tang, Si si'
'He, Xiao Ming'
'Zhang, Xin Lei'
'Zhou, Lian'
'Sun, Lin'
'Zhang, Jun'
_publ_section_title
;
 Tuning the bonding dimensions for coordination polymers based on rare
 earth metal ions
;
_journal_name_full               CrystEngComm
_journal_paper_doi               10.1039/D2CE01131J
_journal_year                    2022
_chemical_formula_moiety         'C14 H30 Eu2 N4 O16, 4(Cl), 0.5(H4 O2)'
_chemical_formula_sum            'C14 H32 Cl4 Eu2 N4 O17'
_chemical_formula_weight         974.15
_space_group_crystal_system      triclinic
_space_group_IT_number           2
_space_group_name_Hall           '-P 1'
_space_group_name_H-M_alt        'P -1'
_atom_sites_solution_hydrogens   mixed
_audit_creation_date             2022-07-12
_audit_creation_method
;
Olex2 1.2-beta
(compiled 2018.05.29 svn.r3508 for OlexSys, GUI svn.r5506)
;
_audit_update_record
;
2022-08-13 deposited with the CCDC.	2022-09-22 downloaded from the CCDC.
;
_cell_angle_alpha                101.7930(10)
_cell_angle_beta                 116.0730(10)
_cell_angle_gamma                95.3180(10)
_cell_formula_units_Z            1
_cell_length_a                   9.1299(5)
_cell_length_b                   9.5805(6)
_cell_length_c                   10.0625(6)
_cell_measurement_reflns_used    4652
_cell_measurement_temperature    293.0(2)
_cell_measurement_theta_max      27.535
_cell_measurement_theta_min      2.518
_cell_volume                     757.04(8)
_computing_cell_refinement       'SAINT v8.27A (Bruker, 2012)'
_computing_data_reduction        'SAINT v8.27A (Bruker, 2012)'
_computing_molecular_graphics    'Olex2 (Dolomanov et al., 2009)'
_computing_publication_material  'Olex2 (Dolomanov et al., 2009)'
_computing_structure_refinement  'ShelXL (Sheldrick, 2015)'
_computing_structure_solution    'SHELXS-97 (Sheldrick, 1990)'
_diffrn_ambient_temperature      293.0(2)
_diffrn_detector                 'Bruker D8 Venture with photon2 CMOS detector'
_diffrn_detector_area_resol_mean 7.9
_diffrn_detector_type            'CMOS detector'
_diffrn_measured_fraction_theta_full 0.996
_diffrn_measured_fraction_theta_max 0.984
_diffrn_measurement_device       'three-circle diffractometer'
_diffrn_measurement_device_type  'Bruker D8 Venture with photon2 CMOS detector'
_diffrn_measurement_method       '\w and \f scans'
_diffrn_radiation_monochromator  'mirror optics'
_diffrn_radiation_probe          x-ray
_diffrn_radiation_type           MoK\a
_diffrn_radiation_wavelength     0.71073
_diffrn_reflns_av_R_equivalents  0.0165
_diffrn_reflns_av_unetI/netI     0.0253
_diffrn_reflns_Laue_measured_fraction_full 0.996
_diffrn_reflns_Laue_measured_fraction_max 0.984
_diffrn_reflns_limit_h_max       11
_diffrn_reflns_limit_h_min       -11
_diffrn_reflns_limit_k_max       12
_diffrn_reflns_limit_k_min       -12
_diffrn_reflns_limit_l_max       13
_diffrn_reflns_limit_l_min       -13
_diffrn_reflns_number            7416
_diffrn_reflns_point_group_measured_fraction_full 0.996
_diffrn_reflns_point_group_measured_fraction_max 0.984
_diffrn_reflns_theta_full        25.242
_diffrn_reflns_theta_max         27.585
_diffrn_reflns_theta_min         2.518
_diffrn_source                   'microfocus sealed X-ray tube'
_diffrn_source_type              'Incoatec I\ms'
_exptl_absorpt_coefficient_mu    4.534
_exptl_absorpt_correction_T_max  0.4641
_exptl_absorpt_correction_T_min  0.4354
_exptl_absorpt_correction_type   multi-scan
_exptl_absorpt_process_details   'SADABS; Bruker, 2000'
_exptl_crystal_colour            'light brown'
_exptl_crystal_colour_modifier   light
_exptl_crystal_colour_primary    brown
_exptl_crystal_density_diffrn    2.137
_exptl_crystal_density_method    'not measured'
_exptl_crystal_description       block
_exptl_crystal_F_000             474
_exptl_crystal_size_max          0.22
_exptl_crystal_size_mid          0.21
_exptl_crystal_size_min          0.2
_refine_diff_density_max         0.884
_refine_diff_density_min         -0.759
_refine_diff_density_rms         0.096
_refine_ls_extinction_method     none
_refine_ls_goodness_of_fit_ref   1.048
_refine_ls_hydrogen_treatment    constr
_refine_ls_matrix_type           full
_refine_ls_number_parameters     196
_refine_ls_number_reflns         3459
_refine_ls_number_restraints     0
_refine_ls_restrained_S_all      1.048
_refine_ls_R_factor_all          0.0228
_refine_ls_R_factor_gt           0.0199
_refine_ls_shift/su_max          0.004
_refine_ls_shift/su_mean         0.000
_refine_ls_structure_factor_coef Fsqd
_refine_ls_weighting_details
'w=1/[\s^2^(Fo^2^)+(0.0232P)^2^+0.5493P] where P=(Fo^2^+2Fc^2^)/3'
_refine_ls_weighting_scheme      calc
_refine_ls_wR_factor_gt          0.0465
_refine_ls_wR_factor_ref         0.0474
_reflns_Friedel_coverage         0.000
_reflns_number_gt                3222
_reflns_number_total             3459
_reflns_threshold_expression     'I > 2\s(I)'
_cod_data_source_file            d2ce01131j2.cif
_cod_data_source_block           compound1
_cod_database_code               7245561
_shelx_shelxl_version_number     2018/3
_shelx_space_group_comment
;
The symmetry employed for this shelxl refinement is uniquely defined
by the following loop, which should always be used as a source of
symmetry information in preference to the above space-group names.
They are only intended as comments.
;
_shelx_estimated_absorpt_t_max   0.464
_shelx_estimated_absorpt_t_min   0.435
_olex2_refinement_description
;
1. Fixed Uiso
 At 1.2 times of:
  All C(H) groups, All C(H,H) groups
 At 1.5 times of:
  All O(H,H) groups
2. Others
 Fixed Sof: O9(0.25) H9A(0.25) H9B(0.25) O10(0.25) H10A(0.25) H10B(0.25)
3.a Riding coordinates:
 O5(H5A,H5B), O6(H6A,H6B), O7(H7A,H7B), O8(H8A,H8B), O9(H9A,H9B), O10(H10A,H10B)
3.b Secondary CH2 refined with riding coordinates:
 C2(H2A,H2B), C6(H6C,H6D)
3.c Aromatic/amide H refined with riding coordinates:
 C3(H3), C4(H4), C5(H5)
;
_shelx_res_file
;
TITL ww R = New: P-1
    ww.res
    created by SHELXL-2018/3 at 09:32:25 on 12-Jul-2022
CELL 0.71073 9.1299 9.5805 10.0625 101.793 116.073 95.318
ZERR 1 0.0005 0.0006 0.0006 0.001 0.001 0.001
LATT 1
SFAC C H Cl Eu N O
UNIT 14 32 4 2 4 17
EQIV $1 -1-X,-2-Y,-Z
EQIV $2 -1-X,-3-Y,-Z
EQIV $3 +X,-1+Y,-1+Z
EQIV $4 1+X,+Y,+Z
EQIV $5 +X,1+Y,1+Z
EQIV $6 -1-X,-1-Y,1-Z
EQIV $7 -1-X,-2-Y,1-Z
EQIV $8 -X,-1-Y,2-Z

L.S. 12
PLAN  10
SIZE 0.22 0.21 0.2
TEMP 19.9(2)
HTAB O5 Cl2_$1
HTAB O6 Cl1
HTAB O6 Cl2
HTAB O7 Cl2_$2
HTAB O7 O9_$3
HTAB O7 O10_$3
HTAB O8 Cl1_$4
HTAB O8 Cl1_$1
HTAB C3 Cl2_$5
HTAB C4 O1_$6
HTAB C4 O6_$7
HTAB O9 N1_$8
HTAB O10 N2
HTAB O10 O10_$8
BOND $H
CONF
fmap 2
acta
OMIT 1 0 0
OMIT 0 0 1
OMIT 0 1 0
REM <olex2.extras>
REM <HklSrc "%.\\ww.hkl">
REM </olex2.extras>

WGHT    0.023200    0.549300
FVAR       0.17564
EU1   4   -0.176360   -1.130544    0.292949    11.00000    0.01814    0.01439 =
         0.01843    0.00451    0.00603    0.00019
O1    6   -0.211657   -0.289723    0.446440    11.00000    0.03805    0.02635 =
         0.02247    0.00822    0.00528   -0.00985
O2    6   -0.014318   -0.095834    0.595577    11.00000    0.02615    0.01945 =
         0.03014    0.00753    0.01108   -0.00210
O3    6   -0.092073   -0.802281    0.625570    11.00000    0.02470    0.02560 =
         0.02964    0.00343    0.00812    0.00842
O4    6   -0.291007   -0.980040    0.424978    11.00000    0.02627    0.02701 =
         0.03025   -0.00077    0.00999    0.00547
O5    6   -0.323248   -0.980078    0.127243    11.00000    0.03997    0.03573 =
         0.03697    0.01760    0.01614    0.01271
AFIX   3
H5A   2   -0.243728   -0.901738    0.135042    11.00000   -1.50000
H5B   2   -0.398848   -0.940778    0.159803    11.00000   -1.50000
AFIX   0
O6    6   -0.479513   -1.232283    0.166049    11.00000    0.02704    0.03726 =
         0.04338    0.01353    0.00614   -0.00177
AFIX   3
H6A   2   -0.535233   -1.160633    0.194109    11.00000   -1.50000
H6B   2   -0.521653   -1.258883    0.056549    11.00000   -1.50000
AFIX   0
O7    6   -0.238914   -1.382751    0.135165    11.00000    0.06375    0.02431 =
         0.05961   -0.00108    0.04019   -0.00326
AFIX   3
H7A   2   -0.137354   -1.409771    0.142995    11.00000   -1.50000
H7B   2   -0.290154   -1.447081    0.171525    11.00000   -1.50000
AFIX   0
O8    6   -0.095144   -1.138823    0.088310    11.00000    0.03635    0.04689 =
         0.03062    0.01480    0.01660    0.00726
AFIX   3
H8A   2    0.022246   -1.100073    0.133850    11.00000   -1.50000
H8B   2   -0.155874   -1.081493    0.023300    11.00000   -1.50000
AFIX   0
N1    5   -0.184801   -0.398103    0.685820    11.00000    0.02843    0.02463 =
         0.02699    0.01073    0.01476    0.00344
N2    5   -0.317727   -0.622144    0.601679    11.00000    0.02534    0.01855 =
         0.03175    0.00615    0.01416    0.00302
C1    1   -0.102797   -0.214523    0.575707    11.00000    0.02336    0.01804 =
         0.02593    0.00825    0.01250    0.00312
C2    1   -0.065312   -0.267537    0.717622    11.00000    0.03168    0.02437 =
         0.02591    0.00821    0.00981   -0.00523
AFIX  23
H2A   2    0.045730   -0.288315    0.757736    11.00000   -1.20000
H2B   2   -0.066559   -0.190514    0.796205    11.00000   -1.20000
AFIX   0
C3    1   -0.310312   -0.402183    0.726267    11.00000    0.03207    0.02819 =
         0.03667    0.00593    0.02024    0.00565
AFIX  43
H3    2   -0.333364   -0.323543    0.779763    11.00000   -1.20000
AFIX   0
C4    1   -0.393539   -0.541625    0.673745    11.00000    0.02980    0.02948 =
         0.04097    0.01005    0.02202    0.00478
AFIX  43
H4    2   -0.485178   -0.577255    0.684035    11.00000   -1.20000
AFIX   0
C5    1   -0.192318   -0.531662    0.609581    11.00000    0.03108    0.02577 =
         0.03575    0.00877    0.02194    0.00483
AFIX  43
H5    2   -0.121930   -0.557608    0.568646    11.00000   -1.20000
AFIX   0
C6    1   -0.376934   -0.777470    0.518274    11.00000    0.02521    0.02379 =
         0.03812    0.00486    0.01539    0.00447
AFIX  23
H6C   2   -0.453027   -0.786569    0.411372    11.00000   -1.20000
H6D   2   -0.439297   -0.823676    0.560331    11.00000   -1.20000
AFIX   0
C7    1   -0.239412   -0.859585    0.524734    11.00000    0.02506    0.02305 =
         0.02391    0.00793    0.01169    0.00615

CL1   3   -0.732863   -1.022847    0.162315    11.00000    0.03617    0.07928 =
         0.04451    0.03220    0.02179    0.02148
CL2   3   -0.640494   -1.339997   -0.198762    11.00000    0.08870    0.03041 =
         0.06998    0.01024    0.05627    0.01094
PART 1
O9    6    0.000000   -0.500000    1.000000    10.25000    0.13048    0.13906 =
         0.08442    0.07535    0.08145    0.10489
AFIX   3
H9A   2    0.050070   -0.413910    0.988160    10.25000   -1.50000
H9B   2    0.084350   -0.552330    1.048050    10.25000   -1.50000
AFIX   0

PART 0
PART 2
O10   6   -0.078693   -0.585554    0.987333    10.25000    0.14856    0.07096 =
         0.05764    0.03083   -0.00932    0.03445
AFIX   3
H10A  2   -0.161733   -0.645384    0.888003    10.25000   -1.50000
H10B  2   -0.018613   -0.505634    0.975163    10.25000   -1.50000
AFIX   0
HKLF 4




REM  ww R = New: P-1
REM wR2 = 0.0474, GooF = S = 1.048, Restrained GooF = 1.048 for all data
REM R1 = 0.0199 for 3222 Fo > 4sig(Fo) and 0.0228 for all 3459 data
REM 196 parameters refined using 0 restraints

END

WGHT      0.0232      0.5491

REM Highest difference peak  0.884,  deepest hole -0.759,  1-sigma level  0.096
Q1    1  -0.7639 -1.1117  0.1149  11.00000  0.05    0.88
Q2    1  -0.2256 -1.1831  0.1937  11.00000  0.05    0.59
Q3    1  -0.3317 -0.9847  0.0356  11.00000  0.05    0.50
Q4    1  -0.1904 -1.0598  0.3624  11.00000  0.05    0.47
Q5    1  -0.1452 -1.2165  0.2796  11.00000  0.05    0.45
Q6    1  -0.7146 -1.3789 -0.1635  11.00000  0.05    0.45
Q7    1  -0.0873 -0.2425  0.6415  11.00000  0.05    0.43
Q8    1  -0.3289 -0.8983  0.1686  11.00000  0.05    0.42
Q9    1  -0.0978 -1.0298  0.3248  11.00000  0.05    0.42
Q10   1  -0.0641 -1.1403  0.3537  11.00000  0.05    0.40
;
_shelx_res_checksum              92797
_shelx_hkl_file
;
  -1   0   0   -0.72    0.06
  -2   0   0  481.41    6.69
   2   0   0  490.87    6.81
   2   0   0  469.68    7.23
  -3   0   0  115.29    2.01
   3   0   0  116.08    1.87
   3   0   0  116.56    2.13
  -4   0   0    4.70    0.49
   4   0   0    4.59    0.33
   4   0   0    3.81    0.40
  -5   0   0   48.24    1.36
   5   0   0   43.14    1.30
   5   0   0   45.09    1.02
  -6   0   0   97.20    2.26
   6   0   0   96.69    2.28
  -7   0   0    0.11    0.56
   7   0   0    0.05    0.43
  -8   0   0   43.73    1.78
   8   0   0   43.31    1.72
  -9   0   0   41.26    2.00
   9   0   0   40.91    1.84
 -10   0   0    5.35    1.17
  10   0   0    2.43    0.83
  10  -1   0   19.54    1.49
 -10   1   0   18.66    1.57
   9  -1   0   62.81    2.20
  -9   1   0   61.03    2.24
   8  -1   0   -0.11    0.47
  -8   1   0    0.52    0.65
   7  -1   0  136.81    3.05
  -7   1   0  138.32    2.93
   6  -1   0   54.69    1.58
   6  -1   0   53.99    1.33
  -6   1   0   55.67    1.60
   5  -1   0    4.13    0.40
   5  -1   0    3.91    0.46
  -5   1   0    3.93    0.51
   4  -1   0  139.91    2.61
   4  -1   0  141.05    2.40
  -4   1   0  141.76    2.44
   3  -1   0  141.67    2.34
   3  -1   0  142.73    2.50
  -3   1   0  142.03    2.30
   2  -1   0  181.62    2.96
   2  -1   0  183.58    2.83
  -2   1   0  186.52    2.71
   1  -1   0  496.63    6.53
   1  -1   0  397.84    6.75
  -1   1   0  478.91    6.91
   0   1   0    0.06    0.06
  -1  -1   0    7.96    0.30
   1   1   0    7.94    0.33
  -2  -1   0  851.46   11.58
   2   1   0  836.75   12.54
  -3  -1   0   19.98    0.71
   3   1   0   20.22    0.44
  -4  -1   0  206.86    3.48
   4   1   0  210.91    3.10
   4   1   0  207.03    3.69
  -5  -1   0   34.76    1.23
   5   1   0   36.90    1.23
  -6  -1   0    6.76    0.78
   6   1   0    6.12    0.70
  -7  -1   0   31.82    1.49
   7   1   0   29.13    1.34
  -8  -1   0   35.46    1.77
   8   1   0   35.67    1.63
  -9  -1   0    1.39    0.89
   9   1   0   -0.09    0.65
 -10  -1   0   17.61    1.64
  10   1   0   15.40    1.42
  10  -2   0   35.33    1.85
   9  -2   0   18.70    1.32
  -9   2   0   20.38    1.46
   8  -2   0   18.76    1.23
  -8   2   0   19.14    1.28
   7  -2   0  215.82    4.17
   7  -2   0  209.93    3.79
  -7   2   0  209.92    3.89
   6  -2   0   20.44    0.87
   6  -2   0   21.17    1.01
  -6   2   0   18.73    0.99
   5  -2   0  165.45    3.15
   5  -2   0  164.32    2.92
  -5   2   0  166.15    2.89
   4  -2   0   47.04    1.22
   4  -2   0   48.63    1.17
  -4   2   0   46.77    1.13
   3  -2   0  165.81    2.88
   3  -2   0  165.84    2.78
  -3   2   0  166.03    2.58
   2  -2   0    8.70    0.46
   2  -2   0    9.23    0.44
  -2   2   0   10.15    0.46
  -2   2   0    8.82    0.34
   1  -2   0  161.41    2.50
  -1   2   0  155.21    2.61
   0  -2   0   -0.24    0.11
   0  -2   0   -0.24    0.13
   0   2   0   -0.20    0.10
   0   2   0    0.54    0.24
  -1  -2   0  243.96    3.50
  -1  -2   0  240.01    3.55
   1   2   0  245.59    3.95
   2   2   0  409.71    6.43
  -3  -2   0    2.16    0.37
   3   2   0    1.48    0.35
  -4  -2   0  232.33    3.87
   4   2   0  232.16    4.13
  -5  -2   0  105.18    2.37
   5   2   0  113.41    2.51
  -6  -2   0   19.51    1.22
   6   2   0   20.70    1.11
  -7  -2   0   43.49    1.77
   7   2   0   45.46    1.74
  -8  -2   0   16.64    1.38
   8   2   0   16.94    1.27
  -9  -2   0    8.07    1.25
   9   2   0    8.22    1.08
  10  -3   0   22.47    1.55
   9  -3   0    1.91    0.68
   8  -3   0   65.58    2.08
   7  -3   0   49.16    1.64
   7  -3   0   47.64    1.47
  -7   3   0   49.25    1.53
   6  -3   0   10.22    0.76
   6  -3   0    8.52    0.76
  -6   3   0    8.24    0.69
   5  -3   0  255.36    4.25
   5  -3   0  249.22    4.45
  -5   3   0  251.35    3.98
   4  -3   0   15.98    0.72
   4  -3   0   15.36    0.73
  -4   3   0   13.65    0.72
  -4   3   0   14.77    0.60
   3  -3   0  381.55    5.89
   3  -3   0  381.19    6.10
  -3   3   0  384.71    6.11
  -3   3   0  387.79    5.38
   2  -3   0   55.50    1.25
  -2   3   0   56.41    1.29
  -2   3   0   57.00    0.92
   1  -3   0   44.04    1.00
  -1   3   0   45.15    0.77
  -1   3   0   44.03    1.13
   0  -3   0   60.39    1.15
   0  -3   0   58.10    1.06
   0   3   0   60.55    1.06
   0   3   0   58.95    1.43
  -1  -3   0  388.66    5.53
  -1  -3   0  394.18    5.56
   1   3   0  380.49    5.50
   1   3   0  376.39    6.17
  -2  -3   0  158.04    2.68
  -2  -3   0  161.62    2.37
  -3  -3   0  332.56    5.12
   3   3   0  329.74    5.58
  -4  -3   0  185.96    3.35
   4   3   0  186.28    3.58
  -5  -3   0    2.65    0.60
   5   3   0    1.98    0.51
  -6  -3   0   97.18    2.45
   6   3   0   90.31    2.45
  -7  -3   0   29.65    1.61
   7   3   0   30.99    1.54
  -8  -3   0    0.20    0.88
   8   3   0    1.01    0.68
  -9  -3   0   38.72    2.21
   9   3   0   35.12    1.89
  10  -4   0    1.19    0.78
   9  -4   0   15.25    1.26
   8  -4   0   35.49    1.56
   8  -4   0   37.58    1.43
   7  -4   0    3.48    0.65
   7  -4   0    3.79    0.60
   6  -4   0   92.97    2.19
   6  -4   0   97.99    2.36
  -6   4   0   94.40    2.30
  -6   4   0   95.92    2.02
   5  -4   0   82.18    1.99
   5  -4   0   81.25    1.92
  -5   4   0   82.07    2.00
  -5   4   0   81.97    1.60
   4  -4   0   23.15    0.93
   4  -4   0   25.46    0.96
  -4   4   0   23.84    0.64
  -4   4   0   25.39    0.96
   3  -4   0  293.35    4.73
  -3   4   0  286.99    4.90
  -3   4   0  293.92    4.11
   2  -4   0  152.49    2.69
  -2   4   0  155.70    2.23
  -2   4   0  149.37    2.84
   1  -4   0  222.44    3.61
  -1   4   0  222.41    3.94
  -1   4   0  226.59    3.24
   0  -4   0  255.47    3.89
   0  -4   0  247.22    3.68
   0   4   0  246.00    3.67
   0   4   0  246.92    4.39
  -1  -4   0   24.16    0.64
  -1  -4   0   22.60    0.72
   1   4   0   22.95    0.97
  -2  -4   0   57.71    1.36
  -2  -4   0   59.88    1.06
   2   4   0   57.47    1.59
  -3  -4   0  107.03    2.18
   3   4   0  105.61    2.40
  -4  -4   0   21.46    1.08
   4   4   0   21.26    1.10
  -5  -4   0  135.96    2.94
   5   4   0  135.50    3.10
  -6  -4   0  137.84    3.15
   6   4   0  134.78    3.26
  -7  -4   0    0.75    0.78
   7   4   0    0.56    0.57
  -8  -4   0   46.08    2.20
   8   4   0   46.45    2.05
  -9  -4   0   14.87    1.62
   9   4   0   12.79    1.37
  10  -5   0   31.13    1.84
 -10   5   0   32.46    1.83
   9  -5   0   33.82    1.72
  -9   5   0   33.40    1.71
   8  -5   0    3.97    0.78
   8  -5   0    4.74    0.73
  -8   5   0    3.33    0.74
   7  -5   0   34.02    1.38
   7  -5   0   34.33    1.51
  -7   5   0   31.33    1.46
   6  -5   0   72.75    2.05
   6  -5   0   71.43    1.95
  -6   5   0   77.27    2.09
   5  -5   0   22.85    1.06
   5  -5   0   22.64    1.10
  -5   5   0   22.68    1.08
  -4   5   0  141.07    2.20
  -4   5   0  144.62    2.95
   3  -5   0  151.31    2.89
  -3   5   0  157.24    2.30
  -3   5   0  153.65    3.05
   2  -5   0  114.28    2.26
  -2   5   0  113.79    2.48
  -2   5   0  115.47    1.79
   1  -5   0  361.53    5.65
   1  -5   0  364.34    5.19
  -1   5   0  362.32    6.20
  -1   5   0  365.37    5.18
   0  -5   0    6.71    0.49
   0  -5   0    7.01    0.44
   0   5   0    5.41    0.40
   0   5   0    5.79    0.65
  -1  -5   0   29.61    0.80
  -1  -5   0   28.08    0.89
  -2  -5   0  121.98    2.36
  -2  -5   0  123.17    2.06
   2   5   0  121.94    2.77
  -3  -5   0   16.17    0.90
   3   5   0   15.40    1.05
  -4  -5   0   58.41    1.74
   4   5   0   56.89    1.86
  -5  -5   0  179.54    3.66
   5   5   0  177.99    3.90
  -6  -5   0   11.34    1.19
   6   5   0   10.17    1.04
  -7  -5   0   34.93    1.89
   7   5   0   34.32    1.81
  -8  -5   0   49.76    2.39
   8   5   0   53.68    2.26
  10  -6   0   30.62    1.87
 -10   6   0   30.95    1.86
   9  -6   0    4.68    0.90
   9  -6   0    4.19    0.75
  -9   6   0    3.45    0.84
   8  -6   0   24.07    1.31
   8  -6   0   22.19    1.46
  -8   6   0   25.25    1.44
   7  -6   0   59.11    2.01
   7  -6   0   54.37    1.86
  -7   6   0   52.58    1.91
   6  -6   0    2.57    0.60
  -6   6   0    2.18    0.60
   5  -6   0   49.70    1.60
  -5   6   0   51.20    1.70
   4  -6   0   21.13    1.04
  -4   6   0   22.33    1.18
   3  -6   0    5.38    0.63
  -3   6   0    5.00    0.73
   2  -6   0  199.57    3.54
  -2   6   0  191.95    3.89
  -2   6   0  197.69    2.96
   1  -6   0  242.65    4.10
   1  -6   0  242.77    3.69
  -1   6   0  241.65    4.66
  -1   6   0  246.66    3.69
   0  -6   0   20.38    0.82
   0  -6   0   22.39    0.77
   0   6   0   21.04    0.75
   0   6   0   24.79    1.28
  -1  -6   0  171.63    2.90
  -1  -6   0  165.23    2.94
   1   6   0  169.38    3.62
  -2  -6   0   15.73    0.89
   2   6   0   15.86    1.14
  -3  -6   0    4.70    0.65
   3   6   0    5.21    0.78
  -4  -6   0   76.03    2.09
   4   6   0   75.34    2.31
  -5  -6   0   30.84    1.53
   5   6   0   32.00    1.61
  -6  -6   0   10.07    1.20
   6   6   0   11.87    1.19
  -7  -6   0   58.25    2.45
   7   6   0   56.93    2.38
  -8  -6   0    4.81    1.28
   8   6   0    5.38    1.07
   9  -7   0   10.40    1.10
  -9   7   0    8.85    1.15
   8  -7   0   60.39    2.07
  -8   7   0   59.44    2.23
   7  -7   0    5.64    0.81
  -7   7   0    7.20    0.96
   6  -7   0   15.68    1.15
  -6   7   0   17.64    1.24
   5  -7   0   66.97    1.97
  -5   7   0   68.50    2.12
   4  -7   0   15.84    1.01
  -4   7   0   15.69    1.15
   3  -7   0   81.95    2.06
  -3   7   0   84.06    2.35
   2  -7   0  164.30    3.20
  -2   7   0  166.92    3.69
   1  -7   0   29.89    1.12
  -1   7   0   32.74    1.64
  -1   7   0   31.86    0.91
   0  -7   0   99.54    2.09
   0  -7   0  100.81    2.00
   0   7   0   99.80    2.70
  -1  -7   0  251.06    4.13
  -1  -7   0  250.65    4.16
   1   7   0  246.34    4.99
  -2  -7   0   15.31    0.96
   2   7   0   15.90    1.25
  -3  -7   0  105.76    2.47
   3   7   0  104.42    2.86
  -4  -7   0   21.35    1.28
   4   7   0   20.56    1.48
  -5  -7   0    7.80    1.02
   5   7   0    6.39    0.98
  -6  -7   0   45.25    2.08
   6   7   0   49.29    2.16
  -7  -7   0   19.17    1.68
   7   7   0   22.78    1.80
   9  -8   0   41.18    1.94
  -9   8   0   38.11    2.06
   8  -8   0   29.72    1.60
  -8   8   0   27.90    1.79
   7  -8   0   12.24    1.17
  -7   8   0   11.07    1.19
   6  -8   0  128.47    3.09
  -6   8   0  124.41    3.29
   5  -8   0    2.37    0.61
  -5   8   0    2.39    0.77
   4  -8   0   20.81    1.16
  -4   8   0   19.96    1.44
   3  -8   0   51.14    1.68
  -3   8   0   53.13    2.02
   2  -8   0   38.39    1.40
  -2   8   0   41.63    1.90
   1  -8   0   73.80    1.87
  -1   8   0   72.59    2.46
   0  -8   0  158.59    2.99
   0   8   0  149.55    3.72
  -1  -8   0   -0.37    0.40
   1   8   0   -0.30    0.62
  -2  -8   0   74.42    1.98
   2   8   0   74.65    2.48
  -3  -8   0   76.46    2.19
   3   8   0   80.61    2.60
  -4  -8   0    5.14    0.88
   4   8   0    4.97    0.96
  -5  -8   0   55.06    2.20
   5   8   0   52.14    2.27
  -6  -8   0   12.44    1.41
   6   8   0   15.59    1.50
   8  -9   0    1.09    0.75
  -8   9   0    0.11    0.88
   7  -9   0   28.80    1.59
  -7   9   0   27.13    1.76
   6  -9   0   25.81    1.47
  -6   9   0   25.13    1.69
   5  -9   0    4.07    0.77
  -5   9   0    3.05    0.90
   4  -9   0  103.95    2.67
  -4   9   0  106.43    3.10
   3  -9   0    3.45    0.68
  -3   9   0    1.50    0.82
   2  -9   0   52.82    1.68
  -2   9   0   53.52    2.25
   1  -9   0   25.05    1.15
  -1   9   0   25.57    1.70
   0   9   0   35.90    1.95
   1   9   0   15.35    1.39
  -2  -9   0   75.68    2.25
   2   9   0   76.39    2.68
  -3  -9   0    7.23    0.92
   3   9   0    7.16    1.10
  -4  -9   0   22.14    1.55
   4   9   0   17.41    1.52
  -5  -9   0   37.48    2.00
   5   9   0   39.46    2.21
   7 -10   0   43.93    2.00
  -7  10   0   41.03    2.32
   6 -10   0    0.76    0.70
  -6  10   0    0.01    0.82
   5 -10   0   54.23    2.04
  -5  10   0   52.47    2.40
   4 -10   0   34.22    1.59
  -4  10   0   36.64    2.12
   3 -10   0    4.60    0.75
  -3  10   0    3.85    1.05
   2 -10   0   77.31    2.18
  -2  10   0   78.41    2.91
   1 -10   0   30.95    1.33
  -1  10   0   29.61    1.93
   0  10   0    6.02    1.11
   1  10   0   25.29    1.81
   2  10   0   32.44    1.96
   3  10   0    7.77    1.22
   4  10   0   61.93    2.73
   6 -11   0    8.00    1.13
  -6  11   0    8.97    1.41
   5 -11   0   35.50    1.77
  -5  11   0   35.67    2.32
   4 -11   0    1.80    0.72
  -4  11   0    2.60    1.10
   3 -11   0   45.47    1.80
  -3  11   0   48.90    2.56
   2 -11   0   37.55    1.58
  -2  11   0   38.25    2.24
  -1  11   0    0.88    0.97
   0  11   0   49.54    2.45
   1  11   0   27.77    1.96
   2  11   0    2.42    0.96
   4 -12   0   10.06    1.15
  -4  12   0    9.32    1.53
   3 -12   0   46.65    1.97
  -3  12   0   51.09    2.80
  -2  12   0    3.95    1.24
  -1  12   0   40.78    2.54
   0  12  -1   38.59    2.35
  -1  12  -1   10.25    1.47
  -2  12  -1   47.01    2.52
  -3  12  -1    1.39    1.11
   3 -12   1    2.26    0.77
  -4  12  -1    8.62    1.49
   4 -12   1    9.46    1.15
   3  11  -1    0.81    0.89
   2  11  -1   41.83    2.21
   1  11  -1   32.11    2.04
   0  11  -1    5.17    1.14
  -1  11  -1   43.90    2.32
  -2  11  -1   38.15    2.21
   2 -11   1   37.07    1.59
  -3  11  -1    0.66    0.97
   3 -11   1    0.81    0.64
  -4  11  -1   45.28    2.37
   4 -11   1   52.45    2.06
  -5  11  -1    9.19    1.39
   5 -11   1   10.52    1.21
  -6  11  -1    7.23    1.32
   6 -11   1    6.99    1.08
   4  10  -1    3.41    1.02
  -4 -10   1    2.60    0.90
   3  10  -1   39.33    2.13
   2  10  -1   33.38    1.90
   1  10  -1    3.04    0.94
   0  10  -1   56.04    2.39
  -1  10  -1  113.92    3.32
   1 -10   1  109.24    2.65
  -2  10  -1    0.56    0.81
   2 -10   1    1.54    0.60
  -3  10  -1   57.80    2.39
   3 -10   1   55.21    1.96
  -4  10  -1   16.05    1.51
   4 -10   1   17.40    1.29
  -5  10  -1    0.03    0.78
   5 -10   1    0.14    0.65
  -6  10  -1   26.50    1.88
   6 -10   1   28.21    1.64
   7 -10   1   19.78    1.58
   5   9  -1   19.63    1.67
  -5  -9   1   18.42    1.47
   4   9  -1    8.41    1.16
  -4  -9   1    8.37    1.02
   3   9  -1   78.24    2.64
  -3  -9   1   78.34    2.23
   2   9  -1   19.20    1.50
  -2  -9   1   17.86    1.13
   1   9  -1   79.32    2.60
   0   9  -1  102.05    3.01
   0  -9   1  104.11    2.36
  -1   9  -1    2.51    0.82
   1  -9   1    1.08    0.50
  -2   9  -1   33.81    1.85
   2  -9   1   36.85    1.43
  -3   9  -1   78.40    2.61
   3  -9   1   74.05    2.18
  -4   9  -1   -0.46    0.66
   4  -9   1    0.13    0.54
  -5   9  -1   69.27    2.46
   5  -9   1   65.79    2.19
  -6   9  -1   23.51    1.61
   6  -9   1   23.77    1.47
  -7   9  -1    0.54    0.81
   7  -9   1    1.34    0.72
   8  -9   1   14.11    1.36
   6   8  -1   24.66    1.68
  -6  -8   1   26.36    1.71
   5   8  -1    0.87    0.70
  -5  -8   1   -0.94    0.67
   4   8  -1   63.83    2.36
  -4  -8   1   64.21    2.05
   3   8  -1   14.41    1.25
  -3  -8   1   10.71    0.94
   2   8  -1   13.09    1.21
  -2  -8   1   11.09    0.87
   1   8  -1   85.95    2.56
   1   8  -1   84.00    1.92
  -1  -8   1   86.89    1.96
   0   8  -1   31.07    1.04
   0   8  -1   32.34    1.66
   0  -8   1   31.26    1.04
   0  -8   1   28.59    1.13
  -1   8  -1   37.00    1.73
   1  -8   1   35.84    1.32
  -2   8  -1  143.58    3.49
   2  -8   1  144.99    3.04
  -3   8  -1    7.08    0.94
   3  -8   1    5.29    0.73
  -4   8  -1   33.26    1.59
   4  -8   1   33.19    1.44
  -5   8  -1   71.60    2.26
   5  -8   1   70.17    2.17
  -6   8  -1    3.25    0.81
   6  -8   1    4.31    0.81
  -7   8  -1   18.17    1.47
   7  -8   1   21.79    1.41
  -8   8  -1   11.95    1.28
   8  -8   1   13.76    1.27
   9  -8   1   -0.18    0.68
   7   7  -1   46.72    2.15
  -7  -7   1   44.87    2.16
   6   7  -1    0.48    0.61
  -6  -7   1    0.31    0.72
   5   7  -1   36.52    1.79
  -5  -7   1   39.80    1.68
   4   7  -1   40.14    1.74
  -4  -7   1   39.40    1.53
   3   7  -1    0.18    0.57
  -3  -7   1    0.03    0.47
   2   7  -1  154.67    3.55
  -2  -7   1  163.57    3.03
   1   7  -1   68.73    1.61
   1   7  -1   70.86    2.14
  -1  -7   1   70.60    1.64
  -1  -7   1   67.83    1.59
   0   7  -1   10.91    1.01
   0   7  -1   11.96    0.64
   0  -7   1   11.32    0.64
   0  -7   1   11.36    0.75
  -1   7  -1   81.81    2.36
  -1   7  -1   79.90    1.59
   1  -7   1   79.53    1.90
  -2   7  -1  166.06    2.78
  -2   7  -1  165.46    3.59
   2  -7   1  161.14    3.19
  -3   7  -1    2.01    0.63
   3  -7   1    2.43    0.56
  -4   7  -1  172.43    3.66
   4  -7   1  176.52    3.54
  -5   7  -1   43.48    1.63
   5  -7   1   40.17    1.55
  -6   7  -1   34.98    1.56
   6  -7   1   33.93    1.52
  -7   7  -1   50.51    1.95
   7  -7   1   50.72    1.88
  -8   7  -1    3.54    0.81
   8  -7   1    3.65    0.80
   9  -7   1   21.53    1.46
   9  -7   1   20.58    1.64
   8   6  -1   43.27    2.11
  -8  -6   1   42.90    2.21
   7   6  -1   20.40    1.49
  -7  -6   1   15.97    1.39
   6   6  -1   32.41    1.63
  -6  -6   1   28.14    1.53
   5   6  -1  157.41    3.64
  -5  -6   1  156.96    3.34
   4   6  -1    4.07    0.71
  -4  -6   1    4.27    0.66
   3   6  -1   73.72    2.16
  -3  -6   1   80.12    1.92
   2   6  -1   85.88    1.85
   2   6  -1   84.54    2.25
  -2  -6   1   87.87    1.65
  -2  -6   1   82.84    1.86
   1   6  -1    9.03    0.84
   1   6  -1    7.56    0.56
  -1  -6   1    8.63    0.58
  -1  -6   1    7.86    0.58
   0   6  -1  210.79    3.33
   0   6  -1  205.44    4.08
   0  -6   1  209.59    3.34
   0  -6   1  209.42    3.55
  -1   6  -1  189.91    3.74
  -1   6  -1  184.02    2.92
   1  -6   1  183.50    3.30
  -2   6  -1   28.55    1.23
  -2   6  -1   30.03    0.76
   2  -6   1   28.30    1.08
  -3   6  -1   69.13    1.30
  -3   6  -1   68.09    1.85
   3  -6   1   67.11    1.79
  -4   6  -1   82.88    2.11
   4  -6   1   81.90    2.08
  -5   6  -1   11.51    0.92
   5  -6   1   11.58    0.92
  -6   6  -1  146.44    3.27
   6  -6   1  140.51    3.17
   6  -6   1  154.14    3.32
  -7   6  -1   40.61    1.64
   7  -6   1   37.56    1.59
   7  -6   1   37.76    1.57
  -8   6  -1   16.24    1.29
   8  -6   1   18.53    1.28
   8  -6   1   16.75    1.32
  -9   6  -1   39.18    1.90
   9  -6   1   39.91    1.76
   9  -6   1   38.93    1.89
   9   5  -1   37.36    2.04
  -9  -5   1   39.10    2.33
   8   5  -1   32.16    1.76
  -8  -5   1   32.92    1.92
   7   5  -1   10.01    1.09
  -7  -5   1    6.90    1.01
   6   5  -1   66.80    2.15
  -6  -5   1   68.14    2.10
   5   5  -1   45.96    1.67
  -5  -5   1   43.30    1.56
   4   5  -1    1.99    0.56
  -4  -5   1    2.07    0.54
   3   5  -1  229.48    4.34
  -3  -5   1  230.36    3.90
   2   5  -1    4.33    0.46
   2   5  -1    2.37    0.50
  -2  -5   1    4.45    0.35
  -2  -5   1    3.88    0.47
   1   5  -1  405.69    5.97
   1   5  -1  406.78    6.79
  -1  -5   1  413.96    6.10
  -1  -5   1  400.99    5.97
   0   5  -1  151.44    2.46
   0   5  -1  148.69    3.04
   0  -5   1  154.06    2.66
  -1   5  -1    3.86    0.55
  -1   5  -1    2.83    0.27
   1  -5   1    2.35    0.40
  -2   5  -1  259.67    3.81
  -2   5  -1  254.77    4.54
   2  -5   1  266.78    4.36
  -3   5  -1  126.93    2.57
  -3   5  -1  122.41    2.03
   3  -5   1  123.24    2.52
  -4   5  -1    4.65    0.40
  -4   5  -1    4.78    0.57
   4  -5   1    4.03    0.58
  -5   5  -1   97.53    1.86
  -5   5  -1   97.34    2.28
   5  -5   1   91.70    2.24
   5  -5   1   92.07    2.23
  -6   5  -1   77.17    2.12
   6  -5   1   77.65    2.07
   6  -5   1   83.90    2.18
  -7   5  -1   -0.04    0.48
   7  -5   1    0.30    0.51
   7  -5   1   -0.35    0.47
  -8   5  -1   50.58    1.90
   8  -5   1   54.83    1.85
   8  -5   1   54.42    1.96
  -9   5  -1    6.70    0.94
   9  -5   1    6.87    1.00
  10  -5   1    3.43    0.95
   9   4  -1   23.17    1.62
  -9  -4   1   22.17    1.75
   8   4  -1    1.96    0.74
  -8  -4   1    2.93    0.95
   7   4  -1   32.09    1.58
  -7  -4   1   32.63    1.61
   6   4  -1  139.97    3.21
  -6  -4   1  130.10    2.96
   5   4  -1    5.19    0.67
  -5  -4   1    5.54    0.69
   4   4  -1  146.57    3.04
  -4  -4   1  139.79    2.76
   3   4  -1    9.29    0.70
  -3  -4   1   10.02    0.65
   2   4  -1  132.84    2.34
   2   4  -1  133.99    2.67
  -2  -4   1  138.46    2.13
  -2  -4   1  131.31    2.35
   1   4  -1  459.37    6.60
   1   4  -1  454.56    7.39
  -1  -4   1  464.08    6.62
  -1  -4   1  471.21    6.77
   0   4  -1  123.45    2.00
   0   4  -1  121.80    2.45
   0  -4   1  123.47    2.16
  -1   4  -1  451.87    7.23
  -1   4  -1  461.21    6.39
   1  -4   1  458.86    6.87
  -2   4  -1  165.07    2.50
  -2   4  -1  162.58    2.95
   2  -4   1  162.70    2.88
  -3   4  -1    0.29    0.28
  -3   4  -1    0.56    0.20
   3  -4   1    0.37    0.35
   3  -4   1    0.42    0.28
  -4   4  -1  121.85    2.46
  -4   4  -1  121.43    2.12
   4  -4   1  119.57    2.43
   4  -4   1  117.81    2.44
  -5   4  -1   78.65    1.71
  -5   4  -1   80.54    1.95
   5  -4   1   80.12    1.94
   5  -4   1   78.84    1.95
  -6   4  -1    0.67    0.41
   6  -4   1    0.36    0.45
   6  -4   1    0.99    0.48
   7  -4   1   22.96    1.15
   7  -4   1   21.89    1.18
   8  -4   1   36.33    1.60
   9  -4   1    0.06    0.60
  10  -4   1   38.51    1.95
  10   3  -1   43.43    2.19
 -10  -3   1   43.70    2.38
   9   3  -1    0.69    0.67
  -9  -3   1   -0.77    0.89
   8   3  -1   89.00    2.63
  -8  -3   1   85.44    2.64
   7   3  -1   73.90    2.26
  -7  -3   1   78.59    2.26
   6   3  -1    0.74    0.47
  -6  -3   1    0.04    0.55
   5   3  -1   72.25    1.92
  -5  -3   1   68.13    1.78
   4   3  -1  117.49    2.47
  -4  -3   1  113.89    2.29
   3   3  -1   12.15    0.59
   3   3  -1   11.19    0.66
   2   3  -1  324.15    5.26
   2   3  -1  318.08    4.77
  -2  -3   1  327.07    4.64
  -2  -3   1  322.52    4.79
   1   3  -1    5.91    0.47
   1   3  -1    5.30    0.34
  -1  -3   1    5.61    0.36
   0   3  -1    3.82    0.28
   0   3  -1    4.22    0.44
   0  -3   1    4.14    0.35
  -1   3  -1  242.81    3.92
  -1   3  -1  244.65    3.48
   1  -3   1  238.08    3.80
  -2   3  -1   93.32    1.77
  -2   3  -1   93.92    1.56
   2  -3   1   89.78    1.75
   2  -3   1   93.41    1.81
  -3   3  -1  105.13    2.04
  -3   3  -1  106.44    1.84
   3  -3   1  103.21    2.02
   3  -3   1  106.62    2.06
  -4   3  -1  183.85    3.05
   4  -3   1  181.71    3.29
   4  -3   1  182.53    3.23
  -5   3  -1    4.48    0.55
   5  -3   1    4.91    0.58
   5  -3   1    5.38    0.56
  -6   3  -1   21.38    1.06
   6  -3   1   18.45    1.00
   6  -3   1   17.16    0.94
  -7   3  -1   93.87    2.28
   7  -3   1   90.46    2.36
   7  -3   1   87.81    2.14
  -8   3  -1    4.91    0.80
   8  -3   1    4.65    0.77
   9  -3   1   22.74    1.45
  10  -3   1   34.26    1.82
  10   2  -1    7.21    1.11
 -10  -2   1    9.15    1.32
   9   2  -1   45.65    1.93
  -9  -2   1   39.08    1.97
   8   2  -1  114.09    3.00
  -8  -2   1  119.83    2.97
   7   2  -1   12.51    1.04
  -7  -2   1   11.98    1.04
   6   2  -1  116.90    2.70
  -6  -2   1  116.35    2.53
   5   2  -1  111.28    2.41
  -5  -2   1  105.28    2.24
   4   2  -1    1.70    0.38
  -4  -2   1    1.28    0.36
   3   2  -1   93.28    1.91
  -3  -2   1   96.88    1.78
   2   2  -1   53.65    1.08
   2   2  -1   55.70    1.22
  -2  -2   1   55.20    1.10
   1   2  -1   17.21    0.56
   1   2  -1   16.89    0.47
  -1  -2   1   17.05    0.44
   0   2  -1  371.42    5.76
   0   2  -1  380.88    5.24
   0  -2   1  384.98    5.51
  -1   2  -1  155.53    2.51
  -1   2  -1  156.06    2.31
   1  -2   1  156.31    2.51
  -2   2  -1   88.66    1.53
   2  -2   1   85.11    1.64
   2  -2   1   86.76    1.60
  -3   2  -1  507.17    7.34
   3  -2   1  517.77    7.64
   3  -2   1  514.73    7.89
  -4   2  -1  166.25    2.85
   4  -2   1  159.83    2.94
   4  -2   1  159.98    2.84
  -5   2  -1   43.70    1.34
   5  -2   1   42.72    1.23
   5  -2   1   41.70    1.27
  -6   2  -1  151.70    3.04
   6  -2   1  153.96    2.92
   6  -2   1  154.93    3.15
  -7   2  -1   17.77    1.21
   7  -2   1   19.19    1.11
  -8   2  -1   14.99    1.20
   8  -2   1   14.68    1.15
  -9   2  -1   36.03    1.84
   9  -2   1   38.08    1.73
  10  -2   1    2.33    0.84
  10   1  -1    4.38    0.92
 -10  -1   1    4.84    1.12
   9   1  -1   76.39    2.44
  -9  -1   1   75.31    2.43
   8   1  -1   14.41    1.10
  -8  -1   1   14.47    1.17
   7   1  -1   55.76    1.77
  -7  -1   1   56.97    1.78
   6   1  -1   80.67    2.03
  -6  -1   1   79.56    1.95
   5   1  -1    2.57    0.23
   5   1  -1    3.44    0.49
  -5  -1   1    2.50    0.45
   4   1  -1   30.18    0.96
   4   1  -1   30.59    0.61
  -4  -1   1   30.78    0.93
   3   1  -1  287.53    4.05
   3   1  -1  283.33    4.58
  -3  -1   1  280.03    4.22
   2   1  -1    0.60    0.18
   2   1  -1    0.57    0.19
  -2  -1   1    0.61    0.19
   1   1  -1  413.55    5.69
   1   1  -1  416.33    6.16
  -1   1  -1    0.75    0.18
   1  -1   1    0.95    0.13
   1  -1   1    1.01    0.19
  -2   1  -1  130.88    2.16
   2  -1   1  131.35    2.20
   2  -1   1  130.45    2.16
  -3   1  -1  407.64    6.10
   3  -1   1  420.40    6.49
   3  -1   1  422.07    6.21
  -4   1  -1   39.58    1.16
   4  -1   1   38.26    1.01
   4  -1   1   39.46    1.10
  -5   1  -1  193.26    3.50
   5  -1   1  200.69    3.34
   5  -1   1  197.50    3.64
  -6   1  -1   48.31    1.62
   6  -1   1   49.34    1.52
  -7   1  -1   23.09    1.39
   7  -1   1   24.03    1.21
  -8   1  -1   33.87    1.77
   8  -1   1   35.63    1.55
  -9   1  -1    3.30    0.98
   9  -1   1    2.24    0.73
 -10   1  -1   11.08    1.40
  10  -1   1   11.31    1.27
  10   0  -1   18.47    1.47
 -10   0   1   17.79    1.50
   9   0  -1   13.69    1.19
  -9   0   1   16.11    1.29
   8   0  -1    0.30    0.45
  -8   0   1   -0.24    0.59
   7   0  -1  118.40    2.73
  -7   0   1  115.91    2.59
   6   0  -1   69.72    1.82
  -6   0   1   69.78    1.75
   5   0  -1   39.28    1.19
   5   0  -1   40.00    0.91
  -5   0   1   39.69    1.12
   4   0  -1  328.29    4.86
   4   0  -1  327.64    5.34
  -4   0   1  330.84    4.89
   3   0  -1   58.67    1.06
   3   0  -1   57.65    1.25
  -3   0   1   59.68    1.14
   2   0  -1   15.41    0.39
   2   0  -1   15.67    0.41
   2   0  -1   16.78    0.49
  -2   0   1   16.09    0.41
   1   0  -1  443.95    6.54
   1   0  -1  445.24    6.28
   0   0  -1   -0.48    0.04
  -1   0  -1   78.55    1.34
   1   0   1   76.15    1.27
   1   0   1   77.84    1.32
  -2   0  -1  180.46    2.87
   2   0   1  182.34    2.77
   2   0   1  179.13    2.96
  -3   0  -1    4.15    0.43
   3   0   1    4.66    0.35
   3   0   1    5.23    0.41
  -4   0  -1  171.15    3.04
   4   0   1  173.06    3.13
   4   0   1  167.19    2.78
  -5   0  -1  215.95    3.87
   5   0   1  221.09    4.01
   5   0   1  220.14    3.53
  -6   0  -1    1.21    0.60
   6   0   1    1.03    0.45
  -7   0  -1   97.30    2.59
   7   0   1   96.29    2.49
  -8   0  -1   25.76    1.67
   8   0   1   24.01    1.36
  -9   0  -1    3.36    1.07
   9   0   1    1.04    0.69
  10  -1  -1   27.55    1.67
   9  -1  -1    2.64    0.72
  -9   1   1    2.65    0.80
   8  -1  -1   72.86    2.13
  -8   1   1   66.72    2.00
   7  -1  -1  150.69    3.23
  -7   1   1  151.73    2.98
   6  -1  -1   -0.11    0.33
   6  -1  -1    0.16    0.27
  -6   1   1    0.76    0.42
   5  -1  -1  217.86    3.52
   5  -1  -1  217.15    3.88
  -5   1   1  219.03    3.52
   4  -1  -1  189.33    3.36
   4  -1  -1  195.91    3.10
  -4   1   1  193.09    3.01
   3  -1  -1  243.87    4.02
   3  -1  -1  251.09    3.79
  -3   1   1  248.14    3.57
   2  -1  -1  640.27    9.49
   2  -1  -1  627.05    9.06
  -2   1   1  641.12    8.63
   1  -1  -1  173.24    2.58
  -1   1   1  169.35    2.70
   0  -1  -1  143.19    2.14
   0  -1  -1  142.13    2.09
   0   1   1  140.61    2.35
  -1  -1  -1  217.91    3.19
  -1  -1  -1  218.86    3.26
   1   1   1  216.25    3.49
  -2  -1  -1   19.04    0.71
   2   1   1   19.76    0.68
   2   1   1   19.06    0.49
  -3  -1  -1  264.87    4.19
   3   1   1  261.63    4.40
   3   1   1  265.11    3.92
  -4  -1  -1  187.01    3.38
   4   1   1  191.31    2.98
   4   1   1  194.51    3.52
  -5  -1  -1   47.43    1.54
   5   1   1   47.45    1.46
  -6  -1  -1   71.45    2.06
   6   1   1   68.74    1.97
  -7  -1  -1  104.20    2.78
   7   1   1  107.22    2.74
  -8  -1  -1    0.16    0.78
   8   1   1   -0.27    0.56
  -9  -1  -1   58.45    2.49
   9   1   1   54.49    2.24
  11  -2  -1   38.86    2.07
  10  -2  -1   -1.80    0.54
   9  -2  -1   20.29    1.37
   8  -2  -1   55.43    1.86
  -8   2   1   57.23    1.75
   7  -2  -1   19.34    0.88
   7  -2  -1   21.58    1.11
  -7   2   1   19.96    1.04
   6  -2  -1   74.85    1.93
   6  -2  -1   76.23    1.70
  -6   2   1   75.50    1.71
   5  -2  -1  125.14    2.32
   5  -2  -1  121.94    2.50
  -5   2   1  122.43    2.18
   4  -2  -1   98.66    1.86
   4  -2  -1   95.71    1.98
  -4   2   1   94.98    1.65
   3  -2  -1  219.67    3.68
   3  -2  -1  223.46    3.52
  -3   2   1  213.98    3.68
  -3   2   1  226.51    3.15
   2  -2  -1  354.90    5.59
   2  -2  -1  366.61    5.37
  -2   2   1  357.18    5.60
   1  -2  -1  148.47    2.39
  -1   2   1  151.50    2.58
   0  -2  -1  862.11   12.30
   0  -2  -1  841.04   11.52
   0   2   1  842.36   12.73
  -1  -2  -1   55.35    0.98
  -1  -2  -1   55.16    1.14
   1   2   1   52.83    1.27
  -2  -2  -1   89.36    1.75
  -2  -2  -1   88.46    1.44
   2   2   1   89.65    1.44
   2   2   1   88.70    1.86
  -3  -2  -1  202.20    3.44
   3   2   1  201.97    3.64
   3   2   1  201.76    3.01
  -4  -2  -1   36.24    1.29
   4   2   1   37.20    1.24
  -5  -2  -1   22.78    1.24
   5   2   1   24.31    1.15
  -6  -2  -1   61.94    1.99
   6   2   1   61.60    1.92
  -7  -2  -1    4.54    0.93
   7   2   1    4.60    0.77
  -8  -2  -1   24.46    1.72
   8   2   1   23.89    1.53
  -9  -2  -1   46.57    2.41
   9   2   1   45.21    2.07
  11  -3  -1    7.92    1.19
  10  -3  -1   18.55    1.47
   9  -3  -1   75.18    2.36
   8  -3  -1    0.22    0.50
   8  -3  -1    1.40    0.45
   7  -3  -1   28.76    1.12
   7  -3  -1   30.60    1.33
   6  -3  -1   19.17    0.99
   6  -3  -1   17.48    0.85
  -6   3   1   19.18    0.84
   5  -3  -1   42.42    1.30
   5  -3  -1   42.87    1.22
  -5   3   1   44.67    1.05
   4  -3  -1  183.26    3.25
   4  -3  -1  192.12    3.43
  -4   3   1  191.84    3.43
  -4   3   1  191.19    2.82
   3  -3  -1  375.68    5.76
   3  -3  -1  371.66    6.02
  -3   3   1  379.39    6.03
   2  -3  -1    3.51    0.35
  -2   3   1    3.21    0.41
   1  -3  -1  239.49    3.37
   1  -3  -1  236.36    3.71
  -1   3   1  240.66    4.07
   0  -3  -1  341.17    4.99
   0  -3  -1  333.45    4.81
   0   3   1  332.28    5.54
  -1  -3  -1    2.41    0.25
  -1  -3  -1    2.30    0.33
   1   3   1    1.94    0.41
  -2  -3  -1  451.11    6.40
  -2  -3  -1  446.00    6.59
   2   3   1  438.64    7.19
  -3  -3  -1   23.30    0.99
   3   3   1   22.55    1.00
  -4  -3  -1   13.54    0.99
   4   3   1   14.45    0.92
  -5  -3  -1   93.05    2.36
   5   3   1   90.06    2.34
  -6  -3  -1   16.75    1.28
   6   3   1   14.06    1.08
  -7  -3  -1   17.01    1.41
   7   3   1   18.33    1.27
  -8  -3  -1   39.21    2.08
   8   3   1   37.34    1.84
  -9  -3  -1    6.13    1.37
   9   3   1    7.73    1.15
  10  -4  -1   62.29    2.36
   9  -4  -1   17.77    1.30
   8  -4  -1   15.50    0.98
   8  -4  -1   16.17    1.21
  -8   4   1   19.41    1.24
   7  -4  -1   93.89    2.26
   7  -4  -1  101.63    2.54
  -7   4   1   93.79    2.43
   6  -4  -1   35.53    1.25
   6  -4  -1   39.14    1.42
  -6   4   1   35.03    1.34
   5  -4  -1   49.33    1.50
   5  -4  -1   50.91    1.43
  -5   4   1   52.76    1.53
   4  -4  -1   40.98    1.27
   4  -4  -1   41.61    1.20
  -4   4   1   40.83    0.71
  -4   4   1   36.72    1.22
   3  -4  -1   21.34    0.82
  -3   4   1   20.78    0.89
   2  -4  -1  117.90    1.71
   2  -4  -1  117.19    2.20
  -2   4   1  116.97    2.41
   1  -4  -1  160.98    2.42
   1  -4  -1  159.98    2.71
  -1   4   1  158.12    3.10
   0  -4  -1   17.08    0.61
   0  -4  -1   17.95    0.60
   0   4   1   17.34    0.92
  -1  -4  -1  111.89    2.07
  -1  -4  -1  115.45    1.95
   1   4   1  110.93    2.47
  -2  -4  -1  234.82    3.52
  -2  -4  -1  227.24    3.81
   2   4   1  230.18    4.29
  -3  -4  -1    0.56    0.47
   3   4   1    0.71    0.44
  -4  -4  -1  183.32    3.55
   4   4   1  182.85    3.78
  -5  -4  -1   55.20    1.88
   5   4   1   51.71    1.81
  -6  -4  -1    0.16    0.75
   6   4   1    0.22    0.56
  -7  -4  -1   24.16    1.71
   7   4   1   16.61    1.37
  -8  -4  -1   24.64    1.87
   8   4   1   26.94    1.77
  10  -5  -1   51.06    2.22
 -10   5   1   51.20    2.19
   9  -5  -1    0.13    0.63
   9  -5  -1    0.80    0.48
  -9   5   1    0.21    0.63
   8  -5  -1  101.63    2.76
   8  -5  -1  100.42    2.51
  -8   5   1  102.09    2.78
   7  -5  -1   37.72    1.41
   7  -5  -1   38.88    1.59
  -7   5   1   37.30    1.57
   6  -5  -1    6.23    0.75
   6  -5  -1    6.27    0.72
  -6   5   1    6.32    0.75
   5  -5  -1   96.03    2.23
  -5   5   1  101.97    2.39
   4  -5  -1   22.41    0.97
  -4   5   1   19.68    1.02
   3  -5  -1   61.81    1.54
  -3   5   1   62.01    1.70
   2  -5  -1  120.32    2.34
   2  -5  -1  121.41    1.85
   1  -5  -1   12.72    0.65
   1  -5  -1   13.66    0.51
  -1   5   1   12.29    0.98
   0  -5  -1   43.73    1.09
   0  -5  -1   42.98    1.05
   0   5   1   41.69    1.50
  -1  -5  -1  296.38    4.67
  -1  -5  -1  300.41    4.63
   1   5   1  301.12    5.43
  -2  -5  -1    8.58    0.70
   2   5   1    7.85    0.82
  -3  -5  -1   62.85    1.75
   3   5   1   59.04    1.92
  -4  -5  -1  159.41    3.34
   4   5   1  162.53    3.62
  -5  -5  -1   20.96    1.40
   5   5   1   24.95    1.40
  -6  -5  -1   44.20    2.00
   6   5   1   41.40    1.84
  -7  -5  -1   40.89    2.09
   7   5   1   42.86    2.01
  -8  -5  -1    2.90    1.15
   8   5   1    1.94    0.84
  10  -6  -1    3.59    0.94
 -10   6   1    3.08    0.91
   9  -6  -1   30.98    1.68
   9  -6  -1   30.08    1.47
  -9   6   1   31.05    1.69
   8  -6  -1   64.69    2.23
   8  -6  -1   65.94    2.07
  -8   6   1   66.14    2.25
   7  -6  -1    0.53    0.50
   7  -6  -1    0.32    0.57
  -7   6   1   -0.34    0.53
   6  -6  -1  104.82    2.51
  -6   6   1  101.79    2.66
   5  -6  -1   38.74    1.39
  -5   6   1   39.75    1.54
   4  -6  -1    6.75    0.70
  -4   6   1    5.19    0.73
   3  -6  -1  147.36    2.94
  -3   6   1  153.99    3.28
   2  -6  -1  107.44    2.27
  -2   6   1  112.48    2.72
   1  -6  -1   34.53    0.91
   1  -6  -1   33.55    1.09
  -1   6   1   36.27    1.55
   0  -6  -1  127.62    2.33
   0  -6  -1  130.27    2.42
   0   6   1  124.67    3.03
  -1  -6  -1   13.61    0.65
  -1  -6  -1   13.94    0.82
   1   6   1   13.68    1.10
  -2  -6  -1   48.48    1.47
   2   6   1   45.85    1.77
  -3  -6  -1  186.28    3.66
   3   6   1  197.37    4.19
  -4  -6  -1   24.75    1.46
   4   6   1   26.71    1.49
  -5  -6  -1   58.76    2.13
   5   6   1   60.82    2.26
  -6  -6  -1   48.02    2.16
   6   6   1   49.97    2.11
  -7  -6  -1   -0.80    0.89
   7   6   1    0.57    0.75
  10  -7  -1   12.99    1.44
  10  -7  -1   14.22    1.28
 -10   7   1   13.01    1.45
   9  -7  -1   30.74    1.56
  -9   7   1   26.30    1.71
   8  -7  -1    5.46    0.83
  -8   7   1    5.59    0.94
   7  -7  -1   20.92    1.30
  -7   7   1   23.13    1.52
   6  -7  -1   75.94    2.17
  -6   7   1   76.90    2.38
   5  -7  -1    1.07    0.51
  -5   7   1    2.00    0.66
   4  -7  -1   53.89    1.67
  -4   7   1   53.75    1.93
   3  -7  -1   93.20    2.20
  -3   7   1   92.65    2.57
   2  -7  -1   -0.20    0.36
  -2   7   1    0.95    0.67
   1  -7  -1   49.97    1.41
  -1   7   1   47.75    1.97
   0  -7  -1   54.12    1.41
   0  -7  -1   56.01    1.44
   0   7   1   53.33    2.03
  -1  -7  -1   38.95    1.29
   1   7   1   35.54    1.70
  -2  -7  -1  142.34    2.97
   2   7   1  150.02    3.61
  -3  -7  -1   30.06    1.48
   3   7   1   32.13    1.72
  -4  -7  -1   20.90    1.41
   4   7   1   22.21    1.51
  -5  -7  -1   77.46    2.57
   5   7   1   72.06    2.59
  -6  -7  -1   14.93    1.55
   6   7   1   13.52    1.41
   9  -8  -1   15.28    1.34
  -9   8   1   11.32    1.39
   8  -8  -1    2.53    0.73
  -8   8   1    1.28    0.81
   7  -8  -1   56.05    1.98
  -7   8   1   48.14    2.10
   6  -8  -1   16.78    1.18
  -6   8   1   17.02    1.35
   5  -8  -1   35.82    1.48
  -5   8   1   34.15    1.75
   4  -8  -1   97.20    2.45
  -4   8   1  100.53    2.86
   3  -8  -1    2.83    0.58
  -3   8   1    4.76    0.91
   2  -8  -1   69.37    1.87
  -2   8   1   72.03    2.49
   1  -8  -1   85.03    2.06
  -1   8   1   87.23    2.76
   0  -8  -1    2.38    0.46
   0   8   1    1.38    0.78
  -1  -8  -1   88.10    2.24
   1   8   1   89.65    2.78
  -2  -8  -1   60.10    1.85
   2   8   1   56.65    2.27
  -3  -8  -1    2.12    0.75
   3   8   1    1.27    0.75
  -4  -8  -1   81.94    2.58
   4   8   1   83.55    2.82
  -5  -8  -1   19.08    1.58
   5   8   1   22.79    1.73
   8  -9  -1   31.31    1.76
  -8   9   1   33.26    2.09
   7  -9  -1   18.65    1.37
  -7   9   1   21.03    1.68
   6  -9  -1   17.12    1.31
  -6   9   1   15.07    1.42
   5  -9  -1   90.09    2.51
  -5   9   1   93.94    2.94
   4  -9  -1   15.91    1.11
  -4   9   1   13.19    1.34
   3  -9  -1   49.35    1.71
  -3   9   1   52.25    2.30
   2  -9  -1   62.18    1.86
  -2   9   1   61.51    2.53
   1  -9  -1    9.01    0.81
  -1   9   1    9.63    1.21
   0   9   1   53.35    2.30
   1   9   1   52.59    2.29
   2   9   1    2.07    0.87
  -3  -9  -1   33.00    1.74
   3   9   1   31.86    1.92
  -4  -9  -1   20.03    1.58
   4   9   1   20.87    1.79
   7 -10  -1    2.29    0.80
  -7  10   1    1.29    1.08
   6 -10  -1   28.20    1.58
  -6  10   1   24.48    2.00
   5 -10  -1   21.11    1.37
  -5  10   1   18.43    1.68
   4 -10  -1    1.54    0.62
  -4  10   1    0.52    0.90
   3 -10  -1   69.06    2.14
  -3  10   1   67.05    2.79
   2 -10  -1   16.81    1.15
  -2  10   1   16.71    1.62
  -1  10   1   25.47    1.90
   0  10   1   33.06    2.04
   1  10   1    6.24    1.16
   2  10   1   16.32    1.56
   3  10   1   61.84    2.74
   6 -11  -1   22.89    1.59
  -6  11   1   16.08    1.77
   5 -11  -1    0.32    0.69
  -5  11   1    0.87    1.07
   4 -11  -1   40.88    1.79
  -4  11   1   38.34    2.36
   3 -11  -1   14.03    1.18
  -3  11   1   12.80    1.62
  -2  11   1    0.85    0.98
  -1  11   1   40.66    2.35
   0  11   1   26.93    2.05
   1  11   1   14.47    1.55
   1  12  -2   12.11    1.46
   0  12  -2    8.84    1.33
  -1  12  -2   52.66    2.54
  -2  12  -2    3.28    1.07
   2 -12   2    2.44    0.75
   3 -12   2   31.90    1.74
   4 -12   2   42.67    2.00
   3  11  -2   54.77    2.44
   2  11  -2   33.95    2.00
   1  11  -2   11.11    1.30
   0  11  -2   45.65    2.24
  -1  11  -2   13.86    1.42
   1 -11   2   13.26    1.10
  -2  11  -2    7.10    1.20
   2 -11   2    7.19    0.92
  -3  11  -2   61.10    2.60
   3 -11   2   57.35    2.10
   4 -11   2    8.23    1.09
   5 -11   2   23.25    1.67
   6 -11   2   49.08    2.19
   5  10  -2    4.95    1.03
  -5 -10   2    4.81    1.05
   4  10  -2   65.72    2.59
  -4 -10   2   58.79    2.16
   3  10  -2   35.95    1.91
  -3 -10   2   36.84    1.63
   2  10  -2    0.77    0.75
   1  10  -2   55.92    2.25
   0  10  -2   44.39    2.06
  -1  10  -2    5.55    1.01
   1 -10   2    6.42    0.81
  -2  10  -2   34.96    1.91
   2 -10   2   31.12    1.46
  -3  10  -2   10.63    1.26
   3 -10   2   10.51    1.06
  -4  10  -2    7.97    1.17
   4 -10   2    9.84    1.10
   5 -10   2   66.78    2.33
   6 -10   2   11.28    1.24
   7 -10   2   10.64    1.33
   6   9  -2   11.46    1.30
  -6  -9   2   12.77    1.36
   5   9  -2    7.12    1.07
  -5  -9   2    6.52    1.01
   4   9  -2   70.17    2.52
  -4  -9   2   75.30    2.28
   3   9  -2   12.04    1.19
  -3  -9   2   14.37    1.08
   2   9  -2   82.23    2.06
   2   9  -2   79.19    2.58
  -2  -9   2   80.42    2.07
   1   9  -2   93.10    2.77
   1   9  -2   97.66    2.17
  -1  -9   2   96.74    2.19
   0   9  -2    0.45    0.64
   0  -9   2    0.46    0.47
  -1   9  -2   51.81    2.07
   1  -9   2   55.52    1.73
  -2   9  -2   73.04    2.43
   2  -9   2   73.24    2.10
  -3   9  -2   14.53    1.29
   3  -9   2   13.91    1.09
  -4   9  -2   52.34    2.04
   4  -9   2   55.61    1.94
  -5   9  -2   30.02    1.71
   5  -9   2   33.33    1.62
   6  -9   2   -0.31    0.65
   7  -9   2   48.60    2.08
   8  -9   2   18.24    1.51
   7   8  -2   20.63    1.68
  -7  -8   2   18.75    1.56
   6   8  -2    5.71    1.01
  -6  -8   2    5.15    0.99
   5   8  -2   86.88    2.71
  -5  -8   2   80.83    2.38
   4   8  -2    5.44    0.88
  -4  -8   2    7.07    0.87
   3   8  -2   47.29    1.86
   3   8  -2   50.52    1.58
  -3  -8   2   49.52    1.60
   2   8  -2  132.54    3.25
   2   8  -2  134.61    2.70
  -2  -8   2  132.27    2.71
   1   8  -2   22.75    1.38
   1   8  -2   22.18    0.95
  -1  -8   2   24.61    1.03
  -1  -8   2   21.89    0.96
   0   8  -2   89.67    1.91
   0   8  -2   88.87    2.52
   0  -8   2   91.11    2.11
  -1   8  -2  117.21    2.22
  -1   8  -2  118.40    3.01
   1  -8   2  119.10    2.60
  -2   8  -2    0.65    0.61
   2  -8   2    0.36    0.51
  -3   8  -2   54.91    1.90
   3  -8   2   52.13    1.76
  -4   8  -2   54.28    1.93
   4  -8   2   52.08    1.82
  -5   8  -2   -0.12    0.56
   5  -8   2    0.30    0.58
   6  -8   2   32.36    1.60
   7  -8   2   23.29    1.56
   8  -8   2    1.24    0.74
   8   7  -2   30.46    1.91
  -8  -7   2   35.71    2.14
   7   7  -2    8.50    1.13
  -7  -7   2    8.14    1.16
   6   7  -2   61.48    2.27
  -6  -7   2   61.36    2.11
   5   7  -2   17.91    1.30
  -5  -7   2   18.35    1.23
   4   7  -2    8.22    0.92
  -4  -7   2    9.50    0.90
   3   7  -2   85.22    2.38
   3   7  -2   86.19    2.03
  -3  -7   2   85.71    2.06
   2   7  -2   62.22    1.97
   2   7  -2   61.17    1.59
  -2  -7   2   62.70    1.62
   1   7  -2   29.28    1.33
   1   7  -2   27.10    0.97
  -1  -7   2   28.90    1.01
  -1  -7   2   28.47    1.01
   0   7  -2   54.83    1.78
   0   7  -2   54.63    1.30
   0  -7   2   51.22    1.48
  -1   7  -2   29.90    1.41
  -1   7  -2   29.12    0.88
   1  -7   2   29.30    1.17
  -2   7  -2   44.64    1.64
  -2   7  -2   44.04    1.09
   2  -7   2   43.00    1.46
  -3   7  -2  106.29    2.61
   3  -7   2  108.03    2.53
  -4   7  -2    1.90    0.58
   4  -7   2    3.02    0.69
  -5   7  -2   36.56    1.49
   5  -7   2   35.76    1.53
  -6   7  -2   31.33    1.50
   6  -7   2   32.64    1.55
   7  -7   2    5.19    0.86
   8  -7   2   24.28    1.49
   9  -7   2   31.90    1.73
   8   6  -2    1.35    0.76
  -8  -6   2    0.59    0.87
   7   6  -2   28.60    1.62
  -7  -6   2   28.03    1.63
   6   6  -2   62.06    2.13
  -6  -6   2   63.73    2.05
   5   6  -2    1.01    0.55
  -5  -6   2    1.23    0.58
   4   6  -2   68.72    2.07
  -4  -6   2   70.04    1.87
   3   6  -2   86.35    1.97
   3   6  -2   89.96    2.30
  -3  -6   2   89.86    2.02
   2   6  -2    1.59    0.52
   2   6  -2    1.67    0.39
  -2  -6   2    1.93    0.36
  -2  -6   2    1.44    0.38
   1   6  -2   85.74    1.75
   1   6  -2   87.18    2.14
  -1  -6   2   82.63    1.76
   0   6  -2  145.21    2.49
   0   6  -2  143.25    3.03
   0  -6   2  141.77    2.68
  -1   6  -2   31.79    0.87
  -1   6  -2   29.80    1.27
   1  -6   2   32.43    1.13
  -2   6  -2  264.17    4.03
  -2   6  -2  265.61    4.74
   2  -6   2  263.30    4.56
  -3   6  -2   78.47    1.97
  -3   6  -2   77.82    1.56
   3  -6   2   78.96    2.00
  -4   6  -2   39.07    1.06
  -4   6  -2   38.77    1.38
   4  -6   2   40.37    1.46
  -5   6  -2  165.65    3.39
   5  -6   2  159.26    3.40
  -6   6  -2    2.84    0.63
   6  -6   2    4.03    0.77
   6  -6   2    2.81    0.65
  -7   6  -2   11.70    1.03
   7  -6   2   15.73    1.17
   7  -6   2   14.30    1.15
   8  -6   2   13.12    1.17
   9   5  -2   13.77    1.38
  -9  -5   2   16.36    1.55
   8   5  -2    7.94    1.03
  -8  -5   2   10.16    1.20
   7   5  -2   75.77    2.41
  -7  -5   2   79.10    2.35
   6   5  -2   10.03    0.96
  -6  -5   2   10.99    0.97
   5   5  -2   74.72    2.12
  -5  -5   2   75.40    1.98
   4   5  -2   97.55    2.14
   4   5  -2   97.70    2.39
  -4  -5   2  101.90    2.20
   3   5  -2   15.69    0.77
   3   5  -2   14.27    0.88
  -3  -5   2   13.98    0.78
  -3  -5   2   15.34    0.52
   2   5  -2  182.16    3.07
   2   5  -2  183.89    3.47
  -2  -5   2  179.78    3.09
  -2  -5   2  182.88    2.95
   1   5  -2  178.30    3.35
   1   5  -2  179.80    2.92
  -1  -5   2  177.58    3.00
   0   5  -2   10.86    0.74
   0   5  -2    7.48    0.45
   0  -5   2    8.72    0.60
  -1   5  -2  258.55    3.88
  -1   5  -2  254.86    4.46
   1  -5   2  257.24    4.27
  -2   5  -2  236.22    4.14
  -2   5  -2  239.91    3.64
   2  -5   2  236.15    4.09
  -3   5  -2   25.59    0.79
  -3   5  -2   24.27    0.97
   3  -5   2   23.46    1.07
  -4   5  -2  301.43    5.19
  -4   5  -2  307.80    4.69
   4  -5   2  299.19    5.18
   4  -5   2  301.02    5.18
  -5   5  -2   35.30    1.12
  -5   5  -2   33.73    1.26
   5  -5   2   33.38    1.36
   5  -5   2   35.17    1.28
  -6   5  -2   11.44    0.92
   6  -5   2   12.31    1.01
   6  -5   2   12.89    0.98
  -7   5  -2   49.92    1.74
   7  -5   2   48.99    1.75
   7  -5   2   50.01    1.79
   8  -5   2    0.76    0.61
   8  -5   2    1.96    0.64
   9   4  -2    2.92    0.82
  -9  -4   2    2.67    1.01
   8   4  -2   58.33    2.14
  -8  -4   2   60.82    2.16
   7   4  -2   61.38    2.02
  -7  -4   2   57.47    1.92
   6   4  -2   43.97    1.61
  -6  -4   2   45.10    1.57
   5   4  -2  227.60    4.33
  -5  -4   2  228.36    4.02
   4   4  -2   14.34    0.77
   4   4  -2   13.23    0.83
  -4  -4   2   14.99    0.81
   3   4  -2  171.52    3.27
   3   4  -2  173.51    2.97
  -3  -4   2  174.80    3.00
  -3  -4   2  177.93    2.66
   2   4  -2  322.61    4.87
   2   4  -2  317.37    5.33
  -2  -4   2  331.44    4.84
   1   4  -2   40.38    0.96
   1   4  -2   41.63    1.13
  -1  -4   2   42.46    1.00
   0   4  -2  177.65    2.78
   0   4  -2  174.63    3.16
   0  -4   2  180.82    2.99
  -1   4  -2   76.66    1.41
  -1   4  -2   75.57    1.63
   1  -4   2   77.21    1.65
  -2   4  -2    9.64    0.47
  -2   4  -2    9.49    0.57
   2  -4   2    9.03    0.66
  -3   4  -2   95.23    1.78
  -3   4  -2   90.09    1.92
   3  -4   2   95.26    1.93
   3  -4   2   94.34    2.05
  -4   4  -2  248.12    4.02
  -4   4  -2  246.95    4.33
   4  -4   2  250.60    4.33
   4  -4   2  253.35    4.37
  -5   4  -2    1.35    0.43
  -5   4  -2    1.60    0.42
   5  -4   2    1.19    0.51
   5  -4   2    1.56    0.43
  -6   4  -2  189.93    3.50
   6  -4   2  186.46    3.69
   6  -4   2  181.81    3.61
  -7   4  -2   32.58    1.38
   7  -4   2   31.84    1.39
   7  -4   2   33.10    1.41
   8  -4   2   19.98    1.30
  10   3  -2   -0.05    0.70
 -10  -3   2    0.52    0.92
   9   3  -2   67.39    2.37
  -9  -3   2   67.36    2.37
   8   3  -2   62.74    2.12
  -8  -3   2   59.03    2.06
   7   3  -2    0.70    0.49
  -7  -3   2    1.27    0.63
   6   3  -2  119.75    2.76
  -6  -3   2  121.31    2.60
   5   3  -2   87.86    2.12
  -5  -3   2   89.40    1.99
   4   3  -2   64.75    1.49
   4   3  -2   65.70    1.62
  -4  -3   2   64.43    1.51
   3   3  -2  557.13    7.93
   3   3  -2  543.45    8.60
  -3  -3   2  545.65    7.93
  -3  -3   2  563.16    7.83
   2   3  -2   15.20    0.62
   2   3  -2   13.76    0.54
  -2  -3   2   14.76    0.49
   1   3  -2   95.23    1.66
   1   3  -2   96.23    1.80
  -1  -3   2   96.49    1.69
   0   3  -2   58.54    1.27
   0   3  -2   60.63    1.15
   0  -3   2   61.33    1.27
  -1   3  -2   44.70    0.99
  -1   3  -2   44.76    0.95
   1  -3   2   44.51    1.11
  -2   3  -2  235.62    3.83
  -2   3  -2  238.59    3.64
   2  -3   2  240.25    3.90
   2  -3   2  237.05    3.83
  -3   3  -2  190.65    3.12
   3  -3   2  189.26    3.33
   3  -3   2  188.32    3.25
  -4   3  -2    8.50    0.64
   4  -3   2    8.47    0.59
   4  -3   2    9.66    0.73
  -5   3  -2   34.79    1.27
   5  -3   2   33.68    1.24
   5  -3   2   33.31    1.17
  -6   3  -2  141.03    2.98
   6  -3   2  144.01    2.97
   6  -3   2  151.22    3.08
  -7   3  -2    1.42    0.61
   7  -3   2    1.06    0.52
  -8   3  -2   69.11    2.22
   8  -3   2   64.58    2.12
   9  -3   2   14.94    1.35
  10   2  -2   54.45    2.23
 -10  -2   2   54.09    2.35
   9   2  -2   28.04    1.59
  -9  -2   2   30.16    1.73
   8   2  -2    5.29    0.78
  -8  -2   2    5.30    0.83
   7   2  -2   26.24    1.24
  -7  -2   2   27.46    1.28
   6   2  -2   76.57    2.01
  -6  -2   2   78.91    1.91
   5   2  -2    0.20    0.30
  -5  -2   2    0.34    0.33
   4   2  -2  123.11    2.44
   4   2  -2  124.74    2.24
   4   2  -2  125.17    1.90
  -4  -2   2  125.48    2.27
   3   2  -2  189.64    3.07
   3   2  -2  194.05    3.32
   3   2  -2  200.43    2.89
  -3  -2   2  198.57    2.90
  -3  -2   2  193.06    3.09
   2   2  -2   10.13    0.44
   2   2  -2   10.26    0.45
  -2  -2   2   10.22    0.38
   1   2  -2  633.27    9.32
   1   2  -2  629.05    8.67
  -1  -2   2  626.69    8.99
   0   2  -2   18.02    0.49
   0  -2   2   17.99    0.59
  -1   2  -2  107.05    1.80
  -1   2  -2  106.86    1.75
   1  -2   2  105.53    1.75
   1  -2   2  106.26    1.91
  -2   2  -2  151.24    2.53
   2  -2   2  151.26    2.61
   2  -2   2  148.48    2.50
  -3   2  -2   76.90    1.65
   3  -2   2   75.66    1.64
   3  -2   2   77.05    1.57
  -4   2  -2   51.38    1.41
   4  -2   2   50.35    1.30
   4  -2   2   49.96    1.34
  -5   2  -2   76.48    1.93
   5  -2   2   74.42    1.82
   5  -2   2   74.12    1.78
  -6   2  -2   19.87    1.19
   6  -2   2   17.76    0.94
   6  -2   2   20.61    1.04
  -7   2  -2   21.32    1.40
   7  -2   2   21.96    1.19
  -8   2  -2   62.76    2.24
   8  -2   2   65.08    2.12
  -9   2  -2    3.43    0.97
   9  -2   2    3.48    0.83
 -11  -1   2   14.23    1.48
  10   1  -2   58.17    2.28
 -10  -1   2   60.16    2.33
   9   1  -2    5.15    0.84
  -9  -1   2    3.75    0.90
   8   1  -2   62.70    2.00
  -8  -1   2   63.67    1.94
   7   1  -2   74.85    2.07
  -7  -1   2   79.24    1.97
   6   1  -2    2.94    0.49
  -6  -1   2    4.44    0.56
   5   1  -2   50.68    0.99
   5   1  -2   48.25    1.35
  -5  -1   2   50.34    1.26
   4   1  -2  495.70    7.05
   4   1  -2  487.44    7.69
   4   1  -2  495.88    7.05
  -4  -1   2  486.03    7.05
   3   1  -2    1.92    0.29
   3   1  -2    2.57    0.28
   3   1  -2    3.22    0.25
  -3  -1   2    2.15    0.29
   2   1  -2   73.11    1.34
   2   1  -2   72.96    1.24
   2   1  -2   72.61    1.26
   1   1  -2  446.81    6.45
   1   1  -2  436.77    6.32
   1   1  -2  444.01    6.09
  -1  -1   2  428.72    6.32
   0   1  -2    0.08    0.17
   0  -1   2    0.24    0.19
  -1   1  -2  975.49   13.55
   1  -1   2 1000.00   14.55
   1  -1   2  991.27   14.04
  -2   1  -2  142.99    2.50
   2  -1   2  147.66    2.44
   2  -1   2  144.51    2.45
  -3   1  -2  240.21    3.97
   3  -1   2  246.52    4.02
   3  -1   2  244.75    3.91
  -4   1  -2  101.69    2.19
   4  -1   2  100.13    2.09
   4  -1   2  102.32    2.01
  -5   1  -2   28.63    1.30
   5  -1   2   28.29    1.07
   5  -1   2   29.20    1.05
  -6   1  -2   18.98    1.25
   6  -1   2   18.66    1.01
  -7   1  -2   89.14    2.54
   7  -1   2   92.96    2.40
  -8   1  -2   24.12    1.70
   8  -1   2   21.42    1.35
  -9   1  -2   26.24    1.82
   9  -1   2   23.25    1.55
  11   0  -2   45.05    2.14
  10   0  -2   16.73    1.41
 -10   0   2   13.15    1.26
   9   0  -2   37.84    1.65
  -9   0   2   34.25    1.61
   8   0  -2  165.97    3.60
  -8   0   2  165.24    3.33
   7   0  -2   14.61    0.94
  -7   0   2   14.05    0.94
   6   0  -2  116.00    2.55
   6   0  -2  122.27    2.13
  -6   0   2  119.85    2.32
   5   0  -2   98.94    2.10
   5   0  -2   97.47    1.76
  -5   0   2   97.75    1.86
   4   0  -2   29.71    0.90
   4   0  -2   29.89    0.77
   4   0  -2   28.85    0.73
  -4   0   2   28.70    0.77
   3   0  -2    1.36    0.21
   3   0  -2    1.77    0.26
   3   0  -2    2.02    0.23
  -3   0   2    1.20    0.22
   2   0  -2  308.51    4.56
   2   0  -2  311.10    4.75
   2   0  -2  310.48    4.33
   1   0  -2    8.08    0.30
   1   0  -2    8.66    0.35
   1   0  -2    8.71    0.29
  -1   0   2    8.27    0.29
   0   0  -2  371.97    5.19
   0   0  -2  359.89    5.34
   0   0   2  360.56    5.34
   0   0   2  370.31    5.45
  -1   0  -2    5.11    0.42
   1   0   2    5.96    0.37
   1   0   2    6.50    0.34
  -2   0  -2   10.25    0.63
   2   0   2    9.30    0.47
   2   0   2   10.02    0.47
  -3   0  -2  425.82    6.39
   3   0   2  418.68    6.28
   3   0   2  418.21    6.63
  -4   0  -2  133.22    2.71
   4   0   2  141.15    2.70
   4   0   2  136.35    2.44
  -5   0  -2   20.72    1.18
   5   0   2   20.42    0.98
  -6   0  -2   88.56    2.45
   6   0   2   91.17    2.30
  -7   0  -2   18.39    1.38
   7   0   2   17.79    1.14
  -8   0  -2    5.18    1.05
   8   0   2    4.27    0.79
  -9   0  -2   38.97    2.18
   9   0   2   40.95    1.88
  11  -1  -2   19.07    1.59
  10  -1  -2    0.28    0.66
   9  -1  -2   57.94    2.02
  -9   1   2   57.59    1.89
   8  -1  -2   67.24    2.04
  -8   1   2   65.02    1.86
   7  -1  -2   28.81    0.96
   7  -1  -2   28.65    1.22
  -7   1   2   29.73    1.15
   6  -1  -2  142.63    2.54
   6  -1  -2  137.06    2.87
  -6   1   2  142.42    2.54
   5  -1  -2   68.55    1.65
   5  -1  -2   71.05    1.47
  -5   1   2   70.39    1.41
   4  -1  -2   91.54    1.87
   4  -1  -2   90.69    1.69
  -4   1   2   90.71    1.55
   3  -1  -2   84.63    1.55
   3  -1  -2   83.44    1.66
   3  -1  -2   85.89    1.34
  -3   1   2   84.56    1.35
   2  -1  -2   29.06    0.72
   2  -1  -2   29.30    0.75
   2  -1  -2   28.93    0.53
  -2   1   2   27.46    0.74
   1  -1  -2    8.00    0.37
   1  -1  -2    7.69    0.32
  -1   1   2    8.09    0.41
   0  -1  -2  143.12    2.27
   0  -1  -2  140.89    2.26
   0   1   2  139.70    2.43
  -1  -1  -2  112.89    1.89
  -1  -1  -2  111.97    2.02
   1   1   2  115.07    1.91
   1   1   2  113.37    2.06
  -2  -1  -2  329.79    5.10
   2   1   2  334.33    5.35
   2   1   2  336.20    4.98
  -3  -1  -2  285.81    4.67
   3   1   2  291.53    4.41
   3   1   2  287.11    4.82
  -4  -1  -2    4.20    0.62
   4   1   2    4.06    0.45
   4   1   2    3.57    0.51
  -5  -1  -2  112.82    2.66
   5   1   2  118.29    2.60
  -6  -1  -2   51.71    1.90
   6   1   2   50.27    1.71
  -7  -1  -2    7.57    1.10
   7   1   2    6.33    0.83
  -8  -1  -2   40.11    2.16
   8   1   2   39.23    1.77
  -9  -1  -2   19.86    1.78
   9   1   2   20.44    1.54
  11  -2  -2    0.34    0.72
  10  -2  -2   20.26    1.43
   9  -2  -2   45.42    1.80
   8  -2  -2    0.17    0.49
   7  -2  -2  125.52    2.80
   7  -2  -2  122.48    2.46
  -7   2   2  122.91    2.42
   6  -2  -2  133.53    2.82
   6  -2  -2  136.65    2.56
  -6   2   2  134.20    2.39
   5  -2  -2   36.22    1.14
   5  -2  -2   34.46    1.00
  -5   2   2   34.88    0.87
   4  -2  -2  407.48    6.26
   4  -2  -2  408.52    6.59
  -4   2   2  421.74    5.73
   3  -2  -2  316.82    4.85
   3  -2  -2  313.49    5.07
  -3   2   2  313.71    5.08
   2  -2  -2   26.67    0.75
  -2   2   2   26.06    0.81
   1  -2  -2  251.91    3.86
   1  -2  -2  250.79    3.60
  -1   2   2  248.28    4.13
   0  -2  -2   11.21    0.53
   0  -2  -2   11.81    0.46
   0   2   2   10.63    0.67
  -1  -2  -2   79.42    1.42
  -1  -2  -2   77.77    1.58
   1   2   2   77.45    1.69
  -2  -2  -2  268.45    4.32
  -2  -2  -2  262.58    4.08
   2   2   2  274.32    4.59
   2   2   2  274.34    4.10
  -3  -2  -2   43.06    1.33
   3   2   2   39.81    1.28
   3   2   2   41.54    0.95
  -4  -2  -2  151.93    3.07
   4   2   2  149.43    3.07
  -5  -2  -2  179.18    3.65
   5   2   2  178.65    3.66
  -6  -2  -2   12.27    1.20
   6   2   2   11.24    0.97
  -7  -2  -2   55.97    2.31
   7   2   2   62.23    2.14
  -8  -2  -2   33.33    2.12
   8   2   2   29.97    1.66
  11  -3  -2   19.33    1.57
  10  -3  -2   20.31    1.50
   9  -3  -2    5.19    0.86
   8  -3  -2   41.18    1.37
   8  -3  -2   41.17    1.62
   7  -3  -2  124.64    2.85
   7  -3  -2  121.51    2.55
   6  -3  -2    7.41    0.73
   6  -3  -2    9.30    0.72
  -6   3   2    7.21    0.53
   5  -3  -2  312.95    5.13
   5  -3  -2  318.74    5.44
  -5   3   2  326.70    4.56
  -5   3   2  314.57    5.44
   4  -3  -2  276.10    4.74
   4  -3  -2  280.50    4.53
  -4   3   2  280.01    4.76
   3  -3  -2    1.16    0.30
  -3   3   2    0.66    0.30
   2  -3  -2  210.83    3.42
  -2   3   2  208.13    3.66
   1  -3  -2   32.81    0.86
   1  -3  -2   32.32    0.75
  -1   3   2   31.27    1.07
   0  -3  -2   11.16    0.49
   0  -3  -2   11.52    0.56
   0   3   2   11.54    0.76
  -1  -3  -2  367.73    5.54
  -1  -3  -2  368.06    5.48
   1   3   2  365.30    6.10
  -2  -3  -2   18.85    0.59
  -2  -3  -2   19.42    0.92
   2   3   2   17.46    0.91
  -3  -3  -2   98.26    2.23
   3   3   2   93.86    2.26
  -4  -3  -2   98.74    2.40
   4   3   2   96.47    2.39
  -5  -3  -2   26.39    1.45
   5   3   2   26.58    1.32
  -6  -3  -2   39.62    1.83
   6   3   2   39.38    1.66
  -7  -3  -2  104.47    3.10
   7   3   2  100.46    2.91
  -8  -3  -2    2.04    1.12
   8   3   2    0.98    0.73
  11  -4  -2   31.63    1.89
 -11   4   2   34.49    1.87
  10  -4  -2   13.28    1.27
 -10   4   2   11.27    1.16
   9  -4  -2   16.40    1.33
   9  -4  -2   15.11    1.01
  -9   4   2   15.76    1.25
   8  -4  -2   56.00    1.70
   8  -4  -2   55.12    1.94
  -8   4   2   58.94    1.96
   7  -4  -2    6.83    0.69
   7  -4  -2    5.65    0.76
  -7   4   2    5.52    0.74
   6  -4  -2   81.64    2.14
   6  -4  -2   82.00    1.98
  -6   4   2   83.65    2.18
   5  -4  -2  191.59    3.50
   5  -4  -2  198.69    3.73
  -5   4   2  190.76    3.71
   4  -4  -2    5.49    0.51
  -4   4   2    5.64    0.57
   3  -4  -2  242.99    4.10
  -3   4   2  250.25    4.39
   2  -4  -2  300.29    4.76
   2  -4  -2  297.60    4.18
  -2   4   2  295.43    5.15
   1  -4  -2  126.42    2.30
   1  -4  -2  129.68    2.10
  -1   4   2  125.11    2.72
   0  -4  -2  246.62    3.91
   0  -4  -2  242.12    3.81
   0   4   2  245.38    4.51
  -1  -4  -2   11.84    0.53
  -1  -4  -2   11.58    0.71
   1   4   2   10.83    0.87
  -2  -4  -2    5.81    0.42
  -2  -4  -2    5.82    0.66
   2   4   2    7.90    0.79
  -3  -4  -2   48.69    1.62
   3   4   2   50.80    1.66
  -4  -4  -2   61.14    1.98
   4   4   2   64.10    2.01
  -5  -4  -2   17.23    1.30
   5   4   2   17.74    1.24
  -6  -4  -2   67.29    2.42
   6   4   2   63.24    2.23
  -7  -4  -2   13.02    1.42
   7   4   2   18.08    1.44
  -8  -4  -2   17.14    1.79
   8   4   2   15.43    1.46
  11  -5  -2   12.10    1.40
 -11   5   2   10.93    1.34
  10  -5  -2    7.62    1.11
 -10   5   2    8.67    1.16
   9  -5  -2   41.90    1.86
   9  -5  -2   42.34    1.64
  -9   5   2   39.93    1.85
   8  -5  -2    0.69    0.49
   8  -5  -2   -0.35    0.55
  -8   5   2   -0.47    0.52
   7  -5  -2   11.11    1.00
   7  -5  -2   10.72    0.90
  -7   5   2   10.55    0.98
   6  -5  -2   88.22    2.16
   6  -5  -2   91.03    2.37
  -6   5   2   87.16    2.33
   5  -5  -2   24.18    1.05
  -5   5   2   25.10    1.20
   4  -5  -2  115.80    2.45
  -4   5   2  122.83    2.70
   3  -5  -2  159.88    2.98
  -3   5   2  157.93    3.27
   2  -5  -2    2.97    0.43
   2  -5  -2    3.27    0.30
  -2   5   2    2.51    0.57
   1  -5  -2   27.65    0.91
   1  -5  -2   27.38    0.82
  -1   5   2   27.73    1.30
   0  -5  -2  171.36    2.93
   0  -5  -2  169.27    2.97
   0   5   2  171.06    3.59
  -1  -5  -2   -0.07    0.40
  -1  -5  -2    0.29    0.26
   1   5   2    0.30    0.53
  -2  -5  -2   87.32    2.09
   2   5   2   85.41    2.36
  -3  -5  -2   21.30    1.25
   3   5   2   22.32    1.32
  -4  -5  -2    0.95    0.69
   4   5   2    0.51    0.57
  -5  -5  -2   25.03    1.57
   5   5   2   29.80    1.61
  -6  -5  -2   26.12    1.85
   6   5   2   29.08    1.63
  -7  -5  -2    3.67    1.14
   7   5   2    1.25    0.76
  10  -6  -2   25.07    1.72
  10  -6  -2   26.22    1.49
 -10   6   2   28.01    1.77
   9  -6  -2   28.15    1.44
   9  -6  -2   28.94    1.73
  -9   6   2   28.43    1.72
   8  -6  -2    8.02    1.05
   8  -6  -2    6.15    0.81
  -8   6   2    5.97    0.93
   7  -6  -2   75.83    2.13
  -7   6   2   77.01    2.34
   6  -6  -2   12.33    0.94
  -6   6   2   11.07    1.01
   5  -6  -2    0.04    0.39
  -5   6   2   -0.03    0.54
   4  -6  -2   38.72    1.33
  -4   6   2   38.78    1.55
   3  -6  -2  154.99    3.02
  -3   6   2  153.81    3.41
   2  -6  -2   27.42    1.04
  -2   6   2   27.89    1.44
   1  -6  -2  134.68    2.38
   1  -6  -2  135.07    2.61
  -1   6   2  133.89    3.24
   0  -6  -2   23.94    0.97
   0  -6  -2   24.60    0.91
   0   6   2   23.94    1.41
  -1  -6  -2   61.07    1.66
  -1  -6  -2   58.66    1.48
   1   6   2   61.70    2.07
  -2  -6  -2  186.23    3.59
   2   6   2  185.55    4.10
  -3  -6  -2   13.37    1.10
   3   6   2    9.72    1.03
  -4  -6  -2   82.38    2.46
   4   6   2   83.03    2.60
  -5  -6  -2   35.69    1.90
   5   6   2   32.68    1.74
  -6  -6  -2   -0.09    0.90
   6   6   2    0.94    0.74
  10  -7  -2   45.37    1.97
 -10   7   2   42.52    2.25
   9  -7  -2   -0.41    0.57
  -9   7   2    0.09    0.73
   8  -7  -2   38.69    1.68
  -8   7   2   38.25    1.89
   7  -7  -2   48.19    1.77
  -7   7   2   47.12    2.00
   6  -7  -2    1.56    0.59
  -6   7   2    1.98    0.70
   5  -7  -2  115.75    2.67
  -5   7   2  106.86    2.88
   4  -7  -2   27.29    1.19
  -4   7   2   24.53    1.47
   3  -7  -2   12.23    0.90
  -3   7   2   13.30    1.20
   2  -7  -2   48.53    1.46
  -2   7   2   48.25    2.00
   1  -7  -2   84.53    1.98
  -1   7   2   85.69    2.67
   0  -7  -2   50.51    1.42
   0   7   2   53.75    2.07
  -1  -7  -2  228.45    4.13
   1   7   2  237.83    4.94
  -2  -7  -2   21.32    1.30
   2   7   2   18.72    1.47
  -3  -7  -2   31.48    1.59
   3   7   2   31.54    1.78
  -4  -7  -2   64.35    2.28
   4   7   2   67.72    2.45
  -5  -7  -2    1.32    0.93
   5   7   2    1.98    0.83
  -6  -7  -2   23.76    1.84
   6   7   2   30.00    1.89
   9  -8  -2    9.76    1.13
  -9   8   2   10.99    1.33
   8  -8  -2   52.66    2.02
  -8   8   2   53.71    2.30
   7  -8  -2    1.02    0.60
  -7   8   2   -0.24    0.73
   6  -8  -2   57.68    1.97
  -6   8   2   63.09    2.31
   5  -8  -2   40.29    1.60
  -5   8   2   43.62    1.96
   4  -8  -2    5.91    0.77
  -4   8   2    5.15    0.95
   3  -8  -2   92.17    2.33
  -3   8   2   97.74    2.94
   2  -8  -2   43.44    1.45
  -2   8   2   42.10    2.10
   1  -8  -2   26.76    1.13
  -1   8   2   24.81    1.68
   0   8   2   56.18    2.27
   1   8   2   28.40    1.76
  -2  -8  -2    1.85    0.77
   2   8   2    2.92    0.89
  -3  -8  -2   71.05    2.36
   3   8   2   67.24    2.56
  -4  -8  -2   13.11    1.32
   4   8   2   13.85    1.44
  -5  -8  -2   15.05    1.53
   5   8   2   11.51    1.41
  -9   9   2   12.10    1.57
   8  -9  -2   12.07    1.23
  -8   9   2   10.34    1.35
   7  -9  -2    9.16    1.05
  -7   9   2    8.77    1.29
   6  -9  -2   96.47    2.71
  -6   9   2   95.09    3.11
   5  -9  -2   15.28    1.17
  -5   9   2   16.52    1.57
   4  -9  -2   54.12    1.88
  -4   9   2   51.12    2.33
   3  -9  -2   28.54    1.34
  -3   9   2   26.22    1.88
   2  -9  -2   -0.29    0.42
  -2   9   2   -0.31    0.83
   1  -9  -2   31.19    1.37
  -1   9   2   34.33    2.07
   0   9   2   59.34    2.48
   1   9   2    4.39    1.06
   2   9   2   54.15    2.39
   3   9   2   29.94    1.97
   7 -10  -2   31.65    1.76
  -7  10   2   29.92    2.24
   6 -10  -2    9.21    1.09
  -6  10   2    9.00    1.33
   5 -10  -2    6.03    0.93
  -5  10   2    7.82    1.35
   4 -10  -2   43.86    1.76
  -4  10   2   43.10    2.37
   3 -10  -2   10.65    1.03
  -3  10   2   11.59    1.48
   2 -10  -2   31.06    1.41
  -2  10   2   29.71    2.09
  -1  10   2   46.89    2.39
   0  10   2    0.49    0.88
   1  10   2   28.93    2.06
   2  10   2   52.38    2.49
   6 -11  -2    1.66    0.83
  -6  11   2    1.65    1.15
   5 -11  -2   47.04    1.99
  -5  11   2   47.41    2.68
   4 -11  -2   16.84    1.32
  -4  11   2   18.13    1.91
   3 -11  -2   11.88    1.11
  -3  11   2    5.37    1.34
  -2  11   2   34.84    2.43
  -1  11   2   17.58    1.81
   0  11   2   16.66    1.70
   1  12  -3   24.78    1.81
   0  12  -3   40.63    2.13
   2 -12   3   20.02    1.49
   3 -12   3   23.65    1.58
   4  11  -3   38.67    2.08
  -4 -11   3   35.03    1.85
   3  11  -3   28.52    1.78
   2  11  -3    5.05    0.99
   1  11  -3   51.38    2.18
   0  11  -3    3.32    0.89
  -1  11  -3   15.32    1.43
   1 -11   3   13.51    1.14
   2 -11   3   67.85    2.23
   3 -11   3    3.48    0.82
   4 -11   3   31.72    1.81
   5 -11   3   28.18    1.78
   5  10  -3   39.75    2.04
  -5 -10   3   41.77    1.97
   4  10  -3   44.31    2.04
  -4 -10   3   38.98    1.73
   3  10  -3   -0.44    0.62
   3  10  -3    0.63    0.54
  -3 -10   3   -0.12    0.54
   2  10  -3   46.41    1.60
   2  10  -3   48.11    2.04
  -2 -10   3   45.00    1.62
   1  10  -3   74.27    2.48
   0  10  -3   32.71    1.72
   0 -10   3   35.86    1.46
  -1  10  -3  142.79    3.66
   1 -10   3  150.67    3.30
  -2  10  -3   -0.08    0.68
   2 -10   3    1.79    0.67
   3 -10   3   47.89    1.88
   4 -10   3   55.54    2.09
   5 -10   3   12.32    1.24
   6 -10   3   29.36    1.77
   6   9  -3   30.67    1.79
  -6  -9   3   32.06    1.77
   5   9  -3   51.61    2.19
  -5  -9   3   51.91    1.96
   4   9  -3    0.61    0.61
  -4  -9   3    0.03    0.58
   3   9  -3   63.68    2.22
   3   9  -3   62.65    1.87
  -3  -9   3   62.58    1.89
   2   9  -3   63.36    1.75
   2   9  -3   62.00    2.16
  -2  -9   3   62.59    1.76
   1   9  -3    2.68    0.52
   1   9  -3    2.18    0.68
  -1  -9   3    3.18    0.53
  -1  -9   3    3.82    0.60
   0   9  -3   39.69    1.25
   0   9  -3   39.58    1.74
   0  -9   3   41.89    1.50
  -1   9  -3   55.70    2.02
   1  -9   3   53.41    1.79
  -2   9  -3   17.14    1.35
   2  -9   3   17.29    1.24
   3  -9   3  118.24    2.96
   4  -9   3    8.46    1.02
   5  -9   3   16.27    1.33
   6  -9   3   22.46    1.54
   7  -9   3    5.10    1.00
   7   8  -3   14.36    1.41
  -7  -8   3   15.99    1.45
   6   8  -3  112.22    3.16
  -6  -8   3  110.31    2.96
   5   8  -3    3.98    0.80
  -5  -8   3    3.66    0.76
   4   8  -3   86.09    2.52
   4   8  -3   83.65    2.19
  -4  -8   3   85.47    2.24
   3   8  -3   73.79    2.23
   3   8  -3   72.75    1.93
  -3  -8   3   74.56    1.99
   2   8  -3   18.95    1.23
   2   8  -3   19.17    0.98
  -2  -8   3   18.33    0.99
   1   8  -3   27.49    1.02
   1   8  -3   25.91    1.33
  -1  -8   3   27.61    1.13
   0   8  -3   53.79    1.41
   0   8  -3   54.55    1.83
   0  -8   3   54.07    1.63
  -1   8  -3   -0.24    0.55
  -1   8  -3   -0.64    0.25
   1  -8   3   -0.29    0.49
  -2   8  -3   61.35    2.00
  -2   8  -3   61.35    1.59
   2  -8   3   60.18    1.86
  -3   8  -3   52.20    1.83
   3  -8   3   49.36    1.76
   4  -8   3    2.25    0.69
   5  -8   3   99.23    2.76
   6  -8   3   21.20    1.47
   7  -8   3    8.20    1.10
   8  -8   3   38.08    1.96
   8   7  -3    6.59    1.07
  -8  -7   3    6.26    1.10
   7   7  -3   51.51    2.11
  -7  -7   3   49.71    2.05
   6   7  -3   40.44    1.77
  -6  -7   3   44.89    1.78
   5   7  -3   30.87    1.48
  -5  -7   3   25.92    1.35
   4   7  -3  225.55    4.06
   4   7  -3  218.97    4.47
  -4  -7   3  223.32    4.10
   3   7  -3   15.51    0.91
   3   7  -3   15.59    1.08
  -3  -7   3   16.14    0.96
   2   7  -3   81.76    1.88
   2   7  -3   82.41    2.18
  -2  -7   3   81.01    1.80
   1   7  -3   16.52    1.03
   1   7  -3   16.97    0.77
  -1  -7   3   17.39    0.90
   0   7  -3   14.37    0.72
   0   7  -3   13.04    0.99
   0  -7   3   14.40    0.89
  -1   7  -3   47.32    1.63
  -1   7  -3   47.09    1.21
   1  -7   3   45.78    1.53
  -2   7  -3  146.58    3.17
  -2   7  -3  147.45    2.62
   2  -7   3  147.38    3.08
  -3   7  -3   -0.02    0.47
  -3   7  -3    0.68    0.32
   3  -7   3   -0.05    0.50
   4  -7   3   96.01    2.50
   5  -7   3   45.77    1.77
   6  -7   3    1.62    0.72
   7  -7   3   49.21    2.04
   8  -7   3   29.65    1.68
   9   6  -3   -0.08    0.69
  -9  -6   3   -0.33    0.90
   8   6  -3   25.62    1.59
  -8  -6   3   23.80    1.62
   7   6  -3   36.68    1.75
  -7  -6   3   38.36    1.70
   6   6  -3    6.16    0.80
  -6  -6   3    7.79    0.87
   5   6  -3   97.05    2.51
   5   6  -3   97.95    2.31
  -5  -6   3   95.72    2.34
   4   6  -3   59.18    1.64
   4   6  -3   57.81    1.79
  -4  -6   3   56.38    1.64
   3   6  -3    1.37    0.40
   3   6  -3    0.51    0.41
  -3  -6   3    0.34    0.39
   2   6  -3  281.40    4.96
   2   6  -3  277.35    4.48
  -2  -6   3  281.11    4.50
   1   6  -3   51.39    1.50
   1   6  -3   51.53    1.28
  -1  -6   3   51.41    1.38
   0   6  -3   95.12    2.21
   0   6  -3  100.17    1.93
   0  -6   3   99.21    2.14
  -1   6  -3   99.00    2.25
  -1   6  -3   95.62    1.86
   1  -6   3   94.75    2.17
  -2   6  -3   17.06    0.96
  -2   6  -3   16.52    0.70
   2  -6   3   17.32    1.01
  -3   6  -3    9.13    0.75
  -3   6  -3    9.24    0.62
   3  -6   3    7.34    0.77
  -4   6  -3  108.20    2.45
  -4   6  -3  108.33    2.19
   4  -6   3  111.00    2.65
  -5   6  -3    2.31    0.47
   5  -6   3    2.02    0.64
   6  -6   3   51.63    1.87
   7  -6   3   56.14    2.05
   8  -6   3    0.84    0.66
   9   5  -3   38.85    1.93
  -9  -5   3   38.65    1.97
   8   5  -3   23.39    1.46
  -8  -5   3   20.50    1.48
   7   5  -3    0.92    0.55
  -7  -5   3    2.07    0.69
   6   5  -3   45.90    1.70
  -6  -5   3   47.97    1.64
   5   5  -3  142.26    3.09
   5   5  -3  142.74    2.86
  -5  -5   3  141.73    2.89
   4   5  -3   21.19    1.02
   4   5  -3   20.94    0.93
  -4  -5   3   19.62    0.97
   3   5  -3  336.90    5.75
   3   5  -3  339.24    5.30
  -3  -5   3  343.35    5.15
   2   5  -3  123.31    2.43
   2   5  -3  117.90    2.22
  -2  -5   3  118.36    2.18
   1   5  -3   15.80    0.65
   1   5  -3   16.00    0.74
  -1  -5   3   16.06    0.72
   0   5  -3  151.34    2.86
   0   5  -3  149.41    2.57
   0  -5   3  154.85    2.80
  -1   5  -3   53.17    1.40
  -1   5  -3   55.65    1.24
   1  -5   3   53.13    1.45
  -2   5  -3   15.44    0.66
  -2   5  -3   15.41    0.76
   2  -5   3   14.83    0.91
  -3   5  -3   84.19    1.88
  -3   5  -3   83.21    1.77
   3  -5   3   82.87    2.07
  -4   5  -3   16.12    0.85
  -4   5  -3   16.52    0.83
   4  -5   3   17.62    1.09
   4  -5   3   14.93    0.85
  -5   5  -3   37.85    1.28
  -5   5  -3   35.78    1.30
   5  -5   3   35.10    1.30
   5  -5   3   37.11    1.49
  -6   5  -3   77.43    2.00
   6  -5   3   79.05    2.23
   7  -5   3    4.79    0.81
  10   4  -3    8.82    1.18
 -10  -4   3    9.46    1.30
   9   4  -3   49.97    2.06
  -9  -4   3   51.51    2.12
   8   4  -3    6.25    0.89
  -8  -4   3    5.49    0.87
   7   4  -3   54.16    1.86
  -7  -4   3   51.45    1.75
   6   4  -3  135.20    3.03
  -6  -4   3  133.91    2.83
   5   4  -3    2.56    0.48
   5   4  -3    2.56    0.52
  -5  -4   3    2.65    0.50
   4   4  -3   25.09    0.95
   4   4  -3   27.07    1.02
  -4  -4   3   25.46    0.67
  -4  -4   3   28.33    1.01
   3   4  -3  213.28    3.50
   3   4  -3  212.25    3.75
  -3  -4   3  214.11    3.34
   2   4  -3   67.39    1.50
   2   4  -3   69.50    1.45
  -2  -4   3   68.07    1.39
   1   4  -3  261.14    4.00
   1   4  -3  263.01    4.25
  -1  -4   3  256.98    4.14
   0   4  -3  193.37    3.27
   0   4  -3  193.35    3.08
   0  -4   3  193.02    3.29
  -1   4  -3  121.82    2.22
  -1   4  -3  120.57    2.13
   1  -4   3  121.94    2.37
  -2   4  -3  114.28    2.13
  -2   4  -3  113.73    2.11
   2  -4   3  114.94    2.34
  -3   4  -3  102.58    2.02
  -3   4  -3  100.65    2.02
   3  -4   3   99.41    1.99
   3  -4   3   99.25    2.23
  -4   4  -3    3.70    0.54
  -4   4  -3    3.13    0.45
   4  -4   3    3.51    0.64
   4  -4   3    3.75    0.48
  -5   4  -3   71.06    1.85
   5  -4   3   71.48    1.97
   5  -4   3   71.98    1.82
  -6   4  -3   30.92    1.34
   6  -4   3   31.19    1.36
   6  -4   3   31.70    1.29
  -7   4  -3   17.32    1.16
   7  -4   3   16.00    1.16
  10   3  -3   37.83    1.91
 -10  -3   3   37.60    2.03
   9   3  -3   30.34    1.59
  -9  -3   3   29.60    1.67
   8   3  -3   13.91    1.09
  -8  -3   3   12.52    1.11
   7   3  -3  132.65    3.08
  -7  -3   3  136.75    2.91
   6   3  -3    6.02    0.66
  -6  -3   3    6.79    0.69
   5   3  -3   51.40    1.48
   5   3  -3   52.85    1.39
  -5  -3   3   53.11    1.42
   4   3  -3  308.29    5.24
   4   3  -3  317.91    4.89
  -4  -3   3  317.53    4.65
  -4  -3   3  316.93    4.91
   3   3  -3   59.08    1.35
   3   3  -3   56.87    1.28
  -3  -3   3   60.31    1.15
   2   3  -3   50.83    1.12
   2   3  -3   51.39    1.12
  -2  -3   3   50.68    1.09
   1   3  -3  403.81    5.92
   1   3  -3  418.95    6.23
  -1  -3   3  409.79    6.15
   0   3  -3  112.83    1.97
   0   3  -3  113.02    1.93
   0  -3   3  115.38    2.11
  -1   3  -3  492.74    7.28
  -1   3  -3  478.49    6.97
   1  -3   3  483.28    7.34
  -2   3  -3  487.52    7.07
  -2   3  -3  483.68    7.35
   2  -3   3  486.21    7.42
   2  -3   3  476.96    7.34
  -3   3  -3   38.80    1.17
   3  -3   3   37.85    1.01
   3  -3   3   38.41    1.24
  -4   3  -3  107.42    2.36
   4  -3   3  117.76    2.48
   4  -3   3  116.03    2.29
  -5   3  -3   22.94    1.15
   5  -3   3   24.16    1.17
   5  -3   3   22.19    0.97
  -6   3  -3    4.66    0.76
   6  -3   3    3.49    0.59
   6  -3   3    4.10    0.68
  -7   3  -3   62.78    2.07
  -8   3  -3   17.06    1.37
  11   2  -3   15.98    1.52
 -11  -2   3   16.63    1.59
  10   2  -3   37.82    1.87
 -10  -2   3   44.18    2.03
   9   2  -3    0.11    0.54
  -9  -2   3   -0.15    0.67
   8   2  -3   90.20    2.47
  -8  -2   3   92.37    2.35
   7   2  -3   52.91    1.69
  -7  -2   3   52.46    1.61
   6   2  -3  152.07    3.11
  -6  -2   3  153.18    2.88
   5   2  -3  313.70    4.62
   5   2  -3  309.46    4.84
   5   2  -3  312.78    5.28
  -5  -2   3  308.71    4.87
   4   2  -3   24.33    0.79
   4   2  -3   23.25    0.83
   4   2  -3   24.59    0.63
  -4  -2   3   25.79    0.83
   3   2  -3    6.57    0.42
   3   2  -3    5.50    0.40
   3   2  -3    6.33    0.36
  -3  -2   3    5.95    0.36
   2   2  -3  152.82    2.49
   2   2  -3  157.09    2.53
   2   2  -3  155.39    2.56
  -2  -2   3  159.61    2.55
   1   2  -3  308.37    4.59
   1   2  -3  303.96    4.49
  -1  -2   3  310.95    4.69
   0   2  -3  408.54    5.91
   0  -2   3  412.90    6.17
  -1   2  -3  270.78    4.15
   1  -2   3  273.42    4.10
   1  -2   3  269.46    4.31
  -2   2  -3    4.37    0.48
   2  -2   3    4.79    0.48
   2  -2   3    4.18    0.32
  -3   2  -3  141.09    2.70
   3  -2   3  143.67    2.71
   3  -2   3  144.26    2.56
  -4   2  -3   91.75    2.16
   4  -2   3   90.54    1.95
   4  -2   3   91.74    2.06
  -5   2  -3   14.96    1.08
   5  -2   3   13.79    0.82
   5  -2   3   12.13    0.91
  -6   2  -3  111.89    2.73
   6  -2   3  106.80    2.53
  -7   2  -3   19.98    1.41
   7  -2   3   18.53    1.16
  -8   2  -3    1.01    0.81
  -9   2  -3   20.75    1.70
  11   1  -3   31.46    1.90
 -11  -1   3   25.94    1.92
  10   1  -3    2.03    0.75
 -10  -1   3    2.91    0.90
   9   1  -3   26.01    1.40
  -9  -1   3   25.21    1.38
   8   1  -3   63.25    1.97
  -8  -1   3   64.63    1.86
   7   1  -3    0.59    0.41
  -7  -1   3    0.98    0.47
   6   1  -3  152.89    2.57
  -6  -1   3  153.55    2.80
   5   1  -3  328.32    4.97
   5   1  -3  325.02    5.00
   5   1  -3  337.70    5.53
  -5  -1   3  332.95    5.03
   4   1  -3   80.30    1.53
   4   1  -3   77.82    1.67
   4   1  -3   81.62    1.48
   3   1  -3  393.36    6.03
   3   1  -3  384.12    5.57
   3   1  -3  389.59    5.75
   2   1  -3   21.06    0.54
   2   1  -3   20.35    0.58
   2   1  -3   20.07    0.61
   1   1  -3    7.70    0.39
   1   1  -3    7.29    0.43
  -1  -1   3    7.36    0.44
   0   1  -3    2.15    0.31
   0   1  -3    2.87    0.35
   0  -1   3    1.02    0.28
  -1   1  -3  180.59    3.00
   1  -1   3  183.10    2.84
   1  -1   3  181.48    3.02
  -2   1  -3   51.68    1.34
   2  -1   3   50.80    1.09
   2  -1   3   51.05    1.23
  -3   1  -3  233.67    4.04
   3  -1   3  241.65    3.99
   3  -1   3  238.55    3.96
  -4   1  -3    7.69    0.79
   4  -1   3    8.06    0.68
   4  -1   3    9.63    0.65
  -5   1  -3   45.02    1.66
   5  -1   3   43.60    1.38
   5  -1   3   43.22    1.37
  -6   1  -3  107.28    2.74
   6  -1   3  107.73    2.55
  -7   1  -3    3.57    0.88
   7  -1   3    4.81    0.73
  -8   1  -3   19.66    1.57
  -9   1  -3   20.44    1.70
  11   0  -3    4.86    0.98
  10   0  -3    5.30    0.92
 -10   0   3    6.77    0.96
   9   0  -3   36.82    1.61
  -9   0   3   37.76    1.57
   8   0  -3   35.63    1.45
  -8   0   3   37.93    1.38
   7   0  -3   68.05    1.89
  -7   0   3   69.48    1.70
   6   0  -3  220.64    3.58
   6   0  -3  220.95    4.04
  -6   0   3  215.93    3.59
   5   0  -3    1.42    0.26
   5   0  -3    0.81    0.30
   5   0  -3    1.12    0.27
  -5   0   3    0.88    0.28
   4   0  -3  357.39    5.14
   4   0  -3  358.06    5.37
   4   0  -3  352.48    5.70
   3   0  -3  194.25    2.85
   3   0  -3  187.55    3.03
   3   0  -3  186.67    3.15
   2   0  -3  100.80    1.65
   2   0  -3  102.82    1.77
   2   0  -3  101.19    1.81
  -2   0   3  102.87    1.77
   1   0  -3  571.02    7.95
   1   0  -3  567.35    8.32
  -1   0   3  577.92    8.48
   0   0  -3   16.71    0.65
   0   0  -3   17.37    0.62
   0   0   3   19.36    0.55
   0   0   3   19.61    0.64
  -1   0  -3   14.40    0.68
  -1   0  -3   16.15    0.61
   1   0   3   16.13    0.62
   1   0   3   15.92    0.53
  -2   0  -3   92.68    1.97
   2   0   3   93.42    1.79
   2   0   3   92.18    1.80
  -3   0  -3  142.58    2.83
   3   0   3  145.96    2.70
   3   0   3  144.16    2.60
  -4   0  -3    6.78    0.77
   4   0   3    8.41    0.68
   4   0   3    9.08    0.66
  -5   0  -3  149.38    3.27
   5   0   3  152.46    3.12
  -6   0  -3   16.61    1.30
   6   0   3   17.47    1.07
  -7   0  -3   22.58    1.63
   7   0   3   20.32    1.28
  -8   0  -3   64.92    2.52
   8   0   3   66.99    2.27
  11  -1  -3   11.43    1.26
  10  -1  -3   50.80    2.03
   9  -1  -3    0.56    0.56
   8  -1  -3   32.46    1.40
  -8   1   3   31.93    1.27
   7  -1  -3   29.00    1.23
   7  -1  -3   30.43    1.02
  -7   1   3   31.23    1.08
   6  -1  -3   63.26    1.47
   6  -1  -3   63.63    1.71
  -6   1   3   64.28    1.41
   5  -1  -3   91.38    1.98
   5  -1  -3   88.44    1.78
   5  -1  -3   89.19    1.60
  -5   1   3   91.06    1.62
   4  -1  -3  464.72    7.43
   4  -1  -3  478.90    6.61
   4  -1  -3  469.63    7.08
  -4   1   3  482.77    6.62
   3  -1  -3   13.31    0.57
   3  -1  -3   13.80    0.56
   3  -1  -3   13.30    0.39
  -3   1   3   12.01    0.56
   2  -1  -3  178.97    2.63
   2  -1  -3  174.14    2.90
  -2   1   3  180.51    2.98
   1  -1  -3  276.74    4.26
   1  -1  -3  274.82    4.04
  -1   1   3  275.14    4.40
   0  -1  -3    2.65    0.30
   0  -1  -3    2.60    0.35
   0   1   3    2.16    0.34
  -1  -1  -3  155.07    2.59
  -1  -1  -3  152.88    2.71
   1   1   3  154.88    2.71
   1   1   3  150.59    2.58
  -2  -1  -3   99.82    2.10
   2   1   3   97.43    1.86
   2   1   3   97.88    2.00
  -3  -1  -3    4.49    0.65
   3   1   3    4.78    0.47
   3   1   3    4.40    0.49
  -4  -1  -3   93.25    2.36
   4   1   3   96.76    2.22
  -5  -1  -3   52.87    1.89
   5   1   3   50.45    1.63
  -6  -1  -3   26.44    1.68
   6   1   3   24.34    1.28
  -7  -1  -3   78.21    2.69
   7   1   3   77.45    2.39
  -8  -1  -3   27.90    1.99
   8   1   3   23.18    1.55
  11  -2  -3   41.49    2.05
  10  -2  -3   16.19    1.34
   9  -2  -3   11.89    1.08
   8  -2  -3  124.60    2.92
   8  -2  -3  119.21    2.52
   7  -2  -3   10.24    0.70
   7  -2  -3    8.76    0.79
  -7   2   3    9.75    0.70
   6  -2  -3   17.22    0.93
   6  -2  -3   17.75    0.81
  -6   2   3   17.53    0.69
   5  -2  -3   28.53    0.94
   5  -2  -3   29.72    1.05
  -5   2   3   29.42    0.72
   4  -2  -3  239.52    3.34
   4  -2  -3  235.57    4.06
   4  -2  -3  231.48    3.87
  -4   2   3  240.47    3.35
  -4   2   3  229.10    4.05
   3  -2  -3    8.84    0.56
   3  -2  -3    9.16    0.28
   3  -2  -3    8.58    0.50
  -3   2   3    6.94    0.54
   2  -2  -3  808.38   10.93
   2  -2  -3  800.86   11.64
  -2   2   3  803.68   12.16
   1  -2  -3    4.52    0.37
   1  -2  -3    4.76    0.38
  -1   2   3    4.14    0.47
   0  -2  -3  287.81    4.42
   0  -2  -3  282.97    4.35
   0   2   3  279.16    4.73
  -1  -2  -3  233.70    3.83
  -1  -2  -3  230.93    3.70
   1   2   3  230.56    4.02
  -2  -2  -3    1.38    0.30
  -2  -2  -3    2.23    0.50
   2   2   3    0.95    0.36
   2   2   3    1.08    0.29
  -3  -2  -3   95.05    2.26
   3   2   3   93.00    2.19
  -4  -2  -3   90.98    2.37
   4   2   3   89.37    2.23
  -5  -2  -3    2.70    0.82
   5   2   3    2.42    0.56
  -6  -2  -3   93.71    2.79
   6   2   3   94.17    2.58
  -7  -2  -3   44.11    2.25
   7   2   3   44.76    1.86
  -8  -2  -3    3.95    1.24
   8   2   3    4.40    0.94
  11  -3  -3   43.15    2.05
  10  -3  -3   -0.39    0.59
   9  -3  -3   83.69    2.48
   8  -3  -3   26.08    1.12
   8  -3  -3   26.05    1.32
   7  -3  -3    3.03    0.51
   7  -3  -3    3.26    0.62
  -7   3   3    3.27    0.60
   6  -3  -3  133.35    2.64
   6  -3  -3  132.91    2.85
  -6   3   3  132.71    2.87
   5  -3  -3  126.24    2.51
   5  -3  -3  131.62    2.70
  -5   3   3  127.93    2.69
   4  -3  -3   14.83    0.79
   4  -3  -3   15.08    0.71
  -4   3   3   15.87    0.81
   3  -3  -3  115.81    2.21
  -3   3   3  112.35    2.34
   2  -3  -3   66.84    1.47
   2  -3  -3   68.35    1.20
  -2   3   3   65.54    1.64
   1  -3  -3   87.90    1.75
   1  -3  -3   89.38    1.65
  -1   3   3   89.20    2.07
   0  -3  -3  426.30    6.42
   0  -3  -3  420.19    6.29
   0   3   3  428.32    7.00
  -1  -3  -3   22.20    0.74
  -1  -3  -3   22.73    0.96
   1   3   3   23.00    1.02
  -2  -3  -3   95.80    1.84
  -2  -3  -3   97.52    2.20
   2   3   3   94.69    2.24
   2   3   3   97.76    1.86
  -3  -3  -3   72.71    2.01
   3   3   3   72.57    1.97
  -4  -3  -3    2.25    0.75
   4   3   3    2.65    0.58
  -5  -3  -3   58.41    2.13
   5   3   3   60.38    1.95
  -6  -3  -3   37.83    2.01
   6   3   3   35.61    1.68
  -7  -3  -3    1.14    1.06
   7   3   3    0.94    0.68
  11  -4  -3    3.61    0.99
 -11   4   3    4.40    0.95
  10  -4  -3    6.89    1.05
 -10   4   3    5.19    0.96
   9  -4  -3   61.67    1.87
   9  -4  -3   63.27    2.17
  -9   4   3   58.57    2.17
   8  -4  -3    0.93    0.60
   8  -4  -3    1.81    0.50
  -8   4   3    1.22    0.61
   7  -4  -3  191.95    3.97
   7  -4  -3  190.78    3.68
  -7   4   3  192.55    3.98
   6  -4  -3  127.04    2.82
   6  -4  -3  124.49    2.64
  -6   4   3  124.07    2.83
   5  -4  -3   22.77    0.97
  -5   4   3   23.57    1.10
   4  -4  -3   84.80    1.91
  -4   4   3   83.71    2.06
   3  -4  -3  170.60    3.10
  -3   4   3  173.87    3.37
   2  -4  -3    0.20    0.27
   2  -4  -3    0.56    0.21
  -2   4   3    0.12    0.42
   1  -4  -3  167.21    2.76
   1  -4  -3  169.28    2.95
  -1   4   3  162.36    3.38
   0  -4  -3  132.58    2.45
   0  -4  -3  132.08    2.41
   0   4   3  130.99    2.91
  -1  -4  -3   20.83    0.77
  -1  -4  -3   23.13    1.05
   1   4   3   21.64    1.15
  -2  -4  -3  125.86    2.70
   2   4   3  124.28    2.84
  -3  -4  -3    6.34    0.82
   3   4   3    8.34    0.88
  -4  -4  -3   50.68    1.95
   4   4   3   51.70    1.86
  -5  -4  -3   56.17    2.17
   5   4   3   54.73    2.02
  -6  -4  -3    8.49    1.22
   6   4   3    9.20    1.10
  -7  -4  -3   25.37    1.95
   7   4   3   22.65    1.61
  11  -5  -3    2.48    0.94
 -11   5   3    2.65    0.94
  10  -5  -3   32.65    1.82
  10  -5  -3   34.06    1.55
 -10   5   3   35.27    1.87
   9  -5  -3    5.45    0.78
   9  -5  -3    5.36    0.91
  -9   5   3    3.91    0.81
   8  -5  -3   53.04    1.76
   8  -5  -3   53.55    1.95
  -8   5   3   52.90    1.97
   7  -5  -3  144.11    3.34
   7  -5  -3  139.32    3.07
  -7   5   3  145.60    3.34
   6  -5  -3   11.47    0.87
  -6   5   3   12.07    1.02
   5  -5  -3  150.17    3.03
  -5   5   3  148.75    3.25
   4  -5  -3  124.78    2.61
  -4   5   3  129.64    2.89
   3  -5  -3    8.20    0.69
  -3   5   3    9.02    0.85
   2  -5  -3   39.09    1.20
  -2   5   3   41.30    1.60
   1  -5  -3   91.78    1.96
   1  -5  -3   88.55    1.80
  -1   5   3   90.15    2.45
   0  -5  -3    3.06    0.52
   0  -5  -3    4.16    0.48
   0   5   3    4.33    0.78
  -1  -5  -3  179.28    3.17
  -1  -5  -3  185.54    3.41
   1   5   3  182.90    3.86
  -2  -5  -3   36.94    1.47
   2   5   3   36.62    1.57
  -3  -5  -3   29.91    1.55
   3   5   3   33.58    1.52
  -4  -5  -3  105.94    2.86
   4   5   3  112.73    2.96
  -5  -5  -3   12.04    1.27
   5   5   3   13.81    1.25
  -6  -5  -3   15.07    1.54
   6   5   3   16.51    1.42
  10  -6  -3    7.65    0.93
  10  -6  -3    8.05    1.19
 -10   6   3    5.94    1.07
   9  -6  -3    5.60    0.82
   9  -6  -3    6.01    1.04
  -9   6   3    6.49    1.02
   8  -6  -3   39.55    1.63
  -8   6   3   43.10    1.87
   7  -6  -3   17.38    1.15
  -7   6   3   16.42    1.29
   6  -6  -3   56.66    1.79
  -6   6   3   58.82    2.01
   5  -6  -3   75.27    2.00
  -5   6   3   74.63    2.24
   4  -6  -3    9.13    0.75
  -4   6   3    7.73    0.90
   3  -6  -3   73.80    1.90
  -3   6   3   83.09    2.37
   2  -6  -3  116.11    2.42
  -2   6   3  111.48    2.96
   1  -6  -3    0.54    0.37
  -1   6   3   -0.36    0.64
   0  -6  -3   32.77    1.10
   0  -6  -3   32.46    1.23
   0   6   3   30.64    1.60
  -1  -6  -3   46.57    1.58
   1   6   3   47.22    1.89
  -2  -6  -3    8.71    0.92
   2   6   3    6.81    0.93
  -3  -6  -3   70.04    2.21
   3   6   3   68.55    2.31
  -4  -6  -3   29.50    1.77
   4   6   3   28.45    1.67
  -5  -6  -3    6.38    1.19
   5   6   3    6.15    1.01
  -6  -6  -3   32.83    2.16
   6   6   3   38.92    2.00
  10  -7  -3    1.21    0.67
 -10   7   3    0.66    0.88
   9  -7  -3   14.06    1.21
  -9   7   3   16.61    1.51
   8  -7  -3    9.67    1.07
  -8   7   3    8.47    1.11
   7  -7  -3    0.11    0.53
  -7   7   3    0.05    0.70
   6  -7  -3   72.62    2.14
  -6   7   3   72.74    2.40
   5  -7  -3   79.43    2.16
  -5   7   3   80.43    2.52
   4  -7  -3   60.12    1.80
  -4   7   3   63.33    2.21
   3  -7  -3  158.02    3.23
  -3   7   3  163.37    3.86
   2  -7  -3   10.49    0.81
  -2   7   3   10.35    1.19
   1  -7  -3   17.53    0.93
  -1   7   3   19.50    1.52
   0   7   3   94.97    2.84
  -1  -7  -3   11.65    0.98
   1   7   3   11.77    1.25
  -2  -7  -3   10.15    1.06
   2   7   3   11.67    1.22
  -3  -7  -3   36.90    1.82
   3   7   3   39.92    1.97
  -4  -7  -3    0.86    0.84
   4   7   3    0.03    0.71
  -5  -7  -3   46.03    2.34
   5   7   3   41.09    2.16
   9  -8  -3   20.99    1.50
  -9   8   3   17.25    1.60
   8  -8  -3    0.27    0.59
  -8   8   3   -0.11    0.81
   7  -8  -3   54.32    2.00
  -7   8   3   55.96    2.36
   6  -8  -3   29.35    1.45
  -6   8   3   29.36    1.89
   5  -8  -3    0.62    0.52
  -5   8   3   -0.06    0.76
   4  -8  -3   77.51    2.16
  -4   8   3   78.52    2.68
   3  -8  -3   67.41    1.94
  -3   8   3   67.90    2.55
   2  -8  -3   29.41    1.24
  -2   8   3   30.59    1.89
   1  -8  -3  110.95    2.53
  -1   8   3  113.77    3.30
   0   8   3   16.24    1.46
   1   8   3   10.59    1.24
   2   8   3   50.47    2.29
  -3  -8  -3    2.61    0.92
   3   8   3    3.57    0.96
  -4  -8  -3   27.16    1.94
   4   8   3   26.55    1.91
   8  -9  -3   13.13    1.26
  -8   9   3   12.00    1.48
   7  -9  -3   21.70    1.43
  -7   9   3   26.54    2.02
   6  -9  -3    0.27    0.57
  -6   9   3    0.48    0.86
   5  -9  -3   23.28    1.36
  -5   9   3   23.67    1.83
   4  -9  -3   20.55    1.28
  -4   9   3   15.58    1.55
   3  -9  -3   -0.05    0.48
  -3   9   3    0.18    0.93
   2  -9  -3   70.43    2.03
  -2   9   3   65.99    2.73
  -1   9   3   94.61    3.22
   0   9   3   10.27    1.36
   1   9   3   57.09    2.46
   2   9   3   23.56    1.81
   3   9   3    4.09    1.09
   7 -10  -3    0.16    0.65
  -7  10   3    0.19    0.99
   6 -10  -3   13.81    1.29
  -6  10   3   10.22    1.45
   5 -10  -3   28.94    1.55
  -5  10   3   26.98    2.14
   4 -10  -3    2.76    0.70
  -4  10   3    3.20    1.10
   3 -10  -3   41.97    1.71
  -3  10   3   45.33    2.55
  -2  10   3   50.47    2.60
  -1  10   3    0.85    1.00
   0  10   3   45.04    2.40
   1  10   3   38.78    2.38
   5 -11  -3    4.49    0.92
  -5  11   3    2.96    1.30
   4 -11  -3   14.21    1.27
  -4  11   3   12.12    1.72
  -3  11   3   26.44    2.21
  -2  11   3    5.36    1.35
   1 -12   4   27.65    1.63
   2 -12   4   23.14    1.62
   3 -12   4    1.51    0.84
   4  11  -4   12.03    1.29
  -4 -11   4   10.92    1.14
   3  11  -4   28.04    1.69
   3  11  -4   26.72    1.47
  -3 -11   4   22.46    1.43
   2  11  -4   52.60    2.14
   1 -11   4   37.43    1.70
   2 -11   4    1.94    0.76
   3 -11   4   24.13    1.56
   4 -11   4   29.87    1.79
   5 -11   4    1.05    0.85
   5  10  -4   16.71    1.45
  -5 -10   4   18.38    1.39
   4  10  -4    8.85    0.97
   4  10  -4    7.55    1.02
  -4 -10   4    8.98    1.01
   3  10  -4   44.49    1.91
   3  10  -4   44.64    1.66
  -3 -10   4   46.38    1.74
   2  10  -4   41.17    1.75
   2  10  -4   34.48    1.40
  -2 -10   4   36.55    1.43
   1  10  -4   30.89    1.29
   1  10  -4   33.32    1.60
   0 -10   4  114.74    2.80
   1 -10   4   17.08    1.25
   2 -10   4   21.09    1.47
   3 -10   4   44.73    2.00
   4 -10   4    7.12    1.07
   5 -10   4   22.57    1.64
   6 -10   4   26.55    1.80
   7   9  -4   45.50    2.20
  -7  -9   4   47.89    2.18
   6   9  -4   43.44    2.00
  -6  -9   4   43.74    1.99
   5   9  -4   -0.11    0.57
   5   9  -4   -0.24    0.57
  -5  -9   4    0.44    0.67
   4   9  -4   83.23    2.26
   4   9  -4   81.21    2.50
  -4  -9   4   79.39    2.27
   3   9  -4   58.15    1.76
   3   9  -4   55.54    1.98
  -3  -9   4   58.72    1.82
   2   9  -4   29.27    1.42
   2   9  -4   29.89    1.25
   1   9  -4  104.93    2.33
   1   9  -4  105.76    2.71
  -1  -9   4  105.69    2.46
   0   9  -4   35.17    1.23
   0   9  -4   36.50    1.57
   0  -9   4   35.17    1.44
  -1   9  -4   26.00    1.06
   1  -9   4   24.38    1.32
   2  -9   4   90.18    2.50
   3  -9   4    5.60    0.93
   4  -9   4   17.57    1.44
   5  -9   4   39.71    1.92
   6  -9   4    3.70    0.95
   8   8  -4   17.22    1.55
  -8  -8   4   17.52    1.58
   7   8  -4   60.27    2.32
  -7  -8   4   59.66    2.31
   6   8  -4    5.12    0.86
  -6  -8   4    2.95    0.80
   5   8  -4   87.49    2.35
   5   8  -4   86.23    2.54
  -5  -8   4   85.46    2.38
   4   8  -4   29.76    1.33
   4   8  -4   30.35    1.41
  -4  -8   4   28.91    1.35
   3   8  -4    1.36    0.51
   3   8  -4    0.89    0.46
  -3  -8   4    0.39    0.44
   2   8  -4   55.76    1.57
   2   8  -4   55.36    1.74
  -2  -8   4   53.92    1.56
   1   8  -4   85.00    2.23
   1   8  -4   84.45    1.95
  -1  -8   4   82.42    2.08
   0   8  -4   28.91    1.28
   0   8  -4   26.50    1.01
   0  -8   4   27.45    1.26
  -1   8  -4  180.40    3.20
   1  -8   4  173.82    3.59
  -2   8  -4   16.49    0.82
   2  -8   4   15.67    1.19
   3  -8   4   12.29    1.08
   4  -8   4   52.07    1.95
   5  -8   4    7.49    1.07
   6  -8   4    6.59    1.07
   7  -8   4   33.79    1.95
   8   7  -4   44.50    2.05
  -8  -7   4   45.26    2.05
   7   7  -4    3.54    0.76
  -7  -7   4    2.12    0.78
   6   7  -4   19.89    1.24
   6   7  -4   20.30    1.30
  -6  -7   4   18.39    1.27
   5   7  -4   75.34    2.20
   5   7  -4   75.75    2.05
  -5  -7   4   73.76    2.09
   4   7  -4   35.00    1.41
   4   7  -4   38.28    1.38
  -4  -7   4   39.04    1.41
   3   7  -4   92.30    2.29
   3   7  -4   96.26    2.16
   2   7  -4   82.38    1.89
   2   7  -4   82.25    2.06
  -2  -7   4   83.13    1.92
   1   7  -4    0.30    0.39
   1   7  -4   -0.04    0.29
  -1  -7   4   -0.41    0.45
   0   7  -4   75.25    1.71
   0   7  -4   71.80    1.89
   0  -7   4   75.07    1.97
  -1   7  -4  207.93    4.03
  -1   7  -4  211.43    3.59
   1  -7   4  216.80    4.04
  -2   7  -4    1.71    0.40
   2  -7   4    1.28    0.63
  -3   7  -4  127.75    2.50
   3  -7   4  126.95    2.97
  -4   7  -4   22.62    0.99
   4  -7   4   20.37    1.32
   5  -7   4   10.40    1.08
   6  -7   4   31.69    1.71
   7  -7   4   10.44    1.21
   9   6  -4   31.13    1.84
  -9  -6   4   33.09    1.91
   8   6  -4   16.08    1.35
  -8  -6   4   14.74    1.31
   7   6  -4   11.98    1.09
  -7  -6   4   12.17    1.10
   6   6  -4  179.98    3.92
   6   6  -4  184.95    3.66
  -6  -6   4  185.85    3.70
   5   6  -4   18.30    1.09
   5   6  -4   19.99    1.05
  -5  -6   4   18.53    1.07
   4   6  -4   45.22    1.40
   4   6  -4   42.36    1.47
  -4  -6   4   45.08    1.44
   3   6  -4  103.14    2.19
   3   6  -4  105.30    2.34
  -3  -6   4  104.33    2.08
   2   6  -4   23.29    0.94
   2   6  -4   23.53    0.96
  -2  -6   4   23.21    0.96
   1   6  -4   36.73    1.16
   1   6  -4   35.00    1.08
  -1  -6   4   36.65    1.21
   0   6  -4  149.44    2.90
   0   6  -4  149.45    2.71
   0  -6   4  152.18    2.97
  -1   6  -4    9.91    0.78
  -1   6  -4   10.27    0.66
   1  -6   4   11.33    0.90
  -2   6  -4   33.56    1.07
   2  -6   4   31.16    1.35
  -3   6  -4  119.89    2.41
   3  -6   4  122.59    2.82
  -4   6  -4    8.65    0.74
   4  -6   4    8.52    0.98
  -5   6  -4  113.00    2.51
   5  -6   4  114.65    2.89
   6  -6   4   23.63    1.52
   7  -6   4    1.89    0.79
  10   5  -4   30.01    1.88
 -10  -5   4   22.84    1.73
   9   5  -4   41.33    1.91
  -9  -5   4   39.99    1.98
   8   5  -4    4.93    0.85
  -8  -5   4    2.29    0.77
   7   5  -4  100.65    2.67
  -7  -5   4  102.14    2.57
   6   5  -4   70.26    1.92
   6   5  -4   68.16    2.01
  -6  -5   4   68.59    1.96
   5   5  -4    3.47    0.53
   5   5  -4    4.62    0.59
  -5  -5   4    4.85    0.63
   4   5  -4  218.60    4.04
   4   5  -4  220.36    3.81
  -4  -5   4  223.76    3.67
   3   5  -4   37.01    1.16
   3   5  -4   37.32    1.13
  -3  -5   4   37.49    1.06
   2   5  -4   85.28    1.81
   2   5  -4   82.05    1.77
  -2  -5   4   86.48    1.81
   1   5  -4   80.85    1.69
   1   5  -4   81.90    1.70
  -1  -5   4   79.54    1.80
   0   5  -4   37.93    1.04
   0   5  -4   38.14    1.05
   0  -5   4   35.56    1.20
  -1   5  -4   13.11    0.68
  -1   5  -4   14.41    0.73
   1  -5   4   13.45    0.89
  -2   5  -4  114.42    2.22
   2  -5   4  109.79    2.48
  -3   5  -4   21.44    0.95
   3  -5   4   21.27    1.22
  -4   5  -4   64.46    1.73
   4  -5   4   66.41    2.00
  -5   5  -4  123.28    2.69
   5  -5   4  125.46    3.01
  -6   5  -4    2.38    0.63
   6  -5   4    3.20    0.77
   7  -5   4   59.74    2.15
  10   4  -4   26.00    1.73
 -10  -4   4   23.31    1.74
   9   4  -4    3.55    0.79
  -9  -4   4    4.66    0.92
   8   4  -4   42.44    1.75
  -8  -4   4   42.23    1.71
   7   4  -4  101.30    2.59
  -7  -4   4  100.50    2.44
   6   4  -4    8.28    0.73
   6   4  -4   10.27    0.82
  -6  -4   4    6.46    0.72
   5   4  -4   81.95    1.98
   5   4  -4   80.39    1.87
  -5  -4   4   76.23    1.88
   4   4  -4   97.15    2.08
   4   4  -4   91.95    1.97
  -4  -4   4   98.08    1.79
   3   4  -4   18.16    0.73
   3   4  -4   18.36    0.76
  -3  -4   4   18.98    0.70
   2   4  -4  362.62    5.68
   2   4  -4  356.71    5.44
  -2  -4   4  363.07    5.58
   1   4  -4  173.99    2.93
   1   4  -4  176.55    2.90
  -1  -4   4  175.66    3.07
   0   4  -4   58.36    1.17
   0   4  -4   56.44    1.30
   0  -4   4   57.22    1.45
  -1   4  -4   60.15    1.25
  -1   4  -4   59.37    1.39
   1  -4   4   59.43    1.57
  -2   4  -4   46.00    1.09
  -2   4  -4   47.21    1.29
   2  -4   4   46.82    1.44
  -3   4  -4    8.17    0.70
   3  -4   4    7.62    0.56
   3  -4   4    7.54    0.78
  -4   4  -4  100.59    2.28
   4  -4   4  101.00    2.44
  -5   4  -4   17.10    1.05
   5  -4   4   18.89    1.20
  -6   4  -4   51.20    1.78
   6  -4   4   49.20    1.83
  -7   4  -4   69.30    2.21
  -8   4  -4    0.73    0.68
  10   3  -4    3.21    0.84
 -10  -3   4    3.03    0.93
   9   3  -4   23.46    1.40
  -9  -3   4   26.55    1.53
   8   3  -4   28.96    1.38
  -8  -3   4   27.27    1.41
   7   3  -4    3.79    0.63
  -7  -3   4    3.69    0.64
   6   3  -4   26.61    1.12
   6   3  -4   23.51    1.03
  -6  -3   4   27.47    1.13
   5   3  -4  164.41    2.65
   5   3  -4  161.21    3.12
   5   3  -4  163.16    2.92
  -5  -3   4  159.44    2.65
  -5  -3   4  156.81    2.93
   4   3  -4   25.63    0.75
   4   3  -4   24.13    0.86
   4   3  -4   27.36    0.90
  -4  -3   4   26.13    0.76
   3   3  -4  163.57    2.80
   3   3  -4  164.94    2.88
  -3  -3   4  169.19    2.80
   2   3  -4  393.50    5.81
   2   3  -4  390.82    6.01
  -2  -3   4  397.06    6.00
   1   3  -4   31.34    0.88
   1   3  -4   31.09    0.65
   0   3  -4  295.31    4.57
   0  -3   4  302.78    4.81
  -1   3  -4  114.57    1.86
  -1   3  -4  110.77    2.14
   1  -3   4  112.99    2.27
  -2   3  -4    0.34    0.20
  -2   3  -4    0.50    0.32
   2  -3   4    0.66    0.43
   2  -3   4    0.40    0.20
  -3   3  -4   51.21    1.48
   3  -3   4   50.70    1.22
   3  -3   4   54.01    1.60
  -4   3  -4   20.19    1.09
   4  -3   4   21.27    0.92
   4  -3   4   21.04    1.11
  -5   3  -4   18.19    1.14
   5  -3   4   16.48    1.15
  -6   3  -4  103.55    2.71
   6  -3   4  105.40    2.62
  -7   3  -4   15.18    1.32
  -8   3  -4   15.32    1.37
  11   2  -4    9.41    1.23
 -11  -2   4    9.01    1.26
  10   2  -4    6.66    0.96
 -10  -2   4    6.55    1.01
   9   2  -4   38.41    1.70
  -9  -2   4   39.87    1.63
   8   2  -4   55.03    1.83
  -8  -2   4   54.58    1.75
   7   2  -4   31.36    1.27
  -7  -2   4   30.82    1.20
   6   2  -4  185.74    3.27
   6   2  -4  187.78    3.58
  -6  -2   4  185.29    3.31
   5   2  -4   81.81    1.85
   5   2  -4   79.57    1.70
   5   2  -4   82.21    1.57
  -5  -2   4   80.02    1.74
   4   2  -4   68.89    1.54
   4   2  -4   69.67    1.41
   4   2  -4   71.91    1.48
   3   2  -4  309.53    4.73
   3   2  -4  307.64    4.84
   3   2  -4  302.60    4.61
  -3  -2   4  305.20    4.73
   2   2  -4   84.56    1.60
   2   2  -4   87.06    1.48
   2   2  -4   83.78    1.65
  -2  -2   4   81.42    1.66
   1   2  -4  395.37    5.81
  -1  -2   4  398.46    6.07
   0   2  -4  478.95    6.88
   0  -2   4  465.35    7.15
  -1   2  -4    5.87    0.52
   1  -2   4    5.40    0.26
   1  -2   4    6.07    0.55
  -2   2  -4  294.51    4.72
   2  -2   4  293.07    4.57
   2  -2   4  288.61    4.81
  -3   2  -4   50.74    1.54
   3  -2   4   53.18    1.25
   3  -2   4   53.94    1.53
  -4   2  -4   11.38    0.93
   4  -2   4   12.18    0.91
   4  -2   4   11.97    0.70
  -5   2  -4   65.43    2.02
   5  -2   4   65.18    1.87
  -6   2  -4   42.95    1.79
  -7   2  -4    2.92    0.88
  -8   2  -4   45.51    2.21
  11   1  -4    0.19    0.72
  10   1  -4   48.19    2.00
 -10  -1   4   45.94    1.85
   9   1  -4   42.61    1.73
  -9  -1   4   43.38    1.65
   8   1  -4   20.01    1.16
  -8  -1   4   19.40    1.10
   7   1  -4  123.63    2.77
  -7  -1   4  126.82    2.53
   6   1  -4   69.99    1.50
   6   1  -4   74.88    1.62
   6   1  -4   73.74    1.82
  -6  -1   4   71.95    1.63
   5   1  -4   76.41    1.59
   5   1  -4   78.40    1.57
   5   1  -4   77.36    1.75
   4   1  -4  322.32    4.77
   4   1  -4  319.42    5.16
   4   1  -4  318.27    4.92
   3   1  -4    6.72    0.40
   3   1  -4    6.32    0.39
   3   1  -4    6.69    0.45
   2   1  -4  220.58    3.39
   2   1  -4  223.03    3.57
   2   1  -4  218.98    3.44
   1   1  -4  637.83    9.40
   1   1  -4  638.56    9.03
  -1  -1   4  646.08    9.43
   0   1  -4   87.00    1.75
   0   1  -4   84.50    1.70
   0  -1   4   87.76    1.76
  -1   1  -4  176.60    3.06
   1  -1   4  171.52    3.06
   1  -1   4  177.48    2.80
  -2   1  -4  147.80    2.81
   2  -1   4  146.11    2.74
   2  -1   4  144.71    2.52
  -3   1  -4    8.45    0.77
   3  -1   4    9.86    0.59
   3  -1   4    9.84    0.76
  -4   1  -4   43.39    1.58
   4  -1   4   41.29    1.25
   4  -1   4   40.20    1.37
  -5   1  -4   31.86    1.57
   5  -1   4   31.59    1.21
  -6   1  -4    1.28    0.77
  -7   1  -4   23.43    1.73
  -8   1  -4   20.28    1.65
  11   0  -4   15.29    1.41
  10   0  -4   22.28    1.48
   9   0  -4    1.09    0.56
  -9   0   4    0.65    0.56
   8   0  -4   84.98    2.28
  -8   0   4   82.34    2.00
   7   0  -4   56.83    1.38
   7   0  -4   53.81    1.66
  -7   0   4   55.27    1.44
   6   0  -4   30.95    1.13
   6   0  -4   31.14    0.95
   6   0  -4   31.15    0.94
  -6   0   4   30.43    0.95
   5   0  -4  180.76    3.10
   5   0  -4  183.38    2.95
   5   0  -4  185.61    3.34
   4   0  -4   27.70    0.84
   4   0  -4   29.67    0.75
   4   0  -4   28.47    0.87
   3   0  -4   15.37    0.53
   3   0  -4   16.50    0.60
   3   0  -4   16.63    0.64
   2   0  -4  364.73    5.62
   2   0  -4  362.54    5.30
  -2   0   4  373.96    5.64
   1   0  -4   68.58    1.39
   1   0  -4   69.38    1.47
  -1   0   4   70.84    1.35
   0   0  -4    0.81    0.27
   0   0  -4    0.02    0.27
   0   0   4    0.34    0.26
   0   0   4    1.09    0.24
  -1   0  -4  136.73    2.60
  -1   0  -4  138.67    2.52
   1   0   4  141.08    2.41
   1   0   4  136.12    2.52
  -2   0  -4   88.88    2.05
   2   0   4   87.50    1.78
   2   0   4   88.75    1.89
  -3   0  -4   65.43    1.88
   3   0   4   67.74    1.61
   3   0   4   69.42    1.67
  -4   0  -4  108.14    2.63
   4   0   4  107.87    2.36
   4   0   4  108.11    2.31
  -5   0  -4    0.80    0.66
   5   0   4    0.24    0.41
  -6   0  -4   30.43    1.78
  -7   0  -4   20.44    1.62
  -8   0  -4    1.81    1.03
  11  -1  -4   31.05    1.82
  10  -1  -4   12.04    1.13
   9  -1  -4   57.89    1.99
   8  -1  -4   67.47    2.01
  -8   1   4   69.30    1.72
   7  -1  -4    0.46    0.42
   7  -1  -4    0.28    0.32
  -7   1   4    0.36    0.35
   6  -1  -4   43.65    1.06
   6  -1  -4   42.06    1.20
   6  -1  -4   42.77    1.35
  -6   1   4   43.62    1.07
   5  -1  -4  173.79    2.72
   5  -1  -4  171.75    3.05
   5  -1  -4  174.32    3.23
   4  -1  -4   14.33    0.68
   4  -1  -4   14.41    0.48
   4  -1  -4   13.62    0.64
  -4   1   4   14.75    0.69
   3  -1  -4  231.66    3.84
   3  -1  -4  234.04    3.47
   3  -1  -4  237.61    3.92
  -3   1   4  237.95    3.93
   2  -1  -4   95.14    1.87
   2  -1  -4   98.39    1.69
  -2   1   4   95.84    1.87
   1  -1  -4    6.08    0.46
   1  -1  -4    6.35    0.45
  -1   1   4    6.78    0.54
   0  -1  -4  100.92    1.98
   0  -1  -4  102.73    2.01
   0   1   4  103.13    2.01
  -1  -1  -4  172.83    3.12
  -1  -1  -4  171.68    3.00
   1   1   4  175.13    3.08
   1   1   4  172.97    3.02
  -2  -1  -4   19.17    1.04
   2   1   4   18.12    0.81
   2   1   4   17.80    0.81
  -3  -1  -4  136.13    2.98
   3   1   4  142.61    2.68
   3   1   4  144.56    2.84
  -4  -1  -4   79.19    2.28
   4   1   4   82.19    2.06
  -5  -1  -4   48.06    1.92
   5   1   4   43.34    1.56
  -6  -1  -4   76.21    2.56
   6   1   4   75.40    2.26
  -7  -1  -4    1.95    0.99
  11  -2  -4    9.26    1.17
  10  -2  -4    1.58    0.69
   9  -2  -4   46.00    1.79
   8  -2  -4   34.73    1.46
   8  -2  -4   35.72    1.23
   7  -2  -4   31.17    1.12
   7  -2  -4   29.59    1.27
   6  -2  -4  124.80    2.50
   6  -2  -4  125.50    2.69
  -6   2   4  124.06    2.10
  -6   2   4  125.92    2.71
   5  -2  -4    0.05    0.18
   5  -2  -4    0.26    0.30
   5  -2  -4    0.75    0.35
  -5   2   4    0.28    0.19
  -5   2   4    0.08    0.33
   4  -2  -4   98.94    2.00
   4  -2  -4   98.01    2.08
   4  -2  -4   99.51    1.58
  -4   2   4   97.34    2.09
   3  -2  -4  334.05    4.68
   3  -2  -4  323.77    5.21
  -3   2   4  329.21    5.41
   2  -2  -4   10.28    0.58
   2  -2  -4   10.02    0.47
  -2   2   4   11.72    0.70
   1  -2  -4  309.22    4.70
   1  -2  -4  308.49    4.90
  -1   2   4  309.11    5.19
   0  -2  -4  105.54    2.03
   0  -2  -4  101.18    2.06
   0   2   4  102.50    2.18
  -1  -2  -4   22.93    1.02
  -1  -2  -4   23.29    0.84
   1   2   4   20.88    0.94
   1   2   4   23.03    0.84
  -2  -2  -4   78.05    1.74
  -2  -2  -4   83.19    2.09
   2   2   4   82.60    1.79
   2   2   4   84.40    1.97
  -3  -2  -4  131.89    2.94
   3   2   4  133.33    2.83
  -4  -2  -4    4.72    0.82
   4   2   4    6.40    0.72
  -5  -2  -4   79.49    2.56
   5   2   4   78.40    2.26
  -6  -2  -4   31.06    1.89
   6   2   4   32.33    1.56
  -7  -2  -4    6.79    1.31
  11  -3  -4    0.73    0.77
  10  -3  -4   28.46    1.61
   9  -3  -4   34.09    1.35
   9  -3  -4   32.55    1.61
  -9   3   4   34.23    1.65
   8  -3  -4    3.72    0.59
   8  -3  -4    4.76    0.76
  -8   3   4    2.55    0.63
   7  -3  -4   78.28    2.15
   7  -3  -4   73.45    1.92
  -7   3   4   80.58    2.18
   6  -3  -4   48.27    1.57
   6  -3  -4   48.56    1.44
  -6   3   4   45.60    1.55
   5  -3  -4   84.58    1.95
   5  -3  -4   89.63    2.12
  -5   3   4   87.19    2.10
   4  -3  -4  236.88    4.08
  -4   3   4  239.90    4.29
   3  -3  -4   29.67    1.00
   3  -3  -4   31.26    0.68
  -3   3   4   30.20    1.11
   2  -3  -4  182.90    2.90
   2  -3  -4  183.54    3.24
  -2   3   4  187.30    3.52
   1  -3  -4  388.94    5.83
   1  -3  -4  388.30    6.09
  -1   3   4  394.21    6.58
   0  -3  -4   11.42    0.78
   0  -3  -4   11.88    0.63
   0   3   4   11.75    0.90
  -1  -3  -4  140.65    2.61
  -1  -3  -4  143.23    2.83
   1   3   4  142.28    2.96
  -2  -3  -4   17.65    0.79
  -2  -3  -4   17.11    1.12
   2   3   4   17.42    1.03
  -3  -3  -4    1.24    0.65
   3   3   4    0.68    0.49
  -4  -3  -4   53.44    2.00
   4   3   4   52.26    1.77
  -5  -3  -4   71.11    2.48
   5   3   4   72.80    2.28
  -6  -3  -4    2.93    1.06
   6   3   4    2.20    0.68
  -7  -3  -4   55.62    2.63
  11  -4  -4   22.07    1.67
 -11   4   4   21.44    1.64
  10  -4  -4   23.24    1.55
 -10   4   4   25.28    1.61
   9  -4  -4    1.56    0.55
   9  -4  -4    2.21    0.71
  -9   4   4    2.71    0.76
   8  -4  -4   62.79    2.10
   8  -4  -4   61.15    1.84
  -8   4   4   62.75    2.12
   7  -4  -4   40.61    1.59
   7  -4  -4   41.74    1.44
  -7   4   4   41.32    1.61
   6  -4  -4    2.90    0.62
   6  -4  -4    1.59    0.47
  -6   4   4    2.68    0.61
   5  -4  -4   38.81    1.30
  -5   4   4   38.25    1.42
   4  -4  -4   61.06    1.61
  -4   4   4   62.63    1.79
   3  -4  -4   51.72    1.43
  -3   4   4   51.97    1.63
   2  -4  -4  234.50    3.55
   2  -4  -4  220.30    3.91
  -2   4   4  226.98    4.34
   1  -4  -4   33.07    1.08
   1  -4  -4   31.31    1.02
  -1   4   4   33.88    1.43
   0  -4  -4   46.23    1.28
   0  -4  -4   46.95    1.41
   0   4   4   49.64    1.67
  -1  -4  -4  121.99    2.39
  -1  -4  -4  123.31    2.64
   1   4   4  123.43    2.84
  -2  -4  -4    4.14    0.75
   2   4   4    3.04    0.64
  -3  -4  -4   71.70    2.22
   3   4   4   70.14    2.14
  -4  -4  -4   58.71    2.20
   4   4   4   62.28    2.06
  -5  -4  -4   -0.16    0.86
   5   4   4    0.39    0.60
  -6  -4  -4   17.13    1.65
   6   4   4   20.37    1.46
  11  -5  -4   37.44    2.10
 -11   5   4   33.57    2.07
  10  -5  -4    0.49    0.55
  10  -5  -4    0.29    0.73
 -10   5   4    0.72    0.76
   9  -5  -4   21.14    1.47
   9  -5  -4   25.71    1.34
  -9   5   4   23.44    1.54
   8  -5  -4   43.43    1.83
   8  -5  -4   42.30    1.60
  -8   5   4   45.02    1.84
   7  -5  -4   10.11    0.87
  -7   5   4    9.30    1.01
   6  -5  -4   58.67    1.75
  -6   5   4   59.40    1.94
   5  -5  -4   27.75    1.17
  -5   5   4   26.16    1.33
   4  -5  -4    4.80    0.64
  -4   5   4    5.13    0.75
   3  -5  -4   75.58    1.87
  -3   5   4   74.92    2.22
   2  -5  -4  115.08    2.44
  -2   5   4  116.36    2.91
   1  -5  -4    3.21    0.50
   1  -5  -4    2.18    0.45
  -1   5   4    2.44    0.75
   0  -5  -4  225.91    4.02
   0  -5  -4  234.82    4.00
   0   5   4  232.55    4.64
  -1  -5  -4   44.79    1.60
   1   5   4   40.97    1.72
  -2  -5  -4   30.52    1.46
   2   5   4   29.03    1.46
  -3  -5  -4   99.11    2.69
   3   5   4   91.92    2.65
  -4  -5  -4   11.98    1.28
   4   5   4   10.44    1.10
  -5  -5  -4   15.97    1.56
   5   5   4   15.18    1.36
  10  -6  -4   12.40    1.15
  10  -6  -4   11.03    1.34
 -10   6   4   13.31    1.44
   9  -6  -4   59.17    2.03
  -9   6   4   58.50    2.31
   8  -6  -4    7.21    0.88
  -8   6   4    5.87    0.96
   7  -6  -4   47.37    1.69
  -7   6   4   44.29    1.88
   6  -6  -4   72.59    2.05
  -6   6   4   68.80    2.27
   5  -6  -4    1.35    0.48
  -5   6   4    1.64    0.72
   4  -6  -4  154.59    3.19
  -4   6   4  158.02    3.63
   3  -6  -4   92.20    2.21
  -3   6   4   89.04    2.66
   2  -6  -4    5.81    0.64
  -2   6   4    6.88    1.03
   1  -6  -4   71.71    1.82
  -1   6   4   70.48    2.38
   0  -6  -4   73.10    1.95
   0  -6  -4   72.32    1.81
   0   6   4   71.67    2.36
  -1  -6  -4    6.21    0.82
   1   6   4    6.31    0.96
  -2  -6  -4  102.28    2.71
   2   6   4  101.74    2.86
  -3  -6  -4   15.97    1.34
   3   6   4   17.35    1.38
  -4  -6  -4   17.80    1.53
   4   6   4   18.25    1.45
  -5  -6  -4   28.75    2.05
   5   6   4   29.90    1.78
  10  -7  -4   33.26    1.70
 -10   7   4   28.65    1.99
   9  -7  -4    7.79    1.02
  -9   7   4    8.20    1.19
   8  -7  -4   14.82    1.21
  -8   7   4   13.86    1.37
   7  -7  -4   75.23    2.28
  -7   7   4   78.33    2.61
   6  -7  -4    6.30    0.80
  -6   7   4   10.75    1.24
   5  -7  -4   42.51    1.61
  -5   7   4   44.78    2.02
   4  -7  -4   61.08    1.83
  -4   7   4   58.45    2.26
   3  -7  -4    3.55    0.60
  -3   7   4    3.19    0.91
   2  -7  -4   35.62    1.33
  -2   7   4   35.66    1.92
   1  -7  -4   56.37    1.67
  -1   7   4   60.48    2.31
   0   7   4    3.18    0.89
   1   7   4   36.77    1.92
  -2  -7  -4   25.92    1.60
   2   7   4   28.95    1.70
  -3  -7  -4    1.51    0.91
   3   7   4    1.18    0.81
  -4  -7  -4   36.63    2.17
   4   7   4   33.95    1.97
   9  -8  -4    0.02    0.65
  -9   8   4    2.37    1.01
   8  -8  -4   32.72    1.66
  -8   8   4   29.28    1.95
   7  -8  -4    9.60    1.06
  -7   8   4    5.66    1.11
   6  -8  -4    2.56    0.69
  -6   8   4    1.68    0.98
   5  -8  -4   45.05    1.73
  -5   8   4   45.32    2.19
   4  -8  -4   30.34    1.41
  -4   8   4   28.23    1.91
   3  -8  -4   35.82    1.49
  -3   8   4   38.24    2.07
   2  -8  -4   60.28    1.86
  -2   8   4   64.69    2.61
  -1   8   4    4.91    1.07
   0   8   4    9.21    1.26
   1   8   4   55.16    2.41
   2   8   4    7.33    1.18
   3   8   4   40.91    2.19
   8  -9  -4   14.83    1.32
  -8   9   4   16.60    1.71
   7  -9  -4    0.39    0.65
  -7   9   4    0.08    0.91
   6  -9  -4   44.00    1.87
  -6   9   4   45.84    2.38
   5  -9  -4   14.66    1.20
  -5   9   4   18.14    1.72
   4  -9  -4   10.29    1.01
  -4   9   4   11.34    1.45
   3  -9  -4   45.41    1.74
  -3   9   4   44.55    2.43
   2  -9  -4   61.42    1.97
  -2   9   4   60.49    2.64
  -1   9   4    5.21    1.18
   0   9   4   51.56    2.44
   1   9   4    4.65    1.18
   2   9   4   10.62    1.39
   7 -10  -4   20.13    1.56
  -7  10   4   24.43    2.09
   6 -10  -4   24.17    1.62
  -6  10   4   24.33    2.08
   5 -10  -4    1.46    0.66
  -5  10   4    0.72    1.11
   4 -10  -4   51.12    2.00
  -4  10   4   50.54    2.71
   3 -10  -4   49.68    1.94
  -3  10   4   49.86    2.66
  -2  10   4    3.15    1.25
  -1  10   4   31.73    2.23
   0  10   4   21.79    1.96
   1 -12   5   13.57    1.30
   2 -12   5    6.52    1.07
   4  11  -5   24.23    1.52
  -4 -11   5   28.14    1.64
   3  11  -5   47.27    1.80
  -3 -11   5   49.62    1.84
   2  11  -5    0.05    0.51
   0 -11   5   61.38    2.16
   1 -11   5   -0.56    0.66
   2 -11   5   68.23    2.42
   3 -11   5    9.98    1.26
   4 -11   5    5.53    1.10
   6  10  -5    5.45    0.98
  -6 -10   5    3.08    0.94
   5  10  -5   32.12    1.64
   5  10  -5   31.79    1.72
  -5 -10   5   36.94    1.75
   4  10  -5   32.31    1.62
   4  10  -5   33.10    1.53
  -4 -10   5   31.00    1.53
   3  10  -5    5.35    0.79
  -3 -10   5    5.37    0.80
   2  10  -5   31.10    1.37
   1  10  -5   68.89    1.93
  -1 -10   5   68.89    2.08
   0  10  -5    2.37    0.54
   0 -10   5    2.93    0.75
   1 -10   5   22.78    1.48
   2 -10   5   28.05    1.62
   3 -10   5    0.18    0.73
   4 -10   5   49.60    2.18
   5 -10   5   14.70    1.46
   7   9  -5   22.70    1.58
  -7  -9   5   25.20    1.73
   6   9  -5    2.09    0.78
   6   9  -5    2.66    0.73
  -6  -9   5    2.94    0.86
   5   9  -5   59.90    2.02
   5   9  -5   57.24    2.07
  -5  -9   5   59.67    2.09
   4   9  -5   14.62    1.12
   4   9  -5   14.08    1.09
  -4  -9   5   12.27    1.03
   3   9  -5   24.41    1.28
   3   9  -5   23.42    1.21
   2   9  -5   72.76    1.97
   1   9  -5   19.18    1.02
  -1  -9   5   20.87    1.23
   0   9  -5    8.68    0.77
   0  -9   5    7.38    0.91
  -1   9  -5   84.61    2.06
   1  -9   5   87.85    2.46
   2  -9   5   11.64    1.14
   3  -9   5   28.88    1.62
   4  -9   5   63.38    2.36
   5  -9   5    0.93    0.84
   6  -9   5   29.35    1.90
   8   8  -5   35.24    1.89
  -8  -8   5   33.66    1.99
   7   8  -5    2.73    0.72
  -7  -8   5    1.30    0.77
   6   8  -5   48.98    1.91
   6   8  -5   51.73    1.91
  -6  -8   5   49.14    1.94
   5   8  -5   33.50    1.50
   5   8  -5   32.86    1.45
  -5  -8   5   33.14    1.48
   4   8  -5   12.68    0.99
   4   8  -5   11.70    0.97
  -4  -8   5   12.45    1.04
   3   8  -5  143.40    3.15
   3   8  -5  146.14    3.00
   2   8  -5   54.41    1.60
  -2  -8   5   48.71    1.59
   1   8  -5   23.27    1.04
  -1  -8   5   22.30    1.24
   0   8  -5  134.83    2.72
   0  -8   5  135.69    3.03
  -1   8  -5   49.93    1.47
   1  -8   5   53.18    1.88
  -2   8  -5   10.04    0.78
   2  -8   5    7.81    0.95
  -3   8  -5   85.54    2.08
   3  -8   5   91.73    2.61
   4  -8   5   13.03    1.27
   5  -8   5   35.84    1.84
   6  -8   5   32.68    1.96
   9   7  -5   30.41    1.83
  -9  -7   5   30.55    2.00
   8   7  -5    4.86    0.87
  -8  -7   5    3.49    0.95
   7   7  -5   18.78    1.29
   7   7  -5   20.44    1.33
  -7  -7   5   19.00    1.36
   6   7  -5   81.19    2.22
   6   7  -5   75.73    2.29
  -6  -7   5   76.02    2.24
   5   7  -5    0.16    0.44
   5   7  -5    0.64    0.50
  -5  -7   5    1.91    0.59
   4   7  -5  110.48    2.58
   4   7  -5  108.78    2.49
   3   7  -5   85.55    2.02
   3   7  -5   82.60    2.07
  -3  -7   5   80.50    1.93
   2   7  -5   14.52    0.82
   2   7  -5   14.51    0.85
  -2  -7   5   16.32    0.99
   1   7  -5  150.18    2.89
  -1  -7   5  150.48    3.07
   0   7  -5  119.18    2.44
   0  -7   5  121.79    2.73
  -1   7  -5   14.78    0.84
   1  -7   5   15.52    1.15
  -2   7  -5   69.59    1.74
   2  -7   5   65.58    2.08
  -3   7  -5   19.60    0.99
   3  -7   5   18.28    1.30
  -4   7  -5   13.02    0.91
   4  -7   5   12.32    1.20
   5  -7   5   49.94    2.06
   6  -7   5   16.81    1.44
   7  -7   5   25.01    1.83
   9   6  -5    8.51    1.07
  -9  -6   5   10.45    1.25
   8   6  -5   11.73    1.12
  -8  -6   5   11.17    1.18
   7   6  -5   89.63    2.52
   7   6  -5   84.14    2.34
  -7  -6   5   87.45    2.43
   6   6  -5   14.71    1.02
   6   6  -5   16.02    1.06
  -6  -6   5   16.91    1.10
   5   6  -5   24.62    1.11
   5   6  -5   22.84    1.11
  -5  -6   5   22.74    1.15
   4   6  -5  112.56    2.51
   4   6  -5  117.89    2.48
   3   6  -5   -0.37    0.34
   3   6  -5    0.65    0.34
  -3  -6   5    0.04    0.42
   2   6  -5  262.92    4.46
   2   6  -5  260.38    4.36
  -2  -6   5  263.04    4.49
   1   6  -5  122.55    2.44
  -1  -6   5  126.56    2.63
   0   6  -5   34.84    1.14
   0  -6   5   35.54    1.36
  -1   6  -5   91.76    2.00
   1  -6   5   89.77    2.28
  -2   6  -5   38.24    1.27
   2  -6   5   38.29    1.54
  -3   6  -5    1.01    0.44
   3  -6   5    0.44    0.62
  -4   6  -5   50.73    1.62
   4  -6   5   51.58    1.94
  -5   6  -5   39.00    1.50
   5  -6   5   34.54    1.74
  -6   6  -5    0.01    0.53
   6  -6   5    0.95    0.79
   7  -6   5   34.01    1.86
  10   5  -5   26.81    1.71
 -10  -5   5   29.55    1.90
   9   5  -5   13.02    1.24
  -9  -5   5   15.13    1.33
   8   5  -5   58.60    2.04
  -8  -5   5   59.27    2.02
   7   5  -5   16.20    1.10
   7   5  -5   16.97    1.09
  -7  -5   5   15.99    1.13
   6   5  -5    1.64    0.50
   6   5  -5    1.47    0.47
  -6  -5   5    1.59    0.55
   5   5  -5   65.90    1.79
   5   5  -5   67.86    1.76
   4   5  -5   13.53    0.75
   4   5  -5   14.26    0.81
  -4  -5   5   12.82    0.74
   3   5  -5  133.33    2.53
   3   5  -5  128.46    2.53
  -3  -5   5  131.03    2.51
   2   5  -5  105.12    2.00
   2   5  -5  103.37    2.11
  -2  -5   5  100.57    2.16
   1   5  -5   26.23    0.96
   1   5  -5   27.00    0.77
  -1  -5   5   26.10    1.07
   0   5  -5  145.34    2.70
   0  -5   5  145.56    2.93
  -1   5  -5  150.37    2.84
   1  -5   5  155.99    3.14
  -2   5  -5    0.85    0.39
   2  -5   5    0.70    0.53
  -3   5  -5   69.53    1.82
   3  -5   5   71.38    2.11
  -4   5  -5   32.96    1.32
   4  -5   5   32.00    1.55
  -5   5  -5    6.62    0.79
   5  -5   5    5.58    0.92
  -6   5  -5   12.06    1.08
   6  -5   5   14.06    1.27
  -7   5  -5   22.86    1.46
  10   4  -5    0.34    0.67
 -10  -4   5    0.08    0.79
   9   4  -5   44.90    1.87
  -9  -4   5   49.72    1.96
   8   4  -5   60.65    2.02
  -8  -4   5   62.84    1.97
   7   4  -5   11.28    0.91
   7   4  -5   12.95    0.95
  -7  -4   5   11.81    0.93
   6   4  -5   72.24    1.93
   6   4  -5   74.04    1.89
  -6  -4   5   71.47    1.91
   5   4  -5   10.85    0.75
   5   4  -5   11.48    0.75
  -5  -4   5   12.97    0.67
   4   4  -5    0.75    0.36
   4   4  -5    1.14    0.32
  -4  -4   5    0.13    0.31
   3   4  -5  139.31    2.60
   3   4  -5  143.52    2.56
  -3  -4   5  141.67    2.62
   2   4  -5  187.63    3.20
   2   4  -5  188.69    3.08
  -2  -4   5  187.03    3.31
   1   4  -5   42.04    1.18
   1   4  -5   43.85    0.87
  -1  -4   5   44.64    1.30
   0   4  -5  181.75    3.16
   0  -4   5  179.57    3.35
  -1   4  -5   77.70    1.77
   1  -4   5   74.52    1.91
  -2   4  -5   73.13    1.80
   2  -4   5   69.32    1.93
  -3   4  -5  244.36    4.32
   3  -4   5  249.44    4.58
  -4   4  -5    0.35    0.49
   4  -4   5    0.91    0.62
  -5   4  -5   55.88    1.88
   5  -4   5   54.13    1.98
  -6   4  -5   27.22    1.46
   6  -4   5   28.07    1.59
  -7   4  -5    0.31    0.69
  11   3  -5    4.47    0.96
 -11  -3   5    3.96    1.04
  10   3  -5   28.59    1.63
 -10  -3   5   27.31    1.66
   9   3  -5   94.05    2.70
  -9  -3   5   99.50    2.62
   8   3  -5    0.09    0.44
   8   3  -5    0.69    0.48
  -8  -3   5    0.00    0.51
   7   3  -5   97.99    2.25
   7   3  -5   99.23    2.44
  -7  -3   5  104.02    2.36
   6   3  -5   72.45    1.79
   6   3  -5   77.12    1.92
  -6  -3   5   74.33    1.85
   5   3  -5   11.31    0.73
   5   3  -5   10.58    0.60
   5   3  -5   11.15    0.70
  -5  -3   5   11.42    0.63
   4   3  -5  157.49    2.85
   4   3  -5  154.73    2.75
   4   3  -5  157.34    2.80
  -4  -3   5  158.64    2.78
   3   3  -5    8.42    0.55
   3   3  -5    8.98    0.45
  -3  -3   5    8.37    0.58
   2   3  -5   12.90    0.42
   2   3  -5   11.51    0.61
  -2  -3   5   13.91    0.73
   1   3  -5  128.97    2.37
  -1  -3   5  127.36    2.49
   0   3  -5  151.50    2.74
   0  -3   5  152.83    2.89
  -1   3  -5   90.13    1.98
   1  -3   5   93.07    2.10
  -2   3  -5  286.41    4.81
   2  -3   5  295.21    5.03
  -3   3  -5   17.24    1.01
   3  -3   5   20.08    1.14
  -4   3  -5   41.96    1.54
   4  -3   5   43.16    1.64
  -5   3  -5  131.37    3.05
   5  -3   5  131.57    3.06
  -6   3  -5    2.34    0.76
  -7   3  -5   25.42    1.68
  11   2  -5    5.26    1.00
 -11  -2   5    4.76    1.03
  10   2  -5   30.07    1.62
 -10  -2   5   30.28    1.56
   9   2  -5   39.53    1.64
  -9  -2   5   38.11    1.61
   8   2  -5   20.36    1.14
  -8  -2   5   20.09    1.12
   7   2  -5  126.58    2.80
   7   2  -5  125.75    2.54
  -7  -2   5  124.33    2.58
   6   2  -5    1.64    0.41
   6   2  -5    1.33    0.39
   6   2  -5    1.24    0.33
  -6  -2   5    1.13    0.41
   5   2  -5   90.85    1.86
   5   2  -5   90.36    1.83
   5   2  -5   89.28    1.96
   4   2  -5  112.74    2.16
   4   2  -5  113.33    2.13
   4   2  -5  114.40    2.17
  -4  -2   5  113.27    2.17
   3   2  -5    1.46    0.30
   3   2  -5    1.48    0.33
   3   2  -5    2.04    0.26
  -3  -2   5    1.65    0.34
   2   2  -5  335.18    5.16
   2   2  -5  349.30    5.14
   2   2  -5  337.06    5.38
  -2  -2   5  344.64    5.42
   1   2  -5   76.07    1.60
  -1  -2   5   74.01    1.68
   0   2  -5    3.50    0.43
   0  -2   5    4.81    0.56
  -1   2  -5   26.00    1.00
   1  -2   5   25.22    1.02
  -2   2  -5  145.61    2.89
   2  -2   5  148.30    2.94
  -3   2  -5    2.62    0.60
   3  -2   5    4.51    0.68
  -4   2  -5  147.99    3.21
   4  -2   5  145.91    3.11
  -5   2  -5   34.16    1.66
   5  -2   5   37.10    1.56
  -6   2  -5   21.77    1.56
  -7   2  -5   32.33    1.88
  11   1  -5   26.58    1.69
  10   1  -5   10.86    1.12
 -10  -1   5    9.63    1.02
   9   1  -5   -0.17    0.51
  -9  -1   5    0.20    0.53
   8   1  -5   57.60    1.82
  -8  -1   5   57.66    1.66
   7   1  -5  103.04    2.14
   7   1  -5  100.44    2.41
  -7  -1   5  101.92    2.17
   6   1  -5   31.10    1.00
   6   1  -5   30.16    1.10
   6   1  -5   29.30    0.98
  -6  -1   5   28.78    1.01
   5   1  -5  427.78    6.64
   5   1  -5  430.20    6.39
   5   1  -5  442.37    6.97
   4   1  -5    0.44    0.24
   4   1  -5    0.18    0.25
   4   1  -5    0.04    0.22
   3   1  -5  235.73    3.77
   3   1  -5  233.15    3.88
   3   1  -5  231.62    3.66
   2   1  -5  285.96    4.44
   2   1  -5  292.29    4.68
  -2  -1   5  288.31    4.69
  -2  -1   5  291.73    4.45
   1   1  -5   15.96    0.69
   1   1  -5   16.14    0.73
  -1  -1   5   16.56    0.47
  -1  -1   5   16.54    0.76
   0   1  -5  104.58    2.08
   0   1  -5  100.02    2.09
   0  -1   5  102.66    1.67
   0  -1   5  101.50    2.11
  -1   1  -5  136.53    2.65
   1  -1   5  134.37    2.27
   1  -1   5  134.68    2.67
  -2   1  -5    3.51    0.61
   2  -1   5    4.49    0.39
   2  -1   5    4.50    0.62
  -3   1  -5   61.75    1.88
   3  -1   5   64.89    1.79
  -4   1  -5   88.06    2.41
   4  -1   5   87.01    2.21
  -5   1  -5    2.86    0.81
  -6   1  -5   75.25    2.52
  -7   1  -5   20.82    1.69
  11   0  -5   15.37    1.36
  10   0  -5    8.09    1.02
   9   0  -5   79.50    2.34
  -9   0   5   77.02    2.05
   8   0  -5   33.20    1.42
  -8   0   5   34.23    1.21
   7   0  -5    1.42    0.38
   7   0  -5    1.48    0.49
   7   0  -5    1.03    0.37
  -7   0   5    1.52    0.40
   6   0  -5   82.20    1.68
   6   0  -5   84.49    1.97
   6   0  -5   80.43    1.80
  -6   0   5   80.50    1.69
   5   0  -5   95.29    2.02
   5   0  -5   91.96    1.77
   5   0  -5   94.55    1.96
   4   0  -5   63.90    1.50
   4   0  -5   65.42    1.32
   4   0  -5   65.14    1.46
   3   0  -5  454.27    6.91
   3   0  -5  448.41    6.95
   3   0  -5  447.99    6.49
  -3   0   5  448.85    6.95
   2   0  -5   25.29    0.81
  -2   0   5   25.57    0.75
   1   0  -5  149.63    2.71
   1   0  -5  140.42    2.56
  -1   0   5  143.53    2.69
  -1   0   5  147.89    2.53
   0   0  -5  108.32    2.17
   0   0  -5  104.33    2.15
   0   0   5  108.52    1.96
   0   0   5  105.77    2.18
  -1   0  -5    1.72    0.43
  -1   0  -5    1.35    0.47
   1   0   5    1.88    0.31
   1   0   5    1.98    0.42
  -2   0  -5  112.48    2.55
   2   0   5  115.61    2.42
   2   0   5  114.84    2.23
  -3   0  -5   94.44    2.42
   3   0   5   93.84    2.07
   3   0   5   95.47    2.20
  -4   0  -5    1.76    0.71
  -5   0  -5   55.60    2.11
  -6   0  -5   32.60    1.86
  -7   0  -5    0.91    0.92
  11  -1  -5   -0.43    0.63
  10  -1  -5   52.85    2.02
   9  -1  -5   39.82    1.65
   8  -1  -5   -0.18    0.36
   8  -1  -5    0.03    0.43
   7  -1  -5   32.94    1.09
   7  -1  -5   35.47    1.19
   7  -1  -5   33.99    1.32
  -7   1   5   35.56    1.05
   6  -1  -5   50.93    1.43
   6  -1  -5   55.79    1.57
   6  -1  -5   53.05    1.20
  -6   1   5   55.31    1.23
   5  -1  -5   21.60    0.86
   5  -1  -5   20.94    0.92
   5  -1  -5   19.85    0.65
  -5   1   5   19.90    0.90
   4  -1  -5  108.45    1.87
   4  -1  -5  109.57    2.21
   4  -1  -5  109.05    2.19
  -4   1   5  110.50    2.21
   3  -1  -5   99.05    1.81
   3  -1  -5  103.25    2.09
  -3   1   5  102.94    2.04
   2  -1  -5   56.88    1.28
  -2   1   5   58.28    1.39
   1  -1  -5  364.90    5.82
   1  -1  -5  364.51    5.58
  -1   1   5  372.91    5.94
   0  -1  -5   62.61    1.57
   0  -1  -5   60.20    1.51
   0   1   5   61.32    1.53
   0   1   5   64.15    1.49
  -1  -1  -5  134.30    2.63
  -1  -1  -5  136.99    2.77
   1   1   5  139.92    2.63
   1   1   5  134.78    2.65
  -2  -1  -5  107.31    2.53
   2   1   5  111.34    2.31
   2   1   5  106.26    2.30
  -3  -1  -5    6.96    0.89
   3   1   5    5.66    0.61
  -4  -1  -5    8.67    1.01
  -5  -1  -5   32.00    1.84
  -6  -1  -5    5.37    1.09
  -7  -1  -5   28.39    2.02
  11  -2  -5    8.33    1.08
  10  -2  -5   74.53    2.44
   9  -2  -5    1.26    0.62
   9  -2  -5    1.53    0.51
   8  -2  -5   82.70    2.30
   8  -2  -5   80.28    2.03
   7  -2  -5   21.77    1.03
   7  -2  -5   23.07    1.17
  -7   2   5   23.07    1.16
   6  -2  -5    4.36    0.57
   6  -2  -5    5.04    0.62
  -6   2   5    6.67    0.69
   5  -2  -5   56.56    1.55
   5  -2  -5   55.89    1.10
   5  -2  -5   53.89    1.48
  -5   2   5   57.45    1.57
   4  -2  -5  204.03    3.10
   4  -2  -5  206.00    3.63
  -4   2   5  205.26    3.73
   3  -2  -5    0.06    0.29
   3  -2  -5    0.26    0.20
  -3   2   5    0.24    0.34
   2  -2  -5  256.40    4.02
   2  -2  -5  259.65    4.35
  -2   2   5  260.80    4.52
   1  -2  -5   49.07    1.33
   1  -2  -5   50.75    1.30
  -1   2   5   49.47    1.46
   0  -2  -5   15.21    0.79
   0  -2  -5   15.17    0.86
   0   2   5   14.80    0.88
  -1  -2  -5  110.68    2.30
  -1  -2  -5  112.28    2.48
   1   2   5  113.80    2.31
   1   2   5  109.92    2.39
  -2  -2  -5   30.57    1.42
  -2  -2  -5   31.22    1.12
   2   2   5   32.31    1.15
   2   2   5   31.98    1.22
  -3  -2  -5    8.07    0.96
   3   2   5    9.99    0.83
  -4  -2  -5   64.46    2.30
   4   2   5   63.31    1.92
  -5  -2  -5    3.79    0.99
  -6  -2  -5    8.37    1.27
  11  -3  -5   29.60    1.80
 -11   3   5   31.13    1.82
  10  -3  -5   17.91    1.41
 -10   3   5   17.12    1.38
   9  -3  -5   20.29    1.12
   9  -3  -5   18.41    1.30
  -9   3   5   20.44    1.36
   8  -3  -5   66.01    1.89
   8  -3  -5   65.15    2.10
  -8   3   5   66.50    2.10
   7  -3  -5   20.91    1.17
   7  -3  -5   19.88    1.03
  -7   3   5   20.88    1.21
   6  -3  -5   83.37    2.05
   6  -3  -5   88.33    2.20
  -6   3   5   81.16    2.16
   5  -3  -5   74.50    1.84
  -5   3   5   69.56    1.89
   4  -3  -5    0.54    0.36
  -4   3   5    0.95    0.47
   3  -3  -5   15.60    0.81
   3  -3  -5   16.73    0.60
  -3   3   5   14.19    0.96
   2  -3  -5   93.62    2.04
   2  -3  -5   91.92    1.81
  -2   3   5   91.59    2.25
   1  -3  -5   34.25    1.14
   1  -3  -5   35.17    1.13
  -1   3   5   34.43    1.35
   0  -3  -5  137.96    2.77
   0  -3  -5  143.83    2.75
   0   3   5  140.23    3.00
  -1  -3  -5  118.97    2.44
  -1  -3  -5  119.52    2.69
   1   3   5  121.81    2.73
   1   3   5  121.13    2.45
  -2  -3  -5    3.16    0.74
   2   3   5    3.65    0.61
  -3  -3  -5  113.81    2.89
   3   3   5  109.40    2.70
  -4  -3  -5   46.89    2.02
   4   3   5   42.71    1.68
  -5  -3  -5    2.55    0.96
  -6  -3  -5   30.18    2.07
  11  -4  -5   17.78    1.57
 -11   4   5   18.44    1.61
  10  -4  -5    0.39    0.72
  10  -4  -5    1.07    0.55
 -10   4   5    0.64    0.73
   9  -4  -5   61.21    2.19
   9  -4  -5   61.28    1.95
  -9   4   5   65.13    2.26
   8  -4  -5   46.78    1.67
   8  -4  -5   52.90    1.89
  -8   4   5   45.42    1.84
   7  -4  -5   43.66    1.53
   7  -4  -5   44.38    1.72
  -7   4   5   45.09    1.74
   6  -4  -5   57.60    1.71
  -6   4   5   56.37    1.84
   5  -4  -5    5.15    0.66
  -5   4   5    6.23    0.77
   4  -4  -5   35.89    1.28
  -4   4   5   39.47    1.47
   3  -4  -5  173.14    3.28
  -3   4   5  169.16    3.56
   2  -4  -5    1.64    0.37
   2  -4  -5    1.56    0.44
  -2   4   5    2.11    0.68
   1  -4  -5   44.79    1.37
   1  -4  -5   45.55    1.34
  -1   4   5   47.29    1.76
   0  -4  -5  138.50    2.83
   0  -4  -5  136.21    2.72
   0   4   5  135.98    3.12
  -1  -4  -5   17.28    0.88
  -1  -4  -5   16.87    1.18
   1   4   5   17.12    1.16
  -2  -4  -5  117.07    2.88
   2   4   5  113.86    2.83
  -3  -4  -5  129.24    3.26
   3   4   5  129.20    3.14
  -4  -4  -5    1.71    0.91
   4   4   5    2.56    0.67
  -5  -4  -5   42.06    2.28
   5   4   5   43.88    2.04
  11  -5  -5    0.88    0.81
 -11   5   5    1.13    0.88
  10  -5  -5   16.33    1.45
  10  -5  -5   18.02    1.31
 -10   5   5   19.14    1.58
   9  -5  -5   18.05    1.22
   9  -5  -5   19.22    1.46
  -9   5   5   18.53    1.48
   8  -5  -5    3.99    0.71
  -8   5   5    3.28    0.82
   7  -5  -5   63.44    1.93
  -7   5   5   61.44    2.12
   6  -5  -5   46.17    1.59
  -6   5   5   42.22    1.73
   5  -5  -5   80.35    2.11
  -5   5   5   82.69    2.35
   4  -5  -5  119.52    2.67
  -4   5   5  124.70    3.02
   3  -5  -5   13.69    0.90
  -3   5   5   12.65    1.13
   2  -5  -5    9.82    0.77
  -2   5   5   11.36    1.11
   1  -5  -5  155.88    3.11
  -1   5   5  163.42    3.69
   0  -5  -5    4.70    0.71
   0  -5  -5    4.33    0.56
   0   5   5    5.34    0.86
  -1  -5  -5   44.66    1.72
   1   5   5   48.99    1.83
  -2  -5  -5   49.11    1.90
   2   5   5   52.03    1.93
  -3  -5  -5    6.45    1.04
   3   5   5    7.99    0.97
  -4  -5  -5   26.50    1.92
   4   5   5   30.56    1.63
  -5  -5  -5   31.63    2.10
   5   5   5   32.39    1.83
  10  -6  -5   24.09    1.52
 -10   6   5   23.64    1.79
   9  -6  -5    5.87    0.87
  -9   6   5    4.15    0.97
   8  -6  -5   18.10    1.23
  -8   6   5   19.24    1.51
   7  -6  -5   37.28    1.56
  -7   6   5   34.80    1.75
   6  -6  -5    7.04    0.85
  -6   6   5    5.69    0.92
   5  -6  -5   57.71    1.84
  -5   6   5   61.07    2.18
   4  -6  -5  140.69    3.06
  -4   6   5  139.09    3.46
   3  -6  -5   32.37    1.30
  -3   6   5   30.13    1.72
   2  -6  -5  108.69    2.52
  -2   6   5  112.01    3.11
   1  -6  -5    4.28    0.61
  -1   6   5    3.91    0.90
   0   6   5   18.00    1.42
  -1  -6  -5   65.86    2.12
   1   6   5   66.39    2.35
  -2  -6  -5   20.88    1.46
   2   6   5   19.84    1.44
  -3  -6  -5   16.86    1.47
   3   6   5   14.51    1.31
  -4  -6  -5   40.22    2.16
   4   6   5   34.45    1.93
  10  -7  -5    1.82    0.75
 -10   7   5   -0.24    0.87
   9  -7  -5    4.66    0.85
  -9   7   5    5.09    1.13
   8  -7  -5   32.35    1.64
  -8   7   5   29.01    1.92
   7  -7  -5   10.52    1.06
  -7   7   5   10.98    1.29
   6  -7  -5   34.45    1.55
  -6   7   5   38.20    1.97
   5  -7  -5   48.60    1.76
  -5   7   5   46.75    2.18
   4  -7  -5    1.31    0.56
  -4   7   5    2.73    0.92
   3  -7  -5   42.67    1.56
  -3   7   5   41.82    2.08
   2  -7  -5   53.21    1.73
  -2   7   5   55.21    2.37
   1  -7  -5    9.41    0.87
  -1   7   5    9.58    1.25
   0   7   5   96.64    3.02
   1   7   5   28.12    1.81
   2   7   5    4.47    0.93
  -3  -7  -5   35.94    2.00
   3   7   5   35.97    1.96
   9  -8  -5   41.12    1.94
  -9   8   5   38.26    2.30
   8  -8  -5    0.90    0.67
  -8   8   5    1.03    0.98
   7  -8  -5   11.49    1.12
  -7   8   5   12.23    1.44
   6  -8  -5   15.99    1.25
  -6   8   5   21.19    1.74
   5  -8  -5    7.26    0.90
  -5   8   5    7.18    1.25
   4  -8  -5   23.04    1.31
  -4   8   5   20.14    1.74
   3  -8  -5   45.56    1.72
  -3   8   5   43.97    2.37
   2  -8  -5    1.42    0.57
  -2   8   5   -0.11    0.86
  -1   8   5   37.95    2.19
   0   8   5   39.04    2.12
   1   8   5    0.21    0.85
   2   8   5   38.89    2.09
   8  -9  -5    3.37    0.87
  -8   9   5    3.88    1.22
   7  -9  -5   43.34    1.97
  -7   9   5   43.60    2.52
   6  -9  -5   10.46    1.14
  -6   9   5    9.97    1.43
   5  -9  -5    4.47    0.84
  -5   9   5    6.34    1.34
   4  -9  -5   27.45    1.47
  -4   9   5   23.24    1.94
   3  -9  -5   15.10    1.18
  -3   9   5   15.16    1.64
  -2   9   5   12.26    1.53
  -1   9   5   44.18    2.37
   0   9   5    1.71    0.99
   6 -10  -5   -0.53    0.64
  -6  10   5    0.15    1.15
   5 -10  -5   28.88    1.70
  -5  10   5   30.82    2.52
   4 -10  -5   20.70    1.50
  -4  10   5   17.17    1.90
  -3  10   5    4.29    1.28
  -2  10   5   28.00    2.24
   4  11  -6   26.44    1.54
  -4 -11   6   31.47    1.67
   3  11  -6    6.86    0.91
  -3 -11   6    7.14    0.93
   2  11  -6   41.71    1.68
   0 -11   6    0.12    0.71
   1 -11   6   39.27    1.98
   2 -11   6   14.28    1.37
   3 -11   6    9.76    1.29
   6  10  -6   30.21    1.69
  -6 -10   6   32.31    1.79
   5  10  -6   37.53    1.73
  -5 -10   6   40.81    1.81
   4  10  -6    1.36    0.64
  -4 -10   6    1.26    0.65
   3  10  -6   46.91    1.74
   2  10  -6   58.79    1.87
   1  10  -6   11.57    0.96
  -1 -10   6   10.26    1.04
   0  10  -6   49.99    1.66
   0 -10   6   49.65    1.93
   1 -10   6   14.30    1.28
   2 -10   6    3.02    0.91
   3 -10   6   47.50    2.14
   4 -10   6   27.91    1.89
   7   9  -6    5.57    0.92
   7   9  -6    4.58    0.96
  -7  -9   6    6.08    1.05
   6   9  -6   34.02    1.66
   6   9  -6   35.34    1.68
  -6  -9   6   37.76    1.79
   5   9  -6   13.20    1.19
  -5  -9   6   14.56    1.23
   4   9  -6   40.22    1.63
   3   9  -6   58.09    1.82
   2   9  -6    0.85    0.50
  -2  -9   6    1.62    0.66
   1   9  -6   21.11    1.09
  -1  -9   6   20.24    1.29
   0   9  -6   77.97    2.05
   0  -9   6   81.61    2.42
  -1   9  -6    0.96    0.47
   1  -9   6    1.77    0.78
  -2   9  -6   65.68    1.86
   2  -9   6   62.32    2.27
   3  -9   6   30.29    1.77
   4  -9   6    1.86    0.87
   5  -9   6   21.59    1.70
   8   8  -6    3.31    0.81
  -8  -8   6    2.83    0.92
   7   8  -6   57.51    2.12
   7   8  -6   54.85    2.09
  -7  -8   6   53.01    2.13
   6   8  -6    4.52    0.75
   6   8  -6    6.08    0.86
  -6  -8   6    4.38    0.83
   5   8  -6    5.22    0.76
   5   8  -6    3.88    0.65
  -5  -8   6    4.45    0.76
   4   8  -6   37.12    1.45
   3   8  -6  112.96    2.60
   2   8  -6   15.42    0.95
  -2  -8   6   13.48    1.04
   1   8  -6  124.78    2.70
  -1  -8   6  126.92    2.94
   0   8  -6    3.52    0.56
   0  -8   6    3.49    0.81
  -1   8  -6   36.43    1.34
   1  -8   6   35.76    1.68
  -2   8  -6   65.94    1.86
   2  -8   6   66.22    2.26
  -3   8  -6    3.26    0.60
   3  -8   6    3.05    0.87
   4  -8   6   46.92    2.09
   5  -8   6   31.56    1.89
   6  -8   6    1.92    0.94
   9   7  -6    1.35    0.69
  -9  -7   6   -0.54    0.83
   8   7  -6   32.53    1.70
   8   7  -6   30.74    1.64
  -8  -7   6   27.76    1.70
   7   7  -6   39.73    1.68
   7   7  -6   43.05    1.72
  -7  -7   6   38.77    1.73
   6   7  -6   -0.22    0.40
   6   7  -6   -0.54    0.50
  -6  -7   6    0.23    0.58
   5   7  -6  108.16    2.59
   5   7  -6  107.80    2.58
   4   7  -6   72.20    1.95
   3   7  -6   13.83    0.91
  -3  -7   6   14.02    0.99
   2   7  -6   50.58    1.53
  -2  -7   6   50.31    1.62
   1   7  -6   63.09    1.71
  -1  -7   6   65.16    1.91
   0   7  -6   20.35    0.99
   0  -7   6   18.72    1.24
  -1   7  -6  138.17    2.83
   1  -7   6  135.76    3.15
  -2   7  -6   10.87    0.83
   2  -7   6    9.17    1.07
  -3   7  -6   42.96    1.50
   3  -7   6   44.53    1.93
  -4   7  -6   67.60    1.98
   4  -7   6   66.11    2.41
  -5   7  -6    3.76    0.71
   5  -7   6    4.36    1.03
   6  -7   6   25.63    1.80
   9   6  -6    9.41    1.11
  -9  -6   6    8.25    1.12
   8   6  -6   79.93    2.38
   8   6  -6   81.20    2.48
  -8  -6   6   81.41    2.45
   7   6  -6    2.61    0.67
   7   6  -6    2.59    0.61
  -7  -6   6    4.04    0.75
   6   6  -6   93.74    2.40
   6   6  -6   97.07    2.40
  -6  -6   6   94.89    2.42
   5   6  -6   55.08    1.67
   5   6  -6   55.14    1.64
   4   6  -6    4.42    0.60
   4   6  -6    2.68    0.46
  -4  -6   6    3.56    0.58
   3   6  -6  135.04    2.74
  -3  -6   6  135.33    2.77
   2   6  -6  106.11    2.31
  -2  -6   6  109.82    2.44
   1   6  -6    7.63    0.72
  -1  -6   6    7.43    0.80
   0   6  -6  132.02    2.69
   0  -6   6  133.30    2.94
  -1   6  -6   47.83    1.48
   1  -6   6   47.64    1.73
  -2   6  -6   10.57    0.84
   2  -6   6    8.58    0.96
  -3   6  -6  107.41    2.52
   3  -6   6  112.55    2.91
  -4   6  -6   19.87    1.20
   4  -6   6   19.56    1.48
  -5   6  -6   10.89    1.01
   5  -6   6   10.78    1.24
  -6   6  -6   39.24    1.76
   6  -6   6   40.72    2.03
  10   5  -6   11.00    1.22
 -10  -5   6   10.29    1.24
   9   5  -6   44.57    1.87
  -9  -5   6   40.95    1.88
   8   5  -6   22.90    1.31
   8   5  -6   23.54    1.32
  -8  -5   6   22.38    1.36
   7   5  -6   35.49    1.43
   7   5  -6   33.31    1.44
  -7  -5   6   34.44    1.49
   6   5  -6  111.05    2.53
   6   5  -6  111.40    2.57
   5   5  -6    0.48    0.35
   5   5  -6    0.66    0.42
   4   5  -6  216.19    3.83
   4   5  -6  216.24    3.83
  -4  -5   6  215.51    3.79
   3   5  -6   76.52    1.83
  -3  -5   6   76.10    1.86
   2   5  -6    1.06    0.37
  -2  -5   6    0.28    0.46
   1   5  -6   66.24    1.67
  -1  -5   6   67.23    1.82
   0   5  -6  100.68    2.20
   0  -5   6  103.61    2.43
  -1   5  -6    0.86    0.41
   1  -5   6    0.51    0.58
  -2   5  -6  121.00    2.64
   2  -5   6  123.08    2.90
  -3   5  -6   34.27    1.37
   3  -5   6   32.92    1.59
  -4   5  -6    7.38    0.85
   4  -5   6    9.09    1.08
  -5   5  -6   43.82    1.75
   5  -5   6   43.79    1.97
  -6   5  -6   14.89    1.26
   6  -5   6   13.52    1.37
  10   4  -6   42.56    1.96
 -10  -4   6   39.63    1.95
   9   4  -6   28.62    1.54
  -9  -4   6   31.31    1.53
   8   4  -6    7.24    0.82
   8   4  -6    5.83    0.76
  -8  -4   6    6.20    0.82
   7   4  -6   54.03    1.73
   7   4  -6   59.22    1.74
  -7  -4   6   57.32    1.74
   6   4  -6   14.10    0.84
   6   4  -6   12.63    0.85
   5   4  -6   15.59    0.88
   5   4  -6   16.56    0.81
  -5  -4   6   16.23    0.84
   4   4  -6  120.38    2.35
   4   4  -6  124.97    2.47
  -4  -4   6  120.58    2.45
   3   4  -6   14.33    0.58
   3   4  -6   14.15    0.75
  -3  -4   6   14.79    0.83
   2   4  -6   92.51    1.97
  -2  -4   6   88.47    2.05
   1   4  -6   80.83    1.82
  -1  -4   6   77.56    1.95
   0   4  -6    7.70    0.69
   0  -4   6    7.52    0.76
  -1   4  -6   48.01    1.46
   1  -4   6   47.36    1.61
  -2   4  -6  105.84    2.43
   2  -4   6  107.22    2.60
  -3   4  -6    8.32    0.83
   3  -4   6   11.53    1.07
  -4   4  -6   36.71    1.54
   4  -4   6   39.18    1.78
  -5   4  -6   49.26    1.83
   5  -4   6   43.96    1.93
  -6   4  -6    1.25    0.71
  -7   4  -6   28.15    1.77
  11   3  -6   41.40    2.02
 -11  -3   6   40.89    2.02
  10   3  -6   32.01    1.70
 -10  -3   6   30.63    1.66
   9   3  -6   -0.86    0.47
  -9  -3   6    0.19    0.59
   8   3  -6   20.80    1.17
   8   3  -6   21.90    1.12
  -8  -3   6   21.17    1.16
   7   3  -6   58.22    1.67
   7   3  -6   57.87    1.73
  -7  -3   6   57.31    1.71
   6   3  -6    9.34    0.76
   6   3  -6    8.99    0.73
   6   3  -6    9.20    0.65
  -6  -3   6    8.74    0.68
   5   3  -6  189.32    3.34
   5   3  -6  183.76    3.31
   5   3  -6  191.50    3.43
  -5  -3   6  185.64    3.34
   4   3  -6   71.22    1.65
   4   3  -6   69.59    1.52
   4   3  -6   69.91    1.64
  -4  -3   6   67.92    1.65
   3   3  -6   65.75    1.33
   3   3  -6   68.17    1.59
   3   3  -6   68.47    1.65
  -3  -3   6   66.31    1.63
   2   3  -6  191.44    3.32
  -2  -3   6  191.90    3.49
   1   3  -6    8.89    0.64
  -1  -3   6    7.45    0.67
   0   3  -6   80.30    1.87
   0  -3   6   79.39    1.99
  -1   3  -6  205.79    3.72
   1  -3   6  202.83    3.85
  -2   3  -6   26.64    1.19
   2  -3   6   28.62    1.33
  -3   3  -6   36.89    1.45
   3  -3   6   34.96    1.57
  -4   3  -6   63.78    2.05
   4  -3   6   60.79    2.07
  -5   3  -6    9.23    1.06
   5  -3   6    8.28    1.04
  -6   3  -6   19.02    1.47
  -7   3  -6   30.07    1.80
  11   2  -6   33.21    1.83
  10   2  -6    3.07    0.77
 -10  -2   6    2.08    0.75
   9   2  -6   43.39    1.74
  -9  -2   6   40.04    1.53
   8   2  -6   75.32    2.17
   8   2  -6   79.41    1.99
  -8  -2   6   79.93    2.04
   7   2  -6    7.52    0.68
   7   2  -6    9.43    0.80
  -7  -2   6    7.92    0.71
   6   2  -6   63.86    1.58
   6   2  -6   63.86    1.58
   6   2  -6   63.83    1.66
   5   2  -6   87.38    1.87
   5   2  -6   87.14    1.91
   5   2  -6   87.85    1.90
   4   2  -6    9.31    0.68
   4   2  -6    7.84    0.57
   4   2  -6    8.30    0.51
  -4  -2   6    7.93    0.63
   3   2  -6  175.51    3.22
   3   2  -6  178.16    3.08
   3   2  -6  180.21    2.93
  -3  -2   6  177.04    3.24
   2   2  -6  113.25    2.34
   2   2  -6  113.43    2.23
  -2  -2   6  113.09    2.36
  -2  -2   6  116.75    1.85
   1   2  -6  115.38    2.31
  -1  -2   6  117.05    2.44
   0   2  -6  196.94    3.52
   0  -2   6  196.77    3.66
  -1   2  -6   40.86    1.37
   1  -2   6   42.56    1.45
  -2   2  -6   49.36    1.61
   2  -2   6   49.72    1.62
  -3   2  -6  102.44    2.53
   3  -2   6   97.82    2.47
  -4   2  -6   15.73    1.23
   4  -2   6   12.16    1.08
  -5   2  -6   27.60    1.63
  -6   2  -6   27.39    1.77
  -7   2  -6    3.06    1.00
  11   1  -6   11.10    1.22
  10   1  -6   37.34    1.74
   9   1  -6   65.89    2.13
  -9  -1   6   64.76    1.87
   8   1  -6    0.78    0.49
   8   1  -6    1.27    0.47
  -8  -1   6    0.93    0.45
   7   1  -6   27.87    1.17
   7   1  -6   29.32    1.06
   7   1  -6   28.43    1.05
  -7  -1   6   28.50    1.08
   6   1  -6  119.59    2.51
   6   1  -6  118.86    2.28
   6   1  -6  117.46    2.40
   5   1  -6   -0.02    0.27
   5   1  -6    0.19    0.28
   5   1  -6    0.31    0.34
   4   1  -6   13.33    0.66
   4   1  -6   13.27    0.62
   4   1  -6   12.65    0.73
   3   1  -6   45.88    1.04
   3   1  -6   43.59    1.17
   3   1  -6   44.61    1.29
  -3  -1   6   44.92    1.04
   2   1  -6   36.39    1.07
   2   1  -6   37.41    1.16
  -2  -1   6   36.44    0.86
  -2  -1   6   34.41    1.14
   1   1  -6  123.64    2.42
   1   1  -6  122.76    2.53
  -1  -1   6  127.22    2.56
   0   1  -6  115.61    2.40
   0   1  -6  112.08    2.43
   0  -1   6  117.60    2.46
  -1   1  -6   54.95    1.66
   1  -1   6   59.00    1.67
  -2   1  -6  196.65    3.76
   2  -1   6  191.87    3.73
  -3   1  -6   64.96    2.02
   3  -1   6   65.71    1.94
  -4   1  -6   14.33    1.25
  -5   1  -6   77.29    2.50
  -6   1  -6    9.80    1.27
  11   0  -6    0.43    0.69
  10   0  -6   55.46    2.09
   9   0  -6   74.15    2.27
   8   0  -6   43.71    1.46
   8   0  -6   43.51    1.37
   8   0  -6   43.96    1.58
  -8   0   6   43.41    1.35
   7   0  -6  110.52    2.37
   7   0  -6  111.73    2.19
   7   0  -6  109.26    2.53
  -7   0   6  110.95    2.20
   6   0  -6    3.27    0.49
   6   0  -6    3.55    0.42
   6   0  -6    2.65    0.48
   5   0  -6   15.46    0.66
   5   0  -6   12.55    0.79
   5   0  -6   15.65    0.77
  -5   0   6   14.44    0.78
   4   0  -6  120.78    2.31
   4   0  -6  118.45    2.16
   4   0  -6  116.04    2.40
  -4   0   6  116.90    2.29
   3   0  -6   32.91    1.11
   3   0  -6   32.34    0.97
  -3   0   6   32.39    0.95
   2   0  -6  123.52    2.52
   2   0  -6  126.86    2.37
  -2   0   6  125.76    2.31
   1   0  -6   72.30    1.79
   1   0  -6   73.98    1.74
  -1   0   6   75.76    1.83
  -1   0   6   76.03    1.55
   0   0  -6    2.81    0.52
   0   0  -6    2.21    0.49
   0   0   6    1.60    0.46
   0   0   6    2.73    0.36
  -1   0  -6  185.46    3.55
   1   0   6  189.01    3.56
  -2   0  -6  128.78    2.89
   2   0   6  126.49    2.74
  -3   0  -6    1.21    0.62
   3   0   6    0.70    0.56
  -4   0  -6   83.59    2.53
  -5   0  -6   35.74    1.88
  -6   0  -6    4.67    1.11
  11  -1  -6   28.09    1.68
  10  -1  -6   30.57    1.64
   9  -1  -6    0.23    0.55
   8  -1  -6   45.78    1.47
   8  -1  -6   43.78    1.61
   7  -1  -6  126.33    2.64
   7  -1  -6  123.05    2.79
   6  -1  -6   47.90    1.44
   6  -1  -6   48.43    1.15
   6  -1  -6   51.31    1.50
  -6   1   6   47.60    1.48
   5  -1  -6  346.04    5.17
   5  -1  -6  346.41    5.71
   5  -1  -6  352.40    5.83
  -5   1   6  347.17    5.84
   4  -1  -6   16.22    0.66
   4  -1  -6   15.80    0.84
  -4   1   6   18.72    0.85
   3  -1  -6   36.98    1.20
   3  -1  -6   38.45    1.05
  -3   1   6   37.83    1.14
   2  -1  -6   89.18    2.01
   2  -1  -6   86.22    1.84
  -2   1   6   87.22    1.93
   1  -1  -6   11.83    0.75
   1  -1  -6   13.91    0.81
  -1   1   6   12.25    0.78
   0  -1  -6   95.07    2.19
   0  -1  -6   96.33    2.18
   0   1   6  100.08    2.20
   0   1   6   96.94    2.05
  -1  -1  -6   88.13    2.08
  -1  -1  -6   88.14    2.20
   1   1   6   86.03    1.95
   1   1   6   85.74    2.09
  -2  -1  -6    1.11    0.59
   2   1   6    1.20    0.52
  -3  -1  -6   52.17    1.94
  -4  -1  -6   52.11    2.08
  -5  -1  -6    1.61    0.90
  -6  -1  -6   31.01    2.01
  11  -2  -6   17.69    1.50
  10  -2  -6    2.49    0.78
 -10   2   6    2.49    0.73
   9  -2  -6   45.98    1.84
   9  -2  -6   44.72    1.59
  -9   2   6   42.72    1.78
   8  -2  -6   89.31    2.39
   8  -2  -6   84.23    2.18
  -8   2   6   86.41    2.40
   7  -2  -6    0.50    0.46
   7  -2  -6    0.48    0.48
  -7   2   6    0.89    0.53
   6  -2  -6  134.65    2.91
   6  -2  -6  139.43    2.85
  -6   2   6  138.49    2.95
   5  -2  -6  115.69    2.49
  -5   2   6  116.26    2.55
   4  -2  -6    8.15    0.71
   4  -2  -6    8.41    0.50
  -4   2   6    8.48    0.72
   3  -2  -6  182.96    3.43
   3  -2  -6  181.33    3.06
  -3   2   6  186.31    3.50
   2  -2  -6    2.48    0.49
   2  -2  -6    2.99    0.45
  -2   2   6    2.94    0.59
   1  -2  -6   34.24    1.17
   1  -2  -6   33.39    1.20
  -1   2   6   36.23    1.29
   0  -2  -6  103.39    2.34
   0  -2  -6  100.51    2.25
   0   2   6  102.02    2.27
   0   2   6   98.46    2.28
  -1  -2  -6   11.69    0.98
  -1  -2  -6   11.96    0.85
   1   2   6   13.41    0.90
   1   2   6   12.10    0.83
  -2  -2  -6   51.61    1.89
  -3  -2  -6   65.23    2.22
  -4  -2  -6    3.03    0.90
  -5  -2  -6   27.04    1.85
  11  -3  -6   -0.14    0.74
 -11   3   6   -0.35    0.72
  10  -3  -6   33.06    1.50
  10  -3  -6   32.55    1.77
 -10   3   6   32.53    1.80
   9  -3  -6   27.30    1.53
   9  -3  -6   28.74    1.37
  -9   3   6   29.90    1.61
   8  -3  -6    0.58    0.56
   8  -3  -6    1.01    0.49
  -8   3   6   -0.10    0.54
   7  -3  -6   44.03    1.63
   7  -3  -6   44.89    1.53
  -7   3   6   44.40    1.66
   6  -3  -6   68.06    1.89
  -6   3   6   71.35    2.01
   5  -3  -6   -0.16    0.38
  -5   3   6   -0.29    0.46
   4  -3  -6   61.81    1.71
  -4   3   6   62.02    1.82
   3  -3  -6   28.51    0.91
   3  -3  -6   28.69    1.14
  -3   3   6   27.91    1.31
   2  -3  -6   12.05    0.82
   2  -3  -6   12.22    0.73
  -2   3   6   13.77    1.08
   1  -3  -6  102.67    2.23
   1  -3  -6   99.96    2.29
  -1   3   6  101.25    2.47
   0  -3  -6   36.32    1.37
   0  -3  -6   38.10    1.32
   0   3   6   36.39    1.42
  -1  -3  -6    9.88    0.96
  -1  -3  -6   10.14    0.81
   1   3   6    9.30    0.82
   1   3   6    9.38    0.77
  -2  -3  -6   58.12    2.02
   2   3   6   57.49    1.81
  -3  -3  -6   28.75    1.67
  -4  -3  -6   12.04    1.32
  -5  -3  -6   40.82    2.21
  11  -4  -6    4.33    0.99
 -11   4   6    4.49    1.04
  10  -4  -6   36.33    1.65
  10  -4  -6   37.97    1.88
 -10   4   6   36.82    1.91
   9  -4  -6    0.99    0.58
   9  -4  -6    1.35    0.69
  -9   4   6    0.67    0.71
   8  -4  -6   22.92    1.39
   8  -4  -6   20.79    1.21
  -8   4   6   22.73    1.40
   7  -4  -6   35.06    1.44
  -7   4   6   36.71    1.61
   6  -4  -6    9.96    0.87
  -6   4   6   11.39    1.05
   5  -4  -6   14.55    0.96
  -5   4   6   14.13    1.11
   4  -4  -6  133.07    2.87
  -4   4   6  135.53    3.14
   3  -4  -6    7.46    0.74
  -3   4   6    7.54    0.92
   2  -4  -6   65.76    1.82
  -2   4   6   67.15    2.15
   1  -4  -6   76.23    1.95
   1  -4  -6   74.52    1.89
  -1   4   6   75.31    2.26
   0  -4  -6    0.16    0.40
   0  -4  -6   -0.27    0.50
   0   4   6   -0.91    0.52
  -1  -4  -6   45.62    1.76
   1   4   6   44.94    1.70
  -2  -4  -6   57.76    2.13
   2   4   6   59.00    1.96
  -3  -4  -6    1.15    0.84
  -4  -4  -6   41.60    2.16
  11  -5  -6   27.76    1.91
  11  -5  -6   31.16    1.68
 -11   5   6   28.57    1.96
  10  -5  -6   11.64    1.28
  10  -5  -6    9.10    1.04
 -10   5   6   10.68    1.32
   9  -5  -6    7.26    0.92
  -9   5   6    8.04    1.12
   8  -5  -6   59.97    2.04
  -8   5   6   62.13    2.30
   7  -5  -6   37.64    1.58
  -7   5   6   34.06    1.74
   6  -5  -6   13.97    1.03
  -6   5   6   14.85    1.21
   5  -5  -6  105.44    2.59
  -5   5   6  108.08    2.88
   4  -5  -6   35.51    1.40
  -4   5   6   31.31    1.66
   3  -5  -6   26.69    1.22
  -3   5   6   25.30    1.54
   2  -5  -6   97.34    2.36
  -2   5   6  101.81    2.86
   1  -5  -6    1.22    0.49
  -1   5   6    1.15    0.73
   0  -5  -6   89.50    2.21
   0  -5  -6   88.05    2.31
   0   5   6   91.03    2.62
  -1  -5  -6   61.61    2.07
   1   5   6   60.18    2.12
  -2  -5  -6    0.35    0.72
   2   5   6    0.66    0.57
  -3  -5  -6   46.35    2.14
   3   5   6   45.99    2.07
  -4  -5  -6   29.67    2.10
  10  -6  -6    0.78    0.67
 -10   6   6   -1.48    0.76
   9  -6  -6   40.47    1.81
  -9   6   6   46.39    2.17
   8  -6  -6   22.16    1.43
  -8   6   6   20.63    1.59
   7  -6  -6   16.28    1.21
  -7   6   6   17.08    1.49
   6  -6  -6   47.72    1.78
  -6   6   6   45.77    2.04
   5  -6  -6   26.07    1.32
  -5   6   6   24.77    1.69
   4  -6  -6   11.12    1.01
  -4   6   6   13.04    1.32
   3  -6  -6   51.20    1.74
  -3   6   6   54.91    2.25
   2  -6  -6   13.76    1.03
  -2   6   6   11.50    1.28
   1  -6  -6   36.99    1.45
  -1   6   6   37.39    1.86
   0   6   6   86.78    2.75
   1   6   6    5.02    0.93
  -2  -6  -6   34.71    1.83
   2   6   6   30.28    1.73
  -3  -6  -6   34.57    2.06
   3   6   6   30.78    1.80
 -10   7   6   10.44    1.45
   9  -7  -6   18.10    1.47
  -9   7   6   16.29    1.62
   8  -7  -6   -0.29    0.59
  -8   7   6   -1.09    0.77
   7  -7  -6   54.18    2.03
  -7   7   6   53.87    2.38
   6  -7  -6   24.78    1.41
  -6   7   6   24.87    1.79
   5  -7  -6    7.00    0.88
  -5   7   6    6.66    1.18
   4  -7  -6   27.69    1.39
  -4   7   6   24.87    1.93
   3  -7  -6   32.53    1.50
  -3   7   6   30.83    2.04
   2  -7  -6    2.24    0.64
  -2   7   6    5.26    1.11
  -1   7   6   68.94    2.59
   0   7   6   14.38    1.43
   1   7   6    7.06    1.10
   2   7   6   40.08    2.06
   9  -8  -6    3.52    0.94
  -9   8   6    1.81    1.13
   8  -8  -6   25.63    1.63
  -8   8   6   23.37    1.95
   7  -8  -6   31.39    1.69
  -7   8   6   28.95    2.08
   6  -8  -6    6.91    0.96
  -6   8   6    6.48    1.26
   5  -8  -6   41.16    1.76
  -5   8   6   39.85    2.31
   4  -8  -6   37.51    1.70
  -4   8   6   36.70    2.20
   3  -8  -6    3.87    0.78
  -3   8   6    3.86    1.12
  -2   8   6   24.22    1.94
  -1   8   6   23.40    1.87
   0   8   6    1.37    0.91
   7  -9  -6   14.43    1.36
  -7   9   6   12.92    1.69
   6  -9  -6   14.40    1.34
  -6   9   6   16.80    1.85
   5  -9  -6   26.82    1.57
  -5   9   6   25.22    2.08
   4  -9  -6    1.40    0.71
  -4   9   6    0.70    1.13
   3  -9  -6   26.08    1.56
  -3   9   6   27.59    2.15
  -2   9   6   42.59    2.51
  -1   9   6    1.75    1.01
   4  11  -7   13.90    1.26
  -4 -11   7   14.75    1.28
   3  11  -7   40.67    1.77
   2  11  -7    2.89    0.72
   1  11  -7    8.88    0.96
  -1 -11   7    9.93    1.16
   0 -11   7   46.25    2.11
   1 -11   7    3.60    0.99
   2 -11   7   35.34    2.02
   6  10  -7   25.57    1.61
  -6 -10   7   26.75    1.73
   5  10  -7    3.41    0.82
  -5 -10   7    5.31    0.94
   4  10  -7   33.81    1.58
   3  10  -7   29.11    1.47
   2  10  -7    2.61    0.66
   1  10  -7   39.21    1.57
  -1 -10   7   37.71    1.77
   0  10  -7   18.27    1.13
   0 -10   7   17.80    1.43
  -1  10  -7    8.21    0.89
   1 -10   7    7.59    1.14
   2 -10   7   44.05    2.13
   3 -10   7   13.56    1.43
   7   9  -7   33.44    1.76
  -7  -9   7   31.27    1.77
   6   9  -7    2.14    0.76
  -6  -9   7    3.75    0.86
   5   9  -7   34.01    1.62
   4   9  -7   72.44    2.16
   3   9  -7    1.41    0.56
   2   9  -7   36.77    1.48
  -2  -9   7   34.46    1.58
   1   9  -7   20.48    1.17
  -1  -9   7   18.18    1.38
   0   9  -7   -0.30    0.40
   0  -9   7   -0.23    0.70
  -1   9  -7   46.12    1.62
   1  -9   7   44.40    2.07
  -2   9  -7   44.18    1.63
   2  -9   7   40.64    2.01
   3  -9   7    2.00    0.96
   4  -9   7   56.11    2.52
   8   8  -7   43.39    2.02
  -8  -8   7   42.05    2.08
   7   8  -7   22.09    1.43
  -7  -8   7   18.74    1.41
   6   8  -7   22.76    1.37
  -6  -8   7   20.31    1.36
   5   8  -7   61.63    1.99
   4   8  -7   15.97    1.09
   3   8  -7   31.29    1.35
  -3  -8   7   29.62    1.42
   2   8  -7   49.89    1.64
  -2  -8   7   50.47    1.83
   1   8  -7    2.79    0.55
  -1  -8   7    2.10    0.73
   0   8  -7   56.71    1.73
   0  -8   7   56.13    2.03
  -1   8  -7   25.25    1.24
   1  -8   7   23.72    1.60
  -2   8  -7    1.07    0.54
   2  -8   7    1.74    0.87
  -3   8  -7   37.99    1.54
   3  -8   7   37.79    1.97
  -4   8  -7   39.27    1.66
   4  -8   7   39.16    2.06
   5  -8   7    1.93    1.05
   9   7  -7   35.89    1.79
   9   7  -7   33.23    1.80
  -9  -7   7   33.99    1.88
   8   7  -7   20.70    1.42
   8   7  -7   21.53    1.40
  -8  -7   7   23.03    1.52
   7   7  -7    1.25    0.62
  -7  -7   7    2.41    0.74
   6   7  -7   67.89    2.10
   5   7  -7   57.81    1.83
   4   7  -7   11.15    0.90
  -4  -7   7   11.19    0.97
   3   7  -7   85.34    2.18
  -3  -7   7   88.35    2.27
   2   7  -7   14.70    0.96
  -2  -7   7   15.45    1.14
   1   7  -7   81.89    2.07
  -1  -7   7   80.97    2.29
   0   7  -7   97.08    2.33
   0  -7   7   99.02    2.63
  -1   7  -7    1.60    0.51
   1  -7   7    0.30    0.69
  -2   7  -7   28.65    1.33
   2  -7   7   29.67    1.69
  -3   7  -7   30.33    1.38
   3  -7   7   29.61    1.77
  -4   7  -7    3.59    0.72
   4  -7   7    3.82    1.03
  -5   7  -7   20.80    1.41
   5  -7   7   20.35    1.69
   9   6  -7   27.81    1.58
   9   6  -7   27.92    1.60
  -9  -6   7   28.02    1.72
   8   6  -7    2.50    0.65
   8   6  -7    2.67    0.75
  -8  -6   7    3.07    0.79
   7   6  -7   90.04    2.43
   7   6  -7   83.09    2.33
  -7  -6   7   84.96    2.40
   6   6  -7   26.74    1.27
   5   6  -7    5.06    0.67
   4   6  -7   59.27    1.73
  -4  -6   7   60.47    1.74
   3   6  -7   95.22    2.26
  -3  -6   7  100.16    2.37
   2   6  -7    4.19    0.58
  -2  -6   7    3.75    0.72
   1   6  -7  131.44    2.75
  -1  -6   7  129.35    2.95
   0   6  -7   18.18    0.99
   0  -6   7   16.12    1.23
  -1   6  -7   46.26    1.55
   1  -6   7   46.53    1.83
  -2   6  -7   75.30    2.08
   2  -6   7   75.20    2.38
  -3   6  -7    0.22    0.51
   3  -6   7   -0.60    0.72
  -4   6  -7   17.97    1.23
   4  -6   7   21.27    1.65
  -5   6  -7   29.58    1.61
   5  -6   7   28.89    1.98
  10   5  -7   45.84    2.03
 -10  -5   7   41.10    2.01
   9   5  -7    0.67    0.57
   9   5  -7   -0.51    0.58
  -9  -5   7   -1.35    0.58
   8   5  -7   39.25    1.60
   8   5  -7   39.09    1.62
  -8  -5   7   38.15    1.62
   7   5  -7   80.90    2.18
   7   5  -7   80.62    2.19
  -7  -5   7   81.89    2.25
   6   5  -7    6.25    0.75
   6   5  -7    5.16    0.62
   5   5  -7  102.62    2.35
  -5  -5   7   99.61    2.26
   4   5  -7   64.66    1.75
  -4  -5   7   66.44    1.79
   3   5  -7   16.03    0.89
  -3  -5   7   16.06    1.05
   2   5  -7   34.43    1.22
  -2  -5   7   32.97    1.34
   1   5  -7  133.92    2.74
  -1  -5   7  131.18    2.93
   0   5  -7   18.32    1.00
   0  -5   7   19.22    1.23
  -1   5  -7  172.26    3.39
   1  -5   7  168.31    3.63
  -2   5  -7   34.23    1.41
   2  -5   7   33.31    1.70
  -3   5  -7   37.98    1.55
   3  -5   7   38.86    1.82
  -4   5  -7   66.29    2.15
   4  -5   7   67.69    2.39
  -5   5  -7    3.53    0.80
   5  -5   7    5.98    1.12
  -6   5  -7   13.16    1.29
  10   4  -7   16.64    1.39
 -10  -4   7   17.40    1.39
   9   4  -7    9.81    1.01
   9   4  -7   10.84    1.07
  -9  -4   7   11.64    1.10
   8   4  -7  122.69    2.97
   8   4  -7  121.73    2.81
  -8  -4   7  127.63    2.90
   7   4  -7    2.71    0.58
   7   4  -7    2.10    0.50
   6   4  -7   98.63    2.25
   6   4  -7   95.55    2.25
  -6  -4   7   99.99    2.22
   5   4  -7  147.97    2.93
  -5  -4   7  148.73    2.94
   4   4  -7   -0.07    0.31
  -4  -4   7    0.28    0.43
   3   4  -7   92.08    2.10
  -3  -4   7   96.79    2.23
   2   4  -7   49.21    1.46
  -2  -4   7   46.89    1.53
   1   4  -7    0.55    0.38
  -1  -4   7    0.09    0.52
   0   4  -7   63.10    1.74
   0  -4   7   64.68    1.92
  -1   4  -7  141.46    3.00
   1  -4   7  145.28    3.21
  -2   4  -7   19.17    1.17
   2  -4   7   18.28    1.30
  -3   4  -7   91.51    2.46
   3  -4   7   95.91    2.67
  -4   4  -7   10.09    1.06
   4  -4   7    7.25    1.08
  -5   4  -7   12.13    1.19
   5  -4   7    9.98    1.26
  -6   4  -7   28.68    1.78
  11   3  -7   15.64    1.41
 -11  -3   7   16.40    1.37
  10   3  -7    0.29    0.64
 -10  -3   7    0.93    0.67
   9   3  -7   38.08    1.51
   9   3  -7   39.37    1.67
  -9  -3   7   35.98    1.54
   8   3  -7   13.44    1.03
   8   3  -7   14.34    0.99
  -8  -3   7   14.69    1.02
   7   3  -7   29.29    1.22
   7   3  -7   28.78    1.22
   6   3  -7  194.63    3.54
   6   3  -7  196.03    3.65
   6   3  -7  193.15    3.56
  -6  -3   7  193.50    3.57
   5   3  -7   17.18    0.90
   5   3  -7   17.57    0.91
   5   3  -7   16.12    0.76
  -5  -3   7   15.66    0.91
   4   3  -7   95.41    2.17
   4   3  -7   95.78    2.08
  -4  -3   7   95.51    2.20
   3   3  -7   74.75    1.79
   3   3  -7   76.31    1.90
  -3  -3   7   75.15    1.92
   2   3  -7    3.54    0.51
  -2  -3   7    4.35    0.64
   1   3  -7   47.02    1.41
  -1  -3   7   46.62    1.56
   0   3  -7   45.86    1.46
   0  -3   7   45.48    1.60
  -1   3  -7    7.97    0.78
   1  -3   7    8.39    0.90
  -2   3  -7   19.63    1.15
   2  -3   7   18.96    1.28
  -3   3  -7   45.81    1.72
   3  -3   7   43.88    1.85
  -4   3  -7    1.59    0.67
   4  -3   7    1.71    0.82
  -5   3  -7   62.37    2.25
  -6   3  -7   15.52    1.43
  11   2  -7    0.79    0.71
  10   2  -7   24.11    1.50
 -10  -2   7   22.47    1.37
   9   2  -7   35.79    1.56
   9   2  -7   36.55    1.43
  -9  -2   7   36.11    1.48
   8   2  -7    2.75    0.56
   8   2  -7    2.27    0.58
  -8  -2   7    2.77    0.58
   7   2  -7   79.15    1.92
   7   2  -7   76.62    1.90
   7   2  -7   79.15    2.03
   6   2  -7   80.01    1.95
   6   2  -7   84.51    1.91
   6   2  -7   83.48    1.97
   5   2  -7    2.88    0.42
   5   2  -7    3.55    0.49
   5   2  -7    3.74    0.55
  -5  -2   7    3.02    0.54
   4   2  -7  165.94    3.14
   4   2  -7  158.68    2.94
  -4  -2   7  157.15    3.12
   3   2  -7   46.78    1.34
   3   2  -7   48.19    1.45
  -3  -2   7   44.45    1.44
   2   2  -7   82.74    2.02
   2   2  -7   84.46    1.93
  -2  -2   7   83.20    2.06
   1   2  -7   46.30    1.40
  -1  -2   7   43.07    1.49
   0   2  -7   16.57    0.97
   0  -2   7   17.16    1.07
  -1   2  -7    8.76    0.86
   1  -2   7    9.59    0.93
  -2   2  -7   91.59    2.36
   2  -2   7   90.86    2.40
  -3   2  -7   16.63    1.23
   3  -2   7   16.96    1.27
  -4   2  -7   57.68    2.10
   4  -2   7   47.94    1.97
  -5   2  -7   62.87    2.34
  -6   2  -7    1.12    0.83
  11   1  -7   22.80    1.55
  10   1  -7   33.92    1.69
   9   1  -7    0.53    0.56
  -9  -1   7   -0.28    0.46
   8   1  -7   36.53    1.28
   8   1  -7   38.93    1.46
  -8  -1   7   39.05    1.33
   7   1  -7   56.38    1.62
   7   1  -7   57.52    1.52
   7   1  -7   56.86    1.67
   6   1  -7    3.10    0.47
   6   1  -7    3.79    0.56
   6   1  -7    3.36    0.50
   5   1  -7   83.54    2.00
   5   1  -7   82.93    1.84
   5   1  -7   81.38    1.80
   4   1  -7   70.91    1.65
   4   1  -7   71.31    1.56
   4   1  -7   72.56    1.83
  -4  -1   7   70.69    1.57
   3   1  -7   11.77    0.73
   3   1  -7   12.23    0.84
  -3  -1   7   10.64    0.84
   2   1  -7  233.38    4.16
   2   1  -7  225.60    3.91
  -2  -1   7  229.84    4.17
   1   1  -7   58.75    1.68
   1   1  -7   57.33    1.60
   0   1  -7   31.95    1.26
   0  -1   7   33.70    1.35
  -1   1  -7   95.02    2.32
   1  -1   7   91.62    2.35
  -2   1  -7   20.97    1.22
   2  -1   7   22.26    1.29
  -3   1  -7    3.31    0.73
   3  -1   7    1.82    0.72
  -4   1  -7   73.12    2.39
  -5   1  -7   10.13    1.24
  11   0  -7   21.94    1.60
  10   0  -7    4.32    0.82
   9   0  -7   21.60    1.32
   8   0  -7   52.24    1.61
   8   0  -7   52.07    1.75
   7   0  -7    5.41    0.54
   7   0  -7    4.53    0.61
   7   0  -7    4.49    0.63
   6   0  -7   45.34    1.42
   6   0  -7   42.13    1.18
   6   0  -7   43.48    1.38
  -6   0   7   43.79    1.39
   5   0  -7  101.33    2.04
   5   0  -7  101.54    2.19
   5   0  -7  104.01    2.33
  -5   0   7  103.93    2.22
   4   0  -7   25.09    1.08
   4   0  -7   24.65    0.92
  -4   0   7   25.60    0.95
   3   0  -7  138.20    2.59
   3   0  -7  132.77    2.81
  -3   0   7  137.12    2.57
   2   0  -7  144.62    2.81
   2   0  -7  150.51    3.02
  -2   0   7  148.17    3.02
   1   0  -7    9.02    0.79
   1   0  -7    9.09    0.76
  -1   0   7    8.84    0.80
   0   0  -7  187.39    3.61
   0   0  -7  181.29    3.50
   0   0   7  183.54    3.62
  -1   0  -7   46.83    1.63
   1   0   7   45.28    1.61
  -2   0  -7   17.33    1.22
   2   0   7   19.14    1.19
  -3   0  -7   48.60    1.92
  -4   0  -7    6.28    1.01
  -5   0  -7    4.84    1.04
  11  -1  -7   13.41    1.29
  10  -1  -7   11.77    1.15
   9  -1  -7   66.18    2.11
   9  -1  -7   62.41    1.87
   8  -1  -7   19.12    1.20
   8  -1  -7   19.44    1.05
  -8   1   7   20.94    1.23
   7  -1  -7   37.96    1.38
   7  -1  -7   36.83    1.38
  -7   1   7   36.64    1.43
   6  -1  -7  115.99    2.57
   6  -1  -7  115.79    2.54
  -6   1   7  112.99    2.56
   5  -1  -7   12.39    0.86
   5  -1  -7   12.14    0.65
  -5   1   7   11.40    0.85
   4  -1  -7    6.08    0.65
   4  -1  -7    7.19    0.57
  -4   1   7    7.69    0.67
   3  -1  -7  105.71    2.14
   3  -1  -7  104.11    2.39
  -3   1   7  108.09    2.30
   2  -1  -7   13.61    0.82
   2  -1  -7   15.25    0.92
  -2   1   7   13.72    0.91
   1  -1  -7  149.74    2.97
   1  -1  -7  154.76    3.11
  -1   1   7  148.23    3.09
   0  -1  -7  113.07    2.57
   0  -1  -7  114.36    2.57
   0   1   7  115.11    2.60
  -1  -1  -7   30.48    1.28
  -1  -1  -7   29.73    1.38
   1   1   7   28.84    1.30
  -2  -1  -7   68.43    2.16
   2   1   7   65.11    1.97
  -3  -1  -7   26.20    1.56
  -4  -1  -7    3.61    0.94
  -5  -1  -7   31.20    1.94
  11  -2  -7   -0.89    0.65
 -11   2   7   -0.04    0.69
  10  -2  -7   46.62    1.99
 -10   2   7   51.19    2.12
   9  -2  -7   26.08    1.30
   9  -2  -7   30.16    1.50
  -9   2   7   29.34    1.54
   8  -2  -7   19.11    1.09
   8  -2  -7   16.87    1.16
  -8   2   7   18.03    1.23
   7  -2  -7   76.59    2.06
   7  -2  -7   74.98    2.12
  -7   2   7   77.35    2.16
   6  -2  -7   35.51    1.34
  -6   2   7   31.81    1.34
   5  -2  -7   11.57    0.91
  -5   2   7    9.79    0.84
   4  -2  -7   78.90    1.69
   4  -2  -7   78.09    2.04
  -4   2   7   82.46    2.06
   3  -2  -7    0.43    0.42
   3  -2  -7   -0.16    0.31
  -3   2   7   -0.44    0.47
   2  -2  -7   15.03    0.85
   2  -2  -7   15.10    0.93
  -2   2   7   14.19    1.06
   1  -2  -7   71.76    1.94
   1  -2  -7   73.23    1.89
  -1   2   7   71.06    1.93
   0  -2  -7   37.11    1.42
   0  -2  -7   37.21    1.38
   0   2   7   36.06    1.36
  -1  -2  -7   62.37    1.84
  -1  -2  -7   62.81    2.00
   1   2   7   63.55    1.87
  -2  -2  -7  101.39    2.76
  -3  -2  -7    1.42    0.77
  -4  -2  -7   42.18    2.09
  11  -3  -7   21.89    1.65
 -11   3   7   24.34    1.76
  10  -3  -7   21.84    1.53
  10  -3  -7   26.04    1.43
 -10   3   7   19.60    1.53
   9  -3  -7   -0.04    0.60
   9  -3  -7    1.25    0.57
  -9   3   7   -0.13    0.62
   8  -3  -7   72.60    2.15
   8  -3  -7   71.07    2.24
  -8   3   7   74.94    2.30
   7  -3  -7  100.33    2.49
  -7   3   7   98.96    2.60
   6  -3  -7   32.48    1.36
  -6   3   7   33.92    1.50
   5  -3  -7   98.73    2.44
  -5   3   7  107.88    2.59
   4  -3  -7   23.83    1.15
  -4   3   7   23.54    1.29
   3  -3  -7    8.09    0.80
  -3   3   7    8.99    0.94
   2  -3  -7   83.86    2.15
   2  -3  -7   81.02    1.91
  -2   3   7   80.67    2.26
   1  -3  -7   28.14    1.24
   1  -3  -7   25.20    1.15
  -1   3   7   25.03    1.28
   0  -3  -7   12.84    0.94
   0  -3  -7   13.21    1.03
   0   3   7   11.62    0.92
  -1  -3  -7   50.25    1.84
  -1  -3  -7   51.55    1.68
  -2  -3  -7   13.27    1.26
  -3  -3  -7   49.05    2.13
  -4  -3  -7   51.90    2.34
  11  -4  -7   11.89    1.36
 -11   4   7   14.84    1.50
  10  -4  -7    1.53    0.70
  10  -4  -7   -0.16    0.70
 -10   4   7    1.49    0.81
   9  -4  -7   35.60    1.77
   9  -4  -7   37.45    1.64
  -9   4   7   37.41    1.83
   8  -4  -7   47.77    1.83
  -8   4   7   44.78    1.94
   7  -4  -7    1.74    0.61
  -7   4   7    2.57    0.76
   6  -4  -7   42.15    1.59
  -6   4   7   44.71    1.77
   5  -4  -7  123.88    2.86
  -5   4   7  123.28    3.07
   4  -4  -7   10.89    0.91
  -4   4   7   13.88    1.16
   3  -4  -7   80.22    2.16
  -3   4   7   82.67    2.46
   2  -4  -7    8.31    0.83
  -2   4   7   10.02    1.06
   1  -4  -7    1.62    0.51
   1  -4  -7    1.29    0.52
  -1   4   7    1.33    0.67
   0  -4  -7   38.13    1.48
   0  -4  -7   38.51    1.53
   0   4   7   40.47    1.62
  -1  -4  -7    8.94    1.04
  -2  -4  -7   17.35    1.44
  -3  -4  -7   39.94    2.11
  10  -5  -7    5.67    0.94
 -10   5   7    6.70    1.17
   9  -5  -7   27.65    1.52
  -9   5   7   26.06    1.81
   8  -5  -7   15.00    1.26
  -8   5   7   13.02    1.32
   7  -5  -7   18.93    1.27
  -7   5   7   21.71    1.60
   6  -5  -7   40.62    1.63
  -6   5   7   39.35    1.83
   5  -5  -7    7.60    0.84
  -5   5   7    9.40    1.12
   4  -5  -7   22.52    1.25
  -4   5   7   20.99    1.52
   3  -5  -7   98.86    2.53
  -3   5   7  100.15    2.88
   2  -5  -7    0.16    0.47
  -2   5   7    0.34    0.72
   1  -5  -7   72.96    2.12
  -1   5   7   76.73    2.46
   0   5   7   13.53    1.20
  -1  -5  -7    0.34    0.64
  -2  -5  -7   26.74    1.70
  -3  -5  -7   24.85    1.85
  10  -6  -7   30.66    1.70
 -10   6   7   30.01    2.13
   9  -6  -7    5.19    0.90
  -9   6   7    5.54    1.14
   8  -6  -7   15.43    1.31
  -8   6   7   11.77    1.36
   7  -6  -7   33.26    1.61
  -7   6   7   28.21    1.87
   6  -6  -7   22.16    1.36
  -6   6   7   18.44    1.53
   5  -6  -7   16.43    1.20
  -5   6   7   15.95    1.43
   4  -6  -7   91.95    2.52
  -4   6   7   86.75    2.90
   3  -6  -7    4.57    0.75
  -3   6   7    4.70    1.06
   2  -6  -7   25.96    1.37
  -2   6   7   27.49    1.80
  -1   6   7   56.97    2.24
   0   6   7    7.19    1.03
   9  -7  -7    0.55    0.72
  -9   7   7    2.77    1.14
   8  -7  -7   49.86    2.05
  -8   7   7   49.99    2.50
   7  -7  -7   21.61    1.52
  -7   7   7   18.28    1.65
   6  -7  -7    7.20    0.97
  -6   7   7    7.23    1.22
   5  -7  -7   28.62    1.53
  -5   7   7   27.74    1.98
   4  -7  -7   13.34    1.15
  -4   7   7   13.26    1.48
   3  -7  -7    1.72    0.67
  -3   7   7    2.73    1.03
   2  -7  -7   74.17    2.28
  -2   7   7   71.96    2.77
  -1   7   7    9.20    1.25
   0   7   7   22.80    1.78
   8  -8  -7   25.06    1.65
  -8   8   7   21.67    1.94
   7  -8  -7    0.04    0.69
  -7   8   7    0.98    1.01
   6  -8  -7   28.01    1.65
  -6   8   7   31.30    2.20
   5  -8  -7   23.28    1.50
  -5   8   7   22.36    1.93
   4  -8  -7    3.86    0.84
  -4   8   7    4.53    1.26
   3  -8  -7   43.46    1.83
  -3   8   7   38.66    2.41
  -2   8   7   15.74    1.65
  -1   8   7    5.04    1.19
   3  11  -8    3.86    0.83
   2  11  -8   26.28    1.46
   1  11  -8   58.45    2.05
  -1 -11   8   58.95    2.34
   0 -11   8    2.12    0.98
   5  10  -8   40.02    1.82
   4  10  -8   29.05    1.54
   3  10  -8   16.54    1.26
   2  10  -8   52.35    1.88
  -2 -10   8   53.44    2.15
   1  10  -8    7.78    0.92
  -1 -10   8    7.11    1.10
   0  10  -8   15.36    1.18
   0 -10   8   14.96    1.46
  -1  10  -8   44.02    1.75
   1 -10   8   44.58    2.19
   2 -10   8    1.98    1.01
   7   9  -8   -0.86    0.64
  -7  -9   8    0.06    0.72
   6   9  -8   46.97    1.98
  -6  -9   8   45.48    1.95
   5   9  -8   28.02    1.51
   4   9  -8    1.06    0.61
   3   9  -8   28.05    1.38
   2   9  -8   33.39    1.47
  -2  -9   8   30.45    1.61
   1   9  -8    5.54    0.77
  -1  -9   8    5.27    0.99
   0   9  -8   76.72    2.22
   0  -9   8   74.74    2.55
  -1   9  -8    7.02    0.86
   1  -9   8    6.09    1.12
  -2   9  -8   12.40    1.11
   2  -9   8   11.89    1.37
  -3   9  -8   31.75    1.67
   3  -9   8   31.19    2.12
   8   8  -8    0.86    0.77
  -8  -8   8    1.14    0.84
   7   8  -8   33.72    1.71
  -7  -8   8   39.68    1.83
   6   8  -8   27.08    1.47
   5   8  -8    4.07    0.75
   4   8  -8   48.06    1.77
   3   8  -8   61.93    1.94
  -3  -8   8   60.21    2.03
   2   8  -8    4.52    0.71
  -2  -8   8    3.70    0.81
   1   8  -8   56.64    1.82
  -1  -8   8   55.85    2.08
   0   8  -8   32.49    1.42
   0  -8   8   29.00    1.69
  -1   8  -8    0.07    0.49
   1  -8   8   -0.05    0.78
  -2   8  -8   47.60    1.76
   2  -8   8   48.16    2.20
  -3   8  -8   14.28    1.18
   3  -8   8   15.28    1.50
  -4   8  -8    8.24    1.00
   4  -8   8   10.22    1.43
   9   7  -8    9.11    1.14
  -9  -7   8   10.69    1.23
   8   7  -8   12.18    1.19
  -8  -7   8   12.01    1.20
   7   7  -8   61.27    2.12
  -7  -7   8   62.59    2.20
   6   7  -8    9.02    0.95
   5   7  -8   39.11    1.56
   4   7  -8   48.52    1.68
  -4  -7   8   49.82    1.74
   3   7  -8    2.62    0.60
  -3  -7   8    2.40    0.71
   2   7  -8   18.86    1.07
  -2  -7   8   16.31    1.26
   1   7  -8   93.35    2.38
  -1  -7   8   98.09    2.67
   0   7  -8    4.75    0.72
   0  -7   8    5.14    0.95
  -1   7  -8   33.76    1.49
   1  -7   8   36.06    1.84
  -2   7  -8   41.22    1.67
   2  -7   8   38.27    1.98
  -3   7  -8    3.79    0.76
   3  -7   8    1.99    1.02
  -4   7  -8   55.33    2.07
   4  -7   8   53.98    2.45
   9   6  -8   -0.26    0.62
  -9  -6   8    1.34    0.73
   8   6  -8   79.83    2.43
  -8  -6   8   80.00    2.46
   7   6  -8   29.14    1.42
   6   6  -8   16.00    1.14
   5   6  -8   58.71    1.83
  -5  -6   8   61.49    1.82
   4   6  -8   13.96    0.97
  -4  -6   8   13.70    1.03
   3   6  -8   28.34    1.25
  -3  -6   8   29.03    1.38
   2   6  -8   82.62    2.16
  -2  -6   8   84.39    2.33
   1   6  -8    4.83    0.69
  -1  -6   8    4.78    0.84
   0   6  -8   13.55    1.02
   0  -6   8   12.88    1.21
  -1   6  -8   65.75    2.01
   1  -6   8   69.08    2.39
  -2   6  -8    6.07    0.83
   2  -6   8    5.48    1.02
  -3   6  -8   59.50    2.08
   3  -6   8   62.50    2.51
  -4   6  -8   49.31    1.96
   4  -6   8   48.85    2.36
  10   5  -8    0.13    0.67
  10   5  -8    0.24    0.60
 -10  -5   8   -1.60    0.63
   9   5  -8   22.65    1.39
   9   5  -8   20.41    1.36
  -9  -5   8   23.02    1.44
   8   5  -8   54.11    1.87
  -8  -5   8   50.89    1.87
   7   5  -8    0.89    0.54
   6   5  -8   75.92    2.10
   5   5  -8   41.56    1.48
  -5  -5   8   43.66    1.48
   4   5  -8   27.57    1.19
  -4  -5   8   26.28    1.25
   3   5  -8   62.40    1.77
  -3  -5   8   62.42    1.93
   2   5  -8   43.60    1.49
  -2  -5   8   46.61    1.70
   1   5  -8   22.78    1.12
  -1  -5   8   25.36    1.39
   0   5  -8   88.76    2.31
   0  -5   8   93.44    2.55
  -1   5  -8    3.73    0.68
   1  -5   8    5.37    0.95
  -2   5  -8   13.84    1.12
   2  -5   8   16.02    1.39
  -3   5  -8   27.57    1.47
   3  -5   8   24.48    1.71
  -4   5  -8   12.88    1.24
   4  -5   8   15.10    1.50
  -5   5  -8   22.79    1.59
   5  -5   8   23.86    1.87
  10   4  -8   10.66    1.10
  10   4  -8   10.15    1.11
 -10  -4   8   12.36    1.17
   9   4  -8   37.09    1.65
   9   4  -8   39.17    1.61
  -9  -4   8   37.42    1.60
   8   4  -8    2.73    0.64
   8   4  -8    2.80    0.61
  -8  -4   8    2.66    0.65
   7   4  -8   22.88    1.16
   6   4  -8  123.79    2.70
  -6  -4   8  122.42    2.68
   5   4  -8   24.26    1.11
  -5  -4   8   22.92    1.13
   4   4  -8  154.29    3.07
  -4  -4   8  154.37    3.22
   3   4  -8  145.60    2.98
  -3  -4   8  151.63    3.18
   2   4  -8   26.92    1.16
  -2  -4   8   24.95    1.30
   1   4  -8  103.66    2.43
  -1  -4   8  104.31    2.62
   0   4  -8   27.02    1.22
   0  -4   8   26.17    1.42
  -1   4  -8    5.99    0.78
   1  -4   8    4.44    0.86
  -2   4  -8   51.16    1.85
   2  -4   8   60.63    2.15
  -3   4  -8    5.32    0.84
   3  -4   8    5.40    1.01
  -4   4  -8   15.94    1.36
   4  -4   8   13.42    1.44
  -5   4  -8   34.37    1.89
  11   3  -8   20.75    1.59
 -11  -3   8   21.40    1.64
  10   3  -8   35.28    1.61
  10   3  -8   37.93    1.77
 -10  -3   8   31.13    1.57
   9   3  -8    1.25    0.57
   9   3  -8    1.42    0.59
  -9  -3   8    1.89    0.62
   8   3  -8   32.09    1.37
   8   3  -8   31.25    1.37
   7   3  -8  118.89    2.58
  -7  -3   8  113.42    2.57
   6   3  -8   16.04    0.93
   6   3  -8   18.16    1.02
  -6  -3   8   17.19    1.04
   5   3  -8   74.79    1.95
   5   3  -8   72.58    1.85
  -5  -3   8   70.27    1.93
   4   3  -8   84.55    2.02
   4   3  -8   82.82    2.13
  -4  -3   8   83.31    2.15
   3   3  -8   10.24    0.84
   3   3  -8   11.44    0.93
  -3  -3   8    9.34    0.88
   2   3  -8   99.71    2.30
  -2  -3   8   97.75    2.45
   1   3  -8   89.18    2.20
  -1  -3   8   91.65    2.39
   0   3  -8    8.05    0.79
   0  -3   8    8.81    0.97
  -1   3  -8  101.93    2.55
   1  -3   8  103.16    2.71
  -2   3  -8    9.76    0.99
   2  -3   8    9.63    1.07
  -3   3  -8   16.74    1.33
   3  -3   8   13.34    1.28
  -4   3  -8   44.39    1.94
   4  -3   8   41.95    2.09
  -5   3  -8   10.31    1.22
  11   2  -8   26.80    1.64
  10   2  -8   23.49    1.44
   9   2  -8   51.11    1.69
   9   2  -8   53.73    1.89
  -9  -2   8   52.61    1.73
   8   2  -8   64.37    1.81
   8   2  -8   61.89    1.87
   7   2  -8    0.29    0.40
   7   2  -8    0.58    0.42
   7   2  -8    0.66    0.45
   6   2  -8   12.04    0.92
   6   2  -8   12.83    0.82
  -6  -2   8   10.77    0.88
   5   2  -8   68.04    1.72
   5   2  -8   66.79    1.87
  -5  -2   8   68.42    1.88
   4   2  -8   12.83    0.91
   4   2  -8   12.15    0.84
  -4  -2   8   12.42    0.95
   3   2  -8   56.26    1.59
   3   2  -8   57.42    1.74
  -3  -2   8   58.47    1.79
   2   2  -8   75.07    2.02
   2   2  -8   70.20    1.87
  -2  -2   8   72.85    2.03
   1   2  -8   17.58    1.00
  -1  -2   8   20.71    1.19
   0   2  -8   26.22    1.25
   0  -2   8   27.73    1.40
  -1   2  -8   74.02    2.12
   1  -2   8   72.78    2.22
  -2   2  -8    0.92    0.61
   2  -2   8    1.03    0.72
  -3   2  -8   51.02    1.96
   3  -2   8   50.32    2.02
  -4   2  -8   28.95    1.67
  -5   2  -8    2.60    0.91
  11   1  -8   18.87    1.51
  10   1  -8   -0.26    0.57
   9   1  -8   45.06    1.74
   8   1  -8   42.37    1.51
   8   1  -8   44.73    1.59
   8   1  -8   42.10    1.39
   7   1  -8   33.62    1.27
   7   1  -8   34.71    1.34
   7   1  -8   32.31    1.17
   6   1  -8  117.89    2.43
   6   1  -8  119.82    2.56
   6   1  -8  119.63    2.67
  -6  -1   8  117.76    2.53
   5   1  -8    2.99    0.50
   5   1  -8    3.29    0.58
   4   1  -8    2.68    0.49
   4   1  -8    3.63    0.60
  -4  -1   8    2.26    0.56
   3   1  -8  122.76    2.75
   3   1  -8  121.63    2.54
  -3  -1   8  122.51    2.76
   2   1  -8   84.29    2.04
  -2  -1   8   83.78    2.21
   1   1  -8   11.23    0.87
   1   1  -8   12.68    1.01
  -1  -1   8   11.28    0.98
   0   1  -8   68.27    1.96
   0  -1   8   67.68    2.05
  -1   1  -8    5.90    0.80
   1  -1   8    6.13    0.85
  -2   1  -8   24.31    1.44
   2  -1   8   23.27    1.47
  -3   1  -8   46.69    1.93
   3  -1   8   44.49    1.91
  -4   1  -8    0.20    0.72
  11   0  -8    6.32    1.04
  10   0  -8   21.13    1.37
   9   0  -8   50.51    1.83
   8   0  -8    0.22    0.45
   8   0  -8    0.73    0.49
  -8   0   8    0.71    0.51
   7   0  -8   43.47    1.50
   7   0  -8   48.91    1.60
  -7   0   8   47.24    1.57
   6   0  -8   65.18    1.60
   6   0  -8   63.79    1.87
   6   0  -8   63.24    1.72
  -6   0   8   65.13    1.76
   5   0  -8    1.08    0.39
   5   0  -8    1.57    0.52
  -5   0   8    2.26    0.48
   4   0  -8  178.77    3.22
   4   0  -8  172.10    3.52
   3   0  -8   57.62    1.58
   3   0  -8   58.04    1.76
   2   0  -8    3.86    0.57
   2   0  -8    2.97    0.58
  -2   0   8    2.93    0.60
   1   0  -8   48.92    1.58
   1   0  -8   49.23    1.66
  -1   0   8   46.12    1.65
   0   0  -8   38.54    1.52
   0   0  -8   39.12    1.54
   0   0   8   41.36    1.59
  -1   0  -8    9.01    0.94
   1   0   8   11.34    1.05
  -2   0  -8   55.06    2.00
   2   0   8   55.14    1.96
  -3   0  -8   10.50    1.15
  -4   0  -8   28.81    1.78
  11  -1  -8    6.66    1.04
 -11   1   8    3.88    0.91
  10  -1  -8   16.59    1.31
 -10   1   8   20.24    1.42
   9  -1  -8   18.95    1.20
   9  -1  -8   18.13    1.22
  -9   1   8   18.64    1.29
   8  -1  -8   11.37    0.99
   8  -1  -8   12.48    1.01
  -8   1   8   11.42    1.01
   7  -1  -8  129.24    2.91
   7  -1  -8  124.67    2.84
  -7   1   8  123.53    2.87
   6  -1  -8    0.90    0.50
  -6   1   8    1.67    0.52
   5  -1  -8  100.27    2.09
   5  -1  -8  100.70    2.45
  -5   1   8  103.53    2.37
   4  -1  -8   51.42    1.42
   4  -1  -8   50.75    1.66
   3  -1  -8    0.68    0.39
   3  -1  -8    0.95    0.50
   2  -1  -8  108.79    2.39
   2  -1  -8  108.63    2.57
  -2   1   8  101.85    2.55
   1  -1  -8  102.52    2.52
   1  -1  -8  103.43    2.44
  -1   1   8  101.78    2.53
   0  -1  -8    1.77    0.59
   0  -1  -8    1.51    0.60
   0   1   8    2.27    0.64
  -1  -1  -8   57.03    1.94
   1   1   8   57.29    1.91
  -2  -1  -8   34.47    1.73
  -3  -1  -8    8.47    1.12
  -4  -1  -8   41.45    2.11
  11  -2  -8   19.96    1.61
 -11   2   8   21.74    1.66
  10  -2  -8    4.84    0.91
  10  -2  -8    5.45    0.80
 -10   2   8    5.17    0.93
   9  -2  -8   12.18    1.06
   9  -2  -8   10.72    1.08
  -9   2   8   13.63    1.22
   8  -2  -8   41.69    1.63
   8  -2  -8   38.23    1.64
  -8   2   8   42.26    1.70
   7  -2  -8    4.45    0.71
  -7   2   8    3.83    0.68
   6  -2  -8   30.04    1.34
  -6   2   8   31.54    1.40
   5  -2  -8  109.95    2.64
  -5   2   8  112.13    2.65
   4  -2  -8    0.28    0.45
  -4   2   8    0.97    0.59
   3  -2  -8  120.90    2.51
   3  -2  -8  120.81    2.80
   2  -2  -8   62.38    1.74
   2  -2  -8   62.17    1.90
   1  -2  -8    2.98    0.59
   1  -2  -8    1.77    0.59
  -1   2   8    2.55    0.61
   0  -2  -8   38.72    1.57
   0  -2  -8   36.32    1.47
   0   2   8   35.38    1.53
  -1  -2  -8   36.02    1.61
  -1  -2  -8   34.92    1.54
   1   2   8   34.75    1.54
  -2  -2  -8    2.14    0.78
  -3  -2  -8   35.70    1.92
  11  -3  -8    7.28    1.12
 -11   3   8    7.21    1.16
  10  -3  -8    4.66    0.93
  10  -3  -8    4.09    0.78
 -10   3   8    5.19    0.96
   9  -3  -8   17.40    1.35
   9  -3  -8   17.96    1.29
  -9   3   8   20.19    1.44
   8  -3  -8   26.17    1.39
  -8   3   8   26.62    1.55
   7  -3  -8    1.35    0.55
  -7   3   8    1.59    0.69
   6  -3  -8   58.96    1.90
  -6   3   8   52.80    1.89
   5  -3  -8   21.74    1.21
  -5   3   8   19.22    1.30
   4  -3  -8   17.92    1.13
  -4   3   8   18.20    1.28
   3  -3  -8   96.04    2.48
  -3   3   8   96.71    2.68
   2  -3  -8   23.28    1.09
   2  -3  -8   22.24    1.26
   1  -3  -8   60.54    1.84
   1  -3  -8   61.61    1.92
   0  -3  -8   41.90    1.63
   0  -3  -8   41.60    1.63
   0   3   8   45.04    1.68
  -1  -3  -8   -0.21    0.57
  -2  -3  -8   24.34    1.67
  -3  -3  -8   29.26    1.84
  10  -4  -8   38.80    1.77
 -10   4   8   38.30    1.99
   9  -4  -8   21.43    1.37
  -9   4   8   21.78    1.57
   8  -4  -8    1.02    0.62
  -8   4   8    0.56    0.71
   7  -4  -8   13.24    1.11
  -7   4   8   13.53    1.24
   6  -4  -8   46.16    1.74
  -6   4   8   44.20    1.91
   5  -4  -8    0.59    0.52
  -5   4   8   -0.35    0.70
   4  -4  -8  121.03    2.93
  -4   4   8  120.28    3.16
   3  -4  -8   21.03    1.24
  -3   4   8   21.71    1.55
   2  -4  -8   26.48    1.38
   1  -4  -8   64.12    2.02
   0  -4  -8   10.66    1.04
  -1  -4  -8   27.95    1.59
  -2  -4  -8   58.21    2.33
  10  -5  -8   20.80    1.57
 -10   5   8   21.39    1.75
   9  -5  -8    1.84    0.73
  -9   5   8    1.93    0.94
   8  -5  -8   43.26    1.84
  -8   5   8   40.89    2.03
   7  -5  -8   23.22    1.41
  -7   5   8   20.20    1.63
   6  -5  -8   13.22    1.17
  -6   5   8   10.55    1.23
   5  -5  -8   35.60    1.60
  -5   5   8   35.16    1.92
   4  -5  -8   21.19    1.32
  -4   5   8   25.09    1.74
   3  -5  -8   -0.66    0.49
  -3   5   8    0.31    0.76
   2  -5  -8   51.83    1.86
  -2   5   8   49.51    2.21
   1  -5  -8   20.41    1.32
   9  -6  -8   21.82    1.56
  -9   6   8   22.54    1.85
   8  -6  -8   23.78    1.54
  -8   6   8   23.32    1.91
   7  -6  -8    2.49    0.76
  -7   6   8    1.59    0.92
   6  -6  -8   23.80    1.46
  -6   6   8   21.48    1.75
   5  -6  -8   39.58    1.79
  -5   6   8   38.31    2.11
   4  -6  -8   -1.14    0.53
  -4   6   8    0.96    0.93
   3  -6  -8   15.71    1.27
  -3   6   8   11.74    1.37
   2  -6  -8   30.78    1.57
  -2   6   8   30.30    1.90
   8  -7  -8   14.59    1.35
  -8   7   8   13.55    1.56
   7  -7  -8   14.54    1.36
  -7   7   8   10.97    1.49
   6  -7  -8   22.66    1.58
  -6   7   8   21.65    1.84
   5  -7  -8    4.39    0.89
  -5   7   8    4.92    1.19
   4  -7  -8   12.43    1.22
  -4   7   8   11.22    1.51
   3  -7  -8   51.32    2.07
  -3   7   8   52.31    2.46
  -2   7   8    1.68    0.98
   6  -8  -8   22.61    1.61
  -6   8   8   26.41    2.20
   5  -8  -8   14.31    1.34
  -5   8   8   15.91    1.78
   4  -8  -8   40.77    1.99
  -4   8   8   44.34    2.61
   4  10  -9   10.83    1.11
   3  10  -9   67.95    2.25
   2  10  -9    4.18    0.83
  -2 -10   9    4.23    1.04
   1  10  -9   21.58    1.41
  -1 -10   9   21.75    1.71
   0  10  -9   28.17    1.51
   0 -10   9   30.18    2.10
   6   9  -9   31.67    1.75
   5   9  -9   19.64    1.37
   4   9  -9   79.27    2.40
   3   9  -9    5.91    0.90
  -3  -9   9    4.82    0.97
   2   9  -9   16.14    1.20
  -2  -9   9   15.63    1.43
   1   9  -9   64.58    2.10
  -1  -9   9   62.17    2.44
   0   9  -9    8.85    0.99
   0  -9   9    9.11    1.27
  -1   9  -9   13.56    1.19
   1  -9   9   10.29    1.38
  -2   9  -9   26.02    1.55
   2  -9   9   26.29    2.01
   7   8  -9   23.29    1.56
   6   8  -9   -0.74    0.55
   5   8  -9   58.11    2.03
   4   8  -9   52.16    1.86
  -4  -8   9   47.10    1.91
   3   8  -9   16.12    1.17
  -3  -8   9   17.87    1.38
   2   8  -9   87.10    2.42
  -2  -8   9   86.68    2.69
   1   8  -9   19.28    1.22
  -1  -8   9   15.29    1.37
   0   8  -9   11.91    1.09
   0  -8   9    8.03    1.16
  -1   8  -9   31.17    1.54
   1  -8   9   33.13    2.07
  -2   8  -9    5.41    0.90
   2  -8   9    4.99    1.23
   8   7  -9   32.02    1.70
  -8  -7   9   36.60    1.79
   7   7  -9   -0.25    0.56
   6   7  -9   32.36    1.52
   5   7  -9   30.75    1.45
   4   7  -9    0.84    0.53
  -4  -7   9   -0.37    0.62
   3   7  -9   35.14    1.49
  -3  -7   9   34.20    1.65
   2   7  -9   55.18    1.84
  -2  -7   9   55.77    2.12
   1   7  -9    1.54    0.57
  -1  -7   9    1.84    0.83
   0   7  -9   44.85    1.77
   0  -7   9   43.14    2.04
  -1   7  -9   18.56    1.30
   1  -7   9   17.04    1.48
  -2   7  -9    8.52    1.05
   2  -7   9    7.84    1.29
  -3   7  -9   29.23    1.66
   3  -7   9   29.29    2.05
   9   6  -9   48.69    2.02
  -9  -6   9   42.46    1.99
   8   6  -9    1.16    0.65
   7   6  -9    7.94    0.92
   6   6  -9   18.60    1.21
   5   6  -9   12.15    1.05
  -5  -6   9   12.74    1.08
   4   6  -9   34.66    1.42
  -4  -6   9   28.97    1.51
   3   6  -9   87.78    2.33
  -3  -6   9   89.51    2.51
   2   6  -9    8.56    0.86
  -2  -6   9    8.15    1.02
   1   6  -9   44.48    1.68
  -1  -6   9   48.90    1.99
   0   6  -9   55.88    1.92
   0  -6   9   60.59    2.25
  -1   6  -9    1.52    0.63
   1  -6   9    0.67    0.85
  -2   6  -9   46.13    1.86
   2  -6   9   44.72    2.20
  -3   6  -9   34.81    1.74
   3  -6   9   40.24    2.21
  10   5  -9   21.44    1.54
 -10  -5   9   25.83    1.60
   9   5  -9   20.65    1.38
  -9  -5   9   22.60    1.43
   8   5  -9    1.58    0.63
   7   5  -9   61.13    1.94
   6   5  -9   12.48    1.01
  -6  -5   9   12.11    1.01
   5   5  -9   53.09    1.74
  -5  -5   9   54.53    1.82
   4   5  -9   72.52    2.04
  -4  -5   9   76.59    2.22
   3   5  -9   32.84    1.36
  -3  -5   9   28.83    1.49
   2   5  -9   25.63    1.27
  -2  -5   9   26.63    1.50
   1   5  -9   93.11    2.39
  -1  -5   9   89.75    2.61
   0   5  -9   10.44    0.98
   0  -5   9    8.50    1.09
  -1   5  -9   43.58    1.73
   1  -5   9   42.74    1.99
  -2   5  -9   58.35    2.11
   2  -5   9   57.59    2.35
  -3   5  -9    0.08    0.62
   3  -5   9   -1.36    0.87
  -4   5  -9   29.12    1.73
   4  -5   9   35.17    2.29
  10   4  -9   36.22    1.72
 -10  -4   9   36.84    1.77
   9   4  -9    0.21    0.59
  -9  -4   9   -0.13    0.58
   8   4  -9   48.14    1.72
   7   4  -9   20.76    1.20
   6   4  -9    6.84    0.78
  -6  -4   9    8.64    0.89
   5   4  -9   69.62    1.96
  -5  -4   9   74.68    2.15
   4   4  -9   24.05    1.16
  -4  -4   9   26.07    1.36
   3   4  -9   13.48    0.96
  -3  -4   9   12.76    1.05
   2   4  -9   63.36    1.89
  -2  -4   9   62.90    2.08
   1   4  -9   22.59    1.24
  -1  -4   9   19.97    1.39
   0   4  -9   12.35    1.06
   0  -4   9   12.84    1.21
  -1   4  -9   70.92    2.22
   1  -4   9   70.66    2.47
  -2   4  -9    3.95    0.80
   2  -4   9    3.20    0.95
  -3   4  -9   22.80    1.57
   3  -4   9   18.15    1.59
  -4   4  -9   45.30    2.08
   4  -4   9   48.80    2.41
  10   3  -9    6.34    0.90
 -10  -3   9    6.06    0.89
   9   3  -9    8.91    0.93
  -9  -3   9   10.62    1.00
   8   3  -9   50.19    1.70
   7   3  -9    8.49    0.85
   7   3  -9   10.51    0.90
  -7  -3   9    9.97    0.91
   6   3  -9   86.11    2.26
   6   3  -9   80.20    2.10
  -6  -3   9   84.42    2.27
   5   3  -9   31.56    1.37
   5   3  -9   28.91    1.22
  -5  -3   9   28.87    1.40
   4   3  -9    9.99    0.84
   4   3  -9   11.41    0.99
  -4  -3   9   12.84    1.07
   3   3  -9   79.47    2.08
  -3  -3   9   77.35    2.24
   2   3  -9   58.62    1.79
  -2  -3   9   56.68    1.95
   1   3  -9    3.70    0.65
  -1  -3   9    4.62    0.82
   0   3  -9   62.73    1.98
   0  -3   9   65.70    2.21
  -1   3  -9   26.41    1.42
   1  -3   9   27.49    1.61
  -2   3  -9    3.57    0.81
   2  -3   9    2.40    0.93
  -3   3  -9   51.09    2.08
   3  -3   9   55.81    2.36
  -4   3  -9   14.82    1.41
  11   2  -9    5.31    0.93
  10   2  -9    7.57    0.97
  -9  -2   9   55.61    1.80
   8   2  -9    6.05    0.73
  -8  -2   9    5.51    0.75
   7   2  -9   15.91    1.11
   7   2  -9   18.15    1.00
  -7  -2   9   18.37    1.14
   6   2  -9   70.48    1.89
   6   2  -9   71.88    2.07
  -6  -2   9   72.05    2.07
   5   2  -9    9.49    0.91
   5   2  -9    8.20    0.75
  -5  -2   9    8.78    0.92
   4   2  -9  133.95    3.04
   4   2  -9  136.58    2.86
  -4  -2   9  134.06    3.08
   3   2  -9   99.11    2.54
   3   2  -9  103.93    2.41
  -3  -2   9  102.29    2.61
   2   2  -9    9.11    0.92
   2   2  -9   10.00    0.90
  -2  -2   9    9.72    0.98
   1   2  -9   47.86    1.65
  -1  -2   9   44.50    1.78
   0   2  -9   42.67    1.64
   0  -2   9   38.90    1.77
  -1   2  -9    3.07    0.76
   1  -2   9    2.06    0.84
  -2   2  -9   33.93    1.66
   2  -2   9   31.18    1.80
  -3   2  -9   15.96    1.40
   3  -2   9   17.80    1.52
  -4   2  -9    3.67    0.95
  11   1  -9   11.55    1.23
  10   1  -9   28.38    1.56
   9   1  -9    8.67    0.92
   8   1  -9    0.15    0.50
   7   1  -9   70.61    1.85
   7   1  -9   73.17    2.10
   6   1  -9   21.60    1.20
   6   1  -9   21.48    1.02
   5   1  -9   30.04    1.18
   5   1  -9   30.58    1.41
  -5  -1   9   30.49    1.42
   4   1  -9   98.27    2.50
   4   1  -9   97.47    2.29
  -4  -1   9   96.22    2.49
   3   1  -9   15.14    0.98
   3   1  -9   16.70    1.12
  -3  -1   9   14.96    1.12
   2   1  -9   55.25    1.72
   2   1  -9   54.95    1.86
  -2  -1   9   58.10    1.93
   1   1  -9   66.91    2.12
   1   1  -9   66.43    1.97
  -1  -1   9   69.37    2.16
   0   1  -9    3.83    0.71
   0  -1   9    5.15    0.88
  -1   1  -9   45.51    1.82
   1  -1   9   47.50    1.90
  -2   1  -9   33.10    1.72
   2  -1   9   31.19    1.78
  -3   1  -9    1.04    0.73
  11   0  -9   27.52    1.71
 -11   0   9   30.71    1.80
  10   0  -9   31.35    1.62
 -10   0   9   28.76    1.57
   9   0  -9    6.88    0.89
   9   0  -9    8.36    0.92
  -9   0   9    8.78    0.98
   8   0  -9   37.59    1.56
  -8   0   9   41.55    1.61
   7   0  -9    7.42    0.85
   6   0  -9    4.62    0.71
   6   0  -9    4.56    0.57
   5   0  -9   56.22    1.59
   5   0  -9   55.82    1.87
   4   0  -9   30.26    1.38
   4   0  -9   31.83    1.22
   3   0  -9   20.32    1.04
   3   0  -9   18.45    1.18
  -3   0   9   18.75    1.18
   2   0  -9   65.19    2.03
   2   0  -9   63.57    1.90
  -2   0   9   68.17    2.09
   1   0  -9   16.36    1.20
   1   0  -9   14.10    1.05
  -1   0   9   18.65    1.28
   0   0  -9   45.47    1.74
   0   0   9   41.01    1.81
  -1   0  -9   61.67    2.12
   1   0   9   62.80    2.21
  -2   0  -9    1.22    0.70
  -3   0  -9   16.36    1.47
  11  -1  -9   20.94    1.61
 -11   1   9   22.71    1.70
  10  -1  -9   -0.26    0.62
 -10   1   9    0.77    0.69
   9  -1  -9   26.08    1.46
   9  -1  -9   24.77    1.35
  -9   1   9   26.24    1.50
   8  -1  -9   26.90    1.37
   8  -1  -9   31.12    1.44
  -8   1   9   26.55    1.39
   7  -1  -9   17.26    1.15
  -7   1   9   14.83    1.12
   6  -1  -9   46.24    1.72
   5  -1  -9   24.66    1.31
   4  -1  -9    0.38    0.54
   4  -1  -9   -0.10    0.38
   3  -1  -9   51.64    1.81
   3  -1  -9   50.55    1.59
   2  -1  -9   42.70    1.51
   2  -1  -9   41.28    1.66
  -2   1   9   40.56    1.66
   1  -1  -9    2.43    0.68
   1  -1  -9    2.24    0.61
  -1   1   9    2.68    0.74
   0  -1  -9   44.21    1.81
   0  -1  -9   46.25    1.75
   0   1   9   41.02    1.79
  -1  -1  -9   24.97    1.51
   1   1   9   22.82    1.49
  -2  -1  -9    9.35    1.18
  -3  -1  -9   49.70    2.20
  11  -2  -9   13.57    1.37
 -11   2   9   11.72    1.33
  10  -2  -9   13.44    1.20
  10  -2  -9   14.84    1.29
 -10   2   9   13.71    1.33
   9  -2  -9   35.68    1.68
   9  -2  -9   30.99    1.61
  -9   2   9   38.00    1.78
   8  -2  -9    3.69    0.75
  -8   2   9    2.96    0.75
   7  -2  -9   33.69    1.54
  -7   2   9   34.54    1.57
   6  -2  -9   74.89    2.22
   5  -2  -9    0.36    0.51
   4  -2  -9   64.72    2.05
   3  -2  -9   51.08    1.85
   3  -2  -9   50.70    1.69
   2  -2  -9    3.76    0.65
   2  -2  -9    2.41    0.69
  -2   2   9    3.51    0.72
   1  -2  -9   58.43    2.00
   1  -2  -9   55.93    1.84
  -1   2   9   58.50    2.03
   0  -2  -9   28.93    1.49
   0  -2  -9   28.22    1.43
   0   2   9   27.00    1.49
  -1  -2  -9    5.40    0.90
  -2  -2  -9   47.43    2.07
  10  -3  -9   11.12    1.15
 -10   3   9   11.82    1.28
   9  -3  -9   19.21    1.41
  -9   3   9   19.60    1.48
   8  -3  -9    9.10    1.01
  -8   3   9   11.62    1.19
   7  -3  -9   51.31    1.93
  -7   3   9   52.54    2.02
   6  -3  -9    0.96    0.61
  -6   3   9    0.83    0.70
   5  -3  -9   42.20    1.71
   4  -3  -9   76.56    2.31
   3  -3  -9   -0.05    0.55
   2  -3  -9   55.10    1.94
   1  -3  -9   40.40    1.74
   1  -3  -9   39.26    1.59
  -1   3   9   37.93    1.68
   0  -3  -9   -0.42    0.60
   0  -3  -9    1.75    0.64
  -1  -3  -9   40.41    1.89
  10  -4  -9   13.45    1.28
 -10   4   9   14.13    1.45
   9  -4  -9    0.07    0.62
  -9   4   9    1.04    0.86
   8  -4  -9   16.90    1.32
  -8   4   9   16.42    1.45
   7  -4  -9    7.96    0.99
  -7   4   9    9.64    1.14
   6  -4  -9   19.10    1.31
  -6   4   9   13.27    1.30
   5  -4  -9   67.45    2.21
   4  -4  -9    4.19    0.82
   3  -4  -9   17.94    1.28
   2  -4  -9   56.39    2.05
   1  -4  -9    3.83    0.84
  -1   4   9    5.93    0.88
  -1  -4  -9   28.84    1.72
   9  -5  -9   21.22    1.52
  -9   5   9   18.63    1.69
   8  -5  -9   19.58    1.45
  -8   5   9   19.82    1.65
   7  -5  -9    2.08    0.75
  -7   5   9    2.26    0.96
   6  -5  -9   34.78    1.73
  -6   5   9   33.23    1.97
   5  -5  -9   19.99    1.40
  -5   5   9   16.94    1.52
   4  -5  -9    7.80    1.00
   3  -5  -9   57.30    2.10
   2  -5  -9    3.52    0.83
   8  -6  -9    0.12    0.69
  -8   6   9   -1.07    0.90
   7  -6  -9    9.49    1.17
  -7   6   9    8.51    1.33
   6  -6  -9   28.51    1.68
  -6   6   9   30.60    2.13
   5  -6  -9    0.61    0.71
  -5   6   9    1.64    0.99
   4  -6  -9   30.28    1.66
   3  -6  -9    9.98    1.13
   6  -7  -9    0.31    0.73
  -6   7   9    0.31    1.09
   5  -7  -9   11.88    1.32
  -5   7   9    6.17    1.37
   4  -7  -9   27.57    1.75
   5   9 -10   42.20    1.94
   4   9 -10   10.62    1.12
   3   9 -10    7.61    0.99
  -3  -9  10    5.90    1.09
   2   9 -10   52.22    1.98
  -2  -9  10   49.98    2.25
   1   9 -10    4.54    0.84
  -1  -9  10    3.08    1.09
   0   9 -10   34.07    1.68
   0  -9  10   29.83    2.18
   7   8 -10    6.84    1.00
   6   8 -10   38.05    1.81
   5   8 -10   19.80    1.38
   4   8 -10   12.90    1.16
  -4  -8  10   11.72    1.25
   3   8 -10   35.24    1.65
  -3  -8  10   37.00    1.96
   2   8 -10   12.23    1.16
  -2  -8  10   10.08    1.25
   1   8 -10    4.06    0.79
  -1  -8  10    5.69    1.15
   0   8 -10   48.06    1.96
   0  -8  10   43.42    2.27
  -1   8 -10    8.82    1.07
   1  -8  10    5.55    1.26
   8   7 -10    1.65    0.79
   7   7 -10   45.31    1.89
   6   7 -10   39.52    1.73
   5   7 -10   23.02    1.38
  -5  -7  10   22.21    1.45
   4   7 -10   57.59    2.02
  -4  -7  10   56.66    2.15
   3   7 -10   14.36    1.19
  -3  -7  10   12.67    1.28
   2   7 -10    9.11    1.01
  -2  -7  10    7.85    1.11
   1   7 -10   38.51    1.70
  -1  -7  10   41.35    2.05
   0   7 -10   14.25    1.25
   0  -7  10   14.07    1.49
  -1   7 -10    3.53    0.83
   1  -7  10    1.61    1.05
  -2   7 -10   40.38    1.94
   2  -7  10   40.58    2.34
   9   6 -10    5.34    0.96
  -9  -6  10    6.94    1.01
   8   6 -10   16.71    1.32
   7   6 -10   27.19    1.46
   6   6 -10    1.55    0.63
   5   6 -10   60.25    2.03
  -5  -6  10   63.31    2.15
   4   6 -10   51.06    1.80
  -4  -6  10   48.80    1.96
   3   6 -10    9.40    0.96
  -3  -6  10   11.46    1.17
   2   6 -10   44.35    1.74
  -2  -6  10   40.92    1.98
   1   6 -10   10.62    1.06
  -1  -6  10   10.21    1.27
   0   6 -10    0.18    0.55
   0  -6  10    0.79    0.85
  -1   6 -10   28.02    1.57
   1  -6  10   25.36    1.89
  -2   6 -10   14.12    1.29
   2  -6  10   10.61    1.48
   9   5 -10    2.86    0.81
  -9  -5  10    3.63    0.82
   8   5 -10   23.37    1.42
   7   5 -10   11.85    1.07
   6   5 -10   10.64    0.99
  -6  -5  10   10.66    1.08
   5   5 -10   55.90    1.88
  -5  -5  10   56.68    2.01
   4   5 -10   21.73    1.25
  -4  -5  10   20.31    1.48
   3   5 -10   40.19    1.60
  -3  -5  10   39.98    1.83
   2   5 -10   75.51    2.27
  -2  -5  10   74.76    2.50
   1   5 -10    5.31    0.83
  -1  -5  10    6.08    1.02
   0   5 -10   42.13    1.77
   0  -5  10   43.65    2.13
  -1   5 -10   27.38    1.55
   1  -5  10   24.72    1.81
  -2   5 -10    1.63    0.78
   2  -5  10    1.09    1.02
  10   4 -10    5.63    0.93
 -10  -4  10    4.98    0.88
   9   4 -10   34.04    1.60
   8   4 -10    4.36    0.76
   7   4 -10    3.94    0.71
  -7  -4  10    3.42    0.74
   6   4 -10   49.85    1.75
  -6  -4  10   46.84    1.85
   5   4 -10   23.52    1.22
  -5  -4  10   20.37    1.37
   4   4 -10   15.62    1.13
  -4  -4  10   14.96    1.22
   3   4 -10   82.64    2.29
  -3  -4  10   77.20    2.43
   2   4 -10    8.18    0.93
  -2  -4  10    6.58    1.01
   1   4 -10   51.41    1.90
  -1  -4  10   53.37    2.16
   0   4 -10   84.43    2.46
   0  -4  10   84.01    2.71
  -1   4 -10    1.33    0.72
   1  -4  10    0.42    0.88
  -2   4 -10   25.53    1.62
   2  -4  10   22.86    1.78
   9   3 -10   20.93    1.31
   8   3 -10    7.19    0.84
   7   3 -10   47.13    1.79
   7   3 -10   48.93    1.67
  -7  -3  10   48.93    1.84
   6   3 -10    8.58    0.86
   6   3 -10    7.66    0.91
  -6  -3  10    7.42    0.92
   5   3 -10    2.42    0.60
   5   3 -10    3.64    0.78
  -5  -3  10    2.87    0.78
   4   3 -10   37.84    1.70
   4   3 -10   37.00    1.48
  -4  -3  10   38.48    1.74
   3   3 -10   42.71    1.60
  -3  -3  10   41.68    1.81
   2   3 -10   13.82    1.15
  -2  -3  10   10.71    1.15
   1   3 -10   89.32    2.48
  -1  -3  10   96.03    2.78
   0   3 -10   13.75    1.16
   0  -3  10   16.27    1.43
  -1   3 -10   37.93    1.78
   1  -3  10   33.96    1.89
  -2   3 -10   36.53    1.84
   2  -3  10   34.34    1.99
   8   2 -10   21.24    1.15
   8   2 -10   23.36    1.34
  -8  -2  10   23.63    1.33
   7   2 -10   49.71    1.85
   7   2 -10   48.03    1.64
  -7  -2  10   48.52    1.85
   6   2 -10    0.89    0.59
   6   2 -10    1.10    0.47
  -6  -2  10    1.86    0.67
   5   2 -10   51.83    1.69
   5   2 -10   53.29    1.89
  -5  -2  10   54.07    1.94
   4   2 -10   24.23    1.39
   4   2 -10   24.58    1.23
  -4  -2  10   24.85    1.46
   3   2 -10    0.36    0.61
   3   2 -10   -0.10    0.46
  -3  -2  10    0.19    0.65
   2   2 -10   41.85    1.65
  -2  -2  10   44.22    1.88
   1   2 -10   52.51    1.86
  -1  -2  10   48.04    2.01
   0   2 -10   16.54    1.28
   0  -2  10   16.18    1.37
  -1   2 -10   82.79    2.58
   1  -2  10   82.94    2.79
  -2   2 -10    7.97    1.09
   2  -2  10    9.24    1.29
   8   1 -10   63.04    2.10
   7   1 -10    1.89    0.68
   6   1 -10   38.78    1.41
   6   1 -10   37.93    1.64
  -6  -1  10   40.04    1.69
   5   1 -10   30.47    1.53
   5   1 -10   32.35    1.31
  -5  -1  10   34.75    1.60
   4   1 -10   -0.69    0.41
   4   1 -10    0.20    0.56
  -4  -1  10    0.25    0.58
   3   1 -10   55.90    2.00
   3   1 -10   53.98    1.77
  -3  -1  10   53.81    2.01
   2   1 -10   29.93    1.40
   2   1 -10   25.95    1.49
  -2  -1  10   29.36    1.58
   1   1 -10    0.53    0.55
  -1  -1  10    0.83    0.74
   0   1 -10   45.27    1.83
   0  -1  10   48.59    2.03
  -1   1 -10   40.44    1.82
   1  -1  10   35.57    1.88
  -2   1 -10    0.54    0.75
   2  -1  10    0.04    0.83
   9   0 -10   28.07    1.49
   8   0 -10   15.86    1.25
   7   0 -10    6.52    0.89
   6   0 -10  101.39    2.73
   5   0 -10    5.70    0.82
   5   0 -10    4.78    0.66
   4   0 -10   79.79    2.10
   4   0 -10   80.26    2.39
  -4   0  10   75.80    2.35
   3   0 -10   18.57    1.14
   3   0 -10   19.18    1.32
  -3   0  10   20.84    1.39
   2   0 -10    0.35    0.51
   2   0 -10   -1.08    0.54
  -2   0  10    0.06    0.64
   1   0 -10   21.50    1.45
   1   0 -10   18.92    1.24
  -1   0  10   18.59    1.41
   0   0 -10   47.58    1.87
   0   0  10   46.82    2.00
  -1   0 -10    5.14    0.94
   1   0  10    4.76    0.98
  -2   0 -10   25.42    1.75
  10  -1 -10   18.12    1.41
   9  -1 -10   23.74    1.49
   8  -1 -10    0.95    0.66
   7  -1 -10   55.87    2.02
   6  -1 -10   15.51    1.23
   5  -1 -10    1.82    0.70
   4  -1 -10   55.20    2.00
   3  -1 -10    5.60    0.74
   3  -1 -10    6.19    0.92
  -3   1  10    4.74    0.85
   2  -1 -10   48.44    1.76
   2  -1 -10   52.71    2.01
  -2   1  10   50.74    2.03
   1  -1 -10   31.95    1.54
   1  -1 -10   30.94    1.63
  -1   1  10   29.07    1.64
   0  -1 -10    1.05    0.60
   0   1  10    0.65    0.74
  -1  -1 -10   10.21    1.17
  10  -2 -10   15.78    1.33
 -10   2  10   13.28    1.33
   9  -2 -10   -0.01    0.63
   8  -2 -10    7.48    0.96
   7  -2 -10   21.86    1.41
   6  -2 -10    8.90    1.02
   5  -2 -10   29.81    1.56
   4  -2 -10   18.25    1.35
   3  -2 -10    4.30    0.87
  -3   2  10    4.37    0.82
   2  -2 -10   50.71    2.02
   2  -2 -10   55.89    1.86
  -2   2  10   53.94    2.03
   1  -2 -10   17.86    1.39
   1  -2 -10   16.60    1.27
  -1   2  10   16.19    1.34
   0  -2 -10   21.05    1.40
   0  -2 -10   22.10    1.56
   0   2  10   18.44    1.44
  -1  -2 -10   36.35    1.87
  10  -3 -10    3.18    0.87
 -10   3  10    3.16    1.02
   9  -3 -10   17.00    1.42
  -9   3  10   23.21    1.72
   8  -3 -10   33.28    1.71
   7  -3 -10    0.86    0.68
   6  -3 -10   11.40    1.18
   5  -3 -10   40.57    1.82
   4  -3 -10    8.98    1.04
   3  -3 -10   50.84    1.99
   2  -3 -10   43.83    1.89
  -2   3  10   42.29    1.84
   1  -3 -10    7.32    1.01
  -1   3  10    8.93    1.09
   0  -3 -10   37.46    1.80
   9  -4 -10   31.71    1.77
  -9   4  10   26.46    1.96
   8  -4 -10    5.80    1.01
   7  -4 -10   23.51    1.55
   6  -4 -10   51.72    2.08
   5  -4 -10    0.07    0.63
   4  -4 -10   10.50    1.15
   3  -4 -10   13.33    1.27
   2  -4 -10    0.94    0.73
  -2   4  10    2.90    0.82
   8  -5 -10    8.37    1.11
   7  -5 -10   31.15    1.77
   6  -5 -10    4.57    0.93
   5  -5 -10    6.63    1.06
   4  -5 -10   22.51    1.58
   3  -5 -10    2.80    0.88
   5   8 -11    8.30    1.08
   4   8 -11   29.57    1.62
  -4  -8  11   25.86    1.86
   3   8 -11    1.85    0.70
  -3  -8  11   -0.74    0.89
   2   8 -11   23.45    1.49
  -2  -8  11   22.74    1.81
   1   8 -11   28.99    1.63
  -1  -8  11   23.75    1.90
   7   7 -11   19.33    1.49
   6   7 -11    1.16    0.69
   5   7 -11   30.95    1.61
  -5  -7  11   33.77    1.82
   4   7 -11   21.70    1.38
  -4  -7  11   21.02    1.65
   3   7 -11    2.19    0.71
  -3  -7  11    2.73    0.93
   2   7 -11   48.01    1.93
  -2  -7  11   46.48    2.23
   1   7 -11    5.09    0.91
  -1  -7  11    4.60    1.16
   0   7 -11   26.30    1.62
   0  -7  11   28.04    2.08
   8   6 -11   20.72    1.46
   7   6 -11    0.61    0.64
   6   6 -11   38.44    1.75
  -6  -6  11   40.43    1.94
   5   6 -11   45.10    1.86
  -5  -6  11   45.60    2.09
   4   6 -11    2.17    0.67
  -4  -6  11    2.54    0.92
   3   6 -11   44.78    1.84
  -3  -6  11   38.55    1.99
   2   6 -11    8.63    1.02
  -2  -6  11    8.27    1.20
   1   6 -11    7.21    1.03
  -1  -6  11    5.25    1.15
   0   6 -11   42.65    1.91
   0  -6  11   42.56    2.35
   8   5 -11    0.67    0.65
   7   5 -11   48.69    1.88
   6   5 -11   20.60    1.30
  -6  -5  11   17.35    1.39
   5   5 -11    1.57    0.62
  -5  -5  11    0.72    0.83
   4   5 -11   14.31    1.18
  -4  -5  11   15.89    1.39
   3   5 -11   16.42    1.28
  -3  -5  11   18.18    1.50
   2   5 -11    1.55    0.65
  -2  -5  11    1.43    0.88
   1   5 -11   26.12    1.50
  -1  -5  11   20.02    1.61
   0   5 -11   20.81    1.48
   0  -5  11   17.71    1.58
  -1   5 -11    0.96    0.77
   1  -5  11    1.04    1.04
   9   4 -11    4.05    0.82
   8   4 -11   15.04    1.20
   7   4 -11   41.90    1.69
  -7  -4  11   39.82    1.88
   6   4 -11   12.54    1.10
  -6  -4  11   11.07    1.18
   5   4 -11   26.07    1.36
  -5  -4  11   29.25    1.73
   4   4 -11   33.00    1.52
  -4  -4  11   33.82    1.80
   3   4 -11    0.72    0.57
  -3  -4  11   -0.14    0.76
   2   4 -11   16.42    1.24
  -2  -4  11   17.69    1.54
   1   4 -11   32.97    1.62
  -1  -4  11   28.35    1.88
   0   4 -11    2.19    0.76
   0  -4  11    2.15    1.04
  -1   4 -11   13.66    1.35
   1  -4  11   11.95    1.45
   8   3 -11   59.29    2.01
  -8  -3  11   63.04    2.23
   7   3 -11   24.21    1.36
   7   3 -11   26.89    1.57
  -7  -3  11   27.74    1.64
   6   3 -11    9.33    0.94
   6   3 -11   10.38    1.11
  -6  -3  11    9.41    1.11
   5   3 -11   31.06    1.65
   5   3 -11   34.73    1.50
  -5  -3  11   35.14    1.76
   4   3 -11   24.51    1.38
  -4  -3  11   23.06    1.58
   3   3 -11   26.36    1.46
  -3  -3  11   27.09    1.76
   2   3 -11   62.86    2.15
  -2  -3  11   63.34    2.45
   1   3 -11    0.52    0.59
  -1  -3  11    0.74    0.82
   0   3 -11   23.61    1.57
   0  -3  11   23.38    1.83
  -1   3 -11   23.29    1.58
   1  -3  11   20.44    1.79
   8   2 -11   21.20    1.42
  -8  -2  11   19.34    1.39
   7   2 -11    3.37    0.66
   7   2 -11    4.95    0.88
  -7  -2  11    4.20    0.85
   6   2 -11   43.53    1.66
   6   2 -11   43.29    1.90
  -6  -2  11   45.78    1.98
   5   2 -11   42.08    1.65
   5   2 -11   44.01    1.86
  -5  -2  11   42.40    1.90
   4   2 -11   13.54    1.13
   4   2 -11   14.73    1.29
  -4  -2  11   15.04    1.35
   3   2 -11   52.63    1.88
  -3  -2  11   57.11    2.20
   2   2 -11   14.13    1.18
  -2  -2  11   12.37    1.26
   1   2 -11   21.60    1.41
  -1  -2  11   23.87    1.76
   0   2 -11   60.72    2.23
   0  -2  11   64.78    2.50
  -1   2 -11    3.26    0.89
   1  -2  11    2.34    1.02
   9   1 -11   25.57    1.53
  -9  -1  11   31.54    1.62
   8   1 -11    0.12    0.64
  -8  -1  11    0.78    0.65
   7   1 -11   47.45    1.95
  -7  -1  11   47.16    1.96
   6   1 -11   25.75    1.28
   6   1 -11   22.82    1.47
  -6  -1  11   26.08    1.55
   5   1 -11    0.26    0.49
   5   1 -11    0.39    0.64
  -5  -1  11   -0.43    0.62
   4   1 -11   37.64    1.79
   4   1 -11   38.61    1.58
  -4  -1  11   39.52    1.89
   3   1 -11   25.84    1.59
   3   1 -11   28.75    1.44
  -3  -1  11   28.98    1.69
   2   1 -11    5.29    0.81
  -2  -1  11    3.25    0.89
   1   1 -11   59.90    2.10
  -1  -1  11   53.70    2.27
   0   1 -11   11.57    1.16
   0  -1  11   11.85    1.39
   9   0 -11    0.62    0.70
   8   0 -11   15.19    1.29
   7   0 -11   31.39    1.65
   6   0 -11    2.13    0.77
  -6   0  11    3.91    0.83
   5   0 -11   24.85    1.55
  -5   0  11   24.01    1.52
   4   0 -11   29.80    1.68
   4   0 -11   25.98    1.33
  -4   0  11   26.61    1.68
   3   0 -11   -0.95    0.64
   3   0 -11    0.20    0.50
  -3   0  11    0.66    0.75
   2   0 -11   20.73    1.53
   2   0 -11   24.12    1.40
  -2   0  11   22.13    1.61
   1   0 -11   22.00    1.42
  -1   0  11   17.95    1.53
   0   0 -11    2.13    0.75
   0   0  11   -0.24    0.85
   9  -1 -11    4.78    0.94
   8  -1 -11   36.05    1.80
   7  -1 -11    6.08    0.97
   6  -1 -11    7.65    1.08
   5  -1 -11   33.64    1.74
  -5   1  11   36.38    1.79
   4  -1 -11    4.54    0.95
  -4   1  11    6.12    1.01
   3  -1 -11   24.11    1.57
  -3   1  11   25.19    1.65
   2  -1 -11   48.10    1.85
   2  -1 -11   46.42    2.03
  -2   1  11   46.63    2.08
   1  -1 -11    1.36    0.80
   1  -1 -11    0.91    0.65
  -1   1  11    0.07    0.74
   0  -1 -11   26.91    1.66
   0   1  11   24.88    1.84
   9  -2 -11   22.40    1.59
   8  -2 -11   11.98    1.24
   7  -2 -11    3.08    0.83
   6  -2 -11   41.40    1.92
   5  -2 -11    5.05    0.95
   4  -2 -11   16.67    1.38
  -4   2  11   20.84    1.50
   3  -2 -11   33.94    1.81
  -3   2  11   35.90    1.84
   2  -2 -11    6.52    1.08
  -2   2  11    6.14    1.04
   1  -2 -11    8.17    1.16
   1  -2 -11    9.21    1.06
  -1   2  11    9.33    1.24
   8  -3 -11   -0.29    0.70
   7  -3 -11   25.46    1.74
   6  -3 -11    8.34    1.13
   5  -3 -11    1.73    0.82
   4  -3 -11   19.47    1.53
   3  -3 -11   11.56    1.27
  -3   3  11   10.60    1.19
   2  -3 -11    4.97    1.00
  -2   3  11    4.45    0.96
   7  -4 -11   38.44    2.02
   6  -4 -11    1.49    0.84
   5  -4 -11   21.68    1.64
   4  -4 -11   11.00    1.27
   5   7 -12    2.31    0.79
  -5  -7  12    0.50    0.88
   4   7 -12   16.12    1.37
  -4  -7  12   11.85    1.41
   3   7 -12   28.56    1.63
  -3  -7  12   22.80    1.83
   6   6 -12   26.23    1.56
  -6  -6  12   22.88    1.71
   5   6 -12    2.07    0.71
  -5  -6  12    2.92    1.05
   4   6 -12   39.06    1.81
  -4  -6  12   37.87    2.19
   3   6 -12    4.80    0.87
  -3  -6  12    6.44    1.21
   2   6 -12   14.25    1.32
  -2  -6  12   14.59    1.54
   7   5 -12   31.09    1.62
  -7  -5  12   26.92    1.82
   6   5 -12    0.52    0.65
  -6  -5  12    0.21    0.85
   5   5 -12   34.83    1.72
  -5  -5  12   32.82    2.01
   4   5 -12   28.80    1.57
  -4  -5  12   29.32    2.00
   3   5 -12    5.92    0.95
  -3  -5  12    4.69    1.16
   2   5 -12   41.77    1.91
  -2  -5  12   36.24    2.17
   1   5 -12    5.18    0.95
  -1  -5  12    4.17    1.16
   8   4 -12   21.15    1.43
   7   4 -12    0.32    0.60
  -7  -4  12    1.16    0.83
   6   4 -12   15.17    1.27
  -6  -4  12   14.38    1.38
   5   4 -12   29.03    1.58
  -5  -4  12   29.35    1.93
   4   4 -12    0.01    0.55
  -4  -4  12    1.23    0.92
   3   4 -12   26.02    1.55
  -3  -4  12   28.10    1.88
   2   4 -12   13.54    1.27
  -2  -4  12   17.92    1.65
   1   4 -12    1.85    0.80
  -1  -4  12    2.64    1.11
   8   3 -12    4.78    0.84
   8   3 -12    3.77    0.92
  -8  -3  12    4.39    0.99
   7   3 -12   16.75    1.42
   7   3 -12   18.13    1.28
  -7  -3  12   14.61    1.38
   6   3 -12   19.26    1.26
   6   3 -12   15.47    1.40
  -6  -3  12   17.46    1.47
   5   3 -12    1.32    0.63
  -5  -3  12    0.79    0.88
   4   3 -12   10.35    1.06
  -4  -3  12   10.96    1.29
   3   3 -12   32.04    1.68
  -3  -3  12   33.97    2.06
   2   3 -12    5.96    0.97
  -2  -3  12    5.50    1.15
   1   3 -12   16.59    1.42
  -1  -3  12   20.21    1.78
  -9  -2  12   10.23    1.24
   8   2 -12    7.20    1.06
  -8  -2  12    6.58    1.05
   7   2 -12   42.55    1.99
  -7  -2  12   46.45    2.10
   6   2 -12    4.43    0.77
   6   2 -12    4.96    0.96
  -6  -2  12    3.37    0.93
   5   2 -12   12.82    1.28
   5   2 -12   17.07    1.25
  -5  -2  12   13.60    1.36
   4   2 -12   29.54    1.77
   4   2 -12   29.32    1.54
  -4  -2  12   28.58    1.80
   3   2 -12    9.17    1.04
  -3  -2  12    8.56    1.26
   2   2 -12    4.23    0.85
  -2  -2  12    1.69    0.97
   1   2 -12   26.17    1.59
  -1  -2  12   27.58    2.02
   9   1 -12   -0.12    0.72
  -9  -1  12    0.94    0.75
   8   1 -12   44.81    2.04
  -8  -1  12   42.09    2.01
   7   1 -12   21.92    1.67
  -7  -1  12   24.35    1.71
   6   1 -12    3.76    0.90
  -6  -1  12    2.76    0.87
   5   1 -12   56.47    2.27
   5   1 -12   56.02    1.99
  -5  -1  12   57.79    2.33
   4   1 -12   18.82    1.33
   4   1 -12   20.36    1.64
  -4  -1  12   20.73    1.67
   3   1 -12    9.57    1.24
   3   1 -12   10.49    1.07
  -3  -1  12   10.89    1.33
   2   1 -12   23.92    1.53
  -2  -1  12   23.34    1.80
   1   1 -12    4.04    0.87
  -1  -1  12    5.17    1.16
   8   0 -12   29.02    1.81
  -8   0  12   31.35    1.84
   7   0 -12    1.02    0.82
  -7   0  12    3.00    0.89
   6   0 -12   45.37    2.14
  -6   0  12   48.89    2.18
   5   0 -12   24.85    1.66
  -5   0  12   23.07    1.70
   4   0 -12    4.33    1.00
  -4   0  12    4.32    1.03
   3   0 -12   38.63    2.00
   3   0 -12   39.62    1.76
  -3   0  12   34.43    2.02
   2   0 -12   14.55    1.27
  -2   0  12   16.34    1.53
   8  -1 -12   -0.42    0.75
   7  -1 -12    7.03    1.13
   6  -1 -12   22.60    1.64
  -6   1  12   22.32    1.63
   5  -1 -12    3.44    0.97
  -5   1  12    6.94    1.09
   4  -1 -12   33.35    1.89
  -4   1  12   32.66    1.92
   3  -1 -12   26.94    1.86
  -3   1  12   30.46    1.99
   7  -2 -12   26.32    1.80
   6  -2 -12    3.96    1.01
   5  -2 -12   10.59    1.36
  -5   2  12   11.88    1.36
   4  -2 -12   25.63    1.81
  -4   2  12   30.52    1.87
   5   4 -13    7.57    1.01
  -5  -4  13    7.36    1.30
   6   3 -13    0.54    0.67
  -6  -3  13    1.08    0.93
   5   3 -13   24.80    1.59
  -5  -3  13   28.96    1.97
   4   3 -13   34.88    1.82
  -4  -3  13   34.14    2.15
   6   2 -13   15.65    1.56
  -6  -2  13   16.42    1.61
   5   2 -13   32.93    1.98
   5   2 -13   29.27    1.63
  -5  -2  13   32.01    2.02
   0   0   0    0.00    0.00
;
_shelx_hkl_checksum              27204
_olex2_submission_special_instructions 'No special instructions were received'
loop_
_space_group_symop_operation_xyz
'x, y, z'
'-x, -y, -z'
loop_
_atom_site_label
_atom_site_type_symbol
_atom_site_fract_x
_atom_site_fract_y
_atom_site_fract_z
_atom_site_U_iso_or_equiv
_atom_site_adp_type
_atom_site_occupancy
_atom_site_site_symmetry_order
_atom_site_calc_flag
_atom_site_refinement_flags_posn
_atom_site_refinement_flags_adp
_atom_site_refinement_flags_occupancy
_atom_site_disorder_assembly
_atom_site_disorder_group
Eu1 Eu -0.17636(2) -1.13054(2) 0.29295(2) 0.01821(5) Uani 1 1 d . . . . .
O1 O -0.2117(3) -0.2897(2) 0.4464(2) 0.0334(5) Uani 1 1 d . . . . .
O2 O -0.0143(3) -0.0958(2) 0.5956(2) 0.0265(4) Uani 1 1 d . . . . .
O3 O -0.0921(3) -0.8023(2) 0.6256(2) 0.0289(5) Uani 1 1 d . . . . .
O4 O -0.2910(3) -0.9800(2) 0.4250(2) 0.0305(5) Uani 1 1 d . . . . .
O5 O -0.3232(3) -0.9801(3) 0.1272(3) 0.0367(5) Uani 1 1 d . . . . .
H5A H -0.243728 -0.901738 0.135042 0.055 Uiso 1 1 d R . . . .
H5B H -0.398848 -0.940778 0.159803 0.055 Uiso 1 1 d R . . . .
O6 O -0.4795(3) -1.2323(3) 0.1660(3) 0.0401(6) Uani 1 1 d . . . . .
H6A H -0.535233 -1.160633 0.194109 0.060 Uiso 1 1 d R . . . .
H6B H -0.521653 -1.258883 0.056549 0.060 Uiso 1 1 d R . . . .
O7 O -0.2389(4) -1.3828(3) 0.1352(3) 0.0479(7) Uani 1 1 d . . . . .
H7A H -0.137354 -1.409771 0.142995 0.072 Uiso 1 1 d R . . . .
H7B H -0.290154 -1.447081 0.171525 0.072 Uiso 1 1 d R . . . .
O8 O -0.0951(3) -1.1388(3) 0.0883(3) 0.0370(5) Uani 1 1 d . . . . .
H8A H 0.022246 -1.100073 0.133850 0.056 Uiso 1 1 d R . . . .
H8B H -0.155874 -1.081493 0.023300 0.056 Uiso 1 1 d R . . . .
N1 N -0.1848(3) -0.3981(3) 0.6858(3) 0.0256(5) Uani 1 1 d . . . . .
N2 N -0.3177(3) -0.6221(3) 0.6017(3) 0.0252(5) Uani 1 1 d . . . . .
C1 C -0.1028(3) -0.2145(3) 0.5757(3) 0.0218(6) Uani 1 1 d . . . . .
C2 C -0.0653(4) -0.2675(3) 0.7176(4) 0.0294(7) Uani 1 1 d . . . . .
H2A H 0.045730 -0.288315 0.757736 0.035 Uiso 1 1 calc R . . . .
H2B H -0.066559 -0.190514 0.796205 0.035 Uiso 1 1 calc R . . . .
C3 C -0.3103(4) -0.4022(4) 0.7263(4) 0.0313(7) Uani 1 1 d . . . . .
H3 H -0.333364 -0.323543 0.779763 0.038 Uiso 1 1 calc R . . . .
C4 C -0.3935(4) -0.5416(3) 0.6737(4) 0.0314(7) Uani 1 1 d . . . . .
H4 H -0.485178 -0.577255 0.684035 0.038 Uiso 1 1 calc R . . . .
C5 C -0.1923(4) -0.5317(3) 0.6096(4) 0.0285(7) Uani 1 1 d . . . . .
H5 H -0.121930 -0.557608 0.568646 0.034 Uiso 1 1 calc R . . . .
C6 C -0.3769(4) -0.7775(3) 0.5183(4) 0.0295(7) Uani 1 1 d . . . . .
H6C H -0.453027 -0.786569 0.411372 0.035 Uiso 1 1 calc R . . . .
H6D H -0.439297 -0.823676 0.560331 0.035 Uiso 1 1 calc R . . . .
C7 C -0.2394(4) -0.8596(3) 0.5247(3) 0.0236(6) Uani 1 1 d . . . . .
Cl1 Cl -0.73286(12) -1.02285(13) 0.16231(11) 0.0490(2) Uani 1 1 d . . . . .
Cl2 Cl -0.64049(16) -1.34000(10) -0.19876(13) 0.0564(3) Uani 1 1 d . . . . .
O9 O 0.000000 -0.500000 1.000000 0.093(6) Uani 0.5 2 d S T P A 1
H9A H 0.050070 -0.413910 0.988160 0.140 Uiso 0.25 1 d R . . A 1
H9B H 0.084350 -0.552330 1.048050 0.140 Uiso 0.25 1 d R . . A 1
O10 O -0.079(3) -0.586(2) 0.987(3) 0.112(10) Uani 0.25 1 d . . . B 2
H10A H -0.161733 -0.645384 0.888003 0.168 Uiso 0.25 1 d R . . B 2
H10B H -0.018613 -0.505634 0.975163 0.168 Uiso 0.25 1 d R . . B 2
loop_
_atom_site_aniso_label
_atom_site_aniso_U_11
_atom_site_aniso_U_22
_atom_site_aniso_U_33
_atom_site_aniso_U_23
_atom_site_aniso_U_13
_atom_site_aniso_U_12
Eu1 0.01814(8) 0.01439(7) 0.01843(8) 0.00451(5) 0.00603(6) 0.00019(5)
O1 0.0381(13) 0.0264(12) 0.0225(11) 0.0082(9) 0.0053(10) -0.0099(10)
O2 0.0261(11) 0.0195(10) 0.0301(11) 0.0075(9) 0.0111(9) -0.0021(8)
O3 0.0247(11) 0.0256(11) 0.0296(11) 0.0034(9) 0.0081(9) 0.0084(9)
O4 0.0263(11) 0.0270(12) 0.0303(12) -0.0008(9) 0.0100(10) 0.0055(9)
O5 0.0400(13) 0.0357(13) 0.0370(13) 0.0176(11) 0.0161(11) 0.0127(11)
O6 0.0270(12) 0.0373(14) 0.0434(14) 0.0135(11) 0.0061(11) -0.0018(10)
O7 0.0637(18) 0.0243(12) 0.0596(17) -0.0011(12) 0.0402(15) -0.0033(12)
O8 0.0364(13) 0.0469(15) 0.0306(12) 0.0148(11) 0.0166(11) 0.0073(11)
N1 0.0284(13) 0.0246(13) 0.0270(13) 0.0107(11) 0.0148(11) 0.0034(10)
N2 0.0253(13) 0.0185(12) 0.0317(14) 0.0061(10) 0.0142(11) 0.0030(10)
C1 0.0234(14) 0.0180(14) 0.0259(15) 0.0083(12) 0.0125(12) 0.0031(11)
C2 0.0317(17) 0.0244(16) 0.0259(15) 0.0082(13) 0.0098(13) -0.0052(13)
C3 0.0321(17) 0.0282(17) 0.0367(18) 0.0059(14) 0.0202(15) 0.0057(13)
C4 0.0298(17) 0.0295(17) 0.0410(18) 0.0101(14) 0.0220(15) 0.0048(13)
C5 0.0311(16) 0.0258(16) 0.0357(17) 0.0088(13) 0.0219(14) 0.0048(13)
C6 0.0252(16) 0.0238(16) 0.0381(18) 0.0049(13) 0.0154(14) 0.0045(12)
C7 0.0251(15) 0.0230(15) 0.0239(14) 0.0079(12) 0.0117(13) 0.0061(12)
Cl1 0.0362(5) 0.0793(7) 0.0445(5) 0.0322(5) 0.0218(4) 0.0215(5)
Cl2 0.0887(8) 0.0304(5) 0.0700(7) 0.0102(5) 0.0563(7) 0.0109(5)
O9 0.130(16) 0.139(16) 0.084(11) 0.075(14) 0.081(12) 0.105(15)
O10 0.15(2) 0.071(14) 0.058(10) 0.031(10) -0.009(12) 0.034(13)
loop_
_atom_type_symbol
_atom_type_description
_atom_type_scat_dispersion_real
_atom_type_scat_dispersion_imag
_atom_type_scat_source
C C 0.0033 0.0016 'International Tables Vol C Tables 4.2.6.8 and 6.1.1.4'
H H 0.0000 0.0000 'International Tables Vol C Tables 4.2.6.8 and 6.1.1.4'
Cl Cl 0.1484 0.1585 'International Tables Vol C Tables 4.2.6.8 and 6.1.1.4'
Eu Eu -0.1578 3.6682 'International Tables Vol C Tables 4.2.6.8 and 6.1.1.4'
N N 0.0061 0.0033 'International Tables Vol C Tables 4.2.6.8 and 6.1.1.4'
O O 0.0106 0.0060 'International Tables Vol C Tables 4.2.6.8 and 6.1.1.4'
loop_
_geom_angle_atom_site_label_1
_geom_angle_atom_site_label_2
_geom_angle_atom_site_label_3
_geom_angle
_geom_angle_site_symmetry_1
_geom_angle_site_symmetry_3
_geom_angle_publ_flag
O1 Eu1 Eu1 84.13(5) 1_545 2_536 ?
O1 Eu1 O2 50.35(6) 1_545 1_545 ?
O1 Eu1 O6 74.92(8) 1_545 . ?
O1 Eu1 C1 24.89(7) 1_545 1_545 ?
O2 Eu1 Eu1 33.80(4) 1_545 2_536 ?
O2 Eu1 Eu1 38.88(5) 2_546 2_536 ?
O2 Eu1 O1 122.98(7) 2_546 1_545 ?
O2 Eu1 O2 72.67(7) 2_546 1_545 ?
O2 Eu1 O3 76.32(7) 2_546 2_536 ?
O2 Eu1 O4 76.07(7) 2_546 . ?
O2 Eu1 O5 77.01(8) 2_546 . ?
O2 Eu1 O6 140.62(8) 2_546 . ?
O2 Eu1 O7 144.85(8) 2_546 . ?
O2 Eu1 O8 81.97(8) 2_546 . ?
O2 Eu1 C1 98.11(7) 2_546 1_545 ?
O2 Eu1 C1 25.46(7) 1_545 1_545 ?
O3 Eu1 Eu1 67.15(5) 2_536 2_536 ?
O3 Eu1 O1 83.31(8) 2_536 1_545 ?
O3 Eu1 O2 67.61(7) 2_536 1_545 ?
O3 Eu1 O5 134.67(8) 2_536 . ?
O3 Eu1 O6 143.06(8) 2_536 . ?
O3 Eu1 O7 75.59(8) 2_536 . ?
O3 Eu1 O8 71.04(8) 2_536 . ?
O3 Eu1 C1 74.21(8) 2_536 1_545 ?
O4 Eu1 Eu1 67.36(5) . 2_536 ?
O4 Eu1 O1 80.78(8) . 1_545 ?
O4 Eu1 O2 68.15(7) . 1_545 ?
O4 Eu1 O3 132.94(7) . 2_536 ?
O4 Eu1 O5 73.06(8) . . ?
O4 Eu1 O6 72.81(8) . . ?
O4 Eu1 O7 139.08(8) . . ?
O4 Eu1 O8 139.86(8) . . ?
O4 Eu1 C1 72.90(8) . 1_545 ?
O5 Eu1 Eu1 109.59(6) . 2_536 ?
O5 Eu1 O1 141.99(8) . 1_545 ?
O5 Eu1 O2 135.17(7) . 1_545 ?
O5 Eu1 O6 71.31(8) . . ?
O5 Eu1 O7 109.35(9) . . ?
O5 Eu1 O8 69.46(8) . . ?
O5 Eu1 C1 145.77(8) . 1_545 ?
O6 Eu1 Eu1 137.34(6) . 2_536 ?
O6 Eu1 O2 115.69(7) . 1_545 ?
O6 Eu1 C1 95.22(8) . 1_545 ?
O7 Eu1 Eu1 138.54(7) . 2_536 ?
O7 Eu1 O1 73.86(8) . 1_545 ?
O7 Eu1 O2 114.53(8) . 1_545 ?
O7 Eu1 O6 69.92(9) . . ?
O7 Eu1 O8 69.19(8) . . ?
O7 Eu1 C1 94.16(8) . 1_545 ?
O8 Eu1 Eu1 112.72(6) . 2_536 ?
O8 Eu1 O1 139.02(8) . 1_545 ?
O8 Eu1 O2 135.33(7) . 1_545 ?
O8 Eu1 O6 107.33(8) . . ?
O8 Eu1 C1 144.20(8) . 1_545 ?
C1 Eu1 Eu1 59.24(5) 1_545 2_536 ?
C1 O1 Eu1 98.21(16) . 1_565 ?
Eu1 O2 Eu1 107.33(7) 2_546 1_565 ?
C1 O2 Eu1 88.82(17) . 1_565 ?
C1 O2 Eu1 163.68(19) . 2_546 ?
C7 O3 Eu1 136.36(19) . 2_536 ?
C7 O4 Eu1 135.62(19) . . ?
Eu1 O5 H5A 109.4 . . ?
Eu1 O5 H5B 109.3 . . ?
H5A O5 H5B 109.5 . . ?
Eu1 O6 H6A 109.7 . . ?
Eu1 O6 H6B 109.1 . . ?
H6A O6 H6B 109.5 . . ?
Eu1 O7 H7A 109.4 . . ?
Eu1 O7 H7B 109.4 . . ?
H7A O7 H7B 109.5 . . ?
Eu1 O8 H8A 109.4 . . ?
Eu1 O8 H8B 109.3 . . ?
H8A O8 H8B 109.5 . . ?
C3 N1 C2 125.6(3) . . ?
C5 N1 C2 125.5(3) . . ?
C5 N1 C3 109.0(3) . . ?
C4 N2 C6 125.2(2) . . ?
C5 N2 C4 108.2(2) . . ?
C5 N2 C6 126.4(3) . . ?
O1 C1 Eu1 56.89(14) . 1_565 ?
O1 C1 O2 122.6(3) . . ?
O1 C1 C2 120.5(2) . . ?
O2 C1 Eu1 65.72(15) . 1_565 ?
O2 C1 C2 116.8(3) . . ?
C2 C1 Eu1 176.5(2) . 1_565 ?
N1 C2 C1 112.7(2) . . ?
N1 C2 H2A 109.0 . . ?
N1 C2 H2B 109.0 . . ?
C1 C2 H2A 109.0 . . ?
C1 C2 H2B 109.0 . . ?
H2A C2 H2B 107.8 . . ?
N1 C3 H3 126.5 . . ?
C4 C3 N1 107.0(3) . . ?
C4 C3 H3 126.5 . . ?
N2 C4 H4 126.3 . . ?
C3 C4 N2 107.4(3) . . ?
C3 C4 H4 126.3 . . ?
N1 C5 N2 108.5(3) . . ?
N1 C5 H5 125.7 . . ?
N2 C5 H5 125.7 . . ?
N2 C6 H6C 108.6 . . ?
N2 C6 H6D 108.6 . . ?
N2 C6 C7 114.7(2) . . ?
H6C C6 H6D 107.6 . . ?
C7 C6 H6C 108.6 . . ?
C7 C6 H6D 108.6 . . ?
O3 C7 C6 118.5(3) . . ?
O4 C7 O3 127.7(3) . . ?
O4 C7 C6 113.8(3) . . ?
H9A O9 H9B 109.5 . . ?
H10A O10 H10B 109.5 . . ?
loop_
_geom_bond_atom_site_label_1
_geom_bond_atom_site_label_2
_geom_bond_distance
_geom_bond_site_symmetry_2
_geom_bond_publ_flag
Eu1 Eu1 4.0548(3) 2_536 ?
Eu1 O1 2.475(2) 1_545 ?
Eu1 O2 2.666(2) 1_545 ?
Eu1 O2 2.3626(19) 2_546 ?
Eu1 O3 2.415(2) 2_536 ?
Eu1 O4 2.379(2) . ?
Eu1 O5 2.456(2) . ?
Eu1 O6 2.475(2) . ?
Eu1 O7 2.463(2) . ?
Eu1 O8 2.466(2) . ?
Eu1 C1 2.924(3) 1_545 ?
O1 C1 1.244(3) . ?
O2 C1 1.257(3) . ?
O3 C7 1.255(3) . ?
O4 C7 1.254(4) . ?
O5 H5A 0.9599 . ?
O5 H5B 0.9602 . ?
O6 H6A 0.9599 . ?
O6 H6B 0.9599 . ?
O7 H7A 0.9600 . ?
O7 H7B 0.9601 . ?
O8 H8A 0.9599 . ?
O8 H8B 0.9600 . ?
N1 C2 1.461(4) . ?
N1 C3 1.374(4) . ?
N1 C5 1.329(4) . ?
N2 C4 1.383(4) . ?
N2 C5 1.333(4) . ?
N2 C6 1.467(4) . ?
C1 C2 1.521(4) . ?
C2 H2A 0.9700 . ?
C2 H2B 0.9700 . ?
C3 H3 0.9300 . ?
C3 C4 1.346(4) . ?
C4 H4 0.9300 . ?
C5 H5 0.9300 . ?
C6 H6C 0.9700 . ?
C6 H6D 0.9700 . ?
C6 C7 1.527(4) . ?
O9 H9A 0.9600 . ?
O9 H9B 0.9600 . ?
O10 H10A 0.9600 . ?
O10 H10B 0.9600 . ?
loop_
_geom_hbond_atom_site_label_D
_geom_hbond_atom_site_label_H
_geom_hbond_atom_site_label_A
_geom_hbond_distance_DH
_geom_hbond_distance_HA
_geom_hbond_distance_DA
_geom_hbond_angle_DHA
_geom_hbond_site_symmetry_A
_geom_hbond_publ_flag
O5 H5B Cl2 0.96 2.60 3.086(3) 111.3 2_435 yes
O6 H6A Cl1 0.96 2.28 3.193(3) 158.1 . yes
O6 H6B Cl2 0.96 2.23 3.183(3) 173.6 . yes
O7 H7A O9 0.96 2.38 3.210(3) 144.4 1_544 yes
O7 H7A O10 0.96 2.32 3.06(3) 133.3 1_544 yes
O7 H7B Cl2 0.96 2.19 3.074(3) 153.3 2_425 yes
O8 H8A Cl1 0.96 2.16 3.089(3) 162.2 1_655 yes
O8 H8B Cl1 0.96 2.19 3.129(3) 165.1 2_435 yes
C3 H3 Cl2 0.93 2.90 3.487(3) 122.5 1_566 yes
C4 H4 O1 0.93 2.54 3.370(4) 148.0 2_446 yes
C4 H4 O6 0.93 2.67 3.352(4) 130.3 2_436 yes
O9 H9B N1 0.96 2.58 3.267(2) 128.2 2_547 yes
O10 H10A N2 0.96 2.66 3.44(2) 137.8 . yes
O10 H10B O10 0.96 1.06 1.97(4) 155.1 2_547 yes
loop_
_geom_torsion_atom_site_label_1
_geom_torsion_atom_site_label_2
_geom_torsion_atom_site_label_3
_geom_torsion_atom_site_label_4
_geom_torsion
_geom_torsion_site_symmetry_1
_geom_torsion_site_symmetry_2
_geom_torsion_site_symmetry_3
_geom_torsion_site_symmetry_4
_geom_torsion_publ_flag
Eu1 O1 C1 O2 -0.3(3) 1_565 . . . ?
Eu1 O1 C1 C2 -177.3(2) 1_565 . . . ?
Eu1 O2 C1 Eu1 171.8(7) 2_546 . . 1_565 ?
Eu1 O2 C1 O1 0.3(3) 1_565 . . . ?
Eu1 O2 C1 O1 172.2(5) 2_546 . . . ?
Eu1 O2 C1 C2 -10.8(9) 2_546 . . . ?
Eu1 O2 C1 C2 177.4(2) 1_565 . . . ?
Eu1 O3 C7 O4 -2.4(5) 2_536 . . . ?
Eu1 O3 C7 C6 177.3(2) 2_536 . . . ?
Eu1 O4 C7 O3 -27.4(5) . . . . ?
Eu1 O4 C7 C6 152.8(2) . . . . ?
O1 C1 C2 N1 -8.7(4) . . . . ?
O2 C1 C2 N1 174.2(3) . . . . ?
N1 C3 C4 N2 0.2(4) . . . . ?
N2 C6 C7 O3 16.7(4) . . . . ?
N2 C6 C7 O4 -163.5(3) . . . . ?
C2 N1 C3 C4 178.9(3) . . . . ?
C2 N1 C5 N2 -179.3(3) . . . . ?
C3 N1 C2 C1 -104.7(3) . . . . ?
C3 N1 C5 N2 -0.9(4) . . . . ?
C4 N2 C5 N1 1.0(4) . . . . ?
C4 N2 C6 C7 -148.4(3) . . . . ?
C5 N1 C2 C1 73.5(4) . . . . ?
C5 N1 C3 C4 0.4(4) . . . . ?
C5 N2 C4 C3 -0.7(4) . . . . ?
C5 N2 C6 C7 38.1(4) . . . . ?
C6 N2 C4 C3 -175.2(3) . . . . ?
C6 N2 C5 N1 175.4(3) . . . . ?
