#------------------------------------------------------------------------------
#$Date: 2022-06-15 01:34:45 +0300 (Wed, 15 Jun 2022) $
#$Revision: 276030 $
#$URL: file:///home/coder/svn-repositories/cod/cif/7/24/50/7245072.cif $
#------------------------------------------------------------------------------
#
# This file is available in the Crystallography Open Database (COD),
# http://www.crystallography.net/
#
# All data on this site have been placed in the public domain by the
# contributors.
#
data_7245072
loop_
_publ_author_name
'Zhou, Ling-Peng'
'Yan, Jing-Wen'
'Wang, Jun'
'Chi, Xiang'
'Afzal, Mohd'
'Alarifi, Abdullah'
'Srivatava, Devyani'
'Kumar, Abhinav'
_publ_section_title
;
 Efficient photodegradation of dyes by a new 3D Cd(ii) MOF with a rare fsh
 topology
;
_journal_name_full               CrystEngComm
_journal_paper_doi               10.1039/D2CE00590E
_journal_year                    2022
_chemical_formula_moiety         'C22 H20 Cd2 N4 O8'
_chemical_formula_sum            'C22 H20 Cd2 N4 O8'
_chemical_formula_weight         693.22
_space_group_crystal_system      triclinic
_space_group_IT_number           2
_space_group_name_Hall           '-P 1'
_space_group_name_H-M_alt        'P -1'
_atom_sites_solution_hydrogens   geom
_audit_creation_date             2021-06-16
_audit_creation_method
;
Olex2 1.2
(compiled 2018.05.29 svn.r3508 for OlexSys, GUI svn.r5506)
;
_audit_update_record
;
2022-04-08 deposited with the CCDC.	2022-05-30 downloaded from the CCDC.
;
_cell_angle_alpha                84.786(6)
_cell_angle_beta                 68.478(6)
_cell_angle_gamma                73.697(5)
_cell_formula_units_Z            1
_cell_length_a                   7.421(3)
_cell_length_b                   9.209(4)
_cell_length_c                   9.781(4)
_cell_measurement_reflns_used    1590
_cell_measurement_temperature    296(2)
_cell_measurement_theta_max      27.053
_cell_measurement_theta_min      2.304
_cell_volume                     596.8(4)
_computing_cell_refinement       'SAINT v8.34A (Bruker, 2013)'
_computing_data_reduction        'SAINT v8.34A (Bruker, 2013)'
_computing_molecular_graphics    'Olex2 (Dolomanov et al., 2009)'
_computing_publication_material  'Olex2 (Dolomanov et al., 2009)'
_computing_structure_refinement  'ShelXL (Sheldrick, 2015)'
_computing_structure_solution    'SHELXT 2018/2 (Sheldrick, 2018)'
_diffrn_ambient_temperature      296.15
_diffrn_measured_fraction_theta_full 0.992
_diffrn_measured_fraction_theta_max 0.946
_diffrn_measurement_device_type  'CCD area detector'
_diffrn_measurement_method       'phi and omega scans'
_diffrn_radiation_monochromator  graphite
_diffrn_radiation_type           MoK\a
_diffrn_radiation_wavelength     0.71073
_diffrn_reflns_av_R_equivalents  0.0263
_diffrn_reflns_av_unetI/netI     0.0638
_diffrn_reflns_Laue_measured_fraction_full 0.992
_diffrn_reflns_Laue_measured_fraction_max 0.946
_diffrn_reflns_limit_h_max       9
_diffrn_reflns_limit_h_min       -8
_diffrn_reflns_limit_k_max       11
_diffrn_reflns_limit_k_min       -11
_diffrn_reflns_limit_l_max       12
_diffrn_reflns_limit_l_min       -9
_diffrn_reflns_number            3621
_diffrn_reflns_point_group_measured_fraction_full 0.992
_diffrn_reflns_point_group_measured_fraction_max 0.946
_diffrn_reflns_theta_full        25.242
_diffrn_reflns_theta_max         27.575
_diffrn_reflns_theta_min         2.239
_exptl_absorpt_coefficient_mu    1.837
_exptl_absorpt_correction_T_max  0.7456
_exptl_absorpt_correction_T_min  0.5615
_exptl_absorpt_correction_type   multi-scan
_exptl_absorpt_process_details
'SADABS-2014/5 (Bruker,2014/5) was used for absorption correction. wR2(int) was 0.0724 before and 0.0377 after correction. The Ratio of minimum to maximum transmission is 0.7531. The \l/2 correction factor is 0.00150.'
_exptl_crystal_colour            'light yellow'
_exptl_crystal_colour_modifier   light
_exptl_crystal_colour_primary    yellow
_exptl_crystal_density_diffrn    1.929
_exptl_crystal_description       block
_exptl_crystal_F_000             340
_exptl_crystal_size_max          0.2
_exptl_crystal_size_mid          0.2
_exptl_crystal_size_min          0.2
_refine_diff_density_max         2.293
_refine_diff_density_min         -1.413
_refine_diff_density_rms         0.232
_refine_ls_extinction_method     none
_refine_ls_goodness_of_fit_ref   1.127
_refine_ls_hydrogen_treatment    constr
_refine_ls_matrix_type           full
_refine_ls_number_parameters     164
_refine_ls_number_reflns         2611
_refine_ls_number_restraints     6
_refine_ls_restrained_S_all      1.126
_refine_ls_R_factor_all          0.0695
_refine_ls_R_factor_gt           0.0603
_refine_ls_shift/su_max          0.000
_refine_ls_shift/su_mean         0.000
_refine_ls_structure_factor_coef Fsqd
_refine_ls_weighting_details
'w=1/[\s^2^(Fo^2^)+(0.0844P)^2^+5.3561P] where P=(Fo^2^+2Fc^2^)/3'
_refine_ls_weighting_scheme      calc
_refine_ls_wR_factor_gt          0.1697
_refine_ls_wR_factor_ref         0.1747
_reflns_Friedel_coverage         0.000
_reflns_number_gt                2266
_reflns_number_total             2611
_reflns_threshold_expression     'I > 2\s(I)'
_cod_data_source_file            d2ce00590e2.cif
_cod_data_source_block           1_a
_cod_database_code               7245072
_shelx_shelxl_version_number     2018/3
_shelx_space_group_comment
;
The symmetry employed for this shelxl refinement is uniquely defined
by the following loop, which should always be used as a source of
symmetry information in preference to the above space-group names.
They are only intended as comments.
;
_shelx_estimated_absorpt_t_max   0.710
_shelx_estimated_absorpt_t_min   0.710
_olex2_refinement_description
;
1. Fixed Uiso
 At 1.2 times of:
  All C(H) groups, All C(H,H) groups
 At 1.5 times of:
  All C(H,H,H) groups
2. Uiso/Uaniso restraints and constraints
Uanis(C11) \\sim Ueq: with sigma of 0.01 and sigma for terminal atoms of 0.02
3.a Secondary CH2 refined with riding coordinates:
 C5(H5A,H5B), C6(H6A,H6B)
3.b Aromatic/amide H refined with riding coordinates:
 C2(H2), C3(H3), C10(H10)
3.c Idealised Me refined as rotating group:
 C4(H4A,H4B,H4C)
;
_shelx_res_file
;
TITL 1_a.res in P-1
    1_a.res
    created by SHELXL-2018/3 at 23:26:21 on 16-Jun-2021
REM Old TITL 1 in P1
REM SHELXT solution in P-1: R1 0.148, Rweak 0.023, Alpha 0.125
REM <I/s> 0.000 for 0 systematic absences, Orientation as input
REM Formula found by SHELXT: C13 O4 Cd
CELL 0.71073 7.4214 9.2095 9.7808 84.786 68.478 73.697
ZERR 1 0.0029 0.0038 0.0038 0.006 0.006 0.005
LATT 1
SFAC C H Cd N O
UNIT 22 20 2 4 8
ISOR 0.01 0.02 C11

L.S. 20
PLAN  5
SIZE 0.2 0.2 0.2
TEMP 23
GRID
BOND
fmap 2
ACTA
MERG 2
REM <olex2.extras>
REM <HklSrc "%.\\1_a.hkl">
REM </olex2.extras>

WGHT    0.084400    5.356101
FVAR       0.79265
CD1   3    0.759257    0.086555    0.467438    11.00000    0.01339    0.04139 =
         0.00936   -0.00289   -0.00429   -0.00682
O1    5    0.091231   -0.027230    0.344063    11.00000    0.01453    0.06393 =
         0.01306    0.00181   -0.00410   -0.01235
O2    5    0.017692    0.207236    0.270940    11.00000    0.02904    0.05133 =
         0.03373   -0.01009    0.00035    0.00297
O3    5    0.398316    0.087815    0.387498    11.00000    0.02659    0.04553 =
         0.01473   -0.00455   -0.00263   -0.01490
O4    5    0.726426    0.021335    0.266115    11.00000    0.02428    0.06815 =
         0.01761   -0.00347   -0.01298   -0.01747
N1    4    0.559532    0.296270    0.586618    11.00000    0.02887    0.03788 =
         0.02314   -0.00576   -0.00707   -0.00799
N2    4    0.447841    0.487411    0.740747    11.00000    0.05296    0.02959 =
         0.02877   -0.00476   -0.01201   -0.00233
C1    1    0.613495    0.392105    0.649132    11.00000    0.04826    0.04073 =
         0.02761    0.00169   -0.01390   -0.01861
C2    1    0.350098    0.334656    0.643831    11.00000    0.02846    0.04062 =
         0.04077   -0.00730   -0.00708    0.00221
AFIX  43
H2    2    0.269921    0.287146    0.620145    11.00000   -1.20000
AFIX   0
C3    1    0.283013    0.450864    0.738314    11.00000    0.03104    0.04484 =
         0.04830   -0.00958   -0.00638    0.00433
AFIX  43
H3    2    0.149419    0.497842    0.792132    11.00000   -1.20000
AFIX   0
C4    1    0.820715    0.392680    0.619914    11.00000    0.05711    0.07495 =
         0.04904   -0.00954   -0.00950   -0.04385
AFIX 137
H4A   2    0.867508    0.332611    0.691801    11.00000   -1.50000
H4B   2    0.826973    0.494649    0.625137    11.00000   -1.50000
H4C   2    0.904015    0.351158    0.523578    11.00000   -1.50000
AFIX   0
C5    1    0.441263    0.609323    0.834794    11.00000    0.09803    0.03126 =
         0.03642   -0.00087   -0.02943   -0.01277
AFIX  23
H5A   2    0.329548    0.695773    0.837052    11.00000   -1.20000
H5B   2    0.563915    0.641363    0.790960    11.00000   -1.20000
AFIX   0
C6    1    0.418440    0.559428    0.992080    11.00000    0.09965    0.05007 =
         0.02736   -0.01152   -0.01841   -0.00341
AFIX  23
H6A   2    0.401630    0.646604    1.048717    11.00000   -1.20000
H6B   2    0.296346    0.526486    1.034574    11.00000   -1.20000
AFIX   0
C7    1    0.132845    0.080731    0.259129    11.00000    0.01618    0.04967 =
         0.01437   -0.00132   -0.00880   -0.00875
C8    1    0.327704    0.042876    0.127573    11.00000    0.01603    0.03069 =
         0.01632   -0.00169   -0.00738   -0.00440
C9    1    0.518989    0.018439    0.134434    11.00000    0.01906    0.03506 =
         0.00829   -0.00383   -0.00614   -0.00986
C10   1    0.687626   -0.024220    0.008331    11.00000    0.01202    0.04270 =
         0.01313   -0.00480   -0.00406   -0.00903
AFIX  43
H10   2    0.814298   -0.040935    0.013857    11.00000   -1.20000
AFIX   0
C11   1    0.547924    0.043695    0.275786    11.00000    0.02382    0.03268 =
         0.00874    0.00106   -0.01154   -0.01081
HKLF 4




REM  1_a.res in P-1
REM wR2 = 0.1747, GooF = S = 1.127, Restrained GooF = 1.126 for all data
REM R1 = 0.0603 for 2266 Fo > 4sig(Fo) and 0.0695 for all 2611 data
REM 164 parameters refined using 6 restraints

END

WGHT      0.0846      5.2564

REM Highest difference peak  2.293,  deepest hole -1.413,  1-sigma level  0.232
Q1    1   0.8399  0.1587  0.4834  11.00000  0.05    2.29
Q2    1   0.8076 -0.0343  0.4618  11.00000  0.05    2.24
Q3    1   0.6932  0.2118  0.4626  11.00000  0.05    2.14
Q4    1   0.8531  0.1085  0.4855  11.00000  0.05    2.12
Q5    1   0.6652  0.0299  0.4424  11.00000  0.05    2.03
;
_shelx_res_checksum              88848
_shelx_hkl_file
;
   2   1   0 3035.50  103.99
   4   2   0  436.26   24.10
   6   3   0  317.07   30.60
   8   4   0  683.03   46.40
   8   4  -1  392.16   40.20
   6   3  -1  223.48   26.50
   4   2  -1   16.60    8.10
   2   1  -1 1589.44   58.29
   0   0  -1 4959.10  163.28
  -2  -1  -1  468.25   19.10
   4   2   1  950.30   40.30
   6   3   1   -6.20    8.70
   8   4   1  518.25   39.60
   8   4  -2  473.25   52.99
   6   3  -2  868.91   48.20
   4   2  -2   33.10    9.60
   2   1  -2 1327.27   51.29
   0   0  -2  409.96   18.70
   0   0   2  553.64   21.80
   0   0   2  452.75   21.40
  -2  -1  -2 3437.06  116.69
   2   1   2 3577.04  120.49
   4   2   2  294.87   17.50
   4   2   2  314.27   20.50
   6   3   2    8.90    9.30
   8   4   2  397.46   34.80
   8   4   2  461.05   34.70
   6   3  -3  617.84   41.30
   4   2  -3  165.08   19.20
   2   1  -3   27.50    7.00
  -2  -1   3   33.30    9.40
   0   0  -3  131.09    9.70
   0   0   3  148.49   11.40
   0   0   3  117.39   11.90
  -2  -1  -3 8288.77  269.57
   2   1   3 8147.18  274.77
   4   2   3 1278.37   54.39
   4   2   3 1303.57   48.80
   6   3   3  102.69   18.80
   6   3   3  105.69   15.50
   8   4   3   69.39   19.10
   6   3  -4  666.73   44.60
   4   2  -4  417.46   29.10
   2   1  -4  156.48   16.40
  -2  -1   4  169.98   21.40
   0   0  -4 1881.21   70.09
   0   0   4 1988.50   72.09
   0   0   4 1945.91   75.19
  -2  -1  -4 9891.11  323.97
   2   1   4 9607.64  329.27
   2   1   4 9999.00  331.37
   4   2   4 1428.16   59.39
   6   3   4  587.84   37.20
   8   4   4   23.20   17.00
   6   3  -5  499.05   39.50
   4   2  -5  527.75   35.10
   2   1  -5   23.40   10.40
  -2  -1   5   20.40   12.30
   0   0  -5  450.75   25.30
   0   0   5  610.64   29.80
   0   0   5  619.14   33.80
  -2  -1  -5 1542.35   53.09
   2   1   5 1604.54   63.09
   2   1   5 1475.65   61.99
   4   2   5 1443.56   60.69
   6   3   5 1264.87   61.29
   8   4   5  184.98   29.80
   4   2  -6  936.01   50.89
   2   1  -6  160.48   21.00
  -2  -1   6  243.68   31.20
   0   0  -6  120.79   14.60
   0   0   6  122.89   17.60
   0   0   6   95.49   18.50
  -2  -1  -6 1097.29   39.10
   2   1   6 1078.89   49.00
   2   1   6  996.80   50.59
   4   2   6 2410.46   96.79
   4   2   6 2419.06   94.79
   6   3   6  588.14   39.20
   8   4   6   87.59   24.70
   4   2  -7  616.94   42.00
   2   1  -7  603.84   36.50
  -2  -1   7  627.54   45.40
   0   0  -7   62.19   13.00
   0   0   7   59.59   15.50
   0   0   7   94.69   22.60
   2   1   7  221.98   22.90
   2   1   7  296.97   32.80
   4   2   7 1507.25   68.89
   4   2   7 1540.35   69.69
   6   3   7 1535.05   71.79
   4   2  -8  586.34   42.20
   2   1  -8  535.25   36.70
  -2  -1   8  572.34   46.00
   0   0  -8  501.75   30.60
   0   0   8  560.54   41.70
   2   1   8  337.17   35.20
   2   1   8  309.97   27.80
   4   2   8 1251.27   63.89
   4   2   8 1162.58   60.39
   6   3   8 1023.90   57.69
   6   3   8  961.10   56.99
   8   4   8  152.78   26.10
   2   1  -9  534.65   38.30
  -2  -1   9  587.74   49.10
   0   0   9   10.10   18.80
   2   1   9   61.59   21.50
   2   1   9   53.79   15.90
   4   2   9 1031.60   57.79
   4   2   9  993.00   60.99
   6   3   9 1173.08   66.69
   6   3   9 1253.37   68.89
   8   4   9  282.77   37.40
   0   0  10  454.95   50.19
   2   1  10   33.50   20.80
   2   1  10   32.60   15.80
   4   2  10  236.98   33.80
   4   2  10  286.37   40.60
   6   3  10  966.80   62.29
   8   4  10  247.18   37.00
   0   0  11  565.44   49.50
   2   1  11   41.50   22.10
   4   2  11  215.58   32.70
   6   3  11  582.14   50.69
   4   2  12   77.29   25.80
   6   3  12  545.35   53.49
   5   3  12  199.58   34.30
   7   4  11  242.58   42.50
   5   3  11  129.79   29.40
   3   2  11  460.15   41.40
   1   1  11 1197.08   75.79
  -1   0  11  418.16   50.89
   7   4  10   63.99   24.90
   5   3  10   64.29   22.60
   3   2  10  673.73   47.60
   3   2  10  874.81   66.69
   1   1  10 1522.95   78.99
  -1   0  10  686.93   52.19
   7   4   9   56.79   22.20
   5   3   9   15.50   15.00
   3   2   9  297.47   37.50
   3   2   9  275.57   32.60
   1   1   9 1029.80   57.19
   1   1   9 1075.79   60.99
  -1   0   9  828.92   53.29
   3   1  -9  387.96   37.90
   9   5   8  361.76   44.50
   7   4   8  406.16   38.70
   5   3   8  139.29   23.30
   5   3   8  135.19   26.50
   3   2   8  401.06   40.50
   3   2   8  258.27   27.10
   1   1   8 1167.28   58.09
   1   1   8 1218.98   61.79
  -1   0   8  848.32   51.79
   1   0  -8  783.22   41.80
   3   1  -8  359.86   31.40
   9   5   7  286.77   37.00
   7   4   7 1339.37   68.39
   7   4   7 1346.07   70.29
   5   3   7  393.56   32.10
   5   3   7  345.17   30.00
   3   2   7  134.09   22.30
   3   2   7  143.49   21.50
   1   1   7  965.00   50.29
   1   1   7  926.01   47.30
  -1  -1  -7  950.50   39.80
  -1   0   7 3523.45  137.49
   1   0  -7 3430.86  127.99
   3   1  -7  749.62   43.70
   5   2  -7   16.00   16.10
   9   5   6  545.05   70.89
   7   4   6 1780.22   81.79
   5   3   6   77.39   17.00
   3   2   6   38.20   14.20
   3   2   6   18.10    9.70
   1   1   6  429.86   29.50
   1   1   6  393.76   26.20
  -1  -1  -6  370.66   19.90
  -1   0   6 3454.45  132.89
   1   0  -6 3414.46  125.19
   3   1  -6  734.53   41.60
   5   2  -6  352.56   36.80
   9   5   5  404.16   39.50
   7   4   5 1058.19   56.79
   5   3   5  916.01   46.00
   3   2   5  553.04   30.50
   3   2   5  494.75   28.00
  -3  -2  -5  471.85   19.40
   1   1   5  725.93   38.00
   1   1   5  811.42   37.30
  -1  -1  -5  762.92   30.60
  -1   0   5 6471.45  231.38
  -1   0   5 6525.95  227.38
   1   0  -5 6713.43  226.08
   3   1  -5 1851.01   76.79
   5   2  -5  518.85   37.50
   9   5   4  294.37   36.80
   7   4   4  773.32   45.80
   5   3   4 1892.91   75.69
  -5  -3  -4 1792.62   68.09
   3   2   4 1131.79   46.80
  -3  -2  -4 1178.28   41.30
   1   1   4   90.79   11.50
   1   1   4   97.79   13.10
  -1  -1  -4   94.09    7.70
  -1   0   4 3846.82  139.09
  -1   0   4 3928.31  136.09
   1   0  -4 3714.23  134.69
   3   1  -4 1532.65   64.39
   5   2  -4  509.95   35.60
   7   3  -4  -25.00   20.40
   9   5   3  142.59   26.20
   7   4   3 1309.57   60.29
   7   4   3 1393.26   64.79
   5   3   3 3011.40  105.39
   5   3   3 2831.92  109.59
   3   2   3 1129.69   47.60
  -3  -2  -3 1278.37   43.80
   1   1   3  409.16   20.80
   1   1   3  386.86   20.90
  -1  -1  -3  443.96   16.80
  -1   0   3  193.38   14.80
  -1   0   3  168.68   14.80
   1   0  -3  147.09   12.10
   3   1  -3 1679.03   67.19
   5   2  -3  467.45   32.70
   7   3  -3   85.39   21.90
   9   5   2  130.99   25.10
   7   4   2  769.12   43.10
   5   3   2 2334.17   87.39
   3   2   2  198.28   14.70
  -3  -2  -2  250.17   12.60
   1   1   2  253.27   14.10
  -1  -1  -2  251.57   10.80
  -1   0   2  108.59   10.10
   1   0  -2   80.59    9.10
   3   1  -2 2085.59   78.69
   5   2  -2  812.52   41.90
   7   3  -2  319.17   34.40
   9   5   1    3.20   17.10
   5   3   1 1011.10   45.50
  -3  -2  -1 2391.96   84.39
  -1  -1  -1 3201.28  106.29
   1   0  -1  792.52   30.70
   3   1  -1 3570.84  125.69
   5   2  -1 2286.57   89.59
   7   3  -1  396.76   38.30
   7   4   0  118.69   21.70
   5   3   0  890.11   42.50
  -3  -2   0 5928.61  201.18
  -1  -1   0 3180.78  106.39
   1   0   0 2218.18   75.29
   3   1   0  537.55   25.00
   5   2   0  802.32   39.30
   7   3   0  630.74   40.60
   7   4  -1  103.69   22.00
   5   3  -1 1150.58   52.39
   3   2  -1 4690.43  162.28
  -1  -1   1 1110.09   40.10
  -1  -1   1 1103.39   42.00
   1   0   1   66.49    4.20
   3   1   1   85.79    9.70
   5   2   1  686.83   34.30
   7   3   1  535.25   35.60
   9   4   1  210.68   32.40
   9   4   1  178.78   33.10
   7   4  -2  101.29   22.70
   5   3  -2  193.48   21.80
   3   2  -2 1661.63   64.79
   1   1  -2 1506.95   52.09
  -1  -1   2 1333.57   54.99
   1   0   2  244.18   13.30
   3   1   2   75.19    8.20
   3   1   2   92.79   11.80
   5   2   2 2267.37   90.89
   5   2   2 2367.76   86.59
   7   3   2  859.01   45.10
   9   4   2  502.55   40.80
   7   4  -3  -14.20   12.70
   5   3  -3  228.38   25.40
   3   2  -3 1412.56   58.19
   1   1  -3 2843.32   89.29
  -1  -1   3 2533.35   87.09
  -1  -1   3 2111.29   92.19
  -1   0  -3   53.09    4.80
   1   0   3   57.39    9.80
   3   1   3  107.79    7.30
   3   1   3   97.39   12.30
   5   2   3 2002.40   80.29
   5   2   3 1975.50   74.39
   7   3   3 1256.27   58.39
   7   3   3  961.40   54.79
   9   4   3  405.96   37.30
   5   3  -4  152.48   23.10
   3   2  -4  685.73   35.60
   1   1  -4 5142.19  175.18
  -1  -1   4 4820.22  181.68
  -1  -1   4 5324.77  174.78
  -1   0  -4  583.94   23.20
   1   0   4  581.44   31.00
   1   0   4  607.34   27.50
   3   1   4   15.00    7.70
   5   2   4  531.75   24.30
   5   2   4  453.45   31.10
   7   3   4  519.55   37.90
   9   4   4  450.35   38.70
   5   3  -5   60.99   18.20
   3   2  -5  337.27   25.30
   1   1  -5 2877.41   96.29
  -1  -1   5 2511.65  102.99
  -1  -1   5 2407.56   94.39
  -1   0  -5 2237.48   76.09
   1   0   5 2119.69   84.89
   1   0   5 2122.69   80.89
   3   1   5  137.79   17.50
   5   2   5  -13.50   10.00
   7   3   5  622.74   43.80
   9   4   5  689.73   51.09
   5   3  -6    1.10   13.90
   3   2  -6  165.88   23.40
   1   1  -6 2472.85   97.59
  -1  -1   6 2752.92  108.59
  -1   0  -6 2427.06   86.59
   1   0   6 2448.75   92.59
   1   0   6 2454.55   97.79
   3   1   6  547.15   32.40
   3   1   6  550.74   34.90
   5   2   6  298.97   31.80
   7   3   6  986.90   57.39
   9   4   6  633.84   49.00
   5   3  -7   31.40   19.70
   3   2  -7  213.58   27.60
   1   1  -7 2764.42  107.19
  -1  -1   7 2895.61  118.39
  -1   0  -7 1098.69   44.60
   1   0   7 1110.99   50.19
   1   0   7 1082.79   55.99
   3   1   7  213.08   27.70
   3   1   7  279.67   24.60
   5   2   7  274.37   32.50
   7   3   7  683.03   48.50
   9   4   7  524.05   54.79
   3   2  -8  216.58   29.10
   1   1  -8  567.74   34.70
  -1  -1   8  567.84   44.80
   1   0   8 1545.25   68.59
   1   0   8 1625.44   75.79
   3   1   8  542.55   37.10
   3   1   8  624.14   45.80
   5   2   8   77.69   15.80
   5   2   8  116.49   22.00
   7   3   8  274.47   37.80
   3   2  -9   87.79   22.20
  -1  -1   9  294.67   39.60
   1   0   9 1259.97   68.29
   3   1   9  948.51   53.39
   3   1   9  983.50   59.89
   5   2   9  333.47   40.70
   5   2   9  275.97   32.50
   7   3   9   56.09   27.30
   7   3   9   81.99   21.70
  -1  -1  10  196.98   34.80
   1   0  10 1037.70   64.59
   3   1  10 1326.87   74.89
   3   1  10 1289.67   67.09
   5   2  10  402.16   46.80
   5   2  10  429.26   40.10
   7   3  10  124.19   27.20
  -1  -1  11   96.99   28.30
   1   0  11  486.85   48.70
   3   1  11  773.92   55.89
   3   1  11  619.64   45.70
   5   2  11  553.54   47.50
   7   3  11   15.50   20.70
   1   0  12  127.69   31.40
   5   2  12  547.85   50.09
   4   3  12  371.56   45.50
   6   4  11  591.64   51.59
   4   3  11  579.04   47.70
   2   2  11  131.29   29.30
   8   5  10   54.29   26.00
   6   4  10  895.71   61.29
   4   3  10  680.93   50.09
   2   2  10  364.16   36.80
   0   1  10   97.29   24.90
   8   5   9   50.19   21.80
   6   4   9  838.52   55.89
   4   3   9 1136.99   63.69
   2   2   9  856.61   50.29
   2   2   9  821.02   49.50
   0   1   9  236.78   34.60
   2   0  -9   59.59   17.60
   8   5   8   12.40   16.40
   6   4   8  602.34   44.90
   4   3   8 1592.34   72.39
   4   3   8 1467.65   73.29
   2   2   8 1598.24   73.09
   2   2   8 1562.84   71.99
   0   1   8  411.76   35.60
   0   1   8  354.96   31.90
   0  -1  -8  384.66   24.90
   2   0  -8   48.30   15.40
   4   1  -8  561.44   41.90
   8   5   7   40.10   16.90
   6   4   7  534.65   41.20
   6   4   7  666.03   40.40
   4   3   7 1771.92   75.79
   4   3   7 1727.63   78.49
   2   2   7 1324.17   62.29
   2   2   7 1369.46   62.79
   0   1   7  262.87   32.00
   0   1   7  179.48   23.60
   0  -1  -7  214.58   18.00
   2   0  -7   91.09   16.00
   4   1  -7  278.17   31.30
   6   4   6   33.20   13.10
   6   4   6   47.10   14.60
   4   3   6  656.73   39.70
   4   3   6  639.54   37.20
   2   2   6  618.34   36.00
   2   2   6  580.64   34.40
  -2  -2  -6  611.04   25.70
   0   1   6 1615.74   71.19
   0   1   6 1592.84   70.19
   0  -1  -6 1761.52   63.89
   2   0  -6  214.98   23.70
   4   1  -6  189.58   26.20
   8   5   5  171.18   28.30
   6   4   5   57.29   13.20
   4   3   5   96.19   14.80
   4   3   5   80.19   15.30
  -4  -3  -5   96.99    9.40
   2   2   5 1823.02   74.69
   2   2   5 1822.22   71.99
  -2  -2  -5 1957.50   65.89
   0   1   5 3862.31  139.89
   0   1   5 3786.82  139.49
   0  -1  -5 3882.01  133.19
   2   0  -5  505.55   29.20
   4   1  -5   15.60   12.90
   6   2  -5  185.58   27.00
   8   5   4  301.47   35.40
   6   4   4   67.09   15.50
   4   3   4  456.35   25.30
  -4  -3  -4  411.26   20.00
   2   2   4 7313.17  251.07
   2   2   4 7324.37  246.68
  -2  -2  -4 7352.56  242.88
   0   1   4 2544.25   95.09
   0   1   4 2499.35   94.19
   0  -1  -4 2592.04   89.39
   2   0  -4  585.84   31.10
   4   1  -4   68.99   16.20
   6   2  -4  190.68   27.10
   8   5   3  244.98   31.00
   6   4   3  246.18   23.30
   6   4   3  247.28   20.30
   4   3   3  688.03   33.20
  -4  -3  -3  703.03   29.80
   2   2   3 2968.50  106.79
   2   2   3 2946.21  102.39
  -2  -2  -3 3002.70  100.49
   0   1   3 1309.67   54.19
   0   1   3 1337.07   55.69
   0  -1  -3 1626.04   51.99
   2   0  -3  289.77   19.10
   4   1  -3   77.69   15.90
   6   2  -3  367.96   31.40
   8   5   2  588.64   40.40
   6   4   2  235.28   20.70
  -4  -3  -2    4.60    5.00
   2   2   2  106.99   10.10
   2   2   2  120.39    8.70
  -2  -2  -2  117.69    7.60
   0   1   2 1270.47   47.90
   0   1   2 1194.78   48.60
   0  -1  -2 1358.56   45.60
   2   0  -2 4176.98  145.49
   4   1  -2  119.99   16.80
   6   2  -2  293.37   32.00
   8   3  -2  291.17   37.80
   8   5   1  718.83   46.40
   6   4   1  244.68   24.30
  -4  -3  -1   54.59    9.40
  -2  -2  -1  664.73   26.20
   0   1   1 4753.32  155.98
   0  -1  -1 4509.15  153.48
   2   0  -1 5711.53  193.68
   4   1  -1   65.49   12.20
   6   2  -1  159.08   21.30
   8   3  -1  205.78   32.10
   8   5   0  729.53   47.80
   6   4   0  295.07   24.90
  -4  -3   0  455.75   25.00
  -2  -2   0  597.84   24.80
   2   0   0 2527.05   88.39
   4   1   0  542.75   27.90
   6   2   0  108.99   18.70
   8   3   0  303.27   36.90
   8   5  -1  389.06   41.20
   6   4  -1  244.28   27.40
   4   3  -1  175.18   18.70
  -2  -2   1  540.95   24.00
   0  -1   1 1829.12   61.99
   2   0   1 1118.09   39.80
   2   0   1 1045.40   42.10
   4   1   1 2152.98   79.49
   6   2   1   95.59   17.00
   8   3   1  123.69   25.20
   6   4  -2 1305.27   62.79
   4   3  -2  355.96   24.40
   0  -1   2 3052.79  108.49
   0  -1   2 3100.89  103.49
   2   0   2 4233.28  139.29
   2   0   2 4176.08  144.39
   4   1   2 3018.40  109.69
   4   1   2 2872.81  103.79
   6   2   2   54.79   13.70
   6   2   2   80.59   17.00
   8   3   2   60.39   25.30
   8   3   2   74.49   20.90
   6   4  -3  992.10   53.79
   4   3  -3  777.02   39.90
   2   2  -3  543.75   27.40
  -2  -2   3  611.14   33.10
   0   1  -3 1678.83   58.99
   0  -1   3 1670.93   59.09
   0  -1   3 1651.33   65.29
   2   0   3 5918.31  201.28
   4   1   3 4009.70  135.69
   4   1   3 3917.31  142.99
   6   2   3  329.87   27.00
   6   2   3  249.58   21.10
   8   3   3  305.67   29.50
   6   4  -4  559.04   39.90
   4   3  -4  621.34   36.20
   2   2  -4   15.10    7.10
  -2  -2   4   18.00   10.40
   0   1  -4  149.39   10.70
   0  -1   4  174.58   17.70
   0  -1   4  195.88   12.50
   2   0   4 3945.01  139.29
   4   1   4 1938.11   67.69
   4   1   4 1923.91   76.89
   6   2   4 1375.16   64.89
   8   3   4  339.77   34.60
   6   4  -5  347.47   39.10
   4   3  -5  374.76   29.00
   2   2  -5  112.89   14.60
  -2  -2   5  155.08   24.90
   0   1  -5  138.99   12.40
   0  -1   5  173.88   14.50
   0  -1   5  204.58   23.00
  -2   0  -5  580.04   21.00
   2   0   5  621.74   32.90
   4   1   5 1418.46   61.29
   6   2   5 1763.82   79.79
   8   3   5  617.54   46.60
   4   3  -6 1043.50   54.29
   2   2  -6 1474.35   59.89
  -2  -2   6 1224.08   66.59
   0   1  -6  373.16   23.20
   0  -1   6  430.26   31.80
   0  -1   6  454.55   25.80
   2   0   6  321.67   22.60
   2   0   6  345.67   27.60
   4   1   6 2059.89   84.79
   6   2   6  910.51   51.79
   8   3   6  417.96   41.80
   4   3  -7  900.31   51.99
   2   2  -7 1587.64   64.89
  -2  -2   7 1228.68   70.19
   0   1  -7  438.76   26.80
   0  -1   7  441.96   36.80
   2   0   7  226.88   29.90
   2   0   7  200.98   20.00
   4   1   7 1032.00   54.69
   6   2   7 2315.47   99.39
   8   3   7  803.52   56.29
   4   3  -8  693.53   48.40
   2   2  -8 1202.38   58.79
  -2  -2   8 1166.88   68.99
   0  -1   8   71.89   22.50
   2   0   8   14.00   11.70
   2   0   8   43.20   21.60
   4   1   8  854.01   47.70
   4   1   8  767.22   50.69
   6   2   8 1507.85   75.69
   8   3   8  574.54   50.39
   2   2  -9  461.25   35.50
   0  -1   9  599.64   48.80
   2   0   9  243.78   28.30
   2   0   9  257.67   36.10
   4   1   9  301.17   28.90
   4   1   9  411.26   45.20
   6   2   9 1033.70   63.39
   6   2   9 1036.30   60.59
   8   3   9  717.53   51.59
   8   3   9  692.83   58.29
  -2  -2  10  757.12   59.39
   0  -1  10  774.62   58.19
   2   0  10  221.58   36.20
   4   1  10   32.40   17.20
   4   1  10   32.60   26.30
   6   2  10  368.26   36.80
   6   2  10  445.86   51.19
   8   3  10  512.65   47.30
   0  -1  11  649.54   54.99
   2   0  11  136.29   32.10
   4   1  11    4.80   15.30
   4   1  11    3.50   25.10
   6   2  11   84.89   53.69
   6   2  11  126.29   28.50
   2   0  12  132.49   33.30
   4   1  12   86.79   35.60
   6   2  12  287.17   43.00
   5   4  12   -2.00   19.00
   3   3  12  298.47   42.80
   7   5  11  407.66   52.89
   5   4  11   54.29   24.00
   3   3  11   21.60   19.10
   7   5  10  150.88   32.50
   5   4  10   93.89   26.70
   3   3  10    0.00   15.30
   1   2  10  535.95   44.80
  -1   1  10  614.14   48.20
   7   5   9  297.97   40.10
   5   4   9  331.77   40.40
   3   3   9   74.89   20.90
   1   2   9  644.64   45.90
   1   2   9  758.92   48.70
  -1   1   9  566.24   44.60
   1  -1  -9  661.03   38.90
   3   0  -9  824.82   47.90
   7   5   8  997.20   61.89
   5   4   8  841.02   52.39
   3   3   8  -13.50   10.70
   3   3   8  -10.40   26.60
   1   2   8  628.04   41.60
   1   2   8  608.24   42.80
  -1   1   8  989.40   55.59
   1  -1  -8  912.81   45.60
   3   0  -8  732.63   44.00
   9   6   7  103.19   25.70
   7   5   7 1315.97   70.59
   5   4   7  868.41   50.89
   3   3   7  199.48   24.50
   3   3   7  233.78   27.70
   1   2   7  142.09   22.10
   1   2   7  118.99   19.40
  -1  -2  -7  138.19   15.40
  -1   1   7 1341.97   64.69
  -1   1   7 1268.07   64.89
   1  -1  -7 1434.86   58.39
   3   0  -7  674.03   40.70
   5   1  -7  221.38   29.90
   9   6   6  138.49   26.70
   7   5   6 1096.79   60.39
   5   4   6   58.29   16.20
   5   4   6   36.20   13.90
   3   3   6  206.68   23.30
   3   3   6  180.88   22.60
  -3  -3  -6  183.98   13.50
   1   2   6   70.59   14.20
   1   2   6   76.59   14.20
  -1  -2  -6   55.59    9.20
  -1   1   6 1012.50   53.49
  -1   1   6 1061.19   53.99
   1  -1  -6 1204.78   49.00
   3   0  -6  853.41   45.10
   5   1  -6  390.86   38.50
   9   6   5   36.50   15.60
   7   5   5  403.26   32.30
   7   5   5  358.76   32.10
   5   4   5  812.12   44.30
   5   4   5  840.02   41.90
   3   3   5 1059.29   45.10
   3   3   5 1105.59   50.19
  -3  -3  -5 1038.60   40.00
   1   2   5   55.99   11.50
   1   2   5   51.29   10.60
  -1  -2  -5   41.70    7.30
  -1   1   5 1300.57   60.39
  -1   1   5 1431.26   60.59
   1  -1  -5 1372.76   55.69
   3   0  -5 1177.68   54.69
   5   1  -5  478.05   35.40
   9   6   4   26.50   24.40
   7   5   4  407.06   31.60
   5   4   4 2397.26   91.09
  -5  -4  -4 2311.77   85.89
   3   3   4 1196.08   51.49
   3   3   4 1169.58   46.00
  -3  -3  -4 1129.99   43.20
   1   2   4  270.97   19.20
   1   2   4  276.97   18.00
  -1  -2  -4  278.87   14.80
  -1   1   4  680.23   33.20
  -1   1   4  650.13   34.50
   1  -1  -4  599.84   29.40
   3   0  -4  785.72   39.60
   5   1  -4  805.82   45.50
   7   2  -4  147.99   38.00
   9   6   3   30.80   16.90
   7   5   3  573.94   35.80
   7   5   3  412.96   30.50
   5   4   3 2420.16   95.09
  -5  -4  -3 2585.94   92.19
   3   3   3 1789.62   66.49
   3   3   3 1838.52   70.99
  -3  -3  -3 1802.02   64.79
   1   2   3 1446.06   53.39
   1   2   3 1487.05   57.99
  -1  -2  -3 1487.95   52.59
  -1   1   3  224.58   17.40
   1  -1  -3  175.48   12.80
   3   0  -3 1763.02   70.99
   5   1  -3 1233.08   58.19
   7   2  -3  394.26   35.00
   9   6   2   64.09   19.50
   7   5   2  100.69   19.20
  -5  -4  -2 1352.06   55.49
  -3  -3  -2 1294.17   48.60
   1   2   2 1284.57   46.60
  -1  -2  -2 1074.39   41.90
   1  -1  -2  159.88   10.80
   3   0  -2 2415.96   90.69
   5   1  -2  962.00   48.70
   7   2  -2  648.74   43.60
   7   5   1   -4.70   10.80
  -5  -4  -1  579.34   31.00
  -3  -3  -1 4158.68  143.09
   1   2   1 3665.23  126.89
  -1  -2  -1 3761.72  124.69
   1  -1  -1  538.45   22.20
   3   0  -1 1650.23   64.39
   5   1  -1 1896.71   78.09
   7   2  -1  533.85   38.90
   7   5   0    8.20   12.10
   5   4   0  536.55   30.70
  -3  -3   0 2150.08   78.59
  -1  -2   0  134.99    8.90
  -1  -2   0  157.98    9.20
   1  -1   0  323.87   14.40
   1  -1   0  335.77   15.40
   3   0   0   18.70    7.40
   5   1   0  517.45   31.10
   7   2   0  807.32   48.10
   7   5  -1    9.10   12.70
   5   4  -1  540.45   32.00
  -3  -3   1 3163.68  112.89
  -1  -2   1 8362.86  287.97
  -1  -2   1 9016.00  291.17
   1  -1   1 1584.44   57.19
   1  -1   1 1638.24   54.89
   3   0   1  345.77   21.20
   3   0   1  423.76   20.10
   5   1   1  745.93   37.60
   7   2   1  960.70   50.89
   9   3   1  345.27   34.20
   7   5  -2   -0.90   11.70
   5   4  -2   34.80   12.50
  -3  -3   2 2059.19   78.39
  -1  -2   2 6269.57  211.68
  -1  -2   2 6357.96  216.88
   1  -1   2 7068.99  238.48
   1  -1   2 7153.78  233.68
   3   0   2 2105.39   79.99
   3   0   2 2150.28   74.69
   5   1   2  556.04   32.90
   5   1   2  581.34   30.30
   7   2   2 1061.59   53.99
   7   2   2 1119.99   57.29
   9   3   2  770.42   50.59
   7   5  -3  203.18   31.00
   5   4  -3   30.90   13.00
   3   3  -3 1607.54   65.29
  -1  -2   3 2204.68   79.49
  -1  -2   3 2228.28   86.19
   1  -1   3 3706.73  123.59
   1  -1   3 3727.63  130.99
   3   0   3  235.48   10.90
   3   0   3  267.37   17.90
   5   1   3  221.28   19.30
   5   1   3  200.38   23.80
   7   2   3 1038.10   55.19
   9   3   3  527.05   41.50
   5   4  -4   -4.90   10.00
   3   3  -4  255.77   25.40
   1   2  -4 1243.98   48.70
  -1  -2   4 1189.98   45.00
  -1  -2   4 1243.48   56.99
  -1   1  -4  961.80   35.30
   1  -1   4  971.10   44.50
   3   0   4  821.82   38.30
   5   1   4   21.10   11.40
   5   1   4   32.10    8.00
   7   2   4  119.89   22.30
   9   3   4  464.65   42.10
   5   4  -5    4.00   10.70
   3   3  -5   13.20   10.30
  -3  -3   5   13.20   14.60
   1   2  -5 1950.90   74.59
  -1  -2   5 1993.30   84.39
  -1   1  -5 3972.00  138.19
   1  -1   5 4132.19  142.49
   1  -1   5 4144.19  150.08
   3   0   5 1454.45   61.79
   5   1   5  171.98   22.70
   7   2   5   74.59   21.70
   9   3   5  616.04   49.60
   5   4  -6  100.89   22.30
   3   3  -6  117.49   19.30
  -3  -3   6  167.58   29.10
   1   2  -6 1025.90   44.30
  -1  -2   6  928.21   53.09
  -1   1  -6 1893.31   69.79
   1  -1   6 1870.61   81.59
   1  -1   6 1965.90   73.79
   3   0   6 1234.78   57.89
   5   1   6  865.11   47.40
   7   2   6  122.99   27.60
   9   3   6  467.95   52.49
   5   4  -7  351.36   46.50
   3   3  -7   17.00   12.80
  -3  -3   7   89.69   25.80
   1   2  -7  758.72   37.90
  -1  -2   7  662.93   46.00
   1  -1   7  798.82   47.90
   1  -1   7  851.21   40.60
   3   0   7  974.90   53.89
   3   0   7  998.10   48.70
   5   1   7  216.18   29.20
   7   2   7   89.59   23.40
   9   3   7  190.28   38.80
   3   3  -8   15.80   14.60
   1   2  -8   47.70   14.20
  -1  -2   8   53.79   19.70
   1  -1   8  702.23   47.30
   3   0   8 1671.93   72.89
   3   0   8 1615.74   79.49
   5   1   8  798.42   51.69
   7   2   8  196.78   32.90
   9   3   8  104.09   35.60
   3   3  -9   17.10   17.70
  -1  -2   9   10.60   19.30
   1  -1   9  611.34   45.60
   3   0   9  969.40   62.29
   3   0   9  942.71   51.19
   5   1   9  654.03   43.90
   5   1   9  546.75   49.30
   7   2   9  543.95   51.19
  -1  -2  10   15.80   21.20
   1  -1  10  556.44   46.30
   3   0  10  929.51   52.89
   3   0  10  897.51   63.39
   5   1  10  662.33   46.40
   5   1  10  510.75   49.00
   7   2  10  430.16   41.80
   7   2  10  503.25   52.59
  -1  -2  11   61.89   24.20
   1  -1  11  249.58   40.90
   3   0  11  446.06   53.99
   5   1  11  550.84   60.79
   5   1  11  615.64   47.90
   7   2  11   64.79   22.30
   7   2  11   45.70   36.00
   1  -1  12   78.39   30.40
   3   0  12  339.77   46.40
   5   1  12  547.35   49.40
   5   1  12  598.74   64.69
   4   4  12  564.44   59.89
   6   5  11  293.47   43.80
   4   4  11  364.56   46.70
   2   3  11  200.98   35.40
   6   5  10  132.69   29.80
   4   4  10  418.66   45.30
   2   3  10  478.95   49.30
   8   6   9   16.10   19.40
   6   5   9   23.70   17.80
   4   4   9 1186.68   65.19
   2   3   9  968.40   56.59
   0   2   9  736.23   49.50
   2  -1  -9   -3.40   13.40
   8   6   8  115.49   28.30
   6   5   8   16.00   14.70
   4   4   8 1277.67   66.49
   2   3   8 1532.05   72.99
   0   2   8 1419.06   71.69
   0   2   8 1529.35   70.49
   0  -2  -8 1487.75   63.49
   2  -1  -8  379.16   29.80
   4   0  -8  105.79   22.40
   8   6   7   65.09   23.90
   6   5   7   18.90   14.50
   4   4   7  420.86   34.00
   2   3   7  731.83   39.50
   2   3   7  725.43   43.30
  -2  -3  -7  713.53   34.10
   0   2   7  181.48   24.80
   0   2   7  200.58   26.70
   0  -2  -7  239.48   22.40
   2  -1  -7  528.05   32.30
   4   0  -7  156.68   24.80
   8   6   6  323.57   39.00
   6   5   6  157.18   25.20
   4   4   6  121.79   21.20
   4   4   6  179.08   21.70
   2   3   6 1949.30   80.59
   2   3   6 1846.62   75.39
  -2  -3  -6 1963.40   70.19
   0   2   6 1886.81   76.49
   0   2   6 1794.32   78.99
   0  -2  -6 1842.62   71.19
   2  -1  -6  808.32   41.10
   4   0  -6   76.19   17.90
   8   6   5  388.16   35.90
   6   5   5   -0.30   10.80
   6   5   5   16.70   12.20
   4   4   5   -1.20    8.10
   4   4   5   -1.60    8.70
  -4  -4  -5    2.60    4.60
   2   3   5 2792.02  107.59
   2   3   5 2752.72  101.09
  -2  -3  -5 2876.11   98.29
   0   2   5 2884.31  109.89
   0   2   5 2774.62  104.99
   0  -2  -5 2883.61  102.29
   2  -1  -5  975.90   45.40
   4   0  -5  321.47   26.10
   6   1  -5   52.79   18.50
   8   6   4  554.04   40.60
   6   5   4  302.97   24.40
   6   5   4  263.37   24.60
  -6  -5  -4  263.07   19.70
   4   4   4   26.00    8.80
   4   4   4   17.40    9.70
  -4  -4  -4   15.70    6.20
   2   3   4 3703.03  134.49
   2   3   4 3666.83  126.29
  -2  -3  -4 3672.13  125.89
   0   2   4 2878.61  101.39
   0   2   4 2778.72  106.29
   0  -2  -4 2804.82   99.79
   2  -1  -4 1722.83   68.39
   4   0  -4  855.21   44.40
   6   1  -4   84.89   19.40
   8   6   3  328.17   30.50
   6   5   3  597.34   34.90
  -6  -5  -3  605.74   32.60
   4   4   3  296.47   21.70
   4   4   3  276.37   18.80
  -4  -4  -3  297.07   17.40
   2   3   3   26.30    5.80
   2   3   3   21.50    7.90
  -2  -3  -3   16.40    5.00
   0   2   3 1638.74   63.59
   0   2   3 1568.44   57.49
   0  -2  -3 1543.85   57.79
   2  -1  -3 1936.31   73.59
   4   0  -3 1359.96   60.09
   6   1  -3    6.20   14.00
   8   6   2  574.14   40.10
  -6  -5  -2  929.31   44.80
  -4  -4  -2  695.93   31.80
   2   3   2  131.79   12.20
   2   3   2  106.09    8.00
  -2  -3  -2  117.39    9.00
   0   2   2 4116.99  144.59
   0  -2  -2 4168.98  140.29
   2  -1  -2 4038.40  140.79
   4   0  -2 1280.47   55.69
   6   1  -2    0.40   11.80
   8   2  -2   35.50   19.60
   8   6   1  409.06   34.60
  -6  -5  -1 1350.86   59.89
  -4  -4  -1  153.38   16.10
   2   3   1  693.43   29.20
  -2  -3  -1  625.94   27.20
   0   2   1 3892.21  134.09
   0  -2  -1 3888.61  131.09
   2  -1  -1 1735.03   63.79
   4   0  -1  928.31   43.00
   6   1  -1  686.63   40.40
   8   2  -1   -6.10   14.80
   8   6   0  369.36   39.00
   6   5   0  869.21   45.80
  -4  -4   0  223.38   17.30
   2   3   0  127.59    9.60
  -2  -3   0  133.09   10.30
   0   2   0 8563.34  282.87
   0  -2   0 8511.75  281.87
   2  -1   0 2979.50  102.49
   4   0   0 1672.93   66.09
   6   1   0  578.74   35.60
   8   2   0   31.60   17.10
   8   6  -1   93.59   23.00
   6   5  -1  337.07   33.00
  -4  -4   1 1258.57   53.59
  -2  -3   1  649.43   28.30
  -2  -3   1  633.84   30.40
   0  -2   1 1861.31   65.19
   0  -2   1 1903.51   68.09
   2  -1   1 3152.28  108.29
   2  -1   1 2990.30  104.29
   4   0   1 1756.62   67.69
   4   0   1 1779.12   71.89
   6   1   1 1341.47   59.69
   8   2   1   15.90   14.50
   8   2   1   83.89   18.00
   6   5  -2  800.02   46.50
   4   4  -2 2063.09   82.29
  -2  -3   2  956.60   44.00
  -2  -3   2  959.00   39.90
   0  -2   2 2193.68   75.49
   0  -2   2 2159.08   80.69
   2  -1   2 1860.31   62.99
   2  -1   2 1808.42   68.09
   4   0   2  494.85   24.50
   4   0   2  495.85   29.40
   6   1   2  714.93   42.50
   6   1   2  814.02   39.50
   8   2   2  136.29   23.50
   6   5  -3  390.26   32.60
   4   4  -3 1416.56   62.69
  -2  -3   3  842.42   37.40
  -2  -3   3  864.91   43.60
   0  -2   3  629.24   32.90
   0  -2   3  657.23   26.40
   2  -1   3  779.92   27.40
   2  -1   3  767.02   35.10
   4   0   3 2290.87   83.99
   4   0   3 2548.95   94.69
   6   1   3  753.82   44.20
   6   1   3  747.23   37.10
   8   2   3  639.64   45.30
   6   5  -4  333.37   37.60
   4   4  -4  557.84   34.70
   2   3  -4  160.58   17.40
  -2  -3   4  201.38   26.30
   0  -2   4   98.59   15.30
   0  -2   4  108.69    8.40
   2  -1   4 1027.00   45.60
   2  -1   4 1025.80   35.30
   4   0   4 2534.05   86.89
   4   0   4 2576.94   98.69
   6   1   4 1057.49   57.19
   8   2   4  810.42   52.29
   6   5  -5  110.49   23.90
   4   4  -5  407.66   30.40
   2   3  -5 1219.78   52.79
  -2  -3   5 1179.08   62.09
   0   2  -5  560.34   26.30
   0  -2   5  561.94   25.70
   0  -2   5  611.64   35.90
  -2   1  -5   71.49    5.60
   2  -1   5   76.09   16.50
   4   0   5 1314.47   58.89
   6   1   5  993.80   55.69
   8   2   5 1170.18   66.89
   4   4  -6  596.94   39.40
   2   3  -6 1411.96   61.99
  -2  -3   6 1464.95   72.49
   0   2  -6  574.14   28.40
   0  -2   6  594.44   38.30
   2  -1   6  117.39   21.00
   4   0   6  469.25   33.40
   6   1   6  581.24   41.00
   8   2   6  716.83   53.99
   4   4  -7  259.97   30.60
   2   3  -7  862.01   44.60
  -2  -3   7  838.32   55.59
   0   2  -7  441.76   25.90
   0  -2   7  456.75   38.80
   2  -1   7  332.07   23.80
   2  -1   7  355.26   37.30
   4   0   7   66.79   20.70
   6   1   7 1399.86   70.59
   8   2   7  798.92   58.59
   4   4  -8  153.38   27.80
   2   3  -8  601.04   38.30
  -2  -3   8  630.14   48.80
   0  -2   8  222.68   32.60
   2  -1   8  371.66   36.60
   2  -1   8  380.76   27.20
   4   0   8   56.09   23.00
   6   1   8  524.15   45.80
   8   2   8  419.56   49.99
  -2  -3   9  462.95   47.50
   0  -2   9 1252.17   72.09
   2  -1   9  411.86   42.80
   4   0   9   63.89   17.60
   4   0   9   85.19   27.40
   6   1   9  534.95   49.00
   8   2   9  572.44   56.79
  -2  -3  10  361.66   49.00
   0  -2  10 1209.58   73.99
   2  -1  10  248.98   38.10
   4   0  10   50.89   30.30
   4   0  10   47.30   18.60
   6   1  10  176.88   29.10
   6   1  10  183.38   37.80
   8   2  10  392.06   53.89
   8   2  10  459.15   42.80
   0  -2  11  739.33   60.89
   2  -1  11  439.36   52.89
   4   0  11  176.08   40.10
   4   0  11  180.48   32.00
   6   1  11    3.60   14.80
   6   1  11  -15.70   29.90
   2  -1  12  285.87   43.00
   4   0  12  276.07   49.40
   6   1  12   -4.50   17.40
   6   1  12  -29.30   32.00
   3   4  12   20.80   24.10
   5   5  11  163.08   35.30
   3   4  11   13.20   21.10
   1   3  11  409.66   47.60
   7   6  10  181.98   34.50
   5   5  10  362.56   45.80
   3   4  10   77.09   23.90
   1   3  10  329.37   41.20
   7   6   9  352.66   43.70
   5   5   9  643.94   49.70
   3   4   9  377.46   40.70
   1   3   9   83.99   22.90
   1  -2  -9  336.77   34.60
   3  -1  -9  793.92   49.30
   7   6   8  706.63   52.29
   5   5   8  987.00   58.69
   3   4   8  476.35   38.10
   1   3   8   53.09   18.70
  -1   2   8   35.40   17.30
   1  -2  -8   38.40   15.10
   3  -1  -8  580.74   38.30
   7   6   7  534.55   44.00
   5   5   7  786.82   49.90
   3   4   7  779.22   46.50
   1   3   7  574.54   40.50
   1   3   7  608.24   37.70
  -1  -3  -7  537.65   29.70
  -1   2   7  531.65   40.80
   1  -2  -7  547.85   32.60
   3  -1  -7  625.14   37.20
   9   7   6   14.00   17.10
   7   6   6  273.57   34.00
   5   5   6  516.15   37.90
   3   4   6 1187.18   59.29
  -3  -4  -6 1289.87   49.20
   1   3   6  691.63   41.30
   1   3   6  723.03   35.80
  -1  -3  -6  667.53   32.40
  -1   2   6  358.96   31.50
   1  -2  -6  337.37   24.10
   3  -1  -6  515.65   32.90
   5   0  -6  570.94   39.10
   7   6   5   38.00   16.00
   5   5   5 1452.35   66.89
  -5  -5  -5 1343.67   67.19
   3   4   5 1908.41   81.89
   3   4   5 2031.00   73.59
  -3  -4  -5 1938.71   71.59
   1   3   5  863.81   44.20
   1   3   5  835.62   37.00
  -1  -3  -5  820.22   35.60
  -1   2   5   97.89   18.40
   1  -2  -5   82.39   14.00
   3  -1  -5  501.65   31.50
   5   0  -5  570.44   37.90
   7   6   4   13.80   11.00
   5   5   4  682.53   34.80
   5   5   4  666.73   39.20
  -5  -5  -4  659.33   31.90
   3   4   4 1131.39   43.70
   3   4   4 1138.09   52.09
  -3  -4  -4 1123.99   44.30
   1   3   4 1556.84   57.19
   1   3   4 1533.85   65.29
  -1  -3  -4 1579.64   57.99
  -1   2   4 1073.49   49.60
   1  -2  -4 1013.80   43.80
   3  -1  -4  203.98   21.70
   5   0  -4  406.66   31.20
   7   6   3   19.00   10.50
   7   6   3   19.80   12.10
  -7  -6  -3   19.10   11.10
   5   5   3  272.67   22.90
   5   5   3  292.47   21.50
  -5  -5  -3  278.27   19.30
   3   4   3 1340.97   50.99
   3   4   3 1402.36   58.29
  -3  -4  -3 1363.06   52.09
   1   3   3  931.71   43.10
  -1  -3  -3  976.00   37.60
  -1   2   3 3056.79  113.39
   1  -2  -3 3068.49  108.59
   3  -1  -3  152.68   18.10
   5   0  -3  299.87   25.90
   7   1  -3  394.26   34.40
   7   6   2  123.59   19.90
   5   5   2  229.58   20.70
  -5  -5  -2  284.47   20.40
   3   4   2 1905.21   73.19
  -3  -4  -2 1865.61   69.39
   1   3   2 2808.62  101.19
  -1  -3  -2 2761.72   96.49
   1  -2  -2 1000.40   39.80
   3  -1  -2  104.59   14.40
   5   0  -2  399.06   28.70
   7   1  -2  436.26   35.10
   7   6   1  169.58   23.80
  -5  -5  -1   57.79   12.60
   3   4   1 1886.31   71.69
  -3  -4  -1 1906.51   70.49
   1   3   1 2105.99   75.19
  -1  -3  -1 2000.00   72.39
   1  -2  -1  758.32   30.90
   3  -1  -1   84.29   11.50
   5   0  -1 1052.89   49.70
   7   1  -1  421.96   33.80
   7   6   0   55.09   16.40
  -5  -5   0   38.80   11.30
   3   4   0  983.80   39.90
  -3  -4   0  984.20   41.40
   1   3   0 1521.35   54.29
  -1  -3   0 1502.45   54.29
  -1  -3   0 1424.66   53.99
   1  -2   0 3619.94  121.99
   1  -2   0 3559.14  122.19
   3  -1   0  403.86   21.00
   5   0   0   81.59   14.20
   7   1   0  471.95   34.30
   7   6  -1  119.59   23.60
  -5  -5   1   11.00    9.90
   3   4  -1  543.25   23.50
  -3  -4   1  526.75   27.50
  -1  -3   1 6200.38  209.48
  -1  -3   1 6261.47  212.18
   1  -2   1 1582.14   54.79
   1  -2   1 1519.75   56.69
   3  -1   1 1264.47   49.10
   3  -1   1 1362.76   54.09
   5   0   1    0.60    8.10
   5   0   1    8.20    8.80
   7   1   1  294.07   29.80
   7   1   1  337.77   29.30
   9   2   1  338.97   35.70
   7   6  -2  140.99   26.50
   5   5  -2  284.57   28.50
  -3  -4   2  118.39   14.30
  -1  -3   2 2630.14   99.89
  -1  -3   2 2787.22   95.69
   1  -2   2  203.68   10.60
   1  -2   2  202.98   14.40
   3  -1   2 2025.70   71.69
   3  -1   2 2040.50   78.29
   5   0   2   18.40   10.00
   5   0   2   43.40   10.80
   7   1   2  320.57   29.40
   7   1   2  348.47   28.40
   9   2   2  521.05   42.60
   7   6  -3  465.05   47.30
   5   5  -3   67.09   16.60
  -3  -4   3  136.09   21.40
  -3  -4   3  224.98   21.50
  -1  -3   3  781.12   33.40
  -1  -3   3  795.12   39.60
   1  -2   3  774.12   29.20
   1  -2   3  758.12   35.80
   3  -1   3 1527.65   62.39
   3  -1   3 1552.64   54.29
   5   0   3   10.70    7.30
   5   0   3   18.20   10.10
   7   1   3  272.97   29.60
   9   2   3  273.47   35.20
   5   5  -4  111.99   21.30
   3   4  -4    1.30    7.40
  -3  -4   4   -2.90   11.80
  -1  -3   4  955.60   48.80
  -1  -3   4  943.11   40.10
   1  -2   4 5405.76  181.48
   1  -2   4 5442.06  191.88
   3  -1   4 1810.82   61.69
   3  -1   4 1840.92   72.99
   5   0   4  439.86   31.70
   7   1   4   34.70   17.30
   9   2   4  211.48   33.60
   5   5  -5  291.37   33.60
   3   4  -5  157.58   20.30
  -3  -4   5  109.69   23.90
   1   3  -5  349.17   21.40
  -1  -3   5  337.07   31.30
   1  -2   5 6079.59  218.88
   1  -2   5 6208.88  206.08
   3  -1   5 1317.27   59.19
   5   0   5 1453.75   67.99
   7   1   5   30.00   16.40
   9   2   5  290.77   42.00
   5   5  -6  237.68   30.40
   3   4  -6  175.38   23.70
  -3  -4   6  157.38   29.50
   1   3  -6  253.37   19.60
  -1  -3   6  294.57   35.00
  -1   2  -6 1110.09   44.40
   1  -2   6 1131.59   47.10
   1  -2   6 1189.78   58.69
   3  -1   6  852.81   47.20
   5   0   6 1694.03   76.79
   7   1   6   22.60   18.20
   9   2   6  139.69   34.70
   3   4  -7   93.19   18.30
  -3  -4   7  153.98   31.90
   1   3  -7   90.49   15.10
  -1  -3   7   98.99   22.70
   1  -2   7  192.18   28.10
   3  -1   7 1228.98   61.79
   5   0   7  357.16   36.60
   7   1   7  149.79   29.30
   9   2   7   26.90   27.10
   3   4  -8  153.38   24.10
  -3  -4   8  208.28   37.10
   1   3  -8  327.87   26.40
  -1  -3   8  387.36   38.20
   1  -2   8  137.59   28.00
   3  -1   8 1440.26   64.69
   3  -1   8 1404.96   73.49
   5   0   8  737.63   49.10
   7   1   8  659.33   54.49
   9   2   8  -19.20   26.60
   3   4  -9  383.76   41.10
  -3  -4   9  467.45   56.89
  -1  -3   9  175.18   32.30
   1  -2   9  117.09   28.90
   3  -1   9 1108.79   66.29
   3  -1   9 1141.69   56.09
   5   0   9  872.31   58.09
   7   1   9  988.80   67.99
  -1  -3  10  177.08   35.20
   1  -2  10   68.59   27.30
   3  -1  10  596.64   54.89
   5   0  10  641.34   44.80
   5   0  10  639.44   57.79
   7   1  10  748.13   63.09
  -1  -3  11  212.18   40.30
   1  -2  11   82.89   31.60
   3  -1  11  112.79   35.20
   5   0  11  500.25   58.89
   5   0  11  468.35   41.00
   7   1  11  183.18   42.20
   7   1  11  258.07   38.10
   1  -2  12  168.48   39.20
   3  -1  12   52.49   29.70
   5   0  12  339.67   56.19
   4   5  12  436.96   56.19
   6   6  11   -8.20   23.10
   4   5  11  239.18   38.30
   2   4  11  478.55   52.99
   6   6  10   -1.60   20.20
   4   5  10  109.19   28.80
   2   4  10  683.33   53.69
   0   3  10  481.05   49.99
   6   6   9   32.80   23.00
   4   5   9  225.48   34.40
   2   4   9  806.92   56.09
   0   3   9  615.44   48.20
   2  -2  -9  408.26   40.60
   8   7   8  249.68   40.80
   6   6   8  175.48   32.10
   4   5   8   40.20   17.90
   2   4   8  245.38   30.20
   0   3   8  714.53   49.50
   0  -3  -8  708.13   39.50
   2  -2  -8  581.44   38.40
   4  -1  -8   22.90   16.70
   8   7   7  181.18   33.40
   6   6   7  236.18   32.10
   4   5   7   31.80   15.20
   2   4   7  312.77   30.70
  -2  -4  -7  250.27   18.20
   0   3   7  694.93   47.00
   0  -3  -7  675.33   36.40
   2  -2  -7  652.93   38.80
   4  -1  -7   53.59   16.00
   8   7   6  391.26   39.00
   6   6   6  936.71   55.29
   4   5   6   92.69   18.60
   2   4   6  177.68   24.70
  -2  -4  -6  162.58   14.60
   0   3   6 2149.78   85.69
   0   3   6 2257.57   94.99
   0  -3  -6 2249.18   85.09
   2  -2  -6 1009.80   48.00
   4  -1  -6  317.07   32.20
   8   7   5  346.97   39.40
   6   6   5  212.58   27.60
   4   5   5  345.37   29.00
  -4  -5  -5  293.97   18.70
   2   4   5  355.96   28.10
  -2  -4  -5  381.96   20.90
   0   3   5 1259.77   59.99
   0  -3  -5 1217.18   50.89
   2  -2  -5 1024.50   46.90
   4  -1  -5  653.13   38.20
   6   0  -5   14.20   13.40
   6   6   4  159.98   22.80
  -6  -6  -4  187.58   19.80
   4   5   4  268.57   23.80
   4   5   4  269.27   24.40
  -4  -5  -4  282.47   17.70
   2   4   4  812.72   41.90
  -2  -4  -4  863.31   35.40
   0   3   4  707.13   38.50
   0  -3  -4  683.73   31.60
   2  -2  -4 1416.16   58.59
   4  -1  -4  685.73   38.30
   6   0  -4   50.39   16.10
   6   6   3  446.86   31.40
   6   6   3  459.95   29.50
  -6  -6  -3  416.66   26.90
   4   5   3  486.25   30.20
   4   5   3  475.25   24.70
  -4  -5  -3  475.75   25.10
   2   4   3   40.80   10.20
  -2  -4  -3   29.50    6.70
   0   3   3  917.11   43.50
   0  -3  -3  858.81   36.70
   2  -2  -3  890.91   39.80
   4  -1  -3  678.33   37.00
   6   0  -3   52.29   16.90
   8   7   2  341.07   35.90
  -6  -6  -2  799.72   40.70
   4   5   2 1638.04   67.59
  -4  -5  -2 1641.64   64.19
   2   4   2  748.33   35.30
  -2  -4  -2  732.13   31.30
   0   3   2  175.08   16.10
   0  -3  -2  180.68   12.50
   2  -2  -2 2602.74   94.39
   4  -1  -2 1327.07   57.29
   6   0  -2  307.37   27.40
   8   1  -2  -13.20   17.00
   8   7   1  321.47   36.50
  -6  -6  -1  698.93   38.60
   4   5   1  557.34   30.20
  -4  -5  -1  578.94   29.50
   2   4   1  703.33   32.00
  -2  -4  -1  687.03   30.20
   0   3   1  403.66   22.20
   0  -3  -1  401.76   19.10
   2  -2  -1 2595.44   92.99
   4  -1  -1 1432.96   58.99
   6   0  -1 1312.37   60.89
   8   1  -1   40.80   18.50
   8   7   0   64.49   18.50
  -6  -6   0  451.35   31.50
   4   5   0  905.31   40.00
  -4  -5   0  927.91   42.10
   2   4   0 1994.50   73.19
  -2  -4   0 2071.49   74.59
   0  -3   0 1080.19   41.30
   0  -3   0 1101.09   40.90
   2  -2   0 2204.38   80.69
   2  -2   0 2207.08   78.89
   4  -1   0 2449.25   90.69
   6   0   0  827.02   43.60
   8   1   0  102.79   21.80
   8   1   0   88.79   21.40
   6   6  -1  263.17   30.40
  -4  -5   1  956.70   44.60
   2   4  -1 1879.01   66.99
  -2  -4   1 1890.41   73.59
  -2  -4   1 1966.50   71.39
   0  -3   1  354.86   17.50
   0  -3   1  400.26   20.80
   2  -2   1   32.10    6.50
   2  -2   1   28.10    7.40
   4  -1   1 1279.07   52.49
   4  -1   1 1405.16   59.09
   6   0   1  982.90   46.50
   6   0   1  885.41   49.00
   8   1   1  327.37   32.60
   8   1   1  341.67   32.10
   6   6  -2  714.73   44.30
  -4  -5   2 1341.47   58.59
  -2  -4   2 1323.17   56.59
  -2  -4   2 1224.88   51.09
   0  -3   2  130.69    9.80
   0  -3   2  142.19   16.60
   2  -2   2  343.47   16.10
   2  -2   2  350.46   20.50
   4  -1   2 1155.88   51.89
   4  -1   2 1087.39   44.30
   6   0   2  919.41   50.49
   6   0   2 1043.50   45.90
   8   1   2  384.66   35.40
   6   6  -3  107.99   20.20
  -4  -5   3  915.81   46.80
  -2  -4   3 1043.80   51.69
  -2  -4   3 1056.79   45.00
   0  -3   3 2102.89   83.69
   0  -3   3 2129.39   75.79
   2  -2   3   92.69   13.00
   2  -2   3  105.39    7.40
   4  -1   3 1337.57   60.09
   4  -1   3 1378.36   50.99
   6   0   3 1134.39   58.79
   6   0   3 1117.59   47.70
   8   1   3  588.04   43.30
   6   6  -4   10.30   12.90
   4   5  -4  527.05   34.80
  -2  -4   4  822.62   39.70
  -2  -4   4  873.01   48.70
   0  -3   4 3998.60  136.09
   0  -3   4 3866.11  145.79
   2  -2   4  180.78    9.90
   2  -2   4  197.38   21.20
   4  -1   4  537.15   33.30
   4  -1   4  492.05   21.50
   6   0   4 1198.58   63.09
   8   1   4  856.31   54.99
   4   5  -5  232.18   28.00
   2   4  -5 1172.88   53.69
  -2  -4   5 1266.27   65.39
   0  -3   5 1573.04   71.99
   0  -3   5 1615.54   60.79
   2  -2   5  877.21   45.40
   2  -2   5  902.91   33.20
   4  -1   5   64.59   15.20
   6   0   5  413.66   35.40
   8   1   5 1061.99   65.79
   4   5  -6  290.17   32.10
   2   4  -6 1303.47   59.69
  -2  -4   6 1385.56   72.19
   0   3  -6  893.41   39.40
   0  -3   6  900.71   50.69
   2  -2   6  533.45   37.00
   4  -1   6   93.29   19.50
   6   0   6  320.67   34.50
   8   1   6  525.45   46.50
   4   5  -7   27.20   15.30
   2   4  -7  528.55   33.60
  -2  -4   7  531.45   44.20
   0   3  -7  773.42   37.20
   0  -3   7  797.42   49.20
   2  -2   7 1161.88   50.59
   2  -2   7 1078.49   60.19
   4  -1   7  293.57   34.60
   6   0   7  528.45   42.80
   8   1   7  478.25   54.49
   4   5  -8   -6.30   13.80
   2   4  -8  339.77   27.90
  -2  -4   8  328.87   42.90
   0  -3   8  304.17   37.50
   2  -2   8  701.03   48.50
   4  -1   8  114.09   26.90
   6   0   8  156.38   30.80
   8   1   8  160.98   39.40
  -2  -4   9   44.50   23.10
   0  -3   9  706.53   52.79
   2  -2   9 1151.58   69.69
   4  -1   9  311.27   40.10
   4  -1   9  276.17   26.70
   6   0   9   -5.50   24.90
   8   1   9  266.77   47.90
  -2  -4  10   64.99   29.30
   0  -3  10  571.34   50.99
   2  -2  10  504.05   50.09
   4  -1  10  591.54   61.49
   4  -1  10  506.75   37.80
   6   0  10   44.60   29.10
   8   1  10   51.69   37.20
   0  -3  11  368.06   50.89
   2  -2  11  381.06   50.69
   4  -1  11  517.15   61.89
   6   0  11  138.49   28.20
   6   0  11  140.19   40.30
   2  -2  12  237.48   42.90
   4  -1  12  383.66   56.39
   5   6  11  234.58   41.70
   3   5  11  536.85   59.99
   1   4  11    5.20   22.10
   7   7  10   97.09   31.50
   5   6  10  326.47   43.00
   3   5  10  429.06   50.59
   1   4  10   -7.80   18.80
   7   7   9  158.18   32.30
   5   6   9  433.76   43.50
   3   5   9  539.75   44.90
   1   4   9   45.80   20.50
  -1   3   9   19.80   18.20
   1  -3  -9   36.90   17.60
   3  -2  -9  493.65   47.00
   7   7   8  220.38   36.40
   5   6   8  587.44   46.70
   3   5   8  275.87   35.50
   1   4   8  163.68   28.30
  -1  -4  -8  162.18   20.00
  -1   3   8   41.80   19.10
   1  -3  -8   50.09   17.10
   3  -2  -8  246.28   30.90
   7   7   7   69.59   23.10
   5   6   7  519.25   41.80
   3   5   7 1140.69   60.69
   1   4   7 1606.44   78.19
  -1  -4  -7 1631.44   65.49
  -1   3   7   -8.50   14.30
   1  -3  -7    3.50   11.30
   3  -2  -7  287.87   32.20
   7   7   6   11.90   16.20
   5   6   6  119.69   23.50
   3   5   6 1023.60   54.39
  -3  -5  -6 1037.50   44.10
   1   4   6  826.02   49.70
  -1  -4  -6  836.22   38.10
  -1   3   6  282.77   33.20
   1  -3  -6  262.07   23.40
   3  -2  -6   76.89   17.70
   5  -1  -6  302.47   31.40
   7   7   5   18.10   14.90
   5   6   5  629.84   41.00
  -5  -6  -5  550.04   29.60
   3   5   5 1186.48   58.89
  -3  -5  -5 1232.78   49.60
   1   4   5 1159.88   57.39
  -1  -4  -5 1151.08   47.60
  -1   3   5  299.87   30.00
   1  -3  -5  290.47   22.60
   3  -2  -5  178.88   22.50
   5  -1  -5  351.06   29.00
   7   7   4   27.80   13.40
   5   6   4  373.96   30.20
  -5  -6  -4  378.46   23.60
   3   5   4  870.51   46.10
  -3  -5  -4  918.51   38.90
   1   4   4 2707.43  104.79
  -1  -4  -4 2568.64   94.69
  -1   3   4  805.12   44.30
   1  -3  -4  833.62   38.10
   3  -2  -4   20.50   10.10
   5  -1  -4  324.47   31.30
  -7  -7  -3   75.99   16.00
   5   6   3  161.18   21.10
  -5  -6  -3  206.58   20.40
   3   5   3 2290.07   80.59
   3   5   3 2266.27   90.59
  -3  -5  -3 2313.87   84.39
   1   4   3 3643.04  135.19
  -1  -4  -3 3672.93  127.79
  -1   3   3 2588.94   99.19
   1  -3  -3 2478.25   92.59
   3  -2  -3  146.99   17.20
   5  -1  -3  138.79   20.60
   7   0  -3  359.66   31.70
  -7  -7  -2  395.76   29.70
   5   6   2   -0.60    8.30
  -5  -6  -2    5.90    7.90
   3   5   2  650.33   35.10
  -3  -5  -2  703.63   31.70
   1   4   2  795.02   38.00
  -1  -4  -2  738.73   32.20
   1  -3  -2 2298.77   83.59
   3  -2  -2  593.04   31.00
   5  -1  -2   13.50   10.00
   7   0  -2  252.87   28.60
  -7  -7  -1  336.07   29.30
  -5  -6  -1  160.88   18.90
   3   5   1  268.77   19.50
  -3  -5  -1  266.27   18.00
   1   4   1  974.40   41.50
  -1  -4  -1  945.51   38.60
   1  -3  -1 4809.82  163.38
   1  -3  -1 4743.73  161.88
   3  -2  -1  995.60   42.80
   5  -1  -1   92.39   15.50
   7   0  -1  155.48   24.40
   7   7   0  156.08   24.10
  -5  -6   0  258.77   21.50
   3   5   0    1.90    5.60
  -3  -5   0    8.20    6.10
   1   4   0 1017.80   41.20
  -1  -4   0 1031.90   41.10
  -1  -4   0 1038.60   40.80
   1  -3   0 4079.29  140.39
   1  -3   0 4149.48  140.79
   3  -2   0 2172.38   81.89
   3  -2   0 2042.40   77.99
   5  -1   0  630.04   33.90
   5  -1   0  647.14   38.50
   7   0   0   19.80   13.20
   7   0   0   33.30   14.10
   7   7  -1  268.27   31.00
  -5  -6   1  386.96   27.90
  -3  -5   1   42.10   10.40
  -1  -4   1 4331.17  155.28
  -1  -4   1 4579.14  153.38
   1  -3   1 1229.58   49.20
   1  -3   1 1312.57   47.70
   3  -2   1 1927.11   70.39
   3  -2   1 1884.41   74.79
   5  -1   1  395.76   28.40
   5  -1   1  410.06   24.50
   7   0   1   82.99   18.70
   7   0   1  101.29   18.20
   9   1   1  112.29   25.00
   7   7  -2  181.88   27.70
  -5  -6   2  801.32   44.60
  -3  -5   2   -2.40    7.30
  -3  -5   2    6.10    9.90
  -1  -4   2  495.15   28.20
  -1  -4   2  467.05   23.50
   1  -3   2 1525.35   59.59
   1  -3   2 1502.35   54.99
   3  -2   2 4233.08  153.48
   3  -2   2 4366.56  147.09
   5  -1   2  498.35   27.20
   5  -1   2  514.15   34.10
   7   0   2   86.99   16.40
   7   0   2  113.29   22.20
   9   1   2  191.48   31.60
   5   6  -3  308.47   31.80
  -3  -5   3   64.09   16.90
  -3  -5   3   85.39   15.20
  -1  -4   3   26.30   11.20
  -1  -4   3   12.60    6.60
   1  -3   3  814.72   39.90
   1  -3   3  869.51   33.50
   3  -2   3 1793.12   63.19
   3  -2   3 1737.93   71.59
   5  -1   3  380.46   32.00
   5  -1   3  423.36   23.20
   7   0   3    2.20   12.80
   9   1   3   35.40   21.20
   5   6  -4  235.98   31.30
  -3  -5   4 1044.00   49.60
  -3  -5   4 1049.89   58.79
  -1  -4   4   40.70    9.20
  -1  -4   4   35.10   13.80
   1  -3   4  428.16   30.00
   1  -3   4  429.86   20.30
   3  -2   4 1342.27   58.39
   3  -2   4 1311.77   47.40
   5  -1   4  706.83   42.50
   7   0   4  691.33   48.80
   9   1   4   30.30   21.80
   5   6  -5  140.49   24.00
   3   5  -5  597.84   36.30
  -3  -5   5  561.04   45.00
  -1  -4   5    0.70   12.80
  -1  -4   5    6.40    8.20
   1  -3   5  904.71   36.50
   1  -3   5  913.31   50.39
   3  -2   5  791.02   42.50
   5  -1   5 1356.96   65.49
   7   0   5  411.26   40.30
   9   1   5   54.19   26.10
   5   6  -6  358.56   40.30
   3   5  -6  376.06   30.70
  -3  -5   6  414.76   40.30
   1   4  -6   31.60   10.50
  -1  -4   6   34.30   18.10
   1  -3   6  276.57   30.20
   1  -3   6  306.77   17.50
   3  -2   6  765.22   44.50
   5  -1   6 2171.28   94.39
   7   0   6  195.38   32.40
   9   1   6   -9.80   21.80
   3   5  -7  241.98   28.40
  -3  -5   7  280.27   42.30
   1   4  -7  230.88   24.30
  -1  -4   7  221.68   33.00
   1  -3   7   23.30   17.80
   3  -2   7  467.45   39.50
   5  -1   7  433.66   40.10
   7   0   7  278.57   40.70
   9   1   7   50.19   31.30
   3   5  -8  218.58   29.60
  -3  -5   8  245.18   40.10
  -1  -4   8  709.93   52.39
   1  -3   8  -15.10   14.60
   3  -2   8  448.46   43.00
   5  -1   8  807.02   53.29
   7   0   8  582.54   54.89
   9   1   8  146.69   40.20
  -3  -5   9  234.48   43.20
  -1  -4   9  160.18   33.20
   1  -3   9   17.10   21.00
   3  -2   9  209.68   37.40
   5  -1   9  490.25   53.69
   7   0   9  686.23   60.59
  -1  -4  10  295.17   46.30
   1  -3  10  133.79   31.30
   3  -2  10  143.49   35.50
   5  -1  10  313.47   30.70
   5  -1  10  357.06   49.70
   7   0  10  635.64   68.29
   1  -3  11  291.27   44.00
   3  -2  11   57.29   32.20
   5  -1  11  291.67   50.79
   7   0  11  279.77   36.30
   7   0  11  264.77   49.99
   3  -2  12   51.79   32.70
   5  -1  12  138.59   44.80
   4   6  11   48.40   30.50
   2   5  11   74.99   30.40
   0   4  11  504.05   58.99
   6   7  10  140.09   34.30
   4   6  10   36.30   25.40
   2   5  10  427.06   49.80
   0   4  10  561.74   50.29
   6   7   9  379.06   48.20
   4   6   9    4.70   16.90
   2   5   9  301.97   38.60
   0   4   9  621.94   51.49
   2  -3  -9  633.44   44.30
   6   7   8  275.37   39.30
   4   6   8   89.99   23.90
   2   5   8  422.86   39.00
   0   4   8  603.14   48.40
   0  -4  -8  572.34   36.20
   2  -3  -8 1136.59   58.99
   8   8   7  288.67   43.20
   6   7   7  350.26   41.80
   4   6   7  427.96   38.50
   2   5   7   20.00   17.70
  -2  -5  -7   32.00   10.30
   0   4   7   28.50   17.30
   0  -4  -7    4.30   10.50
   2  -3  -7  993.40   52.59
   4  -2  -7  437.46   40.90
   8   8   6  352.86   44.40
   6   7   6  668.33   48.50
   4   6   6  647.64   42.90
  -4  -6  -6  661.33   33.10
   2   5   6   64.79   18.20
  -2  -5  -6   54.59   11.90
   0   4   6  500.55   40.50
   0  -4  -6  468.55   29.30
   2  -3  -6  702.03   40.50
   4  -2  -6  641.34   40.70
   6   7   5  193.68   28.50
   4   6   5  634.44   42.70
  -4  -6  -5  755.42   34.80
   2   5   5  227.28   28.00
  -2  -5  -5  212.48   17.20
   0   4   5  763.92   46.40
   0  -4  -5  776.22   37.60
   2  -3  -5  607.64   35.90
   4  -2  -5 1503.95   68.09
   6  -1  -5  190.98   39.20
   6   7   4  543.45   38.20
  -6  -7  -4  457.35   29.30
   4   6   4  885.71   48.50
  -4  -6  -4  907.41   40.70
   2   5   4  104.39   18.50
  -2  -5  -4  115.29   13.70
   0   4   4  509.45   36.20
   0  -4  -4  533.25   27.40
   2  -3  -4  588.94   33.40
   4  -2  -4 1082.99   52.39
   6  -1  -4  269.07   28.60
   6   7   3  733.03   44.30
  -6  -7  -3  722.73   39.00
   4   6   3 1409.46   63.39
  -4  -6  -3 1329.97   56.09
   2   5   3 1663.63   71.39
  -2  -5  -3 1707.23   64.79
   0   4   3  138.89   20.60
   0  -4  -3  121.09   13.60
   2  -3  -3  205.08   18.60
   4  -2  -3  889.71   44.70
   6  -1  -3  443.36   31.30
   8   8   2   34.10   14.50
  -6  -7  -2  437.36   29.80
   4   6   2  520.85   32.30
  -4  -6  -2  534.15   29.10
   2   5   2 1123.59   49.90
  -2  -5  -2 1078.09   44.90
   0   4   2  649.04   35.20
   0  -4  -2  640.84   29.50
   2  -3  -2  568.74   29.40
   4  -2  -2  624.24   34.50
   6  -1  -2  509.05   33.80
   8   8   1   35.50   15.40
  -6  -7  -1  209.98   24.20
   4   6   1  109.49   16.40
  -4  -6  -1  150.68   17.50
   2   5   1 1225.68   51.59
  -2  -5  -1 1191.28   48.60
   0   4   1  390.76   23.10
   0  -4  -1  325.87   18.90
   0  -4  -1  373.46   17.80
   2  -3  -1  424.16   23.00
   2  -3  -1  428.06   23.00
   4  -2  -1  205.88   20.50
   6  -1  -1  817.52   43.40
   8   0  -1  288.37   36.90
   8   0  -1  242.58   31.20
  -6  -7   0   62.89   15.50
  -4  -6   0  651.23   34.30
   2   5   0 1591.74   60.29
  -2  -5   0 1638.64   61.59
  -2  -5   0 1509.55   60.19
   0  -4   0  103.49   11.00
   0  -4   0  145.59   13.10
   2  -3   0  205.08   15.10
   2  -3   0  205.38   15.00
   4  -2   0  289.37   21.00
   4  -2   0  256.97   22.90
   6  -1   0  513.85   32.30
   6  -1   0  582.04   37.50
   8   0   0  346.57   35.10
   8   0   0  330.27   34.10
  -6  -7   1   -3.30   10.20
  -4  -6   1 1025.30   48.10
   2   5  -1  914.11   36.20
  -2  -5   1  916.11   42.30
  -2  -5   1  962.50   40.70
   0  -4   1 2774.62  100.09
   0  -4   1 2735.83   97.19
   2  -3   1   12.10    6.40
   2  -3   1   19.20    6.80
   4  -2   1  447.36   25.30
   4  -2   1  429.16   28.30
   6  -1   1 1164.78   52.29
   6  -1   1 1112.59   57.29
   8   0   1  487.65   35.30
   8   0   1  554.94   42.20
   6   7  -2  131.39   22.10
  -4  -6   2  811.12   42.10
  -2  -5   2  961.60   47.20
  -2  -5   2  946.01   42.10
   0  -4   2 1721.03   69.59
   0  -4   2 1722.23   63.79
   2  -3   2  521.35   23.10
   2  -3   2  478.05   26.20
   4  -2   2  323.87   19.70
   4  -2   2  290.67   24.40
   6  -1   2  501.35   37.10
   6  -1   2  497.15   29.90
   8   0   2  371.56   35.60
   6   7  -3   11.30   12.10
  -4  -6   3  248.98   25.70
  -2  -5   3  956.00   43.80
  -2  -5   3  989.00   51.69
   0  -4   3 1235.18   48.70
   0  -4   3 1251.67   57.09
   2  -3   3  688.73   29.10
   2  -3   3  754.52   36.80
   4  -2   3  705.43   31.90
   4  -2   3  780.42   42.10
   6  -1   3  218.28   32.00
   8   0   3  619.24   45.60
   6   7  -4   25.70   15.80
  -4  -6   4   43.40   15.20
  -2  -5   4  265.17   20.60
  -2  -5   4  295.57   29.40
   0  -4   4  652.93   30.10
   0  -4   4  661.73   40.80
   2  -3   4  358.26   27.50
   2  -3   4  386.86   18.10
   4  -2   4   56.49    8.40
   4  -2   4   79.89   17.00
   6  -1   4  298.07   35.40
   8   0   4  556.34   47.90
   4   6  -5   21.30   13.30
  -2  -5   5  643.34   46.30
  -2  -5   5  633.44   35.20
   0  -4   5 1002.20   41.80
   0  -4   5  940.01   52.59
   2  -3   5  828.72   46.00
   2  -3   5  870.91   33.80
   4  -2   5  161.38   23.70
   6  -1   5  239.38   32.00
   8   0   5  583.74   50.69
   4   6  -6    7.00   11.70
   2   5  -6  627.74   36.50
  -2  -5   6  611.34   47.70
   0  -4   6 1654.73   64.19
   0  -4   6 1582.44   76.59
   2  -3   6 1453.65   69.89
   4  -2   6  511.55   39.40
   6  -1   6   62.69   20.30
   8   0   6  259.57   40.40
   4   6  -7   54.09   18.00
   2   5  -7  175.08   23.30
  -2  -5   7  202.58   35.40
   0   4  -7  719.93   36.20
   0  -4   7  628.64   45.50
   2  -3   7 1211.58   65.39
   4  -2   7  859.71   54.19
   6  -1   7  102.69   28.30
   8   0   7  290.17   46.00
   2   5  -8  130.39   22.80
  -2  -5   8   96.49   30.40
   0  -4   8  180.18   30.80
   2  -3   8  835.02   56.79
   4  -2   8  491.25   45.20
   6  -1   8   41.00   24.10
   8   0   8   50.09   31.70
  -2  -5   9  -20.20   20.20
   0  -4   9  467.95   46.00
   2  -3   9  782.82   58.99
   4  -2   9  546.65   55.29
   6  -1   9   89.79   30.30
   8   0   9   21.70   33.80
   0  -4  10  265.57   43.20
   2  -3  10  484.15   51.69
   4  -2  10  594.64   59.09
   6  -1  10  390.16   54.39
   0  -4  11   71.79   31.80
   2  -3  11  263.77   45.40
   4  -2  11  546.65   63.29
   6  -1  11  562.44   44.00
   6  -1  11  541.75   63.29
   4  -2  12  605.44   70.89
   3   6  11  613.54   64.79
   1   5  11   30.80   27.50
   5   7  10  281.77   44.60
   3   6  10  560.14   51.99
   1   5  10  258.97   42.40
   7   8   9  -16.20   17.60
   5   7   9  223.58   36.70
   3   6   9  637.54   55.39
   1   5   9  468.75   48.10
   1  -4  -9   75.99   20.50
   7   8   8   -8.60   17.10
   5   7   8  247.88   35.80
   3   6   8  560.44   46.10
   1   5   8  759.32   55.09
  -1  -5  -8  729.83   39.60
   1  -4  -8  256.47   30.70
   3  -3  -8    0.00   16.00
   7   8   7  -16.10   15.60
   5   7   7  122.89   27.10
   3   6   7  370.06   37.20
   1   5   7 1228.08   67.99
  -1  -5  -7 1190.08   53.29
  -1   4   7  168.78   28.40
   1  -4  -7  184.68   23.70
   3  -3  -7    0.80   14.40
   7   8   6   -4.50   15.20
   5   7   6   18.70   15.00
   3   6   6  170.18   26.70
  -3  -6  -6  173.18   19.20
   1   5   6  521.55   40.80
  -1  -5  -6  494.35   29.30
  -1   4   6  433.06   38.70
   1  -4  -6  435.66   30.10
   3  -3  -6    8.40   14.60
   5  -2  -6  111.99   22.60
   7   8   5  173.98   29.00
   5   7   5   16.70   14.00
  -5  -7  -5   28.70   10.10
   3   6   5  310.87   34.10
  -3  -6  -5  334.57   21.90
   1   5   5  932.31   52.79
  -1  -5  -5  972.80   43.20
  -1   4   5 1004.10   56.29
   1  -4  -5 1080.29   49.20
   3  -3  -5  -11.70   10.40
   5  -2  -5   -2.00   12.60
   5   7   4   79.19   18.80
  -5  -7  -4   64.19   12.60
   3   6   4  417.16   32.90
  -3  -6  -4  455.55   25.90
   1   5   4 1386.46   66.39
  -1  -5  -4 1399.46   56.59
   1  -4  -4 2077.19   81.09
   3  -3  -4  377.26   28.30
   5  -2  -4   38.10   15.00
  -7  -8  -3  229.18   26.40
   5   7   3  136.29   21.40
  -5  -7  -3  131.09   18.20
   3   6   3  324.37   27.00
  -3  -6  -3  305.67   20.90
   1   5   3  258.07   27.00
  -1  -5  -3  264.77   17.70
   1  -4  -3 2123.99   81.29
   3  -3  -3 1020.70   48.70
   5  -2  -3   20.10   12.50
   7  -1  -3  177.18   26.10
  -7  -8  -2  323.27   31.50
  -5  -7  -2    9.10    9.40
   3   6   2   79.29   15.00
  -3  -6  -2   71.59   11.80
   1   5   2  577.74   34.00
  -1  -5  -2  619.14   29.30
   1  -4  -2  913.61   37.50
   1  -4  -2  962.00   41.00
   3  -3  -2 1037.40   47.80
   5  -2  -2   20.60   12.30
   7  -1  -2    9.60   14.30
  -7  -8  -1  282.17   30.40
  -5  -7  -1  244.78   25.00
   3   6   1   -0.70    7.90
  -3  -6  -1   -2.80    6.30
   1   5   1 1181.48   51.09
  -1  -5  -1 1196.48   43.60
  -1  -5  -1 1176.18   48.10
   1  -4  -1 1843.22   66.69
   1  -4  -1 1821.92   69.09
   3  -3  -1  997.70   44.40
   3  -3  -1  983.40   45.80
   5  -2  -1   35.20   13.20
   5  -2  -1    9.50   10.90
   7  -1  -1   13.90   13.30
   7  -1  -1   26.00   14.40
  -7  -8   0  157.18   24.70
  -5  -7   0  316.37   25.50
   3   6   0  208.48   17.80
  -3  -6   0  207.38   17.70
   1   5   0  350.96   20.90
  -1  -5   0  348.37   20.40
  -1  -5   0  350.06   19.70
   1  -4   0 1055.09   42.80
   1  -4   0 1062.19   42.20
   3  -3   0 1480.45   59.79
   3  -3   0 1510.35   62.69
   5  -2   0 1485.95   62.39
   5  -2   0 1386.66   65.49
   7  -1   0    7.40   12.70
   7  -1   0   24.30   14.90
   7   8  -1  242.58   30.50
  -5  -7   1  523.85   33.00
  -3  -6   1  218.08   18.70
  -1  -5   1  885.51   41.60
  -1  -5   1  979.60   40.20
   1  -4   1  730.13   31.70
   1  -4   1  717.23   33.30
   3  -3   1 3588.84  128.99
   3  -3   1 3726.53  133.99
   5  -2   1 1705.53   76.69
   5  -2   1 1754.72   70.89
   7  -1   1   13.00   12.70
   7  -1   1    6.30   12.60
  -5  -7   2  678.33   40.60
  -3  -6   2  409.36   31.00
  -3  -6   2  430.46   26.60
  -1  -5   2   28.30    8.20
  -1  -5   2   27.50   11.20
   1  -4   2  415.46   21.00
   1  -4   2  423.86   25.80
   3  -3   2 2922.41  103.79
   3  -3   2 2935.61  110.29
   5  -2   2 1103.39   48.30
   5  -2   2 1070.49   55.89
   7  -1   2   48.20   18.00
   9   0   2  -10.90   15.00
  -5  -7   3  393.56   32.60
  -3  -6   3  350.26   26.10
  -3  -6   3  409.16   33.50
  -1  -5   3  318.67   27.40
  -1  -5   3  298.37   19.80
   1  -4   3  626.74   35.30
   1  -4   3  612.94   27.50
   3  -3   3  713.53   31.70
   3  -3   3  805.52   40.60
   5  -2   3 1012.90   54.99
   5  -2   3 1014.40   44.00
   7  -1   3  389.26   43.00
   9   0   3   16.10   19.60
   5   7  -4  280.07   32.40
  -3  -6   4  642.34   36.80
  -3  -6   4  596.54   44.20
  -1  -5   4  275.37   27.10
  -1  -5   4  255.27   19.10
   1  -4   4  712.73   31.40
   1  -4   4  726.63   42.40
   3  -3   4  504.35   22.80
   3  -3   4  495.15   33.40
   5  -2   4 1597.54   74.29
   7  -1   4  938.71   58.39
   9   0   4   33.00   20.60
   5   7  -5  278.07   33.10
  -3  -6   5  508.45   43.60
  -3  -6   5  503.05   33.40
  -1  -5   5  346.37   24.20
  -1  -5   5  413.96   34.20
   1  -4   5  375.86   20.70
   1  -4   5  404.46   35.60
   3  -3   5  626.14   38.80
   5  -2   5 1708.33   79.09
   7  -1   5  783.02   55.99
   9   0   5   11.00   19.90
   3   6  -6  533.25   37.10
  -3  -6   6  581.94   49.40
  -1  -5   6  576.04   44.60
  -1  -5   6  588.44   33.00
   1  -4   6  507.15   25.60
   1  -4   6  508.05   42.00
   3  -3   6  121.09   22.80
   5  -2   6  681.63   46.30
   7  -1   6  717.13   55.49
   9   0   6  148.89   35.80
   3   6  -7  401.36   33.90
  -3  -6   7  501.95   56.39
   1   5  -7  393.76   27.50
  -1  -5   7  440.46   42.20
   1  -4   7  366.26   38.70
   3  -3   7  131.29   25.50
   5  -2   7   87.99   23.90
   7  -1   7  602.84   51.69
   9   0   7  343.37   49.99
   3   6  -8  253.57   31.50
  -3  -6   8  253.87   42.20
  -1  -5   8  867.11   60.09
   1  -4   8  350.96   41.30
   3  -3   8   -5.20   17.90
   5  -2   8  392.76   41.10
   7  -1   8  660.03   59.49
  -1  -5   9  276.47   41.70
   1  -4   9  244.58   39.80
   3  -3   9   -9.10   21.00
   5  -2   9  236.88   41.40
   7  -1   9  401.26   54.29
  -1  -5  10  345.97   50.59
   1  -4  10  423.86   53.19
   3  -3  10   63.99   31.20
   5  -2  10   57.59   28.50
   7  -1  10  138.09   43.20
   1  -4  11  333.37   48.30
   3  -3  11  279.77   48.20
   5  -2  11   16.10   30.80
   2   6  11   -1.20   24.70
   4   7  10  190.58   42.70
   2   6  10   -2.50   21.00
   0   5  10  259.57   41.00
   6   8   9  335.57   49.00
   4   7   9   70.39   29.70
   2   6   9   21.60   24.00
   0   5   9  211.08   35.20
   0  -5  -9  275.17   30.90
   2  -4  -9  405.26   42.90
   6   8   8  441.26   50.69
   4   7   8  280.67   39.60
   2   6   8   27.90   18.80
   0   5   8  119.09   29.20
   0  -5  -8  108.29   20.10
   2  -4  -8  504.55   40.50
   6   8   7  482.75   50.99
   4   7   7  306.27   40.50
   2   6   7   37.70   17.80
  -2  -6  -7   55.89   13.20
   0   5   7  -20.50   13.60
   0  -5  -7   -8.00    9.40
   2  -4  -7  465.55   35.90
   4  -3  -7  426.66   37.40
   6   8   6  390.36   39.60
   4   7   6  709.33   49.20
  -4  -7  -6  667.03   35.50
   2   6   6  262.57   34.40
  -2  -6  -6  227.38   22.80
   0   5   6  227.18   32.40
   0  -5  -6  253.57   22.10
   2  -4  -6  859.51   47.60
   4  -3  -6  490.95   37.90
   6   8   5   22.40   15.70
   4   7   5  991.50   56.29
  -4  -7  -5  938.81   44.70
   2   6   5  286.27   33.80
  -2  -6  -5  239.98   19.80
   0   5   5    7.60   15.40
   0  -5  -5   -0.50    9.50
   2  -4  -5  236.58   25.80
   4  -3  -5  629.74   41.40
   6   8   4  116.09   22.60
  -6  -8  -4  143.79   19.20
   4   7   4 1057.69   56.99
  -4  -7  -4 1094.59   48.90
   2   6   4  456.65   35.40
  -2  -6  -4  440.96   26.30
   0   5   4  166.88   24.50
   0  -5  -4  166.68   18.80
   2  -4  -4   16.40   11.60
   4  -3  -4  577.84   36.90
   6  -2  -4  620.94   42.20
  -6  -8  -3  257.07   26.80
   4   7   3  473.35   35.10
  -4  -7  -3  518.35   29.50
   2   6   3 1348.77   63.99
  -2  -6  -3 1391.36   56.59
   0   5   3  368.86   30.80
   0  -5  -3  368.36   22.50
   2  -4  -3   65.79   13.20
   4  -3  -3  882.81   46.80
   6  -2  -3  406.76   33.60
  -8  -9  -2  -37.00   17.10
  -6  -8  -2  232.28   25.40
   4   7   2  671.13   38.70
  -4  -7  -2  606.84   33.80
   2   6   2 2526.85   99.99
  -2  -6  -2 2576.34   95.09
   0   5   2 1042.50   50.29
   0  -5  -2 1052.39   44.90
   2  -4  -2  241.68   20.10
   2  -4  -2  224.08   16.90
   4  -3  -2  618.34   35.80
   6  -2  -2  433.46   33.50
  -6  -8  -1   70.49   17.30
  -4  -7  -1  241.08   21.10
   2   6   1 2022.60   78.89
  -2  -6  -1 1963.50   76.69
   0  -5  -1 1121.99   43.90
   0  -5  -1 1213.38   48.30
   2  -4  -1   40.30   10.50
   2  -4  -1   22.40    7.20
   4  -3  -1   17.70   12.10
   4  -3  -1   31.80   11.10
   6  -2  -1  759.82   47.30
   6  -2  -1  744.03   43.50
   8  -1  -1  528.25   41.20
   8  -1  -1  558.84   45.50
  -6  -8   0   10.60   11.60
  -4  -7   0  221.58   23.60
   2   6   0 1200.08   49.80
  -2  -6   0 1154.08   50.29
  -2  -6   0 1204.08   49.20
   0  -5   0  772.62   34.20
   0  -5   0  747.33   34.20
   2  -4   0  257.77   18.30
   2  -4   0  245.98   17.20
   4  -3   0   39.60   13.00
   4  -3   0   27.50   11.70
   6  -2   0  453.05   32.20
   6  -2   0  442.96   34.60
   8  -1   0  406.76   35.40
   8  -1   0  447.76   40.00
  -6  -8   1   21.00   13.90
  -4  -7   1   50.79   14.00
  -2  -6   1  420.36   24.40
  -2  -6   1  411.36   26.80
   0  -5   1 3065.59  108.59
   0  -5   1 3013.80  111.49
   2  -4   1 1984.40   73.49
   2  -4   1 1944.31   75.49
   4  -3   1   96.99   15.10
   4  -3   1   83.59   17.60
   6  -2   1  314.37   29.40
   6  -2   1  322.57   26.60
   8  -1   1  423.36   40.30
  -6  -8   2  -15.90   12.40
  -4  -7   2  102.89   16.60
  -2  -6   2  480.95   27.40
  -2  -6   2  454.15   32.20
   0  -5   2 1652.23   62.49
   0  -5   2 1583.54   68.19
   2  -4   2  951.30   44.00
   2  -4   2  909.21   38.90
   4  -3   2  132.99   20.70
   4  -3   2  131.79   15.90
   6  -2   2   29.10   15.60
   6  -2   2   33.40   13.20
   8  -1   2  153.88   29.10
   6   8  -3  289.57   33.80
  -4  -7   3    3.80   10.70
  -2  -6   3  309.07   22.40
  -2  -6   3  258.77   28.30
   0  -5   3 1444.46   66.39
   0  -5   3 1471.35   57.59
   2  -4   3 1216.78   47.70
   2  -4   3 1219.58   54.69
   4  -3   3   94.89   18.60
   4  -3   3   80.89   11.90
   6  -2   3    8.20   13.30
   8  -1   3  443.16   49.40
  -4  -7   4   16.90   12.90
  -2  -6   4   65.19   14.30
  -2  -6   4   41.90   18.10
   0  -5   4  800.12   46.20
   0  -5   4  769.92   35.70
   2  -4   4 1222.98   58.29
   2  -4   4 1273.57   48.70
   4  -3   4  285.47   19.10
   4  -3   4  337.97   30.20
   6  -2   4    7.10   14.80
   8  -1   4  357.66   44.20
  -4  -7   5  107.19   21.60
  -2  -6   5  105.39   17.70
  -2  -6   5  138.59   27.10
   0  -5   5  422.56   24.50
   0  -5   5  399.76   34.60
   2  -4   5 1892.41   82.39
   2  -4   5 1782.72   67.39
   4  -3   5  575.24   39.60
   6  -2   5   77.89   23.70
   8  -1   5  126.09   32.30
   4   7  -6  116.49   22.10
  -2  -6   6   16.10   17.90
  -2  -6   6   29.00   12.00
   0  -5   6  169.68   18.20
   0  -5   6  170.98   27.50
   2  -4   6  340.57   36.10
   4  -3   6  401.36   37.10
   6  -2   6  119.99   30.10
   8  -1   6  -21.80   21.80
   4   7  -7  208.48   44.80
   2   6  -7    9.30   11.00
  -2  -6   7   -4.20   19.90
   0  -5   7   84.69   23.70
   0  -5   7  143.29   19.10
   2  -4   7  448.86   40.60
   4  -3   7 1354.06   71.59
   6  -2   7   86.79   28.80
   8  -1   7   -8.00   24.50
   2   6  -8   15.90   16.80
  -2  -6   8   33.80   25.70
   0  -5   8   20.20   21.90
   2  -4   8  428.06   42.50
   4  -3   8  587.54   50.69
   6  -2   8  180.68   36.30
   8  -1   8  -16.30   28.90
  -2  -6   9  211.68   40.60
   0  -5   9  125.09   34.30
   2  -4   9  480.55   47.90
   4  -3   9  558.74   57.89
   6  -2   9  350.06   49.40
   8  -1   9  -35.50   29.00
   0  -5  10   21.40   27.30
   2  -4  10  114.69   35.40
   4  -3  10  413.26   52.99
   6  -2  10  584.74   58.19
   2  -4  11   96.99   37.00
   4  -3  11  346.57   56.39
   6  -2  11  491.95   61.89
   5   8  10   30.00   31.00
   3   7  10  321.67   51.29
   1   6  10  330.77   48.90
   5   8   9   36.40   27.00
   3   7   9  395.86   51.89
   1   6   9  502.15   50.19
   1  -5  -9  311.57   35.20
   5   8   8   41.90   24.80
   3   7   8  182.48   35.60
   1   6   8  563.44   50.49
  -1  -6  -8  615.74   36.40
   1  -5  -8  508.45   38.00
   3  -4  -8  102.19   24.50
   7   9   7  146.09   32.10
   5   8   7   -9.30   17.30
   3   7   7  288.17   40.80
  -3  -7  -7  236.08   24.70
   1   6   7 1468.45   78.49
  -1  -6  -7 1304.97   60.19
   1  -5  -7  789.22   45.90
   3  -4  -7  116.19   24.10
   7   9   6  123.09   28.20
   5   8   6   46.60   21.30
   3   7   6   58.29   21.10
  -3  -7  -6   54.89   13.50
   1   6   6  555.54   45.90
  -1  -6  -6  523.85   31.80
   1  -5  -6 1312.77   61.29
   3  -4  -6  301.07   32.60
   5   8   5   33.30   18.90
  -5  -8  -5   27.10   10.90
   3   7   5   33.20   18.40
  -3  -7  -5   43.90   11.50
   1   6   5  521.85   42.40
  -1  -6  -5  517.25   30.50
   1  -5  -5  496.45   32.50
   3  -4  -5  313.27   28.30
   5  -3  -5  138.29   26.00
   5   8   4  188.08   27.70
  -5  -8  -4  261.57   25.00
   3   7   4   56.49   17.90
  -3  -7  -4   62.99   12.90
   1   6   4  147.99   25.00
  -1  -6  -4  172.88   19.10
   1  -5  -4  639.94   35.00
   3  -4  -4 1422.16   65.49
   5  -3  -4  153.28   23.30
  -7  -9  -3  170.88   24.00
   5   8   3  339.57   33.20
  -5  -8  -3  334.37   25.40
   3   7   3   19.20   14.40
  -3  -7  -3   16.50    9.50
   1   6   3   34.40   14.60
  -1  -6  -3   43.90   11.30
   1  -5  -3 1626.74   66.09
   3  -4  -3 1273.47   58.89
   5  -3  -3  224.88   27.80
   7  -2  -3   17.10   13.50
  -7  -9  -2  286.87   30.70
  -5  -8  -2  627.94   36.70
   3   7   2  160.28   21.60
  -3  -7  -2  141.69   17.50
   1   6   2   16.20   12.40
  -1  -6  -2   10.60    7.80
   1  -5  -2 1191.68   51.09
   3  -4  -2  844.92   42.50
   3  -4  -2  872.31   43.10
   5  -3  -2  314.87   30.20
   5  -3  -2  351.26   29.70
   7  -2  -2   46.40   19.70
   7  -2  -2   68.29   21.00
  -7  -9  -1  140.19   22.90
  -5  -8  -1  708.23   39.90
   3   7   1  394.16   27.80
  -3  -7  -1  398.66   25.90
   1   6   1   30.40   11.40
  -1  -6  -1   41.40   10.60
   1  -5  -1  318.17   20.90
   1  -5  -1  337.07   18.90
   3  -4  -1  663.33   35.40
   3  -4  -1  631.84   34.60
   5  -3  -1  394.46   31.10
   5  -3  -1  409.96   29.60
   7  -2  -1  170.48   26.90
   7  -2  -1  218.88   30.90
  -7  -9   0   54.89   18.80
  -5  -8   0  233.58   25.70
  -3  -7   0  479.25   28.30
  -1  -6   0    8.30    8.10
  -1  -6   0    9.20    7.20
   1  -5   0   64.39   10.50
   1  -5   0   68.69   11.80
   3  -4   0 1195.38   53.89
   3  -4   0 1199.08   52.09
   5  -3   0 1781.32   75.19
   5  -3   0 1750.72   78.79
   7  -2   0  234.88   29.60
   7  -2   0  228.28   31.80
  -5  -8   1  238.88   27.10
  -3  -7   1  355.56   25.10
  -1  -6   1  163.08   19.10
  -1  -6   1  151.28   16.80
   1  -5   1   -8.90    6.20
   1  -5   1    3.70    8.00
   3  -4   1  890.61   39.80
   3  -4   1  849.81   42.90
   5  -3   1  640.54   41.40
   5  -3   1  676.73   37.30
   7  -2   1   90.29   20.80
   7  -2   1   85.89   19.20
  -5  -8   2  352.76   30.00
  -3  -7   2  614.64   34.70
  -3  -7   2  595.74   38.40
  -1  -6   2  320.57   26.60
  -1  -6   2  310.57   20.50
   1  -5   2   -0.10    9.10
   1  -5   2   -6.30    6.20
   3  -4   2  668.23   37.80
   3  -4   2  678.03   32.40
   5  -3   2  529.15   31.50
   5  -3   2  503.05   36.50
   7  -2   2  224.28   31.50
  -5  -8   3  107.59   21.90
  -3  -7   3  507.95   31.90
  -3  -7   3  557.94   39.60
  -1  -6   3  618.94   32.10
  -1  -6   3  611.64   38.80
   1  -5   3   76.89   17.50
   1  -5   3   64.59   10.30
   3  -4   3  173.88   15.20
   3  -4   3  184.38   22.50
   5  -3   3  802.32   48.40
   5  -3   3  722.23   36.70
   7  -2   3  775.32   54.69
  -5  -8   4   93.19   21.10
  -3  -7   4  688.33   39.50
  -3  -7   4  665.23   46.90
  -1  -6   4  632.14   33.90
  -1  -6   4  683.73   43.80
   1  -5   4   42.00    9.50
   1  -5   4   52.09   17.10
   3  -4   4  281.47   27.30
   3  -4   4  217.98   15.90
   5  -3   4  931.31   53.19
   7  -2   4 1128.19   68.59
  -3  -7   5  252.27   27.20
  -3  -7   5  360.96   42.60
  -1  -6   5  648.94   35.10
  -1  -6   5  622.34   45.10
   1  -5   5   19.60   16.60
   1  -5   5   11.80    7.00
   3  -4   5   64.59   18.50
   5  -3   5  714.93   48.80
   7  -2   5  446.26   49.30
  -3  -7   6  150.48   23.50
  -3  -7   6  149.39   30.40
  -1  -6   6  416.76   39.80
  -1  -6   6  372.86   26.60
   1  -5   6   98.49   12.70
   1  -5   6  112.49   26.60
   3  -4   6   51.29   20.70
   5  -3   6  417.56   38.40
   7  -2   6  425.76   44.40
   3   7  -7  141.49   24.20
  -3  -7   7  115.89   29.30
  -1  -6   7  389.56   41.10
  -1  -6   7  422.96   29.70
   1  -5   7  543.25   47.30
   3  -4   7   95.39   25.40
   5  -3   7   36.40   22.90
   7  -2   7  508.25   55.19
   3   7  -8  101.29   22.90
  -3  -7   8  149.79   35.20
  -1  -6   8  636.54   55.99
   1  -5   8  807.32   58.69
   3  -4   8  103.19   30.20
   5  -3   8   97.69   30.30
   7  -2   8  615.74   64.49
  -1  -6   9  134.09   35.90
   1  -5   9  585.34   51.89
   3  -4   9  201.38   38.00
   5  -3   9  -12.20   25.70
   7  -2   9  138.89   41.20
   1  -5  10  480.45   57.89
   3  -4  10  163.08   37.80
   5  -3  10   49.10   34.50
   7  -2  10   48.50   39.40
   3  -4  11  506.15   65.79
   5  -3  11   31.80   34.40
   4   8  10  212.88   46.10
   2   7  10  -55.59   22.50
   0   6  10   23.90   25.20
   4   8   9  325.37   49.30
   2   7   9   18.90   28.20
   0   6   9   13.10   23.40
   0  -6  -9   -6.80   13.30
   6   9   8  141.89   34.10
   4   8   8  528.55   54.29
   2   7   8  214.68   39.80
   0   6   8   83.99   28.40
   0  -6  -8   85.19   19.20
   2  -5  -8  156.08   28.20
   6   9   7  130.49   32.70
   4   8   7  457.05   45.80
   2   7   7  513.55   47.60
  -2  -7  -7  563.14   33.70
   0   6   7  218.78   35.50
   0  -6  -7  211.68   25.10
   2  -5  -7   60.09   19.60
   6   9   6  114.89   29.70
   4   8   6  421.16   46.80
  -4  -8  -6  412.76   28.50
   2   7   6  999.10   62.39
  -2  -7  -6  933.21   46.30
   0   6   6   -4.10   16.90
   0  -6  -6    0.10   10.00
   2  -5  -6   -9.20   12.10
   4  -4  -6  167.38   27.40
   6   9   5  -13.60   15.70
   4   8   5  257.47   34.20
  -4  -8  -5  283.27   23.90
   2   7   5  548.35   43.00
  -2  -7  -5  595.64   33.20
   0   6   5   26.00   17.00
   0  -6  -5   14.00   11.40
   2  -5  -5   84.99   18.40
   4  -4  -5  243.48   31.70
  -6  -9  -4   20.50   12.20
   4   8   4  180.18   27.60
  -4  -8  -4  224.18   23.80
   2   7   4  246.78   32.00
  -2  -7  -4  207.58   21.80
   0   6   4  358.36   35.00
   0  -6  -4  327.67   24.30
   2  -5  -4   49.00   15.70
   4  -4  -4  137.69   23.30
  -6  -9  -3   16.80   11.50
   4   8   3  219.48   28.10
  -4  -8  -3  195.68   21.60
   2   7   3  939.91   52.79
  -2  -7  -3  953.50   44.80
   0   6   3 1277.97   64.19
   0  -6  -3 1334.97   56.59
   2  -5  -3   74.59   16.20
   4  -4  -3   91.89   19.90
   4  -4  -3  108.49   27.10
   6  -3  -3  216.08   30.60
   6  -3  -3  167.28   26.30
  -6  -9  -2   -2.80   10.60
  -4  -8  -2  133.69   18.50
   2   7   2  784.12   44.40
  -2  -7  -2  798.82   39.50
   0  -6  -2 1468.45   60.99
   2  -5  -2  187.88   21.20
   4  -4  -2   70.89   15.30
   4  -4  -2   44.50   15.60
   6  -3  -2  138.89   24.00
   6  -3  -2   95.39   22.40
  -6  -9  -1   16.20   12.50
  -4  -8  -1   -1.90    8.40
   2   7   1  254.57   24.70
  -2  -7  -1  315.47   22.00
   0  -6  -1  471.05   27.50
   2  -5  -1  454.55   26.60
   2  -5  -1  491.95   28.60
   4  -4  -1  145.19   21.20
   4  -4  -1  133.19   19.90
   6  -3  -1  211.18   28.50
   6  -3  -1  188.68   26.20
  -6  -9   0   48.60   15.60
  -4  -8   0   81.49   15.90
   2   7   0  456.15   27.10
  -2  -7   0  432.66   26.80
   0  -6   0  893.01   40.60
   2  -5   0  784.02   37.80
   2  -5   0  807.72   38.20
   4  -4   0   38.20   13.10
   4  -4   0   44.90   14.40
   6  -3   0   85.99   20.90
   6  -3   0  109.19   21.40
   8  -2   0  265.27   35.20
   8  -2   0  263.77   33.30
  -6  -9   1   80.49   19.20
  -4  -8   1   14.10   11.00
  -2  -7   1  226.88   20.10
  -2  -7   1  219.98   22.80
   0  -6   1 2065.29   78.19
   0  -6   1 2007.70   80.79
   2  -5   1  960.00   42.90
   2  -5   1  959.00   44.50
   4  -4   1  242.88   23.80
   4  -4   1  149.09   19.10
   6  -3   1   63.39   17.80
   6  -3   1   61.89   18.50
   8  -2   1  187.48   32.30
  -6  -9   2   89.09   31.60
  -4  -8   2   -6.00    9.30
  -2  -7   2  204.68   20.80
  -2  -7   2  229.68   24.70
   0  -6   2  506.45   27.90
   0  -6   2  523.05   34.70
   2  -5   2 1043.80   49.60
   2  -5   2 1043.70   44.90
   4  -4   2  428.26   30.80
   4  -4   2  372.26   25.70
   6  -3   2   55.39   16.10
   6  -3   2   57.69   19.70
   8  -2   2   61.79   23.10
  -4  -8   3  116.19   20.60
  -2  -7   3   18.90   10.70
  -2  -7   3   15.30   14.10
   0  -6   3  222.58   27.60
   0  -6   3  219.38   18.10
   2  -5   3 1781.42   68.49
   2  -5   3 1788.02   76.09
   4  -4   3  661.93   41.20
   4  -4   3  623.14   32.20
   6  -3   3  134.59   25.10
   8  -2   3   68.89   24.70
  -4  -8   4  113.99   20.10
  -2  -7   4   52.59   19.40
  -2  -7   4   37.70   12.10
   0  -6   4  327.77   35.70
   0  -6   4  257.07   19.90
   2  -5   4 1278.97   62.09
   2  -5   4 1222.88   50.49
   4  -4   4  948.61   52.19
   6  -3   4  102.69   25.90
   8  -2   4   -0.50   20.50
  -4  -8   5  232.18   30.10
  -2  -7   5   14.50   17.00
  -2  -7   5    7.60   11.00
   0  -6   5  186.98   19.30
   0  -6   5  179.08   27.70
   2  -5   5  537.45   41.70
   2  -5   5  524.05   26.90
   4  -4   5  681.93   46.10
   6  -3   5  319.97   38.20
   8  -2   5    1.10   22.10
   4   8  -6  203.88   29.70
  -2  -7   6    4.60   10.50
  -2  -7   6   -7.20   15.00
   0  -6   6  169.78   29.80
   0  -6   6  182.88   19.70
   2  -5   6  352.36   35.70
   4  -4   6  935.31   55.39
   6  -3   6  519.65   49.30
   8  -2   6   26.80   24.10
  -2  -7   7   69.69   27.80
  -2  -7   7   62.19   17.80
   0  -6   7   35.00   21.90
   2  -5   7  197.88   33.50
   4  -4   7 1188.78   69.29
   6  -3   7  398.56   46.90
   8  -2   7   35.30   30.90
  -2  -7   8  151.28   35.70
   0  -6   8  114.69   29.30
   2  -5   8   70.19   28.80
   4  -4   8  290.97   43.30
   6  -3   8  281.87   42.30
   8  -2   8  243.68   47.40
   0  -6   9    8.40   25.40
   2  -5   9    2.20   25.80
   4  -4   9  156.28   35.00
   6  -3   9  314.67   47.60
   0  -6  10   34.20   29.90
   2  -5  10  -30.10   21.80
   4  -4  10  208.88   46.60
   6  -3  10  595.64   65.79
   2  -5  11   21.00   27.90
   4  -4  11   59.39   40.30
   3   8  10  128.09   41.40
   5   9   9   17.50   29.30
   3   8   9   53.19   34.20
   1   7   9  292.07   48.00
   1  -6  -9  299.97   34.60
   5   9   8   22.20   27.20
   3   8   8  -12.20   23.20
   1   7   8  143.79   34.50
  -1  -7  -8  181.98   24.90
   1  -6  -8  430.76   35.80
   5   9   7  100.19   30.50
   3   8   7   -9.70   22.20
  -3  -8  -7   -3.70    9.70
   1   7   7  407.96   49.30
  -1  -7  -7  355.46   29.20
   1  -6  -7  582.24   39.40
   3  -5  -7  289.27   35.70
   5   9   6  147.99   32.20
   3   8   6   -7.40   18.50
  -3  -8  -6    0.50   10.30
   1   7   6    7.60   20.40
  -1  -7  -6    7.00   11.90
   1  -6  -6  422.56   32.50
   3  -5  -6  235.08   29.40
   5   9   5  162.58   31.00
  -5  -9  -5  153.48   21.50
   3   8   5  -23.60   15.90
  -3  -8  -5   -1.00    9.40
   1   7   5   85.19   25.40
  -1  -7  -5   54.59   14.00
   1  -6  -5  557.44   35.60
   3  -5  -5  413.86   35.10
  -7 -10  -4  110.79   31.60
   5   9   4  290.77   36.80
  -5  -9  -4  366.96   28.00
   3   8   4   61.59   20.50
  -3  -8  -4   90.39   16.30
   1   7   4   81.09   21.90
  -1  -7  -4   52.49   13.20
   1  -6  -4  686.13   37.90
   3  -5  -4 1406.56   67.19
   5  -4  -4  263.67   32.50
  -7 -10  -3  135.99   23.30
  -5  -9  -3  339.17   27.60
   3   8   3  165.28   25.40
  -3  -8  -3  151.38   20.50
   1   7   3   10.90   14.10
  -1  -7  -3   -7.10    7.50
   1  -6  -3  256.97   22.70
   3  -5  -3 1111.89   55.99
   5  -4  -3  251.47   31.40
  -7 -10  -2  135.99   28.20
  -5  -9  -2  250.27   27.30
   3   8   2  469.05   35.10
  -3  -8  -2  475.15   30.40
   1   7   2   92.39   19.50
  -1  -7  -2  121.99   17.50
   1  -6  -2   34.00   12.20
   3  -5  -2  423.06   31.10
   5  -4  -2  349.47   30.30
   5  -4  -2  355.96   35.20
   7  -3  -2  358.56   55.29
   7  -3  -2  425.26   38.90
  -5  -9  -1  306.87   27.20
  -3  -8  -1  467.65   29.60
  -1  -7  -1  152.88   19.60
   1  -6  -1   57.29   12.40
   3  -5  -1  471.65   30.10
   3  -5  -1  478.05   31.20
   5  -4  -1  842.62   46.90
   5  -4  -1  736.63   46.80
   7  -3  -1  253.67   33.30
   7  -3  -1  260.77   33.00
  -5  -9   0  257.77   28.00
  -3  -8   0  774.22   40.40
  -1  -7   0  605.44   33.10
   1  -6   0    3.30    9.30
   3  -5   0  244.28   23.10
   3  -5   0  299.07   23.30
   5  -4   0 1970.10   86.39
   5  -4   0 1812.22   80.19
   7  -3   0  259.97   32.50
   7  -3   0  294.17   36.10
  -5  -9   1  285.07   30.70
  -3  -8   1  642.84   36.00
  -1  -7   1  145.99   18.10
   1  -6   1   26.20   11.90
   1  -6   1    6.00    9.50
   3  -5   1  175.58   21.60
   3  -5   1  188.08   20.10
   5  -4   1  591.44   36.50
   5  -4   1  590.84   41.40
   7  -3   1  246.28   33.40
   7  -3   1  232.38   30.20
  -5  -9   2  165.78   24.90
  -3  -8   2  336.87   26.60
  -1  -7   2  788.62   38.50
  -1  -7   2  726.93   41.30
   1  -6   2  403.46   24.50
   1  -6   2  417.06   30.30
   3  -5   2    6.10   11.90
   3  -5   2    2.90    8.90
   5  -4   2  322.97   25.70
   5  -4   2  310.87   30.30
   7  -3   2  454.55   41.50
  -5  -9   3   14.00   14.10
  -3  -8   3  136.59   24.50
  -3  -8   3  192.18   24.20
  -1  -7   3  712.43   36.20
  -1  -7   3  629.44   41.70
   1  -6   3  419.36   33.30
   1  -6   3  417.76   24.90
   3  -5   3  125.19   15.60
   3  -5   3   98.19   19.20
   5  -4   3  142.49   25.20
   5  -4   3  155.38   26.90
   7  -3   3  487.55   44.10
  -3  -8   4  265.27   28.20
  -3  -8   4  248.88   35.10
  -1  -7   4  745.23   47.20
  -1  -7   4  731.53   38.40
   1  -6   4  454.65   38.00
   1  -6   4  414.26   25.30
   3  -5   4   45.00   17.50
   3  -5   4   32.20    9.80
   5  -4   4   93.69   23.40
   7  -3   4  521.05   48.90
  -3  -8   5  106.59   25.50
  -3  -8   5  104.09   19.90
  -1  -7   5  382.06   26.90
  -1  -7   5  367.06   34.90
   1  -6   5  194.38   17.40
   1  -6   5  199.88   31.70
   3  -5   5   33.40   17.10
   5  -4   5  102.99   25.60
   7  -3   5  272.87   40.40
  -3  -8   6  108.29   28.00
  -3  -8   6   81.39   19.20
  -1  -7   6  258.37   37.10
  -1  -7   6  252.67   25.20
   1  -6   6  828.92   56.49
   3  -5   6  416.26   38.00
   5  -4   6   48.50   22.00
   7  -3   6  311.27   42.90
   3   8  -7   52.59   17.30
  -3  -8   7   31.90   24.50
  -1  -7   7  212.98   37.50
  -1  -7   7  132.29   19.60
   1  -6   7  514.95   46.20
   3  -5   7  349.67   43.70
   5  -4   7   65.49   25.80
   7  -3   7   11.60   27.20
  -1  -7   8  207.48   39.10
   1  -6   8  325.57   45.50
   3  -5   8  257.37   42.90
   5  -4   8   30.90   25.90
   7  -3   8  -12.00   27.70
  -1  -7   9   12.90   24.60
   1  -6   9  207.58   40.30
   3  -5   9  190.28   42.80
   5  -4   9   94.09   36.40
   7  -3   9    5.10   32.00
   1  -6  10  278.07   45.10
   3  -5  10  244.98   44.90
   5  -4  10  249.48   46.40
   4   9   9  209.08   42.90
   2   8   9  108.39   40.70
   0  -7  -9   98.09   22.00
   4   9   8  301.87   51.59
   2   8   8  268.57   46.30
  -2  -8  -8  282.77   32.00
   0   7   8  164.98   36.20
   0  -7  -8  179.78   24.80
   6  10   7    3.70   24.90
   4   9   7  215.38   40.70
   2   8   7  470.55   53.59
  -2  -8  -7  383.06   29.60
   0   7   7  371.96   48.70
   0  -7  -7  337.17   33.00
   2  -6  -7    0.10   16.00
   6  10   6   -4.40   23.10
   4   9   6  316.67   46.10
  -4  -9  -6  308.77   26.90
   2   8   6  652.23   55.69
  -2  -8  -6  583.14   36.60
   0   7   6   94.29   29.60
   0  -7  -6   95.19   19.40
   2  -6  -6   57.19   19.00
  -6 -10  -5   84.29   29.60
   4   9   5  122.39   29.70
  -4  -9  -5  100.89   18.70
   2   8   5  433.36   44.50
  -2  -8  -5  466.15   31.40
   0   7   5  675.93   51.49
   0  -7  -5  657.53   38.60
   2  -6  -5  451.25   34.40
   4  -5  -5   40.00   19.50
  -6 -10  -4   10.40   12.30
   4   9   4   20.20   20.10
  -4  -9  -4   36.50   13.50
   2   8   4  522.65   44.10
  -2  -8  -4  574.14   34.10
   0  -7  -4  771.72   41.50
   2  -6  -4  420.06   32.00
   4  -5  -4    4.50   14.00
  -6 -10  -3   -8.00   10.90
   4   9   3   14.00   23.90
  -4  -9  -3    6.60   10.70
   2   8   3  589.54   43.00
  -2  -8  -3  584.14   34.50
   0  -7  -3  686.13   37.90
   2  -6  -3  439.56   31.30
   4  -5  -3  109.69   22.90
   6  -4  -3  -10.50   16.20
  -6 -10  -2   38.50   16.00
  -4  -9  -2   10.40   11.10
   2   8   2   69.99   18.10
  -2  -8  -2   62.09   14.10
   0  -7  -2  474.05   29.20
   2  -6  -2  165.78   22.00
   4  -5  -2  364.06   35.20
   6  -4  -2   25.00   18.30
   6  -4  -2   15.40   23.60
  -6 -10  -1   65.59   18.50
  -4  -9  -1   80.69   17.00
   2   8   1   -0.60    9.90
  -2  -8  -1   -8.20    9.10
   0  -7  -1  705.43   37.10
   2  -6  -1  896.51   44.30
   4  -5  -1  679.93   40.80
   4  -5  -1  669.23   57.19
   6  -4  -1    3.90   16.40
   6  -4  -1   27.00   16.20
  -6 -10   0  198.28   29.50
  -4  -9   0   55.79   15.10
  -2  -8   0    4.80    9.70
   0  -7   0  496.35   30.00
   2  -6   0  778.02   39.30
   4  -5   0  169.68   23.90
   4  -5   0  196.08   23.70
   6  -4   0  119.99   24.50
   6  -4   0  142.99   24.60
  -4  -9   1  135.19   21.30
  -2  -8   1   43.70   12.60
   0  -7   1  384.16   25.80
   2  -6   1  868.41   41.20
   2  -6   1  811.92   42.60
   4  -5   1  533.85   34.00
   4  -5   1  632.84   39.10
   6  -4   1  217.58   31.30
   6  -4   1  217.58   27.80
  -4  -9   2   43.10   16.10
  -2  -8   2    1.90    8.50
   0  -7   2    4.50    8.70
   0  -7   2    6.60   13.00
   2  -6   2  540.45   29.10
   2  -6   2  411.96   31.60
   4  -5   2  693.33   37.30
   4  -5   2  739.13   44.30
   6  -4   2  258.37   34.10
   6  -4   2  264.67   30.30
   8  -3   2   14.50   19.50
  -4  -9   3  122.29   21.90
  -2  -8   3   36.90   16.00
  -2  -8   3   40.50   12.30
   0  -7   3   39.50   11.50
   0  -7   3   45.10   16.80
   2  -6   3  817.02   38.50
   2  -6   3  754.22   45.00
   4  -5   3  295.17   32.20
   4  -5   3  375.36   25.20
   6  -4   3  100.09   23.80
   8  -3   3  -31.20   17.90
  -4  -9   4  147.29   23.00
  -2  -8   4  170.48   28.60
  -2  -8   4  145.79   20.40
   0  -7   4    9.00   14.80
   0  -7   4    7.40    9.00
   2  -6   4  220.28   19.00
   2  -6   4  247.38   31.10
   4  -5   4  370.16   38.50
   6  -4   4  177.08   30.50
   8  -3   4   15.30   20.90
  -4  -9   5  220.38   37.80
  -2  -8   5   81.19   17.50
  -2  -8   5   79.99   23.60
   0  -7   5   -6.90   12.60
   0  -7   5   10.60    8.30
   2  -6   5  129.89   25.80
   2  -6   5  166.18   17.30
   4  -5   5  574.34   42.70
   6  -4   5  717.13   55.89
   8  -3   5   81.89   29.00
  -2  -8   6  110.69   19.50
  -2  -8   6  118.19   29.80
   0  -7   6    9.80   10.20
   0  -7   6   15.80   20.10
   2  -6   6    9.30   21.40
   4  -5   6  603.14   46.30
   6  -4   6  598.14   54.49
   8  -3   6  117.69   32.60
  -2  -8   7  234.78   37.50
  -2  -8   7  140.89   22.30
   0  -7   7  119.79   30.40
   2  -6   7   15.80   22.40
   4  -5   7  533.85   50.49
   6  -4   7  198.38   39.40
   0  -7   8  106.79   29.90
   2  -6   8   14.70   25.80
   4  -5   8    9.60   24.40
   6  -4   8  266.17   44.50
   0  -7   9   84.39   32.30
   2  -6   9   10.70   27.20
   4  -5   9   15.30   30.40
   6  -4   9  305.87   52.19
   2  -6  10   97.19   33.60
   4  -5  10  -11.40   30.80
   3   9   9   38.00   34.40
   1   8   9   42.20   31.80
   3   9   8   14.90   30.50
   1   8   8  129.59   38.10
  -1  -8  -8   59.89   17.40
   1  -7  -8  301.27   35.30
   5  10   7  128.49   37.00
   3   9   7   42.00   28.30
  -3  -9  -7   75.39   17.30
   1   8   7   52.79   26.80
  -1  -8  -7   47.90   15.80
   1  -7  -7  129.39   24.30
   5  10   6  186.78   37.90
   3   9   6  207.58   39.50
  -3  -9  -6  192.58   24.40
   1   8   6  110.69   31.40
  -1  -8  -6  134.59   21.50
   1  -7  -6  150.08   24.50
   3  -6  -6  316.97   37.80
   5  10   5  108.49   30.40
  -5 -10  -5  149.29   22.90
   3   9   5  174.48   34.40
  -3  -9  -5  277.47   29.20
   1   8   5  144.79   31.80
  -1  -8  -5   74.49   17.30
   1  -7  -5   27.50   15.00
   3  -6  -5  254.67   31.30
  -5 -10  -4  401.36   31.70
   3   9   4  291.87   37.60
  -3  -9  -4  326.27   27.30
   1   8   4   80.99   23.50
  -1  -8  -4  105.59   19.20
   1  -7  -4   31.90   13.60
   3  -6  -4  419.76   35.30
   5  -5  -4  277.27   43.10
  -5 -10  -3  304.77   31.80
   3   9   3   51.09   20.20
  -3  -9  -3   82.09   17.60
   1   8   3  157.78   26.80
  -1  -8  -3  219.48   23.80
   1  -7  -3    2.20   11.30
   3  -6  -3  104.49   21.20
   5  -5  -3  298.27   34.30
  -5 -10  -2  145.29   23.10
  -3  -9  -2  179.38   21.70
  -1  -8  -2  192.28   22.40
   1  -7  -2   37.40   13.00
   3  -6  -2  154.48   22.80
   5  -5  -2  347.07   38.10
  -5 -10  -1   59.09   17.00
  -3  -9  -1  491.35   33.00
  -1  -8  -1  387.46   26.70
   1  -7  -1  119.49   17.50
   3  -6  -1  143.09   21.20
   5  -5  -1  195.08   27.90
   7  -4  -1  313.07   37.90
   7  -4  -1  267.27   35.50
  -5 -10   0   14.90   12.90
  -3  -9   0  456.45   31.10
  -1  -8   0  188.78   21.00
   1  -7   0  240.78   24.10
   3  -6   0   10.00   11.10
   5  -5   0  420.36   36.00
   5  -5   0  379.76   32.70
   7  -4   0  406.46   46.20
   7  -4   0  370.86   39.50
  -5 -10   1   15.80   13.50
  -3  -9   1  274.07   28.70
  -1  -8   1   57.69   14.30
   1  -7   1  255.07   25.10
   3  -6   1   46.90   14.10
   3  -6   1   39.80   14.90
   5  -5   1  147.29   22.20
   5  -5   1  110.89   23.00
   7  -4   1  254.37   38.00
  -3  -9   2  123.59   20.00
  -1  -8   2  715.83   38.60
   1  -7   2  348.47   34.50
   1  -7   2  378.86   25.60
   3  -6   2   74.09   14.70
   3  -6   2   69.09   18.20
   5  -5   2  232.38   30.60
   5  -5   2  151.08   21.80
   7  -4   2  198.78   32.40
  -3  -9   3   58.19   16.10
  -1  -8   3  790.02   41.50
   1  -7   3  475.25   28.30
   1  -7   3  407.26   35.20
   3  -6   3  178.78   20.20
   3  -6   3  186.78   26.50
   5  -5   3   40.20   20.40
   7  -4   3  223.88   36.90
  -3  -9   4   65.19   16.70
  -1  -8   4  355.06   26.60
  -1  -8   4  378.96   35.00
   1  -7   4  212.18   21.30
   1  -7   4  217.18   30.70
   3  -6   4   96.39   14.70
   3  -6   4  105.29   22.70
   5  -5   4   -6.40   17.70
   7  -4   4  177.88   34.60
  -3  -9   5   -9.30   15.00
  -3  -9   5   -0.80   12.00
  -1  -8   5  206.98   23.60
  -1  -8   5  238.28   34.30
   1  -7   5  270.07   21.80
   1  -7   5  322.67   40.50
   3  -6   5  411.06   39.30
   5  -5   5  126.19   29.80
   7  -4   5   36.70   24.10
  -3  -9   6  -12.10   12.00
  -3  -9   6    3.40   17.90
  -1  -8   6   65.89   25.10
  -1  -8   6   43.10   14.40
   1  -7   6  481.45   46.50
   3  -6   6  518.75   47.30
   5  -5   6  167.68   33.00
   7  -4   6    3.70   26.00
  -1  -8   7   51.79   26.40
   1  -7   7  441.46   47.80
   3  -6   7  246.28   40.20
   5  -5   7  211.48   38.30
   7  -4   7  -23.50   26.80
  -1  -8   8   38.20   25.80
   1  -7   8  230.98   38.00
   3  -6   8  305.17   45.10
   5  -5   8  101.49   35.00
   7  -4   8   13.30   29.40
   1  -7   9   74.49   28.70
   3  -6   9  353.46   53.19
   5  -5   9  320.07   51.89
   3  -6  10  213.78   45.30
   2   9   8  395.56   58.89
  -2  -9  -8  334.67   30.40
   0  -8  -8  253.17   31.10
   4  10   7   65.39   33.00
   2   9   7  226.58   42.10
  -2  -9  -7  240.28   28.60
   0  -8  -7  154.08   24.40
   4  10   6   -0.60   23.80
  -4 -10  -6   13.60   12.30
   2   9   6  220.08   40.40
  -2  -9  -6  211.98   25.50
   0  -8  -6  102.09   20.70
   2  -7  -6  214.08   28.80
   4  10   5  -22.80   20.90
  -4 -10  -5   -5.60   10.20
   2   9   5   85.09   30.20
  -2  -9  -5   86.29   18.40
   0  -8  -5  343.97   29.30
   2  -7  -5  249.18   29.70
   4  10   4  -13.90   22.70
  -4 -10  -4   -6.90   10.50
   2   9   4   31.80   21.50
  -2  -9  -4   78.59   17.10
   0  -8  -4  381.26   28.90
   2  -7  -4  165.78   24.30
   4  -6  -4  130.49   25.30
  -4 -10  -3   20.30   13.40
   2   9   3   73.89   22.10
  -2  -9  -3   98.49   18.40
   0  -8  -3  393.96   28.70
   2  -7  -3  379.76   29.80
   4  -6  -3  229.78   31.20
  -4 -10  -2   30.60   14.20
   2   9   2    1.00   12.90
  -2  -9  -2   22.00   11.70
   0  -8  -2  517.55   32.40
   2  -7  -2  800.92   44.40
   4  -6  -2  281.97   31.80
   6  -5  -2   29.40   22.00
  -4 -10  -1  169.98   24.80
  -2  -9  -1   27.70   12.90
   2  -7  -1  501.75   33.80
   4  -6  -1  321.87   31.60
   6  -5  -1  139.39   27.90
  -4 -10   0   80.29   16.90
  -2  -9   0   25.80   12.50
   0  -8   0  100.59   18.00
   2  -7   0  182.38   22.10
   4  -6   0  232.18   28.30
   6  -5   0  231.08   30.70
   6  -5   0  259.87   52.29
  -4 -10   1   75.69   18.50
  -2  -9   1   84.59   16.20
   0  -8   1   34.20   12.00
   2  -7   1  270.07   26.10
   4  -6   1  910.01   47.60
   4  -6   1  905.01   71.69
   6  -5   1  285.67   31.10
   6  -5   1  256.87   35.10
  -4 -10   2  183.68   26.00
  -2  -9   2   72.39   15.80
   0  -8   2   54.59   13.90
   2  -7   2  383.06   27.10
   4  -6   2  621.44   43.20
   4  -6   2  652.33   38.20
   6  -5   2  366.26   39.20
  -4 -10   3  274.67   31.60
  -2  -9   3  284.97   29.40
   0  -8   3  105.99   17.00
   2  -7   3  275.07   31.60
   2  -7   3  280.27   23.40
   4  -6   3  226.58   31.40
   4  -6   3  250.57   24.50
   6  -5   3  390.16   44.10
  -2  -9   4  170.88   22.20
   0  -8   4   24.70   12.00
   0  -8   4   48.40   19.50
   2  -7   4   21.40    9.80
   2  -7   4   26.00   18.60
   4  -6   4  192.18   30.20
   6  -5   4  357.56   45.10
  -2  -9   5  129.99   28.40
  -2  -9   5  114.49   20.90
   0  -8   5   99.99   25.00
   0  -8   5   94.69   16.60
   2  -7   5   44.20   21.80
   4  -6   5  121.59   27.00
   6  -5   5  498.05   48.50
  -2  -9   6   93.69   26.90
  -2  -9   6  120.09   21.60
   0  -8   6   74.99   26.30
   0  -8   6   68.69   15.00
   2  -7   6   68.29   25.60
   4  -6   6  101.29   29.80
   6  -5   6  238.68   40.40
   0  -8   7  251.77   39.60
   2  -7   7   10.80   24.90
   4  -6   7  112.09   34.30
   6  -5   7  104.79   34.50
   0  -8   8  259.47   44.20
   2  -7   8  126.99   36.60
   4  -6   8   28.80   29.50
   6  -5   8   60.99   35.90
   2  -7   9  102.19   34.50
   4  -6   9   27.00   30.30
   1   9   8    9.30   32.40
  -1  -9  -8   18.10   15.40
   3  10   7  101.09   38.00
  -3 -10  -7  126.59   22.00
   1   9   7    1.50   23.60
  -1  -9  -7   16.40   14.10
   3  10   6  242.08   46.50
  -3 -10  -6  201.58   26.90
   1   9   6  190.58   38.50
  -1  -9  -6  191.98   25.90
   1  -8  -6    8.20   14.50
  -5 -11  -5  110.59   21.60
   3  10   5  281.17   42.30
  -3 -10  -5  205.38   26.30
   1   9   5   52.89   24.40
  -1  -9  -5   45.10   16.30
   1  -8  -5  -17.60    9.50
   3  -7  -5   78.99   22.00
  -5 -11  -4  139.09   23.40
   3  10   4  305.47   41.00
  -3 -10  -4  297.07   31.50
  -1  -9  -4  141.59   22.10
   1  -8  -4   85.59   19.20
   3  -7  -4   81.39   20.40
  -5 -11  -3   63.39   17.80
  -3 -10  -3  122.39   21.00
  -1  -9  -3  275.97   28.30
   1  -8  -3  195.58   24.40
   3  -7  -3    2.00   14.00
  -5 -11  -2   15.60   13.70
  -3 -10  -2  198.08   25.00
  -1  -9  -2  608.34   36.80
   1  -8  -2  523.75   35.30
   3  -7  -2   23.10   15.40
   5  -6  -2  115.59   25.70
  -3 -10  -1  156.08   23.10
  -1  -9  -1  429.76   31.50
   1  -8  -1   28.00   13.80
   3  -7  -1   92.09   19.60
   5  -6  -1   42.20   18.60
  -3 -10   0   54.19   15.70
  -1  -9   0  121.19   19.10
   1  -8   0  151.48   21.30
   3  -7   0  196.88   24.60
   5  -6   0  119.19   22.50
  -3 -10   1   18.80   11.70
  -1  -9   1   44.00   14.50
   1  -8   1  443.96   30.50
   3  -7   1  171.18   23.00
   5  -6   1   59.89   18.10
   7  -5   1   84.79   27.00
  -3 -10   2    9.40   12.10
  -1  -9   2  337.97   27.50
   1  -8   2  742.83   40.50
   3  -7   2  195.58   23.80
   5  -6   2   56.99   17.40
   5  -6   2   52.69   21.30
   7  -5   2   64.39   26.50
  -3 -10   3   14.30   13.50
  -1  -9   3   96.39   17.50
   1  -8   3  212.98   23.00
   3  -7   3  225.38   29.80
   3  -7   3  245.08   24.80
   5  -6   3   79.69   23.70
   7  -5   3   -9.50   20.00
  -3 -10   4    2.70   13.30
  -1  -9   4   51.69   15.20
   1  -8   4  155.38   20.00
   1  -8   4  139.49   28.10
   3  -7   4  196.38   30.40
   5  -6   4  133.09   29.80
   7  -5   4   -9.60   22.10
  -1  -9   5   19.40   12.70
   1  -8   5  105.29   26.80
   1  -8   5  115.29   17.50
   3  -7   5  240.68   33.80
   5  -6   5   51.49   26.50
   7  -5   5   -0.40   23.80
  -1  -9   6    0.70   11.80
  -1  -9   6   11.60   20.20
   1  -8   6  258.57   39.00
   3  -7   6  319.27   43.60
   5  -6   6  102.79   31.90
   7  -5   6  -26.30   23.60
  -1  -9   7   -4.80   21.20
   1  -8   7   54.09   28.30
   3  -7   7  231.38   39.20
   5  -6   7  262.17   43.30
   1  -8   8  -20.60   21.80
   3  -7   8  203.88   40.50
   5  -6   8  119.99   40.20
   3  -7   9   68.39   33.70
   2  10   7   18.50   32.40
  -2 -10  -7   56.39   18.90
   4  11   6   -8.70   28.90
  -4 -11  -6   25.70   15.60
   2  10   6   70.59   30.40
  -2 -10  -6   71.99   17.80
   0  -9  -6   90.99   20.80
  -4 -11  -5   62.59   17.50
   2  10   5  -17.60   20.30
  -2 -10  -5   -2.60   12.60
   0  -9  -5  185.88   26.70
   2  -8  -5  173.88   26.80
  -4 -11  -4   57.59   18.50
   2  10   4   -2.10   20.30
  -2 -10  -4    4.90   12.30
   0  -9  -4   12.40   13.40
   2  -8  -4  125.89   22.60
  -4 -11  -3   70.69   19.50
  -2 -10  -3   36.30   14.70
   0  -9  -3   40.10   14.90
   2  -8  -3  252.07   30.40
   4  -7  -3  276.27   34.10
  -4 -11  -2   91.99   20.30
  -2 -10  -2  195.98   26.00
   0  -9  -2   17.40   13.50
   2  -8  -2   85.59   20.20
   4  -7  -2  274.47   32.70
  -4 -11  -1  103.49   21.20
  -2 -10  -1   89.99   19.60
   0  -9  -1   15.50   13.00
   2  -8  -1  103.89   20.60
   4  -7  -1  218.28   29.00
  -4 -11   0  121.59   22.80
  -2 -10   0   37.00   14.90
   0  -9   0    0.80   11.30
   2  -8   0  140.39   21.60
   4  -7   0  117.49   21.80
   6  -6   0  314.67   36.20
  -2 -10   1  135.19   21.80
   0  -9   1   62.89   16.90
   2  -8   1   92.69   18.30
   4  -7   1  438.36   34.10
   6  -6   1  226.18   31.50
  -2 -10   2   87.69   17.60
   0  -9   2  181.28   23.20
   2  -8   2   -5.20   10.90
   4  -7   2  156.18   23.00
  -2 -10   3  104.19   19.50
   0  -9   3   52.69   15.50
   2  -8   3    6.30   11.00
   6  -6   3  170.08   34.10
  -2 -10   4  149.79   22.30
   0  -9   4  137.39   20.30
   2  -8   4   99.49   17.20
   4  -7   4   13.20   21.20
   6  -6   4  267.27   42.30
  -2 -10   5  123.59   22.30
   0  -9   5  200.88   24.30
   2  -8   5   59.89   25.40
   4  -7   5    7.70   21.40
   6  -6   5  353.26   47.30
   0  -9   6   95.29   26.70
   2  -8   6  115.69   32.20
   4  -7   6  -10.90   22.90
   6  -6   6   27.00   28.30
   0  -9   7  117.19   30.50
   2  -8   7  146.79   35.30
   4  -7   7  -27.40   26.10
   6  -6   7  -15.10   27.50
   2  -8   8  176.88   40.60
   4  -7   8  175.98   43.20
  -1 -10  -6  368.46   40.60
   3  11   5  134.79   34.90
  -3 -11  -5  174.18   26.90
  -1 -10  -5  105.09   20.10
   1  -9  -5   75.29   19.20
  -3 -11  -4   29.20   14.70
  -1 -10  -4   53.39   17.40
   1  -9  -4  172.08   26.50
  -3 -11  -3    3.40   12.60
  -1 -10  -3  144.89   21.40
   1  -9  -3  241.88   28.80
   3  -8  -3   24.80   15.20
  -3 -11  -2   61.89   18.20
  -1 -10  -2  139.09   22.80
   1  -9  -2  233.48   28.70
   3  -8  -2   35.70   15.80
  -3 -11  -1   59.69   18.60
  -1 -10  -1  187.48   26.20
   1  -9  -1  219.48   27.40
   3  -8  -1  109.09   22.20
   5  -7  -1   17.70   19.60
  -3 -11   0   29.50   15.20
  -1 -10   0  121.69   21.60
   1  -9   0  353.86   30.10
   3  -8   0  512.75   37.50
   5  -7   0   -7.00   15.20
  -3 -11   1   22.90   14.20
  -1 -10   1   57.89   16.90
   1  -9   1  200.18   24.70
   3  -8   1  343.27   30.60
   5  -7   1   55.29   19.80
  -3 -11   2   15.10   21.50
  -1 -10   2   87.29   18.30
   1  -9   2  109.69   19.80
   3  -8   2  182.38   24.40
  -1 -10   3   40.60   13.80
   1  -9   3  108.59   18.90
   3  -8   3  264.37   28.00
  -1 -10   4   17.40   14.00
   1  -9   4  114.49   20.10
   5  -7   4  337.07   44.80
  -1 -10   5   15.90   13.70
   3  -8   5  130.09   31.40
   5  -7   5  210.88   37.00
   3  -8   6   95.89   31.20
   5  -7   6  203.78   40.70
   1  -9   7   54.49   26.70
   3  -8   7    3.10   27.20
   5  -7   7   81.19   35.00
  -2 -11  -4   45.90   19.50
   0 -10  -4   11.30   14.70
  -2 -11  -3  121.19   23.00
   0 -10  -3   -6.30   12.30
   2  -9  -3   62.09   19.60
  -2 -11  -2  100.29   22.10
   0 -10  -2    6.30   11.60
   2  -9  -2   29.60   16.70
  -2 -11  -1  207.58   28.00
   0 -10  -1  103.89   20.70
   2  -9  -1   10.00   14.00
   4  -8  -1  136.39   26.80
  -2 -11   0  170.18   24.70
   0 -10   0  106.79   20.20
   2  -9   0   25.30   15.40
   4  -8   0   11.60   16.50
  -2 -11   1  178.68   25.90
   0 -10   1  125.69   22.20
   2  -9   1  -16.50   11.60
   4  -8   1   70.49   20.20
  -2 -11   2   13.70   14.00
   0 -10   2  142.79   22.60
   2  -9   2   12.50   13.70
   4  -8   2    5.10   14.10
  -2 -11   3   79.39   29.40
   0 -10   3  168.18   23.10
   2  -9   3   43.30   15.50
   0 -10   4  109.79   20.90
   2  -9   4  222.98   29.00
   0 -10   5   42.70   15.90
   4  -8   6   36.10   30.40
  -1 -11  -2   58.19   16.60
   1 -10  -2  125.09   23.20
  -1 -11  -1    9.20   14.30
   1 -10  -1   33.80   16.20
   3  -9  -1  133.99   23.80
  -1 -11   0   19.50   14.50
   1 -10   0   89.59   19.90
   3  -9   0  122.69   24.40
  -1 -11   1    4.30   13.60
   1 -10   1   73.89   18.10
   3  -9   1   71.09   18.80
  -1 -11   2   32.00   15.20
   1 -10   2   82.49   20.10
   3  -9   2  161.48   24.90
  -1 -11   3   42.40   14.60
   1 -10   3   14.10   14.20
   3  -9   3  165.58   24.80
   1 -10   4   -0.70   13.00
   0 -11   0   54.39   18.40
   2 -10   0    1.80   15.10
   0 -11   1   92.29   21.00
   2 -10   1   73.09   19.00
   4  -9   1   45.00   19.00
   0 -11   2  198.98   27.60
   2 -10   2  141.79   23.00
   4  -9   2   13.80   21.80
   0 -11   3   87.79   22.70
   2 -10   3   55.49   17.70
   0   0   0    0.00    0.00

_computing_structure_solution     'SHELXT 2018/2 (Sheldrick, 2018)'
;
_shelx_hkl_checksum              51726
_olex2_submission_special_instructions 'No special instructions were received'
loop_
_space_group_symop_operation_xyz
'x, y, z'
'-x, -y, -z'
loop_
_atom_site_label
_atom_site_type_symbol
_atom_site_fract_x
_atom_site_fract_y
_atom_site_fract_z
_atom_site_U_iso_or_equiv
_atom_site_adp_type
_atom_site_occupancy
_atom_site_site_symmetry_order
_atom_site_calc_flag
_atom_site_refinement_flags_posn
_atom_site_refinement_flags_adp
_atom_site_refinement_flags_occupancy
_atom_site_disorder_assembly
_atom_site_disorder_group
Cd1 Cd 0.75926(8) 0.08655(7) 0.46744(6) 0.0212(2) Uani 1 1 d . . . . .
O1 O 0.0912(9) -0.0272(8) 0.3441(6) 0.0304(15) Uani 1 1 d . . . . .
O2 O 0.0177(11) 0.2072(9) 0.2709(8) 0.0437(18) Uani 1 1 d . . . . .
O3 O 0.3983(9) 0.0878(8) 0.3875(6) 0.0289(14) Uani 1 1 d . . . . .
O4 O 0.7264(10) 0.0213(9) 0.2661(7) 0.0337(15) Uani 1 1 d . . . . .
N1 N 0.5595(12) 0.2963(9) 0.5866(8) 0.0304(17) Uani 1 1 d . . . . .
N2 N 0.4478(15) 0.4874(9) 0.7407(9) 0.039(2) Uani 1 1 d . . . . .
C1 C 0.6135(17) 0.3921(12) 0.6491(11) 0.037(2) Uani 1 1 d . . . . .
C2 C 0.3501(15) 0.3347(12) 0.6438(12) 0.040(2) Uani 1 1 d . . . . .
H2 H 0.269921 0.287146 0.620145 0.048 Uiso 1 1 calc R . . . .
C3 C 0.2830(17) 0.4509(13) 0.7383(13) 0.046(3) Uani 1 1 d . . . . .
H3 H 0.149419 0.497842 0.792132 0.055 Uiso 1 1 calc R . . . .
C4 C 0.821(2) 0.3927(16) 0.6199(14) 0.057(3) Uani 1 1 d . . . . .
H4A H 0.867508 0.332611 0.691801 0.085 Uiso 1 1 calc GR . . . .
H4B H 0.826973 0.494649 0.625137 0.085 Uiso 1 1 calc GR . . . .
H4C H 0.904015 0.351158 0.523578 0.085 Uiso 1 1 calc GR . . . .
C5 C 0.441(2) 0.6093(13) 0.8348(13) 0.055(3) Uani 1 1 d . . . . .
H5A H 0.329548 0.695773 0.837052 0.065 Uiso 1 1 calc R . . . .
H5B H 0.563915 0.641363 0.790960 0.065 Uiso 1 1 calc R . . . .
C6 C 0.418(2) 0.5594(14) 0.9921(13) 0.063(4) Uani 1 1 d . . . . .
H6A H 0.401630 0.646604 1.048717 0.076 Uiso 1 1 calc R . . . .
H6B H 0.296346 0.526486 1.034574 0.076 Uiso 1 1 calc R . . . .
C7 C 0.1328(12) 0.0807(11) 0.2591(9) 0.0256(18) Uani 1 1 d . . . . .
C8 C 0.3277(12) 0.0429(9) 0.1276(9) 0.0208(16) Uani 1 1 d . . . . .
C9 C 0.5190(12) 0.0184(10) 0.1344(8) 0.0196(16) Uani 1 1 d . . . . .
C10 C 0.6876(12) -0.0242(10) 0.0083(9) 0.0220(17) Uani 1 1 d . . . . .
H10 H 0.814298 -0.040935 0.013857 0.026 Uiso 1 1 calc R . . . .
C11 C 0.5479(12) 0.0437(9) 0.2758(8) 0.0194(16) Uani 1 1 d . U . . .
loop_
_atom_site_aniso_label
_atom_site_aniso_U_11
_atom_site_aniso_U_22
_atom_site_aniso_U_33
_atom_site_aniso_U_23
_atom_site_aniso_U_13
_atom_site_aniso_U_12
Cd1 0.0134(3) 0.0414(4) 0.0094(3) -0.0029(2) -0.0043(2) -0.0068(2)
O1 0.015(3) 0.064(4) 0.013(3) 0.002(3) -0.004(2) -0.012(3)
O2 0.029(4) 0.051(4) 0.034(4) -0.010(3) 0.000(3) 0.003(3)
O3 0.027(3) 0.046(4) 0.015(3) -0.005(3) -0.003(2) -0.015(3)
O4 0.024(3) 0.068(5) 0.018(3) -0.003(3) -0.013(3) -0.017(3)
N1 0.029(4) 0.038(4) 0.023(4) -0.006(3) -0.007(3) -0.008(3)
N2 0.053(6) 0.030(4) 0.029(4) -0.005(3) -0.012(4) -0.002(4)
C1 0.048(6) 0.041(5) 0.028(5) 0.002(4) -0.014(5) -0.019(5)
C2 0.028(5) 0.041(6) 0.041(6) -0.007(4) -0.007(4) 0.002(4)
C3 0.031(5) 0.045(6) 0.048(7) -0.010(5) -0.006(5) 0.004(5)
C4 0.057(7) 0.075(9) 0.049(7) -0.010(6) -0.009(6) -0.044(7)
C5 0.098(11) 0.031(5) 0.036(6) -0.001(4) -0.029(7) -0.013(6)
C6 0.100(12) 0.050(7) 0.027(6) -0.012(5) -0.018(7) -0.003(7)
C7 0.016(4) 0.050(5) 0.014(4) -0.001(4) -0.009(3) -0.009(4)
C8 0.016(4) 0.031(4) 0.016(4) -0.002(3) -0.007(3) -0.004(3)
C9 0.019(4) 0.035(4) 0.008(3) -0.004(3) -0.006(3) -0.010(3)
C10 0.012(3) 0.043(5) 0.013(4) -0.005(3) -0.004(3) -0.009(3)
C11 0.024(4) 0.033(4) 0.009(3) 0.001(3) -0.012(3) -0.011(3)
loop_
_atom_type_symbol
_atom_type_description
_atom_type_scat_dispersion_real
_atom_type_scat_dispersion_imag
_atom_type_scat_source
C C 0.0033 0.0016 'International Tables Vol C Tables 4.2.6.8 and 6.1.1.4'
H H 0.0000 0.0000 'International Tables Vol C Tables 4.2.6.8 and 6.1.1.4'
Cd Cd -0.8075 1.2024 'International Tables Vol C Tables 4.2.6.8 and 6.1.1.4'
N N 0.0061 0.0033 'International Tables Vol C Tables 4.2.6.8 and 6.1.1.4'
O O 0.0106 0.0060 'International Tables Vol C Tables 4.2.6.8 and 6.1.1.4'
loop_
_geom_angle_atom_site_label_1
_geom_angle_atom_site_label_2
_geom_angle_atom_site_label_3
_geom_angle
_geom_angle_site_symmetry_1
_geom_angle_site_symmetry_3
_geom_angle_publ_flag
O1 Cd1 O1 75.0(2) 1_655 2_656 ?
O1 Cd1 O2 100.7(2) 2_656 1_655 ?
O1 Cd1 O2 53.0(2) 1_655 1_655 ?
O1 Cd1 O3 110.3(2) 1_655 2_656 ?
O3 Cd1 O1 76.4(2) 2_656 2_656 ?
O3 Cd1 O2 162.7(2) 2_656 1_655 ?
O4 Cd1 O1 150.2(3) . 2_656 ?
O4 Cd1 O1 82.7(2) . 1_655 ?
O4 Cd1 O2 80.6(2) . 1_655 ?
O4 Cd1 O3 93.4(2) . 2_656 ?
N1 Cd1 O1 141.4(3) . 1_655 ?
N1 Cd1 O1 89.8(3) . 2_656 ?
N1 Cd1 O2 97.2(3) . 1_655 ?
N1 Cd1 O3 99.9(3) . 2_656 ?
N1 Cd1 O4 119.7(3) . . ?
Cd1 O1 Cd1 105.0(2) 1_455 2_656 ?
C7 O1 Cd1 116.8(5) . 2_656 ?
C7 O1 Cd1 97.9(5) . 1_455 ?
C7 O2 Cd1 84.8(6) . 1_455 ?
C11 O3 Cd1 119.4(6) . 2_656 ?
C11 O4 Cd1 113.9(5) . . ?
C1 N1 Cd1 125.7(7) . . ?
C1 N1 C2 106.1(9) . . ?
C2 N1 Cd1 126.4(7) . . ?
C1 N2 C3 108.4(9) . . ?
C1 N2 C5 126.8(11) . . ?
C3 N2 C5 124.8(10) . . ?
N1 C1 N2 109.5(9) . . ?
N1 C1 C4 124.6(10) . . ?
N2 C1 C4 125.9(10) . . ?
C3 C2 N1 109.0(10) . . ?
C2 C3 N2 107.0(9) . . ?
N2 C5 C6 113.1(9) . . ?
C6 C6 C5 115.6(14) 2_667 . ?
O1 C7 C8 116.7(8) . . ?
O2 C7 O1 123.6(8) . . ?
O2 C7 C8 119.4(8) . . ?
C9 C8 C7 124.6(7) . . ?
C9 C8 C10 118.6(7) . 2_655 ?
C10 C8 C7 116.7(7) 2_655 . ?
C8 C9 C11 121.8(7) . . ?
C10 C9 C8 119.6(7) . . ?
C10 C9 C11 118.5(7) . . ?
C9 C10 C8 121.8(7) . 2_655 ?
O3 C11 O4 125.4(7) . . ?
O3 C11 C9 119.1(7) . . ?
O4 C11 C9 115.4(7) . . ?
loop_
_geom_bond_atom_site_label_1
_geom_bond_atom_site_label_2
_geom_bond_distance
_geom_bond_site_symmetry_2
_geom_bond_publ_flag
Cd1 O1 2.285(6) 1_655 ?
Cd1 O1 2.430(6) 2_656 ?
Cd1 O2 2.591(8) 1_655 ?
Cd1 O3 2.320(6) 2_656 ?
Cd1 O4 2.224(6) . ?
Cd1 N1 2.196(8) . ?
O1 C7 1.268(11) . ?
O2 C7 1.222(12) . ?
O3 C11 1.237(10) . ?
O4 C11 1.251(10) . ?
N1 C1 1.338(12) . ?
N1 C2 1.394(13) . ?
N2 C1 1.347(14) . ?
N2 C3 1.365(15) . ?
N2 C5 1.494(13) . ?
C1 C4 1.459(16) . ?
C2 C3 1.338(15) . ?
C5 C6 1.527(16) . ?
C6 C6 1.43(3) 2_667 ?
C7 C8 1.517(11) . ?
C8 C9 1.399(11) . ?
C8 C10 1.405(11) 2_655 ?
C9 C10 1.386(11) . ?
C9 C11 1.522(10) . ?
