#------------------------------------------------------------------------------
#$Date: 2022-06-22 01:32:58 +0300 (Wed, 22 Jun 2022) $
#$Revision: 276136 $
#$URL: file:///home/coder/svn-repositories/cod/cif/7/24/50/7245086.cif $
#------------------------------------------------------------------------------
#
# This file is available in the Crystallography Open Database (COD),
# http://www.crystallography.net/
#
# All data on this site have been placed in the public domain by the
# contributors.
#
data_7245086
loop_
_publ_author_name
'Pagliari, Anderson'
'Meyer, Alexandre R.'
'Solner, Vanessa'
'Rosa, J\'essica Maria Luis'
'Hoerner, Manfredo'
'Gauze Bonacorso, Helio'
'Zanatta, Nilo'
'Martins, Marcos A. P.'
_publ_section_title
;
 Effect of Hydrogen Bonds and \p...\p-interactions on the Crystallization
 of Phenyl-perfluorophenyl Amides: Understanding the Self-organization of
 a Cocrystal
;
_journal_name_full               CrystEngComm
_journal_paper_doi               10.1039/D2CE00231K
_journal_year                    2022
_chemical_absolute_configuration unk
_chemical_formula_moiety         'C13 H F10 N O'
_chemical_formula_sum            'C13 H F10 N O'
_chemical_formula_weight         377.15
_chemical_melting_point          ?
_chemical_name_common            'bispentafluor amide'
_chemical_name_systematic
;
        '2,3,4,5,6-pentafluoro-N-(perfluorophenyl)benzamide'
;
_space_group_IT_number           1
_space_group_name_Hall           'P 1'
_space_group_name_H-M_alt        'P 1'
_symmetry_cell_setting           triclinic
_symmetry_Int_Tables_number      1
_symmetry_space_group_name_Hall  'P 1'
_symmetry_space_group_name_H-M   'P 1'
_atom_sites_solution_hydrogens   geom
_atom_sites_solution_primary     direct
_atom_sites_solution_secondary   difmap
_audit_conform_dict_location     ftp://ftp.iucr.org/pub/cif_core.dic
_audit_conform_dict_name         cif_core.dic
_audit_conform_dict_version      2.4.5
_audit_creation_date             2021-11-10T14:55:07-00:00
_audit_creation_method           'WinGX routine CIF_UPDATE'
_audit_update_record
;
2021-11-11 deposited with the CCDC.	2022-06-21 downloaded from the CCDC.
;
_cell_angle_alpha                83.206(2)
_cell_angle_beta                 81.269(2)
_cell_angle_gamma                87.894(2)
_cell_formula_units_Z            2
_cell_length_a                   4.7948(2)
_cell_length_b                   10.5652(5)
_cell_length_c                   12.8318(6)
_cell_measurement_reflns_used    7559
_cell_measurement_temperature    294(2)
_cell_measurement_theta_max      24.9885
_cell_measurement_theta_min      2.3805
_cell_measurement_wavelength     0.71073
_cell_volume                     637.87(5)
_computing_cell_refinement       'BRUKER SAINT'
_computing_data_collection       'BRUKER APEX-III'
_computing_data_reduction        'BRUKER SOFTWARE'
_computing_molecular_graphics    'ORTEP-3 for Windows (Farrugia, 2012)'
_computing_publication_material  'WinGX publication routines (Farrugia, 2012)'
_computing_structure_refinement  'SHELXL-2018/3 (Sheldrick, 2018)'
_computing_structure_solution    'SHELXT 2014/5 (Sheldrick, 2014)'
_diffrn_ambient_temperature      294(2)
_diffrn_detector_area_resol_mean 10.4167
_diffrn_measured_fraction_theta_full 0.996
_diffrn_measured_fraction_theta_max 0.997
_diffrn_measurement_device_type  'Bruker D8 Venture Photon 100 diffractometer'
_diffrn_measurement_method       '\f and \w scans'
_diffrn_radiation_probe          x-ray
_diffrn_radiation_type           MoK\a
_diffrn_radiation_wavelength     0.71073
_diffrn_reflns_av_R_equivalents  0.0316
_diffrn_reflns_av_unetI/netI     0.039
_diffrn_reflns_Laue_measured_fraction_full 0.996
_diffrn_reflns_Laue_measured_fraction_max 0.997
_diffrn_reflns_limit_h_max       6
_diffrn_reflns_limit_h_min       -6
_diffrn_reflns_limit_k_max       14
_diffrn_reflns_limit_k_min       -12
_diffrn_reflns_limit_l_max       17
_diffrn_reflns_limit_l_min       -17
_diffrn_reflns_number            23309
_diffrn_reflns_point_group_measured_fraction_full 0.931
_diffrn_reflns_point_group_measured_fraction_max 0.891
_diffrn_reflns_theta_full        25.242
_diffrn_reflns_theta_max         29.141
_diffrn_reflns_theta_min         2.38
_diffrn_source                   'fine-focus sealed tube'
_diffrn_standards_number         0
_exptl_absorpt_coefficient_mu    0.225
_exptl_absorpt_correction_T_max  0.7458
_exptl_absorpt_correction_T_min  0.7055
_exptl_absorpt_correction_type   multi-scan
_exptl_absorpt_process_details
;
        SADABS-2016/2 - Bruker AXS area detector scaling and absorption
        correction. Reference: Krause, L., Herbst-Irmer, R., Sheldrick G.M. &
        Stalke D., J. Appl. Cryst. 48 (2015) 3-10.
;
_exptl_crystal_colour            colourless
_exptl_crystal_density_diffrn    1.964
_exptl_crystal_density_meas      ?
_exptl_crystal_density_method    'not measured'
_exptl_crystal_description       block
_exptl_crystal_F_000             368
_exptl_crystal_recrystallization_method 'Re-crystallisation from solvent'
_exptl_crystal_size_max          0.287
_exptl_crystal_size_mid          0.23
_exptl_crystal_size_min          0.108
_exptl_transmission_factor_max   none
_exptl_transmission_factor_min   none
_refine_diff_density_max         0.37
_refine_diff_density_min         -0.202
_refine_diff_density_rms         0.042
_refine_ls_abs_structure_details
;
 Flack x determined using 1407 quotients [(I+)-(I-)]/[(I+)+(I-)]
 (Parsons, Flack and Wagner, Acta Cryst. B69 (2013) 249-259).
;
_refine_ls_abs_structure_Flack   0.4(2)
_refine_ls_extinction_method     none
_refine_ls_goodness_of_fit_ref   1.039
_refine_ls_hydrogen_treatment    constr
_refine_ls_matrix_type           full
_refine_ls_number_constraints    0
_refine_ls_number_parameters     451
_refine_ls_number_reflns         6147
_refine_ls_number_restraints     3
_refine_ls_restrained_S_all      1.038
_refine_ls_R_factor_all          0.1015
_refine_ls_R_factor_gt           0.0511
_refine_ls_shift/su_max          0
_refine_ls_shift/su_mean         0
_refine_ls_structure_factor_coef Fsqd
_refine_ls_weighting_details
'w=1/[\s^2^(Fo^2^)+(0.0689P)^2^+0.1542P] where P=(Fo^2^+2Fc^2^)/3'
_refine_ls_weighting_scheme      calc
_refine_ls_wR_factor_gt          0.1218
_refine_ls_wR_factor_ref         0.1418
_reflns_Friedel_coverage         0.788
_reflns_Friedel_fraction_full    0.866
_reflns_Friedel_fraction_max     0.785
_reflns_number_gt                3783
_reflns_number_total             6147
_reflns_threshold_expression     'I > 2\s(I)'
_cod_data_source_file            d2ce00231k1.cif
_cod_data_source_block           shelx
_cod_depositor_comments
;
The following automatic conversions were performed:

data item '_chemical_melting_point' value 'none' was changed to '?'
-- the value is undefined or not given.

data item '_exptl_crystal_density_meas' value 'none' was changed to
'?' -- the value is perceived as not measured.

Automatic conversion script
Id: cif_fix_values 7556 2019-12-06 15:28:31Z antanas 
;
_cod_database_code               7245086
_shelx_estimated_absorpt_t_min   0.938
_shelx_estimated_absorpt_t_max   0.976
_shelx_shelxl_version_number     2018/3
_shelx_res_file
;
TITL mo_MMV0229_0m_a.res in P1
    shelx.res
    created by SHELXL-2018/3 at 14:28:02 on 10-Nov-2021
CELL  0.71073   4.7948  10.5652  12.8318   83.206   81.269   87.894
ZERR     2.00   0.0002   0.0005   0.0006    0.002    0.002    0.002
LATT  -1
SFAC  C    H    N    O    F
UNIT  26 2 2 2 20
MERG   2
FMAP   2
PLAN   20
SIZE     0.108   0.230   0.287
ACTA
BOND   $H
LIST   4
L.S.  30
TEMP    21.08
WGHT    0.068900    0.154200
FVAR       1.57075
F7    5    1.825670    0.686349   -0.306170    11.00000    0.06820    0.09897 =
         0.06200   -0.02482    0.00646    0.02100
F1    5    0.891490    0.541508    0.129860    11.00000    0.08105    0.05435 =
         0.06568   -0.01339   -0.01363   -0.00735
F1'   5   -0.588558    0.378272    1.102297    11.00000    0.07297    0.05012 =
         0.06150   -0.00013   -0.00926    0.01542
F5    5    1.414215    0.845099    0.254234    11.00000    0.05710    0.07028 =
         0.09541    0.00497   -0.02046   -0.02128
F2    5    0.627654    0.480335    0.325854    11.00000    0.07076    0.06438 =
         0.08877    0.00456    0.01038   -0.02399
F3    5    0.758434    0.597207    0.488745    11.00000    0.08806    0.10648 =
         0.05109    0.00202    0.01346   -0.00378
F5'   5    0.028192    0.025787    1.143787    11.00000    0.06261    0.07361 =
         0.08426   -0.00869   -0.00427    0.02389
F3'   5   -0.644625    0.123651    1.425588    11.00000    0.09609    0.10599 =
         0.05219    0.00004    0.00839   -0.00688
F6    5    1.604768    0.617851   -0.106159    11.00000    0.07768    0.06571 =
         0.07297   -0.00581   -0.00775    0.02103
C4    1    0.821538    0.569589    0.307140    11.00000    0.05040    0.03777 =
         0.06301    0.00257    0.00403   -0.00335
O1    4    1.568402    0.765892    0.063713    11.00000    0.02690    0.09193 =
         0.06727    0.00463   -0.00112   -0.00622
F10   5    0.940845    0.957071   -0.128282    11.00000    0.05035    0.07904 =
         0.08347   -0.01282   -0.00362    0.01657
O1'   4    0.143460    0.217675    0.986206    11.00000    0.02813    0.09282 =
         0.07482   -0.00127   -0.00238   -0.00464
F6'   5    0.123491    0.452955    0.868100    11.00000    0.07715    0.06730 =
         0.07442   -0.01105   -0.00575   -0.01574
F10'  5   -0.447717    0.152290    0.765539    11.00000    0.05412    0.08677 =
         0.10402   -0.01468   -0.01904   -0.01790
F4    5    1.159313    0.776781    0.451765    11.00000    0.09385    0.10398 =
         0.07356   -0.02326   -0.02098   -0.01138
F9    5    1.152176    1.015380   -0.333119    11.00000    0.09952    0.07275 =
         0.07614    0.01062   -0.03110    0.01256
F4'   5   -0.197350   -0.017943    1.347428    11.00000    0.09403    0.08082 =
         0.06732    0.01428   -0.01999    0.01338
C7'   1   -0.179604    0.102379    1.181339    11.00000    0.03828    0.05468 =
         0.07027   -0.00146   -0.00819    0.00204
C6    1    1.090866    0.719340    0.371540    11.00000    0.06071    0.06620 =
         0.04768   -0.01565   -0.01036    0.01457
F8    5    1.602295    0.882539   -0.423404    11.00000    0.10127    0.10539 =
         0.04295    0.00311    0.00511   -0.01006
F2'   5   -0.844385    0.320045    1.300134    11.00000    0.06610    0.07929 =
         0.07201   -0.02604   -0.00053    0.01415
N1    3    1.151848    0.753616   -0.001318    11.00000    0.03885    0.06228 =
         0.05829   -0.00086   -0.00152   -0.00535
AFIX  43
H1    2    0.972891    0.742546    0.014203    11.00000   -1.20000
AFIX   0
N1'   3   -0.283564    0.264693    0.930682    11.00000    0.03289    0.06396 =
         0.05705   -0.00111    0.00036    0.00813
AFIX  43
H2    2   -0.463872    0.266565    0.948384    11.00000   -1.20000
AFIX   0
C4'   1   -0.623352    0.249837    1.262657    11.00000    0.04630    0.04907 =
         0.05635   -0.01693   -0.00204    0.00510
F9'   5   -0.233480    0.219203    0.561322    11.00000    0.12588    0.14129 =
         0.07263   -0.04567   -0.04584    0.01801
F7'   5    0.349427    0.512310    0.665772    11.00000    0.07923    0.07575 =
         0.09983    0.01406    0.01704   -0.02257
C5'   1   -0.525118    0.149514    1.325757    11.00000    0.05629    0.06700 =
         0.04865   -0.00873   -0.00131   -0.02339
C9    1    1.493654    0.721407   -0.158700    11.00000    0.04210    0.04526 =
         0.05225   -0.00236   -0.00759    0.00061
C13'  1   -0.251012    0.243286    0.739744    11.00000    0.04245    0.06099 =
         0.07006   -0.01058   -0.02034    0.01802
C2'   1   -0.272834    0.202629    1.115457    11.00000    0.03366    0.04495 =
         0.04469   -0.00169   -0.00634   -0.00558
C5    1    0.889225    0.628769    0.389798    11.00000    0.04772    0.06380 =
         0.04568    0.01302    0.00398    0.00848
F8'   5    0.181938    0.398303    0.511268    11.00000    0.11458    0.11441 =
         0.05365    0.01152    0.02228    0.02433
C12   1    1.264213    0.918554   -0.275604    11.00000    0.05492    0.04924 =
         0.05984   -0.00228   -0.01746   -0.01145
C1    1    1.310085    0.738379    0.076843    11.00000    0.03988    0.06003 =
         0.04668    0.00551   -0.00304    0.00836
C2    1    1.156346    0.699082    0.183817    11.00000    0.03143    0.04621 =
         0.04882   -0.00350   -0.00291    0.00109
C8'   1   -0.169135    0.299375    0.821481    11.00000    0.03020    0.04739 =
         0.04818    0.00236    0.00253    0.01019
C1'   1   -0.124822    0.229921    1.005567    11.00000    0.04236    0.04492 =
         0.04445   -0.00119   -0.00427   -0.00924
C8    1    1.269234    0.787382   -0.108821    11.00000    0.04015    0.04544 =
         0.05164   -0.00384   -0.00203   -0.01097
C7    1    1.223374    0.753648    0.267847    11.00000    0.03351    0.04684 =
         0.06239    0.00334   -0.00235   -0.00648
C9'   1    0.039828    0.391944    0.794769    11.00000    0.04305    0.04035 =
         0.05527   -0.00286   -0.00316   -0.00110
C3    1    0.960588    0.605096    0.207580    11.00000    0.04396    0.05293 =
         0.04698   -0.00717   -0.00571    0.00919
C3'   1   -0.494394    0.276485    1.158466    11.00000    0.04463    0.04295 =
         0.05132   -0.00489   -0.00756   -0.00659
C6'   1   -0.300535    0.077576    1.285175    11.00000    0.06224    0.05230 =
         0.05576    0.01342   -0.01861   -0.00457
C11   1    1.491212    0.850878   -0.321230    11.00000    0.06145    0.05941 =
         0.04358   -0.00436   -0.00753   -0.00626
C10   1    1.606975    0.753311   -0.262416    11.00000    0.04107    0.06504 =
         0.05475   -0.01148   -0.00097   -0.00644
C12'  1   -0.141915    0.277067    0.637771    11.00000    0.05877    0.07790 =
         0.05779   -0.01020   -0.01473    0.01506
C13   1    1.160439    0.888962   -0.171496    11.00000    0.03948    0.04923 =
         0.04966   -0.01168   -0.00829   -0.00191
C11'  1    0.064816    0.365611    0.611226    11.00000    0.06694    0.07132 =
         0.04598   -0.00532    0.00944    0.01370
C10'  1    0.151860    0.421634    0.688827    11.00000    0.03781    0.06448 =
         0.06029    0.00766    0.00601    0.00230
HKLF    4




REM  mo_MMV0229_0m_a.res in P1
REM wR2 = 0.1418, GooF = S = 1.039, Restrained GooF = 1.038 for all data
REM R1 = 0.0511 for 3783 Fo > 4sig(Fo) and 0.1015 for all 6147 data
REM 451 parameters refined using 3 restraints

END

WGHT      0.0688      0.1540

REM Highest difference peak  0.370,  deepest hole -0.202,  1-sigma level  0.042
Q1    1   0.8246  0.7785  0.0185  11.00000  0.05    0.37
Q2    1  -0.6078  0.2229  0.9418  11.00000  0.05    0.30
Q3    1  -0.2792  0.2087  1.0548  11.00000  0.05    0.18
Q4    1   0.9110  0.6392  0.4868  11.00000  0.05    0.18
Q5    1  -0.4041  0.1962  1.1172  11.00000  0.05    0.17
Q6    1   0.9442  0.5720  0.2657  11.00000  0.05    0.17
Q7    1  -0.2659  0.1366  1.1352  11.00000  0.05    0.16
Q8    1   1.1286  0.7427  0.2186  11.00000  0.05    0.16
Q9    1   1.0620  0.6692  0.1806  11.00000  0.05    0.16
Q10   1   0.0345  0.4224  0.7347  11.00000  0.05    0.15
Q11   1   0.8261  0.8847  0.0001  11.00000  0.05    0.15
Q12   1   0.9884  0.5847  0.5577  11.00000  0.05    0.14
Q13   1   0.2350  0.1681  0.8575  11.00000  0.05    0.14
Q14   1   0.6859  0.5335  0.1564  11.00000  0.05    0.14
Q15   1   1.3156  0.8739 -0.1354  11.00000  0.05    0.14
Q16   1  -0.0678  0.3504  0.8106  11.00000  0.05    0.14
Q17   1   0.1910  0.2775  0.8337  11.00000  0.05    0.14
Q18   1  -0.7679  0.3644  1.1028  11.00000  0.05    0.14
Q19   1  -0.5389  0.2711  1.2286  11.00000  0.05    0.14
Q20   1   0.9673  0.6935  0.2011  11.00000  0.05    0.14
;
_shelx_res_checksum              1693
_shelx_hkl_file
;
  -1   0   0  515.75   10.10
  -1   0   0  540.45    9.90
  -1   0   0  547.45   10.00
  -1   0   0  533.55   10.40
   1   0   0  539.95   10.00
   1   0   0  529.95   10.00
   1   0   0  539.85    9.60
   1   0   0  534.45    9.90
   1   0   0  514.15   10.30
   1   0   0  551.64   10.10
  -2   0   0 1042.40   19.80
  -2   0   0 1069.49   19.60
  -2   0   0 1048.10   19.50
  -2   0   0 1038.50   19.60
  -2   0   0 1030.30   19.40
   2   0   0 1043.20   19.60
   2   0   0 1058.99   19.40
   2   0   0 1039.70   18.70
   2   0   0 1062.59   19.60
   2   0   0 1012.70   19.40
   2   0   0 1043.20   19.80
  -3   0   0 1407.86   26.60
  -3   0   0 1388.46   26.40
  -3   0   0 1444.46   27.20
  -3   0   0 1438.66   26.80
  -3   0   0 1425.76   26.70
   3   0   0 1407.76   26.50
   3   0   0 1402.36   25.20
   3   0   0 1277.97   27.80
   3   0   0 1323.37   27.90
   3   0   0 1436.26   26.40
  -4   0   0  190.98    9.90
  -4   0   0  187.08    9.90
  -4   0   0  170.98    9.00
  -4   0   0  190.08    9.60
   4   0   0  188.38    6.90
   4   0   0  190.38    9.40
   4   0   0  188.78    9.80
   4   0   0  191.28    9.80
   4   0   0  185.08   10.70
   4   0   0  190.08    8.90
   4   0   0  178.58   10.80
  -5   0   0   62.09    9.20
  -5   0   0   52.09    9.80
  -5   0   0   67.49   11.10
   5   0   0   73.19   11.60
   5   0   0   57.49    8.30
   5   0   0   67.29    8.70
   5   0   0   63.19    9.20
  -6   0   0   16.10   12.90
  -6   0   0    4.30   13.40
   6   0   0  -10.80   13.80
   6   0   0   23.60   11.60
   6   0   0    9.90   11.90
   6  -1   0   21.40   11.90
   6  -1   0    6.20   11.30
  -6   1   0   19.20   13.00
  -6   1   0   16.20   13.60
   5  -1   0   -1.80    9.30
   5  -1   0    5.20    8.90
   5  -1   0    7.90    7.10
  -5   1   0   10.60    8.40
  -5   1   0   15.10    7.90
   4  -1   0   75.39    7.50
   4  -1   0   83.99    7.70
   4  -1   0   71.89    7.10
   4  -1   0   87.49    7.40
   4  -1   0   78.89    7.10
   4  -1   0   73.89    7.70
  -4   1   0   88.69    7.70
  -4   1   0   74.69    6.70
  -4   1   0   87.89    7.20
  -4   1   0   84.29    8.20
  -4   1   0   87.19    6.70
   3  -1   0 1187.68   22.60
   3  -1   0 1153.28   22.90
   3  -1   0 1191.58   22.90
   3  -1   0 1149.19   23.10
   3  -1   0 1195.98   23.10
  -3   1   0 1178.38   23.10
  -3   1   0 1132.29   22.80
  -3   1   0 1225.98   23.50
  -3   1   0 1164.08   22.80
  -3   1   0 1174.78   23.00
   2  -1   0   41.70    3.90
   2  -1   0   45.40    3.50
   2  -1   0   47.20    3.80
   2  -1   0   44.60    3.70
   2  -1   0   43.30    4.30
  -2   1   0   40.90    4.20
  -2   1   0   46.20    3.70
  -2   1   0   44.90    3.60
  -2   1   0   43.20    3.50
  -2   1   0   40.10    3.80
   1  -1   0 2284.47   38.40
   1  -1   0 2274.07   38.30
   1  -1   0 2271.97   38.50
   1  -1   0 2215.18   38.20
   1  -1   0 2203.78   38.50
  -1   1   0 2310.17   38.50
  -1   1   0 2274.47   38.30
  -1   1   0 2035.40   38.70
  -1   1   0 2236.68   38.30
  -1  -1   0  121.99    3.30
  -1  -1   0  123.59    3.50
  -1  -1   0  119.49    3.40
  -1  -1   0  127.49    3.40
   1   1   0  105.89    3.70
   1   1   0  121.59    3.50
   1   1   0  118.29    3.80
   1   1   0  122.99    3.40
   1   1   0  130.09    3.50
  -2  -1   0  479.05   10.10
  -2  -1   0  483.35   10.00
  -2  -1   0  455.25   10.00
  -2  -1   0  448.86   10.00
   2   1   0  474.15   10.20
   2   1   0  465.55   10.30
   2   1   0  472.35   10.10
   2   1   0  454.75   10.40
   2   1   0  456.55    9.50
   2   1   0  442.96    9.90
  -3  -1   0  805.02   16.80
  -3  -1   0  801.32   16.90
  -3  -1   0  800.72   16.80
  -3  -1   0  773.52   16.50
   3   1   0  816.02   17.20
   3   1   0  833.52   17.10
   3   1   0  809.72   17.30
   3   1   0  778.02   15.80
   3   1   0  807.92   16.80
   3   1   0  799.72   17.00
  -4  -1   0  144.39    9.20
  -4  -1   0  160.38    8.60
   4   1   0  126.89   10.50
   4   1   0  164.08    8.60
   4   1   0  155.78    7.10
   4   1   0  167.28    9.50
   4   1   0  148.59   10.10
   4   1   0  174.68   10.70
  -5  -1   0   23.10    9.70
  -5  -1   0   36.40    8.70
  -5  -1   0   21.70    8.70
   5   1   0   18.50    8.00
   5   1   0   38.30    8.10
   5   1   0   14.10   11.50
   5   1   0   13.40    5.90
   5   1   0   23.90    8.70
  -6  -1   0   28.90   13.00
  -6  -1   0   52.69   13.30
   6   1   0    6.50   13.40
   6   1   0   14.30   12.40
   6   1   0   27.80   11.80
   6  -2   0    1.00   11.10
   6  -2   0    9.10   11.30
  -6   2   0   14.10   13.70
  -6   2   0    4.50   14.00
   5  -2   0   38.20   10.00
   5  -2   0   32.60    7.80
   5  -2   0   42.20    9.30
   5  -2   0   34.50    7.40
  -5   2   0   25.50    9.70
  -5   2   0   33.30   10.10
  -5   2   0   38.50    8.60
  -5   2   0   24.70    8.70
   4  -2   0   62.09    7.70
   4  -2   0   66.39    6.40
   4  -2   0   54.99    6.30
   4  -2   0   63.09    5.60
   4  -2   0   57.39    6.00
   4  -2   0   38.80    7.00
  -4   2   0   61.49    7.50
  -4   2   0   47.70    6.00
  -4   2   0   59.69    6.70
  -4   2   0   61.09    6.70
  -4   2   0   63.39    6.60
   3  -2   0  438.06   10.80
   3  -2   0  426.86   10.70
   3  -2   0  438.36   10.40
   3  -2   0  453.55   11.10
   3  -2   0  432.06   11.10
  -3   2   0  429.56   10.80
  -3   2   0  445.86   11.00
  -3   2   0  424.66   10.90
  -3   2   0  446.56   10.90
  -3   2   0  457.75   11.70
   2  -2   0   33.90    3.20
   2  -2   0   42.70    4.20
   2  -2   0   35.20    3.00
   2  -2   0   38.30    3.20
   2  -2   0   43.70    3.80
   2  -2   0   38.10    3.00
  -2   2   0   40.80    3.30
  -2   2   0   36.50    3.70
  -2   2   0   40.10    3.20
  -2   2   0   32.90    3.30
  -2   2   0   41.80    3.50
   1  -2   0 1497.35   26.30
   1  -2   0 1499.45   25.80
   1  -2   0 1510.55   26.10
   1  -2   0 1506.75   26.40
   1  -2   0 1491.95   25.80
  -1   2   0 1506.55   26.50
  -1   2   0 1505.35   26.20
  -1   2   0 1497.15   26.00
  -1   2   0 1501.95   26.00
  -1   2   0 1535.95   26.10
  -1   2   0 1499.05   26.40
   0  -2   0 4645.04   78.79
  -2  -2   0 2102.89   36.70
  -2  -2   0 2079.89   36.60
  -2  -2   0 2045.80   36.60
  -2  -2   0 2058.09   36.60
   2   2   0 2071.59   36.80
   2   2   0 2061.49   36.80
   2   2   0 2061.99   36.50
   2   2   0 2052.29   36.60
   2   2   0 2037.70   36.60
   2   2   0 2029.40   37.00
  -3  -2   0  905.81   18.70
  -3  -2   0  914.91   18.60
  -3  -2   0  904.41   18.60
  -3  -2   0  905.31   18.90
   3   2   0  942.51   19.00
   3   2   0  919.51   18.20
   3   2   0  906.31   19.00
   3   2   0  904.31   19.00
   3   2   0  895.71   19.40
   3   2   0  930.11   18.80
  -4  -2   0   95.19    8.50
  -4  -2   0   88.79    8.50
  -4  -2   0   83.89    8.90
  -4  -2   0   95.79    7.10
   4   2   0   89.39    7.20
   4   2   0   82.39    8.20
   4   2   0   98.79    7.40
   4   2   0   91.89    7.90
   4   2   0   95.39    8.10
   4   2   0  102.99    9.60
  -5  -2   0   15.20    9.80
  -5  -2   0   34.00    8.60
  -5  -2   0   35.30    8.20
   5   2   0   46.40   11.80
   5   2   0   39.80    9.30
   5   2   0   39.60    8.50
   5   2   0   27.70    6.90
  -6  -2   0   -4.40   13.30
  -6  -2   0   -0.40   14.40
   6   2   0   -9.30   11.40
   6   2   0  -10.00   13.50
   6   2   0   -3.20    9.70
   6  -3   0    4.70   11.60
   6  -3   0   29.80   11.20
  -6   3   0   10.70   14.20
  -6   3   0   15.00   14.30
   5  -3   0   34.80    8.10
   5  -3   0   33.30    7.30
   5  -3   0   26.90    9.00
  -5   3   0   20.90    9.90
  -5   3   0   24.40    9.70
  -5   3   0   23.70    9.20
  -5   3   0   31.20    8.60
   4  -3   0   43.20    7.30
   4  -3   0   46.20    7.70
   4  -3   0   44.80    5.90
   4  -3   0   55.89    6.00
   4  -3   0   52.39    5.50
  -4   3   0   58.89    5.90
  -4   3   0   56.59    6.90
  -4   3   0   46.10    6.40
  -4   3   0   38.80    6.70
  -4   3   0   56.79    7.80
   3  -3   0   55.39    5.10
   3  -3   0   53.49    5.40
   3  -3   0   55.99    5.40
   3  -3   0   59.59    6.00
   3  -3   0   53.69    4.80
   3  -3   0   64.39    5.50
  -3   3   0   58.89    5.10
  -3   3   0   69.49    5.70
  -3   3   0   49.80    5.30
  -3   3   0   56.49    5.50
  -3   3   0   79.09    7.00
   2  -3   0 1803.62   32.40
   2  -3   0 1824.92   31.70
   2  -3   0 1827.02   32.60
   2  -3   0 1795.42   31.60
   2  -3   0 1822.62   32.20
  -2   3   0 1822.02   32.70
  -2   3   0 1795.62   32.00
  -2   3   0 1811.62   32.30
  -2   3   0 1780.62   32.10
  -2   3   0 1803.52   32.20
   0  -3   0    3.90    0.70
   0  -3   0    5.00    1.60
   0  -3   0    4.30    1.00
   0   3   0    4.20    1.00
   0   3   0    4.20    1.00
   0   3   0    2.80    1.50
   0   3   0    4.30    0.90
  -1  -3   0  431.06    8.30
  -1  -3   0  421.36    9.10
  -1  -3   0  422.46    8.50
  -1  -3   0  419.76    8.50
  -1  -3   0  409.76    8.40
   1   3   0  426.96    8.50
   1   3   0  423.96    8.40
   1   3   0  423.96    9.10
   1   3   0  427.66    8.60
   1   3   0  415.96    8.60
  -2  -3   0 2039.90   36.10
  -2  -3   0 2029.70   36.40
  -2  -3   0 2037.20   36.30
  -2  -3   0 2018.50   36.20
   2   3   0 2065.99   36.60
   2   3   0 2010.90   36.30
   2   3   0 2044.10   36.50
   2   3   0 1998.90   36.20
   2   3   0 2049.89   36.40
  -3  -3   0   58.49    5.80
  -3  -3   0   60.89    5.00
  -3  -3   0   58.19    4.90
  -3  -3   0   56.29    6.00
   3   3   0   56.39    4.80
   3   3   0   57.49    5.00
   3   3   0   56.59    4.80
   3   3   0   59.09    5.20
   3   3   0   58.99    5.70
   3   3   0   57.39    5.00
  -4  -3   0    4.40    5.80
  -4  -3   0    2.20    5.70
  -4  -3   0    8.20    5.60
  -4  -3   0   -0.80    5.60
   4   3   0    0.70    5.50
   4   3   0   -6.40    7.50
   4   3   0   11.20    6.90
   4   3   0    4.70    5.40
   4   3   0    8.60    5.10
  -5  -3   0   47.30    9.20
  -5  -3   0   62.69    9.00
  -5  -3   0   34.60   10.40
   5   3   0   46.20   12.20
   5   3   0   47.10    9.10
   5   3   0   52.09    7.90
   5   3   0   44.90    9.50
  -6  -3   0   11.90   14.10
  -6  -3   0   46.40   13.90
   6   3   0   -0.10   11.90
   6   3   0   -1.20   16.00
   6   3   0   11.70   13.50
   6  -4   0    5.50   13.50
  -6   4   0    1.20   17.20
  -6   4   0    0.30   14.20
  -6   4   0   -2.00   14.80
   5  -4   0   49.40    8.40
   5  -4   0   49.10    6.90
  -5   4   0   53.99    9.10
  -5   4   0   20.10    9.60
  -5   4   0   45.70   12.10
  -5   4   0   39.30    9.40
   4  -4   0   15.10    5.60
   4  -4   0   11.40    6.30
   4  -4   0    6.70    4.50
   4  -4   0   -0.50    6.60
  -4   4   0    7.30    6.00
  -4   4   0   17.40    5.80
  -4   4   0    6.00    6.30
  -4   4   0   10.30    7.40
  -4   4   0   16.00    6.00
   3  -4   0   27.50    3.20
   3  -4   0   23.80    4.10
   3  -4   0   21.70    3.60
   3  -4   0   30.20    4.80
   3  -4   0   29.40    4.40
  -3   4   0   26.00    5.40
  -3   4   0   21.60    4.80
  -3   4   0   28.60    4.10
  -3   4   0   21.50    4.20
  -3   4   0   31.60    4.20
   2  -4   0 1184.18   21.60
   2  -4   0 1177.28   21.80
   2  -4   0 1174.88   22.00
   2  -4   0 1196.48   22.50
  -2   4   0 1161.38   21.80
  -2   4   0 1174.88   22.50
  -2   4   0 1210.98   21.50
  -2   4   0 1178.38   21.80
  -2   4   0 1161.88   21.60
   1  -4   0  380.06    8.40
   1  -4   0  369.46    7.70
   1  -4   0  364.26    7.30
   1  -4   0  377.36    7.30
   1  -4   0  377.76    7.80
  -1   4   0  383.46    8.60
  -1   4   0  360.56    7.20
  -1   4   0  369.66    7.50
  -1   4   0  381.86    7.10
  -1   4   0  374.26    8.00
  -1   4   0  373.16    7.50
   0  -4   0 1371.06   24.90
   0  -4   0 1391.66   23.60
   0  -4   0 1385.16   23.80
   0   4   0 1358.86   23.90
   0   4   0 1388.56   23.70
   0   4   0 1384.26   23.80
   0   4   0 1376.06   24.80
  -1  -4   0 1150.68   21.60
  -1  -4   0 1137.89   20.30
  -1  -4   0 1159.88   20.80
  -1  -4   0 1122.39   20.50
   1   4   0 1164.28   20.90
   1   4   0 1165.18   20.80
   1   4   0 1159.38   20.70
   1   4   0 1136.09   20.80
   1   4   0 1186.18   21.70
  -2  -4   0   89.39    4.70
  -2  -4   0   90.09    5.10
  -2  -4   0   91.09    5.00
   2   4   0   86.09    5.20
   2   4   0   92.09    5.40
   2   4   0   99.69    5.00
   2   4   0   90.39    5.30
   2   4   0   91.89    5.00
  -3  -4   0   12.00    4.40
  -3  -4   0   23.40    4.40
  -3  -4   0   17.80    4.20
  -3  -4   0   13.60    4.60
   3   4   0   21.40    4.50
   3   4   0   20.50    4.70
   3   4   0   21.00    4.80
   3   4   0   17.90    4.50
   3   4   0   19.30    5.00
  -4  -4   0   42.10    7.10
  -4  -4   0   43.70    7.40
  -4  -4   0   42.70    6.70
  -4  -4   0   44.80    7.60
   4   4   0   42.20    6.10
   4   4   0   29.70    7.80
   4   4   0   44.50    6.60
   4   4   0   42.30    7.90
   4   4   0   49.60    7.10
  -5  -4   0   80.49   10.20
  -5  -4   0   61.59    9.60
  -5  -4   0   50.59   11.80
   5   4   0   53.49    8.80
   5   4   0   71.79   10.00
   5   4   0   50.79   13.30
   5   4   0   58.79   12.20
  -6  -4   0   -2.30   13.90
  -6  -4   0  -24.20   15.00
   6   4   0   15.70   15.20
   6   4   0    5.80   11.90
   6   4   0   17.20   13.90
   6   4   0   -7.10   15.30
  -6   5   0   15.40   19.60
  -6   5   0    8.30   17.00
   5  -5   0   16.80    8.40
   5  -5   0    0.90    6.30
  -5   5   0   13.60    8.70
  -5   5   0  -11.70   11.60
  -5   5   0   -8.40   10.10
  -5   5   0    7.90   11.20
   4  -5   0   -1.40    3.90
  -4   5   0   -2.90    6.00
  -4   5   0    4.20    6.80
  -4   5   0   -4.10    5.50
  -4   5   0   -1.90    6.50
  -4   5   0    2.40    8.10
   3  -5   0  307.17    9.20
   3  -5   0  306.97    9.40
   3  -5   0  293.97   10.70
   3  -5   0  296.37    9.50
  -3   5   0  308.67    9.50
  -3   5   0  302.47   10.00
  -3   5   0  302.47    9.10
  -3   5   0  307.07   11.40
  -3   5   0  303.57    9.00
   2  -5   0  275.77    8.60
   2  -5   0  276.17    7.70
   2  -5   0  258.87    7.00
   2  -5   0  272.47    7.00
  -2   5   0  270.37    6.80
  -2   5   0  263.97    7.00
  -2   5   0  277.67    8.80
  -2   5   0  264.27    7.40
  -2   5   0  270.57    7.50
   1  -5   0    3.40    1.40
   1  -5   0    3.70    1.90
   1  -5   0    4.50    2.20
  -1   5   0    3.80    2.30
  -1   5   0    0.20    2.90
  -1   5   0    2.30    1.70
  -1   5   0    2.70    1.50
  -1   5   0    0.10    2.10
  -1   5   0    4.50    1.60
   0  -5   0  308.77    5.80
   0  -5   0  302.87    7.70
   0  -5   0  293.77    6.10
   0   5   0  318.77    6.30
   0   5   0  310.87    7.50
   0   5   0  304.47    6.40
   0   5   0  319.27    6.00
   0   5   0  312.07    6.10
   0   5   0  283.57    6.50
  -1  -5   0 1577.14   27.80
  -1  -5   0 1618.94   28.10
  -1  -5   0 1606.74   28.50
  -1  -5   0 1611.34   29.70
  -1  -5   0 1559.44   28.80
   1   5   0 1623.74   28.50
   1   5   0 1605.54   28.60
   1   5   0 1628.94   29.70
   1   5   0 1604.84   28.40
   1   5   0 1613.04   28.60
  -2  -5   0   27.30    3.00
  -2  -5   0   30.40    3.80
  -2  -5   0   30.90    3.20
   2   5   0   30.30    4.30
   2   5   0   33.60    4.10
   2   5   0   34.20    3.90
   2   5   0   33.20    3.60
   2   5   0   29.60    4.30
  -3  -5   0  299.17    8.30
  -3  -5   0  310.37    9.70
  -3  -5   0  303.57    9.50
  -3  -5   0  288.17   10.40
  -3  -5   0  295.77    9.50
   3   5   0  304.57   10.80
   3   5   0  287.67    9.80
   3   5   0  298.47    9.90
   3   5   0  293.67   11.00
   3   5   0  295.27   10.30
  -4  -5   0  148.79   10.00
  -4  -5   0  144.29   10.40
  -4  -5   0  148.89   11.90
  -4  -5   0  159.78   11.30
   4   5   0  162.78   10.10
   4   5   0  148.89   12.80
   4   5   0  159.88   10.50
  -5  -5   0   -1.90    9.20
  -5  -5   0   10.60    9.00
   5   5   0    2.80    9.70
   5   5   0   -0.40   14.20
   5   5   0   19.50    8.90
   5   5   0   11.40   12.00
  -6  -5   0   28.20   16.20
   6   5   0   25.20   13.00
   6   5   0   53.59   18.00
   6   5   0   13.90   14.50
   5  -6   0   29.10    9.60
  -5   6   0    7.50   10.80
  -5   6   0  -15.80   13.30
  -5   6   0    5.20    9.90
   4  -6   0    3.80    5.90
   4  -6   0    8.40    7.00
   4  -6   0    9.70    9.30
  -4   6   0    9.00    6.10
  -4   6   0   15.40    7.20
  -4   6   0    1.00    6.60
  -4   6   0    5.90    6.90
  -4   6   0   12.60    8.70
   3  -6   0  244.28   10.70
   3  -6   0  216.38    8.80
   3  -6   0  229.78    8.40
   3  -6   0  236.98    8.70
  -3   6   0  248.08   11.20
  -3   6   0  228.48    8.20
  -3   6   0  224.08    8.70
  -3   6   0  228.58    9.40
  -3   6   0  239.78    7.90
   2  -6   0  278.17    9.30
   2  -6   0  278.57    7.30
   2  -6   0  298.97    8.10
   2  -6   0  271.17    7.10
  -2   6   0  274.87    9.30
  -2   6   0  270.47    6.80
  -2   6   0  283.47    7.90
  -2   6   0  279.27    7.50
  -2   6   0  259.87    7.10
   1  -6   0   64.69    4.30
   1  -6   0   62.09    4.10
  -1   6   0   59.29    4.30
  -1   6   0   62.09    4.10
  -1   6   0   61.59    3.10
  -1   6   0   62.69    5.40
  -1   6   0   62.79    3.40
   0  -6   0  640.74   11.80
   0  -6   0  632.04   13.60
   0   6   0  642.94   12.20
   0   6   0  654.43   11.70
   0   6   0  664.33   12.10
   0   6   0  625.94   13.40
   0   6   0  636.74   12.40
   0   6   0  641.34   11.90
  -1  -6   0  479.75   10.20
  -1  -6   0  490.25   11.70
  -1  -6   0  483.85    9.70
   1   6   0  478.45   10.30
   1   6   0  488.25   10.30
   1   6   0  474.75   10.00
   1   6   0  497.95   11.60
   1   6   0  482.35   10.00
  -2  -6   0  351.36    9.50
  -2  -6   0  347.07    8.20
  -2  -6   0  343.87    8.60
  -2  -6   0  354.86    8.90
   2   6   0  345.37    9.40
   2   6   0  340.97   10.20
   2   6   0  346.57    9.80
   2   6   0  335.47    9.20
   2   6   0  360.06    9.60
  -3  -6   0  116.79    7.50
  -3  -6   0  122.99    9.30
  -3  -6   0  118.09    7.20
   3   6   0  133.69    8.00
   3   6   0  128.29    8.30
   3   6   0  125.99    9.60
   3   6   0  115.59    9.20
   3   6   0  133.49    8.80
  -4  -6   0   -5.90    7.30
  -4  -6   0    9.00    6.70
  -4  -6   0   -6.30    8.60
   4   6   0    3.00   11.20
   4   6   0    3.80   13.20
   4   6   0   12.10    8.30
   4   6   0    2.90    6.80
  -5  -6   0   -4.60    8.90
   5   6   0  -11.20   10.70
   5   6   0   -4.60   14.70
   5   6   0   15.70   10.70
   5   6   0   17.60   11.50
   5  -7   0    4.20   10.00
  -5   7   0   -0.60   15.00
  -5   7   0   13.90   10.70
  -5   7   0   -3.30   11.80
   4  -7   0   20.40    7.00
   4  -7   0   20.60    6.70
  -4   7   0    2.50    8.00
  -4   7   0   13.60    7.20
  -4   7   0   18.60    7.90
  -4   7   0   17.00    6.50
   3  -7   0  428.06   14.00
   3  -7   0  411.66   11.90
   3  -7   0  428.26   12.10
   3  -7   0  434.76   11.20
  -3   7   0  448.46   11.80
  -3   7   0  441.76   14.10
  -3   7   0  426.06   11.60
  -3   7   0  454.95   12.50
  -3   7   0  420.36   10.60
   2  -7   0 1252.97   23.70
   2  -7   0 1221.08   24.80
  -2   7   0 1265.87   23.10
  -2   7   0 1205.18   22.90
  -2   7   0 1239.38   25.30
  -2   7   0 1250.47   22.30
  -2   7   0 1265.47   23.40
  -2   7   0 1255.67   22.70
   1  -7   0   78.19    4.50
  -1   7   0   80.79    5.10
  -1   7   0   82.29    4.00
  -1   7   0   77.69    2.90
  -1   7   0   67.59    6.60
  -1   7   0   76.29    5.40
   0   7   0  112.29    6.80
   0   7   0  117.59    4.30
   0   7   0  116.49    4.00
   0   7   0  113.49    4.50
   0   7   0  113.09    4.40
   0   7   0  121.69    5.90
  -1  -7   0   81.19    4.90
  -1  -7   0   85.69    4.10
   1   7   0   74.89    4.80
   1   7   0   83.19    4.40
   1   7   0   87.79    5.20
   1   7   0   83.09    4.90
   1   7   0   82.39    6.00
  -2  -7   0  351.46    9.70
  -2  -7   0  361.36    8.40
  -2  -7   0  358.16    8.80
  -2  -7   0  363.86   10.30
   2   7   0  353.46    9.70
   2   7   0  345.17   10.00
   2   7   0  354.06   10.70
   2   7   0  365.16   11.30
   2   7   0  360.36   10.30
  -3  -7   0   32.60    4.80
  -3  -7   0   51.09    6.60
  -3  -7   0   27.70    6.80
  -3  -7   0   39.10    5.50
   3   7   0   49.10    6.70
   3   7   0   39.20    6.50
   3   7   0   36.30    7.20
   3   7   0   37.10    7.40
   3   7   0   30.60    6.30
  -4  -7   0    1.80    7.50
  -4  -7   0   -4.90    7.40
  -4  -7   0   -0.50    6.50
   4   7   0  -13.60    7.20
   4   7   0    8.90   10.10
   4   7   0   12.00    8.00
  -5  -7   0   -8.00   11.00
  -5  -7   0  -12.10   12.70
  -5  -7   0    9.10    8.80
   5   7   0   14.80   12.30
   5   7   0   27.90   13.00
   5   7   0   -8.10   11.80
   5  -8   0   33.60   11.90
  -5   8   0   26.20   17.90
  -5   8   0   32.20   11.50
  -5   8   0   29.80   13.20
   4  -8   0    6.20    8.50
  -4   8   0    4.20    8.90
  -4   8   0   -1.50    7.10
  -4   8   0   18.00    9.40
  -4   8   0    0.80   11.30
  -4   8   0    5.70    7.30
   3  -8   0    1.70    6.10
   3  -8   0    5.30    5.50
  -3   8   0    8.20    5.60
  -3   8   0    6.30    4.20
  -3   8   0   14.70    5.40
  -3   8   0    1.80    5.10
  -3   8   0   13.30    8.50
   2  -8   0   60.99    6.40
  -2   8   0   51.09    4.40
  -2   8   0   60.39    5.50
  -2   8   0   43.00    4.00
  -2   8   0   37.30    6.70
  -2   8   0   59.29    4.00
   1  -8   0   20.30    3.50
  -1   8   0   22.30    4.30
  -1   8   0   29.60    5.50
  -1   8   0   17.90    2.50
  -1   8   0   26.00    4.10
   0   8   0  551.94   11.00
   0   8   0  542.55   11.30
   0   8   0  559.14   11.40
   0   8   0  562.24   11.60
   0   8   0  560.04   11.10
   0   8   0  566.74   13.70
   0   8   0  554.04   13.60
  -1  -8   0  634.74   12.60
  -1  -8   0  640.04   13.60
   1   8   0  656.93   13.80
   1   8   0  643.34   13.40
   1   8   0  658.23   15.60
   1   8   0  656.13   13.90
   1   8   0  631.14   13.80
   1   8   0  642.74   12.80
  -2  -8   0   27.40    3.50
  -2  -8   0   17.80    2.80
   2   8   0   15.30    5.30
   2   8   0   17.20    4.80
   2   8   0   27.20    4.80
   2   8   0   24.70    5.30
   2   8   0   20.40    6.20
  -3  -8   0  150.68    7.80
  -3  -8   0  150.68   11.70
   3   8   0  151.88   10.30
   3   8   0  147.99   12.20
   3   8   0  169.38   10.90
   3   8   0  150.18    9.80
   3   8   0  132.79   11.90
  -4  -8   0   56.59    7.30
  -4  -8   0   41.90    8.30
  -4  -8   0   61.09    9.60
   4   8   0   60.39   10.10
   4   8   0   31.20   12.30
   4   8   0   62.39   10.80
   4   8   0   49.00    9.90
  -5  -8   0   16.20   11.50
   5   8   0   10.00   13.40
   5   8   0   20.80   13.60
   5   8   0   -3.30   13.30
   4  -9   0    8.10    8.90
  -4   9   0   -2.70    8.50
  -4   9   0   17.10    7.80
  -4   9   0   11.80   10.60
  -4   9   0   -3.20   10.30
  -4   9   0   31.60   13.20
  -3   9   0   37.10    7.30
  -3   9   0   20.20    4.40
  -3   9   0   22.60    6.20
  -3   9   0   47.80    5.90
   2  -9   0  120.89    7.50
  -2   9   0  123.99    6.90
  -2   9   0  107.09    6.50
  -2   9   0  116.59   11.40
  -1   9   0  201.98    8.70
  -1   9   0  198.08    8.30
  -1   9   0  216.68   10.90
  -1   9   0  195.18    6.00
   0   9   0    9.10    3.40
   0   9   0   14.70    3.10
   0   9   0   13.60    5.90
   0   9   0   13.00    5.20
   0   9   0   13.40    3.30
   0   9   0   14.10    4.20
  -1  -9   0   81.39    4.80
  -1  -9   0   83.39    6.40
   1   9   0   75.79    8.00
   1   9   0   82.69    8.10
   1   9   0   98.99    7.90
   1   9   0   86.19    5.80
   1   9   0   85.79    6.60
   1   9   0   98.39    6.00
  -2  -9   0  175.58    7.70
   2   9   0  182.68    9.70
   2   9   0  173.48   10.10
   2   9   0  162.08   10.80
  -3  -9   0   45.60    7.30
  -3  -9   0   45.20    4.90
   3   9   0   31.10   10.30
   3   9   0   35.60    9.50
   3   9   0   27.70    7.10
   3   9   0   46.40    8.30
  -4  -9   0   26.90    9.60
  -4  -9   0   30.40    7.60
   4   9   0   24.80   10.70
   4   9   0   43.50   11.00
  -5  -9   0   -7.50   11.50
   5   9   0   29.60   16.80
   5   9   0  -15.00   14.10
   5   9   0  -12.70   14.90
   4 -10   0   -8.60   10.50
  -4  10   0   10.90   15.60
  -4  10   0   18.10    9.20
   3 -10   0   19.20    7.60
  -3  10   0   12.30    7.90
  -3  10   0   17.60    4.50
  -3  10   0   12.40    6.70
  -3  10   0   14.80   11.60
   2 -10   0    6.20    5.50
  -2  10   0    6.20    5.50
  -2  10   0   -1.40    5.10
  -1  10   0  107.99    7.00
  -1  10   0  119.69   11.50
  -1  10   0  115.69    9.50
  -1  10   0   90.99    8.90
   0  10   0    2.80    6.30
   0  10   0    0.40    3.90
   0  10   0   -6.50    5.90
   0  10   0   -1.70    3.70
   0  10   0   -0.50    3.90
   0  10   0   -2.20    4.20
  -1 -10   0   13.70    5.00
   1  10   0   15.10    5.10
   1  10   0   12.60    5.30
   1  10   0    4.40    4.40
   1  10   0    7.70    5.10
   1  10   0    3.90    7.10
  -2 -10   0   18.30    5.00
   2  10   0   22.00    6.20
   2  10   0   13.20    5.10
   2  10   0   15.70    8.00
   2  10   0    8.30    6.90
   2  10   0    7.90    6.40
   2  10   0   25.60    7.80
  -3 -10   0   -2.00    4.60
   3  10   0   -2.20    8.20
   3  10   0   13.70    9.40
   3  10   0    1.90    8.60
   3  10   0    9.20    9.90
  -4 -10   0    8.70    7.40
   4  10   0   15.20   11.80
   4  10   0    1.80   13.30
   4  10   0    3.30   11.60
   4 -11   0    4.80   13.30
  -4  11   0  -16.00   19.20
  -4  11   0    3.10    9.40
   3 -11   0   -0.30    8.20
  -3  11   0    8.50   12.60
  -3  11   0   -0.10    9.60
  -2  11   0    7.30    6.80
  -2  11   0    0.50    5.30
  -2  11   0   -3.50   10.50
  -1  11   0   -3.90    7.40
  -1  11   0   13.90    9.10
  -1  11   0    6.60    7.40
  -1  11   0    5.70    5.60
  -1  11   0    8.30    5.80
  -1  11   0    3.30    6.90
   0  11   0    7.60    9.20
   0  11   0    1.20    9.10
   0  11   0    5.40    5.70
   0  11   0   -6.40    5.80
   0  11   0    7.20    5.00
   1  11   0    5.40    6.30
   1  11   0    2.80    6.50
   1  11   0   -4.50    5.50
   1  11   0   -2.70    8.10
   1  11   0    0.40    6.00
  -2 -11   0    0.10    5.50
   2  11   0   -2.90    9.00
   2  11   0    1.30   10.10
   2  11   0   16.80    9.70
   2  11   0   -8.60    7.50
   2  11   0    2.50    6.10
   2  11   0   -2.60    6.80
   3  11   0   13.80   10.00
   3  11   0   -1.50    9.40
   3  11   0    3.50   10.70
   4  11   0  -21.40   14.00
   4  11   0    6.50   14.60
   4  11   0    6.40   14.60
   3 -12   0    6.80   10.70
  -3  12   0   16.10   17.10
  -2  12   0    4.70    8.20
  -2  12   0    8.10   13.20
  -1  12   0   -3.20    9.00
  -1  12   0   -1.00    6.50
  -1  12   0   -7.20    9.30
  -1  12   0  -14.30   10.70
  -1  12   0   -0.10    7.10
  -1  12   0    6.50    5.70
  -1  12   0   -0.50    8.60
   0  12   0    9.40    6.70
   0  12   0    3.90   10.90
   0  12   0   19.60    6.60
   0  12   0    8.40    7.50
   0  12   0   15.10    8.80
   1  12   0   46.80   11.60
   1  12   0   18.90    6.50
   1  12   0   14.30    7.40
   1  12   0   21.30    6.60
   1  12   0   25.80   10.10
   1  12   0   28.10    8.60
   1  12   0   20.70    7.90
   2  12   0    3.10    8.30
   2  12   0   12.70   10.80
   2  12   0  -10.80   12.30
   3  12   0  -17.40   12.70
   3  12   0    8.70   13.10
   3  12   0    2.90   11.70
  -2  13   0   30.70   17.20
  -2  13   0   -9.70   15.20
  -1  13   0   10.00   14.00
  -1  13   0  -10.80    9.40
   0  13   0   10.30   13.30
   0  13   0   15.40   10.20
   0  13   0   10.10    8.80
   1  13   0    8.20   12.10
   1  13   0    0.90    9.10
   1  13   0    5.00    7.90
   1  13   0   -7.80   14.00
   1  13   0   -7.30    9.70
   2  13   0    2.00   14.10
   2  13   0  -12.70   12.30
   2  13   0   -4.60    9.60
  -1  14   0   -5.10   13.00
  -1  14   0    0.40   17.30
   0  14   0    3.00   13.30
   0  14   0  -29.80   16.80
   1  14   0   20.50   15.70
   1  14   0   36.80   18.10
   1  14  -1   -4.90   10.70
   1  14  -1   -6.00   15.40
   0  14  -1  -11.80   13.30
   0  14  -1   17.00   18.10
  -1  14  -1   -3.50   13.00
  -1  14  -1   13.30   18.80
   2  13  -1   27.70   14.90
   2  13  -1  -13.00   10.50
   2  13  -1    0.60   11.70
   1  13  -1    7.50    8.80
   1  13  -1   32.60   12.10
   1  13  -1   36.20   15.00
   0  13  -1    4.20    9.10
   0  13  -1    6.70   12.90
   0  13  -1   17.10   10.60
  -1  13  -1   -1.90    9.50
  -1  13  -1   -4.20   14.50
  -1  13  -1   -2.30   10.90
  -2  13  -1    0.30   18.10
   3  12  -1   24.00   12.80
   3  12  -1   13.00   12.90
   3  12  -1   -6.40   15.10
   2  12  -1  -11.50   10.90
   2  12  -1    0.80    9.80
   2  12  -1    3.60    9.00
   1  12  -1   23.70    8.10
   1  12  -1   22.60    8.10
   1  12  -1    6.70    8.80
   1  12  -1    8.50   10.00
   1  12  -1    8.20    7.10
   1  12  -1    7.00   11.00
   0  12  -1   15.90   11.40
   0  12  -1   15.10    8.80
   0  12  -1   21.70    6.20
   0  12  -1   31.20    7.60
   0  12  -1   27.60    7.40
  -1  12  -1   13.70    6.20
  -1  12  -1   -0.70    6.50
  -1  12  -1   11.60    7.60
  -1  12  -1    2.50    8.90
  -1  12  -1  -11.20   11.70
  -1  12  -1   -2.80    9.20
  -2  12  -1    7.40   12.70
  -2  12  -1   -2.00   14.00
  -2  12  -1   10.80    9.70
  -2  12  -1   17.50    9.20
  -3  12  -1    7.10   15.70
   3 -12   1    0.10    9.10
   4  11  -1    1.60   15.70
   3  11  -1   10.40   11.20
   3  11  -1    4.50   12.00
   3  11  -1    9.10   10.40
   2  11  -1   24.10    7.60
   2  11  -1   12.40    8.70
   2  11  -1   27.10   10.20
   2  11  -1   20.00    9.80
  -2 -11   1    9.00    6.40
   1  11  -1   95.79    8.80
   1  11  -1  114.19   11.90
   1  11  -1   89.79    8.90
   1  11  -1  104.49   10.00
   1  11  -1  103.59    7.90
   1  11  -1  106.29    9.70
   0  11  -1   31.70    8.80
   0  11  -1   22.30    5.50
   0  11  -1   36.40    6.20
   0  11  -1   28.40    5.70
   0  11  -1   30.40    5.70
   0  11  -1   29.00    6.00
  -1  11  -1    6.80    7.10
  -1  11  -1   12.90    6.70
  -1  11  -1    9.20    6.30
  -1  11  -1    9.90    5.10
  -1  11  -1   19.40    9.80
  -2  11  -1    4.50    5.90
  -2  11  -1    9.30   10.10
  -2  11  -1   -4.00   10.40
  -2  11  -1    4.70    6.50
  -2  11  -1   -3.50    7.80
  -3  11  -1   26.00   14.20
  -3  11  -1    5.80    9.90
   3 -11   1   18.50    8.20
  -4  11  -1   37.70   22.50
  -4  11  -1    8.00   19.00
  -4  11  -1   -4.90   10.80
   4 -11   1    1.10   11.90
   4  10  -1   19.60   13.20
   4  10  -1   24.20   12.50
   4  10  -1    5.00   12.90
   3  10  -1    4.30    9.20
   3  10  -1   -8.20   10.20
   3  10  -1   -3.20    9.40
   3  10  -1    5.90    8.10
  -3 -10   1   11.50    7.80
  -3 -10   1   -3.20    5.10
   2  10  -1   58.39    5.20
   2  10  -1   56.59    7.30
   2  10  -1   71.59    8.50
   2  10  -1   83.49    8.00
   2  10  -1   56.09    8.10
   2  10  -1   72.89    8.70
  -2 -10   1   69.69    6.10
   1  10  -1   30.80    5.90
   1  10  -1   11.10    5.60
   1  10  -1   30.90    5.50
  -1 -10   1   17.70    3.70
   0  10  -1   37.80    5.30
   0  10  -1   35.70    6.90
   0  10  -1   43.80    4.80
   0  10  -1   35.10    5.00
   0  10  -1   40.80    4.90
   0  10  -1   34.40    4.90
  -1  10  -1   33.40    5.20
  -1  10  -1   31.10    4.50
  -1  10  -1   32.30    6.10
  -1  10  -1   36.90    4.10
  -2  10  -1    1.50    6.30
  -2  10  -1   -0.60    4.70
  -2  10  -1   -2.70    5.80
  -2  10  -1   -6.60    4.50
  -2  10  -1    2.10    8.70
   2 -10   1    0.00    5.10
  -3  10  -1   -2.80    7.90
  -3  10  -1   18.30   11.20
  -3  10  -1   -3.40    5.30
  -3  10  -1    3.40    6.70
  -3  10  -1    4.30    7.00
   3 -10   1    5.40    7.30
  -4  10  -1   16.30   12.60
  -4  10  -1   19.50   10.30
  -4  10  -1   15.90   16.30
   4 -10   1   36.90   10.30
   5   9  -1    2.80   15.40
   5   9  -1  -14.40   16.70
  -5  -9   1   20.40   12.90
   4   9  -1   21.10   10.40
   4   9  -1   13.00   11.20
   4   9  -1   -6.30   11.20
   3   9  -1   15.80    7.90
   3   9  -1   14.70    7.20
   3   9  -1    9.70    8.00
   3   9  -1    8.70    9.00
  -3  -9   1   -2.20    7.00
  -3  -9   1    8.30    5.10
   2   9  -1    5.10    6.50
   2   9  -1    4.20    6.50
   2   9  -1    5.10    6.00
   2   9  -1    9.10    5.80
   2   9  -1    2.90    6.70
  -2  -9   1    4.50    5.20
   1   9  -1   36.60    6.00
   1   9  -1   21.20    4.50
   1   9  -1   28.00    5.00
   1   9  -1   21.60    4.80
   1   9  -1   26.10    5.10
  -1  -9   1   33.90    4.80
  -1  -9   1   17.20    6.70
  -1  -9   1   30.30    3.70
   0   9  -1    5.20    3.90
   0   9  -1   12.80    5.30
   0   9  -1   13.00    3.50
   0   9  -1    7.70    3.60
   0   9  -1   12.60    3.40
   0   9  -1   14.50    4.10
   0   9  -1    4.10    6.20
   0  -9   1   17.80    3.80
   0  -9   1    7.80    2.60
   0  -9   1   16.80    6.20
  -1   9  -1  161.68    8.90
  -1   9  -1  150.18    5.50
  -1   9  -1  157.98    9.20
  -1   9  -1  151.58    6.30
  -1   9  -1  165.78    6.50
  -1   9  -1  156.58    7.80
  -1   9  -1  169.38    7.10
  -1   9  -1  157.58   10.60
  -2   9  -1   49.60    4.70
  -2   9  -1   50.59    7.90
  -2   9  -1   65.39    6.40
  -2   9  -1   49.99    6.10
  -2   9  -1   64.79    5.50
   2  -9   1   51.99    5.50
  -3   9  -1    8.90    6.50
  -3   9  -1    2.60    4.70
  -3   9  -1   16.40    9.30
  -3   9  -1    4.00    7.10
  -3   9  -1    6.10    5.90
   3  -9   1    0.00    6.20
  -4   9  -1   61.79   10.80
  -4   9  -1   99.19    9.60
  -4   9  -1   88.89   13.70
   4  -9   1   74.29    9.40
   5   8  -1   13.60   13.80
   5   8  -1    9.10   14.30
   5   8  -1    4.20   13.60
  -5  -8   1   -5.40   11.30
   4   8  -1  -12.10    8.70
   4   8  -1   24.50    9.80
   4   8  -1    7.50    9.60
   4   8  -1   22.10   12.50
  -4  -8   1   -3.80    7.00
  -4  -8   1   18.70    8.50
   3   8  -1   52.99    8.00
   3   8  -1   79.69    7.60
   3   8  -1   57.39    8.90
   3   8  -1   72.39    8.00
   3   8  -1   57.59    8.80
  -3  -8   1   67.99    7.00
  -3  -8   1   66.89    5.60
  -3  -8   1   54.19    8.50
   2   8  -1   15.20    5.30
   2   8  -1   19.10    4.60
   2   8  -1    6.70    5.50
   2   8  -1   24.30    5.30
   2   8  -1    8.20    5.60
  -2  -8   1   10.60    3.70
  -2  -8   1   14.40    3.20
   1   8  -1   71.19    6.00
   1   8  -1   70.39    7.20
   1   8  -1   71.29    5.40
   1   8  -1   64.79    4.40
   1   8  -1   77.79    6.40
  -1  -8   1   73.89    4.60
  -1  -8   1   80.49    8.20
  -1  -8   1   67.79    6.20
   0   8  -1  220.58    6.60
   0   8  -1  232.08    9.10
   0   8  -1  215.08    8.40
   0   8  -1  213.48    6.80
   0   8  -1  212.58    6.40
   0   8  -1  222.88    6.30
   0  -8   1  216.68    5.60
   0  -8   1  216.68    8.70
   0  -8   1  217.58    6.30
  -1   8  -1  305.17    8.20
  -1   8  -1  312.47    7.50
  -1   8  -1  314.87    7.30
  -1   8  -1  326.17    8.90
  -1   8  -1  319.07    8.10
  -1   8  -1  333.37   11.20
  -1   8  -1  313.67    9.30
   1  -8   1  317.67    8.10
   1  -8   1  347.67   12.60
  -2   8  -1  532.25   15.60
  -2   8  -1  551.84   12.30
  -2   8  -1  556.24   12.10
  -2   8  -1  543.15   12.80
  -2   8  -1  552.64   12.20
  -2   8  -1  533.65   11.20
   2  -8   1  537.55   12.60
   2  -8   1  552.44   12.80
   2  -8   1  546.35   11.50
  -3   8  -1   52.89    8.80
  -3   8  -1   55.09    6.00
  -3   8  -1   60.99    5.10
  -3   8  -1   68.29    5.90
  -3   8  -1   65.19    6.90
   3  -8   1   52.69    8.90
   3  -8   1   61.19    6.40
  -4   8  -1   23.00   11.50
  -4   8  -1   31.40    9.40
  -4   8  -1   34.00   10.00
  -4   8  -1   31.80    8.00
   4  -8   1   36.30    8.30
  -5   8  -1    8.60   12.00
  -5   8  -1  -19.90   17.40
  -5   8  -1    6.10   13.50
   5  -8   1   -4.70   10.80
   5   7  -1   -2.20   12.00
   5   7  -1    6.60   12.30
   5   7  -1   17.10   13.30
  -5  -7   1   29.70   13.30
  -5  -7   1    4.80   11.10
   4   7  -1   30.60    8.70
   4   7  -1   17.90    8.60
   4   7  -1   21.70    9.40
  -4  -7   1   18.30    8.30
  -4  -7   1   14.70    8.20
  -4  -7   1   17.00    9.70
   3   7  -1  128.09    9.00
   3   7  -1  107.99    9.00
   3   7  -1  124.79   10.60
   3   7  -1   94.29    8.80
   3   7  -1  119.09   10.10
  -3  -7   1  121.09    7.30
  -3  -7   1  105.89    8.70
  -3  -7   1  112.19   10.90
  -3  -7   1  115.29    8.70
   2   7  -1  221.58    9.00
   2   7  -1  226.08    8.20
   2   7  -1  222.38    8.90
   2   7  -1  216.68    8.90
   2   7  -1  212.98    8.30
  -2  -7   1  216.08    7.60
  -2  -7   1  228.68    6.70
  -2  -7   1  221.58    7.40
  -2  -7   1  218.78    8.80
  -2  -7   1  212.48   10.10
   1   7  -1  140.09    6.00
   1   7  -1  148.09    6.10
   1   7  -1  147.89    4.60
   1   7  -1  143.69    6.10
   1   7  -1  148.19    5.70
   1   7  -1  153.38    7.30
  -1  -7   1  151.28    4.00
  -1  -7   1  146.69    6.90
  -1  -7   1  140.79    5.00
  -1  -7   1  152.88    7.70
   0   7  -1   76.79    4.00
   0   7  -1   85.59    4.10
   0   7  -1   82.29    6.30
   0   7  -1   83.69    3.90
   0   7  -1   85.49    4.30
   0   7  -1   80.19    4.30
   0   7  -1   72.79    4.20
   0   7  -1   95.29    5.80
   0  -7   1   74.69    5.80
   0  -7   1   84.59    4.10
   0  -7   1   85.69    3.30
  -1   7  -1  267.07    7.60
  -1   7  -1  267.37    9.30
  -1   7  -1  259.87    6.00
  -1   7  -1  257.37    6.20
  -1   7  -1  260.37    6.80
  -1   7  -1  259.17    7.50
  -1   7  -1  262.27    6.70
   1  -7   1  249.38    7.90
   1  -7   1  258.87    6.10
   1  -7   1  254.67    6.70
  -2   7  -1  263.17    7.70
  -2   7  -1  246.98    7.40
  -2   7  -1  254.47    7.10
  -2   7  -1  253.67    9.90
  -2   7  -1  256.97    6.60
   2  -7   1  235.38   10.10
   2  -7   1  253.17    7.30
   2  -7   1  254.87    7.70
   2  -7   1  252.77    7.70
   2  -7   1  242.68    7.40
  -3   7  -1   71.49    6.80
  -3   7  -1   78.19    8.50
  -3   7  -1   79.69    6.80
  -3   7  -1   85.69    8.10
  -3   7  -1   92.69    7.40
   3  -7   1   86.09    7.30
   3  -7   1   74.29    6.60
   3  -7   1   71.99    6.60
   3  -7   1   81.29    9.10
  -4   7  -1  142.39   11.20
  -4   7  -1  124.79   10.00
  -4   7  -1  148.49   14.80
  -4   7  -1  124.79   12.30
  -4   7  -1  138.69   11.90
   4  -7   1  149.59   11.00
   4  -7   1  121.99   10.70
  -5   7  -1    2.50   13.00
  -5   7  -1   11.00   11.30
  -5   7  -1   -4.00   15.70
   5  -7   1   23.10   10.40
   5   6  -1    5.40   11.10
   5   6  -1   19.30   13.00
   5   6  -1   34.90   15.70
   5   6  -1   -4.60   10.10
  -5  -6   1    9.50    8.10
  -5  -6   1   34.50   11.10
  -5  -6   1   19.60    9.70
   4   6  -1   29.30    9.70
   4   6  -1   16.80    7.60
  -4  -6   1   25.20    8.90
  -4  -6   1   19.70    8.20
  -4  -6   1   16.40    5.00
  -4  -6   1   20.20    8.90
   3   6  -1    3.40    6.80
   3   6  -1   12.60    5.30
   3   6  -1   22.10    7.00
   3   6  -1    2.10    5.20
   3   6  -1   14.00    5.30
  -3  -6   1    5.90    6.50
  -3  -6   1   16.40    5.00
  -3  -6   1   18.30    4.80
  -3  -6   1   16.90    5.60
   2   6  -1  234.28    8.60
   2   6  -1  231.68    8.30
   2   6  -1  231.98    7.40
   2   6  -1  245.28    8.30
   2   6  -1  241.68    8.70
  -2  -6   1  243.38    8.60
  -2  -6   1  240.08    7.60
  -2  -6   1  234.48    6.80
  -2  -6   1  236.98    9.60
  -2  -6   1  240.98    7.70
   1   6  -1   66.49    4.70
   1   6  -1   74.39    4.60
   1   6  -1   76.19    4.30
   1   6  -1   75.39    5.20
   1   6  -1   68.89    4.20
  -1  -6   1   76.59    3.80
  -1  -6   1   68.29    3.20
  -1  -6   1   72.59    4.60
  -1  -6   1   71.09    5.90
   0   6  -1  289.37    6.40
   0   6  -1  292.37    6.80
   0   6  -1  286.77    6.30
   0   6  -1  290.77    6.60
   0   6  -1  271.47    6.60
   0   6  -1  286.47    7.90
   0   6  -1  284.77    8.50
   0   6  -1  286.97    6.40
   0  -6   1  300.67    8.30
   0  -6   1  283.97    6.40
   0  -6   1  280.97    6.10
  -1   6  -1  285.37    6.70
  -1   6  -1  291.17    8.60
  -1   6  -1  286.07    6.60
  -1   6  -1  280.67    7.20
  -1   6  -1  280.77    6.30
  -1   6  -1  278.17    7.10
   1  -6   1  277.37    6.60
   1  -6   1  275.17    6.20
  -2   6  -1  556.34   11.00
  -2   6  -1  548.55   11.00
  -2   6  -1  538.45   11.50
  -2   6  -1  559.64   13.80
  -2   6  -1  549.05   11.90
   2  -6   1  540.75   13.20
   2  -6   1  547.55   12.00
   2  -6   1  557.54   11.50
   2  -6   1  544.55   11.70
   2  -6   1  555.44   11.50
  -3   6  -1   85.09    7.10
  -3   6  -1  106.99    7.30
  -3   6  -1  101.79   10.10
  -3   6  -1   88.99    8.10
  -3   6  -1   92.19    6.40
   3  -6   1  114.99    9.80
   3  -6   1   90.09    7.40
   3  -6   1   94.09    7.40
   3  -6   1   95.09    8.20
  -4   6  -1   -2.50    7.60
  -4   6  -1    4.60    7.40
  -4   6  -1    2.00    6.00
  -4   6  -1    0.20   10.30
  -4   6  -1    8.90    6.70
   4  -6   1    3.50    6.30
   4  -6   1   -4.40   10.60
   4  -6   1   -1.20    6.40
  -5   6  -1   22.20   14.40
  -5   6  -1   15.40   11.20
  -5   6  -1   13.00    9.90
   5  -6   1   20.60    9.60
   6   5  -1    7.40   17.70
   6   5  -1   13.70   14.30
   6   5  -1  -13.70   15.80
  -6  -5   1    7.50   16.20
   5   5  -1    9.00    9.40
   5   5  -1   -6.10   10.90
   5   5  -1    4.40    9.90
   5   5  -1    0.80   14.70
  -5  -5   1   15.50   10.10
   4   5  -1   16.20    7.00
   4   5  -1    9.20    8.60
   4   5  -1    7.80    6.90
   4   5  -1   12.10    6.40
  -4  -5   1   16.00    6.20
  -4  -5   1   15.30    8.20
  -4  -5   1    5.50    7.30
   3   5  -1  388.16   11.40
   3   5  -1  379.16   12.00
   3   5  -1  374.76   12.00
   3   5  -1  379.76   11.20
   3   5  -1  363.56   11.10
  -3  -5   1  392.56   11.10
  -3  -5   1  374.86   10.70
  -3  -5   1  365.46   11.70
   2   5  -1   68.79    5.50
   2   5  -1   67.39    5.30
   2   5  -1   66.39    6.10
   2   5  -1   67.09    5.40
   2   5  -1   64.29    5.20
  -2  -5   1   62.59    5.10
  -2  -5   1   75.79    5.60
  -2  -5   1   70.99    4.60
  -2  -5   1   66.79    6.00
   1   5  -1 2775.72   48.60
   1   5  -1 2825.92   49.70
   1   5  -1 2790.62   48.70
   1   5  -1 2788.72   48.80
   1   5  -1 2796.22   48.80
  -1  -5   1 2862.21   48.90
  -1  -5   1 2764.82   48.10
  -1  -5   1 2849.22   49.90
  -1  -5   1 2807.02   48.50
   0   5  -1   39.80    2.60
   0   5  -1   40.80    3.00
   0   5  -1   43.20    2.50
   0   5  -1   34.90    2.70
   0   5  -1   31.00    2.90
   0   5  -1   37.90    3.80
   0   5  -1   39.30    3.40
   0   5  -1   38.70    2.90
   0  -5   1   32.30    2.30
   0  -5   1   41.30    2.70
   0  -5   1   45.80    3.80
  -1   5  -1   95.89    3.10
  -1   5  -1   90.99    4.20
  -1   5  -1   95.99    3.80
  -1   5  -1   91.39    3.20
  -1   5  -1  101.99    5.20
  -1   5  -1   98.99    4.00
  -1   5  -1  101.29    3.80
   1  -5   1   85.89    5.10
   1  -5   1   95.69    4.20
   1  -5   1   93.39    3.30
   1  -5   1   97.59    3.70
   1  -5   1  102.99    3.50
  -2   5  -1 5025.00   86.89
  -2   5  -1 5086.29   85.89
  -2   5  -1 5097.79   85.39
  -2   5  -1 5020.60   85.89
  -2   5  -1 4948.00   85.59
   2  -5   1 4907.51   85.89
   2  -5   1 5177.08   85.79
   2  -5   1 5102.19   85.59
   2  -5   1 4602.64   87.59
  -3   5  -1 1411.76   27.30
  -3   5  -1 1484.65   29.20
  -3   5  -1 1437.46   27.70
  -3   5  -1 1465.85   28.00
  -3   5  -1 1441.36   27.00
   3  -5   1 1447.96   28.80
   3  -5   1 1460.75   27.60
   3  -5   1 1401.16   27.60
   3  -5   1 1508.45   26.10
   3  -5   1 1437.56   27.90
  -4   5  -1   32.70    6.70
  -4   5  -1   25.30    6.00
  -4   5  -1   26.10    7.20
  -4   5  -1   19.20    8.20
  -4   5  -1   20.50    6.50
   4  -5   1   27.60    4.60
   4  -5   1   17.20    8.10
   4  -5   1   15.40    4.80
  -5   5  -1    3.00    9.50
  -5   5  -1   18.00   11.70
  -5   5  -1   15.70   10.50
  -5   5  -1   -1.30   12.80
   5  -5   1   14.00   12.20
   5  -5   1   22.40    9.00
   5  -5   1   13.40    6.60
  -6   5  -1   -4.20   17.10
  -6   5  -1   -3.10   18.70
   6   4  -1   -1.10   15.60
   6   4  -1   13.20   14.90
   6   4  -1   -2.90   13.00
   6   4  -1   -6.90   11.80
  -6  -4   1   44.40   15.30
   5   4  -1   49.40   13.80
   5   4  -1   70.39    8.90
   5   4  -1   81.09    9.50
   5   4  -1   80.29   13.10
   5   4  -1   71.59   10.20
  -5  -4   1   80.69   10.10
  -5  -4   1   71.29    9.70
  -5  -4   1   54.09   12.80
   4   4  -1   -1.40    8.20
   4   4  -1   -6.60    5.30
   4   4  -1    0.10    7.10
   4   4  -1    0.80    6.60
  -4  -4   1    4.20    7.30
  -4  -4   1   -1.00    5.80
  -4  -4   1    6.70    6.30
  -4  -4   1   -4.90    6.40
   3   4  -1  236.58    9.00
   3   4  -1  227.78    9.10
   3   4  -1  223.28    8.60
   3   4  -1  239.48    8.60
   3   4  -1  230.48    9.50
  -3  -4   1  247.98    8.70
  -3  -4   1  226.98    8.40
  -3  -4   1  238.58    8.60
  -3  -4   1  231.78    9.30
   2   4  -1 1944.71   35.40
   2   4  -1 1976.80   35.40
   2   4  -1 1958.50   35.20
   2   4  -1 1982.70   35.60
   2   4  -1 1936.01   35.20
  -2  -4   1 1951.50   35.30
  -2  -4   1 1924.71   35.10
  -2  -4   1 1946.21   34.70
  -2  -4   1 1936.21   35.60
   1   4  -1 1211.18   21.90
   1   4  -1 1197.48   22.00
   1   4  -1 1214.88   21.90
   1   4  -1 1212.28   22.00
   1   4  -1 1223.18   22.70
  -1  -4   1 1210.88   21.50
  -1  -4   1 1216.58   22.70
  -1  -4   1 1228.78   21.70
  -1  -4   1 1203.08   22.00
  -1  -4   1 1238.08   21.90
   0   4  -1 6879.81  116.49
   0   4  -1 6845.82  117.19
   0   4  -1 6776.42  116.49
   0  -4   1 6925.31  116.49
   0  -4   1 7011.40  117.29
  -1   4  -1  191.38    4.90
  -1   4  -1  181.08    4.40
  -1   4  -1  186.18    4.30
  -1   4  -1  190.58    4.70
  -1   4  -1  191.28    6.00
  -1   4  -1  183.98    4.70
   1  -4   1  183.68    4.80
   1  -4   1  184.48    4.50
   1  -4   1  194.48    4.80
   1  -4   1  184.38    5.90
   1  -4   1  177.68    5.00
  -2   4  -1  607.94   12.60
  -2   4  -1  610.14   12.00
  -2   4  -1  607.14   13.40
  -2   4  -1  584.14   12.20
  -2   4  -1  615.74   12.50
   2  -4   1  619.14   12.70
   2  -4   1  614.44   13.20
   2  -4   1  606.44   12.30
   2  -4   1  602.54   11.50
   2  -4   1  602.14   11.40
  -3   4  -1   53.79    4.40
  -3   4  -1   55.79    5.20
  -3   4  -1   57.39    6.10
  -3   4  -1   60.59    5.80
  -3   4  -1   53.39    4.60
   3  -4   1   55.59    5.60
   3  -4   1   54.19    5.30
   3  -4   1   55.19    5.20
   3  -4   1   58.59    5.10
   3  -4   1   49.50    5.00
   3  -4   1   57.39    4.90
  -4   4  -1    5.70    5.40
  -4   4  -1   13.80    7.40
  -4   4  -1   -1.20    6.40
  -4   4  -1   12.40    5.80
  -4   4  -1   14.00    6.20
   4  -4   1   24.60    5.70
   4  -4   1   10.80    7.10
   4  -4   1    8.40    5.90
   4  -4   1    8.00    4.80
   4  -4   1    3.90    6.30
  -5   4  -1   31.80    9.20
  -5   4  -1   33.10   12.10
  -5   4  -1   18.90    9.30
  -5   4  -1   24.60    8.80
   5  -4   1   19.40   10.30
   5  -4   1   31.20    7.00
   5  -4   1   17.80    8.10
  -6   4  -1  -10.70   14.20
  -6   4  -1   18.10   18.30
  -6   4  -1    8.90   14.60
   6  -4   1   -2.00   11.80
   6  -4   1  -26.70   10.70
   6   3  -1   19.30   15.20
   6   3  -1    9.80   13.40
   6   3  -1   10.80   14.70
  -6  -3   1   -5.40   13.20
  -6  -3   1  -13.50   13.80
   5   3  -1   32.20    8.70
   5   3  -1   52.59    9.30
   5   3  -1   47.70   10.30
   5   3  -1   54.19   13.50
   5   3  -1   46.60    7.70
  -5  -3   1   33.60   11.40
  -5  -3   1   46.70    9.40
  -5  -3   1   43.00    9.50
   4   3  -1    8.80    7.30
   4   3  -1   12.40    5.70
   4   3  -1    5.00    7.60
   4   3  -1   11.30    5.50
   4   3  -1    4.20    5.80
  -4  -3   1   -2.10    6.40
  -4  -3   1    4.00    6.40
  -4  -3   1    3.40    6.10
  -4  -3   1    8.50    6.20
   3   3  -1  266.57    9.10
   3   3  -1  260.07    9.00
   3   3  -1  246.98    9.20
   3   3  -1  271.17    8.50
   3   3  -1  262.17    8.60
   3   3  -1  251.97    9.70
  -3  -3   1  255.77    8.90
  -3  -3   1  257.27    8.90
  -3  -3   1  248.08   10.40
  -3  -3   1  263.07    8.70
   2   3  -1  357.66    8.80
   2   3  -1  353.16    9.00
   2   3  -1  360.16    8.90
   2   3  -1  361.16    8.90
   2   3  -1  366.86    8.80
  -2  -3   1  369.16    8.70
  -2  -3   1  370.96    8.80
  -2  -3   1  364.96    8.60
  -2  -3   1  361.26    8.70
  -2  -3   1  364.16    9.10
   1   3  -1  383.26    8.00
   1   3  -1  377.96    8.40
   1   3  -1  379.06    8.00
   1   3  -1  389.06    7.90
   1   3  -1  387.36    8.00
  -1  -3   1  383.76    8.00
  -1  -3   1  381.16    8.10
  -1  -3   1  376.46    8.50
  -1  -3   1  388.66    7.90
  -1  -3   1  378.66    7.60
   0   3  -1  503.85    9.00
   0   3  -1  520.15    9.00
   0   3  -1  499.15    9.10
   0   3  -1  502.95    9.20
   0   3  -1  455.45    9.30
   0   3  -1  493.85    9.70
   0  -3   1  500.95    9.10
   0  -3   1  499.55    9.80
   0  -3   1  476.95    9.00
   0  -3   1  505.25    8.90
  -1   3  -1 7739.63  128.79
  -1   3  -1 7593.44  128.59
   1  -3   1 7215.38  128.89
   1  -3   1 7443.16  128.69
   1  -3   1 7518.05  128.29
   1  -3   1 7759.62  129.29
   1  -3   1 7808.72  128.69
   1  -3   1 7752.02  128.59
  -2   3  -1  899.01   17.30
  -2   3  -1  897.31   17.60
  -2   3  -1  919.91   18.20
  -2   3  -1  916.31   17.60
  -2   3  -1  937.21   17.20
   2  -3   1  936.71   17.10
   2  -3   1  899.91   17.50
   2  -3   1  921.31   17.00
   2  -3   1  939.51   18.10
   2  -3   1  950.30   17.70
  -3   3  -1  499.35   11.90
  -3   3  -1  492.65   12.00
  -3   3  -1  486.55   11.60
  -3   3  -1  510.45   11.60
  -3   3  -1  502.95   12.80
   3  -3   1  487.55   12.00
   3  -3   1  501.05   11.30
   3  -3   1  504.15   12.20
   3  -3   1  504.05   12.20
   3  -3   1  495.65   12.80
  -4   3  -1  200.88   11.10
  -4   3  -1  190.68    9.90
  -4   3  -1  212.28   11.70
  -4   3  -1  198.68    9.90
  -4   3  -1  191.98   10.40
   4  -3   1  188.48   10.10
   4  -3   1  204.38    9.30
   4  -3   1  189.08   10.90
   4  -3   1  195.68    8.70
   4  -3   1  194.48   11.60
  -5   3  -1   98.79    9.40
  -5   3  -1   70.09    9.70
  -5   3  -1  101.49   11.50
  -5   3  -1   94.49   10.30
   5  -3   1  105.59    8.60
   5  -3   1   86.69    8.80
   5  -3   1  122.69   10.80
  -6   3  -1   11.40   13.50
  -6   3  -1  -25.10   17.20
  -6   3  -1  -15.70   13.40
   6  -3   1    0.00   11.50
   6  -3   1   -2.10   10.60
   6   2  -1   -0.40   14.40
   6   2  -1   -6.50   11.80
  -6  -2   1  -16.60   13.40
  -6  -2   1    0.20   13.70
   5   2  -1   57.99    8.90
   5   2  -1   48.00    8.10
   5   2  -1   49.60    7.00
   5   2  -1   59.69   12.90
   5   2  -1   62.89    9.90
  -5  -2   1   58.99    9.60
  -5  -2   1   56.59    9.20
  -5  -2   1   34.40   10.90
   4   2  -1  195.18   10.20
   4   2  -1  175.98   11.50
   4   2  -1  193.18    8.40
   4   2  -1  186.88   11.60
   4   2  -1  182.18   11.40
   4   2  -1  202.08    9.50
  -4  -2   1  196.08   10.90
  -4  -2   1  185.58    9.40
  -4  -2   1  175.48    9.90
   3   2  -1  111.79    6.40
   3   2  -1  114.99    5.70
   3   2  -1  115.09    7.20
   3   2  -1  106.89    7.40
   3   2  -1  122.49    7.10
   3   2  -1  114.69    6.70
  -3  -2   1  119.29    6.60
  -3  -2   1  108.29    6.60
  -3  -2   1  116.99    6.60
  -3  -2   1  108.49    6.70
   2   2  -1  960.10   18.70
   2   2  -1  977.50   18.70
   2   2  -1  980.30   18.40
   2   2  -1  976.50   18.70
   2   2  -1 1008.30   18.70
  -2  -2   1  978.20   18.60
  -2  -2   1  976.20   18.60
  -2  -2   1  982.70   18.50
  -2  -2   1  970.70   18.60
  -2  -2   1  946.81   18.40
   1   2  -1  252.97    5.50
   1   2  -1  241.88    5.70
   1   2  -1  247.58    5.50
   1   2  -1  242.38    5.60
   1   2  -1  240.68    5.60
  -1  -2   1  245.18    5.80
  -1  -2   1  238.18    5.60
  -1  -2   1  239.18    5.40
  -1  -2   1  246.88    5.50
   0   2  -1   59.19    1.90
   0   2  -1   68.89    2.20
   0   2  -1   67.29    1.90
   0   2  -1   64.89    1.80
   0   2  -1   60.49    2.00
   0  -2   1   62.39    2.00
   0  -2   1   62.69    2.40
   0  -2   1   65.89    1.80
   0  -2   1   64.79    2.10
  -2   2  -1 4842.62   83.49
  -2   2  -1 4861.61   84.09
  -2   2  -1 4715.53   83.59
  -2   2  -1 4921.81   83.39
  -2   2  -1 4822.02   83.69
   2  -2   1 4970.50   83.49
   2  -2   1 4876.11   83.39
   2  -2   1 4871.71   83.89
   2  -2   1 4940.41   83.39
   2  -2   1 4891.61   83.59
  -3   2  -1   45.10    5.20
  -3   2  -1   29.20    4.10
  -3   2  -1   32.70    4.00
  -3   2  -1   41.40    4.20
  -3   2  -1   37.50    4.40
   3  -2   1   29.00    4.00
   3  -2   1   29.40    4.70
   3  -2   1   36.30    3.90
   3  -2   1   37.60    4.80
   3  -2   1   37.30    4.10
  -4   2  -1   62.89    7.50
  -4   2  -1   62.59    6.90
  -4   2  -1   63.99    6.80
  -4   2  -1   68.19    6.40
   4  -2   1   47.50    7.50
   4  -2   1   67.29    5.90
   4  -2   1   65.99    6.00
   4  -2   1   72.49    6.70
   4  -2   1   65.69    6.30
   4  -2   1   57.19    7.60
  -5   2  -1   95.39    9.80
  -5   2  -1   90.69   10.20
  -5   2  -1   97.79    9.60
  -5   2  -1  108.99   11.20
   5  -2   1   99.19    9.30
   5  -2   1  101.49    9.70
   5  -2   1  105.99   10.60
   5  -2   1   92.19   10.50
  -6   2  -1  -18.20   13.50
  -6   2  -1    9.90   13.20
   6  -2   1   -6.30   10.60
   6  -2   1   10.60   11.30
   6   1  -1   17.00   14.70
   6   1  -1   36.90   12.90
   6   1  -1    9.30   11.60
  -6  -1   1   22.40   14.60
  -6  -1   1   15.30   13.50
   5   1  -1    7.90    5.70
   5   1  -1   21.80    7.60
   5   1  -1   -2.30    8.70
   5   1  -1   -6.10    8.10
   5   1  -1   -0.30   11.50
  -5  -1   1   -4.40    8.40
  -5  -1   1   11.30    9.80
   4   1  -1  195.68    9.10
   4   1  -1  193.38   11.10
   4   1  -1  203.68   10.20
   4   1  -1  182.98   11.70
   4   1  -1  201.58    9.40
   4   1  -1  202.88    7.60
   4   1  -1  203.88   10.80
  -4  -1   1  213.58   10.10
  -4  -1   1  210.38    9.80
   3   1  -1  442.36    9.90
   3   1  -1  437.26   11.40
   3   1  -1  448.66   11.10
   3   1  -1  394.06   13.00
   3   1  -1  442.26   10.80
   3   1  -1  435.36   11.30
  -3  -1   1  447.86   11.10
  -3  -1   1  459.15   11.20
  -3  -1   1  438.06   11.10
  -3  -1   1  439.76   11.20
   2   1  -1   87.79    4.30
   2   1  -1   79.69    4.80
   2   1  -1   91.39    4.50
   2   1  -1   85.69    4.20
   2   1  -1   94.69    4.40
   2   1  -1   91.19    3.70
  -2  -1   1   81.89    4.00
  -2  -1   1   92.29    4.50
  -2  -1   1   89.59    4.30
  -2  -1   1   85.29    4.40
  -2  -1   1   87.99    4.20
   1   1  -1  351.76    7.00
   1   1  -1  343.37    7.10
   1   1  -1  352.66    7.00
   1   1  -1  343.87    7.00
  -1  -1   1  347.97    7.00
  -1  -1   1  349.96    7.00
  -1  -1   1  352.06    7.00
  -1  -1   1  347.07    7.00
  -1  -1   1  345.47    7.10
   0   1  -1    5.80    0.90
   0   1  -1    5.70    0.70
   0   1  -1    6.50    0.70
   0   1  -1    4.80    0.80
   0   1  -1    6.80    0.80
   0   1  -1    5.00    0.70
   0   1  -1    7.40    0.90
   0  -1   1    8.10    0.80
   0  -1   1    6.30    0.80
   0  -1   1    6.50    0.80
   0  -1   1    5.70    0.60
   0  -1   1    6.90    0.80
  -1   1  -1 2092.49   36.00
  -1   1  -1 2040.80   35.60
  -1   1  -1 2122.19   35.60
  -1   1  -1 2059.29   35.80
  -1   1  -1 1953.00   36.00
   1  -1   1 2096.89   35.20
   1  -1   1 2072.09   35.90
   1  -1   1 2078.39   35.60
   1  -1   1 2074.59   35.70
   1  -1   1 2108.49   35.70
  -2   1  -1   88.09    4.40
  -2   1  -1   89.49    4.10
  -2   1  -1   77.99    3.90
  -2   1  -1   85.99    4.50
  -2   1  -1   81.09    5.10
   2  -1   1   80.09    4.40
   2  -1   1   79.49    4.90
   2  -1   1   94.99    4.30
   2  -1   1   85.69    4.00
   2  -1   1   84.59    4.50
  -3   1  -1   83.59    6.30
  -3   1  -1   86.49    5.80
  -3   1  -1   97.19    6.80
  -3   1  -1   78.09    5.90
  -3   1  -1   73.99    5.70
   3  -1   1   73.29    5.80
   3  -1   1   78.79    5.70
   3  -1   1   98.49    6.60
   3  -1   1   64.59    6.10
   3  -1   1   82.79    5.80
  -4   1  -1   80.29    6.90
  -4   1  -1   79.09    8.60
  -4   1  -1   70.99    6.70
  -4   1  -1   86.09    6.80
  -4   1  -1   80.69    8.10
   4  -1   1   84.69    6.90
   4  -1   1   76.99    8.00
   4  -1   1   75.99    7.70
   4  -1   1   75.29    7.70
   4  -1   1   93.39    8.80
  -5   1  -1   52.19    8.70
  -5   1  -1   28.80    8.50
  -5   1  -1   26.50    9.60
   5  -1   1   50.09    9.50
   5  -1   1   37.90    7.70
  -6   1  -1   24.60   13.90
  -6   1  -1   12.00   13.20
   6  -1   1   -0.20   11.50
   6  -1   1   19.90   12.30
   6   0  -1   10.50   12.50
   6   0  -1    2.70   11.40
  -6   0   1   26.80   13.90
  -6   0   1   13.30   13.40
   5   0  -1   60.59   10.20
   5   0  -1   54.89    8.60
   5   0  -1   50.49    8.60
  -5   0   1   56.69    9.20
  -5   0   1   68.59    8.80
  -5   0   1   42.30    9.80
   4   0  -1   90.19    5.90
   4   0  -1   85.99    7.40
   4   0  -1   93.79    7.90
   4   0  -1   96.19    8.30
   4   0  -1   94.99    7.90
   4   0  -1   85.49    7.90
   4   0  -1   91.19    7.10
  -4   0   1   87.99    8.90
  -4   0   1   86.39    8.00
  -4   0   1   84.29    7.20
  -4   0   1   87.89    8.70
   3   0  -1  391.66    9.90
   3   0  -1  382.36    8.50
   3   0  -1  399.06   10.20
   3   0  -1  360.06   12.00
   3   0  -1  399.06   10.30
   3   0  -1  369.76   11.90
   3   0  -1  385.16   10.00
  -3   0   1  409.76   10.40
  -3   0   1  390.36   10.20
  -3   0   1  387.16   10.20
  -3   0   1  385.06   10.20
   2   0  -1   12.10    2.30
   2   0  -1   13.10    2.40
   2   0  -1   12.60    2.60
   2   0  -1    8.90    1.80
   2   0  -1   15.20    2.70
   2   0  -1   11.60    2.80
  -2   0   1   10.10    2.50
  -2   0   1   12.10    2.70
  -2   0   1   11.40    2.50
  -2   0   1   12.10    2.60
   1   0  -1   92.49    3.00
   1   0  -1   84.99    3.00
   1   0  -1   97.09    2.40
   1   0  -1   97.99    2.90
   1   0  -1   95.29    2.90
   1   0  -1   89.89    2.80
   1   0  -1   86.79    3.00
  -1   0   1   93.29    2.80
  -1   0   1   95.79    3.00
  -1   0   1   87.89    2.80
  -1   0   1   94.49    2.40
  -1   0   1   85.39    3.00
  -1   0  -1   11.60    1.40
  -1   0  -1    9.90    1.50
  -1   0  -1   10.80    1.40
  -1   0  -1   12.00    1.60
  -1   0  -1   11.20    2.00
   1   0   1   12.40    1.80
   1   0   1   10.40    1.60
   1   0   1    7.80    1.50
   1   0   1   11.10    1.40
   1   0   1   12.20    1.60
  -2   0  -1 3408.96   59.19
  -2   0  -1 3336.47   58.89
  -2   0  -1 3423.36   58.69
  -2   0  -1 3413.96   58.99
  -2   0  -1 3349.17   58.69
   2   0   1 3412.36   58.89
   2   0   1 3383.66   59.09
   2   0   1 3439.06   58.79
   2   0   1 3378.66   58.89
   2   0   1 3373.26   58.79
  -3   0  -1  115.89    6.10
  -3   0  -1  124.29    7.20
  -3   0  -1  109.79    6.40
  -3   0  -1  124.19    5.90
  -3   0  -1  109.09    6.10
   3   0   1  111.09    6.60
   3   0   1  109.79    6.80
   3   0   1  130.49    6.50
   3   0   1  124.19    5.00
   3   0   1  114.59    6.70
   3   0   1  112.19    6.00
  -4   0  -1  117.99    8.50
  -4   0  -1  127.39    9.30
  -4   0  -1  111.19    7.70
  -4   0  -1  122.79    8.90
  -4   0  -1  121.59    8.70
   4   0   1  124.49    9.40
   4   0   1  137.29    9.40
   4   0   1  112.99    8.50
   4   0   1  132.69    9.40
   4   0   1  124.19    9.00
   4   0   1  133.39    6.10
  -5   0  -1   18.40    9.30
  -5   0  -1    9.40    8.10
   5   0   1   37.40    7.90
   5   0   1   21.90   11.30
   5   0   1   16.70    7.30
   5   0   1   19.20    8.70
   5   0   1   16.50    5.60
  -6   0  -1    4.90   13.70
  -6   0  -1   -3.80   13.20
   6   0   1    0.20   12.90
   6   0   1   -4.60   10.80
   6   0   1   -3.00   11.80
   6  -1  -1   16.80   12.00
   6  -1  -1    2.30   12.30
  -6   1   1   14.50   12.50
  -6   1   1   33.00   14.10
   5  -1  -1   47.80    9.10
   5  -1  -1   39.60    8.00
  -5   1   1   45.40    9.50
  -5   1   1   54.99    9.00
   4  -1  -1   48.30    6.50
   4  -1  -1   48.40    6.00
   4  -1  -1   43.60    7.40
   4  -1  -1   50.59    5.80
   4  -1  -1   47.60    6.80
   4  -1  -1   43.20    6.70
  -4   1   1   43.40    6.30
  -4   1   1   51.79    6.50
  -4   1   1   44.00    6.40
  -4   1   1   52.59    6.10
   3  -1  -1 1407.16   25.90
   3  -1  -1 1363.86   25.90
   3  -1  -1 1358.86   26.20
   3  -1  -1 1353.26   26.30
   3  -1  -1 1366.96   25.50
   3  -1  -1 1354.46   25.90
  -3   1   1 1383.36   26.40
  -3   1   1 1291.87   25.80
  -3   1   1 1349.77   25.90
  -3   1   1 1359.16   26.00
  -3   1   1 1380.26   26.10
   2  -1  -1  603.14   12.40
   2  -1  -1  616.04   12.40
   2  -1  -1  613.34   12.30
   2  -1  -1  600.44   12.40
   2  -1  -1  595.84   12.00
   2  -1  -1  621.24   12.50
  -2   1   1  617.54   12.30
  -2   1   1  620.04   12.30
  -2   1   1  625.64   12.60
  -2   1   1  598.64   12.30
  -2   1   1  616.74   12.40
   1  -1  -1 2911.01   50.09
   1  -1  -1 2954.00   50.19
   1  -1  -1 2961.80   50.19
   1  -1  -1 2909.91   50.29
   1  -1  -1 2943.61   49.99
  -1   1   1 2927.31   50.29
  -1   1   1 2976.90   50.19
  -1   1   1 2916.11   50.19
  -1   1   1 2940.51   50.09
  -1   1   1 2929.31   50.09
   0  -1  -1   12.60    0.90
   0  -1  -1   11.90    1.10
   0  -1  -1   12.30    0.50
   0   1   1   12.60    0.90
   0   1   1   12.90    0.90
   0   1   1   11.90    0.70
   0   1   1   13.50    0.50
  -2  -1  -1   17.70    2.40
  -2  -1  -1   16.80    3.30
  -2  -1  -1   21.10    2.50
  -2  -1  -1   15.80    2.70
  -2  -1  -1   23.50    2.90
   2   1   1   17.20    2.50
   2   1   1   14.80    2.80
   2   1   1   15.50    2.80
   2   1   1   11.30    3.00
   2   1   1   19.90    2.60
  -3  -1  -1 1681.83   31.40
  -3  -1  -1 1661.13   31.20
  -3  -1  -1 1669.93   31.30
  -3  -1  -1 1674.33   31.20
   3   1   1 1723.63   31.90
   3   1   1 1673.43   31.30
   3   1   1 1655.33   31.40
   3   1   1 1661.13   31.10
   3   1   1 1641.34   30.30
   3   1   1 1703.83   31.60
  -4  -1  -1    6.80    5.60
  -4  -1  -1    8.40    5.60
  -4  -1  -1    3.10    4.80
   4   1   1   12.40    6.00
   4   1   1   12.70    4.40
   4   1   1    7.20    5.70
   4   1   1   12.30    5.30
   4   1   1   17.90    6.50
   4   1   1   10.90    6.30
  -5  -1  -1   10.70    8.10
  -5  -1  -1   30.30    8.50
  -5  -1  -1   17.10    9.10
   5   1   1    6.60   10.60
   5   1   1   12.70    7.60
   5   1   1   13.40    6.00
   5   1   1   25.40    8.60
  -6  -1  -1   35.30   13.20
  -6  -1  -1   17.10   13.30
   6   1   1   22.50   13.20
   6   1   1   40.90   14.70
   6   1   1   34.50   12.80
   6  -2  -1   27.60   12.80
   6  -2  -1   20.50   11.10
  -6   2   1   33.60   13.90
  -6   2   1   30.40   15.20
   5  -2  -1  125.39   10.10
   5  -2  -1  105.39   11.10
   5  -2  -1  129.99   11.10
   5  -2  -1  118.49   11.70
  -5   2   1  120.89   10.50
  -5   2   1  121.39   10.60
  -5   2   1  112.99   10.80
   4  -2  -1   67.39    7.70
   4  -2  -1   79.39    6.90
   4  -2  -1   66.59    5.90
   4  -2  -1   73.19    6.20
   4  -2  -1   65.29    6.30
   4  -2  -1   63.29    6.80
  -4   2   1   70.59    6.50
  -4   2   1   74.09    7.50
  -4   2   1   60.29    6.90
  -4   2   1   76.49    6.70
  -4   2   1   60.79    6.70
   3  -2  -1  128.19    5.80
   3  -2  -1  150.48    7.10
   3  -2  -1  129.79    6.60
   3  -2  -1  143.49    6.60
   3  -2  -1  139.29    6.70
   3  -2  -1  129.59    7.10
  -3   2   1  132.09    6.50
  -3   2   1  132.99    6.50
  -3   2   1  137.99    6.80
  -3   2   1  143.89    7.20
  -3   2   1  129.59    6.80
   2  -2  -1 1842.12   32.00
   2  -2  -1 1828.42   32.20
   2  -2  -1 1771.12   32.10
   2  -2  -1 1778.32   31.80
   2  -2  -1 1798.72   31.50
   2  -2  -1 1791.72   32.10
  -2   2   1 1829.12   32.20
  -2   2   1 1803.32   32.20
  -2   2   1 1798.52   31.90
  -2   2   1 1752.02   31.90
  -2   2   1 1776.32   32.00
   1   2   1 6752.42  114.29
   1   2   1 6726.73  114.19
  -2  -2  -1  107.39    5.00
  -2  -2  -1  116.09    4.80
  -2  -2  -1  115.19    4.40
  -2  -2  -1  114.29    4.60
   2   2   1  113.99    5.00
   2   2   1  116.99    4.70
   2   2   1  112.29    5.00
   2   2   1  113.39    4.60
   2   2   1  118.09    5.30
   2   2   1  114.49    5.00
  -3  -2  -1  348.87    9.50
  -3  -2  -1  349.17    9.50
  -3  -2  -1  343.07    9.60
  -3  -2  -1  360.26    9.70
   3   2   1  343.77   10.00
   3   2   1  343.57   10.70
   3   2   1  340.47   10.10
   3   2   1  323.67    9.20
   3   2   1  333.07    9.60
   3   2   1  351.16    9.60
  -4  -2  -1  121.49    9.50
  -4  -2  -1  116.89    8.80
  -4  -2  -1  116.79    9.10
  -4  -2  -1  114.89    8.60
   4   2   1  124.69   10.90
   4   2   1  118.29    9.90
   4   2   1  103.09    8.70
   4   2   1  121.49    7.30
   4   2   1  120.29    8.90
   4   2   1  118.09    9.40
  -5  -2  -1   29.60    8.40
  -5  -2  -1   29.70    9.70
  -5  -2  -1   44.10    9.40
   5   2   1   43.70    7.00
   5   2   1   28.90   11.30
   5   2   1   35.70    8.30
   5   2   1   22.90    8.50
  -6  -2  -1   20.40   12.70
  -6  -2  -1    2.90   14.10
   6   2   1    0.60   12.80
   6   2   1   18.00    9.80
   6   2   1   -1.20   12.40
   6  -3  -1    3.80   11.00
   6  -3  -1   -7.00   11.60
  -6   3   1   -9.50   13.60
  -6   3   1   11.80   14.90
   5  -3  -1   17.40    7.80
   5  -3  -1    8.50    8.60
   5  -3  -1    3.90    6.70
  -5   3   1    8.40    8.30
  -5   3   1   11.50    8.80
  -5   3   1   -2.50    9.00
  -5   3   1    9.60    9.90
   4  -3  -1  122.39    8.50
   4  -3  -1  120.89    8.70
   4  -3  -1  126.79    9.10
   4  -3  -1   83.09    8.10
   4  -3  -1  120.29    7.60
  -4   3   1  124.59   10.10
  -4   3   1  159.48    8.70
  -4   3   1  127.99    9.40
  -4   3   1  118.29    9.40
  -4   3   1  127.19    9.80
   3  -3  -1  176.28    6.10
   3  -3  -1  202.78    7.20
   3  -3  -1  169.38    6.60
   3  -3  -1  175.98    7.60
   3  -3  -1  169.48    7.10
  -3   3   1  172.78    7.60
  -3   3   1  183.48    8.40
  -3   3   1  177.98    6.90
  -3   3   1  188.48    7.10
  -3   3   1  176.78    7.60
   2  -3  -1 1555.74   27.50
   2  -3  -1 1507.45   28.20
   2  -3  -1 1527.45   27.80
   2  -3  -1 1527.05   26.80
   2  -3  -1 1537.45   27.90
  -2   3   1 1536.25   27.60
  -2   3   1 1523.05   27.50
  -2   3   1 1523.45   27.60
  -2   3   1 1561.54   28.00
  -2   3   1 1542.65   27.50
   1  -3  -1  515.65    9.80
   1  -3  -1  581.64   10.50
   1  -3  -1  499.35    9.70
   1  -3  -1  556.74   10.30
  -1   3   1  574.54   10.60
  -1   3   1  496.15    9.60
  -1   3   1  506.05    9.70
  -1   3   1  492.15    9.60
  -1   3   1  571.44   10.50
  -1   3   1  500.85    9.90
   0   3   1  124.59    3.10
   0   3   1  128.39    3.20
   0   3   1  129.79    3.70
  -1  -3  -1 2068.29   35.80
  -1  -3  -1 2097.49   35.60
  -1  -3  -1 2094.99   35.60
   1   3   1 2063.99   35.90
   1   3   1 2043.30   36.40
   1   3   1 2025.70   35.80
   1   3   1 2046.50   35.90
   1   3   1 2078.39   35.90
  -2  -3  -1  845.02   16.10
  -2  -3  -1  827.92   16.30
  -2  -3  -1  840.12   16.40
  -2  -3  -1  868.91   16.70
  -2  -3  -1  849.91   16.90
   2   3   1  842.02   16.70
   2   3   1  869.21   16.90
   2   3   1  851.01   16.90
   2   3   1  876.41   16.80
   2   3   1  866.91   16.70
  -3  -3  -1   61.39    5.90
  -3  -3  -1   73.49    5.70
  -3  -3  -1   63.69    5.90
  -3  -3  -1   74.39    6.00
   3   3   1   73.99    5.40
   3   3   1   66.69    5.70
   3   3   1   70.69    5.70
   3   3   1   76.99    6.10
   3   3   1   68.69    6.50
   3   3   1   68.79    5.30
  -4  -3  -1  205.28   10.30
  -4  -3  -1  214.48   10.10
  -4  -3  -1  205.48   10.20
  -4  -3  -1  202.08   10.80
   4   3   1  219.88   10.00
   4   3   1  195.58    9.20
   4   3   1  196.88   11.70
   4   3   1  198.28   11.70
   4   3   1  200.48    9.60
  -5  -3  -1   48.30    9.00
  -5  -3  -1   46.10    9.20
   5   3   1   59.99    9.70
   5   3   1   39.80   10.90
   5   3   1   46.10    7.70
   5   3   1   55.99    8.90
  -6  -3  -1   -4.40   13.90
  -6  -3  -1   -1.70   12.70
   6   3   1    2.80   13.50
   6   3   1   22.90   14.40
   6   3   1   -6.10   12.80
  -6   4   1   -3.20   13.40
  -6   4   1   -7.60   15.80
   5  -4  -1    6.10    6.50
   5  -4  -1   30.70   11.00
   5  -4  -1   19.10    7.90
  -5   4   1   11.20   10.80
  -5   4   1   17.90    9.60
  -5   4   1   23.70    9.10
  -5   4   1   25.20    9.80
   4  -4  -1  152.78    9.70
   4  -4  -1  162.78    7.70
  -4   4   1  174.58   10.70
  -4   4   1  146.49   10.40
  -4   4   1  159.88   10.30
  -4   4   1  158.88   11.70
   3  -4  -1   62.69    5.20
   3  -4  -1   59.59    4.40
   3  -4  -1   70.99    5.90
   3  -4  -1   63.09    6.20
   3  -4  -1   68.39    6.60
  -3   4   1   66.89    6.00
  -3   4   1   64.69    6.70
  -3   4   1   62.59    4.90
  -3   4   1   62.39    5.80
  -3   4   1   67.69    5.60
   2  -4  -1  328.57    7.90
   2  -4  -1  335.87    8.40
   2  -4  -1  345.77    8.70
   2  -4  -1  351.66    8.80
  -2   4   1  340.17    8.20
  -2   4   1  358.36    9.00
  -2   4   1  343.87    7.80
  -2   4   1  343.57    8.10
  -2   4   1  326.37    7.90
   1  -4  -1  449.16    9.20
   1  -4  -1  464.75    9.60
  -1   4   1  429.56    9.10
  -1   4   1  437.06    8.40
  -1   4   1  463.75    9.60
  -1   4   1  451.85    9.40
   0   4   1   79.39    3.50
   0   4   1   81.59    2.90
  -1  -4  -1   72.99    3.00
  -1  -4  -1   65.69    3.50
  -1  -4  -1   72.09    2.80
   1   4   1   67.99    3.50
   1   4   1   72.29    4.40
   1   4   1   74.09    3.30
   1   4   1   70.79    3.50
   1   4   1   76.49    3.30
  -2  -4  -1  981.40   18.20
  -2  -4  -1  944.81   18.40
  -2  -4  -1  938.01   17.50
  -2  -4  -1  968.80   18.30
  -2  -4  -1  976.90   18.50
   2   4   1  934.51   18.50
   2   4   1  955.10   19.10
   2   4   1  957.00   18.70
   2   4   1  954.90   18.60
   2   4   1  958.20   18.50
  -3  -4  -1  536.05   12.50
  -3  -4  -1  482.15   11.60
  -3  -4  -1  519.45   12.60
  -3  -4  -1  522.35   12.50
  -3  -4  -1  501.55   12.70
   3   4   1  504.65   13.10
   3   4   1  520.15   12.80
   3   4   1  516.25   13.50
   3   4   1  530.35   12.70
   3   4   1  493.95   12.40
   3   4   1  495.45   13.00
  -4  -4  -1  103.49    9.80
  -4  -4  -1  105.69    9.30
  -4  -4  -1   96.59    9.10
  -4  -4  -1   93.39    9.20
   4   4   1  109.39   11.00
   4   4   1  101.39    9.20
   4   4   1  121.19    9.50
   4   4   1  112.49    8.80
   4   4   1  107.59   10.90
  -5  -4  -1   89.99   12.00
  -5  -4  -1   91.09   10.00
  -5  -4  -1  100.29   10.30
   5   4   1   87.59   10.10
   5   4   1  100.29    9.20
   5   4   1  101.29   13.40
   5   4   1   91.49   12.70
  -6  -4  -1  -16.90   15.00
  -6  -4  -1    6.70   13.60
   6   4   1    7.60   14.30
   6   4   1    2.80   14.70
   6   4   1   -0.50   11.50
   5  -5  -1    8.20    8.00
  -5   5   1   25.00   10.80
  -5   5   1   23.40    9.10
  -5   5   1   18.80   11.20
   4  -5  -1   -0.80    6.60
   4  -5  -1    1.40    3.90
   4  -5  -1   14.70    5.80
  -4   5   1   -0.60    6.30
  -4   5   1   -2.00    6.10
  -4   5   1    8.90    7.60
  -4   5   1   -3.70    7.00
  -4   5   1   -4.30    6.00
   3  -5  -1   47.90    4.80
   3  -5  -1   47.70    4.80
   3  -5  -1   45.70    5.10
  -3   5   1   56.69    4.40
  -3   5   1   54.29    5.50
  -3   5   1   55.69    4.90
  -3   5   1   51.29    6.10
  -3   5   1   47.60    4.90
   2  -5  -1  489.45   10.30
   2  -5  -1  512.05   10.60
   2  -5  -1  515.05   11.60
   2  -5  -1  520.05   11.40
  -2   5   1  505.85   10.70
  -2   5   1  526.25   12.00
  -2   5   1  510.85   10.80
  -2   5   1  516.15   11.90
  -2   5   1  512.55   10.30
  -2   5   1  501.85   10.60
   1  -5  -1   25.70    2.50
  -1   5   1   22.80    2.70
  -1   5   1   25.40    2.40
  -1   5   1   24.10    3.10
   0   5   1  395.76    8.00
   0   5   1  420.26    8.30
   0   5   1  413.36    9.10
  -1  -5  -1  117.39    4.30
  -1  -5  -1  120.19    4.00
   1   5   1  115.89    4.30
   1   5   1  122.69    4.40
   1   5   1  119.29    4.30
   1   5   1  115.39    4.20
   1   5   1  121.19    5.50
  -2  -5  -1   91.59    5.00
  -2  -5  -1   81.19    4.30
  -2  -5  -1   82.99    4.50
  -2  -5  -1   77.89    5.10
   2   5   1   79.79    5.50
   2   5   1   83.79    5.10
   2   5   1   75.59    5.80
   2   5   1   79.39    5.60
   2   5   1   85.89    5.00
  -3  -5  -1  235.68    8.70
  -3  -5  -1  242.68    8.30
  -3  -5  -1  244.78    7.50
  -3  -5  -1  239.28    9.10
  -3  -5  -1  254.27    8.70
   3   5   1  249.48   10.10
   3   5   1  252.87    9.00
   3   5   1  248.98    9.40
   3   5   1  245.98    9.60
   3   5   1  251.27   10.20
   3   5   1  250.57    9.30
  -4  -5  -1   36.00    6.90
  -4  -5  -1   23.80    7.70
  -4  -5  -1   34.20    6.70
  -4  -5  -1   20.60    6.60
   4   5   1   23.50    6.60
   4   5   1   33.20    7.30
   4   5   1   39.20    9.50
  -5  -5  -1    2.30    8.70
  -5  -5  -1    9.60   10.40
   5   5   1   -4.50    9.30
   5   5   1    9.00    9.30
   5   5   1   -0.50   12.30
   5   5   1   -4.90   10.10
  -6  -5  -1   18.00   14.90
  -6  -5  -1   14.00   14.20
   6   5   1   13.00   13.00
   6   5   1   17.40   16.90
   6   5   1   18.20   16.60
   5  -6  -1   -0.10    9.00
  -5   6   1   10.00    9.80
  -5   6   1   17.30   12.90
  -5   6   1    0.90   10.80
   4  -6  -1    3.80    6.90
   4  -6  -1   13.20    6.30
  -4   6   1   17.20    6.50
  -4   6   1   22.30    7.30
  -4   6   1    8.70    8.10
  -4   6   1   18.00    6.00
  -4   6   1    9.90    7.60
   3  -6  -1   60.29    5.30
   3  -6  -1   36.30    5.20
   3  -6  -1   50.69    4.70
  -3   6   1   39.60    4.70
  -3   6   1   36.90    6.60
  -3   6   1   44.50    4.60
  -3   6   1   41.30    5.30
  -3   6   1   41.60    5.00
   2  -6  -1   40.50    3.20
   2  -6  -1   40.10    3.90
   2  -6  -1   39.00    2.90
  -2   6   1   41.80    3.70
  -2   6   1   40.20    3.30
  -2   6   1   38.80    5.00
  -2   6   1   43.50    3.60
  -2   6   1   38.10    3.20
  -2   6   1   46.70    5.00
   1  -6  -1   82.99    4.10
  -1   6   1   81.99    5.40
  -1   6   1   82.99    4.60
  -1   6   1   80.69    4.00
   0   6   1  336.97    7.50
   0   6   1  329.47    8.90
   0   6   1  334.47    7.10
  -1  -6  -1   68.99    3.40
   1   6   1   73.59    5.30
   1   6   1   81.49    3.80
   1   6   1   74.49    4.10
   1   6   1   74.29    4.40
   1   6   1   72.49    4.10
  -2  -6  -1    4.80    2.70
  -2  -6  -1    5.00    3.40
  -2  -6  -1    6.30    2.60
   2   6   1   12.40    3.80
   2   6   1    2.90    3.50
   2   6   1   10.40    4.10
   2   6   1    7.80    3.60
  -3  -6  -1   74.39    7.30
  -3  -6  -1   70.29    6.40
  -3  -6  -1   71.69    6.10
   3   6   1   90.69    6.70
   3   6   1   85.29    6.60
   3   6   1   60.39    6.10
   3   6   1   83.19    7.10
   3   6   1   76.49    7.30
  -4  -6  -1  239.58   10.80
  -4  -6  -1  222.18   14.00
  -4  -6  -1  234.68   11.60
   4   6   1  195.48   14.00
   4   6   1  224.38   13.30
   4   6   1  228.48   12.00
   4   6   1  229.68   14.20
   4   6   1  226.78   11.90
  -5  -6  -1   -3.40    9.90
  -5  -6  -1    6.70    9.20
   5   6   1   12.70   15.40
   5   6   1  -14.40    9.80
   5   6   1   -2.20   10.90
   5   6   1    0.20    9.90
  -6  -6  -1   -4.00   15.90
   6   6   1   -9.60   14.70
   6   6   1   20.00   18.30
   5  -7  -1   -3.20   10.30
  -5   7   1  -11.50   11.50
  -5   7   1   -5.00   14.50
  -5   7   1   10.20   10.60
   4  -7  -1   18.40   11.00
   4  -7  -1   11.50    7.50
  -4   7   1   14.30    9.30
  -4   7   1    5.20    8.00
  -4   7   1   18.80    6.60
  -4   7   1   15.50    7.80
   3  -7  -1   21.30    5.20
   3  -7  -1   17.20    5.30
  -3   7   1   19.70    5.00
  -3   7   1   14.00    4.40
  -3   7   1   17.60    7.00
  -3   7   1   14.30    5.60
  -3   7   1   17.10    4.60
  -2   7   1   11.90    5.00
  -2   7   1    7.20    3.10
  -2   7   1    8.00    3.40
  -2   7   1   10.30    2.50
  -2   7   1    0.60    5.10
  -2   7   1   11.90    3.10
   1  -7  -1   22.80    3.10
  -1   7   1   23.60    3.70
  -1   7   1   23.10    4.30
  -1   7   1   28.40    3.60
   0   7   1   54.39    3.50
   0   7   1   47.20    4.40
   0   7   1   53.79    5.40
   0   7   1   50.29    4.00
  -1  -7  -1  906.31   17.20
  -1  -7  -1  929.11   16.80
   1   7   1  916.01   17.60
   1   7   1  923.81   17.50
   1   7   1  922.31   17.20
   1   7   1  918.61   19.30
   1   7   1  893.01   17.30
  -2  -7  -1   79.09    6.00
  -2  -7  -1   62.29    4.30
  -2  -7  -1   73.69    4.70
   2   7   1   76.89    5.70
   2   7   1   70.29    6.30
   2   7   1   74.49    7.00
   2   7   1   84.19    6.50
   2   7   1   68.49    7.00
  -3  -7  -1  114.09    6.80
  -3  -7  -1  104.89    7.00
  -3  -7  -1   85.99    8.70
   3   7   1  108.39    8.00
   3   7   1   87.89    8.70
   3   7   1  107.69    8.40
   3   7   1   98.69    8.60
   3   7   1  104.29    8.00
  -4  -7  -1   64.89    9.00
  -4  -7  -1   92.09    9.50
   4   7   1   94.49    9.40
   4   7   1   70.59   10.90
   4   7   1   87.29    9.50
   4   7   1   89.49    8.90
  -5  -7  -1    0.20   10.40
   5   7   1    6.90   11.50
   5   7   1    2.20   11.90
   5   7   1    1.70   11.20
   5  -8  -1   40.80   13.00
  -5   8   1   51.09   11.20
  -5   8   1   30.90   17.90
  -5   8   1   58.99   14.20
   4  -8  -1   -4.20    7.40
  -4   8   1    7.50    8.70
  -4   8   1    9.70    7.10
  -4   8   1   -9.90   10.80
  -4   8   1    2.60    8.80
  -4   8   1    9.60    7.10
   3  -8  -1    1.30    5.60
  -3   8   1   -5.10    5.30
  -3   8   1   -1.80    7.70
  -3   8   1    1.10    6.00
  -3   8   1   -7.70    3.90
  -3   8   1    7.70    4.90
   2  -8  -1  500.55   12.60
  -2   8   1  516.75   14.20
  -2   8   1  509.45   11.30
  -2   8   1  513.15   14.20
  -2   8   1  519.15   11.70
   1  -8  -1   59.39    5.10
  -1   8   1   58.49    5.80
  -1   8   1   67.79    5.80
  -1   8   1   52.09    5.10
   0   8   1  156.28    8.00
   0   8   1  157.88    5.10
   0   8   1  146.49    7.30
   0   8   1  153.48    6.10
  -1  -8  -1   12.60    3.00
  -1  -8  -1    6.00    2.40
   1   8   1    7.60    3.20
   1   8   1    6.90    3.50
   1   8   1    8.90    3.00
   1   8   1    5.60    4.50
   1   8   1   10.40    3.40
   1   8   1   10.20    4.00
  -2  -8  -1   13.90    4.20
  -2  -8  -1   17.60    4.60
   2   8   1   12.40    4.50
   2   8   1   13.50    5.00
   2   8   1   12.10    5.00
   2   8   1   14.80    5.00
   2   8   1   14.30    5.30
  -3  -8  -1   13.90    4.60
  -3  -8  -1   27.30    6.70
   3   8   1   28.80    8.20
   3   8   1   21.90    7.30
   3   8   1   19.80    6.80
   3   8   1   18.00    6.80
   3   8   1   21.50    7.30
  -4  -8  -1   47.80    7.40
  -4  -8  -1   49.99    9.50
   4   8   1   68.49   10.20
   4   8   1   51.49    9.10
   4   8   1   43.40   11.50
   4   8   1   56.39   10.00
  -5  -8  -1   -5.70   10.90
   5   8   1  -14.00   12.50
   5   8   1   -0.40   12.90
   5   8   1   24.50   13.00
   4  -9  -1   -2.30    8.80
  -4   9   1    3.60    8.00
  -4   9   1    4.20    7.00
  -4   9   1   -1.40   10.70
  -4   9   1    9.00   10.00
  -4   9   1    1.60   12.60
   3  -9  -1   29.00    6.80
  -3   9   1   45.60    9.90
  -3   9   1   27.10    4.30
  -3   9   1   38.00    5.40
  -3   9   1   28.80    6.20
  -3   9   1   24.60    7.00
   2  -9  -1  143.79    8.20
  -2   9   1  152.78   11.30
  -2   9   1  130.09    6.90
  -2   9   1  160.38   10.70
  -1   9   1   33.70    5.50
  -1   9   1   40.20    6.40
  -1   9   1   32.40    5.10
   0   9   1    4.20    2.80
   0   9   1    2.00    4.90
   0   9   1    4.20    5.70
  -1  -9  -1  159.08    5.20
  -1  -9  -1  160.78    6.30
   1   9   1  162.08    7.30
   1   9   1  156.98    7.50
   1   9   1  167.28    7.30
   1   9   1  158.48    6.40
   1   9   1  164.48    7.90
   1   9   1  162.88    9.50
  -2  -9  -1   19.80    5.40
  -2  -9  -1   24.30    4.70
   2   9   1   31.80    5.80
   2   9   1   25.60    5.90
   2   9   1   17.70    5.90
   2   9   1   37.20    8.10
   2   9   1   29.70    8.50
  -3  -9  -1   13.90    6.60
  -3  -9  -1    6.80    4.40
   3   9   1    4.90    7.60
   3   9   1    9.60    9.50
   3   9   1    4.00    8.10
   3   9   1   15.90    7.40
   3   9   1    7.80    7.00
  -4  -9  -1    8.00    6.80
  -4  -9  -1    3.70   12.50
   4   9   1   37.30   10.50
   4   9   1   22.90   11.20
   4   9   1   12.10   10.50
  -5  -9  -1   17.30   11.20
   5   9   1   30.50   16.10
   5   9   1   -3.80   14.30
   5   9   1   -8.50   14.80
   4 -10  -1   16.00   10.80
  -4  10   1   -6.60   12.90
  -4  10   1    9.30    8.30
  -4  10   1  -15.70   15.00
   3 -10  -1    1.00    7.50
  -3  10   1    9.30   10.70
  -3  10   1   10.80    7.00
  -3  10   1   -7.50    7.90
   2 -10  -1   22.20    5.40
  -2  10   1   15.20    4.50
  -2  10   1   16.30    8.70
  -2  10   1    9.40    5.80
  -2  10   1    7.50    9.00
  -1  10   1  428.16   14.80
  -1  10   1  424.36   11.60
  -1  10   1  418.76   12.80
  -1  10   1  442.06   13.00
   0  10   1    4.00    6.80
   0  10   1   -0.40    6.10
   0  10   1   -0.10    4.10
   0  10   1    3.50    3.50
   0  10   1    5.90    5.20
   1  10   1    5.90    5.00
   1  10   1    2.80    4.60
   1  10   1   -7.80    6.10
   1  10   1    2.10    5.00
   1  10   1    0.90    4.30
   1  10   1   -7.30    5.00
  -2 -10  -1   64.99    5.60
   2  10   1   78.79    8.00
   2  10   1   76.19    7.50
   2  10   1   72.59    6.80
   2  10   1   81.79    8.80
   2  10   1   85.39    7.50
  -3 -10  -1    4.30    8.10
   3  10   1    4.50    9.50
   3  10   1   -8.20    8.80
   3  10   1   -7.90    8.80
   3  10   1    5.70    7.80
  -4 -10  -1    6.50    7.40
   4  10   1    4.90   12.50
   4  10   1   16.10   12.30
   4  10   1   -7.50   11.20
   4 -11  -1  -20.30   12.00
  -4  11   1  -10.90   17.90
   3 -11  -1   -6.50    8.40
  -3  11   1   20.20    9.40
  -3  11   1    7.00   13.20
  -2  11   1   17.00    6.80
  -2  11   1   11.80   10.70
  -1  11   1   19.80    9.70
  -1  11   1   11.50    6.70
  -1  11   1   11.40    5.80
  -1  11   1   17.20    8.00
   0  11   1    0.40    7.00
   0  11   1    6.00    4.80
   0  11   1   -2.50    8.10
   0  11   1    9.70    4.90
   0  11   1    9.70    6.30
   1  11   1   32.50    6.40
   1  11   1   24.90    5.00
   1  11   1   16.70    5.70
   1  11   1    6.70    8.10
   1  11   1   30.00    6.10
   1  11   1   16.80    5.60
   2  11   1   23.70    8.90
   2  11   1   17.10    6.80
   2  11   1   12.40    6.20
   2  11   1   36.20    7.60
   2  11   1   31.50    8.80
   2  11   1   30.70    9.30
   3  11   1    6.70    9.00
   3  11   1   21.80   10.30
   3  11   1    0.80   10.00
   4  11   1   10.40   14.40
   4  11   1   17.10   14.50
   4  11   1   21.80   13.90
   3 -12  -1   -6.50    9.40
  -3  12   1   10.40   15.60
  -2  12   1   -4.00    9.20
  -2  12   1    7.80    8.40
  -2  12   1   -9.80   11.70
  -1  12   1   -3.90    8.20
  -1  12   1  -17.60   10.10
  -1  12   1    1.80    6.30
  -1  12   1   -5.70    9.10
   0  12   1   23.70   11.10
   0  12   1   28.70    9.50
   0  12   1   20.70    8.00
   0  12   1   15.80    7.30
   1  12   1   10.70    9.70
   1  12   1    0.00    5.80
   1  12   1  -12.40    7.20
   1  12   1   -3.50    6.70
   1  12   1   -1.20    6.80
   1  12   1   19.50    8.20
   1  12   1    7.60   10.40
   2  12   1    0.50   11.90
   2  12   1   31.40   11.10
   2  12   1    7.40    7.80
   2  12   1    4.10   10.20
   2  12   1   14.50    9.30
   2  12   1   22.10   12.60
   3  12   1   -1.40   10.60
   3  12   1    7.60   13.30
   3  12   1   14.50   12.00
  -2  13   1   -1.50   10.10
  -2  13   1  -11.80   15.20
  -1  13   1   -7.20    8.60
  -1  13   1   -4.90    9.90
  -1  13   1   -6.90   12.90
   0  13   1    9.80   12.30
   0  13   1   10.30    7.80
   0  13   1    3.70   10.30
   1  13   1    3.90   13.50
   1  13   1    7.60   10.80
   1  13   1    6.50    8.80
   2  13   1    4.90    9.60
   2  13   1    7.60   10.80
   2  13   1   -1.30   13.90
   3  13   1  -10.40   14.90
  -1  14   1   -2.90   16.70
  -1  14   1   -2.80   12.60
   0  14   1  -21.80   13.00
   0  14   1   -8.60   16.60
   1  14   1   34.30   16.40
   1  14   1   14.10   17.40
   0  14  -2   -6.60    9.90
   0  14  -2    8.20   14.50
   2  13  -2    7.30   15.20
   2  13  -2   -5.50   17.80
   2  13  -2  -15.40   12.60
   2  13  -2  -17.00   13.80
   1  13  -2   18.30   15.70
   1  13  -2   30.60   11.20
   1  13  -2    0.20   10.50
   1  13  -2   -5.60   12.60
   0  13  -2    8.20   11.00
   0  13  -2    6.90    8.70
   0  13  -2    9.50   15.30
   0  13  -2   20.10   10.30
  -1  13  -2   -0.90   15.40
  -1  13  -2   -8.60   10.70
  -1  13  -2    5.10   10.20
  -2  13  -2   44.10   17.90
  -2  13  -2   -2.30   11.10
   3  12  -2   21.10   14.20
   3  12  -2   11.50   20.60
   3  12  -2   15.30   15.70
   2  12  -2    3.40   10.60
   2  12  -2   -7.10    9.60
   2  12  -2    5.90   12.30
   1  12  -2   50.99   12.10
   1  12  -2   53.99    9.00
   1  12  -2   63.19   10.10
   1  12  -2   72.59    8.70
   1  12  -2   49.30   11.20
   1  12  -2   66.79   11.30
   0  12  -2   21.30    7.50
   0  12  -2   19.80    8.10
   0  12  -2   32.60    7.70
   0  12  -2   19.80    7.90
   0  12  -2   10.10    9.00
   0  12  -2   12.10   10.80
  -1  12  -2   -0.90    6.60
  -1  12  -2   -1.40    7.30
  -1  12  -2  -18.20    8.30
  -1  12  -2   -8.30    8.60
  -1  12  -2    1.90   12.30
  -2  12  -2   15.10   14.00
  -2  12  -2   33.50   10.70
  -2  12  -2   11.20    9.20
  -3  12  -2   27.80   18.40
   3 -12   2    3.80   10.10
   3  11  -2   14.90   11.70
   3  11  -2   13.60   11.30
   3  11  -2   -9.40   10.10
   2  11  -2   -4.20    8.50
   2  11  -2    2.60    9.30
   2  11  -2   26.10   10.20
   2  11  -2   13.50    8.90
   1  11  -2   24.50    6.70
   1  11  -2   13.60    7.10
   1  11  -2   22.80    8.10
   1  11  -2   12.30    9.40
   1  11  -2   16.50    7.70
   0  11  -2   15.50    6.70
   0  11  -2   26.80    6.60
   0  11  -2   39.20    7.90
   0  11  -2   28.70    6.30
   0  11  -2   30.30    9.30
   0  11  -2   25.90    6.40
  -1  11  -2   14.50    7.30
  -1  11  -2    1.70    5.60
  -1  11  -2    1.20    7.10
  -1  11  -2   -7.50    5.40
  -1  11  -2    1.10    6.60
  -1  11  -2   -1.60    9.90
  -1  11  -2    4.70    5.10
  -2  11  -2    9.20   11.30
  -2  11  -2   14.20    6.30
  -2  11  -2    0.00   11.40
  -2  11  -2   17.70    8.30
  -2  11  -2   13.80    5.50
  -2  11  -2   26.80    7.30
  -2  11  -2   18.80    6.60
  -3  11  -2   36.20   11.00
  -3  11  -2   20.80    7.40
  -3  11  -2    0.90   13.50
  -3  11  -2   31.20    8.90
   3 -11   2   14.00    8.40
  -4  11  -2  -23.00   18.90
  -4  11  -2   21.00   15.50
   4 -11   2   -1.40   11.70
   4  10  -2    3.60   13.50
   4  10  -2   22.30   12.70
   4  10  -2   24.70   13.30
  -4 -10   2    7.70    8.70
   3  10  -2   35.80    9.50
   3  10  -2   24.40   10.20
   3  10  -2   37.00   10.10
  -3 -10   2   35.90    6.00
   2  10  -2   26.30    9.00
   2  10  -2    5.90    8.10
   2  10  -2   12.90    8.80
   2  10  -2    8.10    7.00
   2  10  -2    7.50    7.00
  -2 -10   2   20.20    6.10
   1  10  -2   16.30    6.20
   1  10  -2   13.00    5.70
   1  10  -2   14.70    7.00
   1  10  -2   26.10    7.70
   1  10  -2    9.30    6.10
   1  10  -2    4.90    6.40
  -1 -10   2    8.70    4.40
   0  10  -2   32.00    7.70
   0  10  -2    6.30    5.00
   0  10  -2   13.60    6.50
   0  10  -2   14.60    5.30
   0  10  -2    4.70    5.20
   0 -10   2    5.00    7.70
   0 -10   2    5.60    5.90
  -1  10  -2   30.30    7.90
  -1  10  -2   39.60    6.50
  -1  10  -2   27.00    4.70
  -1  10  -2   29.20    5.50
  -1  10  -2   32.00    4.50
  -1  10  -2   29.90    5.90
   1 -10   2   43.70    8.70
  -2  10  -2   52.39    6.20
  -2  10  -2   68.29    7.40
  -2  10  -2   46.40    9.00
  -2  10  -2   49.30    6.50
  -2  10  -2   54.29    4.90
  -2  10  -2   71.29   10.10
  -2  10  -2   56.49    5.70
   2 -10   2   52.89    5.90
  -3  10  -2    3.20    8.50
  -3  10  -2    2.60    7.50
  -3  10  -2    8.30    5.60
  -3  10  -2    5.60    7.40
  -3  10  -2   29.60   11.70
  -4  10  -2   29.50   13.00
  -4  10  -2   71.69   11.00
  -4  10  -2   70.69   16.70
   4 -10   2   46.20    9.70
   4   9  -2   -9.40   11.10
   4   9  -2   -1.10   11.10
   4   9  -2  -16.90   11.80
  -4  -9   2    5.50    8.40
   3   9  -2    2.10   10.00
   3   9  -2   30.90    8.60
   3   9  -2   12.40    8.20
   3   9  -2   32.60    8.30
  -3  -9   2    9.90    5.40
  -3  -9   2   23.90    7.90
   2   9  -2  173.98   11.30
   2   9  -2  160.58    9.60
   2   9  -2  158.18    9.40
   2   9  -2  157.68   11.40
   2   9  -2  154.48   10.50
  -2  -9   2  160.78    6.50
   1   9  -2   31.30    4.90
   1   9  -2   19.90    5.10
   1   9  -2   24.70    5.10
   1   9  -2   25.70    5.00
   1   9  -2   30.30    6.60
  -1  -9   2   26.80    7.30
  -1  -9   2   21.40    5.40
  -1  -9   2   18.40    3.90
   0   9  -2   39.20    4.90
   0   9  -2   41.50    7.00
   0   9  -2   44.60    4.90
   0   9  -2   38.90    5.80
   0   9  -2   48.60    6.10
   0   9  -2   34.60    4.50
   0  -9   2   43.40    7.10
   0  -9   2   36.70    3.50
   0  -9   2   44.60    4.60
  -1   9  -2  198.48    7.70
  -1   9  -2  194.28    6.50
  -1   9  -2  194.98    8.00
  -1   9  -2  188.98    8.50
  -1   9  -2  172.78   11.30
  -1   9  -2  188.48    9.30
   1  -9   2  187.38    6.10
   1  -9   2  186.78    6.60
  -2   9  -2   22.80    5.90
  -2   9  -2   21.30    7.80
  -2   9  -2   19.80    5.10
  -2   9  -2   19.90    8.90
  -2   9  -2   12.20    4.40
  -2   9  -2   15.20    3.80
   2  -9   2   13.40    4.70
   2  -9   2   20.80    5.20
  -3   9  -2   19.90   10.10
  -3   9  -2   16.20    7.50
  -3   9  -2    6.60    6.50
  -3   9  -2    9.80    4.90
  -3   9  -2   -4.70    6.40
   3  -9   2    1.20    6.30
  -4   9  -2    8.60    9.00
  -4   9  -2    7.70   11.60
  -4   9  -2    9.40   14.60
   4  -9   2    9.60    8.80
   5   8  -2   20.80   14.40
   5   8  -2   -8.10   15.20
   5   8  -2   -2.20   14.90
   5   8  -2   -6.90   11.90
  -5  -8   2    7.20   12.60
   4   8  -2   -3.60   13.20
   4   8  -2   22.40   10.50
   4   8  -2    9.70   10.30
   4   8  -2    3.30    9.80
  -4  -8   2    9.60    9.80
  -4  -8   2    2.40    7.60
   3   8  -2   33.10    9.20
   3   8  -2   27.30    7.60
   3   8  -2   26.10    9.40
   3   8  -2   14.50    8.80
   3   8  -2   36.80    8.10
  -3  -8   2   18.30    5.40
  -3  -8   2   19.20    6.20
   2   8  -2    5.20    5.30
   2   8  -2   12.80    5.50
   2   8  -2    1.40    5.70
   2   8  -2    5.20    5.60
   2   8  -2    1.20    5.10
  -2  -8   2   -5.30    4.30
  -2  -8   2   -4.80    4.00
  -2  -8   2   -0.50    3.50
   1   8  -2  182.78    7.80
   1   8  -2  189.28    7.50
   1   8  -2  199.88    7.90
   1   8  -2  191.18    7.40
   1   8  -2  185.78    8.60
  -1  -8   2  185.28    7.70
  -1  -8   2  175.38    6.30
  -1  -8   2  176.18    9.90
   0   8  -2  335.57    8.60
   0   8  -2  330.47    9.20
   0   8  -2  329.37    8.60
   0   8  -2  339.27   11.10
   0   8  -2  358.86   10.20
   0   8  -2  344.87    8.90
   0  -8   2  341.57    8.80
   0  -8   2  333.07    7.80
   0  -8   2  346.87   10.90
  -1   8  -2   13.40    4.00
  -1   8  -2   21.80    4.90
  -1   8  -2    8.40    3.80
  -1   8  -2    8.80    3.00
  -1   8  -2   16.70    3.20
  -1   8  -2   13.60    4.30
  -1   8  -2   14.60    5.70
   1  -8   2   13.80    3.10
   1  -8   2    9.10    3.10
   1  -8   2   14.10    3.50
  -2   8  -2   77.89    6.10
  -2   8  -2   75.89    5.40
  -2   8  -2   90.59    8.00
  -2   8  -2   74.19    6.80
  -2   8  -2   77.39    6.80
  -2   8  -2   72.09    6.20
   2  -8   2   79.09    6.10
   2  -8   2   76.99    6.20
   2  -8   2   75.89    7.10
   2  -8   2   72.19    6.10
  -3   8  -2   54.99    7.40
  -3   8  -2   50.79    6.60
  -3   8  -2   44.90    5.80
   3  -8   2   54.89    6.20
   3  -8   2   34.90    5.90
  -4   8  -2   77.39   12.90
  -4   8  -2   66.39   10.00
  -4   8  -2   91.49    8.90
  -4   8  -2   71.69    7.70
   4  -8   2   68.79    8.60
   4  -8   2   84.19   15.20
  -5   8  -2   31.20   14.20
  -5   8  -2   -2.00   17.10
  -5   8  -2   30.10   12.90
   5  -8   2    4.00   11.00
   5   7  -2    3.00   12.70
   5   7  -2   21.90   11.30
   5   7  -2    2.80   13.00
   5   7  -2   24.40   15.20
  -5  -7   2    1.10   12.80
  -5  -7   2   -1.00   12.20
   4   7  -2   26.70    9.30
   4   7  -2   -0.10    8.90
   4   7  -2   13.70    8.90
   4   7  -2   21.10   10.80
  -4  -7   2   21.80    7.60
  -4  -7   2   13.70    8.40
   3   7  -2   52.69    8.20
   3   7  -2   39.00    6.80
   3   7  -2   34.90    8.20
   3   7  -2   38.40    7.00
   3   7  -2   49.80    7.10
  -3  -7   2   47.10    5.30
  -3  -7   2   42.50    6.50
  -3  -7   2   34.60    8.10
  -3  -7   2   35.30    6.20
   2   7  -2   49.70    5.30
   2   7  -2   38.60    5.40
   2   7  -2   40.90    5.70
   2   7  -2   45.40    5.70
   2   7  -2   43.60    5.10
  -2  -7   2   33.70    6.50
  -2  -7   2   46.00    5.50
  -2  -7   2   44.60    4.70
  -2  -7   2   40.90    4.00
   1   7  -2  143.79    6.30
   1   7  -2  142.69    7.20
   1   7  -2  146.69    6.10
   1   7  -2  139.19    6.30
  -1  -7   2  144.19    8.00
  -1  -7   2  137.19    6.20
  -1  -7   2  150.08    4.70
  -1  -7   2  151.08    5.60
   0   7  -2  767.02   15.10
   0   7  -2  810.22   15.50
   0   7  -2  822.52   15.60
   0   7  -2  799.12   15.30
   0   7  -2  805.92   16.80
   0   7  -2  791.52   15.90
   0   7  -2  810.12   17.30
   0  -7   2  820.62   17.40
   0  -7   2  809.12   15.50
   0  -7   2  794.02   14.90
  -1   7  -2  132.79    4.60
  -1   7  -2  135.49    7.10
  -1   7  -2  127.49    5.70
  -1   7  -2  145.89    6.20
  -1   7  -2  142.39    8.10
  -1   7  -2  138.49    5.70
  -1   7  -2  138.29    4.80
   1  -7   2  141.39    4.80
   1  -7   2  134.89    5.30
   1  -7   2  137.69    4.80
   1  -7   2  136.39    6.30
  -2   7  -2  242.98    6.80
  -2   7  -2  253.07    8.10
  -2   7  -2  254.87   10.30
  -2   7  -2  257.87    8.70
  -2   7  -2  253.47    7.50
  -2   7  -2  243.88    7.50
   2  -7   2  264.97    8.00
   2  -7   2  262.27    7.60
   2  -7   2  257.47    8.20
   2  -7   2  242.08    7.90
   2  -7   2  262.07   10.80
  -3   7  -2 1478.85   27.70
  -3   7  -2 1466.95   28.50
  -3   7  -2 1522.75   30.60
  -3   7  -2 1456.45   30.80
  -3   7  -2 1480.55   29.30
   3  -7   2 1462.55   31.40
   3  -7   2 1484.15   28.80
   3  -7   2 1550.44   28.50
  -4   7  -2  262.07   13.70
  -4   7  -2  263.47   11.60
  -4   7  -2  276.57   13.10
  -4   7  -2  284.27   16.70
  -4   7  -2  291.47   14.90
   4  -7   2  237.78   12.30
   4  -7   2  257.67   12.00
  -5   7  -2    3.10   15.40
  -5   7  -2    5.90   11.40
  -5   7  -2   15.70   12.80
   5  -7   2    1.40    9.50
   5   6  -2   19.70   12.30
   5   6  -2   25.00   10.80
   5   6  -2    7.90   11.30
   5   6  -2   22.20   10.00
   5   6  -2   15.60   17.70
  -5  -6   2   22.70   10.30
  -5  -6   2   18.80   12.20
  -5  -6   2    9.40    8.30
   4   6  -2   15.70    7.90
   4   6  -2   19.40   10.20
   4   6  -2    5.40    7.60
   4   6  -2    2.30   10.10
  -4  -6   2    7.60    7.60
  -4  -6   2   26.80    6.80
  -4  -6   2   21.10    5.10
  -4  -6   2   15.90   10.90
   3   6  -2  461.75   13.10
   3   6  -2  440.56   14.30
   3   6  -2  445.06   14.20
   3   6  -2  451.55   12.90
   3   6  -2  460.45   13.30
  -3  -6   2  479.85   12.90
  -3  -6   2  469.85   12.90
  -3  -6   2  442.66   13.80
  -3  -6   2  451.95   12.00
   2   6  -2   93.09    6.70
   2   6  -2  105.99    6.90
   2   6  -2   97.39    7.20
   2   6  -2  103.49    6.00
   2   6  -2   97.69    6.70
  -2  -6   2  102.79    5.20
  -2  -6   2   95.99    7.70
  -2  -6   2  105.19    7.30
   1   6  -2  664.63   13.30
   1   6  -2  665.83   13.40
   1   6  -2  650.83   13.30
   1   6  -2  651.83   14.40
   1   6  -2  632.44   13.30
  -1  -6   2  643.74   13.00
  -1  -6   2  655.03   12.40
  -1  -6   2  652.93   14.70
  -1  -6   2  647.84   13.50
  -1  -6   2  639.14   13.00
   0   6  -2 1099.19   20.10
   0   6  -2 1124.39   21.30
   0   6  -2 1118.89   21.80
   0   6  -2 1105.59   20.50
   0   6  -2 1131.19   20.30
   0   6  -2 1065.19   19.90
   0   6  -2 1086.99   20.00
   0  -6   2 1065.59   20.10
   0  -6   2 1117.09   19.80
   0  -6   2 1124.39   21.60
  -1   6  -2   14.20    4.10
  -1   6  -2   11.70    3.30
  -1   6  -2   11.50    3.10
  -1   6  -2   13.00    2.80
  -1   6  -2   12.00    2.80
  -1   6  -2   15.10    2.30
  -1   6  -2   17.20    2.40
   1  -6   2   12.60    2.40
   1  -6   2   16.00    2.50
   1  -6   2   11.90    2.30
   1  -6   2   11.00    3.10
  -2   6  -2  129.49    5.70
  -2   6  -2  139.49    6.20
  -2   6  -2  123.29    4.90
  -2   6  -2  126.29    6.50
  -2   6  -2  120.79    4.80
  -2   6  -2  125.39    8.30
   2  -6   2  133.49    7.90
   2  -6   2  113.49    5.50
   2  -6   2  133.29    5.80
   2  -6   2  131.69    5.90
   2  -6   2  127.39    9.00
  -3   6  -2   18.70    5.10
  -3   6  -2   20.50    4.60
  -3   6  -2   36.20    6.50
  -3   6  -2   26.50    5.80
  -3   6  -2   19.50    4.20
   3  -6   2   29.50    5.30
   3  -6   2   11.30    5.10
   3  -6   2   22.50    5.90
   3  -6   2   22.00    6.90
  -4   6  -2    0.60    7.40
  -4   6  -2   -2.80    7.00
  -4   6  -2  -11.80    6.50
  -4   6  -2   13.00    9.40
  -4   6  -2   -0.60    6.00
   4  -6   2   10.10    6.00
  -5   6  -2   26.80   11.70
  -5   6  -2   -3.60   10.80
  -5   6  -2   28.70   13.50
   5  -6   2   15.40    9.70
   5   5  -2   28.40    9.30
   5   5  -2   36.40   11.70
   5   5  -2   27.70   10.80
   5   5  -2   49.80   16.30
   5   5  -2   27.50   10.20
  -5  -5   2   34.90   10.90
  -5  -5   2   47.50   10.20
  -5  -5   2   19.90    8.50
   4   5  -2   28.90    7.10
   4   5  -2   22.70    7.10
   4   5  -2   15.30    6.70
   4   5  -2   15.90    9.20
  -4  -5   2   15.80    9.00
  -4  -5   2   29.80    5.30
  -4  -5   2   31.20    8.00
  -4  -5   2   23.90    7.40
   3   5  -2   15.90    5.60
   3   5  -2   18.70    6.00
   3   5  -2   16.20    5.90
   3   5  -2   18.90    5.40
   3   5  -2   13.50    5.10
  -3  -5   2   21.50    5.80
  -3  -5   2   20.90    3.30
  -3  -5   2   21.00    6.50
  -3  -5   2   16.30    4.60
  -3  -5   2   13.80    5.30
  -3  -5   2   13.50    5.00
   2   5  -2   18.40    4.10
   2   5  -2   19.50    4.20
   2   5  -2   22.40    4.00
   2   5  -2   20.20    3.70
   2   5  -2   23.70    4.20
  -2  -5   2   27.30    3.90
  -2  -5   2   16.10    3.90
  -2  -5   2   21.20    3.20
  -2  -5   2   20.20    4.40
  -2  -5   2   17.60    4.00
   1   5  -2  608.74   12.40
   1   5  -2  615.84   12.50
   1   5  -2  618.44   12.40
   1   5  -2  603.84   13.20
   1   5  -2  607.54   12.50
  -1  -5   2  595.64   12.20
  -1  -5   2  621.04   13.60
  -1  -5   2  612.24   11.70
  -1  -5   2  612.34   12.00
  -1  -5   2  612.54   12.70
   0   5  -2 1737.63   30.50
   0   5  -2 1728.23   31.60
   0   5  -2 1766.22   30.80
   0   5  -2 1695.03   30.30
   0   5  -2 1753.42   30.40
   0   5  -2 1748.53   31.40
   0   5  -2 1773.52   30.40
   0  -5   2 1756.02   31.60
   0  -5   2 1699.93   30.20
   0  -5   2 1735.83   30.50
   0  -5   2 1721.63   30.00
   0  -5   2 1702.23   30.10
  -1   5  -2  225.08    5.50
  -1   5  -2  225.68    5.20
  -1   5  -2  224.58    5.90
  -1   5  -2  216.78    6.90
  -1   5  -2  234.18    7.70
  -1   5  -2  233.08    6.10
  -1   5  -2  229.28    6.00
   1  -5   2  217.18    5.50
   1  -5   2  228.88    5.80
   1  -5   2  223.48    6.30
   1  -5   2  226.78    5.60
   1  -5   2  221.98    7.30
  -2   5  -2  482.05   11.10
  -2   5  -2  488.25   12.40
  -2   5  -2  466.15   10.40
  -2   5  -2  478.85    9.70
  -2   5  -2  469.45   10.00
   2  -5   2  480.25   10.90
   2  -5   2  473.65    9.60
   2  -5   2  482.65   10.10
   2  -5   2  477.55   10.70
   2  -5   2  475.15   12.10
   2  -5   2  476.45    9.40
   2  -5   2  474.85   10.50
  -3   5  -2 1940.21   35.30
  -3   5  -2 1948.11   35.80
  -3   5  -2 1953.80   36.40
  -3   5  -2 1938.81   37.50
  -3   5  -2 1966.60   36.30
   3  -5   2 1915.01   37.20
   3  -5   2 1922.21   36.30
   3  -5   2 1999.40   36.30
   3  -5   2 1920.01   34.60
   3  -5   2 1940.91   34.70
  -4   5  -2   94.09    9.90
  -4   5  -2   76.39    7.50
  -4   5  -2  122.69   12.60
  -4   5  -2   89.89    7.50
  -4   5  -2   77.79    7.30
   4  -5   2  101.39    7.80
   4  -5   2   86.49    7.10
   4  -5   2   74.09    8.40
   4  -5   2   87.89   10.00
  -5   5  -2   36.00   12.70
  -5   5  -2   38.70   12.00
  -5   5  -2   38.40   10.40
  -5   5  -2   52.49   10.70
   5  -5   2   39.70    7.50
   5  -5   2   25.20   12.30
   5  -5   2   37.50    9.10
  -6   5  -2  -13.70   19.50
  -6   5  -2   -0.50   16.80
   6   4  -2    7.50   12.50
   6   4  -2   43.00   17.70
   6   4  -2   12.50   14.30
  -6  -4   2    9.40   16.20
  -6  -4   2  -11.10   13.10
   5   4  -2   32.80    9.70
   5   4  -2   45.90   10.40
   5   4  -2   30.30    9.20
   5   4  -2   52.79   15.30
  -5  -4   2   59.79   10.20
  -5  -4   2   45.40   10.00
  -5  -4   2   41.20   13.70
   4   4  -2   29.90    6.60
   4   4  -2   14.40    8.50
   4   4  -2   10.50    8.40
   4   4  -2   13.90    5.80
   4   4  -2   34.40    8.10
  -4  -4   2    7.10    8.00
  -4  -4   2   23.00    8.50
   3   4  -2  105.59    7.10
   3   4  -2  111.49    7.40
   3   4  -2  101.69    8.20
   3   4  -2  126.69    8.50
   3   4  -2  105.09    6.80
  -3  -4   2  109.29    7.50
  -3  -4   2  108.19    6.60
  -3  -4   2  103.49    5.50
  -3  -4   2  121.29    8.10
  -3  -4   2   94.99    7.80
  -3  -4   2  110.89    6.70
   2   4  -2  448.06   10.50
   2   4  -2  434.56   10.60
   2   4  -2  428.86   10.50
   2   4  -2  443.36   10.30
   2   4  -2  425.36   10.30
  -2  -4   2  435.16   10.50
  -2  -4   2  405.96   11.60
  -2  -4   2  424.16    9.90
  -2  -4   2  421.46    9.70
  -2  -4   2  431.36    8.60
   1   4  -2  902.41   16.60
   1   4  -2  891.41   16.70
   1   4  -2  865.81   16.70
   1   4  -2  876.11   17.20
   1   4  -2  895.81   16.70
  -1  -4   2  870.51   16.70
  -1  -4   2  874.01   16.70
  -1  -4   2  897.01   16.40
  -1  -4   2  886.41   17.40
  -1  -4   2  885.71   16.20
   0   4  -2  485.35    9.50
   0   4  -2  465.05    9.20
   0   4  -2  478.55   10.00
   0   4  -2  475.35    9.20
   0   4  -2  461.25    9.30
   0   4  -2  473.95    9.10
   0   4  -2  477.25   10.30
   0  -4   2  478.95    9.00
   0  -4   2  476.65    9.20
   0  -4   2  482.25    9.40
   0  -4   2  466.95   10.00
  -1   4  -2  318.57    7.20
  -1   4  -2  307.67    6.60
  -1   4  -2  313.57    6.90
  -1   4  -2  315.97    7.00
  -1   4  -2  302.87    8.10
  -1   4  -2  313.97    6.40
   1  -4   2  313.27    7.00
   1  -4   2  310.67    6.50
   1  -4   2  309.67    7.20
   1  -4   2  294.17    6.60
   1  -4   2  314.77    6.80
   1  -4   2  308.87    7.90
   1  -4   2  313.47    6.30
  -2   4  -2 2144.39   37.20
  -2   4  -2 2126.69   37.80
  -2   4  -2 2121.39   36.70
  -2   4  -2 2095.19   38.50
  -2   4  -2 2123.19   37.90
  -2   4  -2 2106.59   37.50
   2  -4   2 2174.88   37.00
   2  -4   2 2126.89   37.90
   2  -4   2 2137.79   36.90
   2  -4   2 2108.39   37.70
   2  -4   2 2133.89   37.10
   2  -4   2 2043.90   39.50
  -3   4  -2   12.80    4.10
  -3   4  -2   13.10    4.60
  -3   4  -2   14.90    4.20
  -3   4  -2   13.50    5.30
  -3   4  -2   12.90    3.80
   3  -4   2    7.90    3.70
   3  -4   2    4.00    4.60
   3  -4   2   16.10    4.20
   3  -4   2   10.30    4.70
   3  -4   2   12.20    4.30
   3  -4   2   10.00    3.50
  -4   4  -2   53.39    7.40
  -4   4  -2   51.59    6.40
  -4   4  -2   42.80    6.90
  -4   4  -2   45.70    7.90
  -4   4  -2   45.20    6.60
   4  -4   2   34.50    6.90
   4  -4   2   46.80    6.60
   4  -4   2   54.89    8.70
   4  -4   2   57.19    5.90
  -5   4  -2   13.60    8.90
  -5   4  -2   24.10    9.70
  -5   4  -2   11.30   11.50
  -5   4  -2   20.30    9.40
   5  -4   2   17.70    8.00
   5  -4   2   -0.90    9.00
   5  -4   2   28.70    7.20
  -6   4  -2   -1.20   14.50
  -6   4  -2   -4.40   14.70
  -6   4  -2   -3.20   18.50
   6  -4   2  -23.10   10.50
   6  -4   2   25.70   12.40
   6   3  -2   20.10   13.80
   6   3  -2   14.50   12.60
   6   3  -2   35.50   16.60
  -6  -3   2   -7.30   15.30
  -6  -3   2    7.50   13.70
   5   3  -2  103.19   10.90
   5   3  -2  128.99   12.20
   5   3  -2  118.19   10.80
   5   3  -2  112.29   11.70
   5   3  -2  108.19   14.50
  -5  -3   2   85.99   12.90
  -5  -3   2  100.89   10.60
   4   3  -2   23.90    5.80
   4   3  -2   35.40    7.00
   4   3  -2   32.00    5.60
   4   3  -2   30.80    8.20
   4   3  -2   29.00    8.20
   4   3  -2   27.20    6.30
   4   3  -2    9.70    7.50
  -4  -3   2   37.50    6.30
  -4  -3   2   27.30    7.90
  -4  -3   2   26.30    7.50
  -4  -3   2   17.30    5.50
   3   3  -2  137.09    8.10
   3   3  -2  130.09    6.50
   3   3  -2  138.69    6.80
   3   3  -2  141.79    7.00
   3   3  -2  140.09    7.40
   3   3  -2  131.79    8.40
  -3  -3   2  138.99    7.10
  -3  -3   2  141.49    7.60
  -3  -3   2  130.69    7.50
  -3  -3   2  132.19    7.30
  -3  -3   2  144.59    7.10
   2   3  -2 1878.51   34.50
   2   3  -2 1906.11   34.40
   2   3  -2 1894.21   34.40
   2   3  -2 1923.71   34.40
   2   3  -2 1929.01   34.40
  -2  -3   2 1914.31   34.50
  -2  -3   2 1953.50   34.60
  -2  -3   2 1930.51   34.40
  -2  -3   2 1875.21   34.10
  -2  -3   2 1868.91   33.40
  -2  -3   2 1891.31   34.10
   1   3  -2 1138.09   21.10
   1   3  -2 1132.49   20.70
   1   3  -2 1172.68   20.70
   1   3  -2 1130.19   20.60
   1   3  -2 1149.98   20.80
  -1  -3   2 1119.39   21.10
  -1  -3   2 1148.49   20.50
  -1  -3   2 1138.99   20.50
  -1  -3   2 1137.89   19.80
  -1  -3   2 1132.19   20.80
  -1  -3   2 1146.99   20.80
   0   3  -2   32.60    2.40
  -1   3  -2 1047.10   19.10
  -1   3  -2 1072.49   20.00
  -1   3  -2 1076.49   19.00
  -1   3  -2 1071.59   19.30
  -1   3  -2 1055.99   19.90
  -1   3  -2 1074.39   18.90
  -1   3  -2 1067.19   19.40
   1  -3   2 1066.09   19.10
   1  -3   2 1062.39   19.10
   1  -3   2 1054.99   19.00
   1  -3   2 1071.59   19.30
   1  -3   2 1077.99   18.90
   1  -3   2 1084.69   19.80
  -2   3  -2  367.46    8.30
  -2   3  -2  369.66    8.70
  -2   3  -2  365.66    8.40
  -2   3  -2  384.76    9.10
  -2   3  -2  376.06    9.80
   2  -3   2  367.86    8.90
   2  -3   2  382.56    9.60
   2  -3   2  371.26    8.40
   2  -3   2  373.36    8.40
   2  -3   2  361.96    8.50
   2  -3   2  371.16    7.50
   2  -3   2  377.76    8.80
  -3   3  -2    2.40    4.00
  -3   3  -2    1.00    3.60
  -3   3  -2   10.00    4.90
  -3   3  -2    7.30    4.10
  -3   3  -2    5.90    3.70
   3  -3   2    1.00    3.70
   3  -3   2    3.50    4.40
   3  -3   2    5.60    3.50
   3  -3   2    3.70    3.70
   3  -3   2    7.10    4.10
   3  -3   2   10.10    4.20
  -4   3  -2    9.20    5.40
  -4   3  -2   17.60    6.70
  -4   3  -2   13.00    6.10
  -4   3  -2    6.80    7.10
  -4   3  -2   11.60    5.80
   4  -3   2    0.40    5.60
   4  -3   2    9.20    4.80
   4  -3   2   15.30    5.40
   4  -3   2    2.70    7.20
   4  -3   2   12.20    5.90
   4  -3   2   10.60    7.40
  -5   3  -2    2.70    9.00
  -5   3  -2    0.80    8.70
  -5   3  -2   -5.40    8.50
  -5   3  -2  -12.40   10.30
   5  -3   2    3.80    9.10
   5  -3   2    4.90    7.40
   5  -3   2    7.30    7.50
  -6   3  -2   11.30   15.00
  -6   3  -2  -13.50   16.60
  -6   3  -2  -10.00   13.90
   6  -3   2    4.30   12.10
   6  -3   2   -2.30   11.10
   6   2  -2   15.40   13.60
   6   2  -2   -7.00   14.20
  -6  -2   2   -3.40   13.80
   5   2  -2   42.80    6.90
   5   2  -2   29.40    9.80
   5   2  -2   17.40   12.90
   5   2  -2   54.69    9.50
   5   2  -2   26.40    8.60
  -5  -2   2   33.90   11.60
  -5  -2   2   36.60    9.60
   4   2  -2   69.99    7.00
   4   2  -2   87.59    8.00
   4   2  -2   94.19    7.90
   4   2  -2   87.09    7.00
   4   2  -2   78.29    8.20
   4   2  -2   77.29    8.00
   4   2  -2   82.19    8.50
  -4  -2   2   83.29    7.20
  -4  -2   2   86.99    7.90
  -4  -2   2   79.19    7.60
   3   2  -2  117.69    6.10
   3   2  -2  109.49    7.40
   3   2  -2   97.09    7.10
   3   2  -2  108.39    6.60
   3   2  -2  109.89    6.20
   3   2  -2  111.59    7.30
   3   2  -2  114.79    6.50
  -3  -2   2  115.29    6.40
  -3  -2   2  113.09    7.30
  -3  -2   2  116.09    6.80
  -3  -2   2  114.19    6.20
   2   2  -2  493.85   11.10
   2   2  -2  486.45   10.70
   2   2  -2  491.15   10.90
   2   2  -2  480.45   10.60
   2   2  -2  483.55   10.40
  -2  -2   2  483.85   10.70
  -2  -2   2  476.55   10.60
  -2  -2   2  481.05   10.60
  -2  -2   2  473.85   10.70
   1   2  -2 4133.29   72.49
   1   2  -2 4279.17   72.49
   1   2  -2 4226.08   72.49
   1   2  -2 4375.36   72.49
   1   2  -2 4260.17   72.59
  -1  -2   2 4219.58   72.49
  -1  -2   2 4168.98   72.29
  -1  -2   2 4275.47   72.59
  -1  -2   2 4225.08   72.69
   0   2  -2 2158.88   37.40
   0   2  -2 2148.29   37.10
   0   2  -2 2146.79   37.00
   0   2  -2 2121.09   37.00
   0   2  -2 2176.38   37.00
   0   2  -2 2195.48   37.40
   0   2  -2 2210.98   37.30
   0  -2   2 2195.88   37.00
   0  -2   2 2183.18   37.00
   0  -2   2 2172.88   37.10
   0  -2   2 2091.39   37.10
   0  -2   2 2178.78   37.20
   0  -2   2 2138.79   37.40
  -1   2  -2   28.00    2.30
  -1   2  -2   30.10    2.30
  -1   2  -2   27.20    2.60
  -1   2  -2   26.00    2.80
  -1   2  -2   23.50    2.10
  -1   2  -2   27.00    2.00
  -1   2  -2   31.80    3.20
   1  -2   2   24.90    2.40
   1  -2   2   26.70    1.90
   1  -2   2   29.50    2.00
   1  -2   2   24.80    2.00
   1  -2   2   35.10    2.40
   1  -2   2   30.30    3.10
  -2   2  -2  443.26   10.00
  -2   2  -2  451.15    9.70
  -2   2  -2  456.75   10.10
  -2   2  -2  451.75    9.60
  -2   2  -2  475.35   10.90
   2  -2   2  440.26   10.00
   2  -2   2  450.75   10.30
   2  -2   2  450.35    9.80
   2  -2   2  458.95    8.60
   2  -2   2  436.16    9.80
   2  -2   2  446.06    9.70
  -3   2  -2    3.80    4.50
  -3   2  -2    5.50    3.30
  -3   2  -2    3.20    3.70
  -3   2  -2   -1.00    3.20
  -3   2  -2    5.40    3.60
   3  -2   2    1.80    4.20
   3  -2   2    0.90    4.00
   3  -2   2    6.10    3.60
   3  -2   2   -4.40    3.30
   3  -2   2   10.80    3.80
  -4   2  -2   57.89    7.60
  -4   2  -2   72.29    6.80
  -4   2  -2   62.19    6.40
  -4   2  -2   60.09    6.50
  -4   2  -2   63.99    7.10
   4  -2   2   56.79    7.50
   4  -2   2   71.99    6.30
   4  -2   2   64.29    6.80
   4  -2   2   59.49    7.10
   4  -2   2   62.79    6.60
  -5   2  -2    5.50   10.00
  -5   2  -2  -13.60    8.80
  -5   2  -2   11.60    9.30
  -5   2  -2   -6.60    8.50
   5  -2   2    0.40    8.30
   5  -2   2    6.90    7.80
   5  -2   2   24.20   10.00
   5  -2   2    5.20    7.30
  -6   2  -2  -19.30   12.50
  -6   2  -2    2.40   13.60
   6  -2   2   -5.30   12.30
   6  -2   2   -6.10   11.10
   6   1  -2   11.00   13.20
   6   1  -2   20.90   12.20
  -6  -1   2    3.30   14.50
  -6  -1   2    7.70   13.30
   5   1  -2    3.50    5.70
   5   1  -2   14.70    9.20
   5   1  -2  -12.10    8.10
   5   1  -2  -10.70    7.90
  -5  -1   2    2.40    8.50
  -5  -1   2    5.20    8.50
  -5  -1   2   -4.40   10.30
   4   1  -2  133.69    6.80
   4   1  -2  122.69   10.40
   4   1  -2  133.49    8.60
   4   1  -2  127.19    9.90
   4   1  -2  119.49    8.80
   4   1  -2  122.79   10.40
   4   1  -2  132.39    8.40
  -4  -1   2  122.19    9.60
  -4  -1   2  130.29    8.70
   3   1  -2    0.70    2.80
   3   1  -2    1.70    3.50
   3   1  -2    8.50    4.10
   3   1  -2    5.10    3.50
   3   1  -2    5.20    3.50
   3   1  -2   -3.10    4.70
  -3  -1   2   -0.10    3.70
  -3  -1   2    1.40    3.90
  -3  -1   2    3.30    3.90
  -3  -1   2   -0.10    3.70
   2   1  -2 4921.61   85.59
   2   1  -2 5096.99   85.79
   2   1  -2 5047.40   85.19
   2   1  -2 4940.41   85.69
   2   1  -2 4961.70   85.49
   2   1  -2 4843.22   85.79
   2   1  -2 4943.91   85.79
  -2  -1   2 5039.00   85.29
  -2  -1   2 4875.81   85.69
  -2  -1   2 5043.10   85.69
  -2  -1   2 5102.29   85.89
  -2  -1   2 5025.40   85.69
   1   1  -2   97.99    3.20
   1   1  -2   90.19    3.10
   1   1  -2   97.69    3.10
   1   1  -2   92.59    3.10
   1   1  -2   99.59    3.20
   1   1  -2   95.89    3.40
  -1  -1   2   93.89    3.20
  -1  -1   2   99.69    3.10
  -1  -1   2   91.29    3.30
  -1  -1   2   93.59    3.00
  -1  -1   2   89.59    3.30
  -1  -1   2   90.09    3.00
   0   1  -2   19.70    1.60
   0   1  -2   17.60    1.30
   0   1  -2   18.30    1.50
   0   1  -2   14.80    1.50
   0   1  -2   18.90    1.60
   0  -1   2   18.10    1.40
   0  -1   2   18.40    1.50
   0  -1   2   16.80    1.40
   0  -1   2   15.20    1.30
   0  -1   2   17.00    1.80
  -1   1  -2 2586.04   45.00
  -1   1  -2 2593.44   44.60
  -1   1  -2 2548.65   44.80
  -1   1  -2 2595.84   44.90
  -1   1  -2 2576.14   45.00
  -1   1  -2 2668.93   44.60
   1  -1   2 2563.74   44.70
   1  -1   2 2611.34   44.60
   1  -1   2 2619.14   44.40
   1  -1   2 2660.03   44.90
   1  -1   2 2619.74   45.00
   1  -1   2 2562.84   44.60
  -2   1  -2 4222.58   73.19
  -2   1  -2 4315.57   73.09
  -2   1  -2 4220.28   73.69
  -2   1  -2 4219.88   73.39
  -2   1  -2 4278.67   73.39
   2  -1   2 4352.56   73.69
   2  -1   2 4316.37   73.39
   2  -1   2 4158.38   73.19
   2  -1   2 4182.48   73.19
  -3   1  -2   11.20    3.60
  -3   1  -2    3.30    3.20
  -3   1  -2    6.50    3.90
  -3   1  -2    2.80    3.60
  -3   1  -2    7.30    3.40
   3  -1   2    1.60    3.80
   3  -1   2    4.10    3.40
   3  -1   2    6.70    4.60
   3  -1   2   -2.30    3.50
  -4   1  -2  314.97   11.00
  -4   1  -2  335.37   11.20
  -4   1  -2  330.57   13.20
  -4   1  -2  348.17   11.70
  -4   1  -2  326.67   11.70
   4  -1   2  352.76   11.20
   4  -1   2  342.87   12.30
   4  -1   2  335.87    9.00
   4  -1   2  336.67   12.60
   4  -1   2  326.97   12.00
   4  -1   2  338.97   11.80
  -5   1  -2   20.90    8.50
  -5   1  -2   32.00   10.20
  -5   1  -2   21.00    8.30
  -5   1  -2   42.70    8.50
   5  -1   2   21.90    7.70
   5  -1   2   19.90    8.00
   5  -1   2   11.80   11.10
   5  -1   2   25.30    8.60
  -6   1  -2   23.70   12.90
  -6   1  -2  -15.90   12.50
   6  -1   2    2.80   12.90
   6  -1   2    4.20   14.70
   6  -1   2   -5.40   11.10
   6   0  -2  -10.20   12.90
   6   0  -2  -11.20   12.80
  -6   0   2   -7.70   13.10
  -6   0   2  -29.20   13.90
   5   0  -2   61.19   10.60
   5   0  -2   86.89    9.00
   5   0  -2   68.29    8.50
  -5   0   2   64.19    9.50
  -5   0   2   49.70   10.20
  -5   0   2   55.89    8.90
   4   0  -2   22.40    3.70
   4   0  -2   31.30    7.00
   4   0  -2   23.20    7.70
   4   0  -2   30.50    5.80
   4   0  -2   27.90    6.20
   4   0  -2   29.90    6.50
   4   0  -2   20.30    5.40
  -4   0   2   16.80    5.80
  -4   0   2   24.20    6.30
  -4   0   2   33.20    5.70
  -4   0   2   33.10    6.40
   3   0  -2   53.39    4.00
   3   0  -2   52.99    5.50
   3   0  -2   59.59    5.20
   3   0  -2   56.99    6.10
   3   0  -2   59.29    5.70
   3   0  -2   57.79    4.40
   3   0  -2   62.59    6.10
  -3   0   2   54.89    5.50
  -3   0   2   55.79    5.70
  -3   0   2   59.09    6.00
  -3   0   2   58.19    5.10
   2   0  -2 1193.68   21.80
   2   0  -2 1164.78   21.70
   2   0  -2 1204.58   22.10
   2   0  -2 1146.79   21.90
   2   0  -2 1214.48   21.10
   2   0  -2 1189.68   22.00
   2   0  -2 1181.68   22.10
  -2   0   2 1183.88   21.90
  -2   0   2 1196.68   22.10
  -2   0   2 1199.98   21.20
  -2   0   2 1185.38   22.00
  -2   0   2 1170.78   22.00
   1   0  -2  183.88    4.70
   1   0  -2  201.58    4.40
   1   0  -2  174.18    4.20
   1   0  -2  211.48    4.70
  -1   0   2  183.58    4.60
  -1   0   2  203.38    4.50
  -1   0   2  202.48    4.60
   0   0   2 3805.22   64.49
  -1   0  -2  376.06    7.40
  -1   0  -2  387.86    7.90
  -1   0  -2  373.76    7.70
  -1   0  -2  358.06    7.70
  -1   0  -2  373.56    7.80
  -1   0  -2  383.46    7.50
   1   0   2  381.06    7.70
   1   0   2  380.86    7.50
   1   0   2  381.86    7.40
   1   0   2  386.86    7.90
   1   0   2  386.96    7.90
   1   0   2  375.56    7.70
  -2   0  -2  453.35    9.60
  -2   0  -2  445.66   10.00
  -2   0  -2  453.55    9.60
  -2   0  -2  437.46   10.40
  -2   0  -2  439.46    9.80
   2   0   2  440.96   10.40
   2   0   2  445.46    9.70
   2   0   2  447.76    9.80
   2   0   2  443.96   10.00
   2   0   2  424.26    9.80
  -3   0  -2    3.10    3.00
  -3   0  -2    2.90    3.30
  -3   0  -2   -0.40    2.90
  -3   0  -2    0.80    3.70
  -3   0  -2   -1.30    4.30
   3   0   2    5.50    4.20
   3   0   2    4.70    3.30
   3   0   2    3.70    3.90
   3   0   2    2.70    3.80
   3   0   2    2.50    3.60
  -4   0  -2   81.49    8.40
  -4   0  -2   86.99    7.50
  -4   0  -2   93.79    7.80
  -4   0  -2   84.69    6.80
  -4   0  -2   83.29    8.30
   4   0   2   92.19    6.40
   4   0   2   84.19    7.70
   4   0   2   73.19    6.40
   4   0   2   95.69    9.50
   4   0   2   89.39    7.60
   4   0   2   73.99    7.00
  -5   0  -2   17.80    9.00
  -5   0  -2   26.00    8.50
  -5   0  -2   32.40    8.20
   5   0   2   28.10    8.50
   5   0   2   31.50    6.10
   5   0   2    1.80   10.70
   5   0   2   32.10    8.40
  -6   0  -2    5.00   12.80
  -6   0  -2   26.00   14.30
   6   0   2   20.90   11.30
   6   0   2    1.50   13.90
   6   0   2    6.60   11.70
   6  -1  -2   24.00   12.30
   6  -1  -2   -4.60   12.50
  -6   1   2   11.40   12.80
  -6   1   2   -6.70   14.40
   5  -1  -2  152.78   13.30
   5  -1  -2  146.59   11.30
   5  -1  -2  135.19   12.40
  -5   1   2  145.49   13.10
  -5   1   2  153.98   13.70
   4  -1  -2  113.59    8.20
   4  -1  -2  127.49    8.80
   4  -1  -2  105.39    8.80
   4  -1  -2  121.59    7.90
   4  -1  -2  108.39    9.20
  -4   1   2  107.49    9.30
  -4   1   2  109.09    9.50
  -4   1   2  117.69    9.20
  -4   1   2  121.99    8.80
   3  -1  -2  169.68    6.80
   3  -1  -2  162.38    6.60
   3  -1  -2  169.48    7.80
   3  -1  -2  167.88    6.90
   3  -1  -2  163.98    7.30
   3  -1  -2  162.18    7.60
  -3   1   2  166.38    7.10
  -3   1   2  168.28    7.20
  -3   1   2  173.08    7.00
  -3   1   2  163.08    7.20
   2  -1  -2 1127.59   20.60
   2  -1  -2 1124.29   21.00
   2  -1  -2 1134.49   20.90
   2  -1  -2 1129.59   21.10
   2  -1  -2 1121.69   21.00
   2  -1  -2 1139.99   21.10
  -2   1   2 1136.89   21.10
  -2   1   2 1131.69   21.00
  -2   1   2 1143.29   21.10
  -2   1   2 1149.89   21.00
  -2   1   2 1123.19   21.00
   1  -1  -2  234.08    5.20
   1  -1  -2  235.78    5.00
   1  -1  -2  232.28    4.60
   1  -1  -2  242.88    5.20
   1  -1  -2  243.88    5.20
   1  -1  -2  224.18    5.30
  -1   1   2  242.38    5.30
  -1   1   2  236.68    5.20
  -1   1   2  233.98    5.00
  -1   1   2  238.88    4.60
  -1   1   2  238.88    5.40
  -1   1   2  238.88    5.10
  -1   1   2  229.68    5.10
   0  -1  -2 1146.89   19.90
   0  -1  -2 1120.49   19.60
   0  -1  -2 1168.68   19.60
   0  -1  -2 1153.78   19.70
   0   1   2 1141.69   19.70
   0   1   2 1171.58   19.70
   0   1   2 1122.49   19.80
   0   1   2 1170.38   19.80
  -1  -1  -2  129.59    4.30
  -1  -1  -2  139.39    3.60
  -1  -1  -2  137.59    3.70
  -1  -1  -2  132.99    3.90
  -1  -1  -2  133.89    3.50
  -1  -1  -2  141.59    3.90
   1   1   2  141.09    3.80
   1   1   2  133.99    3.80
   1   1   2  138.69    3.70
   1   1   2  128.19    3.90
   1   1   2  139.29    3.80
   1   1   2  127.59    4.20
  -2  -1  -2  484.85   11.00
  -2  -1  -2  473.25   10.40
  -2  -1  -2  468.15   10.00
  -2  -1  -2  481.25   10.30
  -2  -1  -2  484.25   10.50
  -2  -1  -2  479.15   10.60
   2   1   2  482.35   10.20
   2   1   2  462.55   10.40
   2   1   2  486.45   10.70
   2   1   2  473.65   10.80
   2   1   2  485.15   10.40
  -3  -1  -2  166.88    6.70
  -3  -1  -2  160.28    7.10
  -3  -1  -2  169.38    7.00
  -3  -1  -2  165.78    6.90
  -3  -1  -2  171.18    7.70
   3   1   2  169.28    7.10
   3   1   2  168.98    7.40
   3   1   2  163.68    6.90
   3   1   2  159.58    7.70
   3   1   2  158.88    7.40
  -4  -1  -2   91.69    8.20
  -4  -1  -2   86.69    7.00
  -4  -1  -2   86.09    7.20
  -4  -1  -2   88.09    8.30
   4   1   2  104.99    9.70
   4   1   2   70.89    6.80
   4   1   2   83.89    7.30
   4   1   2   92.69    8.00
   4   1   2   85.09    8.40
   4   1   2   78.49    7.80
  -5  -1  -2   25.60    8.90
  -5  -1  -2   37.00    8.90
  -5  -1  -2   34.70    8.50
   5   1   2   37.50    8.20
   5   1   2   35.10   11.00
   5   1   2   34.70    6.30
   5   1   2   27.30    8.70
  -6  -1  -2   22.10   13.10
  -6  -1  -2   -1.50   12.70
  -6  -1  -2   12.30   17.10
   6   1   2    8.10   11.50
   6   1   2   24.10    9.30
   6   1   2    3.60   12.60
   6   1   2   15.00   13.20
   6  -2  -2   21.30   11.60
   6  -2  -2    4.10   11.00
  -6   2   2   -6.70   14.00
  -6   2   2  -11.90   12.80
   5  -2  -2   82.79    8.00
   5  -2  -2   82.89   10.40
   5  -2  -2   73.29    8.50
   5  -2  -2   65.29   10.00
  -5   2   2   82.59    9.50
  -5   2   2   74.79   10.90
  -5   2   2   62.89   10.00
   4  -2  -2   23.90    5.00
   4  -2  -2   15.60    6.30
   4  -2  -2   17.60    7.30
   4  -2  -2   13.80    5.80
   4  -2  -2   21.40    6.00
  -4   2   2   14.10    5.80
  -4   2   2   25.10    6.70
  -4   2   2   13.00    6.00
  -4   2   2   19.40    6.40
  -4   2   2   17.30    6.10
   3  -2  -2  258.57    7.60
   3  -2  -2  261.87    8.20
   3  -2  -2  258.27    8.80
   3  -2  -2  259.97    8.90
   3  -2  -2  264.47    8.30
   3  -2  -2  272.87    8.50
  -3   2   2  271.47    9.10
  -3   2   2  258.67    8.60
  -3   2   2  250.67    8.70
  -3   2   2  263.37    8.10
  -3   2   2  271.87    8.60
   2  -2  -2  735.33   14.50
   2  -2  -2  793.62   14.70
   2  -2  -2  761.02   14.80
   2  -2  -2  767.92   14.20
   2  -2  -2  728.33   14.70
   2  -2  -2  779.02   14.90
  -2   2   2  746.63   14.80
  -2   2   2  773.22   14.80
  -2   2   2  749.82   14.70
  -2   2   2  754.82   14.60
  -2   2   2  743.23   14.80
   1  -2  -2  411.06    7.50
  -1   2   2  378.76    7.50
  -1   2   2  352.06    7.80
   0  -2  -2  361.26    6.90
   0  -2  -2  368.86    6.30
   0  -2  -2  365.06    6.50
   0   2   2  338.47    7.30
   0   2   2  365.26    6.40
   0   2   2  366.56    6.60
   0   2   2  366.86    6.90
  -2  -2  -2 1899.31   34.30
  -2  -2  -2 1897.41   34.40
  -2  -2  -2 1907.41   34.30
  -2  -2  -2 1941.41   34.60
  -2  -2  -2 1902.01   34.20
   2   2   2 1970.50   35.00
   2   2   2 1922.91   34.60
   2   2   2 1926.41   34.40
   2   2   2 1956.40   34.70
   2   2   2 1952.90   34.50
  -3  -2  -2  197.08    7.10
  -3  -2  -2  175.78    7.10
  -3  -2  -2  182.78    7.60
  -3  -2  -2  173.78    7.00
  -3  -2  -2  187.08    7.30
   3   2   2  178.98    6.90
   3   2   2  182.38    8.00
   3   2   2  189.18    7.80
   3   2   2  176.78    7.60
   3   2   2  178.58    7.10
   3   2   2  181.68    7.30
  -4  -2  -2  119.49    8.80
  -4  -2  -2  119.59    8.90
  -4  -2  -2  134.19    8.60
  -4  -2  -2  123.59    9.10
   4   2   2  115.29    7.80
   4   2   2  119.59   10.00
   4   2   2  117.59    8.70
   4   2   2  114.79   10.20
   4   2   2  112.39   10.30
   4   2   2  125.59    9.10
  -5  -2  -2   23.30    9.30
  -5  -2  -2   23.90    9.70
  -5  -2  -2   19.30    8.00
  -5  -2  -2   42.60    8.50
   5   2   2   26.60    7.20
   5   2   2   46.20    8.70
   5   2   2   35.40    9.10
   5   2   2   42.00   11.80
  -6  -2  -2   12.20   13.00
  -6  -2  -2   10.30   12.90
   6   2   2    8.30   13.60
   6   2   2   -4.40   10.00
   6   2   2    2.90   16.00
   6  -3  -2   22.20   13.90
   6  -3  -2    4.90   11.50
  -6   3   2   23.70   14.00
  -6   3   2   35.20   16.90
   5  -3  -2   29.50    9.40
   5  -3  -2   28.80    8.10
   5  -3  -2   40.30    7.30
  -5   3   2   39.60   10.20
  -5   3   2   28.10    9.30
  -5   3   2   47.00    8.70
   4  -3  -2   76.29    8.00
   4  -3  -2   82.69    8.00
   4  -3  -2   81.39    7.20
   4  -3  -2   90.29    7.80
  -4   3   2   86.69    6.90
  -4   3   2   84.69    7.70
  -4   3   2   78.89    7.70
  -4   3   2   91.29    7.30
  -4   3   2   89.29    7.30
   3  -3  -2  230.88    8.10
   3  -3  -2  235.28    8.40
   3  -3  -2  248.08    7.90
   3  -3  -2  236.48    6.90
   3  -3  -2  234.28    8.70
   3  -3  -2  237.38    8.10
  -3   3   2  231.18    8.40
  -3   3   2  254.37    9.00
  -3   3   2  251.67    8.50
  -3   3   2  235.48    8.40
  -3   3   2  230.28    7.60
   2  -3  -2  283.27    6.50
   2  -3  -2  286.37    7.30
   2  -3  -2  273.07    6.90
   2  -3  -2  269.67    6.10
   2  -3  -2  303.27    7.40
   2  -3  -2  293.77    7.40
  -2   3   2  282.97    7.00
  -2   3   2  282.67    7.20
  -2   3   2  282.77    7.10
  -2   3   2  297.57    8.00
  -2   3   2  284.97    7.00
  -2   3   2  282.87    7.60
   1  -3  -2 1257.77   21.80
   1  -3  -2 1222.78   22.50
   1  -3  -2 1281.17   22.00
   1  -3  -2 1289.37   22.30
  -1   3   2 1241.88   21.90
  -1   3   2 1250.37   22.60
  -1   3   2 1258.47   21.90
  -1   3   2 1279.77   22.00
  -1   3   2 1278.07   22.30
   0   3   2  100.29    3.10
   0   3   2   96.39    2.90
  -2  -3  -2  245.08    6.50
  -2  -3  -2  234.88    6.30
  -2  -3  -2  243.88    6.60
  -2  -3  -2  238.58    6.70
  -2  -3  -2  220.28    7.70
   2   3   2  231.68    7.20
   2   3   2  242.98    6.90
   2   3   2  244.38    7.00
   2   3   2  235.18    7.20
   2   3   2  245.88    7.70
  -3  -3  -2   23.40    4.10
  -3  -3  -2   23.40    4.20
  -3  -3  -2   24.70    3.90
  -3  -3  -2   25.30    4.00
  -3  -3  -2   18.30    4.20
   3   3   2   18.20    4.60
   3   3   2   29.60    4.00
   3   3   2   28.90    4.20
   3   3   2   20.30    4.10
   3   3   2   25.90    4.20
   3   3   2   23.40    4.70
  -4  -3  -2   81.19    6.80
  -4  -3  -2   63.19    6.90
  -4  -3  -2   73.29    6.60
  -4  -3  -2   66.19    6.60
   4   3   2   61.19    7.50
   4   3   2   62.59    7.80
   4   3   2   71.49    6.70
   4   3   2   81.19    6.50
   4   3   2   64.19    6.40
  -5  -3  -2   47.60   12.40
  -5  -3  -2   48.80    9.10
  -5  -3  -2   47.90    9.00
  -5  -3  -2   58.99   10.40
   5   3   2   53.99    9.10
   5   3   2   31.10   11.30
   5   3   2   47.90    8.50
   5   3   2   63.09    9.90
  -6  -3  -2  -15.30   13.10
  -6  -3  -2   -5.70   13.10
   6   3   2   -4.20   13.90
   6   3   2   13.40   11.90
   6   3   2    8.80   14.50
  -6   4   2   19.20   15.60
   5  -4  -2    5.60    7.60
   5  -4  -2   15.60   10.60
   5  -4  -2   12.30    6.80
  -5   4   2    7.90    8.50
  -5   4   2    9.60   10.80
  -5   4   2    4.40   10.00
  -5   4   2   19.50   10.00
   4  -4  -2   53.19    7.20
   4  -4  -2   52.49    6.80
   4  -4  -2   52.59    4.90
  -4   4   2   50.89    7.00
  -4   4   2   52.39    7.30
  -4   4   2   54.79    7.90
  -4   4   2   43.50    7.10
   3  -4  -2  398.86   10.20
   3  -4  -2  399.16    8.70
   3  -4  -2  418.76   10.80
   3  -4  -2  391.36   10.70
  -3   4   2  388.66   10.50
  -3   4   2  397.56   10.20
  -3   4   2  412.36   11.30
  -3   4   2  397.56   10.50
  -3   4   2  386.86   10.90
   2  -4  -2  456.75    9.40
   2  -4  -2  461.95   10.10
   2  -4  -2  455.55   10.20
  -2   4   2  456.05   10.30
  -2   4   2  448.56    9.60
  -2   4   2  458.45    9.80
  -2   4   2  442.76   11.70
  -2   4   2  456.05    9.60
  -2   4   2  446.66    9.50
   1  -4  -2   74.99    3.50
   1  -4  -2   80.79    3.80
  -1   4   2   73.79    3.20
  -1   4   2   79.29    3.80
  -1   4   2   76.59    3.90
   0   4   2  131.29    3.90
   0   4   2  130.29    3.60
  -1  -4  -2   11.00    2.00
  -1  -4  -2   11.10    1.40
  -1  -4  -2   12.30    1.90
  -1  -4  -2    9.50    1.70
  -1  -4  -2   13.30    1.50
   1   4   2   16.40    1.80
   1   4   2   11.50    2.10
   1   4   2    7.30    2.30
   1   4   2   12.10    2.70
   1   4   2   10.80    1.90
   1   4   2   10.20    2.10
  -2  -4  -2  671.13   13.40
  -2  -4  -2  702.93   14.00
  -2  -4  -2  669.93   13.00
  -2  -4  -2  652.33   13.60
  -2  -4  -2  669.33   13.40
   2   4   2  684.93   14.00
   2   4   2  661.33   14.40
   2   4   2  666.43   13.80
   2   4   2  681.33   14.20
   2   4   2  673.13   13.90
  -3  -4  -2   40.00    4.40
  -3  -4  -2   42.00    4.70
  -3  -4  -2   41.00    4.80
  -3  -4  -2   48.90    4.80
  -3  -4  -2   45.60    4.20
   3   4   2   40.40    5.00
   3   4   2   47.50    4.90
   3   4   2   46.70    5.00
   3   4   2   49.70    5.60
   3   4   2   44.90    5.20
   3   4   2   41.00    5.30
  -4  -4  -2   28.00    6.40
  -4  -4  -2   32.40    6.10
  -4  -4  -2   24.10    5.90
  -4  -4  -2   17.40    6.40
   4   4   2   40.30    6.30
   4   4   2   18.10    6.20
   4   4   2   27.70    6.50
  -5  -4  -2   30.60   10.90
  -5  -4  -2   30.50   10.00
  -5  -4  -2   29.60    9.30
   5   4   2   32.40    9.30
   5   4   2   40.50    8.70
   5   4   2   32.20   12.20
  -6  -4  -2    3.20   13.90
  -6  -4  -2    0.00   13.60
   6   4   2   36.70   13.90
   6   4   2    7.30   11.80
   6   4   2    9.30   14.60
   5  -5  -2    6.20    9.10
  -5   5   2    1.40   10.50
  -5   5   2   -0.60   11.30
  -5   5   2   18.10    9.30
   4  -5  -2  199.28   10.50
   4  -5  -2  211.78   12.30
   4  -5  -2  205.68   10.10
  -4   5   2  215.08   12.50
  -4   5   2  194.88   11.30
  -4   5   2  186.78   11.80
  -4   5   2  187.78   11.30
  -4   5   2  203.28   10.10
   3  -5  -2   20.80    4.70
   3  -5  -2   17.60    4.10
   3  -5  -2   12.20    4.80
  -3   5   2   20.80    4.70
  -3   5   2   27.10    5.40
  -3   5   2   18.00    4.50
  -3   5   2   17.10    4.40
  -3   5   2   19.60    4.00
   2  -5  -2   15.60    2.70
   2  -5  -2   16.70    2.60
   2  -5  -2   18.10    3.70
   2  -5  -2   17.30    3.20
  -2   5   2   19.10    2.70
  -2   5   2   23.10    3.90
  -2   5   2   20.80    3.90
  -2   5   2   18.10    2.80
  -2   5   2   19.40    3.00
   1  -5  -2   80.19    4.00
  -1   5   2   84.09    4.40
  -1   5   2   61.59    3.80
  -1   5   2   81.29    4.30
   0   5   2  970.50   17.30
   0   5   2  948.01   17.60
   0   5   2  954.10   18.30
  -1  -5  -2   30.60    2.40
  -1  -5  -2   27.60    2.50
   1   5   2   20.00    3.30
   1   5   2   22.80    2.50
   1   5   2   29.30    2.80
   1   5   2   23.90    2.40
   1   5   2   25.90    2.50
  -2  -5  -2 1891.11   33.50
  -2  -5  -2 1890.31   34.10
  -2  -5  -2 1872.71   32.80
  -2  -5  -2 1880.31   34.00
  -2  -5  -2 1891.01   33.50
   2   5   2 1923.61   34.20
   2   5   2 1892.51   34.30
   2   5   2 1880.51   34.20
   2   5   2 1873.51   35.10
   2   5   2 1894.11   34.40
  -3  -5  -2    8.60    4.00
  -3  -5  -2   15.40    4.70
  -3  -5  -2   14.00    4.40
  -3  -5  -2   12.90    4.50
  -3  -5  -2   15.20    3.70
   3   5   2   19.50    5.70
   3   5   2   14.70    5.60
   3   5   2   13.30    5.10
   3   5   2   17.70    4.50
   3   5   2   13.50    4.60
   3   5   2   14.20    4.70
  -4  -5  -2  112.39   10.70
  -4  -5  -2  135.99   10.60
  -4  -5  -2  135.29    9.90
  -4  -5  -2  139.29    9.70
   4   5   2  117.89    9.70
   4   5   2  129.89    9.90
   4   5   2  117.49    9.80
   4   5   2  116.39    9.70
   4   5   2  118.49   11.00
  -5  -5  -2    9.30    9.30
  -5  -5  -2   -9.00    9.80
   5   5   2   24.60   10.20
   5   5   2   12.80    9.10
   5   5   2   22.90   13.50
   5   5   2   21.50    9.60
  -6  -5  -2  -32.90   15.00
  -6  -5  -2   -6.20   14.00
   6   5   2    9.60   12.80
   6   5   2   -3.50   15.70
   6   5   2  -19.30   13.90
   5  -6  -2    8.30    9.40
  -5   6   2  -13.10    9.00
  -5   6   2    3.20   11.00
  -5   6   2   13.20   13.40
   4  -6  -2   29.50    7.30
   4  -6  -2   29.90    7.20
  -4   6   2   10.10    7.60
  -4   6   2   27.90    6.10
  -4   6   2   37.30    9.00
  -4   6   2   26.90    7.90
  -4   6   2   28.50    6.40
   3  -6  -2   37.00    5.20
   3  -6  -2   49.10    4.80
   3  -6  -2   41.10    5.20
  -3   6   2   42.20    5.00
  -3   6   2   42.20    4.60
  -3   6   2   39.90    5.70
  -3   6   2   35.70    6.50
   2  -6  -2   59.49    5.30
   2  -6  -2   60.39    6.40
  -2   6   2   59.39    4.00
  -2   6   2   59.79    4.00
  -2   6   2   62.09    4.90
  -2   6   2   43.60    4.40
  -2   6   2   48.90    3.70
  -2   6   2   57.99    6.30
   1  -6  -2   41.90    4.10
  -1   6   2   38.80    3.80
  -1   6   2   47.20    4.60
  -1   6   2   38.50    3.40
   0   6   2 6100.49  103.89
   0   6   2 6137.99  104.19
   0   6   2 6114.79  105.09
  -1  -6  -2   78.29    3.40
   1   6   2   73.09    4.40
   1   6   2   76.09    3.90
   1   6   2   77.09    5.50
   1   6   2   80.39    4.10
   1   6   2   71.99    3.70
  -2  -6  -2    8.70    2.50
  -2  -6  -2    6.80    2.50
  -2  -6  -2    8.60    3.20
   2   6   2    7.80    3.50
   2   6   2    5.40    4.00
   2   6   2   12.00    4.00
   2   6   2    7.30    3.40
   2   6   2    9.90    3.70
  -3  -6  -2   16.60    4.30
  -3  -6  -2   26.30    5.10
  -3  -6  -2   15.00    4.40
  -3  -6  -2   13.10    3.50
  -3  -6  -2   17.90    5.20
   3   6   2   21.40    6.70
   3   6   2   16.20    5.30
   3   6   2   15.00    4.60
   3   6   2   14.70    4.90
   3   6   2   24.90    5.60
   3   6   2   19.50    5.70
  -4  -6  -2   88.19    8.00
  -4  -6  -2   95.59    7.50
  -4  -6  -2   97.79    9.60
   4   6   2   86.29   10.20
   4   6   2  100.59    8.60
   4   6   2   82.39    9.90
   4   6   2  102.79   10.30
  -5  -6  -2    2.10    9.50
  -5  -6  -2   22.90   11.30
   5   6   2   -2.10   10.10
   5   6   2    1.40   10.60
   5   6   2   25.60   13.20
   5   6   2   17.30   10.90
  -6  -6  -2  -13.00   16.70
   6   6   2    8.00   15.10
   6   6   2   -0.20   17.60
   5  -7  -2   -9.30   10.80
  -5   7   2   22.90   12.70
  -5   7   2    7.90    9.70
  -5   7   2   24.40   15.00
   4  -7  -2   -0.70    7.10
  -4   7   2   14.60    7.60
  -4   7   2    8.10    8.90
  -4   7   2    6.50    6.60
  -4   7   2    7.00    8.70
  -4   7   2    2.90    9.20
   3  -7  -2   22.10    5.50
   3  -7  -2   13.70    5.20
  -3   7   2   18.90    4.50
  -3   7   2   27.20    4.20
  -3   7   2   26.30    6.90
  -3   7   2   26.40    5.30
  -3   7   2   21.30    5.60
   2  -7  -2  104.19    6.40
  -2   7   2   99.49    5.10
  -2   7   2   96.39    8.10
  -2   7   2   97.69    5.50
  -2   7   2  105.89    7.60
   1  -7  -2  119.79    5.30
  -1   7   2  125.69    6.20
  -1   7   2  115.79    5.60
  -1   7   2  114.49    6.70
   0   7   2   46.00    4.50
   0   7   2   46.20    3.60
   0   7   2   55.59    4.50
  -1  -7  -2   11.70    2.40
  -1  -7  -2   11.60    2.20
   1   7   2   -0.20    4.00
   1   7   2   10.30    2.90
   1   7   2    9.20    2.60
   1   7   2    4.60    2.70
  -2  -7  -2   96.59    4.20
  -2  -7  -2  115.89    5.90
  -2  -7  -2   94.29    4.20
   2   7   2  100.29    7.40
   2   7   2   96.59    6.80
   2   7   2   91.49    5.80
   2   7   2   90.79    6.50
   2   7   2  102.19    7.10
  -3  -7  -2   29.30    4.50
  -3  -7  -2   13.30    5.40
  -3  -7  -2   30.50    5.80
  -3  -7  -2   25.80    4.30
   3   7   2   26.60    6.70
   3   7   2   29.40    6.60
   3   7   2   28.10    6.40
   3   7   2   25.70    6.00
   3   7   2   33.60    5.70
  -4  -7  -2   16.50    6.80
  -4  -7  -2   29.30    8.10
  -4  -7  -2   16.00   12.40
   4   7   2   30.70   10.00
   4   7   2   19.20    8.50
   4   7   2   15.30    7.90
   4   7   2   20.00    8.70
  -5  -7  -2   10.40   10.80
  -5  -7  -2    8.20   10.80
   5   7   2   10.20   11.60
   5   7   2   18.90   11.50
   5   7   2    2.70   11.20
   5  -8  -2   19.00   12.20
  -5   8   2    9.70   11.60
  -5   8   2   25.50   14.50
  -5   8   2    8.70   17.20
   4  -8  -2    9.60    7.80
   4  -8  -2    0.60   12.30
  -4   8   2  -10.50    9.00
  -4   8   2    2.30    7.10
  -4   8   2   -2.50    6.80
  -4   8   2   13.60    8.80
  -3   8   2    8.50    4.10
  -3   8   2    2.20    6.10
  -3   8   2   -0.40    7.80
  -3   8   2    0.20    4.60
  -3   8   2    5.90    5.50
   2  -8  -2  201.08    8.30
  -2   8   2  188.48    9.90
  -2   8   2  204.18   10.00
  -1   8   2   59.69    5.20
  -1   8   2   60.19    5.70
  -1   8   2   54.89    5.70
  -1   8   2   64.19    5.80
   0   8   2   60.69    6.20
   0   8   2   61.29    4.20
   0   8   2   55.19    5.60
  -1  -8  -2   22.70    2.80
  -1  -8  -2   21.60    2.60
   1   8   2   22.00    3.10
   1   8   2   21.00    3.60
   1   8   2   18.70    4.90
   1   8   2   24.00    3.50
   1   8   2   26.00    3.60
  -2  -8  -2   64.49    5.80
  -2  -8  -2   65.59    5.10
   2   8   2   72.29    5.80
   2   8   2   64.29    6.50
   2   8   2   69.89    6.40
   2   8   2   78.39    5.60
   2   8   2   75.39    5.80
  -3  -8  -2   62.59    6.30
   3   8   2   68.59    8.90
   3   8   2   69.69    8.10
   3   8   2   74.09    8.70
   3   8   2   66.09    7.10
   3   8   2   60.19    7.90
  -4  -8  -2   12.60    6.80
   4   8   2    0.20    8.50
   4   8   2   27.80    9.70
   4   8   2   20.40    8.50
   4   8   2    3.10   10.30
  -5  -8  -2   11.00   11.00
   5   8   2   -7.40   12.80
   5   8   2   22.10   11.90
   5   8   2    3.90   12.70
   4  -9  -2   12.20    9.10
  -4   9   2    4.40   10.60
  -4   9   2    1.60   10.10
  -4   9   2    3.60    7.20
  -4   9   2   13.10   12.70
   3  -9  -2   21.90    7.10
  -3   9   2   20.20    6.00
  -3   9   2   17.10    6.80
  -3   9   2   12.60    9.10
   2  -9  -2   53.09    5.80
  -2   9   2   45.30    4.70
  -2   9   2   52.39    7.30
  -2   9   2   52.99    7.40
  -1   9   2  581.04   14.30
  -1   9   2  567.44   13.50
  -1   9   2  609.94   15.40
  -1   9   2  582.64   14.10
   0   9   2   35.70    3.80
   0   9   2   33.60    5.90
   0   9   2   42.70    5.50
   0   9   2   28.40    4.90
   1   9   2   10.10    3.90
   1   9   2   -5.30    5.60
   1   9   2   11.90    3.50
   1   9   2    9.80    4.00
   1   9   2    9.80    3.90
   1   9   2   15.70    4.00
  -2  -9  -2   47.10    5.40
  -2  -9  -2   42.70    4.60
   2   9   2   46.90    6.00
   2   9   2   41.20    7.50
   2   9   2   46.20    6.20
   2   9   2   52.29    6.10
   2   9   2   43.30    5.40
  -3  -9  -2    0.90    3.90
   3   9   2    3.10    6.80
   3   9   2    9.50    8.70
   3   9   2    2.70    7.20
   3   9   2   -7.20    7.20
   3   9   2    1.10    7.80
  -4  -9  -2   -3.40    6.10
   4   9   2  -15.50    9.40
   4   9   2   -2.60    9.10
   4   9   2   11.30   10.10
  -5  -9  -2   14.80   10.60
   5   9   2   12.50   15.30
   5   9   2   38.60   14.60
   5   9   2   40.60   15.10
   4 -10  -2   18.90   11.00
  -4  10   2   -0.30    7.80
  -4  10   2   10.30   11.80
  -4  10   2   13.90   15.60
   3 -10  -2   13.20    7.90
  -3  10   2    9.10    8.00
  -3  10   2   13.40    6.90
   2 -10  -2    4.00    6.20
  -2  10   2   -2.70    5.20
  -2  10   2   -0.40    8.50
  -2  10   2   -2.20    8.10
  -1  10   2  336.07   10.70
  -1  10   2  350.36   13.80
  -1  10   2  339.37   11.60
  -1  10   2  357.56   13.00
   0  10   2   10.30    3.60
   0  10   2   11.20    5.90
   0  10   2   10.50    7.00
   0  10   2   -0.10    5.40
   1  10   2   75.79    6.90
   1  10   2  102.09    7.20
   1  10   2   72.89    5.60
   1  10   2   77.49    7.80
   1  10   2   82.79    8.20
   1  10   2   76.39    6.60
  -2 -10  -2   58.19    5.30
   2  10   2   62.19    7.70
   2  10   2   62.29    8.40
   2  10   2   59.09    6.30
   2  10   2   68.09    7.20
  -3 -10  -2   17.20    7.40
   3  10   2   30.10    8.40
   3  10   2   15.80   10.80
   3  10   2   17.50    9.30
   3  10   2    3.80    8.70
  -4 -10  -2   17.80    6.80
   4  10   2   10.00   11.80
   4  10   2   17.70   11.40
   4  10   2   14.20   10.50
   4 -11  -2   21.70   13.10
  -4  11   2  -17.40   17.30
   3 -11  -2  -11.30    9.60
  -3  11   2  -26.60   12.80
  -3  11   2    4.30    9.00
  -2  11   2   12.30    6.40
  -2  11   2   10.40    7.70
  -2  11   2  -11.10   11.00
  -2  11   2    6.40   10.10
  -1  11   2   26.90    8.50
  -1  11   2   27.30   11.20
  -1  11   2   38.50    7.00
  -1  11   2   41.10    6.00
   0  11   2   37.20    7.90
   0  11   2   48.50    7.30
   1  11   2   -2.00    6.10
   1  11   2    1.30    4.50
   1  11   2    9.70    5.30
   1  11   2    2.70    5.40
   1  11   2    0.90    6.50
   1  11   2   -4.10    8.00
   2  11   2   15.70    6.60
   2  11   2   21.80    9.30
   2  11   2   22.80    7.50
   2  11   2    7.00    8.60
   2  11   2   20.40    7.90
   2  11   2   15.20    7.20
   3  11   2   10.10    9.40
   3  11   2    4.70    9.00
   3  11   2   -0.80   11.50
   4  11   2    7.10   13.40
   4  11   2   15.40   14.10
   4  11   2   13.40   12.60
   3 -12  -2   14.50   11.60
  -3  12   2   12.90   15.00
  -3  12   2   -0.40   12.40
  -2  12   2   -5.80    8.10
  -2  12   2   19.40   12.50
  -1  12   2    5.80   10.20
  -1  12   2   10.30    8.00
  -1  12   2   -0.50    6.40
  -1  12   2    0.90   10.80
   0  12   2  142.29   12.20
   0  12   2  121.99    9.70
   0  12   2  145.89   12.80
   1  12   2   -2.60    7.40
   1  12   2   -5.80   10.00
   1  12   2   -1.40    7.70
   1  12   2   -5.50    7.50
   1  12   2   -1.10    9.00
   2  12   2    7.50    8.50
   2  12   2    9.60    8.90
   2  12   2   22.70    7.50
   2  12   2   20.70   10.70
   2  12   2   14.60   11.00
   2  12   2    9.90    9.30
   3  12   2    8.80   12.80
   3  12   2    8.90   11.80
   3  12   2   15.30   10.30
  -2  13   2  -27.30   15.20
  -2  13   2    2.70   10.30
  -1  13   2   11.60   13.40
  -1  13   2   -1.20    9.40
  -1  13   2   -1.30   15.80
  -1  13   2  -12.10    7.30
   0  13   2   -7.80   11.70
   0  13   2   17.70   11.70
   0  13   2   13.50   10.10
   1  13   2  -11.90   11.40
   1  13   2  -11.50   12.80
   1  13   2   11.60    8.50
   2  13   2    5.80    8.90
   2  13   2   12.30   13.20
   3  13   2   12.60   14.30
  -1  14   2  -16.90   16.00
  -1  14   2   20.40   12.10
   0  14   2   -8.70   16.90
   0  14   2   -0.20   13.80
   1  14   2   26.90   16.50
   1  14   2   -8.70   14.80
   2  13  -3   -2.00   13.10
   1  13  -3   13.30   12.70
   1  13  -3   -6.10   16.60
   1  13  -3    5.80   11.50
   1  13  -3   10.80   12.70
   0  13  -3    7.60   12.20
   0  13  -3    6.40   11.20
   0  13  -3    7.60   14.60
   0  13  -3    0.40    9.80
  -1  13  -3   -1.10    9.30
  -1  13  -3   22.10   16.50
  -1  13  -3   -5.90   11.10
  -2  13  -3   36.70   19.30
  -2  13  -3   15.00    9.50
  -2  13  -3   22.20   12.00
   3  12  -3   34.20   16.20
   2  12  -3  -10.40   11.10
   2  12  -3   -2.10   11.80
   2  12  -3   -0.60   10.40
   1  12  -3   -9.90   12.10
   1  12  -3   19.60   10.90
   1  12  -3   22.20    9.00
   1  12  -3    9.80    9.50
   0  12  -3   19.80    8.10
   0  12  -3   37.40   10.10
   0  12  -3   23.80    8.90
   0  12  -3   43.10    9.60
   0  12  -3    9.20    8.50
   0  12  -3   31.90   11.90
  -1  12  -3   10.70    8.60
  -1  12  -3   -5.20    7.40
  -1  12  -3    6.40    7.30
  -1  12  -3   -5.40    8.70
  -1  12  -3    5.30    8.60
  -1  12  -3   -3.30   13.20
  -2  12  -3   -0.60   10.70
  -2  12  -3   -7.00    8.40
  -2  12  -3   11.80   11.40
  -2  12  -3    6.10   14.50
  -3  12  -3  -18.30   10.60
  -3  12  -3   17.40   14.60
  -3  12  -3  -16.50   18.10
   3  11  -3   76.79   12.20
   3  11  -3   62.89   13.20
   3  11  -3   51.69   13.10
   2  11  -3   53.09    9.60
   2  11  -3   94.39    9.80
   2  11  -3   78.19   10.80
   1  11  -3   -4.50    8.80
   1  11  -3    7.10    8.10
   1  11  -3   -2.80    8.60
   1  11  -3   16.70    7.60
   1  11  -3   -1.60    7.80
   1  11  -3    9.30   10.70
  -1 -11   3   -2.20    5.70
   0  11  -3    2.10    9.70
   0  11  -3    3.90    6.90
   0  11  -3   15.50    8.00
   0  11  -3    7.40    6.70
   0  11  -3   13.40    6.20
   0  11  -3    7.00    7.60
  -1  11  -3   -1.90   10.60
  -1  11  -3   -4.50    6.60
  -1  11  -3    4.50    6.20
  -1  11  -3   -0.10    7.60
  -1  11  -3    6.50    6.80
  -1  11  -3    7.10    7.40
  -2  11  -3   31.70   10.90
  -2  11  -3   24.30    7.70
  -2  11  -3   33.60   12.00
  -2  11  -3   37.40    7.70
  -2  11  -3   26.30    7.70
  -2  11  -3   26.80    6.50
  -2  11  -3   26.90    9.30
   2 -11   3   24.90   10.00
  -3  11  -3   37.00    9.80
  -3  11  -3   57.59   15.10
  -3  11  -3   28.20    8.40
   3 -11   3   30.60   10.00
   4  10  -3   23.80   14.80
   4  10  -3   27.10   15.90
   4  10  -3    5.50   13.90
  -4 -10   3   15.40    9.70
   3  10  -3   85.19   11.10
   3  10  -3  110.89   11.50
   3  10  -3   85.79   10.90
  -3 -10   3  100.39    9.40
   2  10  -3   17.80    8.20
   2  10  -3   23.00    9.50
   2  10  -3   16.30    8.10
   2  10  -3   17.40    8.00
   2  10  -3   26.60   10.60
  -2 -10   3   28.50    4.50
   1  10  -3    2.00    7.30
   1  10  -3   -0.30    7.90
   1  10  -3    9.10    6.90
   1  10  -3    0.40    6.20
   1  10  -3   22.70    6.50
   1  10  -3   11.40    6.70
  -1 -10   3    9.30    4.70
   0  10  -3    5.50    7.90
   0  10  -3    2.70    5.50
   0  10  -3    7.30    6.00
   0  10  -3   14.00    5.40
   0  10  -3   13.20    7.60
   0 -10   3   10.00    4.10
   0 -10   3  -11.60   13.20
  -1  10  -3  110.09   12.00
  -1  10  -3   95.89    8.60
  -1  10  -3  102.39    7.00
  -1  10  -3   96.89    9.40
  -1  10  -3   83.29    8.30
  -1  10  -3   95.79    8.70
  -1  10  -3   83.89    6.90
  -2  10  -3   -4.80    6.00
  -2  10  -3    1.10    6.20
  -2  10  -3    5.00    6.00
  -2  10  -3    4.00    9.20
  -2  10  -3    2.10    5.00
  -2  10  -3   -1.00    7.40
  -2  10  -3   -9.40    9.40
   2 -10   3    1.20    5.10
  -3  10  -3    6.50    6.10
  -3  10  -3    0.80    6.80
  -3  10  -3  -10.50    7.90
  -3  10  -3   -1.50    9.80
  -3  10  -3    3.30    7.80
  -3  10  -3    3.40   12.00
   3 -10   3    5.60    7.00
  -4  10  -3   11.40   13.20
  -4  10  -3   21.40   10.70
  -4  10  -3   -1.20   17.20
   4 -10   3    4.90    9.90
   4   9  -3  -14.00   12.90
   4   9  -3   23.30   13.30
   4   9  -3   -6.70    8.50
   4   9  -3    1.10   11.60
  -4  -9   3   12.20    9.30
   3   9  -3    8.60    8.60
   3   9  -3   15.20    8.90
   3   9  -3   -9.70    8.40
   3   9  -3   10.50   10.40
  -3  -9   3   -2.40    7.10
  -3  -9   3    2.90    6.00
   2   9  -3   20.10    6.80
   2   9  -3   20.50    7.30
   2   9  -3   21.60    6.90
   2   9  -3   23.20    7.60
   2   9  -3   29.10    7.80
  -2  -9   3   23.00    4.50
  -2  -9   3   22.90    5.90
   1   9  -3    9.60    6.00
   1   9  -3   -1.90    5.60
   1   9  -3   10.80    5.10
   1   9  -3    2.30    5.60
  -1  -9   3    0.50    3.90
  -1  -9   3   -8.90    8.30
   0   9  -3   23.90    5.30
   0   9  -3   32.30    5.60
   0   9  -3   20.50    7.30
   0   9  -3   20.50    4.70
   0   9  -3   13.90    5.40
   0   9  -3   19.50    4.90
   0  -9   3   33.70    7.00
   0  -9   3   20.50    5.10
  -1   9  -3    9.70    7.40
  -1   9  -3    9.80    6.30
  -1   9  -3   -1.30    4.80
  -1   9  -3    9.10    5.10
  -1   9  -3   11.40    5.20
  -1   9  -3    0.40    5.10
  -1   9  -3    7.40    4.30
   1  -9   3    5.60    3.90
   1  -9   3    0.60    4.60
  -2   9  -3   14.20    4.60
  -2   9  -3   20.30    4.90
  -2   9  -3   13.80    8.30
  -2   9  -3    7.10    6.30
  -2   9  -3    7.80    5.80
  -2   9  -3   10.50    8.30
  -2   9  -3   13.70    5.10
   2  -9   3   14.00    4.40
  -3   9  -3   21.20    6.90
  -3   9  -3   14.20    6.00
  -3   9  -3   19.50    8.60
  -3   9  -3   15.80    6.80
  -3   9  -3   15.00   11.10
  -3   9  -3   22.60   10.70
   3  -9   3   16.40    6.50
  -4   9  -3   48.90   11.50
  -4   9  -3   46.70   15.30
  -4   9  -3   53.49   10.10
   4  -9   3   32.50    9.40
   5   8  -3   -7.10   14.90
   5   8  -3   24.70   16.80
  -5  -8   3   40.90   13.70
   4   8  -3    7.40    8.20
   4   8  -3   25.30   11.70
   4   8  -3   16.40   10.40
   4   8  -3   -1.60    9.70
  -4  -8   3   15.90   10.40
  -4  -8   3   11.20    8.50
   3   8  -3   39.80    9.20
   3   8  -3   13.20    8.20
   3   8  -3    9.50    7.30
   3   8  -3   19.20    7.50
  -3  -8   3   14.20    7.20
  -3  -8   3    8.50    6.00
  -3  -8   3    8.20    7.50
   2   8  -3   53.89    7.80
   2   8  -3   53.39    6.50
   2   8  -3   46.60    6.70
   2   8  -3   52.09    6.90
   2   8  -3   69.09    6.80
  -2  -8   3   59.29    5.60
  -2  -8   3   43.00    5.50
   1   8  -3   -1.40    4.80
   1   8  -3   12.00    4.50
   1   8  -3    6.70    4.30
   1   8  -3    9.40    4.60
   1   8  -3    5.20    5.10
  -1  -8   3   11.60    6.80
  -1  -8   3   10.20    3.40
  -1  -8   3    6.90    2.90
   0   8  -3  381.16   10.10
   0   8  -3  375.06   10.00
   0   8  -3  407.16   10.10
   0   8  -3  391.06    9.70
   0   8  -3  399.96   12.30
   0   8  -3  391.76   11.30
   0  -8   3  380.86   10.00
   0  -8   3  384.16    8.90
   0  -8   3  401.76   12.20
  -1   8  -3   20.00    5.10
  -1   8  -3   11.50    4.10
  -1   8  -3   11.50    5.70
  -1   8  -3   13.30    4.70
  -1   8  -3    8.20    4.60
  -1   8  -3    9.70    3.50
  -1   8  -3   11.00    4.40
   1  -8   3   14.90    4.10
   1  -8   3   15.60    3.30
   1  -8   3    9.70    2.90
  -2   8  -3   44.70    5.40
  -2   8  -3   54.29    6.10
  -2   8  -3   58.89    5.80
  -2   8  -3   52.29    5.20
  -2   8  -3   55.39    5.00
  -2   8  -3   58.99    7.20
  -2   8  -3   53.39    7.80
   2  -8   3   49.40    4.70
   2  -8   3   60.99    5.10
   2  -8   3   60.79    7.30
   2  -8   3   40.00    5.40
  -3   8  -3   52.99    9.90
  -3   8  -3   35.90    5.20
  -3   8  -3   31.80    6.20
  -3   8  -3   34.30    7.00
  -3   8  -3   22.30    6.50
  -3   8  -3   38.90    8.70
   3  -8   3   44.60    6.00
   3  -8   3   29.10    6.20
  -4   8  -3   24.60    8.90
  -4   8  -3    1.00   13.20
  -4   8  -3   32.80    7.10
  -4   8  -3   39.40    9.60
  -4   8  -3   20.10    9.90
   4  -8   3   26.60    8.00
  -5   8  -3    6.10   14.80
  -5   8  -3   29.60   20.30
  -5   8  -3   -3.40   13.70
   5  -8   3   15.60   12.00
   5   7  -3    7.00   11.50
   5   7  -3   25.40   14.70
   5   7  -3   11.80   13.10
   5   7  -3   -0.60   13.60
  -5  -7   3   10.70   12.30
   4   7  -3   40.30   12.20
   4   7  -3   51.89    7.90
   4   7  -3   54.79   10.60
   4   7  -3   34.40    9.70
   4   7  -3   57.89    9.90
  -4  -7   3   55.69    9.90
  -4  -7   3   43.60    7.80
   3   7  -3   16.60    8.80
   3   7  -3    8.90    8.30
   3   7  -3   10.60   10.50
  -3  -7   3    9.10    8.60
  -3  -7   3    6.70    6.60
  -3  -7   3   11.10    5.20
  -3  -7   3    3.60    6.10
  -3  -7   3    5.90    9.60
   2   7  -3   12.60    5.30
   2   7  -3   27.60    5.80
   2   7  -3   14.20    5.90
   2   7  -3   12.80    4.80
   2   7  -3   22.50    5.20
  -2  -7   3   15.80    3.90
  -2  -7   3   19.80    4.70
  -2  -7   3   16.90    4.80
  -2  -7   3   19.30    6.30
  -2  -7   3   16.30    5.80
   1   7  -3   51.19    4.80
   1   7  -3   45.00    4.60
   1   7  -3   50.99    4.40
   1   7  -3   45.40    5.00
   1   7  -3   42.40    4.60
  -1  -7   3   44.00    4.50
  -1  -7   3   48.30    4.10
  -1  -7   3   47.30    5.60
  -1  -7   3   51.19    5.00
  -1  -7   3   45.60    3.90
   0   7  -3   55.09    4.90
   0   7  -3   64.69    4.50
   0   7  -3   56.19    4.40
   0   7  -3   58.69    5.10
   0   7  -3   73.09    5.40
   0   7  -3   68.09    7.30
   0   7  -3   66.59    5.70
   0  -7   3   64.09    5.30
   0  -7   3   66.39    5.00
   0  -7   3   64.49    4.10
  -1   7  -3  129.39    5.30
  -1   7  -3  115.39    6.30
  -1   7  -3  116.49    6.30
  -1   7  -3  114.99    6.10
  -1   7  -3  125.19    7.90
  -1   7  -3  119.49    7.30
  -1   7  -3  117.09    4.80
   1  -7   3  118.99    4.60
   1  -7   3  120.79    5.20
  -2   7  -3   17.60    6.40
  -2   7  -3   31.70    3.90
  -2   7  -3   24.00    3.50
  -2   7  -3   30.20    5.70
  -2   7  -3   29.70    5.00
  -2   7  -3   20.00    4.50
  -2   7  -3   30.30    4.00
   2  -7   3   22.10    6.40
   2  -7   3   30.40    4.00
   2  -7   3   34.30    4.50
   2  -7   3   25.80    4.70
   2  -7   3   28.20    4.20
  -3   7  -3   29.20    7.70
  -3   7  -3   32.10    8.10
  -3   7  -3   31.10    4.90
  -3   7  -3   43.70    7.00
  -3   7  -3   42.60    5.80
   3  -7   3   36.50    5.40
   3  -7   3   41.30    6.20
   3  -7   3   16.90    9.00
  -4   7  -3   46.90   11.40
  -4   7  -3   39.70    6.90
  -4   7  -3   61.49    8.80
  -4   7  -3   41.20    9.40
   4  -7   3   62.69    7.60
   4  -7   3   64.69    8.60
  -5   7  -3    7.80   13.40
  -5   7  -3    3.60   16.10
  -5   7  -3    3.80   11.60
   5  -7   3   16.30    9.80
   5   6  -3    0.80   11.80
   5   6  -3   17.20   11.60
   5   6  -3   -6.90   13.30
   5   6  -3    2.80   10.60
  -5  -6   3    9.40   11.70
  -5  -6   3   11.80    8.40
  -5  -6   3    3.70   10.80
   4   6  -3   22.60    8.70
   4   6  -3   28.90    8.50
   4   6  -3   39.60    7.10
   4   6  -3   19.60    8.00
   4   6  -3   33.70   11.10
  -4  -6   3   34.30    8.00
  -4  -6   3   40.00    8.40
  -4  -6   3   35.90    5.30
   3   6  -3   12.90    6.00
   3   6  -3    4.40    5.80
   3   6  -3    5.50    7.40
   3   6  -3   -1.30    5.70
   3   6  -3   10.70    6.80
  -3  -6   3    6.40    6.70
  -3  -6   3    3.10    5.20
  -3  -6   3    7.50    6.20
  -3  -6   3   -6.70    7.50
  -3  -6   3    5.10    5.50
   2   6  -3   24.90    4.40
   2   6  -3   30.00    5.10
   2   6  -3   20.70    4.50
   2   6  -3   13.20    5.30
   2   6  -3   23.10    4.80
  -2  -6   3   24.50    4.40
  -2  -6   3   24.60    3.80
  -2  -6   3   26.90    5.80
  -2  -6   3   20.40    5.10
   1   6  -3  169.78    6.40
   1   6  -3  168.58    6.50
   1   6  -3  165.98    7.00
   1   6  -3  149.79    6.70
  -1  -6   3  163.98    5.40
  -1  -6   3  159.98    6.20
  -1  -6   3  165.88    5.20
  -1  -6   3  162.58    6.40
  -1  -6   3  160.18    7.50
   0   6  -3  626.64   12.30
   0   6  -3  610.54   13.20
   0   6  -3  591.54   12.70
   0   6  -3  610.14   12.10
   0   6  -3  629.54   12.50
   0   6  -3  612.84   13.90
   0   6  -3  606.34   11.90
   0  -6   3  596.14   12.40
   0  -6   3  599.34   11.90
   0  -6   3  604.54   13.60
   0  -6   3  610.74   11.60
  -1   6  -3  212.38    7.00
  -1   6  -3  211.38    7.40
  -1   6  -3  213.58    5.90
  -1   6  -3  211.08    8.00
  -1   6  -3  218.48    6.60
  -1   6  -3  217.98    6.80
  -1   6  -3  213.48    5.70
   1  -6   3  211.68    5.30
   1  -6   3  216.08    7.30
   1  -6   3  208.98    5.90
   1  -6   3  202.48    6.40
  -2   6  -3   17.90    3.00
  -2   6  -3   25.40    4.40
  -2   6  -3   25.90    4.90
  -2   6  -3   14.90    5.10
  -2   6  -3   22.10    3.50
  -2   6  -3   21.40    3.90
   2  -6   3   30.00    4.90
   2  -6   3   18.10    4.40
   2  -6   3   25.50    3.80
   2  -6   3   22.00    3.60
   2  -6   3   20.00    3.60
  -3   6  -3   53.79    5.50
   3  -6   3   70.09    7.30
   3  -6   3   46.20    7.70
  -4   6  -3   68.29    7.70
  -4   6  -3   56.19    6.60
  -4   6  -3   62.89    8.70
  -4   6  -3   64.19    8.20
  -4   6  -3   63.09   10.50
   4  -6   3   69.19    5.60
  -5   6  -3    4.10   10.00
  -5   6  -3  -10.30   10.90
  -5   6  -3   10.30   14.00
   5  -6   3   11.90    7.50
   5  -6   3   11.60    9.70
   5   5  -3   25.20   11.10
   5   5  -3    6.30    9.00
   5   5  -3   19.40    9.90
   5   5  -3   21.00   17.80
   5   5  -3    9.40   11.70
  -5  -5   3    8.10    8.30
  -5  -5   3   -0.70   10.60
  -5  -5   3  -11.10   11.30
   4   5  -3   24.00    7.70
   4   5  -3   19.60   10.00
   4   5  -3   16.00    7.40
   4   5  -3   26.80    8.00
   4   5  -3   19.60    6.40
  -4  -5   3   26.80    5.50
  -4  -5   3   29.20    7.20
  -4  -5   3   32.20   10.50
  -4  -5   3   22.70    7.20
   3   5  -3  153.78   10.10
   3   5  -3  190.18    8.70
   3   5  -3  171.98   10.30
   3   5  -3  167.48    9.00
   3   5  -3  166.08    8.90
  -3  -5   3  175.68    8.60
  -3  -5   3  176.08    6.40
  -3  -5   3  171.08    9.90
  -3  -5   3  164.08    9.20
  -3  -5   3  167.38    8.60
  -3  -5   3  157.98   10.00
   2   5  -3  298.37    9.30
   2   5  -3  299.67    9.20
   2   5  -3  304.37    9.00
   2   5  -3  310.17    9.00
   2   5  -3  295.27    9.40
  -2  -5   3  305.47    9.80
  -2  -5   3  306.57    8.00
  -2  -5   3  294.67    9.50
  -2  -5   3  307.27    8.30
  -2  -5   3  299.37    9.20
   1   5  -3 1144.29   21.70
   1   5  -3 1199.88   21.90
   1   5  -3 1168.88   21.80
   1   5  -3 1140.39   22.40
  -1  -5   3 1165.98   21.10
  -1  -5   3 1184.68   22.20
  -1  -5   3 1149.58   21.20
  -1  -5   3 1135.39   21.60
  -1  -5   3 1170.48   22.80
   0   5  -3 1929.81   33.90
   0   5  -3 1981.90   35.40
   0   5  -3 1905.91   34.20
   0   5  -3 1969.90   34.10
   0   5  -3 1957.20   34.10
   0   5  -3 1941.71   34.60
   0   5  -3 1927.91   34.90
   0  -5   3 1936.01   34.30
   0  -5   3 1959.10   35.20
   0  -5   3 1906.01   34.00
   0  -5   3 1952.60   33.80
   0  -5   3 1934.41   34.60
  -1   5  -3  878.31   18.10
  -1   5  -3  898.21   17.30
  -1   5  -3  905.11   17.10
  -1   5  -3  915.81   17.10
  -1   5  -3  875.71   17.60
  -1   5  -3  881.51   16.30
  -1   5  -3  876.11   16.60
   1  -5   3  906.91   16.20
   1  -5   3  909.31   17.40
   1  -5   3  894.41   16.20
   1  -5   3  893.81   16.40
  -2   5  -3  420.06   11.60
  -2   5  -3  419.66    9.80
  -2   5  -3  401.96   10.10
  -2   5  -3  398.06   11.40
  -2   5  -3  410.16   10.30
  -2   5  -3  407.36    9.10
  -2   5  -3  403.36    8.90
   2  -5   3  414.56   11.00
   2  -5   3  425.46    9.20
   2  -5   3  408.36    9.30
   2  -5   3  410.26    9.70
   2  -5   3  398.36    8.80
  -3   5  -3 1260.17   27.10
  -3   5  -3 1303.37   25.00
  -3   5  -3 1310.17   25.40
  -3   5  -3 1320.77   26.00
  -3   5  -3 1318.67   26.30
   3  -5   3 1342.37   24.70
   3  -5   3 1315.37   27.20
   3  -5   3 1312.07   25.60
   3  -5   3 1319.57   24.50
   3  -5   3 1326.97   25.60
   3  -5   3 1291.37   26.10
  -4   5  -3   -3.00    5.80
  -4   5  -3   -2.50    6.70
  -4   5  -3   -5.20    7.10
  -4   5  -3    5.80    6.50
   4  -5   3    5.90    5.30
   4  -5   3    2.10    6.30
   4  -5   3    1.30    6.90
  -5   5  -3    6.50   13.10
  -5   5  -3    9.40   10.30
  -5   5  -3   10.10   10.00
   5  -5   3    9.80    7.00
   5  -5   3    6.20    8.50
  -6   5  -3   -2.50   17.00
  -6   5  -3   -5.90   20.10
   5   4  -3   67.89   16.30
   5   4  -3   78.49   11.30
   5   4  -3   75.59    9.60
  -5  -4   3   87.79    9.10
  -5  -4   3   88.99   11.00
   4   4  -3   32.10    9.60
   4   4  -3   54.29    6.60
   4   4  -3   33.70    7.20
   4   4  -3   43.90    6.70
   4   4  -3   42.00    9.00
   4   4  -3   41.20    7.40
  -4  -4   3   36.50    5.60
  -4  -4   3   49.50    7.70
  -4  -4   3   43.60    9.60
  -4  -4   3   37.50    6.90
   3   4  -3   76.39    6.90
   3   4  -3   48.50    4.70
   3   4  -3   52.99    5.30
   3   4  -3   47.20    5.80
   3   4  -3   46.80    6.20
   3   4  -3   52.49    6.60
  -3  -4   3   50.39    4.20
  -3  -4   3   61.49    5.50
  -3  -4   3   48.40    5.80
  -3  -4   3   50.19    5.60
  -3  -4   3   37.20    6.20
  -3  -4   3   54.49    6.30
   2   4  -3   45.10    4.10
   2   4  -3   37.70    4.40
   2   4  -3   44.50    4.10
   2   4  -3   42.60    4.30
   2   4  -3   38.20    4.60
  -2  -4   3   44.30    4.40
  -2  -4   3   44.40    4.10
  -2  -4   3   45.90    3.80
  -2  -4   3   46.70    5.30
  -2  -4   3   40.40    4.50
  -2  -4   3   44.80    3.40
   1   4  -3  407.46    7.80
   1   4  -3  397.76    9.10
   1   4  -3  395.46    8.90
   1   4  -3  415.06    9.10
   1   4  -3  407.06    9.50
   1   4  -3  399.66    8.90
  -1  -4   3  380.26    8.80
  -1  -4   3  397.86    9.10
  -1  -4   3  399.36    9.80
  -1  -4   3  396.16    8.70
  -1  -4   3  404.96    8.50
  -1  -4   3  388.76    8.40
   0   4  -3  760.22   14.00
   0   4  -3  749.92   14.60
   0   4  -3  750.52   13.90
   0   4  -3  749.23   14.20
   0   4  -3  750.42   14.40
   0   4  -3  734.33   14.80
   0   4  -3  734.63   13.90
   0  -4   3  744.13   14.20
   0  -4   3  780.82   14.40
   0  -4   3  742.63   14.80
   0  -4   3  752.12   13.90
   0  -4   3  738.93   13.70
   0  -4   3  739.83   14.00
  -1   4  -3 2427.66   42.60
  -1   4  -3 2425.86   43.20
  -1   4  -3 2374.96   42.00
  -1   4  -3 2394.36   42.20
  -1   4  -3 2399.36   42.30
  -1   4  -3 2279.07   42.70
  -1   4  -3 2426.26   41.80
   1  -4   3 2455.25   42.40
   1  -4   3 2548.95   43.80
   1  -4   3 2475.45   43.10
   1  -4   3 2414.46   41.90
   1  -4   3 2452.95   42.50
   1  -4   3 2367.76   41.70
   1  -4   3 2462.95   41.80
  -2   4  -3  494.55   12.20
  -2   4  -3  491.05   11.40
  -2   4  -3  501.25   10.10
  -2   4  -3  505.25   10.80
  -2   4  -3  498.15   11.20
  -2   4  -3  494.95   10.40
   2  -4   3  511.65   10.70
   2  -4   3  490.95   10.40
   2  -4   3  501.45   11.40
   2  -4   3  497.15   10.90
   2  -4   3  492.05   11.80
   2  -4   3  492.55   10.90
   2  -4   3  477.85   10.20
  -3   4  -3    1.20    5.60
  -3   4  -3   -0.20    4.00
  -3   4  -3    2.00    3.90
  -3   4  -3   -0.40    3.70
  -3   4  -3    5.30    4.70
   3  -4   3   -2.00    3.70
   3  -4   3    5.20    5.00
   3  -4   3    6.50    4.00
   3  -4   3   -2.50    4.00
   3  -4   3    0.30    4.30
   3  -4   3    8.20    5.00
  -4   4  -3  576.14   15.30
  -4   4  -3  594.54   16.10
  -4   4  -3  574.74   16.30
  -4   4  -3  540.85   15.40
  -4   4  -3  605.74   18.40
   4  -4   3  571.04   17.20
   4  -4   3  572.64   17.70
   4  -4   3  607.24   14.90
   4  -4   3  567.64   16.10
   4  -4   3  596.24   15.60
  -5   4  -3   19.40    8.90
  -5   4  -3   28.80   11.10
  -5   4  -3   22.40    9.50
  -5   4  -3   16.00    9.60
   5  -4   3   16.60    9.40
   5  -4   3    7.50    8.80
   5  -4   3   13.60    7.90
  -6   4  -3   -0.70   15.60
  -6   4  -3   20.30   18.40
  -6   4  -3    6.10   13.70
   6  -4   3    9.40   12.30
   6  -4   3   43.00   12.10
   6   3  -3   24.60   14.80
   6   3  -3    3.80   14.30
   6   3  -3   33.60   17.50
  -6  -3   3   -2.40   15.70
  -6  -3   3   -8.40   13.20
   5   3  -3  129.19   13.40
   5   3  -3  133.89   18.90
   5   3  -3  146.79   14.20
   5   3  -3  174.28   11.30
   5   3  -3  150.58   12.60
  -5  -3   3  137.39   14.60
  -5  -3   3  144.59   14.40
   4   3  -3   82.79    8.70
   4   3  -3   87.39    9.00
   4   3  -3   91.59    8.40
   4   3  -3   89.09    8.00
   4   3  -3   91.19    9.30
  -4  -3   3  100.39    9.60
  -4  -3   3   82.59    7.90
  -4  -3   3   95.89    7.30
   3   3  -3  114.09    8.20
   3   3  -3  105.69    7.10
   3   3  -3  112.79    8.20
   3   3  -3  105.59    6.60
   3   3  -3   96.29    6.90
   3   3  -3  106.39    6.40
  -3  -3   3  110.59    6.70
  -3  -3   3   99.69    6.80
  -3  -3   3  118.19    7.70
  -3  -3   3   98.89    8.00
  -3  -3   3  107.59    6.10
  -3  -3   3  114.09    7.10
   2   3  -3  606.34   12.90
   2   3  -3  599.54   13.20
   2   3  -3  600.44   12.80
   2   3  -3  593.24   13.10
   2   3  -3  603.74   13.00
   2   3  -3  593.54   12.00
  -2  -3   3  593.84   13.10
  -2  -3   3  607.34   13.20
  -2  -3   3  597.14   12.60
  -2  -3   3  594.64   11.80
  -2  -3   3  603.64   12.60
   1   3  -3 1090.59   19.60
   1   3  -3 1056.39   18.80
   1   3  -3 1057.59   19.60
   1   3  -3 1041.80   19.40
   1   3  -3 1024.60   19.70
   1   3  -3 1039.50   19.50
  -1  -3   3 1031.60   19.50
  -1  -3   3 1063.69   19.60
  -1  -3   3 1050.49   19.90
  -1  -3   3 1066.09   18.70
  -1  -3   3 1061.59   19.20
  -1  -3   3 1054.09   19.20
   0   3  -3 1400.56   24.00
   0   3  -3 1360.26   24.50
   0   3  -3 1389.96   24.50
   0   3  -3 1371.06   24.00
   0   3  -3 1390.06   24.70
   0   3  -3 1346.87   24.20
   0   3  -3 1389.66   24.10
   0  -3   3 1314.07   24.10
   0  -3   3 1339.57   24.00
   0  -3   3 1363.46   23.90
   0  -3   3 1378.76   24.30
   0  -3   3 1358.46   24.60
   0  -3   3 1328.67   24.10
  -1   3  -3  458.35    9.30
  -1   3  -3  455.75   10.20
  -1   3  -3  473.85    9.50
  -1   3  -3  460.85   10.40
  -1   3  -3  477.75    9.80
  -1   3  -3  480.35    9.20
  -1   3  -3  476.35    9.80
   1  -3   3  473.65   10.30
   1  -3   3  481.05    9.40
   1  -3   3  464.45    9.30
   1  -3   3  470.55    9.80
   1  -3   3  474.75    9.60
   1  -3   3  474.85    9.40
  -2   3  -3  352.46    8.60
  -2   3  -3  329.87    8.50
  -2   3  -3  324.97    9.40
  -2   3  -3  325.47    7.70
  -2   3  -3  317.67    7.80
  -2   3  -3  327.47    9.10
   2  -3   3  319.27    8.00
   2  -3   3  332.47    9.20
   2  -3   3  335.97    8.60
   2  -3   3  326.87    7.20
   2  -3   3  348.77    8.00
   2  -3   3  332.17    8.00
  -3   3  -3  398.76   11.20
  -3   3  -3  405.86   11.00
  -3   3  -3  386.76   10.30
  -3   3  -3  399.26   10.20
  -3   3  -3  379.16   12.00
   3  -3   3  377.96   10.20
   3  -3   3  383.96    8.40
   3  -3   3  387.16   10.20
   3  -3   3  388.66   11.70
   3  -3   3  393.06   11.00
  -4   3  -3  352.16   12.30
  -4   3  -3  340.57   11.60
  -4   3  -3  323.97   11.90
  -4   3  -3  361.06   12.70
  -4   3  -3  359.16   13.90
   4  -3   3  343.37   12.40
   4  -3   3  341.47   14.80
   4  -3   3  342.87   11.70
   4  -3   3  319.87   12.90
   4  -3   3  344.57   11.10
   4  -3   3  355.96   11.90
  -5   3  -3   49.70   10.40
  -5   3  -3   46.10   11.70
  -5   3  -3   51.39    9.30
  -5   3  -3   42.90    9.70
   5  -3   3   50.19    8.30
   5  -3   3   51.89   10.50
   5  -3   3   50.89    8.20
   5  -3   3   44.80    9.70
  -6   3  -3  -22.40   14.80
  -6   3  -3    3.10   14.40
  -6   3  -3    8.90   17.40
   6  -3   3  -22.40   11.70
   6  -3   3   13.90   11.50
   6   2  -3   32.50   14.80
   6   2  -3    3.20   12.50
  -6  -2   3   -4.00   15.30
  -6  -2   3    3.80   14.10
   5   2  -3  -11.20    9.60
   5   2  -3    3.70    6.50
   5   2  -3    3.80    8.70
   5   2  -3    5.20    8.30
  -5  -2   3   -6.80   11.70
  -5  -2   3   12.40    9.20
   4   2  -3   34.10    8.10
   4   2  -3   29.10    6.00
   4   2  -3   43.50    7.70
   4   2  -3   28.90    5.30
   4   2  -3   30.20    8.40
   4   2  -3   40.00    6.50
   4   2  -3   26.20    7.80
  -4  -2   3   33.90    7.30
  -4  -2   3   19.80    8.00
   3   2  -3  139.69    7.70
   3   2  -3  136.69    7.80
   3   2  -3  131.99    6.40
   3   2  -3  133.19    7.00
   3   2  -3  141.79    6.90
   3   2  -3  130.39    6.20
   3   2  -3  131.69    7.90
  -3  -2   3  140.59    7.00
  -3  -2   3  144.29    7.10
  -3  -2   3  137.99    8.00
  -3  -2   3  129.99    7.40
   2   2  -3  520.45   10.90
   2   2  -3  546.55   11.40
   2   2  -3  532.35   11.60
   2   2  -3  555.84   12.00
   2   2  -3  550.04   11.80
   2   2  -3  532.05   11.50
  -2  -2   3  546.75   11.90
  -2  -2   3  524.35   11.70
  -2  -2   3  530.85   11.50
  -2  -2   3  534.05   11.00
  -2  -2   3  545.65   11.40
  -2  -2   3  533.75   11.60
   1   2  -3 2256.87   38.50
   1   2  -3 2195.48   38.50
   1   2  -3 2170.38   38.40
   1   2  -3 2257.07   38.60
   1   2  -3 2154.38   38.40
   1   2  -3 2180.18   38.10
  -1  -2   3 2186.28   38.50
  -1  -2   3 2204.98   38.70
  -1  -2   3 2166.68   38.00
  -1  -2   3 2289.77   38.70
  -1  -2   3 2164.38   38.30
  -1  -2   3 2186.28   38.30
   0   2  -3  253.47    5.40
   0   2  -3  258.27    5.30
   0   2  -3  250.57    5.70
   0   2  -3  249.58    5.50
   0   2  -3  251.27    5.70
   0   2  -3  253.77    5.90
   0   2  -3  247.08    5.70
   0  -2   3  247.08    5.80
   0  -2   3  243.78    5.60
   0  -2   3  252.47    5.30
   0  -2   3  254.27    5.30
   0  -2   3  248.18    5.60
   0  -2   3  254.87    5.80
  -1   2  -3 1592.14   28.90
  -1   2  -3 1610.74   28.90
  -1   2  -3 1597.24   28.20
  -1   2  -3 1613.64   28.60
  -1   2  -3 1577.24   28.50
  -1   2  -3 1608.54   28.20
  -1   2  -3 1629.04   28.10
   1  -2   3 1598.54   28.30
   1  -2   3 1632.44   28.60
   1  -2   3 1644.34   28.30
   1  -2   3 1620.44   28.80
   1  -2   3 1615.34   28.20
   1  -2   3 1613.34   28.30
  -2   2  -3  203.68    6.80
  -2   2  -3  202.08    6.70
  -2   2  -3  198.08    6.90
  -2   2  -3  192.18    5.70
  -2   2  -3  200.38    6.60
  -2   2  -3  189.58    5.80
   2  -2   3  196.18    6.80
   2  -2   3  193.58    6.10
   2  -2   3  195.88    5.00
   2  -2   3  205.18    6.20
   2  -2   3  189.68    6.20
   2  -2   3  194.38    6.60
  -3   2  -3   77.99    7.70
  -3   2  -3   61.79    5.80
  -3   2  -3   73.19    5.60
  -3   2  -3   75.79    6.10
  -3   2  -3   70.69    5.30
   3  -2   3   60.79    5.80
   3  -2   3   85.09    6.90
   3  -2   3   62.99    6.60
   3  -2   3   78.59    4.00
   3  -2   3   77.29    6.20
  -4   2  -3  133.29    8.80
  -4   2  -3  130.59    9.60
  -4   2  -3  114.29    9.00
  -4   2  -3  139.39    9.90
  -4   2  -3  124.89   11.20
   4  -2   3  117.19   11.30
   4  -2   3  127.09    8.40
   4  -2   3  122.49    5.50
   4  -2   3  118.89   11.40
   4  -2   3  124.09    9.40
  -5   2  -3   32.50    8.90
  -5   2  -3   27.30    9.10
  -5   2  -3   37.20   10.80
   5  -2   3   29.30    8.00
   5  -2   3   26.90    8.70
  -6   2  -3    5.70   13.30
  -6   2  -3    2.10   16.50
  -6   2  -3   15.20   12.90
   6  -2   3    7.60   11.40
   6  -2   3    3.00   11.70
   6   1  -3   -4.20   14.00
   6   1  -3  -25.90   12.80
  -6  -1   3   21.90   13.80
  -6  -1   3   22.90   14.70
   5   1  -3    6.90    8.80
   5   1  -3   13.80    5.90
   5   1  -3   14.20    8.60
   5   1  -3    3.40    9.40
  -5  -1   3   15.20    9.60
  -5  -1   3   17.80   11.10
   4   1  -3  897.51   19.40
   4   1  -3  827.42   20.50
   4   1  -3  867.51   17.70
   4   1  -3  858.21   20.10
   4   1  -3  863.71   19.30
   4   1  -3  844.12   21.40
  -4  -1   3  865.31   19.50
  -4  -1   3  885.51   20.20
   3   1  -3   58.79    4.70
   3   1  -3   55.19    5.50
   3   1  -3   46.90    5.20
   3   1  -3   52.49    4.70
   3   1  -3   57.59    4.70
   3   1  -3   59.89    5.20
  -3  -1   3   50.09    5.00
  -3  -1   3   53.59    4.70
  -3  -1   3   54.99    5.40
  -3  -1   3   58.69    5.10
  -3  -1   3   55.09    5.40
   2   1  -3  135.89    5.30
   2   1  -3  139.89    4.70
   2   1  -3  132.09    5.00
   2   1  -3  135.09    5.70
   2   1  -3  139.99    5.60
   2   1  -3  144.49    4.90
   2   1  -3  130.09    5.70
  -2  -1   3  136.69    4.90
  -2  -1   3  129.89    5.60
  -2  -1   3  135.49    5.10
  -2  -1   3  135.59    5.70
  -2  -1   3  130.99    5.50
  -2  -1   3  137.89    5.20
   1   1  -3  738.63   14.10
   1   1  -3  736.33   14.00
   1   1  -3  733.53   14.00
   1   1  -3  748.53   13.60
   1   1  -3  771.22   14.20
   1   1  -3  760.12   14.00
  -1  -1   3  771.62   14.20
  -1  -1   3  765.32   14.10
  -1  -1   3  756.82   14.10
  -1  -1   3  763.52   13.90
  -1  -1   3  759.02   13.80
  -1  -1   3  755.62   13.90
  -1  -1   3  767.92   14.20
   0   1  -3    2.70    1.20
   0   1  -3    1.30    1.30
   0   1  -3    2.00    1.50
   0   1  -3   -1.90    1.40
   0   1  -3    2.80    1.50
   0   1  -3    0.60    1.00
   0   1  -3    1.30    1.70
   0  -1   3   -0.90    1.40
   0  -1   3    0.70    1.10
   0  -1   3    2.20    1.30
   0  -1   3    3.00    1.40
   0  -1   3    1.20    1.60
   0  -1   3    0.60    1.10
  -1   1  -3  941.21   17.30
  -1   1  -3  958.10   16.90
  -1   1  -3  933.41   17.00
  -1   1  -3  939.01   17.50
  -1   1  -3  956.00   17.40
  -1   1  -3  913.31   17.40
   1  -1   3  932.71   17.40
   1  -1   3  968.30   17.00
   1  -1   3  953.30   17.40
   1  -1   3  955.80   17.10
   1  -1   3  954.90   16.90
   1  -1   3  916.61   17.50
   1  -1   3  956.30   17.30
  -2   1  -3   55.39    3.50
  -2   1  -3   52.99    3.90
  -2   1  -3   54.59    4.20
  -2   1  -3   54.59    4.30
  -2   1  -3   60.19    5.50
  -2   1  -3   60.09    4.40
   2  -1   3   57.59    4.20
   2  -1   3   57.49    4.10
   2  -1   3   59.59    5.20
   2  -1   3   54.29    4.20
  -3   1  -3   73.09    5.80
  -3   1  -3   60.19    5.30
  -3   1  -3   55.19    5.40
  -3   1  -3   58.49    5.40
  -3   1  -3   61.29    5.50
  -3   1  -3   58.59    4.90
   3  -1   3   53.59    5.30
   3  -1   3   74.19    5.90
   3  -1   3   63.99    6.10
   3  -1   3   60.49    5.50
   3  -1   3   62.89    4.80
  -4   1  -3   69.59    7.00
  -4   1  -3   86.99    6.60
  -4   1  -3   93.29    8.20
  -4   1  -3   79.49    7.70
  -4   1  -3   91.29    9.90
  -4   1  -3   85.19    6.90
   4  -1   3   73.49    6.70
   4  -1   3   76.19    7.50
   4  -1   3   83.09    7.90
   4  -1   3   92.29    7.90
   4  -1   3   85.69    8.40
  -5   1  -3   36.10   10.30
  -5   1  -3   29.70    8.90
  -5   1  -3   35.90    9.00
  -5   1  -3   35.00    9.10
   5  -1   3   32.10   11.20
   5  -1   3   47.00    8.70
   5  -1   3   27.70    8.20
  -6   1  -3    5.90   12.90
  -6   1  -3   -1.20   13.00
   6  -1   3   11.60   13.90
   6  -1   3   10.70   11.10
   6  -1   3    6.00   12.20
   6   0  -3  -22.20   12.80
   6   0  -3   10.40   12.70
  -6   0   3   10.90   14.60
   5   0  -3    4.60    7.40
   5   0  -3    9.00   10.30
   5   0  -3   23.10    8.90
  -5   0   3   10.00    9.20
  -5   0   3   -0.50   10.80
  -5   0   3   14.00    8.80
   4   0  -3   -2.20    5.20
   4   0  -3   -1.20    6.20
   4   0  -3    7.20    3.90
   4   0  -3    2.10    5.10
   4   0  -3   -3.50    6.60
   4   0  -3    2.20    8.10
  -4   0   3    1.20    7.30
  -4   0   3   -2.40    6.50
  -4   0   3    6.80    6.00
  -4   0   3    3.10    5.50
   3   0  -3  104.79    6.00
   3   0  -3   95.99    4.40
   3   0  -3   99.79    6.30
   3   0  -3   97.09    7.00
   3   0  -3  100.69    7.20
   3   0  -3  100.69    6.90
   3   0  -3   92.89    6.40
  -3   0   3   93.19    6.50
  -3   0   3   99.49    6.90
  -3   0   3   95.39    5.10
  -3   0   3   88.49    6.60
  -3   0   3   96.09    6.00
   2   0  -3  945.11   18.20
   2   0  -3  947.31   18.20
   2   0  -3  941.41   17.20
   2   0  -3  925.81   17.80
   2   0  -3  941.61   17.80
   2   0  -3  915.51   18.00
   2   0  -3  945.41   18.00
  -2   0   3  936.31   18.10
  -2   0   3  929.31   18.10
  -2   0   3  977.50   18.20
  -2   0   3  956.00   17.40
   1   0  -3  301.67    6.60
   1   0  -3  289.07    6.00
   1   0  -3  288.07    6.30
   1   0  -3  287.97    6.40
   1   0  -3  295.57    6.10
  -1   0   3  283.97    6.10
  -1   0   3  297.57    6.20
  -1   0   3  299.67    6.40
  -1   0   3  292.67    6.30
  -1   0   3  292.67    6.50
  -1   0   3  288.47    6.30
  -1   0   3  280.57    6.40
   0   0  -3  170.88    4.00
   0   0  -3  168.98    4.20
   0   0  -3  170.78    3.80
   0   0  -3  167.38    3.80
   0   0  -3  173.58    4.10
   0   0  -3  179.38    3.70
   0   0  -3  166.08    4.10
   0   0   3  170.38    4.20
   0   0   3  162.68    3.90
   0   0   3  176.38    3.70
   0   0   3  169.38    3.80
   0   0   3  168.68    3.70
   0   0   3  173.98    4.00
   0   0   3  170.08    4.10
  -1   0  -3  385.36    7.60
  -1   0  -3  379.56    8.10
  -1   0  -3  387.76    8.00
  -1   0  -3  395.46    8.20
  -1   0  -3  380.56    7.70
   1   0   3  392.26    8.10
   1   0   3  387.96    8.20
   1   0   3  393.46    7.70
   1   0   3  386.36    8.00
   1   0   3  390.56    7.70
   1   0   3  385.36    8.10
  -2   0  -3  144.59    5.70
  -2   0  -3  142.79    4.80
  -2   0  -3  148.79    5.50
  -2   0  -3  160.18    5.70
  -2   0  -3  148.49    4.90
  -2   0  -3  148.79    5.80
   2   0   3  143.99    5.10
   2   0   3  149.49    6.10
   2   0   3  149.99    5.30
   2   0   3  151.78    5.00
   2   0   3  148.39    5.70
  -3   0  -3   30.90    4.80
  -3   0  -3   33.80    4.20
  -3   0  -3   21.60    4.20
  -3   0  -3   29.90    3.60
  -3   0  -3   28.70    4.60
  -3   0  -3   31.60    3.60
   3   0   3   36.50    5.00
   3   0   3   31.40    4.00
   3   0   3   24.60    4.30
   3   0   3   28.60    4.30
   3   0   3   33.20    3.90
  -4   0  -3  586.94   16.40
  -4   0  -3  599.74   14.80
  -4   0  -3  598.94   15.60
  -4   0  -3  602.14   15.50
  -4   0  -3  619.34   16.60
   4   0   3  576.24   16.30
   4   0   3  600.44   16.30
   4   0   3  592.44   16.00
   4   0   3  611.74   15.70
   4   0   3  596.24   15.00
  -5   0  -3    1.60    9.30
  -5   0  -3  -10.80    8.10
  -5   0  -3   -7.40    8.00
  -5   0  -3    1.30    8.10
   5   0   3    7.90    7.50
   5   0   3   -1.20    6.00
   5   0   3    5.20    8.20
   5   0   3    7.50   11.00
  -6   0  -3   27.80   14.50
  -6   0  -3   -4.10   12.60
   6   0   3   -6.00   11.30
   6   0   3   19.10   11.90
   6   0   3   -9.70   13.10
   6  -1  -3   -5.60   11.80
   6  -1  -3   23.40   12.20
  -6   1   3   11.00   15.00
   5  -1  -3  119.89   11.20
   5  -1  -3  121.39    9.70
   5  -1  -3  114.09    9.20
  -5   1   3  105.99   10.40
  -5   1   3  108.39   11.30
   4  -1  -3   60.79    7.90
   4  -1  -3   53.29    6.00
   4  -1  -3   50.89    7.10
   4  -1  -3   53.39    7.20
   4  -1  -3   47.60    5.70
  -4   1   3   56.59    7.60
  -4   1   3   52.39    7.70
  -4   1   3   63.19    6.80
  -4   1   3   55.79    6.30
   3  -1  -3  431.16   11.30
   3  -1  -3  455.15   11.00
   3  -1  -3  450.45   10.60
   3  -1  -3  452.85   11.60
   3  -1  -3  448.76   11.40
  -3   1   3  456.15   11.40
  -3   1   3  438.46   11.60
  -3   1   3  446.76   11.00
  -3   1   3  426.76   11.80
   2  -1  -3  479.15    9.10
   2  -1  -3  475.85   10.20
   2  -1  -3  458.55    9.80
   2  -1  -3  453.45   10.30
   2  -1  -3  491.45   10.40
   2  -1  -3  482.05   10.40
   2  -1  -3  460.65   10.30
  -2   1   3  469.95   10.40
  -2   1   3  468.85   10.40
  -2   1   3  478.05    9.30
  -2   1   3  473.45   10.20
  -2   1   3  481.95   10.20
   1  -1  -3 4074.09   69.29
   1  -1  -3 4014.30   69.29
   1  -1  -3 4036.40   69.09
   1  -1  -3 4133.09   69.29
   1  -1  -3 4034.50   69.29
   1  -1  -3 4087.49   68.89
  -1   1   3 4143.09   69.39
  -1   1   3 3944.21   69.59
  -1   1   3 4071.19   69.39
  -1   1   3 4104.69   68.99
  -1   1   3 4114.89   69.29
  -1   1   3 4020.40   69.19
  -1   1   3 4064.39   69.39
   0  -1  -3  800.62   13.50
   0  -1  -3  744.53   13.80
   0  -1  -3  774.22   13.50
   0  -1  -3  792.12   14.00
   0   1   3  772.92   13.80
   0   1   3  788.92   14.00
   0   1   3  695.73   13.80
   0   1   3  793.32   13.80
   0   1   3  774.42   13.50
  -1  -1  -3   40.80    2.80
  -1  -1  -3   43.30    2.70
  -1  -1  -3   39.30    2.90
  -1  -1  -3   44.50    2.40
  -1  -1  -3   44.20    3.10
  -1  -1  -3   40.70    2.30
   1   1   3   35.30    2.80
   1   1   3   39.70    3.10
   1   1   3   42.40    2.30
   1   1   3   40.40    2.50
   1   1   3   41.30    2.90
   1   1   3   36.40    2.90
  -2  -1  -3 3415.66   59.39
  -2  -1  -3 3391.46   59.79
  -2  -1  -3 3499.05   60.19
  -2  -1  -3 3455.15   59.89
  -2  -1  -3 3513.55   59.49
  -2  -1  -3 3363.26   59.69
   2   1   3 3413.56   59.79
   2   1   3 3482.55   60.09
   2   1   3 3455.65   59.59
   2   1   3 3383.96   59.79
   2   1   3 3378.26   59.59
  -3  -1  -3  286.07    8.30
  -3  -1  -3  287.17    9.90
  -3  -1  -3  284.57    8.80
  -3  -1  -3  287.37    8.40
  -3  -1  -3  283.27    8.90
   3   1   3  283.07    9.30
   3   1   3  297.97    9.90
   3   1   3  277.37    8.70
   3   1   3  282.67    9.00
   3   1   3  278.27    8.60
  -4  -1  -3   14.60    5.60
  -4  -1  -3   10.90    5.40
  -4  -1  -3   20.30    5.70
  -4  -1  -3   21.80    5.70
  -4  -1  -3   13.60    6.50
   4   1   3   11.70    5.50
   4   1   3   10.30    5.30
   4   1   3    1.30    6.30
   4   1   3    9.10    4.60
   4   1   3   23.00    6.50
   4   1   3    7.10    6.40
  -5  -1  -3   34.10    8.60
  -5  -1  -3   23.60    8.80
  -5  -1  -3   45.30    8.60
   5   1   3   40.20   11.10
   5   1   3   14.10    7.00
   5   1   3   20.80    8.00
   5   1   3   18.70    9.00
  -6  -1  -3   12.70   15.70
  -6  -1  -3   -1.60   13.00
  -6  -1  -3    9.50   12.60
   6   1   3   -3.90   12.20
   6   1   3   14.30    9.40
   6   1   3   14.70   13.60
   6  -2  -3    8.30   12.00
   6  -2  -3   42.20   12.30
  -6   2   3   51.39   15.70
   5  -2  -3   43.60   11.50
   5  -2  -3   69.49    8.90
   5  -2  -3   78.19   10.40
   5  -2  -3   70.69    8.10
  -5   2   3   84.49   10.40
  -5   2   3   69.49    9.20
  -5   2   3   67.39   10.40
   4  -2  -3   -0.40    5.80
   4  -2  -3    3.10    6.40
   4  -2  -3    4.20    7.10
   4  -2  -3    3.10    5.00
   4  -2  -3   -1.10    5.20
  -4   2   3    6.10    5.60
  -4   2   3    8.00    6.60
  -4   2   3   -4.40    6.20
  -4   2   3    7.10    6.70
   3  -2  -3  166.48    6.30
   3  -2  -3  163.38    7.10
   3  -2  -3  165.28    7.30
   3  -2  -3  170.48    7.60
   3  -2  -3  149.79    7.20
   3  -2  -3  160.58    7.90
  -3   2   3  158.98    7.70
  -3   2   3  166.18    7.10
  -3   2   3  159.68    7.70
  -3   2   3  169.78    7.80
  -3   2   3  169.38    7.70
   2  -2  -3 1283.27   23.20
   2  -2  -3 1298.77   23.80
   2  -2  -3 1299.67   23.70
   2  -2  -3 1321.87   23.70
   2  -2  -3 1342.97   24.10
   2  -2  -3 1270.37   24.00
  -2   2   3 1288.77   23.70
  -2   2   3 1278.77   23.80
  -2   2   3 1307.07   23.90
  -2   2   3 1318.97   23.80
  -2   2   3 1331.47   24.00
  -2   2   3 1310.47   24.30
   1  -2  -3  577.94   10.80
   1  -2  -3  553.64   10.60
   1  -2  -3  559.94   10.20
   1  -2  -3  543.05   10.40
  -1   2   3  582.44   10.50
  -1   2   3  579.34   10.30
  -1   2   3  563.54   10.40
  -1   2   3  566.44   11.30
  -1   2   3  561.44   10.60
  -1   2   3  577.54   11.00
  -1   2   3  526.15   10.60
   0  -2  -3 2024.00   33.70
   0  -2  -3 1982.70   34.00
   0  -2  -3 1995.40   34.30
   0   2   3 1926.41   33.70
   0   2   3 2011.90   34.00
   0   2   3 2001.30   34.20
   0   2   3 1941.81   33.70
   0   2   3 1972.80   34.30
  -1  -2  -3 6941.61  117.39
  -1  -2  -3 6861.01  117.29
  -1  -2  -3 6969.30  117.79
   1   2   3 6950.10  117.59
   1   2   3 6838.22  117.49
   1   2   3 6975.80  117.69
   1   2   3 6992.40  117.69
   1   2   3 6961.00  117.89
  -2  -2  -3   29.30    3.40
  -2  -2  -3   24.70    3.00
  -2  -2  -3   25.20    2.80
  -2  -2  -3   23.70    3.10
  -2  -2  -3   24.20    2.60
   2   2   3   27.40    3.10
   2   2   3   22.30    3.30
   2   2   3   29.60    3.50
   2   2   3   21.80    3.10
   2   2   3   24.60    3.00
  -3  -2  -3   24.40    4.10
  -3  -2  -3   26.80    4.10
  -3  -2  -3   27.70    4.10
  -3  -2  -3   30.10    3.90
  -3  -2  -3   30.80    3.90
   3   2   3   28.10    4.60
   3   2   3   33.30    4.90
   3   2   3   32.60    4.30
   3   2   3   27.00    4.70
   3   2   3   27.50    4.10
  -4  -2  -3  299.77   10.80
  -4  -2  -3  312.07   11.60
  -4  -2  -3  298.57   11.10
  -4  -2  -3  289.77   11.00
   4   2   3  302.77   10.10
   4   2   3  300.27   11.40
   4   2   3  300.67   13.00
   4   2   3  287.87   12.00
   4   2   3  306.27   11.00
   4   2   3  303.67   13.40
  -5  -2  -3   18.80    8.30
  -5  -2  -3   11.00   11.00
  -5  -2  -3   35.30    8.20
  -5  -2  -3   35.90    8.40
   5   2   3   19.50    7.00
   5   2   3   34.70    9.20
   5   2   3   39.60   11.00
   5   2   3   20.60    8.20
  -6  -2  -3    5.00   13.10
  -6  -2  -3   29.20   12.90
   6   2   3   -5.50    9.90
   6   2   3   19.20   13.80
   6   2   3   18.30   13.60
  -6   3   3   30.40   16.20
   5  -3  -3    8.40    7.90
   5  -3  -3    3.60   11.40
   5  -3  -3    7.60   10.00
   5  -3  -3   10.70    6.70
  -5   3   3   11.90   10.50
  -5   3   3    4.60   10.20
  -5   3   3   32.70    9.10
   4  -3  -3   35.60    6.80
   4  -3  -3   32.40    5.10
  -4   3   3   24.70    7.00
  -4   3   3   23.00    7.30
  -4   3   3   18.90    6.40
  -4   3   3   22.70    6.70
   3  -3  -3  212.78    7.70
   3  -3  -3  209.48    6.40
   3  -3  -3  200.58    7.40
   3  -3  -3  208.88    8.20
   3  -3  -3  208.98    7.80
   3  -3  -3  213.48    8.10
  -3   3   3  201.68    8.10
  -3   3   3  212.78    8.10
  -3   3   3  199.98    8.00
  -3   3   3  211.78    7.50
  -3   3   3  207.08    8.70
   2  -3  -3 2081.89   37.80
   2  -3  -3 2139.19   37.30
   2  -3  -3 2050.39   37.10
   2  -3  -3 2182.78   36.90
   2  -3  -3 2126.29   36.50
  -2   3   3 2129.39   37.50
  -2   3   3 2106.09   37.50
  -2   3   3 2115.09   37.30
  -2   3   3 2068.59   37.30
  -2   3   3 2206.28   37.60
   1  -3  -3  850.01   15.20
   1  -3  -3  858.31   15.20
   1  -3  -3  846.22   15.80
   1  -3  -3  850.71   15.10
  -1   3   3  836.32   15.00
  -1   3   3  836.92   15.30
  -1   3   3  851.71   15.00
  -1   3   3  842.52   16.00
  -1   3   3  855.91   16.20
  -1   3   3  857.01   15.20
   0  -3  -3 3385.16   58.09
   0   3   3 3471.95   57.59
   0   3   3 3377.26   57.99
   0   3   3 3389.36   57.99
   0   3   3 3337.07   57.39
  -1  -3  -3 5707.93   97.69
  -1  -3  -3 5665.53   97.39
  -1  -3  -3 5677.93   97.59
  -1  -3  -3 5772.02   97.69
   1   3   3 5781.02   97.89
   1   3   3 5793.72   97.89
   1   3   3 5984.90   97.99
   1   3   3 5737.83   97.69
   1   3   3 5693.73   97.89
  -2  -3  -3 1467.65   26.40
  -2  -3  -3 1403.76   26.10
  -2  -3  -3 1451.75   26.80
  -2  -3  -3 1428.26   26.40
  -2  -3  -3 1453.65   26.30
   2   3   3 1480.65   27.30
   2   3   3 1463.85   26.70
   2   3   3 1453.95   26.70
   2   3   3 1423.06   26.70
   2   3   3 1456.25   26.80
  -3  -3  -3  704.83   15.20
  -3  -3  -3  705.03   15.60
  -3  -3  -3  700.73   15.50
  -3  -3  -3  718.03   15.50
  -3  -3  -3  732.53   16.10
   3   3   3  720.03   16.20
   3   3   3  723.43   15.80
   3   3   3  694.23   16.00
   3   3   3  733.13   16.00
   3   3   3  720.03   16.60
  -4  -3  -3  121.49    9.00
  -4  -3  -3  137.49    9.20
  -4  -3  -3  138.09    9.40
  -4  -3  -3  118.39    9.00
   4   3   3  121.39    9.50
   4   3   3  125.29    8.70
   4   3   3  126.29    8.10
   4   3   3  123.99    9.10
  -5  -3  -3   66.19    8.90
  -5  -3  -3   98.29   10.60
  -5  -3  -3   85.19   10.20
  -5  -3  -3   81.29    9.60
   5   3   3   74.69   12.10
   5   3   3   91.69    9.70
   5   3   3   89.09    9.20
   5   3   3   82.19   10.20
  -6  -3  -3  -13.00   13.70
  -6  -3  -3    2.70   13.60
   6   3   3   18.80   13.90
   6   3   3    3.10   11.20
   6   3   3   -4.20   13.20
   5  -4  -3    3.40    8.80
   5  -4  -3    6.50    6.20
  -5   4   3   -0.50    9.40
  -5   4   3   10.90   10.60
   4  -4  -3   48.10    6.40
   4  -4  -3   46.70    4.90
   4  -4  -3   54.49    5.90
  -4   4   3   46.30    8.10
  -4   4   3   39.60    6.00
  -4   4   3   40.60    7.60
  -4   4   3   50.59    7.20
  -4   4   3   52.89    7.50
   3  -4  -3   45.00    4.70
   3  -4  -3   41.00    5.20
   3  -4  -3   38.80    4.50
   3  -4  -3   41.90    4.80
  -3   4   3   43.90    4.70
  -3   4   3   35.70    5.10
  -3   4   3   35.40    5.30
  -3   4   3   33.50    4.00
  -3   4   3   33.10    4.60
   2  -4  -3   25.60    3.10
   2  -4  -3   30.40    2.70
   2  -4  -3   33.30    3.40
   2  -4  -3   24.80    3.20
  -2   4   3   31.60    2.90
  -2   4   3   30.30    3.20
  -2   4   3   30.20    2.90
  -2   4   3   28.50    3.10
  -2   4   3   29.30    3.60
  -2   4   3   23.80    3.70
   1  -4  -3   35.70    3.50
  -1   4   3   38.20    3.10
  -1   4   3   34.40    2.00
  -1   4   3   36.20    2.40
  -1   4   3   33.90    3.10
  -1   4   3   43.20    3.20
   0   4   3 3126.29   54.69
   0   4   3 3234.18   54.69
  -1  -4  -3  113.39    3.50
  -1  -4  -3  112.59    3.60
  -1  -4  -3  110.29    4.00
   1   4   3  116.89    4.00
   1   4   3  115.89    4.30
   1   4   3  112.69    3.90
   1   4   3  110.89    3.70
   1   4   3  105.69    4.10
  -2  -4  -3 3616.14   62.99
  -2  -4  -3 3760.12   63.79
  -2  -4  -3 3583.54   63.09
  -2  -4  -3 3690.43   63.79
  -2  -4  -3 3596.34   63.29
   2   4   3 3637.34   63.69
   2   4   3 3749.52   63.89
   2   4   3 3694.43   63.89
   2   4   3 3685.83   63.79
   2   4   3 3601.84   64.39
  -3  -4  -3   31.80    4.10
  -3  -4  -3   26.00    4.20
  -3  -4  -3   28.40    4.20
  -3  -4  -3   27.50    4.60
  -3  -4  -3   34.30    4.60
   3   4   3   35.20    5.50
   3   4   3   32.50    5.00
   3   4   3   27.20    4.60
   3   4   3   33.20    5.20
   3   4   3   26.60    5.00
   3   4   3   24.30    4.70
  -4  -4  -3   26.30    6.40
  -4  -4  -3   18.20    6.20
  -4  -4  -3   39.70    6.80
  -4  -4  -3   39.00    6.50
   4   4   3   22.50    7.90
   4   4   3   24.30    6.60
   4   4   3   44.90    6.50
   4   4   3   25.30    6.20
  -5  -4  -3   81.59   10.30
  -5  -4  -3  110.39   10.30
  -5  -4  -3   75.09   10.90
   5   4   3   92.09   13.30
   5   4   3   75.99    9.20
   5   4   3   88.79   10.00
  -6  -4  -3   -2.60   13.90
  -6  -4  -3   30.30   13.80
   6   4   3    7.90   14.30
   6   4   3   20.90   12.60
   6   4   3    1.70   14.10
   5  -5  -3   -9.90    9.00
  -5   5   3   -8.90   14.10
  -5   5   3   10.10    8.60
  -5   5   3  -10.20   10.70
   4  -5  -3  322.47   12.50
   4  -5  -3  296.57   11.90
  -4   5   3  323.57   12.40
  -4   5   3  308.27   12.10
  -4   5   3  311.97   14.10
  -4   5   3  325.87   11.40
  -4   5   3  329.37   13.70
   3  -5  -3  101.39    6.60
   3  -5  -3  116.99    7.40
   3  -5  -3  113.89    7.20
  -3   5   3  113.39    7.40
  -3   5   3  129.79    8.40
  -3   5   3  111.89    6.00
  -3   5   3  101.09    7.70
  -3   5   3  103.79    7.00
   2  -5  -3   11.60    2.80
   2  -5  -3   11.50    2.50
   2  -5  -3   10.50    3.30
   2  -5  -3   10.70    3.30
  -2   5   3    9.70    2.90
  -2   5   3   12.50    4.00
  -2   5   3    8.50    2.90
  -2   5   3   10.80    2.90
  -2   5   3   20.10    3.90
  -2   5   3   10.90    2.60
   1  -5  -3 2282.07   40.20
  -1   5   3 2279.87   40.40
  -1   5   3 2251.27   40.40
  -1   5   3 2290.27   40.00
  -1   5   3 2308.27   39.90
   0   5   3  727.73   14.00
   0   5   3  734.43   13.80
  -1  -5  -3   11.70    1.90
  -1  -5  -3   11.50    1.90
  -1  -5  -3   14.30    2.10
   1   5   3   11.50    2.00
   1   5   3   11.60    2.20
   1   5   3   13.10    2.30
   1   5   3    9.00    2.50
   1   5   3   13.90    2.20
  -2  -5  -3  105.59    4.30
  -2  -5  -3   92.49    4.40
  -2  -5  -3   87.19    5.10
  -2  -5  -3   92.69    5.10
  -2  -5  -3   93.99    5.50
   2   5   3   89.29    6.20
   2   5   3   88.29    6.00
   2   5   3   89.49    6.20
   2   5   3   75.69    5.40
   2   5   3   91.29    5.80
  -3  -5  -3  227.48    8.50
  -3  -5  -3  213.98    7.60
  -3  -5  -3  226.48    9.00
  -3  -5  -3  245.18   11.90
  -3  -5  -3  228.48    9.30
   3   5   3  219.08    9.30
   3   5   3  236.68   10.30
   3   5   3  231.68    9.90
   3   5   3  226.58    8.80
   3   5   3  229.48    9.80
   3   5   3  228.48    9.00
  -4  -5  -3   12.50    6.60
  -4  -5  -3   28.40    6.50
  -4  -5  -3   23.70    5.90
  -4  -5  -3   28.70    7.20
   4   5   3   29.40    6.50
   4   5   3   12.40    8.10
   4   5   3   32.60    6.90
   4   5   3   31.10    8.20
   4   5   3   20.40    7.60
  -5  -5  -3   46.90   10.20
  -5  -5  -3   75.09   10.60
   5   5   3   59.59    9.40
   5   5   3   59.59   12.60
   5   5   3   56.59   11.10
   5   5   3   69.99   10.00
  -6  -5  -3  -19.30   13.60
  -6  -5  -3  -10.30   17.90
   6   5   3    6.10   13.20
   6   5   3  -10.50   14.30
   6   5   3   -7.00   17.20
   5  -6  -3   -8.90   10.50
  -5   6   3   10.10   11.80
  -5   6   3    2.30   10.00
  -5   6   3    6.70   11.80
   4  -6  -3   14.10    7.10
   4  -6  -3   11.50    6.80
  -4   6   3   -2.90    8.00
  -4   6   3   13.60    6.60
  -4   6   3    6.70    7.40
  -4   6   3   17.10    8.60
  -4   6   3   -6.50    6.90
   3  -6  -3  121.59    8.10
   3  -6  -3  118.89    6.50
   3  -6  -3  113.09    7.30
  -3   6   3  124.39    9.00
  -3   6   3  127.49    8.20
  -3   6   3  121.29    7.80
  -3   6   3  121.59    6.40
  -3   6   3  105.69    7.60
   2  -6  -3  142.29    6.50
   2  -6  -3  151.78    6.50
  -2   6   3  128.79    5.80
  -2   6   3  149.69    7.60
  -2   6   3  132.39    4.70
  -2   6   3  139.69    6.90
  -2   6   3  129.89    5.60
  -2   6   3  131.79    5.00
   1  -6  -3  676.13   13.70
  -1   6   3  693.43   13.80
  -1   6   3  679.23   14.30
  -1   6   3  675.53   13.80
  -1   6   3  679.93   14.10
   0   6   3   75.19    5.80
   0   6   3   94.79    4.30
   0   6   3   86.99    4.90
  -1  -6  -3  103.99    3.90
  -1  -6  -3  108.59    3.80
   1   6   3  111.79    4.10
   1   6   3  116.19    6.00
   1   6   3  105.49    4.30
   1   6   3  112.09    4.30
   1   6   3  103.29    4.50
   1   6   3  103.49    4.30
  -2  -6  -3   45.40    3.70
  -2  -6  -3   41.50    3.40
  -2  -6  -3   43.90    3.80
   2   6   3   39.30    4.10
   2   6   3   46.20    4.50
   2   6   3   39.10    4.90
   2   6   3   46.10    4.50
   2   6   3   48.20    4.60
  -3  -6  -3   31.90    5.20
  -3  -6  -3   35.90    4.60
  -3  -6  -3   25.80    3.70
  -3  -6  -3   32.90    4.20
   3   6   3   37.40    5.50
   3   6   3   29.10    5.90
   3   6   3   14.70    6.70
   3   6   3   33.30    5.20
   3   6   3   42.20    6.10
   3   6   3   43.00    6.00
  -4  -6  -3   19.20    6.50
  -4  -6  -3   19.10    6.70
  -4  -6  -3    3.00    7.40
  -4  -6  -3   23.90    8.00
   4   6   3   16.60    8.00
   4   6   3   21.00    8.80
   4   6   3   11.00    8.70
   4   6   3    8.60    8.30
  -5  -6  -3    5.20    9.80
  -5  -6  -3   30.20   11.00
   5   6   3    3.10    9.90
   5   6   3   21.00   13.70
   5   6   3   24.70   10.40
   5   6   3   24.20   10.70
  -6  -6  -3   16.80   15.40
   6   6   3  -22.90   15.00
   6   6   3    1.50   18.30
   5  -7  -3   -1.20   11.60
  -5   7   3   11.00   15.10
  -5   7   3    9.50   12.90
  -5   7   3   -3.20   10.20
   4  -7  -3   -4.10    7.40
  -4   7   3   -8.90    8.60
  -4   7   3    1.30    6.40
  -4   7   3   -7.50    7.90
  -4   7   3    7.60    9.40
  -4   7   3   -2.50    7.60
   3  -7  -3  100.89   10.50
   3  -7  -3   88.19    7.00
  -3   7   3  104.59    9.90
  -3   7   3   92.59    8.30
  -3   7   3   91.09    6.90
  -3   7   3   82.69    8.50
  -3   7   3   99.19    6.30
   2  -7  -3   26.10    4.70
  -2   7   3   19.10    5.10
  -2   7   3   32.40    5.50
   1  -7  -3  206.08    7.00
  -1   7   3  209.08    7.00
  -1   7   3  219.48    7.40
  -1   7   3  210.18    7.60
  -1   7   3  203.18    7.20
   0   7   3    5.30    2.90
   0   7   3   -1.20    3.70
  -1  -7  -3    3.30    2.10
  -1  -7  -3    4.80    2.10
   1   7   3    4.20    2.50
   1   7   3    5.20    3.00
   1   7   3    1.20    2.80
   1   7   3    8.20    2.60
   1   7   3    6.40    2.80
   1   7   3    0.10    3.70
  -2  -7  -3   79.19    5.70
  -2  -7  -3   88.49    5.90
   2   7   3   82.69    6.40
   2   7   3   88.39    6.70
   2   7   3   92.39    5.70
   2   7   3   89.19    7.70
   2   7   3   81.99    8.00
  -3  -7  -3   34.10    6.10
  -3  -7  -3   37.20    4.90
   3   7   3   39.30    6.10
   3   7   3   30.70    6.70
   3   7   3   47.80    7.00
   3   7   3   32.60    8.40
   3   7   3   40.00    5.60
   3   7   3   38.50    6.60
  -4  -7  -3   11.90    7.10
  -4  -7  -3    4.10    7.00
  -4  -7  -3    3.10    6.60
   4   7   3   -1.20    7.40
   4   7   3   14.30    7.70
   4   7   3   14.20    9.30
   4   7   3   18.80    8.20
  -5  -7  -3    6.00   10.10
  -5  -7  -3   10.10   11.80
   5   7   3   22.80   11.90
   5   7   3   21.80   11.50
   5   7   3   13.40   11.30
   5  -8  -3   41.40   14.40
  -5   8   3   50.39   15.00
  -5   8   3   57.19   17.10
   4  -8  -3   -7.00    8.20
   4  -8  -3   10.30   10.60
  -4   8   3    3.40    7.10
  -4   8   3   16.90    9.50
  -4   8   3  -19.20    6.70
  -4   8   3  -14.30   10.60
  -4   8   3  -12.40    9.00
   3  -8  -3    8.60    6.10
  -3   8   3    1.70    6.00
  -3   8   3    5.60    6.00
  -3   8   3    1.90    4.30
  -3   8   3   -0.40    7.60
  -3   8   3   -0.50    4.00
   2  -8  -3  200.68    8.50
  -2   8   3  171.58    9.10
  -2   8   3  174.68   10.70
  -1   8   3    9.80    3.90
  -1   8   3    8.60    4.50
  -1   8   3    7.10    4.80
  -1   8   3   -3.70    3.80
   0   8   3  102.69    5.80
   0   8   3   96.09    4.80
   0   8   3   97.49    7.00
   0   8   3   97.29    6.90
   1   8   3   29.90    3.30
   1   8   3   31.60    3.70
   1   8   3   27.30    3.50
   1   8   3   32.70    3.80
   1   8   3   35.50    3.60
   1   8   3   30.90    5.50
  -2  -8  -3   24.40    4.30
   2   8   3   30.00    5.00
   2   8   3   32.50    5.20
   2   8   3   23.60    6.60
   2   8   3   22.20    5.10
   2   8   3   35.90    4.40
  -3  -8  -3   -1.00    3.70
  -3  -8  -3    7.60    4.00
  -3  -8  -3    0.20    5.60
   3   8   3    1.90    8.10
   3   8   3    9.60    6.00
   3   8   3    2.20    6.90
   3   8   3    2.60    5.70
   3   8   3    1.00    7.00
  -4  -8  -3   -0.20    7.80
  -4  -8  -3   -4.50    6.80
   4   8   3   -0.90    8.60
   4   8   3   -4.60    8.30
   4   8   3   12.60   10.80
   4   8   3   -5.20    9.30
  -5  -8  -3   -0.60   10.30
   5   8   3   -6.70   12.60
   5   8   3   14.20   12.10
   5   8   3   23.00   12.60
   4  -9  -3   -6.90    9.90
  -4   9   3   27.40   12.80
  -4   9   3   -6.00   10.30
  -4   9   3    6.10    7.90
   3  -9  -3   39.90    7.90
  -3   9   3   39.50    7.30
  -3   9   3   37.20    6.60
  -3   9   3   38.30    9.20
   2  -9  -3    4.30    5.50
  -2   9   3    9.90    7.70
  -2   9   3    7.90    6.00
  -2   9   3    5.10    6.50
  -1   9   3  157.78    7.90
  -1   9   3  153.08    7.70
  -1   9   3  138.39    9.00
  -1   9   3  154.48    9.20
   0   9   3   18.90    6.00
   0   9   3   13.50    4.70
   0   9   3   17.80    3.60
   0   9   3   13.10    5.50
   1   9   3  277.67    7.30
   1   9   3  277.87    9.20
   1   9   3  282.27    8.10
   1   9   3  267.37   10.80
   1   9   3  269.17    8.40
   1   9   3  275.27    8.50
  -2  -9  -3  120.29    6.80
  -2  -9  -3  117.89    7.30
   2   9   3  124.39    7.20
   2   9   3  126.19    9.00
   2   9   3  129.29    9.30
   2   9   3  122.19    8.50
   2   9   3  149.29   11.60
  -3  -9  -3    5.00    7.60
   3   9   3    6.90    7.60
   3   9   3    4.40    6.60
   3   9   3   -0.60    8.50
   3   9   3   -0.10    7.30
   3   9   3    3.30    6.80
  -4  -9  -3   -9.00    6.20
   4   9   3    7.60    9.60
   4   9   3   -0.70    9.90
   4   9   3  -19.40   10.30
  -5  -9  -3    7.40   10.90
   5   9   3   32.40   14.90
   5   9   3   -2.00   14.30
   5   9   3    2.70   14.30
   4 -10  -3   24.40   11.40
  -4  10   3   32.50   12.10
  -4  10   3   32.70   15.30
   3 -10  -3    8.30    8.00
  -3  10   3   31.10    8.50
  -3  10   3   28.60    7.30
  -3  10   3   22.20   10.90
  -2  10   3   36.00    8.70
  -2  10   3   21.90    9.50
  -2  10   3   33.60    5.60
  -2  10   3   26.20    7.40
  -1  10   3   79.59    8.20
  -1  10   3   77.09    8.10
  -1  10   3   83.39    8.60
  -1  10   3   80.89    6.40
   0  10   3  102.59    9.10
   0  10   3  100.59    6.20
   0  10   3  101.79    9.00
   0  10   3   97.29   10.10
   1  10   3  266.87   12.30
   1  10   3  253.47    9.30
   1  10   3  247.48    9.50
   1  10   3  250.87   10.10
   2  10   3   37.90    6.60
   2  10   3   21.90    8.30
   2  10   3   35.30    7.30
   2  10   3   18.20    5.50
   2  10   3   16.80    6.80
  -3 -10  -3   40.90    7.50
   3  10   3   19.50    7.70
   3  10   3    7.80    8.60
   3  10   3   27.20    9.40
   3  10   3   23.30    9.60
   4  10   3    0.00   11.60
   4  10   3   -2.90   11.10
   4  10   3  -11.50   11.00
   3 -11  -3   43.30   10.10
  -3  11   3   24.00   11.10
  -3  11   3   32.70   13.10
  -2  11   3  -14.50   10.50
  -2  11   3    1.80    6.70
  -2  11   3   -6.80    8.20
  -1  11   3  121.79   10.30
  -1  11   3   89.69    9.90
  -1  11   3  104.59    8.70
  -1  11   3  103.39    9.60
   0  11   3   80.59    6.80
   0  11   3   73.19    8.00
   0  11   3   87.49    8.20
   0  11   3   76.09    8.80
   1  11   3   -5.40    6.90
   1  11   3    1.40    5.80
   1  11   3   -2.70    7.20
   2  11   3    5.70    8.60
   2  11   3   10.60    7.00
   2  11   3   20.20    6.20
   2  11   3   14.50    8.90
   2  11   3   13.40    7.40
   2  11   3   12.90    7.30
   3  11   3   48.10   10.60
   3  11   3   33.30    9.30
   3  11   3   22.30   11.10
   4  11   3   -9.20   13.00
   4  11   3   15.20   14.00
   4  11   3   16.20   12.70
   3 -12  -3    7.30   12.00
  -3  12   3   37.10   12.70
  -3  12   3  -12.10   16.10
  -2  12   3   17.10    9.20
  -2  12   3    3.20   11.80
  -2  12   3   -2.20    8.10
  -1  12   3    8.20   10.30
  -1  12   3   31.60   12.00
  -1  12   3   15.00    7.00
  -1  12   3    9.50    8.40
   0  12   3  127.09   12.40
   0  12   3  144.49   13.50
   0  12   3  113.99   10.70
   1  12   3    9.40    9.10
   1  12   3   19.10    7.70
   1  12   3    4.10    8.40
   1  12   3    9.40    6.80
   2  12   3   23.80   11.00
   2  12   3    5.40    7.50
   2  12   3    7.10    9.00
   2  12   3   10.00    8.20
   2  12   3    9.10   10.60
   2  12   3    8.70    8.30
   3  12   3    2.60    9.80
   3  12   3    6.10   12.30
   3  12   3   10.40   10.80
  -2  13   3  -12.70   15.10
  -2  13   3   15.40   10.70
  -1  13   3   42.20   10.90
  -1  13   3   26.10   13.20
  -1  13   3   36.70    8.20
   0  13   3  -21.10   12.20
   0  13   3   15.00   11.20
   0  13   3   14.80   11.30
   1  13   3    5.30   13.90
   1  13   3   -2.50    8.60
   1  13   3   -6.70   11.90
   1  13   3   -1.60   12.20
   2  13   3   -3.20   12.70
   2  13   3   -3.30   13.00
   2  13   3   -3.70    8.00
   3  13   3   -5.80   13.40
  -1  14   3   20.90   16.70
  -1  14   3    8.10   12.50
   0  14   3  -18.00   16.50
   0  14   3    8.90   14.10
   1  14   3   -0.60   15.50
   1  14   3    2.40   15.00
   1  13  -4  -63.69   30.50
   1  13  -4  -28.90   13.80
   1  13  -4   -6.00   13.10
   1  13  -4  -30.40   11.80
   0  13  -4    1.90   12.50
   0  13  -4  -20.00   12.70
   0  13  -4   34.00   16.90
   0  13  -4   23.40   11.40
  -1  13  -4    0.00   12.00
  -1  13  -4   -6.70   12.60
  -1  13  -4   -0.90   10.80
  -1  13  -4   12.70   16.30
   2  12  -4    2.80   12.90
   2  12  -4    4.70   14.60
   2  12  -4  -27.10   13.60
   2  12  -4   11.80   11.80
   1  12  -4   19.10   14.40
   1  12  -4   -3.80   10.80
   1  12  -4   -7.90    9.80
   1  12  -4    4.30   10.50
   0  12  -4    7.50    9.10
   0  12  -4   -6.70   13.70
   0  12  -4   -0.30   11.80
   0  12  -4   -5.70   12.80
   0  12  -4    1.30    9.30
  -1  12  -4  -23.70   14.10
  -1  12  -4    4.40    9.40
  -1  12  -4   -3.90   10.60
  -1  12  -4   -9.30    8.90
  -2  12  -4    4.80   16.00
  -2  12  -4   -1.80    9.90
  -2  12  -4   18.30   12.00
  -2  12  -4   -3.20    9.90
  -3  12  -4    0.50   14.20
   3  11  -4   41.20   13.90
   3  11  -4   41.40   13.40
   3  11  -4   55.29   14.80
   2  11  -4   33.80    9.40
   2  11  -4   17.60   10.50
   2  11  -4   33.70   10.20
   1  11  -4    7.50    8.50
   1  11  -4    5.00    7.80
   1  11  -4   18.20    9.50
   1  11  -4   -6.40   11.10
   1  11  -4   -0.50   11.00
   1  11  -4   15.90    8.80
   0  11  -4   13.20    7.60
   0  11  -4   17.50    8.00
   0  11  -4   17.40   10.00
   0  11  -4   14.00    8.50
   0  11  -4    4.70    7.60
   0 -11   4   13.40    5.90
  -1  11  -4    2.70    7.40
  -1  11  -4   15.80   10.60
  -1  11  -4   11.60    7.90
  -1  11  -4   -0.60    7.30
  -1  11  -4   12.30    8.00
  -1  11  -4    0.20    7.80
  -1  11  -4    0.40    6.80
  -2  11  -4    2.70   12.60
  -2  11  -4    7.60   10.00
  -2  11  -4   -1.30    7.00
  -2  11  -4    1.70   12.30
  -2  11  -4   -7.40    8.30
  -2  11  -4   -8.50    8.00
  -2  11  -4  -15.10    8.90
   2 -11   4   19.60   12.30
  -3  11  -4   -0.20    9.10
  -3  11  -4   -1.20   14.80
  -3  11  -4  -10.00   12.50
  -3  11  -4  -11.30   10.20
   3 -11   4   -0.50    8.50
   4  10  -4  -44.00   16.20
  -4 -10   4   16.90   10.50
   3  10  -4    1.10   10.40
   3  10  -4   -7.10   10.80
   3  10  -4   32.80   11.90
  -3 -10   4    1.50    7.40
   2  10  -4   60.79    9.60
   2  10  -4   60.29   10.60
   2  10  -4   57.49    9.40
   2  10  -4   69.69    8.40
  -2 -10   4   49.40    5.50
  -2 -10   4   52.79    7.40
   1  10  -4   -0.10    9.30
   1  10  -4   -9.10    7.10
   1  10  -4  -14.50    7.00
   1  10  -4   -0.80    6.80
   1  10  -4    1.80    8.50
   1  10  -4   10.40    7.60
  -1 -10   4   -3.30    5.40
   0  10  -4  133.49   10.40
   0  10  -4  127.79   12.10
   0  10  -4  115.89    9.70
   0  10  -4  125.09    9.20
   0  10  -4  148.89    9.50
   0  10  -4  122.89   10.20
   0 -10   4  121.29    7.60
  -1  10  -4   73.29    7.70
  -1  10  -4   61.49   10.40
  -1  10  -4   55.09    6.70
  -1  10  -4   63.49    7.80
  -1  10  -4   63.79    7.10
  -1  10  -4   74.99    7.60
  -2  10  -4   -3.80    9.80
  -2  10  -4  -16.10    7.00
  -2  10  -4   -0.50    9.30
  -2  10  -4   -1.40    6.60
  -2  10  -4   -8.50    6.60
  -2  10  -4    2.20    5.90
  -2  10  -4    5.60    8.10
   2 -10   4   -3.10    4.80
  -3  10  -4    7.60   11.80
  -3  10  -4   12.00    9.10
  -3  10  -4    4.90    7.60
  -3  10  -4   -1.90    8.70
   3 -10   4    0.30    6.70
  -4  10  -4   11.30   12.10
  -4  10  -4  -12.60   17.90
  -4  10  -4   -6.30   14.10
   4 -10   4    6.50   10.50
   4   9  -4   33.30   14.00
   4   9  -4   26.70   13.80
   4   9  -4   39.30   15.20
  -4  -9   4   29.70   10.20
   3   9  -4   -1.20   11.40
   3   9  -4    2.70    9.20
   3   9  -4    5.40    9.80
   3   9  -4   12.60    9.00
  -3  -9   4    5.70    8.30
  -3  -9   4   21.10    9.90
  -3  -9   4    6.70    6.70
   2   9  -4  214.18   11.60
   2   9  -4  215.78   11.90
   2   9  -4  199.88   13.60
   2   9  -4  188.58   14.80
  -2  -9   4  221.38    8.40
  -2  -9   4  191.58    9.60
   1   9  -4   18.30    6.90
   1   9  -4  -13.80    6.00
   1   9  -4    0.30    5.60
   1   9  -4   -1.80    6.40
   1   9  -4    2.40    6.30
   1   9  -4   -6.10    7.60
  -1  -9   4    1.90    3.70
   0   9  -4   -1.40    5.70
   0   9  -4   12.90    5.10
   0   9  -4    8.20    5.50
   0   9  -4   10.60    5.30
   0  -9   4    8.70    4.40
   0  -9   4   13.50    6.90
  -1   9  -4  108.09   10.30
  -1   9  -4  120.59    8.50
  -1   9  -4  123.49    7.10
  -1   9  -4  121.29   10.60
  -1   9  -4  116.09    8.50
  -1   9  -4  123.59   11.40
  -1   9  -4  113.19    8.00
   1  -9   4  120.09    7.20
  -2   9  -4   -7.70    6.60
  -2   9  -4   -7.20    8.50
  -2   9  -4    1.80    5.20
  -2   9  -4  -12.30    4.80
  -2   9  -4    2.60    8.20
  -2   9  -4    9.70    6.30
  -2   9  -4    7.40    5.70
   2  -9   4   -0.70    4.40
   2  -9   4    6.80    5.40
  -3   9  -4    4.30    7.70
  -3   9  -4    3.60   10.10
  -3   9  -4   11.90    6.10
  -3   9  -4   -3.20    6.30
  -3   9  -4    5.40    7.50
  -3   9  -4    9.30    8.60
  -3   9  -4    1.10   11.80
   3  -9   4    7.20    7.50
   3  -9   4   11.70    6.70
  -4   9  -4   -9.80   14.90
  -4   9  -4   -1.80   12.10
  -4   9  -4   -2.90   10.60
   4  -9   4    1.80    9.10
   4   8  -4    7.10   11.60
   4   8  -4   14.60   10.90
   4   8  -4    8.80   12.00
   4   8  -4    5.50    8.00
  -4  -8   4   16.40   10.40
  -4  -8   4    3.90    9.40
   3   8  -4   21.20    8.40
   3   8  -4   45.80    8.70
   3   8  -4   61.49    8.60
   3   8  -4   33.30   10.80
  -3  -8   4   48.40    7.70
  -3  -8   4   35.20    8.70
  -3  -8   4   42.50    6.50
   2   8  -4    6.60    6.20
   2   8  -4    7.50    6.20
   2   8  -4    8.20    7.30
   2   8  -4   -4.90    7.50
  -2  -8   4   -1.60    5.30
  -2  -8   4   -1.90    4.40
  -2  -8   4    5.00    7.30
   1   8  -4   72.69    7.40
   1   8  -4   83.09    7.50
   1   8  -4   78.39    7.80
   1   8  -4   77.79    6.70
  -1  -8   4   67.09    6.20
  -1  -8   4   73.79    5.50
  -1  -8   4   68.29    7.00
  -1  -8   4   78.39    7.60
   0   8  -4   48.00    5.30
   0   8  -4   37.40    6.30
   0   8  -4   37.80    4.00
   0   8  -4   53.39    5.80
   0   8  -4   28.70    4.70
   0   8  -4   38.00    5.20
   0   8  -4   42.30    4.50
   0  -8   4   40.20    4.10
   0  -8   4   43.20    5.10
   0  -8   4   42.40    6.20
  -1   8  -4    7.40    4.60
  -1   8  -4    6.40    4.60
  -1   8  -4   -2.60    5.00
  -1   8  -4    8.70    4.10
  -1   8  -4    5.70    6.00
  -1   8  -4    0.90    5.00
  -1   8  -4    5.90    3.70
   1  -8   4    9.10    4.40
   1  -8   4    0.00    4.00
  -2   8  -4   49.00    4.70
  -2   8  -4   37.10    6.50
  -2   8  -4   42.70    5.00
  -2   8  -4   51.79    7.60
  -2   8  -4   47.50    9.60
  -2   8  -4   53.39    5.40
   2  -8   4   43.10    5.10
   2  -8   4   33.80    6.40
   2  -8   4   44.10    4.70
  -3   8  -4    2.30    6.60
  -3   8  -4   22.50    6.90
  -3   8  -4   14.20    6.60
  -3   8  -4   -2.10    9.70
  -3   8  -4    7.50    4.70
   3  -8   4    4.10    6.20
   3  -8   4   20.20    5.90
  -4   8  -4   16.30   10.10
  -4   8  -4    4.10   13.00
  -4   8  -4   27.90    9.90
   4  -8   4   16.70    8.30
  -5   8  -4   -9.30   15.80
  -5   8  -4  -16.50   19.10
   5  -8   4   -6.10   11.60
   5   7  -4   19.70   14.20
   5   7  -4    8.50   16.60
   5   7  -4   27.80   10.90
  -5  -7   4   29.90   12.70
   4   7  -4   19.10    7.60
   4   7  -4   21.60   11.50
   4   7  -4   -1.10    9.90
   4   7  -4   16.60    9.70
   4   7  -4    1.80   13.40
  -4  -7   4   12.80    8.80
  -4  -7   4   -4.10    9.10
   3   7  -4   30.00    7.60
   3   7  -4   29.20    9.80
   3   7  -4   40.70    8.30
   3   7  -4   29.50    9.40
  -3  -7   4   27.80    7.80
  -3  -7   4   38.40    6.70
  -3  -7   4   31.40    6.10
  -3  -7   4   26.40    9.50
  -3  -7   4   16.80    9.00
   2   7  -4   69.29    6.90
   2   7  -4   74.19    6.50
   2   7  -4   62.39    7.30
   2   7  -4   67.99    6.70
   2   7  -4   67.49    6.30
  -2  -7   4   72.89    6.00
  -2  -7   4   71.39    6.90
  -2  -7   4   71.29    6.80
  -2  -7   4   63.59    5.90
   1   7  -4  113.19    7.10
   1   7  -4  111.99    6.80
   1   7  -4  111.79    6.70
   1   7  -4  109.19    7.40
  -1  -7   4  112.49    8.50
  -1  -7   4  110.89    5.10
  -1  -7   4   93.59    7.70
  -1  -7   4  115.29    6.80
  -1  -7   4  110.49    6.10
   0   7  -4   51.79    5.50
   0   7  -4   65.09    6.10
   0   7  -4   71.79    5.60
   0   7  -4   57.19    6.10
   0   7  -4   57.69    4.70
   0   7  -4   56.39    5.20
   0   7  -4   66.69    5.80
   0  -7   4   67.99    5.70
   0  -7   4   60.09    4.30
   0  -7   4   59.39    5.70
   0  -7   4   67.39    5.00
  -1   7  -4  293.67    9.70
  -1   7  -4  308.57    9.10
  -1   7  -4  301.57   10.80
  -1   7  -4  309.27    9.00
  -1   7  -4  305.07    8.00
  -1   7  -4  295.67    9.20
  -1   7  -4  295.07    8.20
   1  -7   4  297.67    8.90
   1  -7   4  297.37    7.90
   1  -7   4  305.17    7.20
  -2   7  -4   25.20    4.90
  -2   7  -4   37.60    3.80
  -2   7  -4   30.30    4.60
  -2   7  -4   28.90    4.20
  -2   7  -4   28.20    6.30
  -2   7  -4   26.70    6.90
  -2   7  -4   38.80    5.30
   2  -7   4   35.30    4.10
   2  -7   4   34.60    4.70
   2  -7   4   34.30    5.50
   2  -7   4   36.20    6.30
  -3   7  -4    2.90    4.70
  -3   7  -4   -5.90    8.20
  -3   7  -4   -1.40    5.40
  -3   7  -4   -1.50    6.20
  -3   7  -4   -8.20    6.20
   3  -7   4    1.60    4.80
   3  -7   4   -3.40    5.80
  -4   7  -4   55.99   12.20
  -4   7  -4   46.70    7.60
  -4   7  -4   53.89   10.20
  -4   7  -4   41.50    8.70
  -4   7  -4   58.29   10.50
   4  -7   4   66.19    7.80
  -5   7  -4  -17.70   13.10
  -5   7  -4   -0.50   11.80
  -5   7  -4  -10.00   16.60
   5  -7   4  -11.20   10.90
   5   6  -4   -9.20   12.70
   5   6  -4   34.70   15.40
   5   6  -4   21.00   10.80
   5   6  -4   28.00   12.60
  -5  -6   4  -10.10   12.50
   4   6  -4   14.00    8.40
   4   6  -4    6.70    8.80
   4   6  -4  -14.70   12.70
   4   6  -4   16.00    6.80
   4   6  -4   -2.60   10.40
  -4  -6   4    8.60    5.60
  -4  -6   4   20.80    8.20
  -4  -6   4   11.20    7.70
   3   6  -4   37.30    7.20
   3   6  -4   46.60    5.10
   3   6  -4   36.50    6.70
   3   6  -4   26.40    8.00
   3   6  -4   32.10    8.20
  -3  -6   4   49.60    6.80
  -3  -6   4   37.90    4.10
  -3  -6   4   37.60    9.20
  -3  -6   4   33.90    8.00
  -3  -6   4   37.90    5.90
  -3  -6   4   47.60    7.40
   2   6  -4  303.17   10.20
   2   6  -4  282.77   10.60
   2   6  -4  300.37    9.90
   2   6  -4  305.47   10.50
   2   6  -4  305.97   10.10
  -2  -6   4  272.37   11.10
  -2  -6   4  299.97    9.00
  -2  -6   4  298.57    8.80
  -2  -6   4  285.17   10.20
  -2  -6   4  302.77   10.10
   1   6  -4  314.37    9.10
   1   6  -4  300.87    9.00
   1   6  -4  308.77    9.30
   1   6  -4  313.77    8.90
   1   6  -4  302.17    8.80
  -1  -6   4  327.17   10.50
  -1  -6   4  312.67    8.00
  -1  -6   4  315.17    8.90
  -1  -6   4  306.17    9.10
  -1  -6   4  312.87    8.00
   0   6  -4  136.39    7.20
   0   6  -4  154.88    6.20
   0   6  -4  151.68    5.40
   0   6  -4  149.99    6.10
   0   6  -4  146.89    5.70
   0   6  -4  149.29    6.40
   0  -6   4  145.59    5.50
   0  -6   4  158.18    5.20
   0  -6   4  149.19    5.10
   0  -6   4  160.88    6.30
   0  -6   4  157.98    7.10
  -1   6  -4  160.98    6.30
  -1   6  -4  163.08    7.90
  -1   6  -4  150.08    6.70
  -1   6  -4  159.48    6.90
  -1   6  -4  154.48    6.10
  -1   6  -4  159.48    5.50
  -1   6  -4  154.68    7.10
   1  -6   4  156.78    5.30
   1  -6   4  164.18    5.40
   1  -6   4  159.68    7.00
  -2   6  -4   39.20    4.70
  -2   6  -4   50.39    4.30
  -2   6  -4   52.69    5.30
  -2   6  -4   40.40    3.70
  -2   6  -4   47.90    6.10
  -2   6  -4   51.19    6.00
  -2   6  -4   49.50    4.20
   2  -6   4   43.10    4.00
   2  -6   4   53.99    4.40
   2  -6   4   43.20    4.40
   2  -6   4   53.29    5.10
   2  -6   4   31.60    6.10
   2  -6   4   39.20    5.00
  -3   6  -4    9.10    6.90
  -3   6  -4   10.40    5.90
  -3   6  -4    7.60    5.20
  -3   6  -4   12.30    4.30
  -3   6  -4   10.40    5.00
  -3   6  -4    5.40    7.00
   3  -6   4    8.10    7.30
   3  -6   4    8.30    4.40
   3  -6   4    8.60    3.90
   3  -6   4   12.00    4.10
   3  -6   4    7.50    4.90
  -4   6  -4   23.40    7.50
  -4   6  -4   22.00    7.90
  -4   6  -4   20.40   10.20
  -4   6  -4   36.70    6.60
   4  -6   4   21.90    7.70
   4  -6   4   27.00    5.90
  -5   6  -4    3.70   13.50
  -5   6  -4    9.20   11.50
  -5   6  -4  -16.90   10.10
   5  -6   4   27.20    7.40
   5  -6   4    7.10    9.90
   5   5  -4   -1.20   10.40
   5   5  -4   13.60   10.20
   5   5  -4   36.60   12.00
   5   5  -4   35.90   12.90
  -5  -5   4   45.00   11.40
  -5  -5   4   22.80    9.20
   4   5  -4    8.60    8.50
   4   5  -4   37.40    8.10
   4   5  -4   24.80   11.30
   4   5  -4    7.30    6.50
  -4  -5   4    8.00   11.30
  -4  -5   4   21.80    5.60
  -4  -5   4   26.80    7.40
  -4  -5   4   19.80    7.90
   3   5  -4   21.40    6.30
   3   5  -4   22.90    6.10
   3   5  -4   32.80    5.80
   3   5  -4   30.60    4.80
  -3  -5   4   24.90    5.20
  -3  -5   4   26.00    5.80
  -3  -5   4   23.50    7.40
  -3  -5   4   27.50    6.50
  -3  -5   4   21.80    6.90
  -3  -5   4   24.80    4.10
   2   5  -4   35.30    4.30
   2   5  -4   37.30    4.70
   2   5  -4   31.20    4.80
   2   5  -4   39.20    5.20
   2   5  -4   41.20    5.20
   2   5  -4   33.80    2.90
  -2  -5   4   41.10    5.70
  -2  -5   4   36.20    4.00
  -2  -5   4   36.80    3.10
  -2  -5   4   33.40    4.40
  -2  -5   4   40.90    4.60
  -2  -5   4   29.80    4.90
   1   5  -4   52.09    3.50
   1   5  -4   52.69    5.00
   1   5  -4   54.79    4.90
   1   5  -4   50.49    5.10
   1   5  -4   64.49    5.10
   1   5  -4   66.09    4.90
  -1  -5   4   61.59    5.80
  -1  -5   4   59.29    5.30
  -1  -5   4   59.79    5.10
  -1  -5   4   60.09    4.20
  -1  -5   4   60.99    3.80
  -1  -5   4   58.89    4.30
   0   5  -4  209.98    7.30
   0   5  -4  208.08    5.80
   0   5  -4  212.08    6.70
   0   5  -4  202.48    6.10
   0   5  -4  211.88    6.40
   0   5  -4  207.88    6.00
   0   5  -4  203.28    6.80
   0  -5   4  211.78    5.70
   0  -5   4  203.98    5.60
   0  -5   4  205.28    6.10
   0  -5   4  196.18    6.30
   0  -5   4  204.88    6.40
  -1   5  -4   70.39    4.00
  -1   5  -4   62.09    4.90
  -1   5  -4   64.79    4.80
  -1   5  -4   70.99    3.90
  -1   5  -4   68.59    4.40
  -1   5  -4   60.89    5.80
  -1   5  -4   64.59    5.40
   1  -5   4   74.39    5.50
   1  -5   4   64.59    3.80
   1  -5   4   65.69    4.00
   1  -5   4   68.59    3.80
   1  -5   4   64.39    4.60
   1  -5   4   62.09    3.20
   1  -5   4   58.29    4.80
  -2   5  -4  120.69    6.80
  -2   5  -4  130.89    5.20
  -2   5  -4  119.49    7.60
  -2   5  -4  133.69    7.70
  -2   5  -4  121.09    6.70
  -2   5  -4  129.39    5.90
  -2   5  -4  129.19    5.10
   2  -5   4  129.49    7.60
   2  -5   4  126.99    5.70
   2  -5   4  120.69    6.80
   2  -5   4  129.99    5.80
   2  -5   4  124.49    5.80
   2  -5   4  118.29    5.30
   2  -5   4  120.79    5.80
  -3   5  -4   46.20    6.90
  -3   5  -4   38.80    5.00
  -3   5  -4   37.50    4.60
  -3   5  -4   41.90    7.30
  -3   5  -4   32.70    5.60
  -3   5  -4   38.60    5.40
   3  -5   4   27.00    5.30
   3  -5   4   42.60    6.90
   3  -5   4   40.90    4.00
   3  -5   4   30.30    4.60
   3  -5   4   37.70    6.70
   3  -5   4   39.90    5.00
   3  -5   4   30.20    4.90
  -4   5  -4  186.08   11.40
  -4   5  -4  184.28   10.50
  -4   5  -4  199.38   12.70
  -4   5  -4  170.58   16.30
  -4   5  -4  178.98   14.70
  -4   5  -4  183.08   12.10
   4  -5   4  168.08   13.10
   4  -5   4  194.38   10.10
   4  -5   4  205.98   10.60
  -5   5  -4   26.30   12.50
  -5   5  -4   16.90   12.10
  -5   5  -4   21.50   10.30
   5  -5   4   16.80    9.70
   5  -5   4   12.30    7.70
  -6   5  -4    1.80   24.50
  -6   5  -4   -7.20   18.20
   5   4  -4   52.29   11.60
   5   4  -4   52.09    9.70
   5   4  -4   46.00    9.80
   5   4  -4   49.10   13.30
  -5  -4   4   39.30   10.90
  -5  -4   4   59.19   12.20
  -5  -4   4   63.99   10.60
   4   4  -4   16.70   10.60
   4   4  -4   13.90    7.20
   4   4  -4   11.80    5.90
   4   4  -4   12.50    9.90
   4   4  -4    9.70    8.00
   4   4  -4   20.60    6.80
  -4  -4   4   17.40    7.00
  -4  -4   4    4.00    5.40
  -4  -4   4   17.20    7.50
  -4  -4   4   15.00    9.80
   3   4  -4  764.82   17.40
   3   4  -4  725.13   17.50
   3   4  -4  712.33   18.50
   3   4  -4  762.12   16.10
   3   4  -4  775.52   17.20
  -3  -4   4  771.42   15.80
  -3  -4   4  767.82   16.90
  -3  -4   4  777.62   18.60
  -3  -4   4  760.82   17.10
  -3  -4   4  745.53   17.90
  -3  -4   4  732.73   18.00
   2   4  -4  547.75   12.80
   2   4  -4  546.05   13.00
   2   4  -4  568.14   12.70
   2   4  -4  557.14   12.90
   2   4  -4  553.64   13.10
   2   4  -4  559.74   11.30
  -2  -4   4  566.74   13.10
  -2  -4   4  564.34   13.20
  -2  -4   4  569.74   13.50
  -2  -4   4  552.74   11.20
  -2  -4   4  558.04   12.30
  -2  -4   4  555.04   12.10
   1   4  -4  116.09    5.00
   1   4  -4  106.79    5.20
   1   4  -4  115.89    5.00
   1   4  -4  106.59    5.20
   1   4  -4  115.79    5.30
   1   4  -4  112.99    4.00
  -1  -4   4  109.39    4.50
  -1  -4   4  109.49    5.10
  -1  -4   4  118.29    4.50
  -1  -4   4  113.29    5.50
  -1  -4   4  108.89    4.00
   0   4  -4  516.55   11.40
   0   4  -4  524.65   10.90
   0   4  -4  522.95   11.20
   0   4  -4  518.25   10.50
   0   4  -4  506.35   11.00
   0   4  -4  530.85   10.50
   0   4  -4  496.85   10.30
   0  -4   4  507.05   10.50
   0  -4   4  510.55   10.20
   0  -4   4  537.15   11.00
   0  -4   4  501.95   10.70
   0  -4   4  516.55   11.30
   0  -4   4  503.95   10.20
  -1   4  -4  156.58    6.60
  -1   4  -4  165.78    6.10
  -1   4  -4  155.18    4.70
  -1   4  -4  161.98    5.30
  -1   4  -4  167.08    4.80
  -1   4  -4  160.58    5.90
  -1   4  -4  161.58    6.20
   1  -4   4  160.88    4.60
   1  -4   4  154.98    5.10
   1  -4   4  161.48    5.50
   1  -4   4  160.98    5.10
   1  -4   4  170.88    5.10
   1  -4   4  164.08    6.70
   1  -4   4  171.68    5.80
  -2   4  -4   62.09    6.40
  -2   4  -4   64.89    5.30
  -2   4  -4   61.59    4.30
  -2   4  -4   63.79    4.10
  -2   4  -4   63.09    5.50
   2  -4   4   68.79    6.50
   2  -4   4   74.79    4.30
   2  -4   4   57.29    4.90
   2  -4   4   60.79    5.50
   2  -4   4   64.89    4.70
   2  -4   4   64.89    5.00
  -3   4  -4  137.99    7.00
  -3   4  -4  139.99    7.80
  -3   4  -4  136.29    9.70
  -3   4  -4  123.39    8.00
  -3   4  -4  135.69    6.70
  -3   4  -4  129.79    8.60
   3  -4   4  148.29    8.70
   3  -4   4  141.79    8.90
   3  -4   4  136.49    7.00
   3  -4   4  115.29    8.70
   3  -4   4  131.49    5.30
  -4   4  -4  648.24   17.40
  -4   4  -4  647.34   16.50
  -4   4  -4  651.33   18.00
   4  -4   4  652.33   17.30
   4  -4   4  603.14   19.00
   4  -4   4  682.63   16.20
   4  -4   4  655.73   17.30
  -5   4  -4   10.10   10.70
  -5   4  -4   12.50    8.70
  -5   4  -4    1.20   11.40
  -5   4  -4    1.30    8.80
   5  -4   4  -24.50    8.60
   5  -4   4   11.00    8.50
   5  -4   4   -6.80    9.70
  -6   4  -4   -4.40   15.80
  -6   4  -4    2.70   19.60
  -6   4  -4   15.60   15.60
   6  -4   4   -8.20   12.60
   6  -4   4  -11.30   11.20
   5   3  -4   19.80    7.70
   5   3  -4   47.40   11.60
   5   3  -4   21.20    9.00
   5   3  -4   54.29   10.80
  -5  -3   4    0.40    9.60
  -5  -3   4   26.60    9.20
  -5  -3   4   15.50   10.50
  -5  -3   4   26.40   15.10
   4   3  -4  255.37   10.30
   4   3  -4  238.88   10.90
   4   3  -4  254.67   11.70
   4   3  -4  224.38   15.30
   4   3  -4  238.18   12.50
  -4  -3   4  250.47   13.70
  -4  -3   4  254.67   10.20
  -4  -3   4  248.48   11.70
  -4  -3   4  252.27   11.60
   3   3  -4 1347.67   26.20
   3   3  -4 1317.97   26.40
   3   3  -4 1326.07   27.10
   3   3  -4 1311.37   26.80
   3   3  -4 1344.67   25.90
   3   3  -4 1332.07   25.40
  -3  -3   4 1285.17   26.80
  -3  -3   4 1345.47   25.20
  -3  -3   4 1330.17   26.50
  -3  -3   4 1331.57   26.60
  -3  -3   4 1358.76   26.20
  -3  -3   4 1336.57   26.00
   2   3  -4  994.40   19.50
   2   3  -4  969.30   19.40
   2   3  -4  978.30   19.20
   2   3  -4  950.90   19.10
   2   3  -4  996.30   18.20
   2   3  -4  989.00   19.50
  -2  -3   4  973.00   18.80
  -2  -3   4  979.30   19.00
  -2  -3   4  982.10   19.60
  -2  -3   4  965.00   18.30
  -2  -3   4  971.40   19.50
   1   3  -4  323.27    7.80
   1   3  -4  329.87    7.10
   1   3  -4  325.37    8.00
   1   3  -4  317.67    7.70
   1   3  -4  312.87    7.80
   1   3  -4  316.97    8.00
  -1  -3   4  317.07    7.40
  -1  -3   4  316.87    7.00
  -1  -3   4  330.17    7.40
  -1  -3   4  309.27    7.80
  -1  -3   4  311.17    7.90
  -1  -3   4  310.47    8.10
   0   3  -4  589.94   12.00
   0   3  -4  576.14   11.40
   0   3  -4  585.84   11.70
   0   3  -4  584.44   11.80
   0   3  -4  591.64   11.90
   0   3  -4  592.14   11.20
   0   3  -4  571.54   11.30
   0  -3   4  588.14   12.00
   0  -3   4  573.94   11.40
   0  -3   4  578.34   11.80
   0  -3   4  571.54   11.50
   0  -3   4  576.24   11.60
   0  -3   4  584.34   11.30
  -1   3  -4 4449.65   75.99
  -1   3  -4 4262.67   76.09
  -1   3  -4 4415.46   75.49
  -1   3  -4 4421.26   75.19
  -1   3  -4 4367.66   75.99
  -1   3  -4 4350.46   75.29
  -1   3  -4 4399.26   75.79
   1  -3   4 4480.15   75.79
   1  -3   4 4450.95   75.59
   1  -3   4 4414.46   76.19
   1  -3   4 4291.97   75.99
   1  -3   4 4494.35   75.39
   1  -3   4 4419.16   75.39
   1  -3   4 4426.26   75.39
  -2   3  -4  709.83   16.40
  -2   3  -4  710.43   14.80
  -2   3  -4  725.83   14.30
  -2   3  -4  728.53   15.00
  -2   3  -4  718.73   13.90
  -2   3  -4  727.43   15.50
   2  -3   4  721.33   14.30
   2  -3   4  694.73   16.60
   2  -3   4  718.23   14.30
   2  -3   4  657.53   14.40
  -3   3  -4   42.30    4.80
  -3   3  -4   38.80    4.20
  -3   3  -4   50.89    5.40
  -3   3  -4   41.90    5.10
  -3   3  -4   42.50    6.10
  -3   3  -4   46.00    4.40
   3  -3   4   41.50    3.40
   3  -3   4   39.80    4.90
   3  -3   4   39.30    4.40
   3  -3   4   45.00    5.00
   3  -3   4   45.40    5.80
  -4   3  -4   27.80    6.20
  -4   3  -4   26.30    6.80
  -4   3  -4   32.20    6.90
  -4   3  -4   26.40    5.80
  -4   3  -4   28.10    7.80
   4  -3   4   32.30    8.60
   4  -3   4   31.40    8.10
   4  -3   4   28.10    4.40
   4  -3   4   24.20    6.60
   4  -3   4   19.30    5.90
   4  -3   4   33.60    7.00
  -5   3  -4   82.09    9.70
  -5   3  -4   74.89   11.90
  -5   3  -4  104.79   10.80
  -5   3  -4   70.39   10.60
   5  -3   4   73.99    9.00
   5  -3   4   34.50   11.30
   5  -3   4  100.09   10.00
  -6   3  -4    6.30   17.60
  -6   3  -4  -39.60   14.80
  -6   3  -4   -7.90   14.20
   6  -3   4  -20.70   11.70
   6  -3   4    5.00   11.90
   6   2  -4   13.00   14.00
   6   2  -4  -26.30   15.30
  -6  -2   4   19.80   14.60
  -6  -2   4    8.90   15.90
   5   2  -4   34.50    7.30
   5   2  -4   55.29    9.90
   5   2  -4   60.49   10.80
   5   2  -4   27.80    8.90
  -5  -2   4   48.40   11.10
  -5  -2   4   37.40    9.70
  -5  -2   4   50.49   10.50
   4   2  -4  142.29   11.20
   4   2  -4  181.18    8.90
   4   2  -4  165.28   10.00
   4   2  -4  176.68   11.30
  -4  -2   4  197.78   13.50
  -4  -2   4  195.58   10.10
  -4  -2   4  174.38   10.00
  -4  -2   4  166.58   10.70
   3   2  -4    4.00    4.20
   3   2  -4   -3.50    4.40
   3   2  -4    1.60    3.80
   3   2  -4   -2.00    4.80
   3   2  -4    1.30    3.90
   3   2  -4    8.10    4.40
   3   2  -4    7.30    5.20
  -3  -2   4    7.30    4.80
  -3  -2   4    7.10    3.90
  -3  -2   4    6.80    4.90
  -3  -2   4   11.60    4.20
  -3  -2   4   -0.60    4.00
  -3  -2   4    2.30    4.70
   2   2  -4   39.10    3.50
   2   2  -4   35.90    3.80
   2   2  -4   34.00    3.00
   2   2  -4   39.50    4.00
   2   2  -4   37.90    4.10
   2   2  -4   40.60    3.60
  -2  -2   4   35.50    3.00
  -2  -2   4   40.00    3.90
  -2  -2   4   45.90    4.70
  -2  -2   4   40.30    3.70
  -2  -2   4   39.50    4.00
  -2  -2   4   36.90    3.60
   1   2  -4 1826.02   32.00
   1   2  -4 1875.41   32.70
   1   2  -4 1855.11   33.10
   1   2  -4 1914.61   33.10
   1   2  -4 1868.61   33.10
   1   2  -4 1819.42   33.00
   1   2  -4 1819.82   33.00
  -1  -2   4 1907.31   33.30
  -1  -2   4 1843.52   32.90
  -1  -2   4 1870.71   32.80
  -1  -2   4 1895.81   33.20
  -1  -2   4 1848.02   32.60
  -1  -2   4 1861.31   33.10
   0  -2   4 9999.00  167.38
   0  -2   4 9984.20  167.48
   0  -2   4 9731.13  167.18
   0  -2   4 9819.82  167.28
  -1   2  -4 1258.97   23.60
  -1   2  -4 1304.67   23.60
  -1   2  -4 1290.67   23.00
  -1   2  -4 1294.77   22.80
  -1   2  -4 1295.67   23.50
  -1   2  -4 1290.07   23.70
  -1   2  -4 1306.97   23.10
   1  -2   4 1279.97   23.60
   1  -2   4 1296.87   23.50
   1  -2   4 1285.97   23.80
   1  -2   4 1243.28   23.00
   1  -2   4 1291.77   23.10
   1  -2   4 1273.07   23.20
  -2   2  -4  228.68    7.90
  -2   2  -4  231.88    6.20
  -2   2  -4  247.78    7.20
  -2   2  -4  240.48    7.30
  -2   2  -4  219.48    6.40
  -2   2  -4  244.28    7.80
   2  -2   4  237.28    6.80
   2  -2   4  239.38    6.90
   2  -2   4  230.98    7.30
   2  -2   4  237.48    6.00
   2  -2   4  235.38    7.30
   2  -2   4  230.08    7.40
  -3   2  -4   25.80    5.20
  -3   2  -4   25.10    4.00
  -3   2  -4   27.50    4.00
  -3   2  -4   29.90    4.40
  -3   2  -4   29.00    5.00
  -3   2  -4   25.10    4.60
   3  -2   4   23.70    4.90
   3  -2   4   25.50    3.10
   3  -2   4   20.60    4.80
   3  -2   4   27.10    3.90
   3  -2   4   31.50    4.40
   3  -2   4   26.80    5.20
  -4   2  -4  681.03   18.40
  -4   2  -4  647.44   17.10
  -4   2  -4  630.14   16.30
  -4   2  -4  653.33   16.50
  -4   2  -4  657.13   17.20
   4  -2   4  644.04   18.30
   4  -2   4  672.03   16.90
   4  -2   4  652.33   16.10
   4  -2   4  665.43   17.10
   4  -2   4  636.24   13.60
   4  -2   4  629.44   17.60
  -5   2  -4  258.97   16.30
  -5   2  -4  243.38   14.50
  -5   2  -4  286.07   15.10
  -5   2  -4  244.18   14.60
   5  -2   4  244.58   14.20
   5  -2   4  268.47   13.40
  -6   2  -4   12.40   13.40
  -6   2  -4   11.20   17.40
  -6   2  -4    5.60   13.60
   6  -2   4   -2.80   12.00
   6  -2   4   17.90   11.90
   6   1  -4   16.30   14.30
   6   1  -4  -18.40   12.60
  -6  -1   4    4.50   14.10
  -6  -1   4   -9.30   16.40
   5   1  -4   23.30    8.60
   5   1  -4   19.90    6.60
   5   1  -4   34.30    9.00
   5   1  -4   13.20   11.00
  -5  -1   4   18.90    9.90
  -5  -1   4   21.40    9.20
  -5  -1   4   40.00   12.60
  -5  -1   4   12.60   10.50
   4   1  -4  265.47    9.20
   4   1  -4  278.77   11.40
   4   1  -4  276.27   12.10
   4   1  -4  269.87   14.10
   4   1  -4  293.07   11.00
   4   1  -4  253.27   14.40
  -4  -1   4  266.67   11.40
  -4  -1   4  251.67   13.70
  -4  -1   4  274.17   11.10
   3   1  -4    7.80    3.90
   3   1  -4    3.50    4.60
   3   1  -4    0.40    4.30
   3   1  -4    0.90    3.90
   3   1  -4    6.70    4.90
   3   1  -4    5.60    3.30
  -3  -1   4    5.30    4.70
  -3  -1   4    3.60    3.80
  -3  -1   4   -0.20    3.80
  -3  -1   4    9.80    3.90
  -3  -1   4    0.40    4.70
  -3  -1   4    4.70    4.10
   2   1  -4   50.19    4.00
   2   1  -4   43.40    4.20
   2   1  -4   49.10    4.00
   2   1  -4   42.40    3.80
   2   1  -4   44.90    4.30
   2   1  -4   46.80    3.80
  -2  -1   4   44.00    3.60
  -2  -1   4   42.70    3.90
  -2  -1   4   43.90    3.80
  -2  -1   4   43.80    4.30
  -2  -1   4   45.00    3.90
   1   1  -4  891.91   16.70
   1   1  -4  895.61   16.70
   1   1  -4  899.81   16.10
   1   1  -4  876.01   16.80
   1   1  -4  944.91   16.90
   1   1  -4  901.81   16.70
   1   1  -4  873.11   16.60
  -1  -1   4  896.81   16.80
  -1  -1   4  882.91   16.80
  -1  -1   4  874.41   16.60
  -1  -1   4  873.31   16.20
  -1  -1   4  893.61   16.50
  -1  -1   4  910.61   16.60
  -1  -1   4  925.21   17.00
   0   1  -4  976.70   17.50
   0   1  -4  929.91   17.30
   0   1  -4  960.50   17.30
   0   1  -4  958.30   17.60
   0   1  -4  949.31   17.60
   0   1  -4  987.00   17.30
   0   1  -4  976.50   17.80
   0  -1   4  996.40   17.30
   0  -1   4  953.70   17.60
   0  -1   4  982.10   17.70
   0  -1   4  964.80   17.50
   0  -1   4  955.00   17.30
   0  -1   4  953.30   17.60
  -1   1  -4  501.75   10.50
  -1   1  -4  508.55   10.30
  -1   1  -4  497.35   10.40
  -1   1  -4  501.25    9.60
  -1   1  -4  506.65    9.80
  -1   1  -4  494.75   10.20
   1  -1   4  500.85    9.80
   1  -1   4  474.25   10.00
   1  -1   4  493.25   10.50
   1  -1   4  507.15    9.90
   1  -1   4  497.75    9.70
   1  -1   4  469.15   10.10
   1  -1   4  500.95   10.30
  -2   1  -4  260.17    6.70
  -2   1  -4  260.77    6.80
  -2   1  -4  263.37    7.90
  -2   1  -4  247.38    7.30
  -2   1  -4  242.78    7.70
  -2   1  -4  249.48    7.20
   2  -1   4  264.17    6.40
   2  -1   4  253.77    7.40
   2  -1   4  265.97    7.10
   2  -1   4  259.47    7.40
   2  -1   4  273.17    7.10
   2  -1   4  250.57    7.70
  -3   1  -4  268.87    8.00
  -3   1  -4  270.07    8.10
  -3   1  -4  272.27    9.60
  -3   1  -4  258.37    9.50
  -3   1  -4  279.87    9.10
  -3   1  -4  245.48    9.00
   3  -1   4  255.97    9.10
   3  -1   4  274.27    8.60
   3  -1   4  255.57    8.90
   3  -1   4  255.77    8.40
   3  -1   4  260.97    9.60
  -4   1  -4    7.90    5.90
  -4   1  -4    6.30    5.30
  -4   1  -4   14.00    5.40
  -4   1  -4    9.60    6.10
  -4   1  -4   23.50    6.10
  -4   1  -4   13.70    6.50
   4  -1   4    3.60    5.70
   4  -1   4   11.80    6.70
   4  -1   4   16.90    5.40
   4  -1   4   17.10    6.30
   4  -1   4    2.10    7.10
  -5   1  -4   76.69    9.80
  -5   1  -4   88.19   11.50
  -5   1  -4   70.69    9.50
  -5   1  -4   62.39    9.20
   5  -1   4   82.49    9.10
   5  -1   4   65.89   12.20
   5  -1   4   76.69    7.20
   5  -1   4   87.79    9.50
  -6   1  -4  -15.60   12.90
  -6   1  -4   -0.50   13.30
   6  -1   4   -5.10   13.00
   6  -1   4    6.60   13.70
   6  -1   4    3.60   12.40
   6   0  -4   19.00   13.50
   6   0  -4   -2.30   13.60
  -6   0   4   21.40   15.10
  -6   0   4    1.30   15.10
   5   0  -4  122.99   10.00
   5   0  -4  134.29   12.00
   5   0  -4  125.19   11.30
  -5   0   4  123.09   11.70
  -5   0   4  132.39   10.40
  -5   0   4   72.69   12.10
   4   0  -4   48.80    4.40
   4   0  -4   43.60    8.40
   4   0  -4   37.40    8.90
   4   0  -4   55.39    7.50
   4   0  -4   48.20    6.30
   4   0  -4   53.49    6.60
  -4   0   4   53.99    8.50
  -4   0   4   49.20    8.40
  -4   0   4   49.10    8.10
   3   0  -4  186.38    8.30
   3   0  -4  193.48    7.30
   3   0  -4  192.38    7.80
   3   0  -4  176.68    7.40
   3   0  -4  192.18    8.90
   3   0  -4  184.68    5.80
   3   0  -4  178.78    8.50
  -3   0   4  188.18    6.60
  -3   0   4  196.58    8.40
  -3   0   4  186.48    8.50
  -3   0   4  187.18    8.00
  -3   0   4  181.88    7.30
   2   0  -4  104.99    4.10
   2   0  -4  109.59    5.50
   2   0  -4  117.09    4.70
   2   0  -4  106.09    4.50
   2   0  -4  113.59    5.30
   2   0  -4  109.59    5.30
   2   0  -4   98.49    5.10
  -2   0   4  106.79    5.20
  -2   0   4  109.69    5.40
  -2   0   4  111.59    4.60
  -2   0   4  104.89    5.30
  -2   0   4  108.89    4.80
  -2   0   4  108.69    5.10
   1   0  -4 2568.74   44.00
   1   0  -4 2458.35   43.80
   1   0  -4 2438.16   43.50
   1   0  -4 2524.25   43.90
   1   0  -4 2528.45   43.70
   1   0  -4 2572.04   44.20
   1   0  -4 2610.44   44.00
  -1   0   4 2536.85   44.00
  -1   0   4 2493.15   43.80
  -1   0   4 2512.35   44.00
  -1   0   4 2568.04   43.70
  -1   0   4 2532.05   43.80
  -1   0   4 2515.55   43.90
  -1   0   4 2567.24   43.80
   0   0  -4 1056.99   18.50
   0   0  -4 1030.30   18.60
   0   0  -4  985.90   18.20
   0   0  -4 1064.89   18.40
   0   0  -4 1052.89   18.70
   0   0  -4 1038.20   18.80
   0   0  -4 1016.60   18.70
   0   0   4 1021.50   18.20
   0   0   4 1034.70   18.40
   0   0   4 1072.79   18.80
   0   0   4 1039.30   18.80
   0   0   4 1031.50   18.30
   0   0   4 1051.99   18.70
   0   0   4 1041.10   18.70
  -1   0  -4  238.78    5.20
  -1   0  -4  226.78    6.00
  -1   0  -4  232.28    5.90
  -1   0  -4  232.48    6.00
  -1   0  -4  229.58    5.30
  -1   0  -4  232.08    5.90
   1   0   4  236.38    6.00
   1   0   4  227.98    5.90
   1   0   4  240.08    5.50
   1   0   4  228.88    6.00
   1   0   4  236.38    5.40
   1   0   4  232.98    5.90
  -2   0  -4 1589.74   29.20
  -2   0  -4 1558.94   29.30
  -2   0  -4 1598.54   28.70
  -2   0  -4 1569.14   29.40
  -2   0  -4 1619.54   28.70
  -2   0  -4 1597.14   29.20
   2   0   4 1578.64   28.90
   2   0   4 1587.64   28.90
   2   0   4 1582.74   29.10
   2   0   4 1627.24   29.40
   2   0   4 1604.24   29.20
  -3   0  -4   28.20    4.70
  -3   0  -4   27.90    5.30
  -3   0  -4   29.90    3.50
  -3   0  -4   27.50    4.60
  -3   0  -4   24.60    4.20
  -3   0  -4   24.50    3.80
   3   0   4   32.60    4.20
   3   0   4   19.70    4.40
   3   0   4   36.40    4.80
   3   0   4   31.90    4.80
   3   0   4   30.80    4.40
  -4   0  -4   30.60    6.70
  -4   0  -4   38.50    6.30
  -4   0  -4   33.80    6.50
  -4   0  -4   36.50    6.80
  -4   0  -4   33.30    6.90
   4   0   4   27.00    6.80
   4   0   4   34.80    7.00
   4   0   4   35.00    6.00
   4   0   4   43.60    7.30
   4   0   4   27.90    6.20
  -5   0  -4   19.40    9.80
  -5   0  -4   36.20    8.90
  -5   0  -4   42.90    9.10
  -5   0  -4   26.70    7.90
   5   0   4   20.60   11.20
   5   0   4   30.40    8.10
   5   0   4   19.80    6.80
   5   0   4   15.80    8.40
  -6   0  -4  -23.80   13.10
  -6   0  -4   13.80   13.00
   6   0   4    6.70   10.10
   6   0   4   23.30   12.30
   6   0   4   -8.40   13.40
   6  -1  -4    6.90   12.80
   6  -1  -4    4.10   12.80
  -6   1   4   19.20   15.50
  -6   1   4   -2.20   15.40
   5  -1  -4  125.09   11.90
   5  -1  -4  121.69    9.90
   5  -1  -4   75.79   12.60
   5  -1  -4  100.29    9.60
  -5   1   4  131.29   11.80
   4  -1  -4  117.59    9.60
   4  -1  -4   96.59    9.90
   4  -1  -4  123.69    9.00
   4  -1  -4  107.69   10.50
   4  -1  -4  116.39    8.10
  -4   1   4  115.99    9.70
  -4   1   4  106.69   10.80
  -4   1   4  107.69   11.30
   3  -1  -4   43.60    4.80
   3  -1  -4   49.40    5.00
   3  -1  -4   45.30    5.60
   3  -1  -4   39.90    4.10
   3  -1  -4   40.60    3.70
   3  -1  -4   42.00    4.20
   3  -1  -4   34.10    4.80
  -3   1   4   53.79    5.30
  -3   1   4   41.00    3.70
  -3   1   4   49.50    5.20
  -3   1   4   51.09    5.30
   2  -1  -4  191.48    5.60
   2  -1  -4  183.18    5.80
   2  -1  -4  191.58    4.90
   2  -1  -4  191.48    6.30
   2  -1  -4  208.38    6.40
   2  -1  -4  197.58    6.40
   2  -1  -4  188.28    6.00
  -2   1   4  192.78    6.20
  -2   1   4  191.68    6.40
  -2   1   4  192.58    5.30
  -2   1   4  197.48    6.40
  -2   1   4  191.88    6.70
  -2   1   4  194.38    5.80
  -2   1   4  189.98    6.50
   1  -1  -4 4746.73   80.59
   1  -1  -4 4710.83   80.49
   1  -1  -4 4784.42   80.69
   1  -1  -4 4583.74   80.59
   1  -1  -4 4778.12   80.69
  -1   1   4 4644.14   80.99
  -1   1   4 4685.33   80.49
  -1   1   4 4843.12   80.79
  -1   1   4 4688.23   80.69
  -1   1   4 4847.92   80.49
  -1   1   4 4686.43   80.69
  -1   1   4 4762.22   80.69
   0  -1  -4  366.66    7.20
   0  -1  -4  367.86    7.60
   0  -1  -4  376.66    7.10
   0  -1  -4  367.96    7.50
   0  -1  -4  361.46    6.90
   0  -1  -4  375.36    7.70
   0   1   4  386.06    7.60
   0   1   4  372.86    7.20
   0   1   4  371.86    7.30
   0   1   4  372.16    7.50
   0   1   4  369.96    7.10
   0   1   4  359.06    7.40
   0   1   4  370.86    7.70
  -1  -1  -4  915.01   16.50
  -1  -1  -4  914.11   16.50
  -1  -1  -4  895.21   16.90
  -1  -1  -4  882.51   16.90
  -1  -1  -4  925.11   17.00
  -1  -1  -4  921.11   17.10
   1   1   4  925.01   17.00
   1   1   4  924.61   17.00
   1   1   4  924.11   16.70
   1   1   4  909.51   16.60
   1   1   4  916.11   17.20
  -2  -1  -4  147.49    5.60
  -2  -1  -4  133.89    4.80
  -2  -1  -4  126.69    5.80
  -2  -1  -4  137.19    5.40
  -2  -1  -4  127.09    5.90
  -2  -1  -4  137.49    5.10
   2   1   4  142.69    5.90
   2   1   4  134.59    5.30
   2   1   4  150.28    5.90
   2   1   4  130.59    5.00
   2   1   4  123.49    6.00
  -3  -1  -4  539.65   13.30
  -3  -1  -4  566.84   13.30
  -3  -1  -4  558.54   12.90
  -3  -1  -4  551.94   13.30
  -3  -1  -4  550.04   12.60
  -3  -1  -4  556.94   13.80
   3   1   4  553.14   13.10
   3   1   4  550.44   12.90
   3   1   4  538.75   13.20
   3   1   4  547.55   14.10
   3   1   4  554.84   13.10
  -4  -1  -4   88.79    6.90
  -4  -1  -4   91.69    8.90
  -4  -1  -4   81.79    8.40
  -4  -1  -4   82.89    8.30
  -4  -1  -4   89.49    7.70
   4   1   4   77.09    7.50
   4   1   4   86.99    8.70
   4   1   4   89.59    9.50
   4   1   4   92.59    8.60
  -5  -1  -4   66.69    9.00
  -5  -1  -4   75.29    9.70
  -5  -1  -4   82.59    9.20
   5   1   4   76.99    8.10
   5   1   4   95.69   10.00
   5   1   4   86.09    9.30
   5   1   4   83.49   11.90
  -6  -1  -4   22.70   17.40
  -6  -1  -4   19.50   12.90
  -6  -1  -4    6.40   13.10
   6   1   4    4.20   13.30
   6   1   4    2.20    9.60
   6   1   4   17.30   15.70
   6  -2  -4   24.90   11.90
  -6   2   4  -25.20   18.30
   5  -2  -4   18.20   10.90
   5  -2  -4   23.80    7.90
   5  -2  -4    1.50   11.60
   5  -2  -4   33.30    9.70
   5  -2  -4   21.60    9.00
  -5   2   4   31.80   10.10
  -5   2   4   33.90   11.60
   4  -2  -4   16.80    8.40
   4  -2  -4   20.60    5.10
   4  -2  -4   24.30    7.10
  -4   2   4   18.80    7.30
  -4   2   4   20.40    6.70
  -4   2   4   23.60    7.50
   3  -2  -4  110.69    7.00
   3  -2  -4  108.99    6.90
   3  -2  -4  115.69    5.90
   3  -2  -4  122.79    6.50
   3  -2  -4   96.69    6.60
   3  -2  -4  106.99    7.40
  -3   2   4  111.49    7.30
  -3   2   4  111.09    7.30
  -3   2   4  113.29    7.50
   2  -2  -4   19.30    2.80
   2  -2  -4   12.20    3.00
   1  -2  -4 1930.91   34.00
   1  -2  -4 1913.41   33.50
   1  -2  -4 1939.21   33.60
   1  -2  -4 1964.90   33.70
  -1   2   4 1952.60   33.70
  -1   2   4 1941.61   34.20
  -1   2   4 1896.91   34.30
  -1   2   4 1951.20   33.80
  -1   2   4 1917.21   33.70
  -1   2   4 1998.30   33.60
  -1   2   4 1915.41   33.60
   0  -2  -4  239.68    5.70
   0  -2  -4  230.28    4.70
   0  -2  -4  238.38    4.80
   0  -2  -4  193.08    5.40
   0   2   4  228.68    5.20
   0   2   4  239.98    5.30
   0   2   4  237.98    4.90
   0   2   4  239.28    5.60
   0   2   4  238.18    4.80
   0   2   4  226.58    5.20
  -1  -2  -4  891.41   16.80
  -1  -2  -4  889.21   16.10
  -1  -2  -4  909.71   16.80
  -1  -2  -4  886.11   16.60
  -1  -2  -4  925.81   16.30
  -1  -2  -4  872.81   16.60
   1   2   4  899.41   16.70
   1   2   4  906.61   16.40
   1   2   4  898.81   16.80
   1   2   4  894.81   16.80
   1   2   4  889.51   16.70
   1   2   4  924.01   16.40
  -2  -2  -4  451.15   11.00
  -2  -2  -4  452.55    9.90
  -2  -2  -4  440.56    9.70
  -2  -2  -4  441.56   10.30
  -2  -2  -4  450.15   10.20
  -2  -2  -4  458.05   10.60
   2   2   4  477.85   10.50
   2   2   4  447.86   10.20
   2   2   4  464.45   10.20
   2   2   4  446.26   10.50
   2   2   4  455.35   11.00
   2   2   4  445.16   10.40
  -3  -2  -4   51.49    4.90
  -3  -2  -4   58.29    5.00
  -3  -2  -4   51.99    4.30
  -3  -2  -4   50.29    5.80
   3   2   4   54.49    5.00
   3   2   4   53.09    5.30
   3   2   4   59.09    4.90
   3   2   4   48.40    4.40
   3   2   4   52.49    5.60
  -4  -2  -4   80.79    7.00
  -4  -2  -4   82.39    8.40
  -4  -2  -4   65.49    6.70
  -4  -2  -4   76.79    6.80
   4   2   4   72.99    6.80
   4   2   4   80.79   11.80
   4   2   4   71.49    7.20
   4   2   4   75.09    8.10
  -5  -2  -4    8.50    8.90
  -5  -2  -4   26.40    9.20
  -5  -2  -4    5.80    8.00
   5   2   4   21.90    7.50
   5   2   4    5.20    9.00
   5   2   4   11.70    8.00
   5   2   4   10.60   10.50
  -6  -2  -4   30.40   13.40
  -6  -2  -4    0.00   13.10
   6   2   4   15.20   14.00
   6   2   4  -10.20   12.70
   6   2   4    9.00   10.30
   5  -3  -4   19.80   16.20
   5  -3  -4    4.20   10.80
   5  -3  -4   20.80    9.40
   5  -3  -4   15.70    6.90
  -5   3   4   33.00   11.10
   4  -3  -4   99.09    7.50
   4  -3  -4  108.29    8.80
   4  -3  -4   97.69    8.20
  -4   3   4   85.39    8.90
  -4   3   4   86.29    8.70
  -4   3   4  100.49    9.70
   3  -3  -4  472.15   11.80
   3  -3  -4  506.95   11.50
   3  -3  -4  471.75   11.70
   3  -3  -4  474.45   12.50
   3  -3  -4  477.15   12.00
   3  -3  -4  491.55   10.70
  -3   3   4  495.05   12.20
  -3   3   4  461.55   12.50
  -3   3   4  486.25   12.20
  -3   3   4  468.65   12.10
   2  -3  -4 1315.87   24.50
   2  -3  -4 1377.06   25.10
   2  -3  -4 1364.36   24.80
   2  -3  -4 1365.56   25.30
   2  -3  -4 1367.36   24.10
   2  -3  -4 1398.06   24.50
  -2   3   4 1371.36   24.90
  -2   3   4 1359.56   24.70
  -2   3   4 1401.56   25.20
  -2   3   4 1322.77   25.00
  -2   3   4 1385.36   24.70
  -2   3   4 1397.86   25.80
  -2   3   4 1343.57   25.90
   1  -3  -4  831.62   15.00
   1  -3  -4  828.22   15.00
   1  -3  -4  829.92   15.60
  -1   3   4  810.72   15.10
  -1   3   4  814.42   14.80
  -1   3   4  825.72   15.00
  -1   3   4  811.32   15.90
  -1   3   4  846.32   15.00
  -1   3   4  834.82   15.80
   0  -3  -4  924.81   16.50
   0  -3  -4  931.11   16.10
   0  -3  -4  940.51   17.00
   0   3   4  948.31   16.50
   0   3   4  944.71   17.00
   0   3   4  931.21   16.20
   0   3   4  927.81   16.90
   0   3   4  826.42   16.30
  -1  -3  -4  475.85    9.60
  -1  -3  -4  479.65    9.20
  -1  -3  -4  463.45    9.40
  -1  -3  -4  471.75    8.90
   1   3   4  484.75    9.90
   1   3   4  468.75    9.40
   1   3   4  470.75    9.80
   1   3   4  481.25    9.90
   1   3   4  486.85    9.30
   1   3   4  461.15   10.20
  -2  -3  -4  869.41   16.60
  -2  -3  -4  883.81   17.00
  -2  -3  -4  847.52   17.20
  -2  -3  -4  839.32   16.50
  -2  -3  -4  821.12   16.10
   2   3   4  861.01   17.20
   2   3   4  860.21   17.50
   2   3   4  849.02   16.80
   2   3   4  865.21   16.90
   2   3   4  870.61   17.30
   2   3   4  830.62   16.80
  -3  -3  -4   17.30    4.10
  -3  -3  -4   22.70    4.50
  -3  -3  -4   22.90    4.00
  -3  -3  -4   24.10    4.40
  -3  -3  -4   24.00    3.70
   3   3   4   18.60    4.50
   3   3   4   24.50    4.60
   3   3   4   23.50    4.90
   3   3   4   26.90    4.80
   3   3   4   20.70    4.00
  -4  -3  -4   13.80    6.00
  -4  -3  -4   13.80    6.20
  -4  -3  -4   21.90    5.60
  -4  -3  -4   16.10    5.80
   4   3   4   20.70    7.10
   4   3   4   29.10    5.90
   4   3   4   23.30    6.20
   4   3   4    5.40    5.60
  -5  -3  -4    0.50    9.00
  -5  -3  -4   16.40    9.30
  -5  -3  -4    9.00    8.80
  -5  -3  -4    9.50    9.70
   5   3   4    5.20    8.30
   5   3   4    8.00    9.10
   5   3   4    8.30   11.30
   5   3   4   -2.90    8.10
  -6  -3  -4  -28.50   13.30
  -6  -3  -4    3.90   13.30
   6   3   4    8.70   14.00
   6   3   4   -0.80   11.40
   6   3   4    4.00   13.20
   5  -4  -4   12.00    7.10
   5  -4  -4   12.50    9.30
   5  -4  -4   11.10   11.50
  -5   4   4    4.40   10.90
   4  -4  -4   11.90    6.30
   4  -4  -4   12.60    4.40
  -4   4   4    8.60    6.80
  -4   4   4   11.10    7.60
  -4   4   4   18.50    7.00
  -4   4   4   18.30    7.30
   3  -4  -4   79.99    6.70
   3  -4  -4   88.69    6.60
   3  -4  -4   75.19    7.40
   3  -4  -4   82.39    6.70
  -3   4   4   82.69    6.90
  -3   4   4   83.29    7.40
  -3   4   4   84.69    6.90
  -3   4   4   74.39    7.10
   2  -4  -4   88.39    4.40
   2  -4  -4   90.19    5.20
   2  -4  -4   89.09    4.80
   2  -4  -4   90.39    4.70
  -2   4   4   79.89    5.00
  -2   4   4   82.89    5.10
  -2   4   4   91.79    5.10
  -2   4   4   88.49    4.20
  -2   4   4  103.19    6.30
  -2   4   4   92.59    4.80
   1  -4  -4 2650.83   45.00
   1  -4  -4 2557.34   45.90
  -1   4   4 2640.84   44.90
  -1   4   4 2661.43   45.00
  -1   4   4 2667.73   46.20
  -1   4   4 2596.64   46.30
   0  -4  -4   10.70    2.40
   0   4   4   11.90    2.20
   0   4   4   12.80    1.40
   0   4   4    7.50    2.30
  -1  -4  -4   57.69    3.30
  -1  -4  -4   57.79    3.80
  -1  -4  -4   61.49    2.90
   1   4   4   54.79    3.70
   1   4   4   55.59    3.60
   1   4   4   58.49    3.10
   1   4   4   64.89    3.60
   1   4   4   57.79    3.40
  -2  -4  -4  237.08    7.90
  -2  -4  -4  268.97    6.80
  -2  -4  -4  252.97    7.30
  -2  -4  -4  246.38    6.50
  -2  -4  -4  264.77    7.70
   2   4   4  257.47    8.60
   2   4   4  257.07    7.50
   2   4   4  268.67    7.30
   2   4   4  259.07    7.50
   2   4   4  242.08    7.90
   2   4   4  258.37    7.90
  -3  -4  -4   40.90    4.30
  -3  -4  -4   47.10    4.60
  -3  -4  -4   46.60    5.00
  -3  -4  -4   36.50    4.90
  -3  -4  -4   46.20    4.70
   3   4   4   61.39    6.70
   3   4   4   42.70    5.90
   3   4   4   41.80    5.30
   3   4   4   44.90    4.80
   3   4   4   44.80    5.10
  -4  -4  -4    8.00    5.70
  -4  -4  -4   16.00    6.10
  -4  -4  -4   18.50    5.90
  -4  -4  -4    0.00    6.10
   4   4   4   14.60    6.30
   4   4   4   16.00    6.10
   4   4   4    3.60    7.40
   4   4   4    3.80    7.00
   4   4   4   20.80    6.40
  -5  -4  -4    2.50    9.00
  -5  -4  -4   -6.10   10.90
  -5  -4  -4    4.80    8.60
   5   4   4   -6.40    9.60
   5   4   4   12.40    9.00
   5   4   4   10.70   11.60
  -6  -4  -4   -4.00   13.20
  -6  -4  -4   17.60   14.10
   6   4   4   16.00   15.00
   6   4   4    9.80   14.90
   6   4   4   -2.00   11.90
   5  -5  -4   15.10   10.80
  -5   5   4   33.10   11.60
   4  -5  -4    4.20    7.20
   4  -5  -4   19.30    6.90
  -4   5   4   11.50    8.00
  -4   5   4   19.80    7.70
  -4   5   4   -3.20    6.70
  -4   5   4    2.00    7.70
   3  -5  -4   18.00    5.00
   3  -5  -4   13.50    5.40
   3  -5  -4   19.10    4.80
   3  -5  -4   12.10    4.50
  -3   5   4   21.10    4.90
  -3   5   4   19.20    5.50
  -3   5   4   17.40    4.70
  -3   5   4   18.00    4.90
   2  -5  -4 1522.25   28.10
   2  -5  -4 1514.35   27.60
   2  -5  -4 1567.04   29.00
   2  -5  -4 1574.94   28.10
  -2   5   4 1537.15   27.80
  -2   5   4 1594.34   29.70
  -2   5   4 1604.94   28.30
  -2   5   4 1574.74   28.30
  -2   5   4 1548.45   29.60
  -2   5   4 1585.94   28.20
  -2   5   4 1601.44   28.60
   1  -5  -4  110.19    4.80
  -1   5   4  104.79    5.10
  -1   5   4   99.19    6.00
  -1   5   4  111.49    4.30
   0   5   4 1057.19   19.50
   0   5   4 1038.30   19.30
  -1  -5  -4  329.97    7.30
  -1  -5  -4  323.27    7.40
  -1  -5  -4  322.07    6.90
   1   5   4  326.57    7.40
   1   5   4  324.47    7.60
   1   5   4  330.97    7.20
   1   5   4  331.87    7.60
   1   5   4  332.97    7.60
  -2  -5  -4 4738.13   80.99
  -2  -5  -4 4585.64   80.19
  -2  -5  -4 4666.03   80.09
  -2  -5  -4 4516.75   79.79
  -2  -5  -4 4838.72   80.59
   2   5   4 4626.84   81.09
   2   5   4 4729.13   80.59
   2   5   4 4697.63   81.09
   2   5   4 4614.34   81.79
   2   5   4 4656.13   80.89
   2   5   4 4747.73   80.89
  -3  -5  -4 1080.79   21.20
  -3  -5  -4 1092.59   22.50
  -3  -5  -4 1104.19   21.70
  -3  -5  -4 1080.79   21.70
   3   5   4 1055.19   22.70
   3   5   4 1056.89   22.90
   3   5   4 1069.29   22.30
   3   5   4 1078.49   22.20
   3   5   4 1035.80   22.50
   3   5   4 1095.79   23.50
  -4  -5  -4    6.00    6.70
  -4  -5  -4   18.60    6.60
  -4  -5  -4   27.30    6.70
   4   5   4    6.80    8.70
   4   5   4    5.00    8.40
   4   5   4   21.70    7.20
   4   5   4   21.00    7.30
  -5  -5  -4   27.40   10.60
  -5  -5  -4   28.20    9.80
   5   5   4   10.50    9.30
   5   5   4   30.60   13.40
   5   5   4   42.80   10.20
   5   5   4   30.40    9.80
  -6  -5  -4   12.10   14.90
   6   5   4   12.70   15.90
   6   5   4   10.60   13.80
   6   5   4    7.60   15.00
   5  -6  -4    7.30   10.30
  -5   6   4   10.90   13.10
   4  -6  -4   69.69    7.90
   4  -6  -4   67.29    7.30
  -4   6   4   79.49    9.50
  -4   6   4   86.29    8.90
  -4   6   4   76.59    9.60
  -4   6   4   72.99    8.10
   3  -6  -4  179.98    8.60
   3  -6  -4  177.18    8.40
   3  -6  -4  177.98    7.20
  -3   6   4  178.38    8.90
  -3   6   4  190.68    9.50
  -3   6   4  153.08   12.70
  -3   6   4  165.78    8.20
  -3   6   4  164.98    9.10
   2  -6  -4  176.98    7.40
  -2   6   4  168.68    8.60
  -2   6   4  166.48    6.30
  -2   6   4  183.08    8.00
  -2   6   4  159.98    6.50
  -2   6   4  168.98    5.10
  -2   6   4  168.68    5.80
  -2   6   4  178.98    7.30
   1  -6  -4  114.89    5.20
  -1   6   4  110.89    5.50
  -1   6   4  109.09    6.00
  -1   6   4  112.49    5.30
  -1   6   4  116.29    5.30
   0   6   4 1138.59   21.00
  -1  -6  -4   11.20    2.30
  -1  -6  -4   10.00    1.90
  -1  -6  -4   15.60    2.50
   1   6   4    9.70    2.30
   1   6   4   11.60    2.50
   1   6   4   12.20    2.70
   1   6   4   14.30    2.80
  -2  -6  -4  122.89    4.40
  -2  -6  -4  128.99    4.90
  -2  -6  -4  123.59    4.70
  -2  -6  -4  128.19    7.10
   2   6   4  121.09    6.40
   2   6   4  117.89    7.00
   2   6   4  123.19    6.10
   2   6   4  131.49    5.50
   2   6   4  125.59    7.50
   2   6   4  117.59    7.20
  -3  -6  -4   34.40    4.30
  -3  -6  -4   37.30    5.20
  -3  -6  -4   51.89    5.30
  -3  -6  -4   39.00    4.30
  -3  -6  -4   57.99    6.10
   3   6   4   42.10    6.40
   3   6   4   52.49    6.20
   3   6   4   44.10    6.40
   3   6   4   46.00    5.50
   3   6   4   38.70    5.70
   3   6   4   33.60    6.70
  -4  -6  -4   -4.00    7.50
  -4  -6  -4    0.30    7.10
  -4  -6  -4   -0.80    6.10
   4   6   4   -2.90    8.60
   4   6   4   -3.70    8.50
   4   6   4   -2.80    8.10
  -5  -6  -4   25.20   11.10
  -5  -6  -4   13.30   10.20
   5   6   4   14.20   10.30
   5   6   4   17.10   13.70
   5   6   4    6.10   10.20
   5   6   4   18.80   11.40
  -6  -6  -4   16.80   16.30
   6   6   4    1.30   18.20
   6   6   4   27.60   14.40
   5  -7  -4    9.70   12.20
  -5   7   4   -0.50   13.80
  -5   7   4   15.40   13.60
  -5   7   4   13.90   10.80
   4  -7  -4   16.00    7.90
  -4   7   4    6.90    9.50
  -4   7   4   26.30    9.00
  -4   7   4   -5.30    9.60
  -4   7   4    8.10    7.90
   3  -7  -4   44.20    6.70
  -3   7   4   34.40    5.30
  -3   7   4   37.70    6.20
  -3   7   4   45.90    6.80
  -3   7   4   35.30   10.20
  -3   7   4   30.90    6.20
   2  -7  -4   28.10    4.70
  -2   7   4   19.90    4.90
  -2   7   4   27.40    5.20
  -2   7   4   23.40    6.50
  -1   7   4   10.20    3.50
  -1   7   4   11.60    3.80
  -1   7   4   17.70    4.10
  -1   7   4   18.00    3.80
   0   7   4  366.66   10.20
   0   7   4  359.06    8.50
   0   7   4  349.96    9.20
   1   7   4   34.90    3.50
   1   7   4   39.10    3.10
   1   7   4   39.50    3.10
   1   7   4   34.50    3.60
   1   7   4   36.70    3.20
   1   7   4   32.50    4.80
  -2  -7  -4  412.96   10.20
  -2  -7  -4  424.66    9.10
  -2  -7  -4  416.26   10.50
   2   7   4  423.76   12.60
   2   7   4  368.66   12.30
   2   7   4  438.26   11.30
   2   7   4  437.36   11.00
   2   7   4  431.06    9.90
   2   7   4  423.46   10.80
  -3  -7  -4  450.85   12.30
  -3  -7  -4  469.05   10.80
  -3  -7  -4  496.25   11.70
  -3  -7  -4  470.45   13.20
   3   7   4  462.75   15.10
   3   7   4  487.45   13.30
   3   7   4  464.65   15.60
   3   7   4  468.25   14.60
   3   7   4  477.05   14.30
   3   7   4  486.95   13.90
  -4  -7  -4   10.90    7.70
  -4  -7  -4   -1.40    6.70
   4   7   4    6.60    8.00
   4   7   4   10.30    8.00
   4   7   4   -3.30    7.80
   4   7   4   -1.20    9.20
  -5  -7  -4   14.40   10.20
  -5  -7  -4   20.20   12.60
   5   7   4   17.60   11.60
   5   7   4    9.00   12.10
   5   7   4    3.30   12.40
  -5   8   4   12.40   15.10
   4  -8  -4   13.40    9.80
  -4   8   4   11.60    7.90
  -4   8   4   11.90   11.10
  -4   8   4   14.60    9.40
  -4   8   4   24.90    7.30
  -4   8   4   -0.60   10.80
   3  -8  -4   -3.20    6.70
  -3   8   4   -8.90    4.00
  -3   8   4    2.20    6.10
  -3   8   4    7.40    7.80
  -3   8   4    4.80    7.40
  -3   8   4    3.80    4.50
  -3   8   4    3.60    6.00
   2  -8  -4   -1.30    5.10
  -2   8   4    4.50    5.30
  -2   8   4    9.80    6.60
  -2   8   4    0.40    5.20
  -1   8   4  150.48    7.60
  -1   8   4  165.58    7.20
  -1   8   4  154.48    8.00
  -1   8   4  146.89    8.40
   0   8   4   78.89    5.30
   0   8   4   85.19    6.40
   0   8   4   76.29    6.40
   0   8   4   95.59    7.30
   1   8   4    8.30    2.90
   1   8   4    6.90    4.70
   1   8   4    8.30    3.40
   1   8   4    7.00    3.20
   1   8   4    3.10    3.30
   1   8   4    6.30    3.50
   1   8   4   12.70    3.90
  -2  -8  -4  458.75   11.20
  -2  -8  -4  451.45   11.30
   2   8   4  480.85   12.50
   2   8   4  432.56   12.50
   2   8   4  440.46   12.40
   2   8   4  457.15   11.60
   2   8   4  474.45   14.00
  -3  -8  -4   15.90    4.00
  -3  -8  -4   13.00    4.10
   3   8   4   16.80    6.90
   3   8   4   25.90    7.30
   3   8   4   24.70    6.40
   3   8   4    8.40    6.00
   3   8   4   25.70    7.60
   3   8   4    7.00    9.20
  -4  -8  -4   19.40    6.50
  -4  -8  -4   16.50    8.60
   4   8   4   16.70   10.60
   4   8   4    8.50    8.30
   4   8   4   19.90    8.50
   4   8   4    4.60    9.70
  -5  -8  -4   -6.50    9.80
   5   8   4   16.40   12.70
   5   8   4  -10.70   12.40
   5   8   4    3.10   13.10
   4  -9  -4    7.80   10.10
  -4   9   4    3.00   13.00
  -4   9   4    0.60   12.40
  -4   9   4    4.90    7.10
  -4   9   4  -17.60   10.50
   3  -9  -4   30.30    7.60
  -3   9   4   26.50    7.20
  -3   9   4   41.40    9.40
  -3   9   4   30.80    9.10
  -3   9   4   34.30    7.50
  -2   9   4   52.99    9.20
  -2   9   4   67.19    7.20
  -2   9   4   71.09    6.70
  -1   9   4   98.79    7.40
  -1   9   4   86.09    7.50
  -1   9   4   83.99    8.80
  -1   9   4  101.59    7.70
   0   9   4   68.29    6.20
   0   9   4   57.89    5.60
   0   9   4   64.09    5.70
   0   9   4   64.09    6.30
   1   9   4  258.57    8.30
   1   9   4  260.87    9.70
   1   9   4  241.58    8.40
   1   9   4  279.97   11.40
  -2  -9  -4   31.80    4.90
  -2  -9  -4   20.70    4.40
   2   9   4   18.20    5.70
   2   9   4   24.30    5.70
   2   9   4   22.80    5.80
   3   9   4   13.60    8.50
   3   9   4   -4.20    6.60
   3   9   4    5.40    7.50
   3   9   4    2.80    6.90
   3   9   4   11.00    7.90
  -4  -9  -4   10.60    6.30
   4   9   4   10.10   11.30
   4   9   4    3.20    9.40
   4   9   4   -7.40   10.10
  -5  -9  -4   15.20   10.70
   5   9   4   -4.80   14.00
   5   9   4   -7.20   14.70
   5   9   4   12.90   14.90
   4 -10  -4    0.90   11.60
  -4  10   4   23.80   15.10
  -4  10   4   -9.80   13.70
   3 -10  -4   15.50    8.20
  -3  10   4    1.70    9.50
  -3  10   4    8.20   10.00
  -3  10   4   20.30    8.10
  -2  10   4   -0.90    6.80
  -2  10   4    9.80    7.80
  -1  10   4   24.20    7.70
  -1  10   4   38.10    6.50
  -1  10   4   33.50    7.20
  -1  10   4   35.40    5.70
   0  10   4    5.40    6.30
   0  10   4    4.00    4.30
   0  10   4    6.70    6.60
   0  10   4    1.70    6.10
   1  10   4   80.99    7.60
   1  10   4   86.99    8.10
   1  10   4   98.59    8.70
   1  10   4  116.59    9.10
   2  10   4   -0.80    7.30
   2  10   4   -0.40    5.10
   2  10   4    0.90    6.30
   2  10   4   -2.70    6.30
   2  10   4   -2.70    6.40
  -3 -10  -4    9.90    7.40
   3  10   4   12.50    9.30
   3  10   4   22.00    9.20
   3  10   4    8.10    8.70
   3  10   4    6.70    9.80
   3  10   4   10.40    7.50
   4  10   4    0.20   11.10
   4  10   4   10.50   11.60
   4  10   4  -10.70   12.20
   3 -11  -4   -4.00   10.30
  -3  11   4    7.70   10.30
  -3  11   4   19.20   14.10
  -2  11   4    6.80    6.90
  -2  11   4   15.30    8.40
  -2  11   4    4.30    9.70
  -1  11   4    2.90    6.20
  -1  11   4   -2.70    6.80
  -1  11   4    1.70    8.00
  -1  11   4   -2.10    9.10
   0  11   4  143.39   11.00
   0  11   4  128.39    8.30
   0  11   4  149.39   12.20
   0  11   4  152.18   12.30
   1  11   4  137.19   12.40
   1  11   4  115.69   10.80
   1  11   4  143.79    9.10
   1  11   4  140.29   11.20
   2  11   4  -11.70    7.30
   2  11   4    4.80    8.00
   2  11   4   -9.40    8.70
   2  11   4   -5.70    7.10
   2  11   4   -4.70    6.00
   2  11   4  -10.30    7.90
   3  11   4   -1.00   11.30
   3  11   4   21.90   10.10
   3  11   4    1.20    8.90
   4  11   4   36.50   13.70
   4  11   4   35.00   12.50
   4  11   4   46.60   14.60
  -3  12   4   -2.30   12.90
  -3  12   4  -24.70   16.20
  -2  12   4   -6.20    8.00
  -2  12   4  -11.00    9.00
  -2  12   4    2.50   12.10
  -1  12   4   17.30    8.70
  -1  12   4    0.70   10.20
  -1  12   4    8.30    7.10
   0  12   4  422.86   16.70
   0  12   4  439.76   18.10
   0  12   4  413.06   17.70
   0  12   4  399.46   12.50
   1  12   4    9.80   10.00
   1  12   4    5.70    7.20
   1  12   4    7.70    9.00
   2  12   4    7.40    6.60
   2  12   4    3.40    8.90
   2  12   4    4.20   10.40
   2  12   4    0.00    9.90
   2  12   4    5.80   10.30
   2  12   4    0.10    8.30
   3  12   4   -5.20   13.30
   3  12   4   33.80   12.40
   3  12   4    2.10   10.20
  -2  13   4    4.30   12.00
  -2  13   4   -1.90   15.30
  -1  13   4    9.50    8.60
  -1  13   4  -14.70   12.60
  -1  13   4   -2.90   10.60
   0  13   4   -6.70   12.00
   0  13   4   18.10   11.50
   1  13   4  -11.80   11.80
   1  13   4   13.90    7.90
   1  13   4    5.50   12.90
   2  13   4   15.40   10.20
   2  13   4  -14.30    7.70
   2  13   4   -7.10   12.90
   3  13   4   25.00   13.30
  -1  14   4   46.80   17.70
  -1  14   4   21.70   13.30
   0  14   4    3.40   16.20
   0  14   4   16.30   13.50
   1  14   4   42.10   14.30
   1  14   4   43.60   16.40
   1  13  -5   27.40   14.90
   0  13  -5    0.80   13.60
   0  13  -5   28.50   13.50
  -1  13  -5   26.80   14.60
  -1  13  -5   -0.90   13.30
   2  12  -5   -7.60   13.70
   2  12  -5  -37.60   23.60
   2  12  -5  -11.80   16.20
   2  12  -5   37.10   20.40
   1  12  -5   -3.00   12.60
   1  12  -5    4.30   14.20
   1  12  -5   -0.50   11.50
   1  12  -5   -2.60   11.50
   0  12  -5    3.80   14.40
   0  12  -5  -14.60   10.90
   0  12  -5   23.30   11.10
   0  12  -5    5.30   10.00
  -1  12  -5   14.60   15.50
  -1  12  -5    8.80   10.10
  -1  12  -5    7.70   11.70
  -1  12  -5   -2.10   10.20
  -2  12  -5   -6.60   11.00
  -2  12  -5   -6.00   11.00
  -2  12  -5   24.70   13.70
  -2  12  -5   15.70   15.90
   3  11  -5   26.30   14.40
   3  11  -5   27.60   23.70
   2  11  -5    6.20   11.30
   2  11  -5    5.80   10.80
   2  11  -5   12.70   11.50
   2  11  -5   -9.90   13.90
   1  11  -5    7.60    9.30
   1  11  -5  -19.90    8.90
   1  11  -5   -3.80   12.10
   1  11  -5   -2.60   10.40
   0  11  -5   27.90   10.20
   0  11  -5   -0.30    9.00
   0  11  -5   -3.70    8.40
   0  11  -5   20.40   10.80
   0  11  -5   15.60   11.70
   0  11  -5   15.50    8.80
  -1  11  -5   -0.70    8.90
  -1  11  -5    4.10    8.90
  -1  11  -5   11.70    8.60
  -1  11  -5   19.60   11.30
  -1  11  -5   -1.00    8.00
  -2  11  -5   16.40   13.00
  -2  11  -5   -8.20    8.50
  -2  11  -5  -19.80   12.60
  -2  11  -5    6.30   11.10
  -2  11  -5   -5.10    9.00
  -3  11  -5    0.40    9.50
  -3  11  -5   25.00   10.90
  -3  11  -5   45.80   14.10
  -3  11  -5    7.30   16.80
   3  10  -5   23.00   11.50
   3  10  -5   -8.40   13.00
   3  10  -5   28.00   11.80
  -3 -10   5   -1.70    8.30
   2  10  -5   43.30   10.60
   2  10  -5   31.30   10.40
   2  10  -5   62.89    9.50
  -2 -10   5   44.60    6.00
   1  10  -5   -5.60    7.20
   1  10  -5   -3.10    8.40
   1  10  -5   -7.60    9.00
   1  10  -5    2.00    7.90
   1  10  -5   -5.10    9.20
   1  10  -5   -9.00    8.90
   0  10  -5   19.30    7.30
   0  10  -5   15.50    9.70
   0  10  -5   28.20    7.60
   0  10  -5   22.50    7.20
   0  10  -5   18.00    7.80
   0  10  -5   38.30    7.30
   0 -10   5   25.10    5.50
  -1  10  -5    1.70    9.00
  -1  10  -5   15.70    6.10
  -1  10  -5   16.80    7.00
  -1  10  -5    8.20    7.50
  -1  10  -5    2.40    7.00
  -1  10  -5   11.80    7.40
   1 -10   5   -1.30    5.90
  -2  10  -5   16.10    7.70
  -2  10  -5   13.80    8.30
  -2  10  -5   23.70    9.30
  -2  10  -5   15.10   10.20
  -2  10  -5   12.30   11.70
  -2  10  -5   10.30    7.90
  -2  10  -5    9.20    7.40
   2 -10   5   16.50    5.00
   2 -10   5   10.40    7.30
  -3  10  -5   10.80   10.80
  -3  10  -5   15.10   13.90
  -3  10  -5   10.20    9.90
  -3  10  -5   11.40    8.30
   3 -10   5    5.30    6.90
  -4  10  -5   -2.40   15.60
  -4  10  -5  -12.10   17.40
   4 -10   5    0.60    9.80
   4   9  -5    4.90   14.10
   4   9  -5  -13.00   14.00
   4   9  -5   -3.50   14.70
  -4  -9   5  -13.30   11.10
   3   9  -5    3.30   10.10
   3   9  -5    5.20   10.70
   3   9  -5   22.20   10.40
  -3  -9   5   17.00    7.60
  -3  -9   5   10.50    9.30
   2   9  -5   12.80    9.50
   2   9  -5    4.00    8.30
   2   9  -5   17.60    8.20
   2   9  -5   14.00    8.00
  -2  -9   5   11.40    6.80
  -2  -9   5   17.50    5.70
   1   9  -5   -1.00    7.80
   1   9  -5   26.00    7.80
   1   9  -5   15.60    7.00
   1   9  -5   11.20    6.70
   1   9  -5    3.20    6.60
   1   9  -5    6.80    7.20
  -1  -9   5   17.70    5.60
  -1  -9   5    7.70    4.20
   0   9  -5   18.30    7.00
   0   9  -5    8.60    6.10
   0   9  -5    6.30    5.90
   0   9  -5   13.80    6.20
   0   9  -5   12.60    5.90
   0  -9   5   15.60    5.00
  -1   9  -5   55.89    6.40
  -1   9  -5   53.69    6.90
  -1   9  -5   63.29    9.30
  -1   9  -5   67.69    7.00
  -1   9  -5   60.69    6.00
  -1   9  -5   56.49    7.30
  -1   9  -5   54.99    6.60
   1  -9   5   54.79    6.00
  -2   9  -5   40.70    8.10
  -2   9  -5   19.30    7.20
  -2   9  -5   32.20    9.50
  -2   9  -5   29.50    5.60
  -2   9  -5   31.70    6.70
  -2   9  -5   21.90    9.10
  -2   9  -5   26.50    6.40
   2  -9   5   17.70    5.90
   2  -9   5   18.30    4.60
  -3   9  -5   14.70    6.40
  -3   9  -5    5.50    7.00
  -3   9  -5   -1.20   10.60
  -3   9  -5   13.40    8.60
  -3   9  -5   11.00    8.40
   3  -9   5    2.50    9.40
   3  -9   5   18.10    6.30
  -4   9  -5   39.00   13.80
  -4   9  -5   13.70   16.50
  -4   9  -5   18.00   12.00
   4  -9   5   35.50    9.30
   4   8  -5   -5.40   14.30
   4   8  -5   28.90   13.30
   4   8  -5    4.40   11.50
  -4  -8   5    8.90   10.10
   3   8  -5   27.80    9.60
   3   8  -5   37.00   10.00
   3   8  -5   48.50    9.50
  -3  -8   5   33.80    7.90
  -3  -8   5   36.20    7.10
   2   8  -5  214.68   11.80
   2   8  -5  220.08   13.30
   2   8  -5  234.18   11.50
   2   8  -5  225.48   14.40
  -2  -8   5  215.88    9.50
  -2  -8   5  231.78    9.10
   1   8  -5 1021.20   22.40
   1   8  -5 1011.80   22.90
   1   8  -5 1063.29   23.60
   1   8  -5 1048.00   22.60
   1   8  -5 1065.49   22.00
  -1  -8   5 1011.40   20.90
  -1  -8   5 1061.19   22.70
  -1  -8   5 1034.30   20.20
   0   8  -5    7.30    4.80
   0   8  -5   16.10    5.20
   0   8  -5    2.50    5.00
   0   8  -5   11.30    6.00
   0   8  -5   12.50    4.00
   0   8  -5    7.80    5.40
   0   8  -5   14.90    5.10
   0  -8   5   13.00    3.90
   0  -8   5   10.10    3.60
   0  -8   5   -0.50    6.70
  -1   8  -5    6.20    4.90
  -1   8  -5    7.50    4.40
  -1   8  -5   -5.00    5.40
  -1   8  -5   10.00    6.50
  -1   8  -5   -1.20    5.30
  -1   8  -5   -0.60    5.10
  -1   8  -5    2.00    5.00
   1  -8   5    3.40    4.20
   1  -8   5    2.40    3.30
   1  -8   5    5.60    3.40
  -2   8  -5   55.59    6.20
  -2   8  -5   55.59    7.80
  -2   8  -5   60.69    6.50
  -2   8  -5   49.70    5.10
  -2   8  -5   40.20    8.10
  -2   8  -5   55.69    7.30
  -2   8  -5   57.09    6.00
   2  -8   5   57.09    4.80
   2  -8   5   55.29    5.80
  -3   8  -5    7.40    7.90
  -3   8  -5   14.30    7.30
  -3   8  -5   12.90    7.40
  -3   8  -5   16.00    5.90
  -3   8  -5   16.00   11.10
  -3   8  -5    5.30    9.40
   3  -8   5    7.60    7.00
   3  -8   5   17.30    5.80
  -4   8  -5    7.40   10.00
  -4   8  -5    3.70   11.10
  -4   8  -5    0.30   14.10
   4  -8   5    4.90    7.70
  -5   8  -5   -2.30   19.60
  -5   8  -5   12.20   17.00
   5  -8   5   11.00   11.80
   5   7  -5   13.20   15.20
  -5  -7   5    5.60   15.00
   4   7  -5    3.80   16.70
   4   7  -5   16.10   11.90
   4   7  -5   54.59   11.20
   4   7  -5   23.10    7.50
   4   7  -5   14.90   10.60
  -4  -7   5   19.40   10.30
  -4  -7   5   23.50    9.90
   3   7  -5    7.30    8.10
   3   7  -5   21.60   11.10
   3   7  -5    7.70    7.60
   3   7  -5   11.90    8.10
  -3  -7   5   12.20    7.40
  -3  -7   5  -10.00   15.10
   2   7  -5   72.19    7.50
   2   7  -5   81.79    8.50
   2   7  -5   56.69    7.70
   2   7  -5   88.79    7.60
   2   7  -5   74.89    8.00
  -2  -7   5   61.09    7.70
  -2  -7   5   62.99    6.70
  -2  -7   5   66.19    6.30
  -2  -7   5   76.39    7.00
   1   7  -5    5.30    5.60
   1   7  -5    4.70    5.10
   1   7  -5   11.90    5.40
   1   7  -5    4.30    5.40
   1   7  -5   -4.50    5.30
   1   7  -5   -0.80    5.30
  -1  -7   5   -2.70    6.40
  -1  -7   5    1.90    3.60
  -1  -7   5    6.80    5.50
  -1  -7   5   -2.50    4.30
   0   7  -5   44.90    5.90
   0   7  -5   44.60    4.70
   0   7  -5   58.89    5.10
   0   7  -5   41.60    4.60
   0   7  -5   45.00    3.80
   0   7  -5   48.60    5.30
   0   7  -5   38.80    5.00
   0  -7   5   44.70    6.20
   0  -7   5   33.20    4.00
   0  -7   5   49.20    4.80
   0  -7   5   47.40    4.90
   0  -7   5   48.30    4.30
  -1   7  -5   78.39    7.20
  -1   7  -5   92.69    5.80
  -1   7  -5   90.69    6.70
  -1   7  -5   77.29    8.30
  -1   7  -5   85.49    6.20
  -1   7  -5   89.79    6.90
   1  -7   5   79.09    7.50
   1  -7   5   79.19    5.40
   1  -7   5   84.99    5.50
   1  -7   5   86.29    7.00
  -2   7  -5  224.38   10.00
  -2   7  -5  219.58   11.00
  -2   7  -5  203.68    7.60
  -2   7  -5  211.38    8.40
  -2   7  -5  214.08   11.20
  -2   7  -5  211.68    8.50
  -2   7  -5  207.48    9.50
   2  -7   5  211.48    7.40
   2  -7   5  214.88    6.80
   2  -7   5  219.38    7.40
  -3   7  -5    4.20    8.80
  -3   7  -5   14.10    9.10
  -3   7  -5   19.00    6.60
  -3   7  -5   11.00    5.20
  -3   7  -5    8.20    6.40
  -3   7  -5   15.50    7.50
   3  -7   5   13.10    5.30
   3  -7   5   19.50    4.60
  -4   7  -5    5.80    7.40
  -4   7  -5  -24.50    9.50
  -4   7  -5    1.20   11.40
  -4   7  -5   14.40    9.10
   4  -7   5    2.10    5.70
   4  -7   5   -6.40    7.30
  -5   7  -5    1.90   14.60
  -5   7  -5    2.10   17.70
  -5   7  -5    1.10   12.30
   5  -7   5   11.40   11.30
   5   6  -5    6.70   10.70
   5   6  -5  -18.20   15.40
   5   6  -5  -14.40   13.60
   5   6  -5  -16.20   12.70
  -5  -6   5    9.90   13.90
  -5  -6   5   -5.10   13.80
   4   6  -5   25.60   10.30
   4   6  -5   24.30    7.30
   4   6  -5   35.90    9.80
   4   6  -5   32.00   13.90
   4   6  -5   31.20    9.40
  -4  -6   5   46.60    8.60
  -4  -6   5   30.80    6.40
  -4  -6   5   28.70    9.00
   3   6  -5   48.60    7.20
   3   6  -5   40.80    4.80
   3   6  -5   39.00    8.80
   3   6  -5   46.00    7.80
  -3  -6   5   33.80   10.50
  -3  -6   5   18.80    9.20
  -3  -6   5   33.00    8.40
  -3  -6   5   47.60    4.90
  -3  -6   5   43.70    6.30
  -3  -6   5   40.70    6.80
   2   6  -5  777.92   17.80
   2   6  -5  732.73   18.20
   2   6  -5  736.13   17.80
   2   6  -5  769.72   17.30
   2   6  -5  771.82   17.70
  -2  -6   5  785.22   16.40
  -2  -6   5  719.13   18.90
  -2  -6   5  758.42   17.60
  -2  -6   5  775.32   15.10
  -2  -6   5  742.23   18.20
  -2  -6   5  786.92   16.60
   1   6  -5  374.56   10.10
   1   6  -5  363.36   10.70
   1   6  -5  359.36    8.30
   1   6  -5  363.26   10.70
   1   6  -5  348.27   10.30
   1   6  -5  353.66   10.50
  -1  -6   5  357.66   10.90
  -1  -6   5  365.36    8.90
  -1  -6   5  436.86   14.80
  -1  -6   5  371.16   11.90
  -1  -6   5  357.16    9.40
  -1  -6   5  364.86    9.10
   0   6  -5   97.19    6.50
   0   6  -5  106.59    6.00
   0   6  -5  107.29    5.80
   0   6  -5  101.19    6.00
   0   6  -5   99.29    7.60
   0   6  -5   98.89    5.00
   0   6  -5   94.49    5.60
   0  -6   5  104.79    6.30
   0  -6   5  106.19    5.00
   0  -6   5  104.69    5.80
   0  -6   5   97.09    6.90
   0  -6   5  107.09    5.30
  -1   6  -5  356.76    8.80
  -1   6  -5  370.86   11.30
  -1   6  -5  374.06    9.30
  -1   6  -5  351.16   10.20
  -1   6  -5  373.66   10.40
  -1   6  -5  374.26   10.20
  -1   6  -5  359.86    9.60
   1  -6   5  359.86    9.10
   1  -6   5  367.76    8.90
   1  -6   5  357.86    8.90
   1  -6   5  357.46   10.30
   1  -6   5  359.76    9.80
  -2   6  -5  193.58    6.70
  -2   6  -5  196.68    8.40
  -2   6  -5  204.08    9.00
  -2   6  -5  187.18    7.40
  -2   6  -5  190.28    7.50
  -2   6  -5  193.68   10.40
  -2   6  -5  205.58    9.90
   2  -6   5  190.28    6.90
   2  -6   5  189.08   10.30
   2  -6   5  193.48    7.60
   2  -6   5  195.38    8.90
   2  -6   5  187.78    6.80
   2  -6   5  209.98    7.50
  -3   6  -5   20.60    5.10
  -3   6  -5   35.10    8.10
  -3   6  -5   24.00    7.80
  -3   6  -5   23.00    5.60
  -3   6  -5   28.40    6.80
  -3   6  -5   34.20    7.50
   3  -6   5   28.30    5.00
   3  -6   5   22.50    5.90
   3  -6   5   26.50    5.30
  -4   6  -5   41.10    7.60
  -4   6  -5   45.40    8.30
  -4   6  -5   43.20   11.50
  -4   6  -5   18.50    9.20
   4  -6   5   43.70    6.50
   4  -6   5   31.50    8.30
  -5   6  -5    6.50   12.10
  -5   6  -5  -10.90   12.10
  -5   6  -5  -10.70   15.90
   5  -6   5   15.50    8.50
   5  -6   5   27.30   10.70
   5   5  -5   -6.30   10.20
   5   5  -5   23.40   15.70
   5   5  -5    7.80   11.20
   5   5  -5   14.40   12.80
  -5  -5   5   -9.90   11.80
  -5  -5   5   13.30   12.30
  -5  -5   5   31.20    9.70
   4   5  -5   54.19    9.10
   4   5  -5   66.49   17.00
   4   5  -5   28.00   13.00
   4   5  -5   63.39    7.20
   4   5  -5   53.19    9.10
  -4  -5   5   46.40    6.20
  -4  -5   5   35.90   12.90
  -4  -5   5   59.29   13.00
  -4  -5   5   64.59    8.60
  -4  -5   5   52.99    8.20
   3   5  -5   13.00    6.40
   3   5  -5    4.00    7.70
   3   5  -5    9.20    4.40
   3   5  -5   13.10    6.00
  -3  -5   5   11.50    8.00
  -3  -5   5   17.50    6.10
  -3  -5   5   13.30    4.30
  -3  -5   5    4.50    7.80
  -3  -5   5   14.10    5.50
  -3  -5   5    9.50    8.00
   2   5  -5 1191.58   24.80
   2   5  -5 1203.98   24.60
   2   5  -5 1244.88   24.60
   2   5  -5 1199.28   24.10
   2   5  -5 1213.78   24.70
  -2  -5   5 1214.08   25.00
  -2  -5   5 1242.68   23.80
  -2  -5   5 1256.47   23.60
  -2  -5   5 1217.88   24.50
  -2  -5   5 1234.78   22.60
  -2  -5   5 1225.28   25.60
   1   5  -5  106.59    6.40
   1   5  -5  108.29    6.00
   1   5  -5  105.69    6.00
   1   5  -5  103.19    6.00
   1   5  -5  114.09    6.30
   1   5  -5  103.19    4.70
  -1  -5   5  106.79    5.20
  -1  -5   5  108.59    5.00
  -1  -5   5  112.19    5.10
  -1  -5   5  109.29    7.10
  -1  -5   5   94.79    6.50
  -1  -5   5  109.09    5.90
   0   5  -5  233.28    7.50
   0   5  -5  235.18    6.80
   0   5  -5  236.38    8.10
   0   5  -5  236.98    6.60
   0   5  -5  235.38    7.20
   0   5  -5  235.28    7.30
   0   5  -5  233.98    7.30
   0  -5   5  243.68    6.50
   0  -5   5  212.28    6.50
   0  -5   5  253.67    7.90
   0  -5   5  235.38    7.10
   0  -5   5  240.68    7.60
   0  -5   5  247.68    7.20
  -1   5  -5   47.40    4.40
  -1   5  -5   45.70    4.30
  -1   5  -5   49.60    5.00
  -1   5  -5   50.39    4.80
  -1   5  -5   51.29    4.40
  -1   5  -5   45.10    4.30
  -1   5  -5   52.69    4.10
   1  -5   5   41.90    4.80
   1  -5   5   49.00    3.70
   1  -5   5   54.09    5.30
   1  -5   5   49.80    4.50
   1  -5   5   51.69    4.90
   1  -5   5   44.80    4.50
  -2   5  -5  426.76   12.30
  -2   5  -5  422.76    9.90
  -2   5  -5  427.36   10.30
  -2   5  -5  417.06   10.30
  -2   5  -5  444.86   11.60
  -2   5  -5  434.86   12.50
  -2   5  -5  434.86   11.70
   2  -5   5  441.46   10.40
   2  -5   5  423.46   10.20
   2  -5   5  447.26   10.40
   2  -5   5  414.06   12.50
   2  -5   5  429.66   10.50
   2  -5   5  433.76   10.80
   2  -5   5  449.26   11.70
  -3   5  -5    6.80    6.90
  -3   5  -5   21.30    6.10
  -3   5  -5    1.60    5.20
  -3   5  -5    8.90    6.60
  -3   5  -5    8.90    4.50
  -3   5  -5   13.50    5.00
   3  -5   5    7.90    4.80
   3  -5   5   11.90    7.20
   3  -5   5    8.80    6.40
   3  -5   5   12.90    4.10
   3  -5   5   13.80    5.10
   3  -5   5   19.00    4.40
   3  -5   5    5.60    5.20
  -4   5  -5   25.60    7.20
  -4   5  -5   10.60    7.50
  -4   5  -5   27.30    6.70
  -4   5  -5   32.30    9.30
   4  -5   5   18.00    6.60
   4  -5   5   10.80    7.50
   4  -5   5   27.00    6.20
  -5   5  -5   15.90   10.90
  -5   5  -5    2.00   12.30
  -5   5  -5   27.90   13.30
   5  -5   5   -6.30    8.80
   5  -5   5    9.40    8.70
   5  -5   5   22.60   10.70
   5   4  -5    0.20    9.90
   5   4  -5   14.10   13.10
   5   4  -5   15.80   11.60
   5   4  -5    1.60    9.50
  -5  -4   5   15.60   11.20
  -5  -4   5   21.30    9.90
  -5  -4   5    2.90   11.40
   4   4  -5   19.40    6.50
   4   4  -5    8.80    7.30
   4   4  -5   22.50    9.00
   4   4  -5   30.80   11.30
   4   4  -5   12.10    7.50
  -4  -4   5   21.60   10.90
  -4  -4   5   -1.40    7.70
  -4  -4   5    8.70    5.90
  -4  -4   5    8.50    7.50
   3   4  -5  542.75   14.70
   3   4  -5  533.15   12.50
   3   4  -5  542.35   15.80
   3   4  -5  541.25   14.20
   3   4  -5  541.35   14.00
  -3  -4   5  539.45   13.40
  -3  -4   5  519.25   16.10
  -3  -4   5  504.25   14.90
  -3  -4   5  539.35   13.70
  -3  -4   5  540.25   12.50
  -3  -4   5  511.95   15.60
   2   4  -5   44.10    4.90
   2   4  -5   53.79    5.30
   2   4  -5   47.30    5.10
   2   4  -5   42.90    4.00
   2   4  -5   52.49    5.50
   2   4  -5   55.29    4.80
  -2  -4   5   47.50    5.00
  -2  -4   5   47.80    4.30
  -2  -4   5   54.79    5.80
  -2  -4   5   51.79    5.60
  -2  -4   5   44.40    4.50
  -2  -4   5   53.09    4.50
   1   4  -5   75.89    5.00
   1   4  -5   73.59    5.00
   1   4  -5   81.59    4.90
   1   4  -5   69.49    4.20
   1   4  -5   69.99    4.90
   1   4  -5   90.89    5.20
  -1  -4   5   75.89    5.60
  -1  -4   5   77.99    4.50
  -1  -4   5   71.19    4.20
  -1  -4   5   82.39    4.30
   0   4  -5  105.79    5.20
   0   4  -5   99.99    5.20
   0   4  -5  106.79    5.20
   0   4  -5  105.79    4.80
   0   4  -5   95.99    4.50
   0   4  -5  100.39    4.30
   0   4  -5  104.79    6.00
   0  -4   5  102.89    5.00
   0  -4   5  113.49    5.00
   0  -4   5  102.59    4.20
   0  -4   5  102.09    4.50
   0  -4   5  100.69    5.20
  -1   4  -5 1808.92   32.60
  -1   4  -5 1802.42   32.40
  -1   4  -5 1813.42   32.80
  -1   4  -5 1770.72   33.00
  -1   4  -5 1820.32   31.70
  -1   4  -5 1785.72   31.80
  -1   4  -5 1801.12   32.20
   1  -4   5 1780.32   32.40
   1  -4   5 1756.52   31.80
   1  -4   5 1710.93   34.00
   1  -4   5 1755.52   31.80
   1  -4   5 1797.42   31.90
  -2   4  -5  496.05   11.90
  -2   4  -5  469.55   10.60
  -2   4  -5  470.55   10.60
  -2   4  -5  460.25   10.70
  -2   4  -5  470.65   12.60
  -2   4  -5  492.75   11.90
  -2   4  -5  464.15   12.40
   2  -4   5  476.05   12.00
   2  -4   5  474.95   12.20
   2  -4   5  484.25   10.90
   2  -4   5  485.65   11.00
   2  -4   5  471.25   10.80
  -3   4  -5   18.80    4.10
  -3   4  -5   22.20    4.80
  -3   4  -5   19.40    5.10
  -3   4  -5   21.30    6.30
  -3   4  -5   29.00    6.20
  -3   4  -5   22.50    5.30
   3  -4   5   13.60    4.80
   3  -4   5   21.00    4.70
   3  -4   5   27.80    6.20
   3  -4   5   24.40    4.00
   3  -4   5   14.10    6.00
  -4   4  -5   62.69    7.70
  -4   4  -5   62.89    6.90
  -4   4  -5   58.99    9.30
  -4   4  -5   68.29   10.00
   4  -4   5   63.39    7.30
   4  -4   5   49.70    9.30
   4  -4   5   66.69    6.60
   4  -4   5   79.59    6.80
   4  -4   5   75.79    7.40
   4  -4   5   58.89    7.30
  -5   4  -5   13.60   12.80
  -5   4  -5   -5.40    9.40
  -5   4  -5   11.10    9.50
  -5   4  -5    9.80   10.70
   5  -4   5   -1.40    9.00
   5  -4   5   13.20   10.30
   5  -4   5   -1.30   11.20
  -6   4  -5  -19.90   16.20
  -6   4  -5   17.20   20.50
  -6   4  -5   -3.10   14.90
   6  -4   5    6.80   13.30
   6  -4   5   -6.20   14.20
   5   3  -5   -6.40    8.30
   5   3  -5   -5.10   11.90
   5   3  -5   31.90   11.70
   5   3  -5    0.80    8.80
  -5  -3   5  -16.70    9.70
  -5  -3   5   12.40   11.00
  -5  -3   5   -3.10   10.90
  -5  -3   5    0.40   16.90
   4   3  -5   32.50    6.50
   4   3  -5   36.80   10.50
   4   3  -5   40.60    6.50
   4   3  -5   31.20    7.70
   4   3  -5   29.10    8.30
  -4  -3   5   33.30    7.90
  -4  -3   5   22.00   10.20
  -4  -3   5   24.60    6.20
  -4  -3   5   47.20    7.60
  -4  -3   5   22.70    9.30
   3   3  -5  415.86   10.70
   3   3  -5  403.16   12.30
   3   3  -5  395.86   12.00
   3   3  -5  419.56   12.90
   3   3  -5  429.16   11.70
   3   3  -5  394.76   13.20
  -3  -3   5  415.06   11.80
  -3  -3   5  409.86   13.70
  -3  -3   5  404.46   11.50
  -3  -3   5  402.36   12.90
  -3  -3   5  403.56   12.70
  -3  -3   5  418.76   11.00
   2   3  -5   63.49    5.50
   2   3  -5   55.69    4.90
   2   3  -5   56.29    5.40
   2   3  -5   60.09    5.30
   2   3  -5   63.29    4.90
   2   3  -5   57.69    4.00
  -2  -3   5   57.79    5.20
  -2  -3   5   67.69    5.40
  -2  -3   5   51.89    4.90
  -2  -3   5   62.59    5.90
  -2  -3   5   61.29    6.00
  -2  -3   5   62.49    4.70
   1   3  -5  251.87    7.40
   1   3  -5  268.17    7.40
   1   3  -5  270.77    6.80
   1   3  -5  272.87    7.50
   1   3  -5  275.17    7.50
  -1  -3   5  271.17    7.00
  -1  -3   5  273.87    7.60
  -1  -3   5  272.87    7.50
  -1  -3   5  262.27    6.80
  -1  -3   5  275.57    6.80
  -1  -3   5  279.37    8.00
   0   3  -5  302.97    7.10
   0   3  -5  305.57    7.90
   0   3  -5  306.77    7.90
   0   3  -5  294.37    7.50
   0   3  -5  314.37    7.30
   0   3  -5  303.27    7.80
   0   3  -5  309.37    7.30
   0  -3   5  307.47    7.80
   0  -3   5  286.57    7.40
   0  -3   5  313.47    7.10
   0  -3   5  296.07    7.80
   0  -3   5  302.17    7.10
   0  -3   5  303.17    7.60
  -1   3  -5   35.40    3.00
  -1   3  -5   38.90    3.40
  -1   3  -5   34.30    3.20
  -1   3  -5   29.90    3.60
  -1   3  -5   31.60    3.60
  -1   3  -5   32.80    3.40
  -1   3  -5   41.10    4.50
   1  -3   5   35.20    3.10
   1  -3   5   30.20    3.30
   1  -3   5   33.00    2.90
   1  -3   5   39.10    3.20
   1  -3   5   32.50    4.00
   1  -3   5   37.00    3.70
   1  -3   5   39.10    3.80
  -2   3  -5  265.07    7.00
  -2   3  -5  257.77    8.50
  -2   3  -5  262.67    8.30
  -2   3  -5  263.17    7.40
  -2   3  -5  257.77    8.40
  -2   3  -5  269.37    8.80
   2  -3   5  266.47    7.60
   2  -3   5  257.17    7.40
   2  -3   5  264.27    7.00
   2  -3   5  264.27    8.60
   2  -3   5  270.07    7.50
   2  -3   5  262.17    8.50
  -3   3  -5  293.67   10.20
  -3   3  -5  279.77   10.90
  -3   3  -5  297.17    9.00
  -3   3  -5  282.57   10.50
  -3   3  -5  304.37   10.70
  -3   3  -5  297.17    9.10
   3  -3   5  299.77    9.60
   3  -3   5  288.47   10.70
   3  -3   5  289.07    9.50
   3  -3   5  300.17    8.00
   3  -3   5  279.57   10.90
   3  -3   5  302.77    9.40
  -4   3  -5  239.08   10.20
  -4   3  -5  219.28   11.50
  -4   3  -5  267.37   12.50
  -4   3  -5  221.58   11.80
   4  -3   5  267.67   11.10
   4  -3   5  250.87   11.10
   4  -3   5  226.88   11.80
   4  -3   5  238.68    8.10
   4  -3   5  222.38   13.20
  -5   3  -5   43.10   10.00
  -5   3  -5   51.89   12.70
  -5   3  -5   51.19   10.30
  -5   3  -5   41.80   12.60
   5  -3   5   47.80    8.70
   5  -3   5   46.80    8.80
   5  -3   5   30.80    9.90
  -6   3  -5  -12.90   14.50
  -6   3  -5   11.00   18.60
  -6   3  -5   -9.50   15.00
   6  -3   5   13.00   12.80
   6  -3   5    9.30   12.40
   5   2  -5   14.30   10.50
   5   2  -5   22.90    8.00
   5   2  -5   25.90   11.50
   5   2  -5   18.80    8.80
  -5  -2   5   21.90   10.80
  -5  -2   5   -5.80    9.90
  -5  -2   5   11.30   10.50
  -5  -2   5    8.80   15.00
   4   2  -5  179.78   11.30
   4   2  -5  160.88   14.90
   4   2  -5  168.38    9.80
   4   2  -5  165.88    9.50
   4   2  -5  162.38   11.90
  -4  -2   5  177.28   11.10
  -4  -2   5  141.89   11.70
  -4  -2   5  158.98   13.90
  -4  -2   5  177.48   10.70
  -4  -2   5  186.08   10.40
   3   2  -5 1123.49   23.80
   3   2  -5 1138.09   22.90
   3   2  -5 1167.08   23.70
   3   2  -5 1145.39   22.20
   3   2  -5 1118.39   23.90
   3   2  -5 1163.38   22.50
  -3  -2   5 1163.08   23.10
  -3  -2   5 1136.79   23.00
  -3  -2   5 1136.69   22.70
  -3  -2   5 1125.49   23.00
  -3  -2   5 1134.59   23.70
   2   2  -5   13.60    3.80
   2   2  -5   11.70    3.30
   2   2  -5   13.30    3.20
   2   2  -5   13.40    3.70
   2   2  -5   22.40    3.70
   2   2  -5   20.60    2.70
  -2  -2   5   13.80    3.40
  -2  -2   5   15.50    3.60
  -2  -2   5   22.20    4.10
  -2  -2   5   14.20    3.40
  -2  -2   5   11.30    3.90
  -2  -2   5   20.50    3.20
   1   2  -5 4567.14   77.69
   1   2  -5 4554.04   78.89
   1   2  -5 4660.03   78.79
   1   2  -5 4605.84   78.79
   1   2  -5 4614.24   79.09
   1   2  -5 4564.94   78.59
   1   2  -5 4585.94   78.89
  -1  -2   5 4498.25   78.59
  -1  -2   5 4576.54   77.89
  -1  -2   5 4641.44   78.99
  -1  -2   5 4539.25   78.49
  -1  -2   5 4646.73   79.09
  -1  -2   5 4494.45   78.49
  -1  -2   5 4562.64   78.89
   0   2  -5 2699.93   47.70
   0   2  -5 2717.83   47.30
   0   2  -5 2784.32   47.60
   0   2  -5 2781.42   48.10
   0   2  -5 2684.83   47.70
   0   2  -5 2694.63   47.70
   0   2  -5 2786.02   47.50
   0  -2   5 2760.42   47.30
   0  -2   5 2741.53   47.60
   0  -2   5 2738.33   47.80
   0  -2   5 2809.62   47.90
   0  -2   5 2718.03   47.70
   0  -2   5 2662.33   47.40
   0  -2   5 2726.33   46.50
  -1   2  -5   57.59    4.20
  -1   2  -5   57.79    4.40
  -1   2  -5   46.50    4.40
  -1   2  -5   60.69    3.30
  -1   2  -5   61.59    3.20
  -1   2  -5   64.69    4.60
  -1   2  -5   57.89    3.80
   1  -2   5   58.59    4.60
   1  -2   5   60.49    4.20
   1  -2   5   58.89    4.60
   1  -2   5   56.99    4.90
   1  -2   5   60.39    3.80
   1  -2   5   60.19    3.80
   1  -2   5   62.09    3.90
  -2   2  -5 1846.52   34.40
  -2   2  -5 1874.11   33.20
  -2   2  -5 1869.61   34.10
  -2   2  -5 1848.02   34.10
   2  -2   5 1847.42   33.50
   2  -2   5 1831.12   33.60
   2  -2   5 1854.21   33.60
   2  -2   5 1889.01   34.10
   2  -2   5 1868.81   33.10
  -3   2  -5  103.39    7.60
  -3   2  -5   94.49    7.20
  -3   2  -5   98.09    6.10
  -3   2  -5   93.79    6.40
  -3   2  -5   97.39    8.10
  -3   2  -5   93.69    8.40
   3  -2   5  113.99    7.20
   3  -2   5   95.49    8.20
   3  -2   5  102.79    7.70
   3  -2   5   93.99    6.90
   3  -2   5   96.09    5.20
   3  -2   5  103.19    6.80
  -4   2  -5  180.28   10.50
  -4   2  -5  175.78   11.90
  -4   2  -5  180.28   10.10
  -4   2  -5  197.38   10.90
  -4   2  -5  182.68   10.30
   4  -2   5  184.08   10.30
   4  -2   5  169.78   11.90
   4  -2   5  149.99   11.70
   4  -2   5  190.98   10.20
   4  -2   5  159.48    7.20
  -5   2  -5   25.60    9.70
  -5   2  -5   17.50   10.00
  -5   2  -5   23.80   10.70
  -5   2  -5    2.80    9.50
   5  -2   5   21.60    9.40
   5  -2   5   16.60    8.60
  -6   2  -5   10.20   16.10
  -6   2  -5   12.70   14.00
  -6   2  -5   -2.40   14.10
   6  -2   5   27.80   13.10
   6  -2   5   -6.70   12.90
   5   1  -5   17.70   11.00
   5   1  -5    3.60   10.00
   5   1  -5   17.80    6.80
   5   1  -5   17.70    8.90
  -5  -1   5    7.80   10.10
  -5  -1   5   20.60   10.00
  -5  -1   5    8.90   13.50
  -5  -1   5   13.30   10.50
   4   1  -5 1490.65   29.50
   4   1  -5 1474.75   27.60
   4   1  -5 1396.56   31.20
   4   1  -5 1468.25   28.80
   4   1  -5 1306.97   31.50
   4   1  -5 1472.15   30.40
   4   1  -5 1405.66   32.30
  -4  -1   5 1502.65   29.50
  -4  -1   5 1428.56   31.00
  -4  -1   5 1433.86   28.80
  -4  -1   5 1467.45   29.60
   3   1  -5   12.70    3.90
   3   1  -5    7.20    4.40
   3   1  -5   17.60    5.80
   3   1  -5   16.70    5.80
   3   1  -5   12.60    4.00
   3   1  -5    9.80    5.10
  -3  -1   5   15.30    5.90
  -3  -1   5   22.80    4.80
  -3  -1   5   18.20    4.90
  -3  -1   5    7.30    5.10
  -3  -1   5   18.30    4.30
   2   1  -5   54.49    4.40
   2   1  -5   39.00    3.90
   2   1  -5   40.30    3.90
   2   1  -5   49.99    5.00
   2   1  -5   41.50    4.20
   2   1  -5   44.80    3.70
  -2  -1   5   41.50    4.10
  -2  -1   5   45.90    4.60
  -2  -1   5   48.50    4.30
  -2  -1   5   41.30    3.60
  -2  -1   5   44.60    4.30
  -2  -1   5   48.20    4.40
   1   1  -5  834.72   16.20
   1   1  -5  843.22   16.10
   1   1  -5  838.42   16.20
   1   1  -5  836.52   16.10
   1   1  -5  842.02   16.30
   1   1  -5  856.01   16.40
   1   1  -5  857.91   15.30
  -1  -1   5  843.22   15.60
  -1  -1   5  847.82   16.00
  -1  -1   5  829.92   15.80
  -1  -1   5  822.72   16.00
  -1  -1   5  829.82   16.40
  -1  -1   5  848.62   16.30
  -1  -1   5  832.42   16.20
   0   1  -5  383.36    8.30
   0   1  -5  379.46    8.00
   0   1  -5  374.36    8.20
   0   1  -5  387.06    8.70
   0   1  -5  385.56    8.10
   0   1  -5  372.86    7.90
   0   1  -5  384.66    8.40
   0  -1   5  384.36    7.80
   0  -1   5  395.56    8.60
   0  -1   5  386.96    8.10
   0  -1   5  376.06    7.30
   0  -1   5  362.26    8.30
   0  -1   5  369.16    8.30
   0  -1   5  367.76    8.60
  -1   1  -5  671.53   13.40
  -1   1  -5  673.03   13.40
  -1   1  -5  653.63   12.50
  -1   1  -5  653.23   13.30
  -1   1  -5  671.93   13.40
  -1   1  -5  666.93   12.70
   1  -1   5  669.33   12.90
   1  -1   5  663.23   13.00
   1  -1   5  678.43   13.40
   1  -1   5  651.43   13.50
   1  -1   5  663.03   13.30
   1  -1   5  651.03   13.10
   1  -1   5  658.13   12.70
  -2   1  -5 1026.20   20.20
  -2   1  -5 1025.60   19.40
  -2   1  -5 1063.29   20.80
  -2   1  -5 1037.90   20.40
  -2   1  -5 1011.30   19.50
  -2   1  -5 1035.50   20.70
   2  -1   5 1054.09   20.00
   2  -1   5 1035.20   19.80
   2  -1   5 1010.60   20.10
   2  -1   5 1035.90   19.80
   2  -1   5 1043.50   19.40
   2  -1   5 1059.59   20.50
  -3   1  -5   56.49    5.60
  -3   1  -5   51.09    4.30
  -3   1  -5   51.49    5.30
  -3   1  -5   52.29    4.20
  -3   1  -5   47.90    5.60
  -3   1  -5   43.50    5.20
   3  -1   5   53.19    5.60
   3  -1   5   48.50    5.30
   3  -1   5   55.29    4.80
   3  -1   5   58.99    4.70
   3  -1   5   51.39    5.30
   3  -1   5   54.19    4.80
  -4   1  -5   23.70    6.30
  -4   1  -5   24.60    7.00
  -4   1  -5   22.70    6.40
  -4   1  -5   17.10    6.70
  -4   1  -5   24.20    7.30
   4  -1   5    7.50    7.20
   4  -1   5   18.10    6.10
   4  -1   5   18.40    6.40
  -5   1  -5  167.58   14.00
  -5   1  -5  162.48   13.80
  -5   1  -5  186.58   16.90
  -5   1  -5  162.98   13.10
   5  -1   5  181.38   18.10
   5  -1   5  179.78   14.50
   5  -1   5  194.38   13.20
  -6   1  -5   33.80   13.50
  -6   1  -5   17.10   14.60
  -6   1  -5    3.30   17.30
   6  -1   5   -6.90   13.40
   6  -1   5  -12.80   14.60
   5   0  -5   -3.10    9.50
   5   0  -5    6.70   10.70
   5   0  -5   10.40    9.00
  -5   0   5   20.20   10.70
  -5   0   5   47.60   13.20
  -5   0   5   23.00    9.50
  -5   0   5    3.00   10.40
   4   0  -5  119.59   11.00
   4   0  -5  119.89    9.40
   4   0  -5  116.09   10.60
   4   0  -5  117.59    9.80
   4   0  -5  127.39    7.00
  -4   0   5  130.49   10.30
  -4   0   5  119.99   10.10
  -4   0   5  122.39   10.20
  -4   0   5  138.59   10.20
  -4   0   5  134.59   12.60
   3   0  -5    9.50    4.40
   3   0  -5    7.40    3.30
   3   0  -5    5.10    4.00
   3   0  -5    3.80    5.20
   3   0  -5    8.50    4.10
   3   0  -5   -1.50    5.20
   3   0  -5    2.80    4.80
  -3   0   5    2.00    4.30
  -3   0   5    3.00    4.30
  -3   0   5    3.00    5.30
  -3   0   5    2.70    5.20
  -3   0   5   -1.00    4.10
  -3   0   5    3.70    4.60
   2   0  -5   44.40    3.90
   2   0  -5   41.50    3.60
   2   0  -5   41.50    3.90
   2   0  -5   50.09    5.20
   2   0  -5   45.00    4.10
   2   0  -5   43.10    3.50
  -2   0   5   46.10    4.00
  -2   0   5   46.60    4.60
  -2   0   5   43.10    3.50
  -2   0   5   42.70    3.70
  -2   0   5   43.00    4.20
  -2   0   5   48.60    5.00
  -2   0   5   41.30    4.20
   1   0  -5 5406.36   94.89
   1   0  -5 5582.14   95.19
   1   0  -5 5506.75   94.89
   1   0  -5 5432.96   95.29
   1   0  -5 5583.44   94.49
   1   0  -5 5669.53   94.89
   1   0  -5 5555.54   94.79
  -1   0   5 5472.95   94.99
  -1   0   5 5715.83   95.09
  -1   0   5 5421.26   94.79
  -1   0   5 5696.73   94.99
  -1   0   5 5460.65   94.69
  -1   0   5 5657.93   94.89
  -1   0   5 5645.84   94.69
   0   0  -5 2932.51   50.79
   0   0  -5 3004.20   50.89
   0   0  -5 2936.31   50.89
   0   0  -5 2943.51   50.49
   0   0  -5 2916.61   50.39
   0   0  -5 2996.70   50.49
   0   0   5 2914.61   50.29
   0   0   5 2905.41   50.99
   0   0   5 2939.61   50.89
   0   0   5 2955.00   50.29
   0   0   5 2862.61   50.69
   0   0   5 2973.40   50.49
   0   0   5 2882.41   50.49
   0   0   5 2986.50   50.79
  -1   0  -5 1043.00   19.50
  -1   0  -5 1031.80   19.30
  -1   0  -5 1059.49   18.80
  -1   0  -5 1070.79   19.60
  -1   0  -5 1028.80   19.40
  -1   0  -5 1012.60   18.70
   1   0   5 1021.20   19.30
   1   0   5 1035.40   19.00
   1   0   5 1040.30   19.10
   1   0   5 1039.10   19.40
   1   0   5 1025.90   19.60
   1   0   5 1021.80   19.20
   1   0   5 1039.80   18.90
  -2   0  -5 1444.16   26.80
  -2   0  -5 1414.56   25.90
  -2   0  -5 1444.86   26.10
  -2   0  -5 1431.26   26.80
  -2   0  -5 1432.96   26.90
  -2   0  -5 1447.36   27.10
   2   0   5 1401.66   26.50
   2   0   5 1420.36   27.20
   2   0   5 1448.46   26.80
   2   0   5 1426.26   26.40
   2   0   5 1411.96   26.70
   2   0   5 1440.46   26.30
  -3   0  -5   37.80    4.70
  -3   0  -5   33.20    4.20
  -3   0  -5   40.30    4.80
  -3   0  -5   38.00    4.10
  -3   0  -5   37.10    4.60
  -3   0  -5   29.80    5.50
   3   0   5   30.70    4.40
   3   0   5   29.00    4.30
   3   0   5   30.20    4.70
   3   0   5   24.80    5.40
   3   0   5   32.50    4.80
  -4   0  -5   13.40    7.30
  -4   0  -5   12.80    6.00
  -4   0  -5   16.20    5.60
  -4   0  -5   16.50    7.20
  -4   0  -5   13.00    6.10
   4   0   5   24.60    5.70
   4   0   5   11.40    7.40
   4   0   5   18.00    5.50
   4   0   5   12.70    6.50
  -5   0  -5    7.50   10.50
  -5   0  -5    0.60    8.80
  -5   0  -5   -0.60    8.50
  -5   0  -5   -3.40    8.80
   5   0   5   14.90   12.20
   5   0   5    9.10    8.20
   5   0   5   -1.00    8.90
  -6   0  -5   46.00   14.00
  -6   0  -5    4.20   13.00
   6   0   5   10.80   13.70
   6   0   5    6.90   10.10
   6   0   5    5.40   13.40
   5  -1  -5   52.19   12.10
   5  -1  -5   57.99   11.90
   5  -1  -5   68.19    9.50
   5  -1  -5   89.09    9.40
  -5   1   5   70.79   11.00
  -5   1   5   77.19   11.30
  -5   1   5   70.69    9.90
   4  -1  -5   74.79   10.10
   4  -1  -5   88.79    8.50
   4  -1  -5   74.39    8.90
   4  -1  -5   81.89    8.30
  -4   1   5   49.70    8.80
  -4   1   5   58.29    9.50
   3  -1  -5  936.61   18.80
   3  -1  -5  934.21   19.10
   3  -1  -5  921.01   19.20
   3  -1  -5  929.71   17.50
   3  -1  -5  947.91   19.60
   3  -1  -5  917.91   20.00
  -3   1   5  949.01   19.60
  -3   1   5  943.51   19.90
  -3   1   5  945.41   20.10
  -3   1   5  929.31   20.10
  -3   1   5  909.71   18.10
  -3   1   5  947.81   19.20
   2  -1  -5 1640.74   29.80
   2  -1  -5 1627.94   29.40
   2  -1  -5 1638.94   29.20
   2  -1  -5 1697.53   30.20
   2  -1  -5 1690.83   29.70
   2  -1  -5 1649.44   30.00
   2  -1  -5 1647.94   30.20
  -2   1   5 1650.83   30.00
  -2   1   5 1590.44   31.10
  -2   1   5 1672.43   30.30
  -2   1   5 1633.44   30.30
  -2   1   5 1644.64   29.70
  -2   1   5 1649.44   29.40
   1  -1  -5 2451.05   42.80
   1  -1  -5 2480.15   43.40
   1  -1  -5 2420.46   42.70
   1  -1  -5 2395.66   42.60
   1  -1  -5 2530.05   42.80
   1  -1  -5 2510.55   43.00
   1  -1  -5 2410.76   42.70
  -1   1   5 2479.55   42.90
  -1   1   5 2545.55   43.00
  -1   1   5 2421.66   42.70
  -1   1   5 2379.66   43.10
  -1   1   5 2485.45   42.70
  -1   1   5 2479.65   42.60
  -1   1   5 2436.76   42.80
   0  -1  -5 6434.36  110.29
   0  -1  -5 6483.15  110.79
   0  -1  -5 6497.95  109.89
   0  -1  -5 6554.14  110.79
   0  -1  -5 6389.36  110.59
   0  -1  -5 6619.44  110.29
   0   1   5 6414.36  110.19
   0   1   5 6428.76  109.79
   0   1   5 6508.35  110.29
   0   1   5 6657.53  110.69
   0   1   5 6529.55  110.59
   0   1   5 6492.25  110.89
   0   1   5 6575.04  110.69
  -1  -1  -5  804.02   15.50
  -1  -1  -5  807.02   15.90
  -1  -1  -5  790.22   14.90
  -1  -1  -5  823.32   14.90
  -1  -1  -5  810.72   15.50
  -1  -1  -5  793.32   15.40
   1   1   5  812.52   15.80
   1   1   5  825.42   15.20
   1   1   5  828.12   15.50
   1   1   5  787.42   15.50
   1   1   5  821.82   15.70
   1   1   5  827.52   15.20
  -2  -1  -5  261.27    6.80
  -2  -1  -5  263.37    6.80
  -2  -1  -5  261.27    7.80
  -2  -1  -5  253.57    7.60
  -2  -1  -5  244.68    8.30
  -2  -1  -5  275.47    8.00
   2   1   5  253.97    8.10
   2   1   5  252.17    7.10
   2   1   5  263.17    7.30
   2   1   5  259.57    7.90
   2   1   5  250.17    7.70
   2   1   5  264.37    7.80
  -3  -1  -5   35.00    4.00
  -3  -1  -5   40.80    4.70
  -3  -1  -5   34.90    5.10
  -3  -1  -5   33.50    4.20
  -3  -1  -5   40.10    5.00
  -3  -1  -5   30.80    5.20
   3   1   5   33.30    4.40
   3   1   5   35.30    4.30
   3   1   5   24.60    5.10
   3   1   5   40.60    5.40
   3   1   5   28.70    4.90
  -4  -1  -5   25.30    5.90
  -4  -1  -5   26.90    5.70
  -4  -1  -5   21.10    6.60
  -4  -1  -5   13.80    6.50
  -4  -1  -5   25.10    5.80
  -4  -1  -5   14.60    6.10
   4   1   5   19.40    6.60
   4   1   5   10.10    5.60
   4   1   5   15.60    5.70
   4   1   5   25.10    6.60
  -5  -1  -5   64.79    9.40
  -5  -1  -5   61.69    8.90
  -5  -1  -5   79.79   10.20
   5   1   5   59.09    9.70
   5   1   5   61.29    8.80
   5   1   5   81.89   12.00
  -6  -1  -5  -16.70   13.20
  -6  -1  -5    5.70   13.50
   6   1   5   -3.70   10.30
   6   1   5  -17.60   12.60
   5  -2  -5   87.69   12.30
   5  -2  -5   90.19   12.60
   5  -2  -5   92.99   10.30
  -5   2   5  129.59   12.20
  -5   2   5  140.99   14.10
  -5   2   5   97.79   12.50
   4  -2  -5   87.69    8.20
   4  -2  -5   75.39    7.40
   4  -2  -5   62.19    9.80
   4  -2  -5   84.19    8.30
  -4   2   5   98.59    9.00
  -4   2   5   74.39    8.20
  -4   2   5   71.59    9.60
  -4   2   5   87.99    7.30
  -4   2   5   77.49    8.80
   3  -2  -5   40.80    4.80
   3  -2  -5   35.70    5.70
   3  -2  -5   43.10    4.40
   3  -2  -5   35.50    5.30
   3  -2  -5   39.90    5.00
  -3   2   5   45.90    4.80
  -3   2   5   46.50    5.20
  -3   2   5   47.20    5.50
  -3   2   5   45.10    5.60
  -3   2   5   38.30    5.50
   2  -2  -5  221.28    6.60
   2  -2  -5  205.18    6.50
   2  -2  -5  195.28    5.70
   2  -2  -5  211.28    6.60
   2  -2  -5  208.38    5.90
   2  -2  -5  206.18    6.30
  -2   2   5  202.78    6.70
  -2   2   5  202.38    5.70
  -2   2   5  198.88    6.80
  -2   2   5  195.98    6.60
  -2   2   5  200.18    6.80
  -2   2   5  202.58    6.00
  -2   2   5  198.98    7.20
   1  -2  -5 1016.70   18.50
   1  -2  -5 1013.50   18.30
   1  -2  -5  997.10   18.10
  -1   2   5 1001.20   18.40
  -1   2   5  980.60   18.30
  -1   2   5 1004.30   18.70
  -1   2   5 1001.50   18.00
  -1   2   5 1002.30   18.30
  -1   2   5 1000.50   18.30
  -1   2   5  989.50   18.90
   0  -2  -5  127.09    3.60
   0  -2  -5  119.59    4.20
   0  -2  -5  123.49    4.40
   0  -2  -5  132.39    3.60
   0   2   5  122.19    4.70
   0   2   5  127.09    4.20
   0   2   5  121.19    4.20
   0   2   5  128.39    3.50
   0   2   5  127.09    4.20
   0   2   5  131.09    3.70
  -1  -2  -5 2803.62   49.20
  -1  -2  -5 2894.51   49.10
  -1  -2  -5 2839.52   49.70
  -1  -2  -5 2822.92   49.70
  -1  -2  -5 2924.31   49.70
  -1  -2  -5 2905.91   49.80
   1   2   5 2792.82   49.60
   1   2   5 2829.22   49.90
   1   2   5 2888.51   49.80
   1   2   5 2914.01   49.80
   1   2   5 2893.41   49.40
   1   2   5 2790.42   49.30
  -2  -2  -5   94.79    6.10
  -2  -2  -5  102.59    5.40
  -2  -2  -5  110.39    4.70
  -2  -2  -5  103.99    5.40
  -2  -2  -5  109.69    5.60
  -2  -2  -5  107.99    4.80
   2   2   5  104.99    5.10
   2   2   5  103.49    5.70
   2   2   5  106.19    5.00
   2   2   5  104.49    5.70
   2   2   5  102.79    5.80
   2   2   5   94.29    6.30
  -3  -2  -5  119.49    7.30
  -3  -2  -5  109.19    7.60
  -3  -2  -5  103.69    7.00
  -3  -2  -5  105.09    7.50
  -3  -2  -5  101.59    6.40
  -3  -2  -5  105.79    6.00
   3   2   5   95.09    6.90
   3   2   5  107.59    7.10
   3   2   5  113.49    6.70
   3   2   5  109.09    6.80
   3   2   5  114.79    8.50
  -4  -2  -5  352.26   12.80
  -4  -2  -5  330.07   12.40
  -4  -2  -5  354.46   11.70
  -4  -2  -5  361.36   12.40
   4   2   5  356.86   14.10
   4   2   5  374.56   12.70
   4   2   5  343.37   12.50
  -5  -2  -5  140.09   13.20
  -5  -2  -5  164.58   13.50
  -5  -2  -5  215.68   15.20
   5   2   5  161.28   13.20
   5   2   5  157.38   13.60
   5   2   5  152.88   13.20
   5   2   5  165.38   11.50
  -6  -2  -5    8.80   13.10
  -6  -2  -5    7.80   13.60
   6   2   5    7.70   14.20
   6   2   5    1.40   13.40
   6   2   5  -10.40   11.70
   5  -3  -5   18.10    7.90
   5  -3  -5   18.00    9.40
  -5   3   5   -3.00    9.90
  -5   3   5   17.20   11.60
  -5   3   5   18.50   10.40
   4  -3  -5    7.40    5.30
   4  -3  -5    9.20    7.70
  -4   3   5    5.00    7.40
  -4   3   5   19.10    8.90
  -4   3   5   13.40    7.70
  -4   3   5    5.40    6.40
  -4   3   5    7.30    7.70
   3  -3  -5   69.99    6.30
   3  -3  -5   74.49    6.80
   3  -3  -5   62.99    5.30
   3  -3  -5   67.79    6.10
   3  -3  -5   62.09    6.40
  -3   3   5   63.09    6.30
  -3   3   5   65.19    5.80
  -3   3   5   65.09    5.70
  -3   3   5   64.49    6.40
  -3   3   5   80.89    5.80
   2  -3  -5  479.95   10.90
   2  -3  -5  447.36   11.40
   2  -3  -5  545.55   13.20
   2  -3  -5  459.55    9.70
   2  -3  -5  480.15    9.70
   2  -3  -5  478.35   10.00
  -2   3   5  466.95   10.60
  -2   3   5  470.75   10.20
  -2   3   5  476.75    9.60
  -2   3   5  479.85   11.40
  -2   3   5  478.85   11.50
  -2   3   5  483.55   10.60
  -2   3   5  482.55   10.80
   1  -3  -5  918.61   16.90
   1  -3  -5  929.91   17.40
   1  -3  -5  915.01   17.00
  -1   3   5  923.01   17.60
  -1   3   5  937.51   17.00
  -1   3   5  922.51   16.90
  -1   3   5  913.11   16.60
  -1   3   5  929.01   17.00
  -1   3   5  910.21   16.90
  -1   3   5  939.41   17.90
   0  -3  -5 1485.15   26.80
   0  -3  -5 1482.55   25.80
   0  -3  -5 1502.65   26.40
   0   3   5 1492.85   25.90
   0   3   5 1506.15   26.30
   0   3   5 1515.25   26.60
   0   3   5 1505.45   26.00
   0   3   5 1469.05   26.30
   0   3   5 1462.15   26.80
  -1  -3  -5 2537.65   42.70
  -1  -3  -5 2513.55   43.50
  -1  -3  -5 2537.55   42.90
  -1  -3  -5 2559.44   43.20
   1   3   5 2468.15   43.50
   1   3   5 2474.35   43.10
   1   3   5 2448.75   43.70
   1   3   5 2458.35   43.60
   1   3   5 2471.55   43.20
   1   3   5 2398.56   43.40
  -2  -3  -5  665.33   13.40
  -2  -3  -5  630.74   13.90
  -2  -3  -5  642.54   13.50
  -2  -3  -5  651.13   13.60
  -2  -3  -5  643.94   12.90
   2   3   5  643.14   13.90
   2   3   5  653.43   13.50
   2   3   5  666.73   13.50
   2   3   5  635.84   14.10
   2   3   5  632.54   13.70
   2   3   5  648.54   14.10
  -3  -3  -5  246.88    8.80
  -3  -3  -5  259.37    8.90
  -3  -3  -5  234.98    7.80
  -3  -3  -5  253.27    9.20
  -3  -3  -5  241.08    8.30
   3   3   5  226.88    8.80
   3   3   5  256.77    9.60
   3   3   5  244.18    9.40
   3   3   5  231.68    9.90
   3   3   5  252.37    8.50
  -4  -3  -5   77.19    6.70
  -4  -3  -5   87.99    7.40
  -4  -3  -5  104.99   10.10
  -4  -3  -5   92.89    9.10
   4   3   5   89.09    7.80
   4   3   5   86.29    7.60
   4   3   5   98.09    8.60
  -5  -3  -5   28.70   10.20
  -5  -3  -5   12.50    8.60
  -5  -3  -5   21.10    9.40
   5   3   5   43.50    9.70
   5   3   5   30.00   12.00
   5   3   5   29.90    8.60
   5   3   5   27.60    8.80
  -6  -3  -5   -7.40   14.00
  -6  -3  -5    0.10   13.50
   6   3   5    7.40   13.90
   6   3   5  -25.80   14.00
   6   3   5  -10.00   12.10
   5  -4  -5    8.00    7.30
   5  -4  -5   15.30   10.40
  -5   4   5   34.00   12.20
  -5   4   5    1.80   11.80
  -5   4   5   12.30   10.00
   4  -4  -5   21.40    6.80
   4  -4  -5   18.00    4.90
  -4   4   5   14.80    7.70
  -4   4   5   21.80    6.50
  -4   4   5    5.10    9.00
  -4   4   5   15.70    7.40
  -4   4   5   19.80    7.60
   3  -4  -5  505.15   12.30
   3  -4  -5  480.35   13.10
   3  -4  -5  519.15   13.10
  -3   4   5  501.45   12.30
  -3   4   5  493.45   12.60
  -3   4   5  504.75   16.50
  -3   4   5  499.75   13.80
  -3   4   5  512.15   13.10
  -3   4   5  473.75   11.70
  -3   4   5  500.05   12.80
   2  -4  -5   59.09    5.20
   2  -4  -5   58.49    4.60
   2  -4  -5   58.29    3.90
   2  -4  -5   66.39    5.00
  -2   4   5   53.59    5.80
  -2   4   5   56.29    4.00
  -2   4   5   52.49    5.10
  -2   4   5   58.49    5.00
  -2   4   5   60.59    5.10
  -2   4   5   61.69    4.90
   1  -4  -5  428.16    9.40
   1  -4  -5  411.86    8.40
   1  -4  -5  412.56    8.60
  -1   4   5  422.56    8.60
  -1   4   5  415.46    8.50
  -1   4   5  413.46    9.80
  -1   4   5  418.76    8.60
  -1   4   5  415.36    8.10
   0  -4  -5  738.03   14.60
   0  -4  -5  737.83   13.20
   0  -4  -5  739.33   13.70
   0   4   5  745.03   13.40
   0   4   5  737.43   13.70
   0   4   5  754.42   14.60
   0   4   5  749.53   13.40
   0   4   5  741.23   14.50
  -1  -4  -5  111.99    4.30
  -1  -4  -5  117.79    3.70
  -1  -4  -5  115.39    3.70
  -1  -4  -5  118.19    4.70
   1   4   5  114.69    4.20
   1   4   5  112.29    5.10
   1   4   5  115.09    4.60
   1   4   5  112.59    5.00
   1   4   5  119.89    4.10
   1   4   5  121.69    4.70
  -2  -4  -5  361.96    8.20
  -2  -4  -5  364.56    8.80
  -2  -4  -5  382.56    9.70
  -2  -4  -5  379.06    8.80
  -2  -4  -5  354.06    9.10
   2   4   5  367.36    9.80
   2   4   5  371.36   10.40
   2   4   5  366.16    9.90
   2   4   5  373.56    9.10
   2   4   5  377.06    9.50
   2   4   5  369.56    9.20
  -3  -4  -5   11.40    4.60
  -3  -4  -5   12.90    4.40
  -3  -4  -5    9.40    3.60
  -3  -4  -5    4.70    4.20
   3   4   5   10.80    4.30
   3   4   5   18.70    4.50
   3   4   5   11.30    5.60
   3   4   5   14.60    5.00
   3   4   5    4.00    5.60
  -4  -4  -5   89.49    7.70
  -4  -4  -5   84.09    8.00
  -4  -4  -5   80.19    6.90
  -4  -4  -5   90.29    9.10
   4   4   5   82.69    8.80
   4   4   5   90.59    7.70
   4   4   5   85.79    7.90
   4   4   5   49.00    8.40
  -5  -4  -5   33.10    9.90
  -5  -4  -5   32.40    9.50
   5   4   5   29.80   10.10
   5   4   5   37.20    9.50
   5   4   5   24.70   10.00
   5   4   5   18.70   12.50
  -6  -4  -5   13.30   14.90
  -6  -4  -5  -26.10   15.00
   6   4   5   22.20   15.30
   6   4   5   33.50   12.60
   6   4   5    6.70   14.40
   5  -5  -5    5.40   10.10
  -5   5   5    9.30   13.00
  -5   5   5   27.40   12.30
  -5   5   5    5.40   10.10
   4  -5  -5    9.70    7.10
   4  -5  -5    8.30    7.10
  -4   5   5   15.00    7.80
  -4   5   5    8.50    7.50
  -4   5   5   26.70    9.00
  -4   5   5    8.40    9.40
  -4   5   5   -2.60    6.30
   3  -5  -5   11.60    5.60
   3  -5  -5    7.50    4.90
   3  -5  -5   21.20    4.70
   3  -5  -5    7.90    4.60
  -3   5   5    2.70    5.20
  -3   5   5   12.30    5.40
  -3   5   5    6.50    6.10
  -3   5   5    1.50    5.20
  -3   5   5   -1.70    4.10
  -3   5   5    5.30    5.10
   2  -5  -5    8.80    2.90
   2  -5  -5    6.40    3.30
   2  -5  -5   -3.50    3.60
  -2   5   5    9.20    3.20
  -2   5   5    4.00    4.20
  -2   5   5    0.40    4.60
  -2   5   5    6.70    2.60
  -2   5   5    9.30    3.30
  -2   5   5   10.80    3.40
  -2   5   5    3.40    4.30
   1  -5  -5  375.86    8.90
  -1   5   5  362.96    9.00
  -1   5   5  370.56    7.90
  -1   5   5  370.56    9.30
  -1   5   5  378.86    7.70
  -1   5   5  371.26    7.20
   0  -5  -5  181.48    6.00
   0   5   5  180.48    5.70
   0   5   5  182.18    4.70
  -1  -5  -5   92.39    4.60
  -1  -5  -5   98.99    4.30
   1   5   5   98.29    4.50
   1   5   5   94.39    4.50
   1   5   5   93.19    4.80
   1   5   5   93.19    4.00
   1   5   5   92.29    4.00
  -2  -5  -5   20.40    2.70
  -2  -5  -5    8.50    3.30
  -2  -5  -5   18.90    4.10
  -2  -5  -5   28.70    3.50
  -2  -5  -5   26.10    3.30
   2   5   5   28.30    4.10
   2   5   5   18.10    3.60
   2   5   5   25.60    3.70
   2   5   5   23.20    4.20
   2   5   5   28.70    4.80
   2   5   5   20.90    4.20
  -3  -5  -5  888.91   18.50
  -3  -5  -5  926.21   19.40
  -3  -5  -5  900.51   20.00
  -3  -5  -5  891.41   19.10
   3   5   5  884.81   20.10
   3   5   5  904.11   19.60
   3   5   5  878.71   20.60
   3   5   5  886.61   20.10
   3   5   5  929.61   19.70
  -4  -5  -5   88.89    8.50
  -4  -5  -5   88.79    7.70
  -4  -5  -5   75.19    8.00
   4   5   5  100.19   10.50
   4   5   5   74.79    9.40
   4   5   5   78.99    9.40
   4   5   5   70.99   10.10
   4   5   5   97.49    8.70
  -5  -5  -5   39.90   10.40
  -5  -5  -5   61.89   10.60
   5   5   5   43.60   10.50
   5   5   5   37.70   10.70
   5   5   5   33.80   12.50
   5   5   5   33.70   10.30
  -6  -5  -5   15.50   14.60
   6   5   5   10.20   16.40
   6   5   5  -16.00   14.40
   6   5   5  -14.10   16.40
   5  -6  -5    3.30   11.60
  -5   6   5   12.10   13.20
  -5   6   5   -1.80   10.80
  -5   6   5  -15.60   13.60
   4  -6  -5   20.70    7.80
   4  -6  -5   20.20    8.00
  -4   6   5   -2.90    8.40
  -4   6   5   17.90    8.10
  -4   6   5   23.20    8.60
  -4   6   5   11.70    9.60
  -4   6   5   18.50    6.50
  -4   6   5   13.40    8.30
   3  -6  -5   55.19    6.70
   3  -6  -5   64.19    6.00
  -3   6   5   90.69    8.70
  -3   6   5   68.89    6.30
  -3   6   5   85.09    8.70
  -3   6   5   75.99    6.30
   2  -6  -5  167.58    7.50
  -2   6   5  163.78    6.10
  -2   6   5  165.28    4.90
  -2   6   5  161.98    6.60
  -2   6   5  156.28    6.40
  -2   6   5  169.08    6.90
  -2   6   5  158.18    8.90
  -2   6   5  174.38    8.10
   1  -6  -5  236.58    7.20
  -1   6   5  232.18    8.00
  -1   6   5  239.18    7.60
  -1   6   5  244.78    6.80
   0   6   5  150.08    6.20
   0   6   5  158.88    5.70
  -1  -6  -5   36.50    2.80
  -1  -6  -5   38.30    4.10
  -1  -6  -5   38.50    3.80
   1   6   5   38.90    3.30
   1   6   5   38.20    3.70
   1   6   5   38.00    3.80
   1   6   5   40.10    3.70
  -2  -6  -5  831.42   16.50
  -2  -6  -5  832.62   16.10
  -2  -6  -5  812.22   15.30
  -2  -6  -5  837.52   17.10
  -2  -6  -5  835.52   15.60
   2   6   5  799.72   18.30
   2   6   5  820.02   17.00
   2   6   5  882.41   16.90
   2   6   5  817.12   17.40
   2   6   5  832.62   17.20
  -3  -6  -5   15.70    5.60
  -3  -6  -5   11.80    4.60
  -3  -6  -5   11.60    4.20
  -3  -6  -5    4.70    4.90
  -3  -6  -5   13.30    4.30
   3   6   5   17.60    5.40
   3   6   5    3.80    6.20
   3   6   5   14.60    7.40
   3   6   5   15.90    5.80
   3   6   5   10.50    5.10
   3   6   5   20.80    6.30
  -4  -6  -5   -6.90    7.50
  -4  -6  -5    6.40    7.00
  -4  -6  -5   -3.30    6.20
   4   6   5    1.30    7.60
   4   6   5   10.70    7.20
   4   6   5    4.20    7.00
   4   6   5    6.60    8.20
   4   6   5   -4.10    8.90
  -5  -6  -5    7.20   10.20
  -5  -6  -5    3.90    9.80
   5   6   5  -15.70   10.40
   5   6   5    7.20   10.70
   5   6   5   39.10   13.20
   5   6   5    3.70   11.20
  -6  -6  -5   37.50   16.20
   6   6   5   -2.60   18.40
   6   6   5  -14.90   15.30
  -5   7   5   21.80   14.30
   4  -7  -5   22.60    8.50
  -4   7   5   24.70    9.10
  -4   7   5   33.30   10.00
  -4   7   5   28.70   10.20
  -4   7   5   34.20    7.00
  -4   7   5   37.70   10.00
  -4   7   5   18.00    8.50
   3  -7  -5  141.89    9.30
  -3   7   5  161.98   10.20
  -3   7   5  141.29    8.40
  -3   7   5  134.29    6.70
  -3   7   5  153.88    9.70
  -3   7   5  142.69   10.10
  -3   7   5  130.39    9.90
   2  -7  -5   45.50    5.50
  -2   7   5   31.60    6.50
  -2   7   5   45.60    4.20
  -2   7   5   41.00    5.60
  -2   7   5   42.70    4.30
  -2   7   5   40.50    5.00
  -1   7   5  382.86   10.00
  -1   7   5  385.56    9.80
  -1   7   5  384.66   10.20
  -1   7   5  388.06   11.20
   0   7   5    6.20    4.00
   0   7   5    5.10    3.30
  -1  -7  -5  310.27    7.10
  -1  -7  -5  315.67    8.10
   1   7   5  310.77    8.30
   1   7   5  304.77    8.20
   1   7   5  314.87    8.00
   1   7   5  309.67    7.60
   1   7   5  308.77    7.60
  -2  -7  -5  423.66    9.50
  -2  -7  -5  409.06   10.90
  -2  -7  -5  396.16   10.00
   2   7   5  416.86   11.00
   2   7   5  427.56   12.80
   2   7   5  449.26   10.60
   2   7   5  408.16   10.90
   2   7   5  418.46   11.60
   2   7   5  394.26   11.30
  -3  -7  -5  173.28    7.00
  -3  -7  -5  157.08    9.90
  -3  -7  -5  143.29    8.60
  -3  -7  -5  157.98    7.60
   3   7   5  166.68   11.30
   3   7   5  171.98   13.10
   3   7   5  175.48   10.10
   3   7   5  181.18   10.60
   3   7   5  171.48    9.50
   3   7   5  168.18   11.10
  -4  -7  -5   45.50    8.10
  -4  -7  -5   45.20    7.30
   4   7   5   35.80    8.50
   4   7   5   34.20    9.50
   4   7   5   52.39    8.80
   4   7   5   55.49    8.20
  -5  -7  -5    1.70   10.20
   5   7   5   24.00   11.90
   5   7   5   -0.30   11.70
   5   7   5   40.00   12.80
   4  -8  -5    6.70    9.60
  -4   8   5    4.50   10.10
  -4   8   5   22.20   11.50
  -4   8   5   16.00   11.80
  -4   8   5   14.50    9.80
  -4   8   5   -4.40    7.10
   3  -8  -5    3.60    6.80
  -3   8   5   21.30    6.70
  -3   8   5    1.50    7.60
  -3   8   5    8.30    4.10
  -3   8   5    4.40    6.80
  -3   8   5   16.00    7.70
   2  -8  -5   53.99    6.20
  -2   8   5   56.79    8.80
  -2   8   5   55.49    6.30
  -2   8   5   55.59    6.00
  -1   8   5  179.48    8.10
  -1   8   5  163.98    9.50
  -1   8   5  166.38    7.40
  -1   8   5  167.78    8.20
   0   8   5  140.09    7.10
   0   8   5  142.29    6.40
   0   8   5  144.39    7.90
   0   8   5  134.79    7.60
   1   8   5   53.59    4.80
   1   8   5   52.49    4.80
   1   8   5   56.49    4.20
   1   8   5   55.39    3.90
   1   8   5   63.89    6.70
   1   8   5   65.49    4.50
   1   8   5   51.89    5.40
  -2  -8  -5  122.59    5.80
  -2  -8  -5  108.49    6.60
  -2  -8  -5  105.39    7.20
   2   8   5  116.69    8.20
   2   8   5  112.39    7.90
   2   8   5  127.79    9.70
   2   8   5  126.89    7.10
   2   8   5  112.69    7.20
   2   8   5  115.19    8.30
  -3  -8  -5   25.50    4.10
   3   8   5    5.60    9.10
   3   8   5   19.80    6.60
   3   8   5   14.40    7.20
   3   8   5   20.00    7.80
   3   8   5   19.70    7.60
   3   8   5   14.00    7.00
  -4  -8  -5   14.70    6.20
  -4  -8  -5   28.70   11.10
   4   8   5   19.70    8.70
   4   8   5   21.80    9.10
   4   8   5    2.50    9.40
   4   8   5   25.40   10.30
  -5  -8  -5    9.30    9.90
   5   8   5    4.10   12.60
   5   8   5   13.10   12.70
   5   8   5   21.80   13.50
   4  -9  -5   10.90   11.20
  -4   9   5   -2.20   11.30
  -4   9   5    3.90    6.90
  -4   9   5  -15.00   12.50
  -4   9   5    0.50   12.30
   3  -9  -5    1.40    8.30
  -3   9   5   18.30    7.50
  -3   9   5  -11.00    8.50
  -3   9   5  -13.40    7.40
  -3   9   5   -1.20    8.80
   2  -9  -5  109.99    8.80
  -2   9   5   92.89   10.10
  -2   9   5  126.09    9.50
  -2   9   5  122.79    9.50
  -1   9   5   -3.50    5.20
  -1   9   5   -3.70    5.40
  -1   9   5  -10.10    6.60
  -1   9   5    6.70    4.80
   0   9   5   19.00    4.40
   0   9   5   21.40    5.60
   0   9   5   14.60    6.10
   0   9   5   27.10    5.30
   1   9   5  378.96    9.80
   1   9   5  350.16    9.80
   1   9   5  365.56   12.90
   1   9   5  361.26   11.40
   1   9   5  347.17   10.30
  -2  -9  -5   99.19    6.80
   2   9   5  120.39    9.10
   2   9   5  133.79    9.80
   2   9   5  148.69    9.00
  -3  -9  -5   -0.60    6.50
   3   9   5   -0.50    8.70
   3   9   5   13.40    8.40
   3   9   5    8.90    7.90
   3   9   5   17.10    7.30
   3   9   5   22.90    6.70
  -4  -9  -5    4.30    6.40
   4   9   5    5.40   10.30
   4   9   5    9.40   10.40
   4   9   5   22.90   11.30
  -5  -9  -5   20.10   10.80
   5   9   5   32.00   15.80
   5   9   5  -12.70   14.40
   5   9   5   19.80   15.30
   4 -10  -5   -3.80   12.30
  -4  10   5  -24.50   14.40
   3 -10  -5    4.10    8.60
  -3  10   5   -8.60    8.10
  -3  10   5   15.40   10.50
  -3  10   5  -20.80   10.50
  -2  10   5   25.20    9.20
  -2  10   5   28.20    8.00
  -1  10   5    3.90    7.20
  -1  10   5    2.90    5.90
  -1  10   5    5.00    5.60
  -1  10   5   13.10    8.70
   0  10   5   31.50    5.10
   0  10   5   24.80    6.80
   0  10   5   34.90    6.60
   0  10   5   27.00    7.10
   1  10   5  285.57   10.10
   1  10   5  284.67   14.90
   1  10   5  283.67   10.00
   1  10   5  276.87   11.70
   1  10   5  290.87    9.20
   2  10   5   18.50    5.50
   2  10   5   32.10    6.50
   2  10   5   15.10    6.30
   2  10   5   16.50    7.40
   2  10   5   23.60    8.00
   3  10   5   -4.30    9.10
   3  10   5    0.00   10.50
   3  10   5   -3.20    8.10
   3  10   5   17.60    7.70
   3  10   5   -4.20    9.20
   4  10   5    3.00   11.20
   4  10   5   15.20   12.20
   4  10   5  -16.90   11.30
   3 -11  -5   14.40   11.20
  -3  11   5    7.10   11.10
  -3  11   5  -13.30   12.90
  -2  11   5   18.80    9.90
  -2  11   5    5.50    8.10
  -1  11   5    2.70    6.40
  -1  11   5   11.60    7.30
  -1  11   5    6.10    8.60
   0  11   5    7.30    6.00
   0  11   5    8.00    7.30
   0  11   5   -2.90    8.10
   0  11   5   12.70    8.60
   1  11   5    1.20    8.30
   1  11   5   11.90    8.50
   1  11   5   -0.90    6.10
   1  11   5    0.90    5.90
   2  11   5    0.50    8.60
   2  11   5   17.20    8.80
   2  11   5    8.60    6.20
   2  11   5   -3.50    7.50
   2  11   5   11.30    7.10
   2  11   5   -9.60    8.60
   3  11   5  -25.20   10.90
   3  11   5    8.60    9.90
   3  11   5   -9.10    8.90
   4  11   5  -13.20   14.30
   4  11   5  -11.30   13.90
   4  11   5   -8.50   12.30
  -3  12   5  -15.90   13.70
  -2  12   5   -4.10    9.60
  -1  12   5    0.60    8.80
  -1  12   5    6.10    7.20
  -1  12   5    5.50   10.40
   0  12   5    8.20    9.60
   0  12   5    8.80    7.30
   1  12   5   -3.20   11.90
   1  12   5    7.40    7.10
   1  12   5   25.60   10.20
   2  12   5    1.10   12.20
   2  12   5   11.30    9.10
   2  12   5    4.40    7.00
   2  12   5   -5.00   10.40
   2  12   5   21.00    8.40
   3  12   5    0.30   12.20
   3  12   5    1.40   10.70
   3  12   5   -0.40   13.80
  -2  13   5    4.90   11.90
  -2  13   5    7.80   15.40
  -1  13   5    0.90   11.00
  -1  13   5   26.80   13.30
  -1  13   5   21.50    9.20
   0  13   5   -4.80   11.50
   0  13   5  -12.60   11.90
   1  13   5   48.80   13.20
   1  13   5   34.90   12.90
   2  13   5   -4.60   10.40
   2  13   5    6.90   13.20
   0  14   5    7.70   15.70
   0  14   5   24.70   14.00
   1  14   5    8.10   15.40
   1  14   5  -11.00   15.40
   1  12  -6    1.20   12.20
   1  12  -6   -1.40   14.10
   1  12  -6   -3.80   12.80
   1  12  -6  -20.60   15.40
   0  12  -6    2.70   11.70
   0  12  -6    2.10   11.50
   0  12  -6  -26.20   11.00
   0  12  -6   13.00   16.20
  -1  12  -6    7.00   11.80
  -1  12  -6   26.40   13.10
  -1  12  -6    8.20   10.80
  -1  12  -6   -0.30   16.80
  -2  12  -6   -9.50   12.40
  -2  12  -6    2.90   14.30
  -2  12  -6   15.10   13.40
   2  11  -6    5.40   13.40
   2  11  -6   19.20   13.30
   2  11  -6    4.60   12.90
   2  11  -6  -11.80   14.00
   1  11  -6   15.00   10.30
   1  11  -6    7.30   10.30
   1  11  -6    6.40   10.50
   1  11  -6   -3.80   12.70
   0  11  -6   47.30    9.90
   0  11  -6   21.80    9.90
   0  11  -6   41.90   13.80
   0  11  -6   42.30   10.00
  -1  11  -6   45.60   13.20
  -1  11  -6   57.69   10.70
  -1  11  -6   56.69    9.50
  -1  11  -6   55.69   10.40
  -2  11  -6    6.90   12.10
  -2  11  -6   -4.30    9.30
  -2  11  -6   -9.20   14.20
  -2  11  -6  -14.30   10.20
  -3  11  -6    5.90   14.40
  -3  11  -6    1.10   18.20
  -3  11  -6   14.10   13.00
  -3  11  -6   11.60   10.80
   3  10  -6   11.10   12.70
   3  10  -6   10.50   13.30
   3  10  -6    8.10   14.90
  -3 -10   6   10.60    9.60
   2  10  -6   41.00   13.00
   2  10  -6   13.30   10.20
   2  10  -6   24.70   11.40
   2  10  -6   33.70   10.00
  -2 -10   6   23.00    7.00
   1  10  -6   -9.60    8.50
   1  10  -6  -30.90    9.70
   1  10  -6    4.10    8.10
   1  10  -6   -4.50    8.80
   1  10  -6    1.30    9.40
  -1 -10   6  -11.80    5.30
  -1 -10   6   16.20    7.10
   0  10  -6  115.29   11.70
   0  10  -6  144.49   12.60
   0  10  -6  127.69   11.30
   0  10  -6  107.69   12.30
   0  10  -6  104.39    8.80
   0  10  -6  101.69    9.60
   0 -10   6  100.99    9.20
  -1  10  -6   -2.90    8.20
  -1  10  -6    4.80    7.50
  -1  10  -6    1.70    7.90
  -1  10  -6    9.70    7.90
  -1  10  -6   11.30   11.20
  -1  10  -6    7.00    6.60
   1 -10   6   -6.90    6.60
  -2  10  -6   16.90    9.70
  -2  10  -6   10.60    8.80
  -2  10  -6   16.10   11.00
  -2  10  -6   -2.30   12.60
  -2  10  -6   12.40    9.50
  -2  10  -6    8.40    7.30
  -3  10  -6    4.30   12.00
  -3  10  -6   13.70   13.80
  -3  10  -6  -15.20    9.20
  -3  10  -6  -10.60    9.90
   3 -10   6    5.30    7.10
  -4  10  -6   14.80   17.20
   4 -10   6    0.30   12.50
   4   9  -6    0.00   18.30
   4   9  -6   -2.00   17.00
  -4  -9   6   13.10   12.90
   3   9  -6  -10.50   11.50
   3   9  -6    1.20   12.70
   3   9  -6   17.30   11.20
  -3  -9   6    1.80    8.60
   2   9  -6   57.09    9.70
   2   9  -6   29.20    9.60
   2   9  -6   42.20   10.10
   2   9  -6   35.90    9.00
  -2  -9   6   51.89    8.00
  -2  -9   6   56.09    6.80
   1   9  -6   75.59    8.50
   1   9  -6   49.10    8.50
   1   9  -6   57.79    8.30
   1   9  -6   66.49    9.60
   1   9  -6   80.59   10.20
  -1  -9   6   65.79    5.90
  -1  -9   6   70.19    6.60
   0   9  -6   -0.50    6.40
   0   9  -6   12.00    8.70
   0   9  -6   -5.50    6.80
   0   9  -6   10.00    7.10
   0   9  -6   -7.60    6.80
   0   9  -6   -0.40    4.90
   0   9  -6    6.60    7.40
   0  -9   6   -1.90    6.50
   0  -9   6   -3.70    4.70
  -1   9  -6   29.00    7.40
  -1   9  -6   27.30    7.80
  -1   9  -6   18.40    7.10
  -1   9  -6   26.80    6.00
  -1   9  -6   25.80    8.70
  -1   9  -6   28.30    7.00
  -1   9  -6   19.80    6.60
   1  -9   6   10.10    9.70
   1  -9   6   30.20    6.00
  -2   9  -6   13.10    7.80
  -2   9  -6   20.90    8.30
  -2   9  -6   12.70    9.70
  -2   9  -6    3.10    5.90
  -2   9  -6   -4.50    6.40
  -2   9  -6   29.50    9.70
  -2   9  -6   -2.60    7.90
   2  -9   6   -2.90    6.50
  -3   9  -6   33.90   10.30
  -3   9  -6   34.90    7.60
  -3   9  -6   31.80    9.40
  -3   9  -6   49.50   13.60
   3  -9   6   39.40    7.00
  -4   9  -6   10.60   11.60
  -4   9  -6    4.90   16.10
  -4   9  -6   36.70   15.00
   4  -9   6   20.10    9.90
   4   8  -6   19.10   16.10
   4   8  -6   38.90   13.50
   4   8  -6   46.10   13.20
  -4  -8   6   22.40   11.70
   3   8  -6   23.00   13.20
   3   8  -6   10.90    9.60
   3   8  -6   -1.20    9.50
   3   8  -6   20.90   10.30
  -3  -8   6   15.40    8.80
  -3  -8   6   13.30    7.50
   2   8  -6   50.49    9.40
   2   8  -6   40.90    7.80
   2   8  -6   41.20    9.10
   2   8  -6   49.20    8.10
  -2  -8   6   48.60    7.90
  -2  -8   6   35.30    6.50
  -2  -8   6   47.00    6.00
   1   8  -6  269.67   13.10
   1   8  -6  262.17   16.00
   1   8  -6  300.27   13.20
   1   8  -6  335.67   12.30
   1   8  -6  336.27   11.70
   1   8  -6  303.07   12.30
  -1  -8   6  326.07    9.80
  -1  -8   6  323.97   10.70
  -1  -8   6  307.37   13.40
   0   8  -6  129.29    8.60
   0   8  -6  148.19    9.30
   0   8  -6  131.69    9.40
   0   8  -6  119.69    7.20
   0   8  -6  118.39    9.30
   0  -8   6  119.39    7.60
   0  -8   6  137.39   11.20
   0  -8   6  144.39    7.30
  -1   8  -6  173.78    9.20
  -1   8  -6  179.78    9.20
  -1   8  -6  178.18   10.00
  -1   8  -6  173.78    9.70
  -1   8  -6  170.78    8.30
   1  -8   6  190.58    7.70
   1  -8   6  175.28    7.80
  -2   8  -6   20.80    6.30
  -2   8  -6   25.50    8.30
  -2   8  -6   14.40    5.10
  -2   8  -6   17.60    7.20
  -2   8  -6    9.00    8.10
  -2   8  -6   12.10    6.80
  -2   8  -6   22.90    6.20
   2  -8   6   20.50    7.10
   2  -8   6   25.40    4.60
   2  -8   6   16.40    4.10
  -3   8  -6   22.50   10.40
  -3   8  -6   10.30    6.40
  -3   8  -6   19.70    7.70
  -3   8  -6   21.60   11.10
  -3   8  -6   26.80   12.80
  -3   8  -6   10.70    8.30
   3  -8   6   11.80    6.10
  -4   8  -6    1.30   15.60
  -4   8  -6   12.60   10.30
  -4   8  -6   11.10   11.60
   4  -8   6  -10.30    8.20
   4   7  -6   24.50   11.70
   4   7  -6   11.80   11.40
   4   7  -6    3.50    7.40
   4   7  -6    7.50   13.40
  -4  -7   6   21.50   10.70
  -4  -7   6   -5.40   10.50
   3   7  -6   45.50    8.70
   3   7  -6   46.00   11.00
   3   7  -6   19.60    9.00
   3   7  -6   38.10    9.20
  -3  -7   6   50.99    7.60
  -3  -7   6   33.30    8.30
   2   7  -6  111.89   11.30
   2   7  -6  159.18   14.60
   2   7  -6  149.49    9.70
   2   7  -6  138.69   11.30
  -2  -7   6  125.19    8.30
  -2  -7   6  118.59   11.20
  -2  -7   6  129.19   12.40
  -2  -7   6  144.09   12.00
  -2  -7   6  136.49    8.30
   1   7  -6   11.50    5.80
   1   7  -6   13.80    6.60
   1   7  -6    5.20    5.90
   1   7  -6    9.90    6.90
   1   7  -6   23.80    6.50
   1   7  -6    8.60    5.60
   1   7  -6    9.10    3.80
  -1  -7   6    7.50    4.90
  -1  -7   6    5.30    6.50
  -1  -7   6    5.50    5.20
  -1  -7   6   12.30    4.20
  -1  -7   6   12.10    4.20
   0   7  -6  180.48    7.30
   0   7  -6  198.58    9.10
   0   7  -6  186.18    8.50
   0   7  -6  172.18    9.60
   0   7  -6  192.18    8.20
   0   7  -6  189.08    8.50
   0   7  -6  188.08    8.90
   0  -7   6  188.98    9.20
   0  -7   6  183.78    7.00
   0  -7   6  164.48    7.80
   0  -7   6  184.18    7.50
   0  -7   6  180.48    9.90
  -1   7  -6    1.00    5.00
  -1   7  -6   -0.60    5.90
  -1   7  -6   10.40    5.20
  -1   7  -6    7.50    4.60
  -1   7  -6    5.20    4.10
  -1   7  -6   17.60    6.20
  -1   7  -6   -1.30    5.00
   1  -7   6    0.40    5.30
   1  -7   6    4.80    4.20
   1  -7   6    3.70    4.20
   1  -7   6    7.50    4.00
  -2   7  -6    3.80    8.70
  -2   7  -6    1.30    4.70
  -2   7  -6   -0.80    7.10
  -2   7  -6    1.80    5.10
  -2   7  -6    0.50    6.20
  -2   7  -6    7.30    7.10
  -2   7  -6    4.00    4.60
   2  -7   6    7.20    3.90
   2  -7   6   -1.20    4.30
   2  -7   6    2.20    4.60
   2  -7   6   -1.20    4.90
  -3   7  -6   12.70    9.70
  -3   7  -6    3.70    7.20
  -3   7  -6   -9.00    6.80
  -3   7  -6    2.90    9.30
  -3   7  -6   -1.80    7.80
  -3   7  -6    0.90    5.80
   3  -7   6    1.80    5.20
   3  -7   6   -9.50    6.50
   3  -7   6    4.60    5.60
  -4   7  -6  -10.30   12.10
  -4   7  -6    6.80   10.60
  -4   7  -6   -3.00    9.40
   4  -7   6   12.30    7.10
   4  -7   6   -0.70    7.90
  -5   7  -6    6.70   16.10
  -5   7  -6   13.60   17.40
  -5   7  -6   -6.10   14.70
   5  -7   6    0.90   12.50
   5   6  -6   12.20   14.60
   5   6  -6    2.30   17.60
  -5  -6   6   -1.70   16.50
  -5  -6   6    4.60   17.30
   4   6  -6   11.80   10.20
   4   6  -6   -4.40   15.00
   4   6  -6   -2.70    9.70
   4   6  -6    0.40   11.90
   4   6  -6    8.40    7.10
  -4  -6   6   16.90    7.10
  -4  -6   6   11.40    9.50
  -4  -6   6   -4.50    8.90
   3   6  -6  120.59   10.30
   3   6  -6   99.89   11.00
   3   6  -6  133.49   15.40
   3   6  -6  145.29   11.10
  -3  -6   6  128.49    9.40
  -3  -6   6   94.99   13.60
  -3  -6   6  105.49   12.30
  -3  -6   6  120.09    8.00
  -3  -6   6  109.79   10.30
   2   6  -6  138.79   10.30
   2   6  -6  141.49   10.70
   2   6  -6  136.99    9.40
   2   6  -6  145.09   10.00
   2   6  -6  112.69    8.70
  -2  -6   6  156.58   10.40
  -2  -6   6  145.89   12.40
  -2  -6   6  146.59    7.10
  -2  -6   6  142.59    8.30
  -2  -6   6  144.99    8.10
  -2  -6   6  148.99   10.70
   1   6  -6  987.00   21.20
   1   6  -6  968.10   18.60
   1   6  -6  985.70   20.90
   1   6  -6  991.90   20.20
   1   6  -6  989.30   20.70
   1   6  -6  963.50   20.60
   1   6  -6  933.71   20.20
  -1  -6   6  955.30   21.70
  -1  -6   6  951.80   20.70
  -1  -6   6  982.10   19.40
  -1  -6   6  970.70   20.10
  -1  -6   6  983.90   19.00
  -1  -6   6  979.80   19.30
   0   6  -6   57.49    5.90
   0   6  -6   58.99    6.10
   0   6  -6   48.90    4.80
   0   6  -6   43.40    5.20
   0   6  -6   60.39    6.30
   0   6  -6   42.80    4.60
   0   6  -6   53.99    5.40
   0  -6   6   38.90    5.60
   0  -6   6   48.70    5.20
   0  -6   6   47.60    4.50
   0  -6   6   52.99    4.60
   0  -6   6   59.89    5.60
   0  -6   6   54.59    5.10
  -1   6  -6   11.90    4.00
  -1   6  -6   16.30    5.00
  -1   6  -6   12.90    5.30
  -1   6  -6   22.70    4.60
  -1   6  -6   17.80    3.90
  -1   6  -6    8.20    4.90
  -1   6  -6   13.30    4.10
   1  -6   6   19.00    5.30
   1  -6   6   12.80    4.50
   1  -6   6   16.30    4.00
   1  -6   6   20.90    4.80
   1  -6   6   19.80    3.80
  -2   6  -6  -10.80    5.40
  -2   6  -6    1.90    4.50
  -2   6  -6    3.20    5.80
  -2   6  -6    8.00    5.40
  -2   6  -6    4.40    4.50
  -2   6  -6   -0.10    5.60
  -2   6  -6    4.90    4.00
   2  -6   6    2.60    3.70
   2  -6   6    3.70    4.10
   2  -6   6    2.60    4.60
   2  -6   6    8.50    5.80
  -3   6  -6   73.09    9.40
  -3   6  -6   63.49    6.40
  -3   6  -6   59.19    7.90
  -3   6  -6   63.29    8.80
  -3   6  -6   59.39    6.00
  -3   6  -6   59.89    7.50
   3  -6   6   56.99    6.90
   3  -6   6   65.29    6.10
   3  -6   6   68.89    6.00
  -4   6  -6   24.60   11.80
  -4   6  -6    5.90    8.40
  -4   6  -6   15.50    9.00
  -4   6  -6   12.10    7.40
   4  -6   6   17.70    6.60
  -5   6  -6   27.80   17.00
  -5   6  -6   15.90   12.80
  -5   6  -6   17.00   14.30
   5  -6   6   14.10    9.70
   5  -6   6   26.10   11.00
   5   5  -6   -0.30   10.80
   5   5  -6   13.70   11.80
   5   5  -6   32.20   13.90
   5   5  -6   25.30   16.10
  -5  -5   6   -3.00   12.90
  -5  -5   6    9.10   13.60
  -5  -5   6   11.80   10.70
   4   5  -6   28.40    9.50
   4   5  -6   39.10    8.80
   4   5  -6   26.40    6.90
   4   5  -6   16.60   11.20
   4   5  -6   23.80   14.00
  -4  -5   6   41.60    8.90
  -4  -5   6   28.50    9.20
  -4  -5   6   38.90    6.70
   3   5  -6   17.30    8.80
   3   5  -6   29.40    6.40
   3   5  -6   36.70    7.10
   3   5  -6   17.40    6.80
   3   5  -6   21.40    4.40
  -3  -5   6   23.90    6.40
  -3  -5   6   23.00    6.90
  -3  -5   6   32.30    9.10
  -3  -5   6   21.30    5.10
  -3  -5   6   12.30    8.70
   2   5  -6  201.68   10.00
   2   5  -6  226.08    9.40
   2   5  -6  204.58   10.40
   2   5  -6  233.18    9.40
   2   5  -6  204.38   10.20
  -2  -5   6  218.68    7.80
  -2  -5   6  216.28    8.50
  -2  -5   6  218.78   10.30
  -2  -5   6  205.88   10.60
  -2  -5   6  223.78    8.50
  -2  -5   6  215.48   11.00
   1   5  -6   52.09    4.90
   1   5  -6   51.09    5.20
   1   5  -6   56.19    5.10
   1   5  -6   55.19    5.20
   1   5  -6   57.09    5.10
   1   5  -6   61.19    5.30
   1   5  -6   46.30    5.00
  -1  -5   6   60.39    5.00
  -1  -5   6   48.00    4.30
  -1  -5   6   58.79    6.20
  -1  -5   6   54.19    5.40
  -1  -5   6   54.59    5.10
  -1  -5   6   57.39    5.60
   0   5  -6   51.09    4.60
   0   5  -6   43.30    5.10
   0   5  -6   48.90    4.90
   0   5  -6   52.29    5.20
   0   5  -6   50.79    5.20
   0   5  -6   49.50    5.00
   0   5  -6   45.90    4.80
   0  -5   6   45.00    4.60
   0  -5   6   52.39    4.40
   0  -5   6   49.99    5.00
   0  -5   6   48.80    5.10
   0  -5   6   48.70    4.50
   0  -5   6   53.49    4.90
  -1   5  -6 1066.69   20.60
  -1   5  -6 1057.99   20.90
  -1   5  -6 1062.79   21.80
  -1   5  -6 1024.20   21.20
  -1   5  -6 1034.70   20.00
  -1   5  -6 1053.49   19.90
   1  -5   6 1032.60   20.70
   1  -5   6 1050.09   21.00
   1  -5   6 1053.09   20.10
   1  -5   6 1046.80   21.20
   1  -5   6  980.20   21.20
  -2   5  -6    7.30    4.80
  -2   5  -6    2.90    3.80
  -2   5  -6    2.40    5.10
  -2   5  -6   -1.80    3.80
  -2   5  -6   10.30    5.70
  -2   5  -6    2.10    3.60
  -2   5  -6  -13.00    4.60
   2  -5   6    3.50    3.80
   2  -5   6   -3.70    4.10
   2  -5   6   10.10    5.40
   2  -5   6    7.90    5.20
  -3   5  -6   25.10    5.80
  -3   5  -6   27.60    6.40
  -3   5  -6   13.20    7.20
  -3   5  -6   15.40    7.70
  -3   5  -6   16.60    7.20
  -3   5  -6   26.40    5.00
   3  -5   6   25.90    5.40
   3  -5   6   36.50    6.30
   3  -5   6   26.00    6.90
   3  -5   6   29.00    5.20
   3  -5   6   31.90    5.50
  -4   5  -6   19.10    6.70
  -4   5  -6   10.30   10.50
  -4   5  -6   10.50    7.90
  -4   5  -6   15.00    8.30
   4  -5   6   19.00    7.70
   4  -5   6   23.70    6.80
   4  -5   6   19.90    7.70
  -5   5  -6   -8.50   13.50
  -5   5  -6    5.00   11.90
  -5   5  -6   -0.70   11.90
   5  -5   6   12.60   10.90
   5  -5   6    3.80   10.00
   5   4  -6  -12.50   10.20
   5   4  -6  -17.90    9.90
   5   4  -6   -4.90   12.50
   5   4  -6  -11.00   15.10
  -5  -4   6   -6.50   11.70
  -5  -4   6  -18.20   13.20
  -5  -4   6   -0.40    9.80
   4   4  -6   47.00    8.60
   4   4  -6   45.90    7.00
   4   4  -6   32.30    9.80
   4   4  -6    2.60   12.80
  -4  -4   6   31.70    8.60
  -4  -4   6   36.90    8.00
  -4  -4   6   42.40   12.40
  -4  -4   6   11.70   12.60
  -4  -4   6   28.90    6.80
   3   4  -6  170.58   12.10
   3   4  -6  185.78   10.70
   3   4  -6  187.48    7.50
   3   4  -6  185.28    9.40
  -3  -4   6  203.68    9.60
  -3  -4   6  179.38   12.90
  -3  -4   6  173.48   12.00
  -3  -4   6  199.08   10.40
  -3  -4   6  181.88   11.70
  -3  -4   6  182.48    8.10
   2   4  -6  474.85   10.10
   2   4  -6  488.65   12.40
   2   4  -6  478.55   13.10
   2   4  -6  473.65   13.20
   2   4  -6  470.45   12.70
   2   4  -6  489.25   12.50
  -2  -4   6  498.15   13.60
  -2  -4   6  484.85   13.90
  -2  -4   6  482.75   11.20
  -2  -4   6  518.45   13.10
  -2  -4   6  494.75   12.10
  -2  -4   6  477.45   11.70
   1   4  -6  214.28    7.40
   1   4  -6  213.58    7.90
   1   4  -6  214.78    6.60
   1   4  -6  202.88    7.40
   1   4  -6  211.78    7.40
   1   4  -6  211.48    7.60
  -1  -4   6  201.78    7.70
  -1  -4   6  219.18    6.80
  -1  -4   6  222.68    6.70
  -1  -4   6  222.78    7.60
  -1  -4   6  221.68    8.10
  -1  -4   6  214.18    6.60
   0   4  -6   71.79    4.90
   0   4  -6   68.39    4.60
   0   4  -6   64.69    5.40
   0   4  -6   70.69    5.00
   0   4  -6   76.59    5.70
   0   4  -6   83.09    4.90
   0   4  -6   71.09    5.50
   0  -4   6   66.29    5.40
   0  -4   6   73.29    5.70
   0  -4   6   84.29    5.30
   0  -4   6   79.59    4.50
   0  -4   6   73.99    4.20
  -1   4  -6 1126.39   20.50
  -1   4  -6 1096.29   21.10
  -1   4  -6 1090.99   21.40
  -1   4  -6 1098.89   20.70
  -1   4  -6 1108.09   21.80
  -1   4  -6 1079.09   21.40
  -1   4  -6 1084.89   21.80
   1  -4   6 1112.79   21.90
   1  -4   6 1088.79   20.80
   1  -4   6 1101.19   20.70
   1  -4   6 1089.09   21.20
   1  -4   6 1120.59   20.80
   1  -4   6 1085.79   21.80
   1  -4   6 1066.69   21.50
  -2   4  -6  174.18    8.80
  -2   4  -6  171.98    8.00
  -2   4  -6  182.58    8.30
  -2   4  -6  183.98    6.80
  -2   4  -6  182.68    7.00
  -2   4  -6  179.28    8.00
  -2   4  -6  191.08    6.40
   2  -4   6  196.08    7.20
   2  -4   6  169.68    6.80
   2  -4   6  187.08    7.10
   2  -4   6  187.18    7.30
   2  -4   6  178.18    8.60
   2  -4   6  178.88    8.60
  -3   4  -6   15.40    6.00
  -3   4  -6   14.60    4.70
  -3   4  -6   19.30    7.00
  -3   4  -6   13.40    5.80
  -3   4  -6   11.20    4.80
  -3   4  -6   21.80    6.20
   3  -4   6   13.40    4.90
   3  -4   6   12.70    5.20
   3  -4   6   16.50    6.90
   3  -4   6   11.80    4.80
  -4   4  -6    6.80    7.10
  -4   4  -6   -5.50    6.50
  -4   4  -6    6.30    8.50
  -4   4  -6    3.60    8.60
  -4   4  -6   15.00    7.10
   4  -4   6    8.10    6.90
   4  -4   6   -8.40   10.00
   4  -4   6    8.90    6.30
  -5   4  -6   11.90   11.90
  -5   4  -6   17.60   11.50
  -5   4  -6   35.40   14.10
   5  -4   6   10.40    9.30
   5  -4   6   13.10    9.60
   5  -4   6   20.70   11.10
  -6   4  -6   -2.50   17.00
   6  -4   6  -24.70   13.90
   6  -4   6    0.10   16.30
   5   3  -6   -1.70    9.00
   5   3  -6   -1.70   11.40
   5   3  -6   -7.80    9.00
   5   3  -6   30.60   22.80
  -5  -3   6    8.30   11.60
  -5  -3   6   -1.70   11.30
  -5  -3   6   -4.10    9.80
   4   3  -6   45.10    7.90
   4   3  -6   47.20    6.60
   4   3  -6   26.90   12.20
   4   3  -6   37.40    9.10
   4   3  -6   41.20    7.30
  -4  -3   6   56.79   11.90
  -4  -3   6   43.30   10.80
  -4  -3   6   51.99    8.20
  -4  -3   6   54.09    8.00
  -4  -3   6   51.99    7.10
   3   3  -6  499.55   13.60
   3   3  -6  494.55   12.00
   3   3  -6  465.75   15.20
   3   3  -6  487.95   12.80
   3   3  -6  484.95   14.20
   3   3  -6  464.55   15.40
  -3  -3   6  479.55   13.20
  -3  -3   6  487.75   12.40
  -3  -3   6  447.76   14.30
  -3  -3   6  472.15   15.30
  -3  -3   6  485.35   13.20
   2   3  -6  843.32   17.60
   2   3  -6  816.12   15.80
   2   3  -6  841.02   18.20
   2   3  -6  866.01   18.20
   2   3  -6  836.82   17.60
  -2  -3   6  833.62   17.20
  -2  -3   6  826.72   18.70
  -2  -3   6  860.11   16.90
  -2  -3   6  857.51   17.30
  -2  -3   6  838.82   18.20
  -2  -3   6  836.42   18.00
   1   3  -6   17.60    3.00
   1   3  -6   18.00    3.90
   1   3  -6   25.70    3.50
   1   3  -6   18.40    3.30
   1   3  -6   20.00    3.60
   1   3  -6   22.50    3.50
  -1  -3   6   18.40    2.90
  -1  -3   6   26.50    3.30
  -1  -3   6   25.90    3.10
  -1  -3   6   24.30    3.00
  -1  -3   6   23.10    4.00
  -1  -3   6   17.60    3.70
   0   3  -6  452.05   10.50
   0   3  -6  460.65   10.00
   0   3  -6  444.36    9.70
   0   3  -6  455.55   10.40
   0   3  -6  458.35   10.40
   0   3  -6  461.25   10.80
   0  -3   6  444.46    9.80
   0  -3   6  455.55   10.20
   0  -3   6  437.76   10.30
   0  -3   6  461.35   10.60
   0  -3   6  470.45    9.80
  -1   3  -6  334.97    7.90
  -1   3  -6  332.57    9.10
  -1   3  -6  335.47    9.10
  -1   3  -6  333.87    9.30
  -1   3  -6  338.77    9.00
  -1   3  -6  339.67    8.50
   1  -3   6  339.67    8.50
   1  -3   6  351.46    8.30
   1  -3   6  339.47    8.10
   1  -3   6  340.07    9.30
   1  -3   6  336.17    9.30
   1  -3   6  342.77    9.10
   1  -3   6  341.37    8.60
  -2   3  -6   60.69    5.30
  -2   3  -6   60.59    4.50
  -2   3  -6   63.59    6.30
  -2   3  -6   60.29    6.40
  -2   3  -6   69.99    4.80
   2  -3   6   65.39    5.10
   2  -3   6   72.39    4.80
   2  -3   6   64.49    6.50
   2  -3   6   52.99    5.60
   2  -3   6   61.49    5.30
   2  -3   6   74.19    5.40
  -3   3  -6   47.30    4.90
  -3   3  -6   47.80    5.80
  -3   3  -6   35.90    6.10
  -3   3  -6   35.00    6.60
  -3   3  -6   41.70    4.50
  -3   3  -6   53.89    5.80
   3  -3   6   40.90    6.20
   3  -3   6   46.90    7.00
   3  -3   6   48.40    5.40
   3  -3   6   43.10    5.40
   3  -3   6   76.29    7.00
  -4   3  -6   35.50    7.50
  -4   3  -6   25.10    6.40
  -4   3  -6   21.00    8.80
  -4   3  -6   40.40    7.10
   4  -3   6   44.90    7.00
   4  -3   6   20.70    9.40
   4  -3   6   33.90    7.10
  -5   3  -6   27.40   10.20
  -5   3  -6   12.90   12.80
  -5   3  -6   22.30   10.80
  -5   3  -6   23.70   10.20
   5  -3   6   23.00    9.90
   5  -3   6   14.40    8.80
  -6   3  -6   10.10   18.30
  -6   3  -6   13.00   15.90
  -6   3  -6    4.80   15.50
   6  -3   6   -6.00   13.10
   6  -3   6    2.10   14.70
   5   2  -6    1.00    8.10
   5   2  -6    3.90   10.10
   5   2  -6  -18.00    9.70
   5   2  -6   21.00   13.20
  -5  -2   6    5.20   21.40
  -5  -2   6   -1.00   11.30
  -5  -2   6   -2.30   10.40
  -5  -2   6   13.50   11.20
   4   2  -6  127.29    9.10
   4   2  -6  133.79   12.30
   4   2  -6  137.49   11.70
   4   2  -6  109.29   12.50
   4   2  -6  128.59    9.80
  -4  -2   6  150.78   10.30
  -4  -2   6  118.69   10.90
  -4  -2   6  118.49   11.70
  -4  -2   6  117.19   12.40
  -4  -2   6  140.29   11.50
   3   2  -6  168.78    8.00
   3   2  -6  170.38   10.70
   3   2  -6  167.08    9.10
   3   2  -6  182.78    7.70
   3   2  -6  172.08    9.80
   3   2  -6  186.08   11.20
  -3  -2   6  178.48    8.80
  -3  -2   6  177.28    8.80
  -3  -2   6  158.38   10.30
  -3  -2   6  162.08    8.30
  -3  -2   6  162.48    9.60
   2   2  -6   69.09    4.50
   2   2  -6   81.79    6.70
   2   2  -6   80.49    5.40
   2   2  -6   72.79    5.70
   2   2  -6   66.79    6.00
   2   2  -6   74.69    6.40
  -2  -2   6   79.99    5.50
  -2  -2   6   79.59    6.40
  -2  -2   6   71.99    5.70
  -2  -2   6   76.79    5.40
  -2  -2   6   64.39    6.60
  -2  -2   6   66.89    5.50
   1   2  -6  562.44   10.50
   1   2  -6  559.04   12.40
   1   2  -6  552.14   11.90
   1   2  -6  564.64   11.70
   1   2  -6  561.94   12.10
   1   2  -6  531.45   11.90
   1   2  -6  572.14   12.00
  -1  -2   6  544.75   10.80
  -1  -2   6  547.95   11.60
  -1  -2   6  576.14   12.20
  -1  -2   6  556.04   11.60
  -1  -2   6  539.85   13.40
  -1  -2   6  547.25   12.10
  -1  -2   6  555.84   11.40
   0   2  -6 1460.55   26.80
   0   2  -6 1481.55   27.30
   0   2  -6 1460.05   26.70
   0   2  -6 1494.65   26.60
   0   2  -6 1477.85   26.60
   0   2  -6 1483.85   26.40
   0   2  -6 1449.26   26.90
   0  -2   6 1473.05   26.80
   0  -2   6 1461.55   26.90
   0  -2   6 1458.15   26.30
   0  -2   6 1488.15   27.00
   0  -2   6 1463.55   26.90
   0  -2   6 1460.55   25.40
   0  -2   6 1439.56   26.40
  -1   2  -6  407.86    8.80
  -1   2  -6  413.76   10.20
  -1   2  -6  427.06   10.00
  -1   2  -6  416.06   10.10
  -1   2  -6  404.76    8.90
  -1   2  -6  412.46   10.00
  -1   2  -6  404.36    9.30
   1  -2   6  407.86    9.90
   1  -2   6  393.36    9.50
   1  -2   6  406.16   10.10
   1  -2   6  418.76    9.20
   1  -2   6  401.56    9.10
   1  -2   6  409.66    9.90
   1  -2   6  403.26    9.50
  -2   2  -6  603.44   13.60
  -2   2  -6  593.54   12.50
  -2   2  -6  625.24   14.20
  -2   2  -6  590.24   12.40
  -2   2  -6  578.74   13.70
  -2   2  -6  579.34   14.30
   2  -2   6  604.14   13.00
   2  -2   6  592.34   13.60
   2  -2   6  603.74   12.70
   2  -2   6  605.54   13.90
   2  -2   6  611.94   13.10
   2  -2   6  600.14   13.20
  -3   2  -6  344.67   11.20
  -3   2  -6  348.97    9.70
  -3   2  -6  347.37   11.90
  -3   2  -6  340.07    9.80
  -3   2  -6  347.77   11.30
  -3   2  -6  347.97   12.30
   3  -2   6  345.27   13.40
   3  -2   6  347.27   10.60
   3  -2   6  344.77   10.50
   3  -2   6  347.07   11.70
   3  -2   6  354.36   10.80
   3  -2   6  349.87   11.70
  -4   2  -6   20.60    7.90
  -4   2  -6    0.80    6.00
  -4   2  -6   15.70    6.40
  -4   2  -6   25.60    7.20
   4  -2   6   30.30    6.30
   4  -2   6   12.00    8.80
   4  -2   6   32.00    7.30
   4  -2   6   22.80    6.60
  -5   2  -6  153.48   14.60
  -5   2  -6  154.78   14.10
  -5   2  -6  148.99   16.10
  -5   2  -6  148.49   15.20
   5  -2   6  153.48   14.00
   5  -2   6  167.08   13.80
  -6   2  -6   37.10   16.20
  -6   2  -6   23.10   16.70
  -6   2  -6    2.10   14.80
   6  -2   6   16.70   13.60
   5   1  -6    8.30    7.60
   5   1  -6    4.60   12.20
   5   1  -6   10.90   10.60
   5   1  -6    6.50    9.40
  -5  -1   6    8.60   10.50
  -5  -1   6    6.80   10.70
  -5  -1   6   19.30   11.20
   4   1  -6   77.59   11.10
   4   1  -6   92.39    8.10
   4   1  -6   94.69    8.10
   4   1  -6  110.49    9.60
   4   1  -6   96.69    9.40
  -4  -1   6   54.59   10.80
  -4  -1   6   83.39    8.50
  -4  -1   6  106.79    9.40
  -4  -1   6  111.99   10.70
   3   1  -6   61.79    6.00
   3   1  -6   47.10    6.90
   3   1  -6   63.09    6.50
   3   1  -6   52.79    6.80
   3   1  -6   67.19    6.10
   3   1  -6   65.99    6.90
   3   1  -6   66.79    6.80
  -3  -1   6   69.89    7.00
  -3  -1   6   71.19    7.20
  -3  -1   6   66.99    6.20
  -3  -1   6   71.59    7.60
  -3  -1   6   65.09    6.30
  -3  -1   6   78.19    7.10
   2   1  -6  371.86    9.60
   2   1  -6  372.46   10.00
   2   1  -6  388.46    8.60
   2   1  -6  364.16    9.20
   2   1  -6  378.26   10.00
   2   1  -6  359.86   10.10
  -2  -1   6  358.16    9.90
  -2  -1   6  369.46    9.50
  -2  -1   6  373.86   10.10
  -2  -1   6  359.96    9.30
  -2  -1   6  373.36   10.10
  -2  -1   6  381.06    9.60
   1   1  -6   12.50    2.90
   1   1  -6   14.30    2.90
   1   1  -6   10.60    2.00
   1   1  -6   12.80    2.80
   1   1  -6   11.80    3.10
   1   1  -6    5.70    2.80
   1   1  -6   10.70    2.90
  -1  -1   6   10.10    2.30
  -1  -1   6   10.00    2.70
  -1  -1   6    9.70    3.10
  -1  -1   6   13.80    3.30
  -1  -1   6   10.90    2.40
  -1  -1   6   10.80    2.60
  -1  -1   6   11.40    3.20
   0   1  -6 4471.15   76.19
   0   1  -6 4349.26   75.89
   0   1  -6 4367.36   75.49
   0   1  -6 4405.26   75.39
   0   1  -6 4320.37   75.79
   0   1  -6 4391.46   75.79
   0   1  -6 4387.66   75.49
   0  -1   6 4381.06   76.09
   0  -1   6 4383.06   75.69
   0  -1   6 4404.66   74.89
   0  -1   6 4443.86   75.89
   0  -1   6 4371.66   75.59
   0  -1   6 4581.94   76.09
   0  -1   6 4400.76   75.39
  -1   1  -6 2250.57   39.40
  -1   1  -6 2248.48   40.20
  -1   1  -6 2272.97   40.30
  -1   1  -6 2263.67   40.10
  -1   1  -6 2252.87   39.30
  -1   1  -6 2202.78   39.90
   1  -1   6 2207.98   40.40
   1  -1   6 2310.27   39.80
   1  -1   6 2226.88   39.60
   1  -1   6 2255.07   39.50
   1  -1   6 2222.98   40.10
   1  -1   6 2232.78   39.90
   1  -1   6 2276.77   39.90
  -2   1  -6  561.54   13.10
  -2   1  -6  551.54   12.80
  -2   1  -6  559.94   11.90
  -2   1  -6  560.34   13.30
  -2   1  -6  548.95   11.70
  -2   1  -6  568.74   13.10
   2  -1   6  583.14   12.10
   2  -1   6  574.94   12.40
   2  -1   6  571.14   12.30
   2  -1   6  567.54   12.90
   2  -1   6  543.65   12.70
   2  -1   6  552.84   13.30
  -3   1  -6  611.74   14.00
  -3   1  -6  621.54   13.90
  -3   1  -6  634.14   15.60
  -3   1  -6  646.54   15.80
  -3   1  -6  629.84   15.20
  -3   1  -6  617.94   15.40
   3  -1   6  645.14   15.20
   3  -1   6  633.04   15.70
   3  -1   6  630.54   14.80
   3  -1   6  650.43   14.60
   3  -1   6  624.74   15.20
  -4   1  -6   20.00    8.00
  -4   1  -6   39.30    6.90
  -4   1  -6   34.60    6.20
  -4   1  -6   39.60    7.40
  -4   1  -6   34.80    7.10
   4  -1   6   32.70    8.20
   4  -1   6   23.60    6.80
   4  -1   6   31.90    6.10
   4  -1   6   32.70    7.50
  -5   1  -6   34.80    9.70
  -5   1  -6   38.40   11.30
  -5   1  -6   38.30   10.00
  -5   1  -6   46.60   10.10
   5  -1   6   41.00   10.40
   5  -1   6   24.20    8.70
  -6   1  -6   13.20   14.50
  -6   1  -6   16.50   14.80
  -6   1  -6   13.80   17.80
   6  -1   6   -4.30   16.20
   6  -1   6  -18.10   13.50
   5   0  -6   20.00    9.60
   5   0  -6    4.20    9.40
   5   0  -6   -9.00   11.90
  -5   0   6   21.20   10.50
  -5   0   6   12.40   10.40
  -5   0   6    7.20   10.60
   4   0  -6    7.70    7.80
   4   0  -6   13.40    6.60
   4   0  -6   12.20    9.00
   4   0  -6    4.80    5.00
   4   0  -6   22.60   10.90
  -4   0   6    8.40   10.10
  -4   0   6   11.60    7.30
  -4   0   6   14.80    7.30
  -4   0   6   11.00    7.00
   3   0  -6 1627.54   29.90
   3   0  -6 1554.94   31.80
   3   0  -6 1628.64   30.50
   3   0  -6 1665.23   31.80
   3   0  -6 1655.33   30.70
   3   0  -6 1602.74   30.80
   3   0  -6 1637.94   31.30
  -3   0   6 1643.44   31.30
  -3   0   6 1655.33   30.90
  -3   0   6 1628.04   31.90
  -3   0   6 1616.14   32.00
  -3   0   6 1607.44   30.50
  -3   0   6 1647.34   31.10
   2   0  -6   50.99    4.40
   2   0  -6   56.59    4.80
   2   0  -6   52.99    4.30
   2   0  -6   53.39    5.70
   2   0  -6   55.39    4.30
   2   0  -6   60.49    5.20
   2   0  -6   49.90    4.50
  -2   0   6   65.59    6.00
  -2   0   6   46.60    4.50
  -2   0   6   54.39    5.10
  -2   0   6   53.59    4.60
  -2   0   6   48.00    5.10
  -2   0   6   51.69    4.50
  -2   0   6   48.10    5.00
   1   0  -6 1510.25   27.00
   1   0  -6 1530.85   27.50
   1   0  -6 1512.35   27.50
   1   0  -6 1530.45   27.60
   1   0  -6 1524.65   27.90
   1   0  -6 1558.24   27.70
   1   0  -6 1526.75   27.90
  -1   0   6 1512.05   27.20
  -1   0   6 1532.65   27.60
  -1   0   6 1542.75   27.90
  -1   0   6 1501.85   27.20
  -1   0   6 1509.95   27.60
  -1   0   6 1497.35   27.70
  -1   0   6 1518.85   27.40
   0   0  -6  624.74   12.10
   0   0  -6  604.74   11.90
   0   0  -6  615.24   12.50
   0   0  -6  615.04   12.50
   0   0  -6  637.04   12.90
   0   0  -6  610.14   11.90
   0   0  -6  623.84   12.70
   0   0   6  607.64   11.70
   0   0   6  613.84   12.50
   0   0   6  624.04   12.00
   0   0   6  616.04   12.70
   0   0   6  619.84   12.50
   0   0   6  628.54   12.20
   0   0   6  625.14   11.80
   0   0   6  612.34   12.70
  -1   0  -6 3618.54   62.19
  -1   0  -6 3578.34   61.59
  -1   0  -6 3488.75   61.39
  -1   0  -6 3613.24   62.39
  -1   0  -6 3527.15   61.99
   1   0   6 3529.75   61.69
   1   0   6 3564.64   61.89
   1   0   6 3533.45   61.79
   1   0   6 3694.03   61.99
   1   0   6 3576.14   62.09
   1   0   6 3528.15   62.49
   1   0   6 3663.53   62.29
  -2   0  -6   53.79    5.00
  -2   0  -6   58.39    5.60
  -2   0  -6   58.49    4.20
  -2   0  -6   67.79    5.30
   2   0   6   58.09    5.70
   2   0   6   60.09    4.80
   2   0   6   60.99    6.00
   2   0   6   61.79    4.70
   2   0   6   70.79    5.90
  -3   0  -6  418.46   11.80
  -3   0  -6  421.96   10.70
  -3   0  -6  405.56   12.00
  -3   0  -6  418.86   10.90
  -3   0  -6  437.66   12.10
  -3   0  -6  452.65   12.80
   3   0   6  415.36   12.60
   3   0   6  420.96   11.10
   3   0   6  414.96   11.40
  -4   0  -6   96.69    9.20
  -4   0  -6   90.19    7.70
  -4   0  -6   88.29    8.50
  -4   0  -6   88.59    8.40
  -4   0  -6   89.59    8.20
   4   0   6   92.09    9.30
   4   0   6   96.09    9.10
   4   0   6  103.59    9.20
  -5   0  -6    3.10    8.70
  -5   0  -6  -12.50   10.20
  -5   0  -6   13.90   10.70
  -5   0  -6   -9.60    9.10
   5   0   6   -1.30    8.20
   5   0   6    4.50   12.40
   5   0   6    8.40    9.20
  -6   0  -6  229.38   21.10
  -6   0  -6  160.78   15.70
   6   0   6  175.88   15.80
   6   0   6  213.98   20.90
   6   0   6  219.18   20.00
   5  -1  -6   10.90    9.20
   5  -1  -6   29.70    9.60
  -5   1   6   27.60   10.90
  -5   1   6   -1.50   10.60
  -5   1   6    2.40   11.40
   4  -1  -6   48.40    7.20
   4  -1  -6   51.79    6.90
   4  -1  -6   50.99    8.10
   4  -1  -6   49.30    4.80
  -4   1   6   54.29    7.60
  -4   1   6   33.50    6.60
  -4   1   6   60.99    7.90
  -4   1   6   36.70    8.80
  -4   1   6   52.69    8.00
   3  -1  -6  478.15   12.20
   3  -1  -6  459.65   11.80
   3  -1  -6  470.35   13.00
   3  -1  -6  458.45   10.60
   3  -1  -6  435.06   13.10
   3  -1  -6  468.05   12.90
  -3   1   6  459.05   13.60
  -3   1   6  473.25   12.50
  -3   1   6  452.75   11.60
  -3   1   6  503.45   13.20
  -3   1   6  477.15   12.10
  -3   1   6  470.45   13.60
   2  -1  -6  132.99    5.70
   2  -1  -6  139.79    6.50
   2  -1  -6  131.29    6.10
   2  -1  -6  128.39    5.00
   2  -1  -6  129.69    5.30
   2  -1  -6  123.09    5.10
  -2   1   6  138.59    6.50
  -2   1   6  121.29    6.70
  -2   1   6  131.19    5.50
  -2   1   6  128.89    5.60
  -2   1   6  132.29    6.50
  -2   1   6  136.79    6.30
  -2   1   6  132.69    6.10
   1  -1  -6  119.29    4.70
   1  -1  -6  122.89    5.30
   1  -1  -6  120.69    5.60
   1  -1  -6  116.29    4.80
   1  -1  -6  119.79    4.40
   1  -1  -6  117.09    4.80
  -1   1   6  123.39    5.20
  -1   1   6  115.69    4.80
  -1   1   6  120.29    4.20
  -1   1   6  122.89    4.70
  -1   1   6  113.89    5.30
  -1   1   6  116.39    5.00
  -1   1   6  116.09    4.60
   0  -1  -6 1017.90   18.20
   0  -1  -6 1012.80   19.10
   0  -1  -6 1061.99   18.60
   0  -1  -6 1016.80   19.20
   0  -1  -6  994.70   18.60
   0  -1  -6 1022.50   19.40
   0   1   6 1016.60   18.60
   0   1   6 1033.60   18.50
   0   1   6 1066.19   19.20
   0   1   6 1021.80   19.00
   0   1   6 1021.40   19.00
   0   1   6 1019.20   18.10
   0   1   6 1007.00   18.60
   0   1   6 1014.90   19.30
  -1  -1  -6  144.29    4.40
  -1  -1  -6  136.69    5.40
  -1  -1  -6  140.29    4.50
  -1  -1  -6  145.39    5.40
  -1  -1  -6  155.08    5.60
  -1  -1  -6  152.48    5.60
   1   1   6  140.79    5.60
   1   1   6  139.99    4.60
   1   1   6  142.49    5.80
   1   1   6  142.09    5.50
   1   1   6  148.69    5.80
   1   1   6  157.78    5.00
  -2  -1  -6 1320.57   26.30
  -2  -1  -6 1337.27   24.40
  -2  -1  -6 1345.77   24.40
  -2  -1  -6 1335.77   25.30
  -2  -1  -6 1317.27   25.20
  -2  -1  -6 1308.97   25.50
   2   1   6 1347.17   24.90
   2   1   6 1322.87   25.30
   2   1   6 1325.77   24.70
   2   1   6 1321.27   25.30
   2   1   6 1296.17   25.50
  -3  -1  -6  419.06   10.90
  -3  -1  -6  400.56   12.30
  -3  -1  -6  412.46   11.60
  -3  -1  -6  401.66   10.60
  -3  -1  -6  414.76   11.90
  -3  -1  -6  403.96   11.50
   3   1   6  428.26   11.30
   3   1   6  429.26   12.10
   3   1   6  431.76   12.60
   3   1   6  408.86   11.40
   3   1   6  413.16   11.60
  -4  -1  -6   30.30    6.80
  -4  -1  -6   41.30    5.90
  -4  -1  -6   41.10    6.00
  -4  -1  -6   31.40    7.10
  -4  -1  -6   44.40    7.20
  -4  -1  -6   54.89    6.90
   4   1   6   35.00    6.60
   4   1   6   30.50    7.60
   4   1   6   44.30    8.10
   4   1   6   46.80    6.50
  -5  -1  -6  121.69   11.20
  -5  -1  -6  146.29   13.40
  -5  -1  -6  159.08   13.20
  -5  -1  -6  135.89   10.90
   5   1   6  126.19   13.10
   5   1   6  113.59   12.90
   5   1   6  147.99   13.80
  -6  -1  -6   -6.10   13.30
  -6  -1  -6   -9.10   13.90
   6   1   6   19.60   13.10
   6   1   6   -3.70   14.20
   6   1   6    1.30   19.80
   5  -2  -6    5.70   11.00
   5  -2  -6    0.80   10.50
  -5   2   6   28.90   11.00
  -5   2   6   24.30   10.40
  -5   2   6   20.10   11.10
   4  -2  -6    3.60    6.30
   4  -2  -6   11.80    8.00
   4  -2  -6   -6.50    6.80
  -4   2   6    1.90    9.40
  -4   2   6    9.30    7.50
  -4   2   6   -6.90    6.80
  -4   2   6   10.40    7.30
  -4   2   6    8.20    8.60
   3  -2  -6  535.05   13.80
   3  -2  -6  558.34   13.40
   3  -2  -6  548.75   12.80
   3  -2  -6  548.55   14.10
   3  -2  -6  552.24   14.70
  -3   2   6  572.94   14.60
  -3   2   6  539.15   12.20
  -3   2   6  569.84   13.30
  -3   2   6  548.35   14.80
  -3   2   6  562.34   14.10
  -3   2   6  543.75   14.90
   2  -2  -6  465.35   10.70
   2  -2  -6  460.15   10.90
   2  -2  -6  494.95   11.10
   2  -2  -6  466.25   10.30
   2  -2  -6  490.35   11.10
  -2   2   6  469.65   11.30
  -2   2   6  460.55   10.20
  -2   2   6  476.95   10.90
  -2   2   6  460.65   11.50
  -2   2   6  461.65   10.30
  -2   2   6  480.75   11.40
  -2   2   6  477.65   11.20
   1  -2  -6  138.39    5.70
   1  -2  -6  134.19    5.10
   1  -2  -6  138.29    4.90
   1  -2  -6  134.89    4.80
   1  -2  -6  133.79    4.70
   1  -2  -6  130.59    4.80
  -1   2   6  139.09    5.00
  -1   2   6  137.39    4.60
  -1   2   6  129.89    5.20
  -1   2   6  141.19    5.30
  -1   2   6  135.49    4.70
  -1   2   6  140.29    5.20
  -1   2   6  140.59    4.20
   0  -2  -6 1224.78   21.60
   0  -2  -6 1202.88   22.40
   0  -2  -6 1222.58   21.70
   0  -2  -6 1230.68   22.60
   0   2   6 1217.58   22.30
   0   2   6 1211.58   22.30
   0   2   6 1202.68   21.70
   0   2   6 1229.68   22.10
   0   2   6 1196.38   22.10
   0   2   6 1200.88   21.80
   0   2   6 1242.68   22.70
  -1  -2  -6 1187.28   21.60
  -1  -2  -6 1183.58   21.80
  -1  -2  -6 1125.79   21.40
  -1  -2  -6 1160.98   21.70
  -1  -2  -6 1155.18   20.80
  -1  -2  -6 1178.98   20.90
   1   2   6 1152.98   21.40
   1   2   6 1157.28   21.70
   1   2   6 1144.69   21.70
   1   2   6 1160.78   21.20
   1   2   6 1154.58   22.00
   1   2   6 1160.08   21.20
  -2  -2  -6  426.06   10.30
  -2  -2  -6  410.36   10.20
  -2  -2  -6  399.36   10.70
  -2  -2  -6  405.16    9.10
  -2  -2  -6  414.76    9.40
  -2  -2  -6  416.36   10.60
   2   2   6  402.66   10.40
   2   2   6  406.16   10.80
   2   2   6  419.56    9.80
   2   2   6  396.56    9.70
   2   2   6  404.56   10.70
  -3  -2  -6   81.19    7.10
  -3  -2  -6   64.89    7.10
  -3  -2  -6   71.09    7.60
  -3  -2  -6   81.29    6.00
  -3  -2  -6   83.89    7.40
  -3  -2  -6   84.09    5.90
   3   2   6   80.19    8.50
   3   2   6   89.09    7.60
   3   2   6   92.99    7.90
   3   2   6   85.39    6.60
   3   2   6   70.29    6.80
  -4  -2  -6  229.18   11.80
  -4  -2  -6  248.68   10.40
  -4  -2  -6  236.28   12.90
  -4  -2  -6  235.28   11.40
  -4  -2  -6  250.87   11.20
  -4  -2  -6  204.48   11.80
   4   2   6  242.88   10.60
   4   2   6  228.48   10.70
   4   2   6  233.08   12.30
  -5  -2  -6   11.90    9.10
  -5  -2  -6   -4.20    8.80
  -5  -2  -6   -6.80    8.60
   5   2   6    8.70    8.60
   5   2   6    5.70    9.70
   5   2   6   -7.80   12.00
  -6  -2  -6    2.90   14.30
  -6  -2  -6   21.10   14.40
   6   2   6   18.70   11.70
   6   2   6   32.90   13.20
   6   2   6   14.80   14.80
   5  -3  -6    4.20    8.20
   5  -3  -6    2.40   10.00
  -5   3   6    7.20   11.80
  -5   3   6   -3.50   11.90
  -5   3   6    7.20   10.90
   4  -3  -6    7.90    6.70
   4  -3  -6    6.40    5.40
   4  -3  -6    2.40    8.00
  -4   3   6   -2.20    8.90
  -4   3   6   -1.70    9.70
  -4   3   6    2.70    7.60
  -4   3   6    0.20    6.40
   3  -3  -6   23.90    4.40
   3  -3  -6   26.60    5.40
   3  -3  -6   27.00    5.00
   3  -3  -6   20.70    4.90
   3  -3  -6   29.00    5.00
  -3   3   6   13.20    5.90
  -3   3   6   27.30    4.50
  -3   3   6   20.70    7.20
  -3   3   6   21.40    6.20
  -3   3   6   30.20    5.50
  -3   3   6   28.70    5.50
   2  -3  -6   79.19    4.30
   2  -3  -6   79.79    5.20
   2  -3  -6   78.29    5.30
  -2   3   6   81.29    4.50
  -2   3   6   82.69    5.50
  -2   3   6   76.69    6.10
  -2   3   6   74.09    6.50
  -2   3   6   74.49    5.90
  -2   3   6   72.09    4.50
   1  -3  -6  152.78    4.60
   1  -3  -6  158.18    5.40
   1  -3  -6  165.98    4.70
   1  -3  -6  164.98    5.70
  -1   3   6  148.69    5.30
  -1   3   6  159.08    4.40
  -1   3   6  160.08    6.10
  -1   3   6  163.98    5.40
  -1   3   6  156.68    4.90
  -1   3   6  154.38    5.20
   0  -3  -6  409.16    8.00
   0  -3  -6  397.46    8.20
   0  -3  -6  421.36    9.50
   0  -3  -6  418.96    8.40
   0  -3  -6  412.06    9.10
   0   3   6  410.06    9.10
   0   3   6  424.76    8.40
   0   3   6  406.96    9.00
   0   3   6  409.86    9.40
   0   3   6  403.36    8.30
   0   3   6  410.76    8.90
  -1  -3  -6  506.65   11.00
  -1  -3  -6  516.15   10.10
  -1  -3  -6  502.35   11.00
  -1  -3  -6  520.25   10.70
  -1  -3  -6  517.05   10.00
   1   3   6  511.95   10.50
   1   3   6  514.95   11.10
   1   3   6  511.55   11.00
   1   3   6  509.85   11.30
   1   3   6  527.45   10.50
  -2  -3  -6   15.50    3.40
  -2  -3  -6   13.00    2.90
  -2  -3  -6   10.50    3.40
  -2  -3  -6   16.10    2.80
   2   3   6   17.70    3.70
   2   3   6   13.90    3.80
   2   3   6    6.40    4.00
   2   3   6   13.90    3.10
   2   3   6   17.00    3.10
  -3  -3  -6   31.20    5.10
  -3  -3  -6   28.10    4.40
  -3  -3  -6   26.40    3.70
  -3  -3  -6   23.90    4.20
  -3  -3  -6   34.70    4.90
   3   3   6   30.00    5.60
   3   3   6   26.80    4.60
   3   3   6   26.00    6.20
   3   3   6   23.50    4.70
   3   3   6   32.80    5.30
  -4  -3  -6  241.38   11.80
  -4  -3  -6  229.08   10.20
  -4  -3  -6  224.88   11.40
  -4  -3  -6  229.58   12.20
   4   3   6  231.88   12.90
   4   3   6  238.48   11.10
   4   3   6  196.98   14.70
   4   3   6  225.28   10.70
  -5  -3  -6   74.99   10.40
  -5  -3  -6   58.89   10.60
  -5  -3  -6   81.19   10.40
   5   3   6   77.09   10.10
   5   3   6   77.49   12.90
  -6  -3  -6   -8.40   14.40
  -6  -3  -6    3.40   15.10
   6   3   6   11.00   12.90
   6   3   6   22.40   14.90
   6   3   6  -16.60   13.50
   5  -4  -6  -10.80   11.50
  -5   4   6   -6.00   12.70
  -5   4   6   11.50   10.80
  -5   4   6   17.00   12.50
   4  -4  -6   28.10    7.90
   4  -4  -6   35.60    5.60
  -4   4   6   11.70    6.80
  -4   4   6   16.90    9.00
  -4   4   6   17.00    8.40
  -4   4   6   19.60   10.10
   3  -4  -6   16.00    6.90
   3  -4  -6   18.70    5.40
   3  -4  -6   11.00    5.40
  -3   4   6    7.70    5.80
  -3   4   6   26.60    7.30
  -3   4   6   17.60    6.50
  -3   4   6   18.50    5.40
  -3   4   6   18.90    4.50
  -3   4   6    9.10    5.60
   2  -4  -6   10.40    3.40
   2  -4  -6   11.90    3.90
  -2   4   6   11.80    3.90
  -2   4   6   11.30    8.30
  -2   4   6   11.50    3.50
  -2   4   6    9.70    3.00
  -2   4   6   16.40    4.20
  -2   4   6   17.10    4.30
  -2   4   6   11.60    3.00
   1  -4  -6  240.88    7.00
   1  -4  -6  239.08    6.50
   1  -4  -6  257.37    6.10
  -1   4   6  234.68    5.60
  -1   4   6  239.38    7.30
  -1   4   6  250.57    6.50
  -1   4   6  238.58    7.40
  -1   4   6  241.78    6.40
  -1   4   6  255.07    6.20
  -1   4   6  239.78    6.50
   0  -4  -6 3492.95   60.59
   0  -4  -6 3530.05   59.89
   0  -4  -6 3465.45   59.39
   0   4   6 3435.26   60.59
   0   4   6 3567.24   59.99
   0   4   6 3483.25   59.89
   0   4   6 3471.05   59.49
   0   4   6 3422.56   59.49
  -1  -4  -6 1016.00   19.30
  -1  -4  -6 1003.00   18.10
  -1  -4  -6 1039.00   18.50
  -1  -4  -6 1023.80   19.40
   1   4   6 1013.80   19.60
   1   4   6 1007.60   19.30
   1   4   6 1052.29   18.80
   1   4   6 1004.30   18.90
   1   4   6 1031.20   19.50
   1   4   6 1022.40   19.60
  -2  -4  -6  166.28    7.30
  -2  -4  -6  183.08    6.60
  -2  -4  -6  171.28    6.70
  -2  -4  -6  180.28    6.00
  -2  -4  -6  172.78    5.50
   2   4   6  180.78    6.70
   2   4   6  176.28    8.70
   2   4   6  175.68    6.60
   2   4   6  181.58    7.50
   2   4   6  183.18    7.40
  -3  -4  -6  333.27   10.50
  -3  -4  -6  337.97   10.90
  -3  -4  -6  353.26   10.10
  -3  -4  -6  324.07    9.20
   3   4   6  332.57   11.60
   3   4   6  335.57   12.50
   3   4   6  334.27   10.50
   3   4   6  351.56   11.70
   3   4   6  336.27   10.70
  -4  -4  -6  571.74   15.20
  -4  -4  -6  607.04   16.80
  -4  -4  -6  601.44   17.10
  -4  -4  -6  595.64   16.70
   4   4   6  575.74   16.60
   4   4   6  570.74   18.20
   4   4   6  564.94   18.80
   4   4   6  610.24   18.40
  -5  -4  -6    4.20    9.30
  -5  -4  -6   -9.20    9.70
   5   4   6   10.80   10.00
   5   4   6  -10.20    9.80
   5   4   6  -11.30    9.20
   5   4   6   25.50   12.40
  -6  -4  -6   16.40   15.20
  -6  -4  -6  -11.30   15.30
   6   4   6   -2.50   14.50
   6   4   6  -10.10   15.80
   6   4   6    0.60   13.10
   5  -5  -6    1.40   11.50
  -5   5   6  -11.70   10.40
  -5   5   6  -21.30   13.20
  -5   5   6   -9.70   13.10
   4  -5  -6   21.00    7.40
   4  -5  -6   28.40    8.00
  -4   5   6   12.20    8.80
  -4   5   6    9.90    8.30
  -4   5   6   29.10   10.00
  -4   5   6   21.60    7.30
   3  -5  -6   16.90    5.20
  -3   5   6   12.10    6.20
  -3   5   6   19.40    5.50
  -3   5   6    6.60    5.90
   2  -5  -6   13.50    3.50
   2  -5  -6   10.90    3.90
   2  -5  -6   13.30    4.10
  -2   5   6    8.50    3.60
  -2   5   6   10.70    4.00
  -2   5   6   16.20    2.80
  -2   5   6    8.90    4.50
  -2   5   6    6.90    5.20
   1  -5  -6   94.39    4.30
   1  -5  -6   99.59    5.10
  -1   5   6   98.29    6.00
  -1   5   6  101.39    5.80
  -1   5   6   97.29    4.20
  -1   5   6   91.09    4.40
  -1   5   6  102.89    3.60
  -1   5   6  100.89    4.60
   0  -5  -6  543.85   11.80
   0  -5  -6  531.35   10.40
   0   5   6  516.95   10.70
   0   5   6  531.35   10.10
   0   5   6  538.05   10.10
   0   5   6  516.95   10.50
   0   5   6  534.15   11.60
   0   5   6  532.25   11.60
  -1  -5  -6    6.90    2.00
  -1  -5  -6    1.50    2.90
  -1  -5  -6    6.90    2.80
   1   5   6    7.70    2.30
   1   5   6    3.40    2.70
   1   5   6    4.80    3.00
   1   5   6    5.80    3.20
   1   5   6    5.20    3.20
   1   5   6    6.70    2.40
  -2  -5  -6   86.19    5.00
  -2  -5  -6   86.79    4.10
  -2  -5  -6   91.59    5.80
  -2  -5  -6   82.99    5.00
  -2  -5  -6   84.39    5.40
   2   5   6   84.49    5.70
   2   5   6   77.59    7.10
   2   5   6   87.49    6.50
   2   5   6   83.59    5.80
   2   5   6   75.59    7.80
   2   5   6   84.09    6.30
  -3  -5  -6 1237.88   24.60
  -3  -5  -6 1239.98   25.60
  -3  -5  -6 1199.98   23.50
  -3  -5  -6 1222.68   24.70
   3   5   6 1250.67   25.30
   3   5   6 1234.08   26.90
   3   5   6 1244.28   26.00
   3   5   6 1267.57   25.20
   3   5   6 1221.88   25.80
  -4  -5  -6   -5.10    6.70
  -4  -5  -6   -0.40    6.30
  -4  -5  -6    8.40    6.90
   4   5   6    4.00    9.80
   4   5   6   -6.30    8.90
   4   5   6    1.20    8.00
   4   5   6  -12.90    8.00
  -5  -5  -6   15.30   10.00
  -5  -5  -6    3.40   10.90
   5   5   6   17.70   10.00
   5   5   6    3.80   10.80
   5   5   6   -9.60   13.30
   5   5   6   12.90   10.40
  -6  -5  -6   11.10   14.20
   6   5   6   23.50   15.60
   6   5   6   19.00   16.60
  -5   6   6   -0.20   13.40
  -5   6   6   -8.70   12.60
   4  -6  -6    7.00    8.20
  -4   6   6    4.10    9.70
  -4   6   6   11.10   11.60
  -4   6   6    2.50    6.80
  -4   6   6   11.00    8.80
   3  -6  -6  130.09    9.00
  -3   6   6  129.69    6.70
  -3   6   6  117.69   10.10
  -3   6   6  156.28    8.80
  -3   6   6  129.09    9.00
  -3   6   6  141.29   10.70
  -3   6   6  138.49    9.40
   2  -6  -6    8.80    4.20
  -2   6   6    8.00    4.10
  -2   6   6    6.10    4.80
  -2   6   6    8.20    3.80
  -2   6   6    7.00    2.60
  -2   6   6    7.20    3.90
  -1   6   6   80.29    6.30
  -1   6   6   79.89    6.60
   0   6   6  585.24   10.90
   0   6   6  579.34   11.20
   0   6   6  589.04   13.10
   0   6   6  570.74   12.70
  -1  -6  -6   46.00    3.90
  -1  -6  -6   35.80    3.00
  -1  -6  -6   39.40    3.50
   1   6   6   36.10    3.80
   1   6   6   43.00    3.70
   1   6   6   39.20    4.30
   1   6   6   39.50    4.00
   1   6   6   42.70    3.20
  -2  -6  -6   35.60    3.50
  -2  -6  -6   32.10    3.30
  -2  -6  -6   29.10    4.40
  -2  -6  -6   48.30    4.20
  -2  -6  -6   32.90    2.60
   2   6   6   34.10    4.20
   2   6   6   20.30    4.60
   2   6   6   37.90    5.70
   2   6   6   28.00    4.10
   2   6   6   40.10    4.90
   2   6   6   38.30    4.70
  -3  -6  -6  270.57   10.90
  -3  -6  -6  240.98    8.80
  -3  -6  -6  277.47    9.50
  -3  -6  -6  235.08    9.20
   3   6   6  275.37   11.90
   3   6   6  273.17   10.50
   3   6   6  277.27   10.40
   3   6   6  254.27   13.00
   3   6   6  248.48   11.70
  -4  -6  -6   16.20    7.00
  -4  -6  -6   29.40    8.00
   4   6   6   17.80    7.90
   4   6   6   18.50    8.40
   4   6   6   18.60    8.20
   4   6   6   17.80    8.00
  -5  -6  -6    8.70   10.30
  -5  -6  -6   28.20   10.90
  -5  -6  -6   27.80   10.80
   5   6   6   13.60   10.90
   5   6   6   -6.20   10.90
   5   6   6    1.60   10.60
   4  -7  -6    4.80    9.10
  -4   7   6    8.00    9.90
  -4   7   6    8.00    9.90
  -4   7   6   17.60   11.20
  -4   7   6    1.20   10.70
  -4   7   6    4.60    6.80
   3  -7  -6   -3.60    6.20
  -3   7   6   -0.20    7.10
  -3   7   6   12.40    6.40
  -3   7   6    5.10    6.70
  -3   7   6    7.10    4.40
  -3   7   6    4.40    5.80
  -3   7   6   13.10    6.90
   2  -7  -6    2.20    4.80
  -2   7   6    8.30    3.50
  -2   7   6    2.60    6.90
  -2   7   6    9.00    4.10
  -2   7   6    2.50    5.10
  -2   7   6    7.30    2.50
  -2   7   6   11.90    4.00
  -2   7   6    4.50    4.50
  -1   7   6  379.46    9.40
  -1   7   6  378.76   10.50
  -1   7   6  377.36   11.80
   0   7   6  113.59    6.10
   0   7   6  117.19    6.70
  -1  -7  -6   67.79    4.40
  -1  -7  -6   61.99    5.50
  -1  -7  -6   55.79    3.20
   1   7   6   59.99    4.40
   1   7   6   56.49    5.10
   1   7   6   55.09    5.90
   1   7   6   63.09    4.70
   1   7   6   61.79    5.30
  -2  -7  -6  335.67   10.10
  -2  -7  -6  344.97    9.30
  -2  -7  -6  348.87    9.20
   2   7   6  343.57   10.90
   2   7   6  341.27   10.30
   2   7   6  349.17   10.30
   2   7   6  344.77   10.60
   2   7   6  366.56   12.40
   2   7   6  366.06   10.30
  -3  -7  -6  837.02   19.60
  -3  -7  -6  866.41   17.50
  -3  -7  -6  818.42   16.80
   3   7   6  863.11   19.60
   3   7   6  825.72   20.40
   3   7   6  798.62   20.60
   3   7   6  829.42   22.10
  -4  -7  -6  279.07   14.00
  -4  -7  -6  283.67   12.20
   4   7   6  284.77   15.00
   4   7   6  270.67   16.40
   4   7   6  263.37   14.40
   4   7   6  282.07   14.00
  -5  -7  -6   22.80   10.80
   5   7   6   22.30   12.30
   5   7   6    4.60   12.70
   5   7   6   -2.80   12.50
   4  -8  -6    6.90   10.40
  -4   8   6    6.80    7.10
  -4   8   6   11.50   11.20
  -4   8   6   -6.90   11.90
   3  -8  -6    4.40    7.40
  -3   8   6    8.30    4.20
  -3   8   6    1.30    7.40
  -3   8   6   -4.40    8.50
  -3   8   6    3.70    6.60
  -3   8   6   12.30    5.70
  -3   8   6   -4.40    7.70
   2  -8  -6   64.19    6.70
  -2   8   6   63.79    6.80
  -2   8   6   63.39    6.70
  -2   8   6   69.49    6.80
  -2   8   6   64.99    6.30
  -2   8   6   54.29    9.50
  -1   8   6   82.79    6.80
  -1   8   6   70.59    6.70
  -1   8   6   67.89    6.20
  -1   8   6   67.09    5.40
   0   8   6   19.70    5.10
   0   8   6   20.50    4.50
   0   8   6   14.90    4.10
   1   8   6  292.87    8.40
   1   8   6  309.17    8.00
   1   8   6  315.07    8.20
   1   8   6  292.77    8.80
   1   8   6  315.67    9.30
   1   8   6  296.27    9.70
  -2  -8  -6  118.09    6.30
  -2  -8  -6  141.59    6.70
  -2  -8  -6  130.79    7.40
   2   8   6  142.09   10.30
   2   8   6  142.59    7.90
   2   8   6  133.39    8.80
   2   8   6  114.79    8.40
   2   8   6  126.89    7.80
   2   8   6  126.19    9.00
  -3  -8  -6   89.89    8.80
   3   8   6   75.89    7.60
   3   8   6   82.09    8.80
   3   8   6   80.89    8.70
   3   8   6   79.09   10.50
   3   8   6   70.49    8.20
   3   8   6   69.09    7.40
  -4  -8  -6    5.80    6.50
   4   8   6    7.10    8.80
   4   8   6   -3.80    9.30
   4   8   6   24.20    9.60
   4   8   6    9.60   10.50
  -5  -8  -6   11.90   10.70
   5   8   6   15.60   14.20
   5   8   6  -22.20   14.40
   5   8   6    0.70   13.30
   4  -9  -6  -25.90   11.30
  -4   9   6    5.50    7.20
  -4   9   6   26.10   13.50
   3  -9  -6   -2.00    8.00
  -3   9   6   -0.80    8.60
  -3   9   6    1.10    9.00
  -3   9   6    6.70    7.40
  -3   9   6   21.00    8.50
  -2   9   6   23.90    5.50
  -2   9   6   28.10    6.80
  -1   9   6    6.50    7.90
  -1   9   6   16.00    5.80
  -1   9   6    9.80    6.20
  -1   9   6   15.90    5.60
   0   9   6    3.10    5.60
   0   9   6    1.90    4.60
   0   9   6   -0.80    6.00
   0   9   6    0.80    5.50
   1   9   6   56.89    5.10
   1   9   6   56.49    4.50
   1   9   6   62.29    6.80
   1   9   6   74.79    7.70
   1   9   6   57.79    6.40
   2   9   6   -2.30    5.70
   2   9   6    1.60    5.50
   2   9   6   -2.00    5.50
   2   9   6   -0.40    6.10
   2   9   6   17.70    7.20
   2   9   6   -3.70    6.10
  -3  -9  -6   24.20    7.20
   3   9   6   13.30    7.30
   3   9   6   40.70    7.90
   3   9   6   50.29    9.40
   3   9   6   10.20    8.80
   3   9   6   33.90    8.00
  -4  -9  -6   38.80    6.60
   4   9   6   38.00   12.30
   4   9   6   43.60   11.10
   4   9   6   47.70   10.80
   5   9   6    5.50   15.10
   5   9   6   18.20   14.90
   5   9   6   13.40   15.90
   3 -10  -6    5.00    9.60
  -3  10   6    6.90   10.10
  -3  10   6  -21.80   10.30
  -2  10   6   10.10    6.40
  -2  10   6    8.20    8.30
  -2  10   6   15.80    8.20
  -1  10   6   13.20    5.80
  -1  10   6   28.40    6.90
  -1  10   6   20.40    7.30
  -1  10   6   18.90   10.90
   0  10   6   22.50    7.50
   0  10   6    7.40    6.60
   0  10   6    2.70    5.10
   0  10   6    7.80    7.60
   1  10   6   -4.30    4.80
   1  10   6    4.90    5.80
   1  10   6   -5.40    7.30
   1  10   6   -0.20    5.60
   2  10   6    4.00    6.50
   2  10   6   -1.50    6.80
   2  10   6    3.90    8.10
   2  10   6    6.70    6.90
   2  10   6   -8.90    5.70
   3  10   6   10.30    8.10
   3  10   6   -5.40   10.80
   3  10   6   -2.20   10.10
   3  10   6   14.60    9.50
   4  10   6   -7.90   12.10
   4  10   6   -9.50   12.70
   4  10   6   12.80   11.40
  -3  11   6   25.20   12.30
  -2  11   6   38.30   10.30
  -2  11   6   27.80    9.10
  -1  11   6   15.90    8.20
  -1  11   6    8.20    8.20
  -1  11   6    0.70    6.50
   0  11   6   11.40    6.30
   0  11   6   13.00    9.90
   0  11   6   32.30    8.60
   1  11   6    0.80    6.50
   1  11   6    6.00    8.90
   1  11   6   -5.30    9.00
   2  11   6   11.10    6.20
   2  11   6   16.00   10.70
   2  11   6   15.10    8.60
   2  11   6   18.00    7.60
   2  11   6   16.70    7.30
   3  11   6   31.40   10.00
   3  11   6    7.00    9.20
   3  11   6  -10.40   11.30
   4  11   6   28.00   14.80
   4  11   6   -0.40   13.70
   4  11   6    6.30   17.00
  -2  12   6    5.50   11.60
  -2  12   6   -9.30   10.20
  -1  12   6    6.30   10.30
  -1  12   6    5.00    8.20
  -1  12   6   -7.60    9.80
   0  12   6   10.40    7.60
   0  12   6   23.10   10.80
   0  12   6    9.70    9.10
   1  12   6    5.60    7.20
   1  12   6   -0.70   10.30
   2  12   6   10.50   12.60
   2  12   6    2.40    9.30
   3  12   6  -23.90   10.30
   3  12   6   24.20   15.10
   3  12   6   -8.20   11.90
  -1  13   6    7.90   12.40
  -1  13   6   -8.20   11.40
  -1  13   6   19.40   10.10
   0  13   6    4.90   12.20
   0  13   6   -9.40   12.60
   1  13   6   47.70   13.00
   1  13   6   22.50   13.30
   2  13   6   -4.00   13.90
   0  14   6  -22.20   14.90
   0  14   6  -39.70   16.00
   1  14   6   -2.40   16.20
   1  14   6    8.40   16.00
   1  12  -7    8.10   14.80
   0  12  -7   -3.10   13.90
   0  12  -7   -1.90   13.10
   0  12  -7   -8.20   14.30
   0  12  -7    5.70   16.00
  -1  12  -7   16.50   14.10
  -1  12  -7   18.20   12.70
   2  11  -7   37.70   16.10
   2  11  -7   19.20   15.30
   2  11  -7   -4.50   15.20
   2  11  -7    6.70   17.20
   1  11  -7  -35.10   14.90
   1  11  -7   13.30   12.60
   1  11  -7   -6.30   12.40
   1  11  -7    8.20   11.80
   0  11  -7    4.00   10.80
   0  11  -7   11.10   10.90
   0  11  -7   10.70   10.20
   0  11  -7   21.40   13.80
  -1  11  -7   10.60   14.60
  -1  11  -7   10.80   10.80
  -1  11  -7   11.70   11.60
  -1  11  -7   10.20   10.30
  -2  11  -7    2.00   11.20
  -2  11  -7   27.70   14.20
  -2  11  -7   -2.40   10.60
  -2  11  -7    8.20   16.50
  -3  11  -7   -2.30   15.50
  -3  11  -7    4.40   17.00
   3  10  -7    5.10   16.70
   3  10  -7  -11.70   16.50
  -3 -10   7   -7.80   11.00
   2  10  -7   -2.10   12.50
   2  10  -7    4.90   11.30
   2  10  -7    7.30   12.50
   2  10  -7   -1.40   14.10
   1  10  -7   23.60   10.10
   1  10  -7   14.70   10.40
   1  10  -7    7.60   12.90
   1  10  -7  -10.30   10.10
  -1 -10   7    2.20    6.20
   0  10  -7   57.39   10.00
   0  10  -7   59.59   10.10
   0  10  -7   71.49   10.00
   0  10  -7   68.49    9.90
   0  10  -7   68.29   12.70
   0 -10   7   61.99    6.30
  -1  10  -7   64.49   11.90
  -1  10  -7   55.29    9.30
  -1  10  -7   62.09   10.10
  -1  10  -7   58.19    9.70
  -1  10  -7   47.40    9.00
  -1  10  -7   56.89    9.80
  -2  10  -7    4.10   12.20
  -2  10  -7    2.10    9.80
  -2  10  -7    3.80    8.90
  -2  10  -7   -9.80   10.80
  -2  10  -7  -36.10   11.90
  -3  10  -7    6.60   17.10
  -3  10  -7   25.20   12.50
  -3  10  -7   24.10   10.30
  -3  10  -7   28.90   14.40
   3   9  -7   -8.90   13.90
   3   9  -7  -28.30   11.90
   3   9  -7   -1.80   13.30
  -3  -9   7   -8.30    9.70
   2   9  -7    0.90    9.70
   2   9  -7   15.70   10.30
   2   9  -7   18.40   10.60
   2   9  -7   15.50    9.70
  -2  -9   7   26.90    8.30
   1   9  -7   22.70    9.10
   1   9  -7   23.10    8.90
   1   9  -7   27.20    8.10
   1   9  -7   11.40    7.90
  -1  -9   7   24.30    6.00
  -1  -9   7   18.00    7.40
   0   9  -7  259.47   13.30
   0   9  -7  230.88   11.20
   0   9  -7  272.67   12.60
   0   9  -7  234.88   13.00
   0   9  -7  270.97   12.90
   0   9  -7  253.67   13.80
   0   9  -7  266.77   14.70
   0  -9   7  276.57    9.90
   0  -9   7  256.87   11.00
  -1   9  -7   40.50    8.10
  -1   9  -7   35.60   10.40
  -1   9  -7   31.80    7.50
  -1   9  -7   32.60    8.50
  -1   9  -7   43.60    7.40
  -1   9  -7   33.80    7.80
   1  -9   7   40.80    5.70
  -2   9  -7    4.20    9.70
  -2   9  -7   14.50    8.90
  -2   9  -7   -8.90    7.00
  -2   9  -7    5.50    9.70
  -2   9  -7   11.50   11.20
  -3   9  -7   20.70   13.40
  -3   9  -7   -2.60   11.00
  -3   9  -7    8.20   10.40
   3  -9   7   16.10    7.20
   3  -9   7   33.30   11.10
  -4   9  -7   18.50   15.30
  -4   9  -7   -7.30   13.30
  -4   9  -7  -14.80   18.70
   4  -9   7  -12.90   10.60
   4   8  -7   12.50   14.10
   4   8  -7   24.10   16.90
  -4  -8   7   18.30   13.10
   3   8  -7    6.30   11.20
   3   8  -7    4.80   11.20
   3   8  -7   -6.80   11.10
  -3  -8   7   21.20    8.70
  -3  -8   7    6.90    9.70
   2   8  -7   70.99   11.20
   2   8  -7   69.89    9.00
   2   8  -7   63.79    9.30
   2   8  -7   80.59   10.20
  -2  -8   7   42.50   12.90
  -2  -8   7   73.49    8.00
  -2  -8   7   76.29    9.90
   1   8  -7  355.96   14.70
   1   8  -7  354.56   14.50
   1   8  -7  349.77   14.80
   1   8  -7  369.26   13.50
   1   8  -7  369.86   14.20
   1   8  -7  373.66   13.80
  -1  -8   7  380.36   11.50
  -1  -8   7  355.86   11.70
   0   8  -7   94.19    9.00
   0   8  -7   79.99    8.20
   0   8  -7  115.89    9.60
   0   8  -7   99.59    9.40
   0   8  -7   95.09    8.40
   0   8  -7  110.09    9.60
   0  -8   7   92.49    7.30
  -1   8  -7    2.20    6.10
  -1   8  -7    8.20    6.80
  -1   8  -7    2.70    6.20
  -1   8  -7  -10.00    5.70
  -1   8  -7   -6.20    7.10
  -1   8  -7   14.70    8.30
  -1   8  -7   -4.90    6.70
   1  -8   7    3.30    4.90
   1  -8   7   13.00    5.80
   1  -8   7   -0.50    7.40
  -2   8  -7    1.30    6.50
  -2   8  -7   -3.60    8.70
  -2   8  -7   -2.40    7.20
  -2   8  -7   -4.80    9.90
  -2   8  -7   -5.00    7.20
  -2   8  -7    1.40    5.80
   2  -8   7   -0.30    5.20
   2  -8   7   10.80    6.50
  -3   8  -7   -1.70    8.40
  -3   8  -7    7.00    7.50
  -3   8  -7  -13.80    9.70
  -3   8  -7   24.50   12.10
   3  -8   7    0.60    8.10
   3  -8   7    5.30    6.40
   3  -8   7   -3.20    6.10
  -4   8  -7   10.40   12.10
  -4   8  -7  -10.90   12.80
  -4   8  -7   29.60   16.90
   4  -8   7    4.40    9.00
   4   7  -7   22.50   12.90
   4   7  -7    6.80   12.60
   4   7  -7    5.70   14.60
  -4  -7   7   19.40   11.20
  -4  -7   7   -2.70   12.00
   3   7  -7   23.90    9.90
   3   7  -7   15.50   10.20
   3   7  -7   10.70   13.00
   3   7  -7    7.80    9.10
  -3  -7   7   15.80    8.10
  -3  -7   7   16.40    6.40
  -3  -7   7   22.00    7.50
   2   7  -7    4.10    7.60
   2   7  -7    8.70    7.30
   2   7  -7    9.20    9.10
   2   7  -7   12.10    7.20
  -2  -7   7   15.40    6.10
  -2  -7   7    9.00    7.40
  -2  -7   7   13.80    9.50
  -2  -7   7   13.00    6.10
  -2  -7   7   13.80    5.30
   1   7  -7  397.96   10.90
   1   7  -7  386.96   14.50
   1   7  -7  429.76   13.10
   1   7  -7  400.66   13.70
   1   7  -7  395.96   13.50
   1   7  -7  417.26   14.60
  -1  -7   7  410.86   11.10
  -1  -7   7  424.16   11.60
  -1  -7   7  418.36   12.00
  -1  -7   7  397.56   15.30
  -1  -7   7  381.06   12.80
   0   7  -7   39.80    6.50
   0   7  -7   22.80    5.80
   0   7  -7   39.00    6.40
   0   7  -7   30.00    6.00
   0   7  -7   39.70    7.50
   0   7  -7   20.30    6.00
   0   7  -7   31.80    5.70
   0  -7   7   25.00    7.60
   0  -7   7   37.30    4.80
   0  -7   7   32.20    5.20
   0  -7   7   37.10    5.20
   0  -7   7   26.40    7.00
  -1   7  -7    7.80    6.50
  -1   7  -7   31.20    6.20
  -1   7  -7   26.40    5.30
  -1   7  -7   25.40    5.10
  -1   7  -7   24.40    6.00
  -1   7  -7   25.10    7.50
  -1   7  -7   16.90    5.40
   1  -7   7   20.70    5.90
   1  -7   7   12.00    6.00
   1  -7   7   19.70    4.50
   1  -7   7   11.00    6.10
  -2   7  -7  556.44   15.90
  -2   7  -7  551.04   13.80
  -2   7  -7  557.04   17.10
  -2   7  -7  566.94   17.30
  -2   7  -7  572.44   14.50
  -2   7  -7  530.35   14.80
  -2   7  -7  533.95   15.90
   2  -7   7  545.25   12.40
   2  -7   7  607.64   14.10
   2  -7   7  566.94   14.90
  -3   7  -7   55.59   11.20
  -3   7  -7   40.90   11.00
  -3   7  -7   85.59    9.80
  -3   7  -7   50.59    8.30
  -3   7  -7   55.69    8.80
  -3   7  -7   36.30    6.60
   3  -7   7   53.99    6.60
   3  -7   7   43.90    6.50
   3  -7   7   40.10    7.70
  -4   7  -7   -4.00   10.40
  -4   7  -7   19.40   12.00
  -4   7  -7  -20.70   14.40
   4  -7   7    4.00    7.50
   4  -7   7   -3.90    8.20
  -5   7  -7   36.00   19.00
   5  -7   7   25.80   12.20
   4   6  -7   15.30   19.40
   4   6  -7    9.70   10.90
   4   6  -7    0.60    7.40
   4   6  -7   10.00   11.40
   4   6  -7    3.70   12.90
  -4  -6   7    6.20    8.50
  -4  -6   7    2.20   10.50
  -4  -6   7    6.80   10.20
   3   6  -7   34.70    9.70
   3   6  -7   27.80    8.50
   3   6  -7   16.60   11.00
   3   6  -7   23.00    8.10
  -3  -6   7   19.80    5.90
  -3  -6   7   22.10    7.60
  -3  -6   7   26.80    7.90
   2   6  -7   98.39    8.60
   2   6  -7  113.89    9.20
  -2  -6   7   85.89    9.40
  -2  -6   7  108.39    7.60
  -2  -6   7  101.39    8.90
  -2  -6   7  108.79    9.20
  -2  -6   7  103.39    7.80
  -2  -6   7   97.39    8.30
   1   6  -7  914.61   18.50
   1   6  -7  913.11   20.20
   1   6  -7  925.41   20.70
   1   6  -7  937.41   20.10
   1   6  -7  913.31   20.30
   1   6  -7  955.30   20.90
   1   6  -7  855.11   20.20
  -1  -6   7  888.91   20.90
  -1  -6   7  934.41   19.00
  -1  -6   7  922.81   19.00
  -1  -6   7  926.91   20.00
  -1  -6   7  926.91   18.80
   0   6  -7  793.72   17.00
   0   6  -7  785.52   17.60
   0   6  -7  787.32   18.50
   0   6  -7  788.22   16.30
   0   6  -7  768.92   17.00
   0   6  -7  803.72   17.60
   0   6  -7  755.02   18.00
   0  -6   7  798.42   16.30
   0  -6   7  778.32   18.40
   0  -6   7  798.32   16.40
   0  -6   7  783.12   17.80
   0  -6   7  803.02   17.40
   0  -6   7  811.72   17.00
  -1   6  -7  195.28    7.90
  -1   6  -7  188.98    9.60
  -1   6  -7  181.88    9.10
  -1   6  -7  172.78    8.50
  -1   6  -7  191.08    7.90
  -1   6  -7  196.38    8.30
  -1   6  -7  192.68    9.60
   1  -6   7  187.58    7.90
   1  -6   7  190.88    7.80
   1  -6   7  186.78    7.80
   1  -6   7  186.08    9.40
   1  -6   7  177.28    9.00
  -2   6  -7   22.80    6.40
  -2   6  -7   18.40    6.60
  -2   6  -7   35.40    5.40
  -2   6  -7   30.50    7.20
  -2   6  -7   33.90    5.20
  -2   6  -7   31.00    4.90
  -2   6  -7   39.70    7.70
   2  -6   7   46.50    5.50
   2  -6   7   31.10    5.10
   2  -6   7   22.90    5.70
   2  -6   7   29.20    6.70
   2  -6   7   33.70    4.40
  -3   6  -7   40.00    9.70
  -3   6  -7   21.20    7.30
  -3   6  -7   31.80    6.00
  -3   6  -7   42.20    9.70
  -3   6  -7   37.60    7.60
   3  -6   7   33.60    5.90
   3  -6   7   35.60    7.10
   3  -6   7   34.50    6.50
  -4   6  -7   14.40    8.20
  -4   6  -7   20.30    9.60
  -4   6  -7    5.30   11.20
  -4   6  -7    1.20    9.80
   4  -6   7   -2.70    9.20
   4  -6   7   24.70    8.80
   4  -6   7   19.80    7.70
  -5   6  -7  -25.90   17.70
  -5   6  -7   13.80   16.10
  -5   6  -7    3.70   14.10
   5  -6   7   10.50   11.60
   5  -6   7    4.30   10.60
   5   5  -7  -17.90   18.30
   5   5  -7  -17.70   13.50
   5   5  -7    5.80   19.70
  -5  -5   7   15.40   14.70
   4   5  -7   -0.20    9.60
   4   5  -7   23.00   10.20
   4   5  -7   -3.40    7.30
   4   5  -7    6.40   15.70
   4   5  -7   30.90   12.20
  -4  -5   7   24.10    7.90
  -4  -5   7   19.00    9.40
  -4  -5   7   25.30    9.40
   3   5  -7   -2.60    7.00
   3   5  -7   15.60    9.70
   3   5  -7   19.90    6.90
   3   5  -7    1.10    4.60
   3   5  -7    2.10    8.30
  -3  -5   7   -3.60    6.70
  -3  -5   7   -3.30   10.10
  -3  -5   7    7.10    6.80
  -3  -5   7   -6.10   10.60
  -3  -5   7    2.80    5.90
   2   5  -7  178.88   10.20
   2   5  -7  167.98    9.40
   2   5  -7  168.68    9.30
   2   5  -7  155.48   10.20
  -2  -5   7  179.88    8.70
  -2  -5   7  176.08    7.80
  -2  -5   7  158.08   10.30
  -2  -5   7  162.68    8.40
  -2  -5   7  164.28   11.40
  -2  -5   7  173.58   11.50
   1   5  -7   24.00    5.20
   1   5  -7    7.60    4.90
   1   5  -7   21.40    5.40
   1   5  -7   12.40    5.90
   1   5  -7   15.60    5.90
   1   5  -7   16.70    4.40
   1   5  -7   12.70    5.00
  -1  -5   7   27.30    5.80
  -1  -5   7   23.90    5.60
  -1  -5   7   15.70    5.50
  -1  -5   7   15.50    4.40
  -1  -5   7   27.10    4.60
  -1  -5   7   12.20    4.10
   0   5  -7  538.75   12.90
   0   5  -7  526.35   12.40
   0   5  -7  544.45   13.80
   0   5  -7  541.85   12.10
   0   5  -7  536.75   13.10
   0   5  -7  530.25   13.70
   0   5  -7  528.65   12.50
   0  -5   7  541.75   12.10
   0  -5   7  533.75   12.80
   0  -5   7  530.05   13.60
   0  -5   7  518.75   11.90
   0  -5   7  520.95   12.50
   0  -5   7  524.45   13.30
  -1   5  -7   51.69    5.80
  -1   5  -7   64.39    6.00
  -1   5  -7   59.09    5.80
  -1   5  -7   50.49    5.50
  -1   5  -7   52.99    5.20
  -1   5  -7   56.89    4.50
  -1   5  -7   57.09    5.20
   1  -5   7   53.79    4.60
   1  -5   7   53.79    4.60
   1  -5   7   52.49    5.70
   1  -5   7   53.49    5.80
   1  -5   7   52.89    4.50
   1  -5   7   51.69    5.90
  -2   5  -7   53.19    5.10
  -2   5  -7   56.29    7.20
  -2   5  -7   45.70    4.90
  -2   5  -7   43.70    6.30
  -2   5  -7   43.40    4.80
  -2   5  -7   48.70    6.10
  -2   5  -7   42.20    6.20
   2  -5   7   34.80    5.30
   2  -5   7   38.70    5.30
   2  -5   7   46.20    5.00
   2  -5   7   38.90    6.50
   2  -5   7   42.10    6.50
  -3   5  -7  194.68   10.30
  -3   5  -7  178.48   12.70
  -3   5  -7  191.18    9.10
  -3   5  -7  197.48    9.90
  -3   5  -7  193.58   11.30
   3  -5   7  184.48    9.50
   3  -5   7  183.08   13.20
   3  -5   7  181.08    9.80
   3  -5   7  235.28   10.00
  -4   5  -7    7.60   11.20
  -4   5  -7   -3.80    8.70
  -4   5  -7   -0.30    8.70
  -4   5  -7  -16.40    7.10
   4  -5   7   -0.70    7.30
   4  -5   7   -5.30    8.50
  -5   5  -7   19.40   12.90
  -5   5  -7    4.50   13.40
  -5   5  -7   15.50   16.80
   5  -5   7   14.00   11.20
   5  -5   7    8.90    9.70
   5   4  -7    3.10   13.70
   5   4  -7    9.70   11.50
   5   4  -7    0.00   16.60
   5   4  -7   -3.30   11.40
  -5  -4   7  -10.60   13.20
  -5  -4   7   14.60   13.20
  -5  -4   7   12.70   11.50
   4   4  -7  -20.60   14.40
   4   4  -7   11.80   10.90
   4   4  -7   -5.20    6.80
   4   4  -7    5.10    9.30
   4   4  -7   20.80    8.70
  -4  -4   7    5.90   14.60
  -4  -4   7    1.50    7.50
  -4  -4   7   15.90    9.00
   3   4  -7  136.59    7.30
   3   4  -7  136.89    9.60
   3   4  -7  128.69   10.00
   3   4  -7  121.59   10.90
   3   4  -7  133.09   11.10
  -3  -4   7  140.29    8.60
  -3  -4   7  155.18    9.60
  -3  -4   7  124.39   12.90
  -3  -4   7  127.49   10.80
  -3  -4   7  139.89    9.50
   2   4  -7   36.00    5.50
   2   4  -7   29.60    6.00
   2   4  -7   30.80    5.50
   2   4  -7   29.90    3.20
   2   4  -7   37.40    6.10
  -2  -4   7   38.20    6.40
  -2  -4   7   36.40    5.00
  -2  -4   7   26.50    5.00
  -2  -4   7   23.30    6.70
  -2  -4   7   20.00    6.80
  -2  -4   7   48.40    5.20
   1   4  -7  271.17    9.10
   1   4  -7  277.77    9.00
   1   4  -7  280.77    9.30
   1   4  -7  277.77    9.30
   1   4  -7  275.07    8.70
   1   4  -7  271.47    8.80
   1   4  -7  269.97    8.10
  -1  -4   7  275.97    8.20
  -1  -4   7  276.77    7.90
  -1  -4   7  277.47    9.00
  -1  -4   7  273.87    9.60
  -1  -4   7  273.67    8.40
  -1  -4   7  280.17    9.90
   0   4  -7   90.89    6.40
   0   4  -7   96.09    5.70
   0   4  -7   87.29    6.30
   0   4  -7  101.39    6.60
   0   4  -7   94.09    5.80
   0   4  -7   90.09    5.30
   0   4  -7   94.89    5.70
   0  -4   7   83.59    5.10
   0  -4   7   89.59    6.30
   0  -4   7   83.39    6.10
   0  -4   7   87.99    6.10
   0  -4   7   88.29    6.30
   0  -4   7   89.29    5.30
  -1   4  -7  475.15   12.50
  -1   4  -7  483.05   12.70
  -1   4  -7  483.75   11.10
  -1   4  -7  476.25   12.00
  -1   4  -7  486.25   10.90
  -1   4  -7  482.35   12.10
  -1   4  -7  488.05   11.50
   1  -4   7  486.85   12.50
   1  -4   7  474.15   12.40
   1  -4   7  497.05   11.80
   1  -4   7  457.75   10.90
   1  -4   7  491.35   11.20
   1  -4   7  482.35   12.40
   1  -4   7  462.75   11.40
  -2   4  -7  136.19    6.70
  -2   4  -7  127.99    8.60
  -2   4  -7  113.69    6.60
  -2   4  -7  130.09    9.10
  -2   4  -7  129.69    8.20
  -2   4  -7  134.19    9.00
   2  -4   7  128.79    7.10
   2  -4   7  124.99    8.30
   2  -4   7  123.29    6.70
   2  -4   7  123.29    8.70
   2  -4   7  128.29    7.40
  -3   4  -7   23.00    6.80
  -3   4  -7   35.90    6.70
  -3   4  -7   21.80    5.00
  -3   4  -7   25.00    7.50
  -3   4  -7   21.20    5.30
  -3   4  -7   21.10    6.40
   3  -4   7   18.40    5.40
   3  -4   7   19.40    5.90
   3  -4   7   24.30    8.20
   3  -4   7   26.60    5.70
  -4   4  -7   78.09    7.50
  -4   4  -7   62.39    8.80
  -4   4  -7   72.39   10.90
  -4   4  -7   73.39    9.20
   4  -4   7   82.09    9.00
   4  -4   7   81.69    8.30
   4  -4   7   81.99    8.80
  -5   4  -7   15.40   14.80
  -5   4  -7   19.40   11.70
  -5   4  -7   -8.60   11.70
   5  -4   7   11.60   10.00
   5  -4   7  -11.10   12.00
   5  -4   7   -0.30   10.00
   5   3  -7   28.00   10.60
   5   3  -7    9.50   12.30
   5   3  -7  -23.30   17.50
   5   3  -7    5.70   10.10
  -5  -3   7   14.90   12.60
  -5  -3   7   -3.00   10.60
  -5  -3   7   14.30   12.80
   4   3  -7   16.00    7.60
   4   3  -7   -0.70    9.70
   4   3  -7   24.60   10.90
   4   3  -7   29.00   13.50
   4   3  -7   19.60    7.10
   4   3  -7   12.00    8.60
  -4  -3   7   12.00   13.60
  -4  -3   7   15.10    7.50
  -4  -3   7   21.10   13.00
  -4  -3   7   18.30    8.30
   3   3  -7   11.10    5.60
   3   3  -7    8.60    8.50
   3   3  -7   14.30    6.70
   3   3  -7   22.30    4.70
  -3  -3   7   17.80    6.10
  -3  -3   7   26.80    8.20
  -3  -3   7    8.20    6.70
  -3  -3   7    2.90    8.10
  -3  -3   7   19.00    5.30
   2   3  -7   58.79    6.40
   2   3  -7   78.99    7.70
   2   3  -7   66.29    6.90
   2   3  -7   67.29    6.20
   2   3  -7   72.09    5.00
   2   3  -7   68.39    6.60
  -2  -3   7   71.99    6.40
  -2  -3   7   70.39    7.00
  -2  -3   7   73.49    6.40
  -2  -3   7   77.09    6.30
  -2  -3   7   69.29    6.30
  -2  -3   7   65.79    6.10
   1   3  -7   17.80    4.10
   1   3  -7   23.30    4.00
   1   3  -7   23.50    4.10
   1   3  -7   15.50    3.80
   1   3  -7   13.40    4.30
   1   3  -7   15.60    4.10
   1   3  -7   16.30    4.80
  -1  -3   7   16.50    3.60
  -1  -3   7   18.00    4.50
  -1  -3   7   21.30    3.30
  -1  -3   7   14.30    4.20
  -1  -3   7   20.80    3.50
   0   3  -7  293.47    8.20
   0   3  -7  301.97    8.00
   0   3  -7  295.97    8.70
   0   3  -7  297.57    8.30
   0   3  -7  306.47    9.00
   0   3  -7  293.77    8.60
   0   3  -7  290.97    7.80
   0  -3   7  300.57    7.60
   0  -3   7  293.47    8.60
   0  -3   7  298.27    8.30
   0  -3   7  286.87    8.50
   0  -3   7  288.97    8.50
   0  -3   7  293.67    7.70
  -1   3  -7  115.69    6.60
  -1   3  -7  113.59    6.70
  -1   3  -7  118.49    5.00
  -1   3  -7  123.39    6.40
  -1   3  -7  119.59    6.50
  -1   3  -7  121.29    5.80
  -1   3  -7  121.39    5.30
   1  -3   7  114.19    6.00
   1  -3   7  125.29    5.50
   1  -3   7  125.29    6.40
   1  -3   7  116.39    6.90
   1  -3   7  114.99    5.50
   1  -3   7  126.49    6.70
   1  -3   7  109.29    8.00
  -2   3  -7  176.18    6.40
  -2   3  -7  167.68    8.50
  -2   3  -7  170.48    6.50
  -2   3  -7  188.18    8.70
  -2   3  -7  187.88    8.90
   2  -3   7  179.68    8.70
   2  -3   7  178.68    7.00
   2  -3   7  185.98    7.90
   2  -3   7  194.88    8.50
   2  -3   7  188.28    7.30
   2  -3   7  181.68    7.30
  -3   3  -7   27.40    5.00
  -3   3  -7   21.80    6.80
  -3   3  -7   20.10    6.60
  -3   3  -7   27.60    4.50
  -3   3  -7   25.80    6.30
  -3   3  -7   17.90    6.30
   3  -3   7   28.70    5.30
   3  -3   7   16.40    5.30
   3  -3   7   22.00    6.60
   3  -3   7   24.30    5.90
   3  -3   7   11.60    6.80
  -4   3  -7    5.90    8.60
  -4   3  -7    7.70    6.50
  -4   3  -7    3.10    7.50
  -4   3  -7   14.30    8.70
  -4   3  -7   -9.20    7.60
   4  -3   7    1.90   10.60
   4  -3   7    2.40    6.90
   4  -3   7   -3.30    6.90
   4  -3   7   -0.70    7.90
  -5   3  -7   22.50   10.60
  -5   3  -7   20.60   13.70
  -5   3  -7   30.80   11.60
  -5   3  -7   28.20   11.40
   5  -3   7   26.00   10.50
   5  -3   7   33.50    9.70
  -6   3  -7   42.50   16.40
   6  -3   7   -9.20   13.70
   6  -3   7    6.50   13.90
   5   2  -7    7.50   10.40
   5   2  -7   -2.40   12.20
   5   2  -7   -9.30   11.20
   5   2  -7   19.90   14.40
  -5  -2   7   -5.10   12.30
  -5  -2   7    2.90   12.10
  -5  -2   7    4.20   11.20
   4   2  -7   -6.00    8.90
   4   2  -7    3.40    6.40
   4   2  -7    3.30    7.50
   4   2  -7   -1.20    6.60
  -4  -2   7  -17.70    7.80
  -4  -2   7   -1.90   11.00
  -4  -2   7   -3.80   11.60
  -4  -2   7   -1.30    7.80
   3   2  -7   16.50    7.80
   3   2  -7    4.20    5.70
   3   2  -7    3.60    5.10
   3   2  -7   13.80    6.70
   3   2  -7   12.20    7.60
   3   2  -7    8.60    4.30
  -3  -2   7   11.30    5.70
  -3  -2   7   16.90    7.40
  -3  -2   7   -1.10    6.90
  -3  -2   7    6.80    6.10
  -3  -2   7    3.80    5.10
   2   2  -7  169.68    8.60
   2   2  -7  166.78    5.90
   2   2  -7  170.58    7.80
   2   2  -7  176.18    8.50
   2   2  -7  176.08    8.50
   2   2  -7  176.58    7.40
  -2  -2   7  172.18    6.90
  -2  -2   7  164.48    8.30
  -2  -2   7  176.78    8.60
  -2  -2   7  175.38    7.30
  -2  -2   7  174.78    7.30
  -2  -2   7  170.08    8.90
   1   2  -7  773.92   16.00
   1   2  -7  766.22   16.10
   1   2  -7  765.82   15.60
   1   2  -7  788.62   16.00
   1   2  -7  770.92   15.90
   1   2  -7  784.02   16.10
   1   2  -7  766.12   16.30
  -1  -2   7  790.82   16.20
  -1  -2   7  759.92   15.30
  -1  -2   7  774.72   15.80
  -1  -2   7  776.82   16.30
  -1  -2   7  795.12   14.80
  -1  -2   7  767.52   16.30
  -1  -2   7  780.32   15.60
   0   2  -7   28.30    3.30
   0   2  -7   30.50    3.70
   0   2  -7   30.30    2.90
   0   2  -7   25.40    4.00
   0   2  -7   31.40    3.30
   0   2  -7   31.10    3.70
   0   2  -7   33.90    3.50
   0  -2   7   29.60    3.60
   0  -2   7   32.40    3.10
   0  -2   7   35.60    3.70
   0  -2   7   34.70    3.90
   0  -2   7   26.80    4.10
   0  -2   7   34.40    3.00
   0  -2   7   30.80    2.30
  -1   2  -7   30.00    3.80
  -1   2  -7   24.10    3.00
  -1   2  -7   23.20    4.00
  -1   2  -7   35.50    3.60
  -1   2  -7   25.50    3.00
  -1   2  -7   27.70    3.80
   1  -2   7   33.30    3.80
   1  -2   7   24.60    4.10
   1  -2   7   28.10    3.30
   1  -2   7   31.70    3.90
   1  -2   7   21.00    3.20
   1  -2   7   33.20    3.70
   1  -2   7   29.00    4.00
  -2   2  -7  369.96    9.10
  -2   2  -7  381.76   11.10
  -2   2  -7  373.06    9.40
  -2   2  -7  389.86   11.20
  -2   2  -7  381.16   10.80
  -2   2  -7  394.66   11.00
   2  -2   7  376.96   11.40
   2  -2   7  386.46   11.10
   2  -2   7  371.26    9.90
   2  -2   7  385.36   10.00
   2  -2   7  380.36   10.70
   2  -2   7  383.96    9.80
   2  -2   7  375.76   10.30
  -3   2  -7   83.09    9.10
  -3   2  -7   95.99    9.40
  -3   2  -7   83.09    7.10
  -3   2  -7   82.39    6.90
  -3   2  -7   93.69    6.90
  -3   2  -7   87.09    8.60
   3  -2   7   88.59    9.70
   3  -2   7   91.09    7.50
   3  -2   7   84.39    7.60
   3  -2   7   82.89    6.80
   3  -2   7   96.89    7.30
  -4   2  -7    1.70    7.10
  -4   2  -7    5.50    8.60
  -4   2  -7    1.60    6.30
  -4   2  -7    0.60    7.40
   4  -2   7   12.20    6.60
   4  -2   7    5.90   10.00
   4  -2   7    6.90    8.40
   4  -2   7   14.40    7.10
  -5   2  -7   23.50   11.20
  -5   2  -7   18.80   13.00
  -5   2  -7    0.00   11.10
  -5   2  -7   12.40    9.50
   5  -2   7    4.60    9.00
   5  -2   7   20.50    9.90
  -6   2  -7   26.40   18.10
  -6   2  -7   -9.30   15.90
  -6   2  -7  -14.30   21.90
   6  -2   7   -7.80   14.30
   5   1  -7   -9.30   11.40
   5   1  -7  -17.70    8.00
   5   1  -7    0.60   16.50
   5   1  -7    2.60   10.70
  -5  -1   7  -15.60   12.20
  -5  -1   7   -4.40   11.30
  -5  -1   7   -2.30   10.70
   4   1  -7   11.20    5.90
   4   1  -7   13.30    9.20
   4   1  -7   13.50    7.20
  -4  -1   7   14.10    8.10
  -4  -1   7   24.30    9.30
  -4  -1   7   27.70    7.70
  -4  -1   7   28.60    8.20
  -4  -1   7   32.80   11.70
   3   1  -7   29.80    6.90
   3   1  -7   36.80    5.20
   3   1  -7   49.00    6.40
   3   1  -7   21.40    8.20
   3   1  -7   53.39    7.50
   3   1  -7   30.70    5.00
   3   1  -7   31.70    6.70
  -3  -1   7   34.40    6.00
  -3  -1   7    9.70    6.90
  -3  -1   7   33.30    7.00
  -3  -1   7   27.80    5.50
  -3  -1   7   36.70    5.70
  -3  -1   7   45.30    8.00
   2   1  -7   63.99    5.40
   2   1  -7   71.19    6.70
   2   1  -7   64.09    5.40
   2   1  -7   67.49    6.30
   2   1  -7   66.69    5.70
   2   1  -7   67.69    4.80
  -2  -1   7   65.79    5.50
  -2  -1   7   71.09    5.90
  -2  -1   7   63.69    5.50
  -2  -1   7   67.69    5.90
  -2  -1   7   69.69    6.50
  -2  -1   7   69.09    6.70
  -2  -1   7   58.99    5.80
   1   1  -7   19.40    3.50
   1   1  -7   15.30    3.40
   1   1  -7   13.50    3.30
   1   1  -7   17.30    3.30
   1   1  -7   16.80    2.90
   1   1  -7   16.30    3.70
  -1  -1   7   17.90    4.50
  -1  -1   7   22.30    4.00
  -1  -1   7   13.10    3.50
  -1  -1   7   17.50    3.30
  -1  -1   7   19.90    3.20
  -1  -1   7   19.70    3.50
  -1  -1   7   20.70    2.80
   0   1  -7  276.47    7.80
   0   1  -7  260.57    7.00
   0   1  -7  258.87    7.50
   0   1  -7  273.67    6.70
   0   1  -7  262.47    7.30
   0   1  -7  262.57    7.20
   0   1  -7  262.97    7.00
   0  -1   7  262.57    6.90
   0  -1   7  274.87    7.90
   0  -1   7  277.57    6.80
   0  -1   7  263.37    6.10
   0  -1   7  261.67    8.10
   0  -1   7  255.97    7.30
  -1   1  -7   32.30    3.90
  -1   1  -7   23.60    2.70
  -1   1  -7   26.70    3.50
  -1   1  -7   25.90    3.90
   1  -1   7   22.30    2.90
   1  -1   7   23.00    3.20
   1  -1   7   24.70    3.70
   1  -1   7   27.50    4.00
   1  -1   7   22.10    3.20
  -2   1  -7 1082.99   22.10
  -2   1  -7 1119.89   21.00
  -2   1  -7 1117.39   21.20
  -2   1  -7 1115.59   22.20
  -2   1  -7 1102.59   22.30
  -2   1  -7 1080.79   22.40
   2  -1   7 1116.19   22.40
   2  -1   7 1117.09   21.40
   2  -1   7 1094.99   22.60
   2  -1   7 1111.19   22.20
   2  -1   7 1137.99   21.70
   2  -1   7 1099.99   21.80
   2  -1   7 1111.29   21.50
  -3   1  -7  343.27   11.80
  -3   1  -7  335.27   11.50
  -3   1  -7  353.76   12.80
  -3   1  -7  352.66   10.20
  -3   1  -7  345.57    9.90
  -3   1  -7  344.17   12.00
   3  -1   7  349.07   10.40
   3  -1   7  356.86   10.60
   3  -1   7  352.26   11.50
   3  -1   7  347.57   11.50
   3  -1   7  329.47   12.30
  -4   1  -7   67.89    8.10
  -4   1  -7   59.59    6.80
   4  -1   7   64.89    8.80
   4  -1   7   67.99    7.30
   4  -1   7   73.19    7.80
   4  -1   7   76.39    9.60
  -5   1  -7  100.49   10.60
  -5   1  -7  109.49   11.60
  -5   1  -7   91.59   11.20
  -5   1  -7  102.89   13.50
   5  -1   7   85.59   10.90
   5  -1   7  104.09   11.30
  -6   1  -7   -5.00   16.80
  -6   1  -7   -9.30   15.30
  -6   1  -7   -2.00   15.60
   6  -1   7   -4.40   13.60
   5   0  -7   -6.90   10.70
   5   0  -7   -8.90   10.10
  -5   0   7   11.20   10.70
  -5   0   7    2.30   12.20
  -5   0   7   13.90   11.90
   4   0  -7   41.40    5.70
   4   0  -7   34.90    9.00
   4   0  -7   49.40    7.30
   4   0  -7   48.80    8.90
   4   0  -7   23.50   11.50
  -4   0   7   40.60    8.10
  -4   0   7   54.19    8.90
  -4   0   7   31.10    7.20
  -4   0   7   44.20    8.80
   3   0  -7  286.97   11.10
   3   0  -7  286.47   10.20
   3   0  -7  272.17   10.30
   3   0  -7  277.27    9.40
   3   0  -7  280.67   11.80
   3   0  -7  261.17   12.10
   3   0  -7  268.17    8.80
  -3   0   7  280.67   12.10
  -3   0   7  291.37    9.90
  -3   0   7  263.47   11.90
  -3   0   7  275.57   10.40
  -3   0   7  286.87   10.70
  -3   0   7  304.67   10.60
   2   0  -7  411.16   10.50
   2   0  -7  413.26   11.20
   2   0  -7  405.26   10.90
   2   0  -7  423.26   11.10
   2   0  -7  387.26    9.60
   2   0  -7  403.76    9.80
   2   0  -7  415.56    9.70
  -2   0   7  371.26   15.40
  -2   0   7  397.96   11.20
  -2   0   7  420.06   10.00
  -2   0   7  405.36   10.50
  -2   0   7  410.96   11.40
  -2   0   7  420.06   10.40
  -2   0   7  407.06   10.50
   1   0  -7  214.78    7.10
   1   0  -7  222.38    6.60
   1   0  -7  225.08    7.20
   1   0  -7  221.28    5.70
   1   0  -7  220.58    7.40
   1   0  -7  226.18    7.40
  -1   0   7  205.78    7.30
  -1   0   7  218.48    7.10
  -1   0   7  230.18    6.60
  -1   0   7  231.88    6.30
  -1   0   7  225.18    6.80
  -1   0   7  225.88    7.00
   0   0  -7  877.51   17.30
   0   0  -7  883.91   17.70
   0   0  -7  882.81   17.30
   0   0  -7  894.91   16.90
   0   0  -7  886.61   16.50
   0   0  -7  906.01   16.80
   0   0   7  866.21   17.20
   0   0   7  892.81   17.50
   0   0   7  879.41   16.50
   0   0   7  906.41   16.80
   0   0   7  878.51   16.80
   0   0   7  914.81   17.40
   0   0   7  897.71   17.50
  -1   0  -7  882.61   17.50
  -1   0  -7  883.61   16.90
  -1   0  -7  905.41   18.00
  -1   0  -7  899.51   17.90
  -1   0  -7  906.31   16.80
   1   0   7  895.31   17.90
   1   0   7  879.91   17.10
   1   0   7  907.81   17.60
   1   0   7  892.01   17.10
   1   0   7  867.01   18.00
   1   0   7  870.11   17.60
   1   0   7  891.91   17.30
  -2   0  -7  707.93   15.60
  -2   0  -7  716.33   14.40
  -2   0  -7  742.73   16.00
  -2   0  -7  726.53   14.70
  -2   0  -7  720.23   15.80
  -2   0  -7  721.43   15.80
   2   0   7  707.13   15.00
   2   0   7  714.53   16.20
   2   0   7  726.53   15.00
   2   0   7  702.13   15.70
   2   0   7  725.73   15.60
   2   0   7  716.03   15.00
  -3   0  -7   69.99    6.40
  -3   0  -7   60.09    6.00
  -3   0  -7   77.59    7.00
  -3   0  -7   65.59    5.20
  -3   0  -7   62.99    5.30
  -3   0  -7   66.69    6.20
   3   0   7   67.19    6.40
   3   0   7   70.79    5.60
   3   0   7   71.79    6.30
   3   0   7   55.89    6.80
   3   0   7   68.29    6.70
  -4   0  -7  107.09   10.50
  -4   0  -7   97.29    9.20
  -4   0  -7  134.89   10.90
  -4   0  -7  124.49    9.90
   4   0   7  130.69    9.70
   4   0   7  107.39    9.50
   4   0   7  118.09   10.10
   4   0   7  122.99   10.30
  -5   0  -7    9.80   11.50
  -5   0  -7   -0.60   10.10
  -5   0  -7    2.80   10.00
   5   0   7   12.40   10.40
   5   0   7    8.50   13.50
   5   0   7  -17.10    8.70
  -6   0  -7   28.00   18.00
  -6   0  -7   -2.50   15.00
  -6   0  -7    3.50   15.30
   6   0   7   13.00   13.90
   6   0   7   -7.10   16.60
   5  -1  -7  -15.60   10.00
   5  -1  -7   10.60   10.80
  -5   1   7  -16.80   11.30
  -5   1   7   37.60   12.10
  -5   1   7    8.90   11.70
   4  -1  -7   18.50    9.10
   4  -1  -7   16.60    6.60
   4  -1  -7   -6.80    6.10
   4  -1  -7   -9.60    8.30
   4  -1  -7    8.10    5.00
  -4   1   7    2.20    7.50
  -4   1   7    7.40    8.20
  -4   1   7    1.10    6.70
  -4   1   7   26.40   10.70
   3  -1  -7  354.76   10.60
   3  -1  -7  333.87   10.40
   3  -1  -7  320.07   12.90
   3  -1  -7  334.07    9.30
   3  -1  -7  334.37   10.80
   3  -1  -7  331.37   12.00
   3  -1  -7  326.17   11.50
  -3   1   7  329.97   13.20
  -3   1   7  341.87   11.10
  -3   1   7  332.57   13.30
  -3   1   7  339.07   11.50
  -3   1   7  311.77   10.90
  -3   1   7  337.57   10.50
   2  -1  -7  788.72   16.10
   2  -1  -7  759.92   17.90
   2  -1  -7  801.22   16.90
   2  -1  -7  782.52   16.70
   2  -1  -7  775.02   15.70
   2  -1  -7  806.72   16.00
  -2   1   7  785.62   17.00
  -2   1   7  822.22   16.90
  -2   1   7  798.22   16.20
  -2   1   7  800.22   16.40
  -2   1   7  787.52   15.90
  -2   1   7  780.92   16.70
  -2   1   7  776.52   16.60
   1  -1  -7   11.60    3.10
   1  -1  -7   10.30    3.50
   1  -1  -7   16.40    3.20
   1  -1  -7    4.20    3.60
   1  -1  -7   15.10    2.50
   1  -1  -7   15.80    3.10
  -1   1   7   10.40    3.40
  -1   1   7   12.80    2.60
  -1   1   7   11.00    3.20
  -1   1   7   11.90    3.00
  -1   1   7   13.60    3.30
  -1   1   7   14.20    2.90
   0  -1  -7  774.32   15.30
   0  -1  -7  782.32   14.50
   0  -1  -7  761.62   15.10
   0  -1  -7  701.23   16.50
   0  -1  -7  725.43   14.60
   0  -1  -7  766.12   14.50
   0   1   7  732.43   13.80
   0   1   7  764.32   15.00
   0   1   7  763.92   14.50
   0   1   7  762.32   15.00
   0   1   7  762.02   14.70
   0   1   7  766.02   15.20
   0   1   7  758.02   14.40
   0   1   7  753.62   15.40
  -1  -1  -7  113.99    5.80
  -1  -1  -7  106.29    4.20
  -1  -1  -7  106.49    4.40
  -1  -1  -7  100.89    5.30
  -1  -1  -7  103.49    5.30
  -1  -1  -7  102.09    5.40
   1   1   7  104.99    4.60
   1   1   7  105.19    5.60
   1   1   7  104.49    5.70
   1   1   7  103.29    4.80
   1   1   7  104.99    4.90
   1   1   7  101.99    5.50
   1   1   7  108.69    5.30
  -2  -1  -7  220.68    7.80
  -2  -1  -7  218.98    7.50
  -2  -1  -7  209.48    6.60
  -2  -1  -7  221.38    8.00
  -2  -1  -7  226.88    7.80
  -2  -1  -7  216.88    8.50
   2   1   7  226.48    8.00
   2   1   7  235.58    7.40
   2   1   7  229.88    7.30
   2   1   7  226.58    8.20
   2   1   7  214.08    8.30
   2   1   7  220.58    8.00
  -3  -1  -7  462.45   13.10
  -3  -1  -7  460.15   13.10
  -3  -1  -7  453.65   11.60
  -3  -1  -7  469.45   12.80
  -3  -1  -7  481.25   14.00
  -3  -1  -7  446.06   11.60
   3   1   7  443.56   12.10
   3   1   7  457.95   13.90
   3   1   7  461.25   12.20
   3   1   7  459.55   13.10
  -4  -1  -7   25.10    7.20
  -4  -1  -7   31.80    6.90
  -4  -1  -7   52.19    8.20
  -4  -1  -7   26.00    6.30
  -4  -1  -7   32.20    7.50
  -4  -1  -7   25.60    8.00
   4   1   7   21.30    6.90
   4   1   7   25.90    7.70
   4   1   7   23.90    9.60
   4   1   7   27.00    7.20
  -5  -1  -7   51.49   10.50
  -5  -1  -7   62.79   10.00
  -5  -1  -7   52.89   10.90
  -5  -1  -7   83.29   13.00
   5   1   7   50.89   13.70
   5   1   7   54.99    9.40
   5   1   7   48.40   10.30
  -6  -1  -7   18.90   15.00
  -6  -1  -7   10.70   15.70
   6   1   7    1.20   13.60
   6   1   7  -20.10   15.30
   6   1   7   16.30   11.80
   5  -2  -7    4.70   10.10
   5  -2  -7  -17.10   10.10
  -5   2   7   -4.30   11.50
  -5   2   7  -19.30   12.20
  -5   2   7   23.30   12.00
   4  -2  -7   36.90    7.10
   4  -2  -7   25.60    8.20
   4  -2  -7   38.00    6.80
  -4   2   7   33.20    7.30
  -4   2   7   35.70    8.60
  -4   2   7   31.70   10.40
  -4   2   7   34.40    8.50
   3  -2  -7  549.74   12.90
   3  -2  -7  540.55   13.60
   3  -2  -7  509.65   13.20
   3  -2  -7  551.84   14.00
  -3   2   7  525.15   13.00
  -3   2   7  542.85   15.40
  -3   2   7  541.45   14.70
  -3   2   7  519.55   12.70
  -3   2   7  540.15   14.80
  -3   2   7  541.05   14.10
   2  -2  -7  122.09    6.90
   2  -2  -7  121.69    6.20
   2  -2  -7  114.29    6.40
   2  -2  -7  114.59    7.30
   2  -2  -7  129.59    6.90
  -2   2   7  109.69    6.20
  -2   2   7  119.19    6.00
  -2   2   7  121.19    7.30
  -2   2   7  123.39    6.90
  -2   2   7  116.99    7.10
  -2   2   7  112.19    7.60
  -2   2   7  114.29    5.40
   1  -2  -7   59.19    4.10
   1  -2  -7   53.89    4.10
   1  -2  -7   52.89    5.00
   1  -2  -7   63.29    5.00
   1  -2  -7   50.79    4.30
   1  -2  -7   54.09    4.10
  -1   2   7   61.99    3.60
  -1   2   7   51.39    4.20
  -1   2   7   52.89    4.60
  -1   2   7   47.50    4.90
  -1   2   7   51.89    4.90
  -1   2   7   52.89    4.50
   0  -2  -7  547.75   12.20
   0  -2  -7  568.34   11.20
   0  -2  -7  551.44   11.10
   0  -2  -7  551.54   12.10
   0   2   7  563.54   11.10
   0   2   7  571.94   11.60
   0   2   7  556.94   11.90
   0   2   7  566.04   11.80
   0   2   7  556.94   12.30
   0   2   7  567.74   11.30
   0   2   7  561.54   11.90
  -1  -2  -7 2330.47   40.50
  -1  -2  -7 2320.27   41.40
  -1  -2  -7 2296.67   41.40
  -1  -2  -7 2349.26   41.00
  -1  -2  -7 2283.47   41.10
  -1  -2  -7 2256.37   40.40
   1   2   7 2345.97   40.80
   1   2   7 2310.47   41.80
   1   2   7 2302.37   41.30
   1   2   7 2349.86   41.50
   1   2   7 2317.07   40.80
   1   2   7 2364.56   40.90
  -2  -2  -7  846.12   17.10
  -2  -2  -7  808.52   16.00
  -2  -2  -7  790.52   17.30
  -2  -2  -7  844.72   17.20
  -2  -2  -7  797.92   16.90
   2   2   7  799.62   17.20
   2   2   7  827.02   16.60
   2   2   7  803.92   17.20
   2   2   7  832.22   16.60
   2   2   7  791.02   17.40
  -3  -2  -7   54.19    5.60
  -3  -2  -7   53.69    5.10
  -3  -2  -7   55.69    5.80
  -3  -2  -7   47.20    5.70
  -3  -2  -7   46.10    5.60
  -3  -2  -7   40.40    6.10
   3   2   7   43.30    6.70
   3   2   7   48.00    5.90
   3   2   7   42.80    6.20
   3   2   7   47.90    5.40
   3   2   7   45.10    4.90
  -4  -2  -7   44.30    7.30
  -4  -2  -7   36.20    6.90
  -4  -2  -7   43.00    8.70
  -4  -2  -7   38.10    7.60
  -4  -2  -7   32.40    7.50
  -4  -2  -7   29.30    6.20
   4   2   7   45.90    8.50
   4   2   7   37.80    6.80
   4   2   7   27.00    9.50
  -5  -2  -7  115.59   11.50
  -5  -2  -7  126.69   11.40
  -5  -2  -7  119.29   11.90
   5   2   7  142.39   14.00
   5   2   7  137.19   12.20
   5   2   7  134.09   14.50
  -6  -2  -7   44.70   15.40
  -6  -2  -7   29.20   14.50
   6   2   7   19.90   15.50
   6   2   7   33.80   14.20
   6   2   7   38.60   12.60
   5  -3  -7   30.70   11.00
   5  -3  -7   27.60    9.70
  -5   3   7   15.00   11.60
  -5   3   7   11.60   13.50
  -5   3   7   -2.70   13.20
   4  -3  -7    8.70    7.70
   4  -3  -7    3.30    6.00
   4  -3  -7    4.90    8.80
  -4   3   7   11.80    8.60
  -4   3   7    6.20    6.70
  -4   3   7   18.90   10.40
  -4   3   7   21.20    8.60
   3  -3  -7  133.19    8.90
   3  -3  -7  156.18    8.20
   3  -3  -7  122.99    9.00
   3  -3  -7  134.59    7.20
  -3   3   7  130.09    7.00
  -3   3   7  122.49    9.70
  -3   3   7  118.59   10.40
  -3   3   7  111.39    9.20
  -3   3   7  126.59    8.50
  -3   3   7  108.89    9.00
   2  -3  -7  134.49    6.60
   2  -3  -7  126.19    6.70
   2  -3  -7  114.69    7.00
   2  -3  -7  132.09    5.60
  -2   3   7  123.99    7.30
  -2   3   7  127.09    8.40
  -2   3   7  125.89    5.30
  -2   3   7  133.89    7.40
  -2   3   7  124.29    6.60
  -2   3   7  133.49    6.70
  -2   3   7  127.59    6.00
   1  -3  -7   40.40    3.90
   1  -3  -7   36.00    4.90
   1  -3  -7   33.70    3.10
   1  -3  -7   35.20    3.20
  -1   3   7   40.60    3.50
  -1   3   7   35.20    3.20
  -1   3   7   38.30    4.00
  -1   3   7   31.20    3.10
  -1   3   7   38.10    3.50
  -1   3   7   37.50    3.60
  -1   3   7   37.30    4.00
   0  -3  -7  391.46    8.20
   0  -3  -7  394.56    8.30
   0  -3  -7  393.96    8.60
   0   3   7  410.16    9.80
   0   3   7  387.16    8.20
   0   3   7  395.96    8.50
   0   3   7  388.06    9.00
   0   3   7  392.46    9.20
  -1  -3  -7  236.38    7.20
  -1  -3  -7  246.48    6.90
  -1  -3  -7  235.08    5.80
  -1  -3  -7  235.48    6.00
  -1  -3  -7  244.28    7.20
   1   3   7  240.58    7.30
   1   3   7  239.58    6.50
   1   3   7  237.88    7.30
   1   3   7  241.88    7.50
   1   3   7  213.98    7.00
   1   3   7  232.08    6.30
  -2  -3  -7  205.98    6.50
  -2  -3  -7  185.98    8.80
  -2  -3  -7  200.88    7.40
  -2  -3  -7  208.68    6.40
  -2  -3  -7  201.48    7.30
   2   3   7  203.88    7.10
   2   3   7  194.88    7.50
   2   3   7  210.48    7.90
   2   3   7  205.68    8.00
   2   3   7  196.78    6.90
   2   3   7  215.98    8.10
  -3  -3  -7   41.80    5.90
  -3  -3  -7   40.10    4.50
  -3  -3  -7   41.50    5.40
  -3  -3  -7   43.90    4.80
   3   3   7   46.60    5.20
   3   3   7   43.80    6.80
   3   3   7   36.90    6.20
   3   3   7   53.79    6.30
   3   3   7   53.09    5.50
  -4  -3  -7  431.06   15.20
  -4  -3  -7  424.66   13.10
  -4  -3  -7  426.36   14.40
  -4  -3  -7  445.66   14.40
   4   3   7  420.76   14.30
   4   3   7  408.36   16.40
   4   3   7  429.66   16.60
  -5  -3  -7   13.90    9.20
  -5  -3  -7   22.20    9.90
   5   3   7   23.80    9.80
   5   3   7   18.20   13.20
   5   3   7    1.00   10.10
  -6  -3  -7   11.30   15.30
  -6  -3  -7    7.00   14.30
   6   3   7    4.60   15.40
   6   3   7    6.90   13.40
   6   3   7   -2.60   15.60
   5  -4  -7   12.60   11.40
  -5   4   7   -0.20   14.20
  -5   4   7   19.10   11.40
  -5   4   7    1.30   13.90
   4  -4  -7   24.20    8.00
  -4   4   7   38.30    8.70
  -4   4   7   36.50    9.40
  -4   4   7   18.50    7.00
  -4   4   7   35.10    9.60
   3  -4  -7    7.70    5.70
  -3   4   7   23.20    7.50
  -3   4   7    9.70    5.60
  -3   4   7    3.20    6.50
  -3   4   7    5.40    7.20
  -3   4   7   10.10    6.10
   2  -4  -7  365.86    9.90
   2  -4  -7  377.16   10.20
   2  -4  -7  359.06   10.10
  -2   4   7  361.06    9.00
  -2   4   7  374.06   10.30
  -2   4   7  375.56   10.90
  -2   4   7  370.66    8.80
  -2   4   7  380.66    9.70
  -2   4   7  384.26   10.20
  -2   4   7  359.36   11.30
   1  -4  -7  394.06    9.40
  -1   4   7  403.76    8.80
  -1   4   7  403.26   10.20
  -1   4   7  399.86    9.30
  -1   4   7  400.76   10.10
  -1   4   7  391.76    9.30
  -1   4   7  398.26    9.30
  -1   4   7  403.96    8.40
   0  -4  -7   43.60    3.20
   0  -4  -7   38.50    4.00
   0  -4  -7   41.20    3.50
   0   4   7   41.80    3.40
   0   4   7   38.90    3.50
   0   4   7   38.40    3.20
   0   4   7   49.50    5.00
   0   4   7   46.00    3.70
   0   4   7   42.80    4.10
  -1  -4  -7    4.60    2.00
  -1  -4  -7    9.10    2.70
  -1  -4  -7    5.70    1.90
  -1  -4  -7    3.40    3.80
   1   4   7    2.60    3.30
   1   4   7    4.40    2.50
   1   4   7   -3.00    3.30
   1   4   7    5.40    3.10
   1   4   7    7.60    2.50
  -2  -4  -7  264.37    8.30
  -2  -4  -7  258.97    6.90
  -2  -4  -7  250.67    8.90
  -2  -4  -7  265.07    7.30
  -2  -4  -7  261.07    8.20
   2   4   7  269.87    8.00
   2   4   7  268.27    8.90
   2   4   7  241.48    8.70
   2   4   7  262.57    9.10
   2   4   7  265.27    8.00
  -3  -4  -7   34.40    4.90
  -3  -4  -7   32.90    5.50
  -3  -4  -7   34.40    4.60
  -3  -4  -7   37.50    5.60
   3   4   7   35.10    5.40
   3   4   7   33.20    6.50
   3   4   7   40.50    6.70
   3   4   7   27.10    6.30
   3   4   7   21.80    6.70
   3   4   7   25.40    5.00
  -4  -4  -7   76.19    8.10
  -4  -4  -7   58.39    6.60
  -4  -4  -7   60.59    8.20
  -4  -4  -7   56.79    7.80
   4   4   7   59.49    7.90
   4   4   7   72.09    9.90
   4   4   7   72.69    7.90
   4   4   7   81.39   11.00
   4   4   7   57.99    9.60
  -5  -4  -7   -2.30    9.30
  -5  -4  -7   10.20    9.90
   5   4   7    2.00   10.40
   5   4   7   -2.20   13.30
   5   4   7  -10.40    9.60
  -6  -4  -7    2.90   15.30
   6   4   7  -16.40   23.20
   6   4   7    3.00   14.20
   6   4   7   -5.00   16.30
   5  -5  -7  -10.50   14.30
  -5   5   7   -0.70   14.00
  -5   5   7    3.70   15.10
   4  -5  -7   55.79    8.80
  -4   5   7   31.70    9.10
  -4   5   7   50.09    8.90
  -4   5   7   52.59    9.80
  -4   5   7   28.30    7.30
   3  -5  -7    2.80    6.00
   3  -5  -7  -13.50    5.50
  -3   5   7   -8.60    6.90
  -3   5   7    3.30    4.60
  -3   5   7    7.50    5.90
  -3   5   7    2.40    5.80
  -3   5   7   -6.80    6.50
   2  -5  -7   20.40    4.40
   2  -5  -7   26.10    4.70
   2  -5  -7   20.30    4.40
  -2   5   7   22.90    4.20
  -2   5   7   20.70    5.60
  -2   5   7   24.10    5.10
  -2   5   7   18.20    3.60
  -2   5   7   18.40    5.80
  -2   5   7   15.70    3.20
   1  -5  -7   32.80    3.00
   1  -5  -7   34.60    3.60
  -1   5   7   34.90    4.70
  -1   5   7   34.30    3.50
  -1   5   7   38.80    3.70
  -1   5   7   37.00    4.00
  -1   5   7   30.40    2.60
  -1   5   7   35.40    3.00
   0  -5  -7   27.70    3.10
   0  -5  -7   38.90    3.10
   0  -5  -7   27.40    4.20
   0   5   7   33.90    2.70
   0   5   7   29.00    3.80
   0   5   7   30.30    3.80
   0   5   7   30.80    3.40
   0   5   7   31.60    3.10
   0   5   7   36.50    3.90
  -1  -5  -7  124.89    4.30
  -1  -5  -7  117.39    5.50
   1   5   7  121.39    6.10
   1   5   7  128.19    6.30
   1   5   7  121.19    5.30
   1   5   7  122.29    5.90
   1   5   7  119.59    6.50
   1   5   7  122.89    5.00
  -2  -5  -7    9.40    3.40
  -2  -5  -7   12.50    3.80
  -2  -5  -7   10.30    2.50
  -2  -5  -7   11.20    4.30
  -2  -5  -7   13.40    3.30
   2   5   7   17.10    5.00
   2   5   7    3.20    4.40
   2   5   7    2.60    3.50
   2   5   7   10.90    4.50
   2   5   7   11.10    4.50
   2   5   7   11.10    3.90
  -3  -5  -7   83.09    7.90
  -3  -5  -7   83.19    7.30
  -3  -5  -7   83.79    6.30
  -3  -5  -7   91.69    6.40
   3   5   7   82.49    8.10
   3   5   7   93.59    7.50
   3   5   7   96.99    9.60
   3   5   7   78.99    6.80
   3   5   7   77.99    8.10
   3   5   7   84.59    7.60
  -4  -5  -7  173.48   11.10
  -4  -5  -7  190.38   12.50
  -4  -5  -7  151.48   12.40
   4   5   7  165.38   15.00
   4   5   7  156.48   12.00
   4   5   7  148.19   11.80
   4   5   7  179.58   14.60
   4   5   7  165.38   14.80
  -5  -5  -7    9.90   10.30
  -5  -5  -7   -2.30   10.70
   5   5   7   26.10   10.70
   5   5   7    9.90   10.30
   5   5   7   12.30   10.80
   5   5   7    7.30   14.90
  -6  -5  -7   20.40   16.30
   6   5   7  -15.50   16.80
   6   5   7    2.10   17.40
   4  -6  -7    5.30    8.90
  -4   6   7    6.70   10.60
  -4   6   7  -14.90    9.60
  -4   6   7    9.70    7.10
   3  -6  -7   10.80    6.30
  -3   6   7    7.20    4.60
  -3   6   7    8.70    7.20
  -3   6   7   13.40    7.20
  -3   6   7    0.40    5.80
  -3   6   7   -0.50    7.20
   2  -6  -7   30.90    4.00
   2  -6  -7   26.80    5.00
  -2   6   7   25.80    3.20
  -2   6   7   32.30    5.00
  -2   6   7   31.30    5.60
  -2   6   7   26.00    4.40
  -2   6   7   26.90    4.30
  -2   6   7   32.30    5.70
  -1   6   7  108.89    6.70
  -1   6   7  100.29    3.80
  -1   6   7  106.39    4.70
  -1   6   7   94.99    5.30
  -1   6   7  107.79    5.10
  -1   6   7   92.49    7.30
   0  -6  -7  590.54   13.60
   0   6   7  586.24   13.50
   0   6   7  578.74   12.20
   0   6   7  598.84   11.50
   0   6   7  601.74   13.60
   0   6   7  580.94   11.90
   0   6   7  598.34   11.50
  -1  -6  -7  163.78    6.40
  -1  -6  -7  162.28    4.90
  -1  -6  -7  146.09    7.70
   1   6   7  161.68    7.40
   1   6   7  165.18    5.90
   1   6   7  160.78    6.40
   1   6   7  169.78    6.60
   1   6   7  157.88    7.30
   1   6   7  170.38    5.80
  -2  -6  -7   23.60    4.10
  -2  -6  -7   21.70    3.30
  -2  -6  -7   25.10    3.50
  -2  -6  -7   17.90    4.70
   2   6   7   20.30    4.00
   2   6   7   14.90    4.10
   2   6   7   20.30    4.90
   2   6   7   19.90    5.90
   2   6   7   28.00    5.40
   2   6   7   15.50    4.90
  -3  -6  -7   34.90    7.20
  -3  -6  -7   32.50    4.70
  -3  -6  -7   34.10    5.50
   3   6   7   41.70    8.40
   3   6   7   49.99    7.10
   3   6   7   43.50    6.20
   3   6   7   32.50    6.40
   3   6   7   34.90    7.30
   3   6   7   30.00    7.00
  -4  -6  -7    7.90    7.20
  -4  -6  -7    7.80    8.50
  -4  -6  -7    3.20    6.20
   4   6   7    1.00    7.60
   4   6   7    6.90    7.50
   4   6   7    0.00    9.50
  -5  -6  -7   22.80   13.00
  -5  -6  -7   -3.20   10.50
   5   6   7   22.20   10.90
   5   6   7   21.10   11.60
   5   6   7    5.90   11.90
   4  -7  -7    1.60    9.60
  -4   7   7   10.70   10.80
  -4   7   7    0.60    7.20
  -4   7   7  -10.30   10.80
   3  -7  -7   21.70    7.40
  -3   7   7   14.30    6.50
  -3   7   7   13.20    4.80
  -3   7   7    4.20    6.80
  -3   7   7   12.60    8.50
  -3   7   7   21.50    8.20
   2  -7  -7   93.09    9.10
  -2   7   7  100.09    7.70
  -2   7   7  106.19    4.80
  -2   7   7  109.69    8.20
  -2   7   7  122.29    7.00
  -2   7   7  113.29    6.80
  -2   7   7  104.99    6.40
  -1   7   7   70.39    6.70
  -1   7   7   68.39    4.50
  -1   7   7   61.29    6.50
   0   7   7  218.48    8.60
   0   7   7  216.68    7.00
   0   7   7  231.88    8.50
  -1  -7  -7    8.30    4.40
  -1  -7  -7   15.00    3.60
  -1  -7  -7   15.60    2.40
   1   7   7   24.20    4.50
   1   7   7   10.50    4.10
   1   7   7   11.50    3.30
   1   7   7   10.50    4.80
   1   7   7    6.00    3.80
   1   7   7   11.10    3.20
   1   7   7   11.60    4.50
  -2  -7  -7   80.19    7.00
  -2  -7  -7   83.69    6.10
  -2  -7  -7   77.99    5.40
   2   7   7   76.09    7.00
   2   7   7   82.19    6.60
   2   7   7   83.89    8.30
   2   7   7   83.29    7.20
   2   7   7   88.99    8.00
   2   7   7   81.79    8.60
  -3  -7  -7   79.79    6.20
  -3  -7  -7   83.79    7.70
  -3  -7  -7   79.79    5.80
   3   7   7   82.89    7.60
   3   7   7   87.39    7.40
   3   7   7   80.59    9.60
   3   7   7   91.99    9.00
   3   7   7   74.19    8.40
  -4  -7  -7   10.90    7.20
  -4  -7  -7    7.40    8.80
   4   7   7   16.60   10.40
   4   7   7   14.60    9.60
   4   7   7   18.10    8.50
   4   7   7   23.40    9.30
  -5  -7  -7    8.70   11.10
   5   7   7   15.10   12.30
   5   7   7   19.10   13.50
   5   7   7   17.80   13.40
   4  -8  -7   16.40   10.90
  -4   8   7   15.60   11.90
  -4   8   7    3.50    7.30
  -4   8   7   -0.80   11.60
   3  -8  -7    0.60    7.70
  -3   8   7    5.30    9.30
  -3   8   7   11.20    6.30
  -3   8   7   18.70    4.60
  -3   8   7   17.10    7.30
  -3   8   7    7.10    8.30
   2  -8  -7    7.30    6.50
  -2   8   7    6.60    5.50
  -2   8   7    8.40    7.50
  -2   8   7   -2.20    4.60
  -2   8   7   -6.10    5.40
  -1   8   7   49.90    7.40
  -1   8   7   52.29    5.00
  -1   8   7   46.70    5.60
   0   8   7   51.39    4.90
   0   8   7   39.40    6.10
   0   8   7   53.19    5.30
  -1  -8  -7  239.48   10.90
   1   8   7  234.08    7.40
   1   8   7  231.18    9.00
   1   8   7  212.68    9.30
   1   8   7  219.68    9.50
   1   8   7  235.58    7.20
   1   8   7  228.48    7.90
  -2  -8  -7   10.00    4.00
  -2  -8  -7   25.40    5.10
   2   8   7    9.10    5.90
   2   8   7   14.00    5.70
   2   8   7   10.40    5.80
   2   8   7   26.20    6.20
   2   8   7    9.00    7.20
   2   8   7    4.60    5.20
  -3  -8  -7   15.30    6.80
   3   8   7   19.80   10.90
   3   8   7   13.90    6.60
   3   8   7   -7.20    6.60
   3   8   7   14.10    7.60
   3   8   7   24.90    8.70
   3   8   7   15.50    8.50
  -4  -8  -7   54.19   11.60
  -4  -8  -7   41.60    7.40
   4   8   7   51.09   11.50
   4   8   7   62.59   10.50
   4   8   7   59.19   10.30
   4   8   7   68.49   11.60
  -5  -8  -7    6.80   10.70
   5   8   7   -2.30   14.20
   5   8   7   25.90   15.60
   5   8   7    5.70   13.40
  -4   9   7   -4.20    7.40
  -4   9   7   -8.50   14.50
   3  -9  -7   24.50    9.10
  -3   9   7   19.20   10.50
  -3   9   7   23.10    8.40
  -2   9   7   46.80    7.80
  -2   9   7   58.19    6.70
  -1   9   7   79.99    8.00
  -1   9   7   81.49    8.80
  -1   9   7   83.09    7.50
  -1   9   7   74.19    6.90
   0   9   7   22.60    5.60
   0   9   7   29.40    6.00
   0   9   7   28.70    6.90
   0   9   7   46.80    6.90
   1   9   7   -4.10    7.00
   1   9   7    8.30    4.20
   1   9   7    5.70    5.20
   1   9   7   -0.20    5.20
   1   9   7   -3.50    6.70
   2   9   7   36.90    6.90
   2   9   7   34.40    5.90
   2   9   7   49.70    8.30
   2   9   7   40.00    6.60
   2   9   7   33.10    6.10
   2   9   7   32.60    9.00
   2   9   7   37.30    6.70
  -3  -9  -7   10.50    7.10
   3   9   7    1.40    8.40
   3   9   7    3.10    9.20
   3   9   7   -6.20    7.40
   3   9   7   -1.50   10.10
   3   9   7    5.20    7.10
  -4  -9  -7   79.59    7.20
   4   9   7   80.59   12.90
   4   9   7   77.59   11.70
   4   9   7   67.29   11.50
   5   9   7   -5.60   16.80
   5   9   7  -15.70   19.80
   3 -10  -7   -6.30   11.10
  -3  10   7   16.60   11.30
  -2  10   7   -4.80    7.10
  -2  10   7   -1.80    8.60
  -2  10   7   -1.70    8.30
  -1  10   7   -1.60    6.40
  -1  10   7    3.70    6.80
  -1  10   7   -3.00    7.10
   0  10   7   -1.00    6.60
   0  10   7    9.80    7.60
   0  10   7   -5.80    7.80
   0  10   7    5.70    5.80
   1  10   7   28.00    6.60
   1  10   7   32.50    5.20
   1  10   7   23.50    8.30
   1  10   7   37.80    6.40
   1  10   7   43.40    8.50
   2  10   7   19.00    9.00
   2  10   7    7.70    7.90
   2  10   7   17.30    6.40
   2  10   7   23.90   11.40
   2  10   7   12.80    7.00
   2  10   7   14.60    6.70
   2  10   7   11.60    7.20
   3  10   7    0.80   11.00
   3  10   7   12.90   10.60
   3  10   7  -14.00   11.70
   3  10   7  -15.70    8.10
   4  10   7    6.70   14.60
   4  10   7   10.90   12.40
   4  10   7    4.90   11.80
  -3  11   7   -5.80   13.20
  -2  11   7    0.50    8.10
  -2  11   7    3.60    9.80
  -2  11   7   20.60   10.20
  -1  11   7   26.60    8.80
  -1  11   7   22.40    8.70
   0  11   7   -5.30    7.10
   0  11   7    4.90    8.50
   0  11   7    6.40   10.10
   1  11   7    9.40    6.40
   1  11   7    7.00    7.10
   1  11   7   -1.00    9.50
   2  11   7   -1.50   11.40
   2  11   7    0.10    9.30
   2  11   7   -4.20    8.00
   2  11   7    2.60    6.40
   2  11   7   10.90    7.40
   3  11   7    5.30   12.40
   3  11   7   25.20   10.70
   3  11   7   27.90    9.70
   4  11   7   10.20   14.40
  -2  12   7   -5.20   11.10
  -1  12   7   23.40   10.60
  -1  12   7    9.20    9.30
  -1  12   7   18.70   10.50
   0  12   7    5.80   10.00
   0  12   7  -15.10    9.40
   0  12   7   -2.40    8.40
   1  12   7    6.40    8.20
   1  12   7    9.80   11.20
   2  12   7    1.60   12.30
   2  12   7   -3.40    9.50
   3  12   7   10.90   11.00
   3  12   7    1.60   14.20
   3  12   7   -5.70   13.10
  -1  13   7    8.20   11.60
  -1  13   7   -1.70   12.30
   0  13   7  -12.30   12.90
   0  13   7    7.90   13.60
   1  13   7   16.00   12.90
   1  13   7  -10.20   12.90
   2  13   7  -32.10   14.90
   0  12  -8  -25.30   15.70
   1  11  -8    2.10   12.70
   1  11  -8   35.90   14.60
   1  11  -8   -2.20   16.70
   1  11  -8   -7.30   13.40
   0  11  -8   12.20   16.00
   0  11  -8   40.50   13.10
   0  11  -8   10.00   12.70
   0  11  -8   19.60   11.30
  -1  11  -8   50.49   12.40
  -1  11  -8   53.39   13.00
  -1  11  -8   61.49   16.30
  -1  11  -8   66.39   13.50
  -2  11  -8   33.30   15.20
  -2  11  -8   15.00   21.40
  -2  11  -8   26.60   11.50
  -2  11  -8    9.00   14.60
   2  10  -8   -5.10   13.90
   2  10  -8  -10.90   15.30
   2  10  -8    5.70   12.50
   2  10  -8   -3.40   14.20
  -2 -10   8   12.50    9.40
   1  10  -8    2.20   10.50
   1  10  -8  -12.80   13.10
   1  10  -8   22.30   11.00
   1  10  -8   -1.00   11.80
  -1 -10   8    7.40    7.80
   0  10  -8   60.99   13.40
   0  10  -8    5.90   10.70
   0  10  -8   14.60   10.80
   0  10  -8   19.30   10.20
   0 -10   8   25.40    7.10
  -1  10  -8   80.69   11.80
  -1  10  -8   48.00   13.70
  -1  10  -8   54.59   12.40
  -1  10  -8   90.89   10.90
  -1  10  -8   57.59   11.90
  -2  10  -8   -0.30   12.40
  -2  10  -8   -9.70   11.50
  -2  10  -8  -14.30   14.00
  -2  10  -8  -10.60    9.90
  -2  10  -8   25.60   15.50
  -3  10  -8  -11.50   12.90
  -3  10  -8  -10.10   17.00
  -3  10  -8  -10.20   15.50
   3   9  -8    3.80   15.40
   3   9  -8  -16.10   14.90
   3   9  -8    0.00   13.70
  -3  -9   8  -10.10   11.60
   2   9  -8   -8.20   13.00
   2   9  -8    5.20   12.70
   2   9  -8   12.40   10.70
   2   9  -8   -5.60   10.80
  -2  -9   8    0.40    8.20
   1   9  -8   -0.50   10.40
   1   9  -8   10.40    9.10
   1   9  -8    3.70   10.70
   1   9  -8   11.40    9.20
  -1  -9   8    7.40    7.80
  -1  -9   8    8.00    6.40
   0   9  -8    9.20    7.90
   0   9  -8    6.40    6.60
   0   9  -8    9.00    9.10
   0   9  -8   13.60   10.60
   0   9  -8   -0.10    8.30
   0   9  -8    5.80    9.50
   0  -9   8    2.70    6.40
   0  -9   8    5.10    8.60
  -1   9  -8   -7.50   10.70
  -1   9  -8   -1.10    9.10
  -1   9  -8    9.80    9.20
  -1   9  -8   -7.40    8.00
  -1   9  -8  -10.00    8.10
  -1   9  -8    6.20    8.60
   1  -9   8    1.80    7.60
   1  -9   8    2.50    5.90
  -2   9  -8   -1.90   11.40
  -2   9  -8   -8.00   12.80
  -2   9  -8   -0.30   10.00
  -2   9  -8    2.90   10.70
  -2   9  -8    7.00    8.30
   2  -9   8   -4.70    6.50
  -3   9  -8    3.20   12.90
  -3   9  -8    1.10   11.40
  -3   9  -8   36.80   15.80
   3  -9   8    8.40    7.70
  -4   9  -8   18.30   16.90
   3   8  -8   -0.40   12.30
   3   8  -8    1.70   11.90
   3   8  -8   13.90   13.60
  -3  -8   8  -11.30   14.80
  -3  -8   8   -4.10   10.00
   2   8  -8   -4.80    9.50
   2   8  -8    0.00   10.80
   2   8  -8   -7.20   11.60
   2   8  -8    2.10    9.70
   2   8  -8    1.70   11.00
  -2  -8   8   10.00    8.00
  -2  -8   8    8.80    8.50
   1   8  -8   50.29    8.30
   1   8  -8   35.80    9.00
   1   8  -8   40.90    9.50
   1   8  -8   37.00    6.20
   1   8  -8   33.40    8.20
   1   8  -8   60.59   10.30
  -1  -8   8   47.10    9.10
  -1  -8   8   36.80    6.60
  -1  -8   8   48.10    6.60
  -1  -8   8   57.19    7.20
   0   8  -8   76.29    8.40
   0   8  -8   81.79    8.70
   0   8  -8   70.99    9.20
   0   8  -8   78.79    6.90
   0   8  -8   83.59    9.40
   0   8  -8   72.69    8.20
   0   8  -8   81.79   10.00
   0  -8   8   69.99    6.90
   0  -8   8   92.79    8.40
  -1   8  -8   17.50    7.60
  -1   8  -8   25.50    7.90
  -1   8  -8   19.80    8.10
  -1   8  -8   12.50    7.70
  -1   8  -8    7.80    7.00
  -1   8  -8    9.20    6.40
  -1   8  -8   19.40    8.40
   1  -8   8   12.10    5.80
  -2   8  -8    5.80    9.20
  -2   8  -8    6.20    7.10
  -2   8  -8   20.60   10.60
  -2   8  -8   10.10    9.50
  -2   8  -8   15.90    9.70
   2  -8   8   16.80    6.30
   2  -8   8    3.90    7.30
  -3   8  -8   28.00   10.20
  -3   8  -8   36.90   11.40
  -3   8  -8   15.60   13.10
   3  -8   8   20.50    7.20
   3  -8   8   35.90    7.10
  -4   8  -8   17.20   17.10
  -4   8  -8    9.80   14.30
  -4   8  -8    9.60   12.50
   4  -8   8    6.30    9.40
   4   7  -8   15.10   16.50
   4   7  -8   10.20   15.00
  -4  -7   8    4.80   12.30
   3   7  -8   20.70   11.90
   3   7  -8   -8.00   10.40
   3   7  -8   -9.10   15.20
   3   7  -8   -3.20   10.30
  -3  -7   8   -3.20    7.90
  -3  -7   8   16.20    9.00
  -3  -7   8   -4.70    9.60
   2   7  -8   13.80    8.30
   2   7  -8    1.20    9.60
   2   7  -8    6.10    9.40
   2   7  -8    9.60    8.70
   2   7  -8   20.90    8.10
  -2  -7   8   17.80    7.50
  -2  -7   8   27.40    6.70
  -2  -7   8   26.80    6.80
   1   7  -8   10.30    9.40
   1   7  -8    9.40    6.60
   1   7  -8   15.20    9.00
   1   7  -8    7.20    7.40
   1   7  -8   19.80    7.10
  -1  -7   8   -1.30    7.30
  -1  -7   8   10.60    5.90
  -1  -7   8    0.50    9.30
  -1  -7   8   13.20    5.30
  -1  -7   8   14.40    5.80
   0   7  -8  122.29    8.50
   0   7  -8  133.89   10.40
   0   7  -8  129.59   13.50
   0   7  -8  140.69   10.20
   0   7  -8  116.69    9.00
   0  -7   8  129.79    8.40
   0  -7   8  138.19    9.70
   0  -7   8  146.69    8.40
   0  -7   8  138.19    9.70
   0  -7   8  121.29   11.80
  -1   7  -8   37.00    6.30
  -1   7  -8   39.20    6.50
  -1   7  -8   52.69    9.40
  -1   7  -8   36.60    8.70
  -1   7  -8   46.10    6.90
  -1   7  -8   32.60    7.00
  -1   7  -8   29.80    6.80
   1  -7   8   38.60    8.40
   1  -7   8   23.10    6.00
   1  -7   8   22.00    8.00
   1  -7   8   34.90    5.40
  -2   7  -8   29.60    7.00
  -2   7  -8   24.80    9.00
  -2   7  -8   23.90    8.50
  -2   7  -8   28.40    8.30
  -2   7  -8   28.20    7.00
  -2   7  -8   38.20    6.50
   2  -7   8   36.30    6.30
   2  -7   8   31.30    7.20
  -3   7  -8   -4.50   10.10
  -3   7  -8   -2.40    7.10
  -3   7  -8   -1.40    8.60
  -3   7  -8    1.30    9.00
   3  -7   8    9.10    6.90
   3  -7   8   23.60    9.00
   3  -7   8    0.40    6.10
  -4   7  -8   -7.30   11.00
  -4   7  -8    9.10   11.90
  -4   7  -8   22.40   14.70
   4  -7   8   11.30    9.10
   4  -7   8    0.00    8.90
   4   6  -8  -29.40   15.80
   4   6  -8  -26.80   12.50
   4   6  -8   11.30   12.50
  -4  -6   8    4.20   11.30
  -4  -6   8   15.50   11.80
  -4  -6   8   16.20   14.70
   3   6  -8   -1.00    8.70
   3   6  -8    0.80   12.40
   3   6  -8   23.50    9.30
   3   6  -8    2.00   10.40
  -3  -6   8    9.20    6.70
  -3  -6   8   -4.50    7.50
  -3  -6   8    0.50    7.50
   2   6  -8    6.30    7.00
   2   6  -8   11.60    8.60
   2   6  -8   19.20    8.10
   2   6  -8   28.30    6.90
  -2  -6   8    9.60    9.90
  -2  -6   8    9.70    6.60
  -2  -6   8   13.80    6.20
  -2  -6   8   23.10    6.00
   1   6  -8  164.18   11.00
   1   6  -8  147.89   10.30
   1   6  -8  163.78    8.50
   1   6  -8  169.08   11.60
   1   6  -8  160.88   10.70
   1   6  -8  190.98   10.70
  -1  -6   8  161.58    8.90
  -1  -6   8  177.88    8.80
  -1  -6   8  165.58   11.00
  -1  -6   8  168.88    8.80
  -1  -6   8  169.38   11.10
   0   6  -8   57.09    6.70
   0   6  -8   62.69    5.60
   0   6  -8   57.79    7.00
   0   6  -8   66.29    6.30
   0   6  -8   76.19    7.90
   0   6  -8   61.09    6.50
   0   6  -8   48.60    7.40
   0  -6   8   63.39    5.70
   0  -6   8   57.89    7.90
   0  -6   8   62.89    5.80
   0  -6   8   53.69    7.20
   0  -6   8   52.09    6.00
   0  -6   8   75.59    8.20
  -1   6  -8   20.60    6.60
  -1   6  -8   15.00    7.00
  -1   6  -8   11.20    5.30
  -1   6  -8   12.80    6.30
  -1   6  -8   16.50    5.50
  -1   6  -8   17.60    5.70
  -1   6  -8   15.10    5.80
   1  -6   8   17.20    5.20
   1  -6   8   12.20    6.60
   1  -6   8   21.90    6.30
   1  -6   8   20.70    5.30
   1  -6   8   16.20    4.70
  -2   6  -8   18.60    7.90
  -2   6  -8    3.80    7.10
  -2   6  -8    8.70    5.70
  -2   6  -8   10.70    6.10
  -2   6  -8    8.60    5.60
  -2   6  -8    1.60    7.40
   2  -6   8   22.40    8.10
   2  -6   8    5.20    5.80
   2  -6   8   12.90    5.70
   2  -6   8   10.00    5.90
   2  -6   8   -0.10    7.90
   2  -6   8    7.80    4.40
  -3   6  -8   87.49   10.70
  -3   6  -8   76.29    9.40
  -3   6  -8   73.29    9.80
  -3   6  -8   76.69    6.80
  -3   6  -8   85.59   11.30
   3  -6   8   91.09    7.30
   3  -6   8   79.69    8.40
   3  -6   8  102.69   10.70
  -4   6  -8   -5.00   11.80
  -4   6  -8    8.20   10.40
  -4   6  -8    1.90   13.60
   4  -6   8   15.50    8.90
   4  -6   8   12.10   10.30
   4  -6   8   33.50   10.00
   4  -6   8   10.70    8.50
  -5   6  -8    2.40   16.20
  -5   6  -8   29.00   16.10
  -5   6  -8   27.40   19.70
   5  -6   8   11.70   11.60
   5  -6   8   16.10   13.20
   4   5  -8    2.90   12.80
   4   5  -8    0.60    7.60
   4   5  -8   12.10   10.60
   4   5  -8    6.90   13.20
  -4  -5   8  -19.10   11.20
  -4  -5   8   18.60    9.20
  -4  -5   8    2.10   10.30
   3   5  -8   87.79   10.50
   3   5  -8  105.19   12.60
   3   5  -8   90.59    9.30
   3   5  -8  101.39    9.10
  -3  -5   8   83.49    8.30
  -3  -5   8   93.09    9.70
  -3  -5   8   93.89    8.30
  -3  -5   8   66.19   12.80
   2   5  -8   62.19    7.10
   2   5  -8   69.19    7.60
   2   5  -8   56.99    8.20
  -2  -5   8   60.59    9.00
  -2  -5   8   62.39    6.40
  -2  -5   8   91.79    8.30
  -2  -5   8   46.90    9.40
  -2  -5   8   46.40    9.10
   1   5  -8  102.79    9.40
   1   5  -8  110.49    8.50
   1   5  -8   96.79    7.70
   1   5  -8   89.39    8.70
   1   5  -8   85.99    7.40
   1   5  -8  123.69    7.70
  -1  -5   8   88.69    7.10
  -1  -5   8  103.49    8.50
  -1  -5   8  110.99    8.00
  -1  -5   8   93.39    7.20
  -1  -5   8   94.59    7.70
   0   5  -8  766.52   18.00
   0   5  -8  749.33   16.40
   0   5  -8  743.23   18.40
   0   5  -8  741.13   17.40
   0   5  -8  747.03   16.90
   0   5  -8  746.93   17.10
   0   5  -8  768.02   16.70
   0  -5   8  782.42   16.40
   0  -5   8  759.42   18.10
   0  -5   8  777.52   17.30
   0  -5   8  763.72   18.20
   0  -5   8  759.02   16.90
   0  -5   8  751.82   16.10
  -1   5  -8   56.29    6.30
  -1   5  -8   59.19    6.00
  -1   5  -8   54.89    5.90
  -1   5  -8   52.89    5.60
  -1   5  -8   50.89    5.20
  -1   5  -8   37.80    6.30
  -1   5  -8   43.80    4.90
   1  -5   8   51.19    5.40
   1  -5   8   48.70    5.10
   1  -5   8   49.20    6.80
   1  -5   8   50.49    5.20
   1  -5   8   50.29    5.80
   1  -5   8   45.00    6.40
  -2   5  -8  236.78    8.70
  -2   5  -8  238.38   11.20
  -2   5  -8  254.17   12.10
  -2   5  -8  225.68    9.40
  -2   5  -8  229.78    9.00
  -2   5  -8  232.38   11.00
  -2   5  -8  227.98   11.50
   2  -5   8  229.18   11.70
   2  -5   8  231.58    9.60
   2  -5   8  218.38   11.20
   2  -5   8  230.58    9.40
   2  -5   8  235.98    9.50
  -3   5  -8   34.80    9.40
  -3   5  -8   47.00    7.00
  -3   5  -8   36.50    9.90
  -3   5  -8   46.70    6.00
  -3   5  -8   46.40    9.50
   3  -5   8   34.50    9.20
   3  -5   8   42.20    8.50
   3  -5   8   51.59    7.10
   3  -5   8   52.29   11.10
   3  -5   8   45.70    7.40
  -4   5  -8    8.10   11.90
  -4   5  -8    6.70   10.10
  -4   5  -8    8.70    8.30
  -4   5  -8    0.60    9.00
   4  -5   8    9.60    8.70
   4  -5   8  -16.20    9.00
  -5   5  -8   21.90   14.70
  -5   5  -8   16.50   14.70
  -5   5  -8   45.30   17.80
   5  -5   8   18.40   12.20
   5  -5   8  -11.70   11.00
   4   4  -8   30.20    7.40
   4   4  -8   11.80   10.80
   4   4  -8   23.60    9.10
  -4  -4   8   12.60    9.80
  -4  -4   8   37.50   20.50
  -4  -4   8   20.50    9.90
   3   4  -8    7.80    9.00
   3   4  -8   17.30   10.60
   3   4  -8   13.00    7.30
   3   4  -8    4.90    4.70
   3   4  -8   16.10    8.30
  -3  -4   8    9.60    7.10
  -3  -4   8    0.30   10.30
  -3  -4   8  -11.60   10.90
  -3  -4   8    1.10    6.10
  -3  -4   8   16.60    6.80
   2   4  -8   15.30    6.10
   2   4  -8   20.30    6.20
   2   4  -8    8.70    6.20
   2   4  -8    6.30    5.50
  -2  -4   8    6.90    4.90
  -2  -4   8    9.60    5.30
  -2  -4   8    4.20    4.90
  -2  -4   8   24.10    6.90
  -2  -4   8    2.40    7.00
  -2  -4   8    4.20    6.80
   1   4  -8  125.29    8.30
   1   4  -8  120.19    8.70
   1   4  -8  120.39    9.10
   1   4  -8  123.59    7.40
   1   4  -8  122.89    8.20
   1   4  -8  128.49    7.30
   1   4  -8  132.79    7.90
  -1  -4   8  126.29    9.10
  -1  -4   8  130.19    6.80
  -1  -4   8  122.99    7.50
  -1  -4   8  114.99    6.80
  -1  -4   8  111.09    8.00
  -1  -4   8  121.99    8.70
   0   4  -8  454.75   11.30
   0   4  -8  443.16   12.10
   0   4  -8  436.26   11.20
   0   4  -8  443.16   12.20
   0   4  -8  441.46   11.40
   0   4  -8  424.36   11.20
   0   4  -8  443.16   12.30
   0  -4   8  449.26   11.70
   0  -4   8  433.66   12.30
   0  -4   8  443.96   12.20
   0  -4   8  439.56   10.80
   0  -4   8  442.26   10.90
   0  -4   8  449.76   12.00
  -1   4  -8   59.59    5.60
  -1   4  -8   48.80    5.70
  -1   4  -8   52.19    5.90
  -1   4  -8   66.59    5.70
  -1   4  -8   53.49    4.70
  -1   4  -8   59.39    5.10
  -1   4  -8   43.70    6.10
   1  -4   8   68.69    5.90
   1  -4   8   58.59    5.50
   1  -4   8   57.69    5.10
   1  -4   8   53.89    4.80
   1  -4   8   70.99    6.80
   1  -4   8   53.49    5.90
   1  -4   8   52.59    4.70
  -2   4  -8    6.20    5.80
  -2   4  -8    3.40    4.50
  -2   4  -8    1.50    3.90
  -2   4  -8    2.20    5.90
  -2   4  -8   -3.60    5.60
  -2   4  -8    7.70    5.50
   2  -4   8   18.50    4.90
   2  -4   8   -1.30    5.10
   2  -4   8   12.50    5.00
   2  -4   8    1.20    6.30
   2  -4   8    6.30    4.30
   2  -4   8   12.60    6.30
  -3   4  -8   35.70    7.60
  -3   4  -8   34.80    7.00
  -3   4  -8   42.30    8.80
  -3   4  -8   21.70    7.50
  -3   4  -8   33.00    5.50
   3  -4   8   28.10    6.20
   3  -4   8   32.20    8.80
   3  -4   8   26.70    6.30
   3  -4   8   40.00    7.80
   3  -4   8   28.10    8.00
  -4   4  -8   -3.20    9.70
  -4   4  -8   28.00    9.40
  -4   4  -8   12.10    9.30
   4  -4   8   11.20   10.50
   4  -4   8   30.30    8.60
   4  -4   8    7.70    9.10
  -5   4  -8   -4.80   12.80
  -5   4  -8   13.30   13.50
  -5   4  -8   -0.90   16.00
   5  -4   8   -1.20   10.40
   5   3  -8    4.20   14.20
   5   3  -8   15.50   11.90
   5   3  -8   11.40   12.20
  -5  -3   8   17.30   13.50
  -5  -3   8   -7.90   13.90
   4   3  -8   18.30    8.60
   4   3  -8    5.20    7.30
   4   3  -8   -1.90   14.10
   4   3  -8    0.30    9.50
   4   3  -8    4.30   10.60
  -4  -3   8   19.80   14.20
  -4  -3   8   18.90    8.80
  -4  -3   8   17.50    9.20
  -4  -3   8    6.00    9.10
  -4  -3   8   15.20   14.80
   3   3  -8   22.10    9.70
   3   3  -8    9.90    5.00
   3   3  -8   18.10    6.60
   3   3  -8   20.80    7.20
   3   3  -8   26.30    8.30
  -3  -3   8   18.00    9.40
  -3  -3   8   18.30    6.40
  -3  -3   8   13.30    6.70
  -3  -3   8   13.40    9.20
  -3  -3   8   21.00    5.90
   2   3  -8   14.70    6.00
   2   3  -8   26.70    6.20
   2   3  -8    5.80    6.20
   2   3  -8   17.60    3.50
   2   3  -8    9.80    5.20
   2   3  -8    7.60    5.50
  -2  -3   8    4.90    6.40
  -2  -3   8   14.90    4.80
  -2  -3   8   16.30    5.00
  -2  -3   8   25.00    7.10
  -2  -3   8    1.60    6.50
  -2  -3   8    6.50    5.10
   1   3  -8   59.39    6.10
   1   3  -8   60.89    6.10
   1   3  -8   52.79    5.50
   1   3  -8   63.89    5.20
   1   3  -8   52.79    6.10
   1   3  -8   60.89    5.10
  -1  -3   8   56.79    5.60
  -1  -3   8   50.69    5.50
  -1  -3   8   56.19    5.40
  -1  -3   8   56.39    5.70
  -1  -3   8   61.19    5.90
  -1  -3   8   57.99    5.60
   0   3  -8  108.59    6.70
   0   3  -8  113.69    6.10
   0   3  -8  106.29    6.80
   0   3  -8  113.79    6.20
   0   3  -8  112.19    7.50
   0   3  -8  114.09    6.60
   0   3  -8  109.89    6.10
   0  -3   8  111.59    5.40
   0  -3   8  118.19    6.90
   0  -3   8  109.89    5.50
   0  -3   8  119.39    6.50
   0  -3   8  114.19    6.70
   0  -3   8  117.29    6.90
  -1   3  -8   70.29    5.70
  -1   3  -8   76.49    7.60
  -1   3  -8   66.79    5.20
  -1   3  -8   75.79    7.40
  -1   3  -8   77.79    6.40
  -1   3  -8   70.29    7.10
  -1   3  -8   70.29    5.70
   1  -3   8   78.19    7.10
   1  -3   8   72.89    5.50
   1  -3   8   65.09    6.80
   1  -3   8   64.29    6.10
   1  -3   8   70.69    5.70
   1  -3   8   67.49    6.20
   1  -3   8   75.19    7.10
  -2   3  -8  129.59    6.60
  -2   3  -8  117.09    8.80
  -2   3  -8  117.09    6.40
  -2   3  -8  117.49    8.20
   2  -3   8  127.89    7.60
   2  -3   8  123.79    9.10
   2  -3   8  118.49    7.20
   2  -3   8  124.69    7.80
   2  -3   8  133.19    9.00
   2  -3   8  116.29    6.70
   2  -3   8  113.19    8.90
  -3   3  -8  157.98   10.90
  -3   3  -8  159.08   11.70
  -3   3  -8  158.18   10.20
  -3   3  -8  124.29    8.90
  -3   3  -8  141.89   10.70
  -3   3  -8  139.39    8.50
   3  -3   8  156.48    9.70
   3  -3   8  181.08    9.40
   3  -3   8  127.49   11.40
   3  -3   8  145.49    9.20
   3  -3   8  138.19   11.20
  -4   3  -8   85.89   10.30
  -4   3  -8   66.99    9.30
  -4   3  -8   52.39   11.90
  -4   3  -8   83.79    7.90
   4  -3   8   71.29    8.70
   4  -3   8   67.89    9.40
   4  -3   8   81.99   12.60
  -5   3  -8    5.10   12.10
  -5   3  -8  -11.70   15.10
  -5   3  -8   30.30   11.60
   5  -3   8   19.30   12.20
   5  -3   8   17.30   10.50
   5   2  -8    2.60   11.30
   5   2  -8    2.10   13.20
   5   2  -8    2.70   10.60
  -5  -2   8   13.50   13.50
  -5  -2   8  -13.80   14.70
  -5  -2   8    3.60   13.40
   4   2  -8   13.70   10.90
   4   2  -8   10.80    7.40
   4   2  -8    6.80    8.80
   4   2  -8    8.60    8.50
  -4  -2   8   23.50   12.60
  -4  -2   8   24.30    8.80
  -4  -2   8   12.30    8.70
  -4  -2   8    0.90    8.20
  -4  -2   8   -1.50   13.60
   3   2  -8   65.39    9.50
   3   2  -8   63.19    5.70
   3   2  -8   73.39    6.70
   3   2  -8   60.49    8.30
  -3  -2   8   73.09    6.70
  -3  -2   8   70.19    6.90
  -3  -2   8   53.79    9.20
  -3  -2   8   58.89    9.50
  -3  -2   8   60.09    6.80
   2   2  -8   59.69    5.30
   2   2  -8   54.39    6.40
   2   2  -8   66.99    5.70
   2   2  -8   68.09    7.20
   2   2  -8   68.59    6.40
   2   2  -8   71.59    6.50
  -2  -2   8   69.29    5.70
  -2  -2   8   70.19    7.00
  -2  -2   8   59.19    5.40
  -2  -2   8   63.19    6.90
   1   2  -8  340.87    9.90
   1   2  -8  348.17   10.00
   1   2  -8  350.56   10.70
   1   2  -8  350.46    9.70
   1   2  -8  344.37   10.00
   1   2  -8  347.57    9.40
   1   2  -8  342.87    9.50
  -1  -2   8  346.67    8.90
  -1  -2   8  337.97   10.20
  -1  -2   8  345.57    9.30
  -1  -2   8  335.77   10.00
  -1  -2   8  355.16    9.80
  -1  -2   8  333.27    8.10
  -1  -2   8  357.56   10.50
   0   2  -8  252.77    8.90
   0   2  -8  248.28    7.90
   0   2  -8  259.47    7.30
   0   2  -8  246.68    8.40
   0   2  -8  252.57    8.10
   0   2  -8  247.88    7.70
   0   2  -8  249.68    7.60
   0  -2   8  247.78    8.00
   0  -2   8  252.97    6.30
   0  -2   8  256.87    8.40
   0  -2   8  253.67    8.30
   0  -2   8  253.87    7.60
   0  -2   8  244.98    8.10
   0  -2   8  247.48    7.00
  -1   2  -8  385.06   11.00
  -1   2  -8  394.66   10.00
  -1   2  -8  396.86    9.30
  -1   2  -8  406.76   10.80
  -1   2  -8  402.36   10.90
  -1   2  -8  394.46   10.60
  -1   2  -8  397.16    9.70
   1  -2   8  400.36   11.10
   1  -2   8  381.06   11.00
   1  -2   8  401.66   10.30
   1  -2   8  389.26    9.50
   1  -2   8  400.96   10.20
   1  -2   8  389.56    9.90
  -2   2  -8   84.59    5.70
  -2   2  -8   91.89    7.80
  -2   2  -8   85.79    7.70
  -2   2  -8   77.39    7.20
  -2   2  -8   83.19    5.70
  -2   2  -8   79.69    7.90
   2  -2   8   75.49    7.70
   2  -2   8   76.69    7.70
   2  -2   8   79.09    6.90
   2  -2   8   80.49    6.40
   2  -2   8   72.19    6.40
   2  -2   8   84.59    6.30
   2  -2   8   74.49    7.80
  -3   2  -8   88.29    9.00
  -3   2  -8   83.09    7.70
  -3   2  -8   79.39    7.90
   3  -2   8   88.49    8.30
   3  -2   8   83.89    7.80
   3  -2   8   81.19    7.20
   3  -2   8   97.69    8.00
   3  -2   8   96.59    9.90
  -4   2  -8   -1.40    8.40
  -4   2  -8  -12.10    7.80
  -4   2  -8    2.80    6.40
  -4   2  -8   -4.40    7.60
   4  -2   8   -3.00    9.90
   4  -2   8    0.20    7.50
   4  -2   8   -2.00    7.30
  -5   2  -8    1.70   11.70
  -5   2  -8    1.80   11.10
  -5   2  -8  -22.50   12.30
  -5   2  -8   -1.60   11.10
   5  -2   8   13.80   10.80
   5  -2   8   -5.60   10.10
  -6   2  -8    1.30   18.50
   6  -2   8   21.80   15.50
   5   1  -8   16.70   11.70
   5   1  -8   37.00   12.70
  -5  -1   8   31.50   13.80
  -5  -1   8    9.00   12.00
  -5  -1   8   25.80   13.20
   4   1  -8    6.30    7.30
   4   1  -8    9.90    8.50
   4   1  -8   10.70    6.80
   4   1  -8   11.30   10.70
  -4  -1   8    9.00    8.90
  -4  -1   8    6.20    8.80
  -4  -1   8   19.90   12.30
  -4  -1   8    7.10   10.30
  -4  -1   8   -0.80    7.70
   3   1  -8  128.49    7.80
   3   1  -8  131.09   12.10
   3   1  -8  147.09    9.80
   3   1  -8  131.89    8.30
   3   1  -8  137.89   10.40
   3   1  -8  115.69   11.70
  -3  -1   8  131.19    8.50
  -3  -1   8  136.39    9.30
  -3  -1   8  132.09   10.40
  -3  -1   8  126.89   10.70
   2   1  -8    1.60    5.30
   2   1  -8    7.10    5.40
   2   1  -8    8.10    5.20
   2   1  -8    9.10    4.80
   2   1  -8    4.40    3.30
   2   1  -8    6.70    4.30
  -2  -1   8    0.70    5.20
  -2  -1   8    7.50    5.70
  -2  -1   8    9.40    4.50
  -2  -1   8   10.20    4.20
  -2  -1   8    7.40    4.00
  -2  -1   8   -1.20    5.40
   1   1  -8    8.40    3.80
   1   1  -8   15.30    3.90
   1   1  -8    4.80    3.70
   1   1  -8   12.20    3.90
   1   1  -8    5.20    3.80
   1   1  -8   10.40    3.20
   1   1  -8   11.20    4.70
  -1  -1   8    7.80    4.10
  -1  -1   8    8.70    3.60
  -1  -1   8   16.60    3.90
  -1  -1   8    8.80    3.30
  -1  -1   8   21.70    4.30
  -1  -1   8    9.70    4.50
  -1  -1   8    7.40    3.00
   0   1  -8   47.10    4.20
   0   1  -8   49.60    5.00
   0   1  -8   47.60    3.80
   0   1  -8   36.80    3.50
   0   1  -8   46.40    4.10
   0   1  -8   41.50    4.20
   0   1  -8   44.80    4.50
   0  -1   8   36.60    3.70
   0  -1   8   38.50    3.80
   0  -1   8   45.40    4.20
   0  -1   8   41.00    4.10
   0  -1   8   43.60    4.20
   0  -1   8   43.70    4.30
   0  -1   8   38.50    4.10
  -1   1  -8    5.90    3.80
  -1   1  -8    5.50    3.90
  -1   1  -8    4.90    3.80
  -1   1  -8    0.50    3.80
  -1   1  -8    5.80    3.00
  -1   1  -8    8.70    2.70
   1  -1   8    5.10    2.70
   1  -1   8    2.40    3.40
   1  -1   8    4.20    3.40
   1  -1   8    4.70    2.90
   1  -1   8    2.40    4.00
   1  -1   8   -0.20    3.80
   1  -1   8    4.50    3.70
  -2   1  -8   19.10    5.10
  -2   1  -8   20.60    4.50
  -2   1  -8   31.00    4.70
  -2   1  -8   24.20    4.70
  -2   1  -8   30.40    3.70
  -2   1  -8   27.10    3.90
   2  -1   8   19.50    4.30
   2  -1   8   28.40    4.00
   2  -1   8   29.00    4.50
   2  -1   8   18.20    5.00
   2  -1   8   35.00    5.10
   2  -1   8   23.20    4.40
   2  -1   8   24.40    5.30
  -3   1  -8   48.50    7.30
  -3   1  -8   48.30    5.30
  -3   1  -8   44.50    5.10
  -3   1  -8   48.90    6.80
  -3   1  -8   40.50    6.30
  -3   1  -8   44.90    6.50
   3  -1   8   38.70    7.30
   3  -1   8   46.10    5.80
   3  -1   8   52.09    8.80
   3  -1   8   50.89    5.70
   3  -1   8   41.90    6.80
   3  -1   8   52.09    7.00
  -4   1  -8   62.99    7.30
  -4   1  -8   42.40    8.40
  -4   1  -8   55.59    8.40
  -4   1  -8   51.89   10.00
   4  -1   8   52.99    9.90
   4  -1   8   46.00    8.10
   4  -1   8   64.39    7.70
   4  -1   8   59.39   10.00
  -5   1  -8   29.10   11.20
  -5   1  -8   34.10   10.20
  -5   1  -8   27.80   10.80
  -5   1  -8   34.00   13.70
   5  -1   8   27.20    9.60
   5  -1   8   11.00   10.10
   5  -1   8   25.80    9.80
  -6   1  -8    2.40   16.00
   6  -1   8   18.00   14.50
   5   0  -8   15.10   12.50
   5   0  -8   25.70   11.50
  -5   0   8   -3.10   12.70
  -5   0   8  -23.90   13.00
  -5   0   8    7.80   12.50
   4   0  -8   18.80    7.60
   4   0  -8   17.40    8.10
   4   0  -8   15.30    5.90
   4   0  -8    8.90   10.50
  -4   0   8   16.90    8.30
  -4   0   8   15.30    8.50
  -4   0   8   22.50   11.60
  -4   0   8    6.80    9.60
  -4   0   8   27.80    8.70
   3   0  -8    7.00    4.90
   3   0  -8   -3.20    7.00
   3   0  -8    4.10    5.00
   3   0  -8    6.70    5.00
   3   0  -8   -5.20    8.00
   3   0  -8   -8.10    5.50
  -3   0   8    5.60    7.70
  -3   0   8   12.60    8.10
  -3   0   8   17.00    5.70
  -3   0   8    5.40    6.70
  -3   0   8    4.20    5.90
   2   0  -8    2.20    3.50
   2   0  -8    9.80    3.80
   2   0  -8    5.90    5.20
   2   0  -8   13.80    4.50
   2   0  -8    8.80    5.00
   2   0  -8   10.80    5.20
   2   0  -8    7.70    3.80
  -2   0   8   15.70    5.30
  -2   0   8   10.70    4.30
  -2   0   8   14.00    4.70
  -2   0   8   14.20    5.20
  -2   0   8    5.10    4.90
  -2   0   8   12.60    3.90
   1   0  -8  572.24   13.50
   1   0  -8  575.14   13.30
   1   0  -8  570.14   12.70
   1   0  -8  581.54   13.00
   1   0  -8  569.14   12.80
   1   0  -8  568.04   11.40
   1   0  -8  583.64   12.80
  -1   0   8  573.64   13.00
  -1   0   8  572.64   12.20
  -1   0   8  584.34   12.20
  -1   0   8  582.94   13.10
  -1   0   8  567.84   12.40
  -1   0   8  551.94   13.40
  -1   0   8  569.94   13.00
   0   0  -8   15.20    2.90
   0   0  -8    2.70    3.40
   0   0  -8    6.50    3.40
   0   0  -8   11.40    4.00
   0   0   8    8.60    3.70
   0   0   8    7.70    3.40
   0   0   8   11.50    3.40
   0   0   8    9.40    3.30
   0   0   8   14.60    2.80
   0   0   8    7.10    2.90
  -1   0  -8   59.79    5.60
  -1   0  -8   57.59    5.50
  -1   0  -8   58.59    5.30
  -1   0  -8   55.79    3.90
  -1   0  -8   62.19    5.00
  -1   0  -8   61.99    4.40
   1   0   8   57.69    4.70
   1   0   8   55.69    5.60
   1   0   8   51.69    4.90
   1   0   8   59.09    4.70
   1   0   8   56.69    4.20
   1   0   8   58.99    5.10
   1   0   8   56.39    4.70
  -2   0  -8   68.09    7.10
  -2   0  -8   74.59    6.70
  -2   0  -8   53.69    5.10
  -2   0  -8   58.49    5.00
  -2   0  -8   59.29    6.10
  -2   0  -8   58.69    5.60
   2   0   8   62.79    5.40
   2   0   8   66.39    7.20
   2   0   8   62.49    5.20
   2   0   8   59.19    5.80
   2   0   8   74.99    6.70
   2   0   8   58.69    5.50
   2   0   8   61.49    5.50
  -3   0  -8  110.69    8.90
  -3   0  -8   98.39    8.70
  -3   0  -8   95.59    9.80
  -3   0  -8  106.79    7.20
  -3   0  -8   97.29    9.10
  -3   0  -8  116.09    7.10
   3   0   8  103.69    7.60
   3   0   8  104.39    8.00
   3   0   8  113.39    7.80
   3   0   8  122.09    9.20
   3   0   8  105.19   10.00
   3   0   8   96.69    7.20
  -4   0  -8   28.70    7.70
  -4   0  -8   20.10    8.10
  -4   0  -8   19.40    7.40
  -4   0  -8   31.50    6.90
   4   0   8   26.90    8.80
   4   0   8   25.50    7.20
   4   0   8   30.00    7.70
   4   0   8   27.60    9.80
  -5   0  -8   15.20   13.40
  -5   0  -8   43.70   10.80
  -5   0  -8   14.60   10.60
  -5   0  -8   14.70   12.70
   5   0   8   26.00   10.30
   5   0   8   13.30    9.90
  -6   0  -8   73.79   17.40
  -6   0  -8   86.69   23.00
  -6   0  -8   77.69   17.70
   6   0   8   80.19   17.20
   6   0   8   96.19   16.00
   5  -1  -8   31.10   11.70
   5  -1  -8   -6.80   11.60
  -5   1   8   15.80   13.30
  -5   1   8    3.40   12.50
  -5   1   8   -4.60   12.50
   4  -1  -8   13.50    9.50
   4  -1  -8    2.10    7.20
   4  -1  -8    3.70   10.80
   4  -1  -8   -2.80    8.30
  -4   1   8    3.70    8.50
  -4   1   8   19.10    8.50
  -4   1   8    8.90   11.30
  -4   1   8   -6.50    9.20
  -4   1   8   12.90    7.40
   3  -1  -8   38.00    4.90
   3  -1  -8   45.00    5.90
   3  -1  -8   37.10    6.90
   3  -1  -8   54.99    8.70
   3  -1  -8   32.60    6.00
   3  -1  -8   34.80    6.70
  -3   1   8   31.70    6.00
  -3   1   8   41.20    7.60
  -3   1   8   40.90    6.60
  -3   1   8   41.70    8.00
  -3   1   8   37.70    6.30
  -3   1   8   39.00    5.70
   2  -1  -8  151.98    8.70
   2  -1  -8  146.39    6.60
   2  -1  -8  144.19    8.40
   2  -1  -8  154.18    6.70
   2  -1  -8  147.99    7.60
  -2   1   8  132.99    7.80
  -2   1   8  145.69    7.50
  -2   1   8  155.98    6.60
  -2   1   8  138.29    7.50
  -2   1   8  145.29    8.20
  -2   1   8  162.68    7.10
  -2   1   8  140.99    8.40
   1  -1  -8   35.50    4.00
   1  -1  -8   39.10    4.80
   1  -1  -8   37.80    4.00
   1  -1  -8   31.70    4.30
   1  -1  -8   25.70    3.70
  -1   1   8   30.50    3.60
  -1   1   8   35.60    4.30
  -1   1   8   27.80    4.00
  -1   1   8   36.30    4.40
  -1   1   8   30.00    4.30
  -1   1   8   35.60    3.40
   0  -1  -8  596.64   13.00
   0  -1  -8  609.64   12.30
   0  -1  -8  622.74   13.70
   0  -1  -8  599.84   13.30
   0  -1  -8  615.84   11.90
   0  -1  -8  607.54   12.40
   0   1   8  622.44   13.10
   0   1   8  586.84   13.00
   0   1   8  611.84   13.50
   0   1   8  611.04   12.50
   0   1   8  630.04   12.50
   0   1   8  619.74   12.30
   0   1   8  607.14   13.30
  -1  -1  -8    5.40    3.60
  -1  -1  -8    2.00    2.50
  -1  -1  -8    4.10    3.80
  -1  -1  -8    2.70    2.70
  -1  -1  -8    6.90    3.10
  -1  -1  -8    5.50    3.20
   1   1   8    5.70    2.90
   1   1   8    4.70    3.20
   1   1   8    2.90    3.50
   1   1   8    7.60    2.90
   1   1   8    5.60    4.00
   1   1   8    4.70    2.90
   1   1   8    5.00    3.40
  -2  -1  -8   34.30    4.70
  -2  -1  -8   35.20    4.80
  -2  -1  -8   36.40    3.60
  -2  -1  -8   42.40    4.90
  -2  -1  -8   34.10    3.50
  -2  -1  -8   29.40    4.70
   2   1   8   35.00    4.20
   2   1   8   33.10    4.20
   2   1   8   40.00    4.60
   2   1   8   33.00    5.70
   2   1   8   31.90    4.80
   2   1   8   35.90    4.70
  -3  -1  -8   41.20    6.40
  -3  -1  -8   45.50    4.80
  -3  -1  -8   49.00    6.60
  -3  -1  -8   39.40    6.00
  -3  -1  -8   44.90    6.00
  -3  -1  -8   43.30    4.80
   3   1   8   43.20    6.90
   3   1   8   41.40    4.90
   3   1   8   49.50    6.80
   3   1   8   38.10    6.90
   3   1   8   45.20    6.40
   3   1   8   45.30    5.70
  -4  -1  -8   11.00    6.70
  -4  -1  -8    5.30    8.40
  -4  -1  -8   14.40    8.00
   4   1   8   10.50    9.40
   4   1   8   17.20    6.80
   4   1   8   15.70    8.30
   4   1   8   10.10    7.10
  -5  -1  -8   67.89   13.40
  -5  -1  -8   56.39   10.60
  -5  -1  -8   54.09   11.20
  -5  -1  -8   73.89   11.50
   5   1   8   63.69   10.80
   5   1   8   64.09   11.30
   5   1   8   50.99   14.90
  -6  -1  -8   47.40   16.00
  -6  -1  -8   23.50   15.10
   6   1   8   27.90   16.40
   6   1   8   21.50   14.90
   5  -2  -8   33.90   11.40
   5  -2  -8   11.00   11.40
  -5   2   8   15.80   11.90
  -5   2   8    4.50   14.30
  -5   2   8   18.60   12.20
   4  -2  -8   84.59    8.80
   4  -2  -8   73.49    8.00
   4  -2  -8   56.59    9.50
  -4   2   8   41.30   11.70
  -4   2   8   71.19    9.70
  -4   2   8   84.59    8.60
  -4   2   8   65.29    9.30
   3  -2  -8   -1.20    7.30
   3  -2  -8   18.60    5.70
   3  -2  -8   28.10    5.40
  -3   2   8   13.60    7.90
  -3   2   8   19.20    8.20
  -3   2   8   20.90    7.80
  -3   2   8   19.10    6.60
   2  -2  -8  289.77   10.40
   2  -2  -8  297.47    8.90
   2  -2  -8  291.77    9.70
   2  -2  -8  286.77    8.80
   2  -2  -8  303.17   10.10
  -2   2   8  297.47    9.00
  -2   2   8  268.17   10.40
  -2   2   8  282.07   10.00
  -2   2   8  292.77    8.40
  -2   2   8  287.97   10.00
  -2   2   8  277.37   10.50
  -2   2   8  301.77   10.20
   1  -2  -8   95.79    6.50
   1  -2  -8   77.79    6.20
   1  -2  -8   89.09    5.30
   1  -2  -8   99.69    5.50
   1  -2  -8   89.69    5.50
  -1   2   8   95.49    5.90
  -1   2   8   99.59    5.20
  -1   2   8   91.29    6.00
  -1   2   8   93.99    6.20
  -1   2   8   92.69    4.60
  -1   2   8   92.99    6.00
   0  -2  -8   37.20    3.40
   0  -2  -8   32.00    2.80
   0  -2  -8   34.10    4.20
   0  -2  -8   33.40    3.70
   0  -2  -8   39.30    4.00
   0   2   8   28.00    3.90
   0   2   8   31.50    4.00
   0   2   8   35.30    3.00
   0   2   8   29.50    3.10
   0   2   8   34.50    3.70
   0   2   8   30.20    4.10
  -1  -2  -8  362.76    8.20
  -1  -2  -8  357.16    9.50
  -1  -2  -8  344.87    8.90
  -1  -2  -8  359.16    9.40
  -1  -2  -8  364.46    8.40
   1   2   8  363.36    9.90
   1   2   8  367.16    8.70
   1   2   8  367.06    8.80
   1   2   8  351.56    9.50
   1   2   8  355.26    8.70
   1   2   8  364.56    9.60
  -2  -2  -8  389.06   11.20
  -2  -2  -8  378.26   10.50
  -2  -2  -8  386.06    9.40
  -2  -2  -8  391.76   10.70
  -2  -2  -8  385.36    9.30
  -2  -2  -8  391.46   10.90
   2   2   8  380.46   11.10
   2   2   8  381.26    9.90
   2   2   8  378.56   10.90
   2   2   8  378.26   11.30
   2   2   8  383.46   10.10
  -3  -2  -8   12.80    4.60
  -3  -2  -8    6.80    4.10
  -3  -2  -8   12.70    5.50
  -3  -2  -8    0.40    5.70
  -3  -2  -8    3.60    5.40
  -3  -2  -8   11.60    6.20
   3   2   8    0.50    5.70
   3   2   8   10.70    5.90
   3   2   8   18.40    5.10
   3   2   8   -6.80    6.10
   3   2   8    6.30    4.90
  -4  -2  -8   78.59    8.50
  -4  -2  -8   64.09    9.00
  -4  -2  -8   70.09    7.70
   4   2   8   74.99    9.60
   4   2   8   72.29    7.70
   4   2   8   80.99    8.30
   4   2   8   88.09   10.70
  -5  -2  -8    5.70   11.10
  -5  -2  -8   20.40    9.90
   5   2   8   27.40   10.50
   5   2   8   48.10   14.10
   5   2   8   12.60   10.80
  -6  -2  -8    1.50   16.30
  -6  -2  -8   19.00   17.00
   6   2   8    9.60   16.00
   6   2   8   -9.20   14.70
   6   2   8    4.40   13.00
   5  -3  -8   -6.50   13.30
  -5   3   8  -10.30   11.70
  -5   3   8    8.10   13.70
  -5   3   8  -18.20   14.30
   4  -3  -8   43.10    9.10
   4  -3  -8   50.09    7.10
   4  -3  -8   43.80    9.90
  -4   3   8   62.59    8.90
  -4   3   8   35.00   11.40
  -4   3   8   48.20    7.80
  -4   3   8   30.90    9.60
   3  -3  -8   31.60    7.30
   3  -3  -8   26.30    5.30
  -3   3   8   25.60    6.10
  -3   3   8   20.50    5.20
  -3   3   8   25.80    8.10
  -3   3   8   17.80    5.80
  -3   3   8   26.80    5.80
  -3   3   8    4.70    8.20
   2  -3  -8 1734.43   31.30
   2  -3  -8 1669.63   32.20
   2  -3  -8 1700.63   31.80
   2  -3  -8 1712.13   31.00
  -2   3   8 1703.03   32.30
  -2   3   8 1720.53   31.70
  -2   3   8 1755.52   32.90
  -2   3   8 1706.03   31.50
  -2   3   8 1676.13   31.00
  -2   3   8 1733.73   32.10
  -2   3   8 1675.63   32.80
   1  -3  -8  118.09    5.50
   1  -3  -8  130.49    5.50
   1  -3  -8  119.99    5.40
   1  -3  -8  114.49    7.60
  -1   3   8  109.59    6.90
  -1   3   8  119.79    6.30
  -1   3   8  122.39    6.40
  -1   3   8  127.99    5.40
  -1   3   8  115.59    6.60
  -1   3   8  123.09    4.80
   0  -3  -8   33.30    3.50
   0  -3  -8   28.50    4.10
   0  -3  -8   32.70    2.90
   0  -3  -8   26.10    2.80
   0   3   8   29.80    3.10
   0   3   8   31.40    3.80
   0   3   8   36.00    4.10
   0   3   8   33.60    3.90
   0   3   8   23.60    2.80
   0   3   8   31.60    3.90
   0   3   8   29.50    3.60
  -1  -3  -8  864.61   17.50
  -1  -3  -8  855.21   17.50
  -1  -3  -8  858.51   16.20
  -1  -3  -8  849.32   16.10
  -1  -3  -8  884.61   17.10
   1   3   8  835.52   17.50
   1   3   8  866.01   16.70
   1   3   8  849.72   16.80
   1   3   8  828.62   17.80
   1   3   8  850.21   16.70
  -2  -3  -8  228.88    7.20
  -2  -3  -8  210.28    8.10
  -2  -3  -8  217.18    8.80
  -2  -3  -8  228.28    8.20
   2   3   8  213.08    7.90
   2   3   8  230.68    8.10
   2   3   8  219.78    8.90
   2   3   8  213.38    9.10
   2   3   8  212.28    8.90
  -3  -3  -8    4.40    5.70
  -3  -3  -8    3.60    4.60
  -3  -3  -8    4.60    3.80
  -3  -3  -8    4.00    4.90
   3   3   8    9.70    6.10
   3   3   8    6.30    5.90
   3   3   8   16.30    6.40
   3   3   8    0.60    4.60
   3   3   8   -0.30    4.90
   3   3   8   10.70    6.10
  -4  -3  -8   13.20    7.90
  -4  -3  -8    4.10    7.00
  -4  -3  -8   23.80    8.00
  -4  -3  -8   13.70    8.10
  -4  -3  -8   13.80    6.30
   4   3   8   27.10   10.10
   4   3   8    1.70    7.20
   4   3   8   13.30    7.20
   4   3   8   19.50    8.60
  -5  -3  -8   12.20   10.10
  -5  -3  -8    0.30    9.70
   5   3   8    2.20   10.10
   5   3   8   -0.70   13.80
   5   3   8   17.70   10.60
  -6  -3  -8   18.60   15.80
  -6  -3  -8   -0.30   17.90
   6   3   8   23.30   16.30
   6   3   8   -0.70   14.60
   5  -4  -8   31.00   14.40
  -5   4   8   -1.80   14.60
   4  -4  -8    8.50    8.10
  -4   4   8   21.20    9.00
  -4   4   8   32.00    9.30
  -4   4   8   13.10    7.10
   3  -4  -8   10.10    6.50
   3  -4  -8   19.20    6.00
  -3   4   8   23.00    6.30
  -3   4   8    4.70    7.80
  -3   4   8   15.90    6.20
  -3   4   8    4.00    7.40
  -3   4   8   21.60    5.10
   2  -4  -8   23.90    5.30
   2  -4  -8   30.80    5.60
   2  -4  -8   35.30    5.30
  -2   4   8   25.60    4.90
  -2   4   8   23.80    6.10
  -2   4   8   28.00    5.40
  -2   4   8   37.90    4.70
  -2   4   8   38.80    5.80
  -2   4   8   32.40    4.00
  -2   4   8   31.70    5.80
   1  -4  -8  172.18    7.00
  -1   4   8  172.68    7.00
  -1   4   8  174.68    6.80
  -1   4   8  157.48    7.60
  -1   4   8  168.28    5.50
  -1   4   8  170.68    6.10
  -1   4   8  162.08    7.80
  -1   4   8  174.78    7.60
   0  -4  -8   99.49    5.00
   0  -4  -8  124.09    6.80
   0  -4  -8  114.69    5.80
   0   4   8  115.09    6.20
   0   4   8  115.79    4.60
   0   4   8  110.89    5.80
   0   4   8  120.29    5.70
   0   4   8  109.29    4.90
   0   4   8  125.49    6.50
  -1  -4  -8  105.39    4.40
  -1  -4  -8  110.09    5.30
  -1  -4  -8  111.49    6.30
   1   4   8  107.89    6.60
   1   4   8  107.89    7.10
   1   4   8   93.19    6.30
   1   4   8  107.09    5.20
   1   4   8  108.69    5.20
   1   4   8   95.09    6.10
  -2  -4  -8  424.26   11.20
  -2  -4  -8  428.16   11.70
  -2  -4  -8  429.76    9.80
  -2  -4  -8  445.46   11.10
  -2  -4  -8  445.76   10.30
   2   4   8  419.76   12.00
   2   4   8  407.16   11.70
   2   4   8  435.16   12.40
   2   4   8  441.16   11.00
   2   4   8  443.96   11.20
   2   4   8  421.56   12.00
  -3  -4  -8   -7.10    5.80
  -3  -4  -8    0.40    5.40
  -3  -4  -8    0.20    4.90
  -3  -4  -8    3.60    4.10
   3   4   8    9.90    5.10
   3   4   8   -2.80    5.60
   3   4   8    2.70    4.90
   3   4   8   -3.50    6.60
   3   4   8   -4.40    6.80
   3   4   8    1.50    6.20
  -4  -4  -8    6.90    8.30
  -4  -4  -8   14.60    6.50
  -4  -4  -8    7.80    7.20
  -4  -4  -8    9.30    7.40
   4   4   8   -0.60   10.30
   4   4   8   18.20    7.40
   4   4   8    6.10   10.80
  -5  -4  -8   18.20    9.90
  -5  -4  -8   12.90   11.00
   5   4   8   17.50   11.30
   5   4   8   -3.60   15.30
   5   4   8    6.90   10.50
  -6  -4  -8  -14.70   16.50
   6   4   8    8.80   17.20
   6   4   8   27.20   16.00
   4  -5  -8    2.80    9.00
  -4   5   8    3.00    7.30
  -4   5   8   13.50    9.30
  -4   5   8   25.80   11.00
   3  -5  -8   55.69    7.00
   3  -5  -8   48.80    7.10
  -3   5   8   53.59    6.70
  -3   5   8   37.80    8.60
  -3   5   8   58.49    7.40
  -3   5   8   45.40    5.60
  -3   5   8   42.60    7.90
   2  -5  -8  151.98    7.90
   2  -5  -8  143.99    8.20
   2  -5  -8  147.49    7.80
  -2   5   8  147.29   10.10
  -2   5   8  159.08    7.50
  -2   5   8  146.59    8.60
  -2   5   8  142.79    7.60
  -2   5   8  139.49    8.10
  -2   5   8  131.59    6.00
  -2   5   8  134.59    8.80
   1  -5  -8   93.79    6.10
   1  -5  -8   98.09    5.60
  -1   5   8   97.49    4.40
  -1   5   8  106.29    7.30
  -1   5   8  105.39    5.20
  -1   5   8  107.99    6.80
  -1   5   8   96.79    7.40
  -1   5   8   84.69    7.30
  -1   5   8   96.49    6.70
   0  -5  -8  141.09    6.20
   0  -5  -8  144.29    5.00
   0  -5  -8  140.69    7.40
   0   5   8  146.29    5.00
   0   5   8  143.99    5.30
   0   5   8  150.08    6.20
   0   5   8  143.69    6.80
   0   5   8  141.29    7.10
   0   5   8  145.09    6.30
  -1  -5  -8  128.39    7.20
  -1  -5  -8  126.19    6.40
   1   5   8  131.69    7.00
   1   5   8  129.19    7.20
   1   5   8  127.39    5.80
   1   5   8  127.09    6.90
   1   5   8  119.79    6.70
   1   5   8  130.89    5.50
  -2  -5  -8  137.69    6.70
  -2  -5  -8  125.09    5.80
  -2  -5  -8  141.49    7.90
  -2  -5  -8  120.29    5.20
  -2  -5  -8  134.59    7.20
   2   5   8  136.89    7.00
   2   5   8  140.69    8.10
   2   5   8  132.69    8.20
   2   5   8  121.79    6.60
   2   5   8  124.79    9.20
   2   5   8  133.79    8.30
  -3  -5  -8    9.50    6.70
  -3  -5  -8   11.30    4.10
  -3  -5  -8   13.50    5.30
  -3  -5  -8    8.80    5.00
   3   5   8   19.00    8.20
   3   5   8    6.10    5.70
   3   5   8    7.60    6.10
   3   5   8   17.60    6.90
   3   5   8    5.80    5.30
   3   5   8   13.20    6.90
  -4  -5  -8   53.89    6.80
  -4  -5  -8   62.49    8.70
  -4  -5  -8   43.20    7.70
   4   5   8   25.00   10.40
   4   5   8   25.50    7.90
   4   5   8   41.80    8.30
  -5  -5  -8   24.20   12.00
  -5  -5  -8   12.40   10.90
   5   5   8   20.90   11.90
   5   5   8    8.70   10.90
   4  -6  -8   -4.90   10.00
  -4   6   8   12.50    8.10
  -4   6   8   13.70   11.60
  -4   6   8   13.60   10.20
   3  -6  -8    7.70    6.90
  -3   6   8   20.60    7.50
  -3   6   8   23.90    7.00
  -3   6   8   30.60    8.60
  -3   6   8   34.40    8.70
  -3   6   8   28.90    5.20
   2  -6  -8   35.70    5.50
  -2   6   8   35.70    3.90
  -2   6   8   43.30    5.20
  -2   6   8   32.60    5.20
  -2   6   8   45.40    5.90
  -2   6   8   43.20    6.00
   1  -6  -8    5.90    3.50
   1  -6  -8    4.80    3.20
  -1   6   8    7.80    3.40
  -1   6   8    5.50    3.90
  -1   6   8    6.60    4.10
  -1   6   8    5.60    2.50
  -1   6   8    9.70    4.80
   0  -6  -8   24.60    2.90
   0  -6  -8   22.70    3.50
   0   6   8   20.20    4.70
   0   6   8   21.40    3.90
   0   6   8   21.40    2.90
   0   6   8   23.50    3.10
   0   6   8   17.90    4.80
   0   6   8   25.40    3.80
  -1  -6  -8  441.86   10.70
  -1  -6  -8  433.46    9.50
  -1  -6  -8  421.36   11.30
   1   6   8  434.96   12.00
   1   6   8  434.56   10.20
   1   6   8  452.65   10.30
   1   6   8  432.46   11.50
   1   6   8  454.15   11.20
  -2  -6  -8    7.40    3.80
  -2  -6  -8   10.00    5.00
  -2  -6  -8    6.50    2.60
   2   6   8   16.80    5.40
   2   6   8   13.70    5.80
   2   6   8    8.20    4.10
   2   6   8   13.40    4.90
   2   6   8    2.30    5.20
   2   6   8    8.60    4.30
  -3  -6  -8   -6.50    6.60
  -3  -6  -8   -2.40    5.40
   3   6   8   -1.40    7.50
   3   6   8    0.10    7.60
   3   6   8    2.00    5.60
   3   6   8    2.20    7.00
   3   6   8    1.20    6.80
  -4  -6  -8   22.10    7.70
  -4  -6  -8   10.80    8.20
   4   6   8   15.10    9.60
   4   6   8    3.60    8.10
   4   6   8    4.00    8.60
  -5  -6  -8   -1.30   10.30
   5   6   8    2.10   11.60
   5   6   8   21.10   12.40
   5   6   8   25.40   12.00
   4  -7  -8   -1.20   11.80
  -4   7   8  -16.30   12.60
  -4   7   8   -2.50    8.40
  -4   7   8   21.30   11.50
   3  -7  -8   74.69    8.60
  -3   7   8   67.99    9.60
  -3   7   8   77.59    7.00
  -3   7   8   84.09    7.90
  -3   7   8   69.19    9.70
  -3   7   8   75.99    8.10
   2  -7  -8   55.79    6.40
  -2   7   8   59.79    7.20
  -2   7   8   51.99    6.00
  -2   7   8   44.90    4.70
  -2   7   8   40.60    5.90
  -2   7   8   49.60    5.50
  -2   7   8   66.89    5.90
  -1   7   8    6.20    5.10
  -1   7   8    4.60    3.30
  -1   7   8    1.20    2.60
  -1   7   8    0.60    4.10
   0   7   8    9.20    3.50
   0   7   8    6.70    3.50
   0   7   8    8.40    5.20
   0   7   8    3.30    4.80
   0   7   8    8.20    4.00
   0   7   8    6.40    3.00
   0   7   8    7.50    2.90
   0   7   8    9.40    4.20
  -1  -7  -8   10.60    2.80
  -1  -7  -8   14.10    4.00
   1   7   8    9.80    3.60
   1   7   8    9.60    3.70
   1   7   8    8.20    4.70
   1   7   8   12.10    5.10
   1   7   8    6.00    5.00
   1   7   8   18.70    5.40
   1   7   8    6.80    4.90
  -2  -7  -8   39.70    5.50
  -2  -7  -8   43.80    4.40
   2   7   8   40.50    4.90
   2   7   8   36.90    6.10
   2   7   8   43.60    5.20
   2   7   8   36.90    7.00
   2   7   8   42.80    6.40
   2   7   8   42.90    6.40
  -3  -7  -8   10.00    6.60
  -3  -7  -8    2.60    5.00
   3   7   8    1.80    8.20
   3   7   8    3.80    6.40
   3   7   8    1.00    6.90
   3   7   8   -4.70    7.50
   3   7   8   -2.40    5.80
   3   7   8    5.70    9.00
  -4  -7  -8   39.60    7.90
  -4  -7  -8   27.20    9.60
   4   7   8   46.00    9.30
   4   7   8   45.30    8.90
   4   7   8   32.00   11.30
  -5  -7  -8    5.70   11.10
   5   7   8   -1.90   12.70
   5   7   8    5.40   13.70
   5   7   8   11.10   14.60
   4  -8  -8   41.80   14.90
  -4   8   8   27.50   12.20
  -4   8   8    6.40    8.10
  -4   8   8    5.60   13.90
   3  -8  -8   94.69    9.90
  -3   8   8   79.79   11.00
  -3   8   8   94.19    7.10
  -3   8   8  104.09   11.40
  -3   8   8  111.39   10.90
  -3   8   8  110.39   10.80
  -2   8   8   77.99    7.80
  -2   8   8   78.29    7.90
  -2   8   8   73.19    8.20
  -1   8   8    8.10    7.50
  -1   8   8   -8.30    6.10
   0   8   8    9.80    4.40
   0   8   8   15.00    4.40
   0   8   8    7.40    5.40
   0   8   8   17.90    6.70
   1   8   8    6.70    3.80
   1   8   8   12.00    6.00
   1   8   8    6.20    4.70
   1   8   8    5.00    4.00
   1   8   8    3.30    5.20
   1   8   8    2.90    5.30
   1   8   8    8.90    5.90
  -2  -8  -8   12.30    5.40
   2   8   8    6.40    6.60
   2   8   8    5.30    7.50
   2   8   8    8.90    5.10
   2   8   8   13.60    7.60
   2   8   8    1.80    5.30
   2   8   8   18.10    6.90
  -3  -8  -8    4.90    7.20
   3   8   8   11.80    7.20
   3   8   8   -6.70   10.60
   3   8   8   13.10    7.90
   3   8   8   15.30    7.60
   3   8   8    9.20   10.00
   3   8   8   13.40    8.80
  -4  -8  -8   62.79    8.00
   4   8   8   51.99   10.40
   4   8   8   55.39   11.10
   4   8   8   28.90   11.60
  -5  -8  -8   -2.90   11.80
   5   8   8    7.90   14.50
   5   8   8    9.30   15.60
   5   8   8   -5.40   14.80
   3  -9  -8   10.60    9.80
  -3   9   8   20.70    8.20
  -3   9   8    2.40   10.70
  -2   9   8   -2.30    5.40
  -2   9   8    5.70    8.00
  -2   9   8   12.40    6.70
  -1   9   8   11.00    6.20
   0   9   8   14.50    6.30
   0   9   8    3.90    7.40
   0   9   8    1.70    5.70
   1   9   8    6.30    4.70
   1   9   8    9.50    4.60
   1   9   8    8.10    7.40
   1   9   8    6.90    7.10
   1   9   8    8.50    5.90
   2   9   8   33.00    5.80
   2   9   8   28.00    7.50
   2   9   8   14.00    8.90
   2   9   8   23.90    6.50
   2   9   8   20.60    7.70
   2   9   8   33.80    6.90
  -3  -9  -8    4.70    8.20
   3   9   8    6.70    9.60
   3   9   8   19.10    9.70
   3   9   8  -20.00    7.50
   3   9   8    8.40    9.00
   4   9   8    6.10   10.40
   4   9   8    7.70   12.50
   4   9   8   -4.40   11.20
  -3  10   8   27.80   12.50
  -2  10   8   -2.00    9.70
  -2  10   8    0.50    7.90
  -1  10   8   79.29    9.10
  -1  10   8   68.99    9.80
  -1  10   8   86.09    7.70
   0  10   8   93.69    9.50
   0  10   8   91.59    8.10
   0  10   8   79.99    7.70
   1  10   8    5.30    8.60
   1  10   8   12.40    5.60
   1  10   8   14.00    7.00
   1  10   8   13.20    7.40
   2  10   8   13.30    7.70
   2  10   8    8.40    7.30
   2  10   8   20.60    6.50
   2  10   8   16.00    8.50
   2  10   8   23.10   11.10
   2  10   8    6.70    9.40
   2  10   8   15.30    7.60
   3  10   8   15.70   11.40
   3  10   8    9.30    8.90
   3  10   8   -4.10    9.50
   4  10   8   10.30   12.30
   4  10   8   42.60   13.10
   4  10   8   48.00   15.20
  -2  11   8   -8.70   10.50
  -1  11   8   10.30    8.40
  -1  11   8    3.80    9.50
  -1  11   8   -4.40    8.50
   0  11   8   11.70    8.50
   0  11   8   18.30    9.40
   0  11   8   18.90    8.40
   1  11   8    2.60    6.60
   1  11   8   10.40    8.10
   1  11   8    6.40    9.90
   2  11   8    5.40    6.90
   2  11   8   11.30    9.20
   2  11   8   29.70   12.00
   2  11   8    8.00    8.00
   2  11   8    5.90    8.30
   2  11   8   12.20    9.90
   3  11   8    2.60   10.00
   3  11   8    2.10   10.70
   3  11   8   -9.20   12.60
   4  11   8   -7.80   14.90
  -2  12   8   -4.90   12.80
  -1  12   8    2.00   10.70
  -1  12   8   13.90   11.00
   0  12   8    7.40   10.40
   0  12   8   14.90   11.90
   0  12   8   10.00    9.80
   1  12   8   14.60    9.40
   1  12   8    9.00   12.40
   2  12   8    1.30   13.00
   2  12   8    5.10   10.40
   3  12   8   -7.30   13.00
   3  12   8   17.60   11.70
  -1  13   8   -3.10   12.20
   0  13   8   -7.80   13.10
   0  13   8   -7.60   16.60
   1  13   8    1.40   13.90
   1  13   8    2.50   14.30
   2  13   8   -1.60   17.00
   1  11  -9   -4.90   14.90
   0  11  -9   29.60   15.30
   0  11  -9   11.70   17.30
   0  11  -9   15.90   14.50
   0  11  -9    2.50   16.40
  -1  11  -9    3.40   19.20
  -1  11  -9    1.00   15.50
  -1  11  -9  -14.00   13.20
   2  10  -9   33.90   17.00
   2  10  -9   -8.50   17.30
   2  10  -9  -36.20   17.80
  -2 -10   9    9.60   10.60
   1  10  -9  -11.50   11.90
   1  10  -9   28.20   15.40
   1  10  -9    0.70   13.70
   1  10  -9    7.20   14.30
  -1 -10   9  -19.80    9.20
   0  10  -9   16.80   13.20
   0  10  -9  -12.80   10.80
   0  10  -9   -8.70   11.90
   0  10  -9  -21.90   14.20
   0 -10   9    5.10    7.80
  -1  10  -9   -2.70   12.10
  -1  10  -9   24.10   11.00
  -1  10  -9   -6.50   14.80
  -1  10  -9   31.40   12.30
   1 -10   9    0.50    8.30
  -2  10  -9   13.80   13.30
  -2  10  -9    9.30   11.20
  -2  10  -9    3.70   16.70
  -2  10  -9   15.60   14.00
  -3  10  -9    7.90   16.40
   2   9  -9   17.00   12.80
   2   9  -9    1.30   14.80
   2   9  -9  -11.90   14.00
   2   9  -9    4.90   12.40
  -2  -9   9  -17.10    9.50
   1   9  -9    2.90   10.10
   1   9  -9    5.90   12.40
   1   9  -9   34.20   10.90
   1   9  -9   19.60   11.20
  -1  -9   9    7.20    7.60
   0   9  -9   -1.00   11.90
   0   9  -9  -12.70   10.20
   0   9  -9   21.50   11.10
   0   9  -9    6.00    7.70
   0   9  -9   -4.50    9.00
   0  -9   9   23.00    7.30
   0  -9   9    8.70    8.10
  -1   9  -9    8.70    9.70
  -1   9  -9    4.60    9.20
  -1   9  -9   -6.90    9.90
  -1   9  -9   24.60   12.60
  -1   9  -9   -0.90   10.40
   1  -9   9   28.20    7.40
  -2   9  -9    4.70   11.10
  -2   9  -9   -0.70    9.10
  -2   9  -9   -6.20   12.70
  -2   9  -9    1.10   11.60
   2  -9   9   -0.80    8.10
  -3   9  -9   19.60   15.40
  -3   9  -9   15.10   13.50
  -3   9  -9   10.10   14.00
   3   8  -9  -14.80   14.00
   3   8  -9   -4.80   13.00
   3   8  -9   24.90   14.90
   3   8  -9   15.00   16.10
  -3  -8   9   10.60   11.60
   2   8  -9   19.00   10.60
   2   8  -9    1.60   11.60
   2   8  -9    7.00   11.40
   2   8  -9   18.50   12.10
  -2  -8   9    9.20    9.30
  -2  -8   9   11.40    8.90
  -2  -8   9   20.10    8.30
   1   8  -9   -3.50    6.80
   1   8  -9  -12.70   17.50
   1   8  -9   -0.90    8.90
   1   8  -9   13.20   10.00
   1   8  -9   -5.10    8.90
   1   8  -9    6.00   10.10
  -1  -8   9   -1.90    7.30
  -1  -8   9   14.40    7.10
  -1  -8   9   -1.10    7.80
   0   8  -9   36.70   10.40
   0   8  -9   71.49   10.70
   0   8  -9   14.20    8.80
   0   8  -9   30.90    8.60
   0   8  -9   52.09    9.20
   0   8  -9   42.30    7.00
   0  -8   9   29.90    6.70
   0  -8   9   49.99    7.60
  -1   8  -9   30.70    8.10
  -1   8  -9   35.90    8.80
  -1   8  -9   17.10    8.80
  -1   8  -9   34.50    9.90
  -1   8  -9   37.50    7.60
  -1   8  -9   35.40   10.50
   1  -8   9   32.20    7.40
   1  -8   9   37.60    6.60
  -2   8  -9    1.60   10.40
  -2   8  -9   -7.30   11.70
  -2   8  -9    2.70    8.00
  -2   8  -9    2.90    8.10
  -2   8  -9    7.60   10.70
  -2   8  -9   14.90   10.30
   2  -8   9   10.40    9.40
   2  -8   9  -10.60    7.10
  -3   8  -9    2.40   11.80
  -3   8  -9    4.60   11.20
  -3   8  -9   -8.30   14.40
   3  -8   9   -4.90    7.30
   3  -8   9   -5.30    8.20
  -4   8  -9   -0.30   16.10
  -4   8  -9    5.10   15.50
  -4   8  -9   38.30   19.80
   4  -8   9   -2.90   10.90
   3   7  -9  -10.40   13.80
   3   7  -9   12.30   12.60
   3   7  -9   11.20   12.20
  -3  -7   9   -0.30   11.10
  -3  -7   9   -1.20   10.60
  -3  -7   9  -17.50   10.10
   2   7  -9   -9.10   10.70
   2   7  -9   15.50   11.40
   2   7  -9    6.00   10.40
   2   7  -9    9.30    9.30
   2   7  -9   13.30    9.10
  -2  -7   9   27.30    7.70
  -2  -7   9    9.90    7.80
  -2  -7   9    9.30    7.60
   1   7  -9   -4.80    7.60
   1   7  -9   -0.60   10.80
   1   7  -9    1.60    7.30
   1   7  -9   -0.20    8.50
   1   7  -9    8.90    6.60
   1   7  -9    0.20    8.30
  -1  -7   9   -2.50    7.10
  -1  -7   9    9.60    6.60
  -1  -7   9   -2.00    6.10
   0   7  -9   33.90    6.90
   0   7  -9   24.50    7.60
   0   7  -9   30.30    8.50
   0   7  -9   17.80    6.50
   0   7  -9   25.40    7.70
   0   7  -9   26.20    8.20
   0  -7   9   34.40    7.50
   0  -7   9   31.40    6.30
   0  -7   9   31.80    6.00
  -1   7  -9    7.50    6.40
  -1   7  -9   12.40    6.90
  -1   7  -9    7.00    7.20
  -1   7  -9    8.40    7.80
  -1   7  -9    5.00    7.80
  -1   7  -9    2.30    8.50
   1  -7   9   13.80    6.00
   1  -7   9    4.80    6.50
  -2   7  -9   24.40    9.10
  -2   7  -9   35.00   10.60
  -2   7  -9   13.70    9.30
  -2   7  -9   32.60   10.50
  -2   7  -9   24.80    7.20
  -2   7  -9   24.80    8.00
   2  -7   9   26.10    7.80
   2  -7   9   30.80    6.90
  -3   7  -9   13.20   10.10
  -3   7  -9    6.30   11.10
  -3   7  -9    7.70   11.60
  -3   7  -9   -1.90    7.90
   3  -7   9    6.80    6.30
   3  -7   9    7.90    8.00
   3  -7   9   -7.20    9.30
  -4   7  -9  -20.20   13.60
  -4   7  -9   19.10   15.60
  -4   7  -9  -16.90   12.70
   4  -7   9    2.50    9.90
   4   6  -9    6.30   13.50
   4   6  -9    5.00   16.80
  -4  -6   9  -17.20   13.00
  -4  -6   9  -22.40   13.40
   3   6  -9   17.60   10.80
   3   6  -9   -2.60   10.60
   3   6  -9   18.60   12.60
   3   6  -9   38.40   15.90
  -3  -6   9    9.90    8.70
  -3  -6   9   13.50    9.40
  -3  -6   9   18.60    9.00
   2   6  -9    9.20    8.10
   2   6  -9   27.40   10.30
   2   6  -9   -3.10    9.20
   2   6  -9   -7.40    7.90
  -2  -6   9   -5.90   13.00
  -2  -6   9    5.60    6.90
  -2  -6   9    6.80    7.40
  -2  -6   9   -5.00    6.80
   1   6  -9    6.80    6.60
   1   6  -9   13.50    7.10
   1   6  -9   14.40    8.50
   1   6  -9   10.90    7.20
   1   6  -9   15.20    6.10
   1   6  -9   13.00    7.70
  -1  -6   9    5.20    7.60
  -1  -6   9   13.30    9.60
  -1  -6   9   20.30    6.50
  -1  -6   9    8.00    6.60
  -1  -6   9   14.60    6.30
   0   6  -9  220.68   11.60
   0   6  -9  211.98   11.80
   0   6  -9  247.08   12.20
   0   6  -9  235.28   10.80
   0   6  -9  239.88   10.10
   0   6  -9  246.78   12.30
   0  -6   9  260.07    9.70
   0  -6   9  274.47   11.40
   0  -6   9  225.78   13.30
   0  -6   9  230.18    9.40
  -1   6  -9   22.50    7.80
  -1   6  -9   31.20    6.60
  -1   6  -9   28.80    6.90
  -1   6  -9   36.10    6.70
  -1   6  -9   25.70    7.20
  -1   6  -9   35.40    5.90
   1  -6   9   24.10    7.80
   1  -6   9   29.50    7.30
   1  -6   9   26.90    6.50
   1  -6   9   40.00    9.20
   1  -6   9   28.90    6.20
   1  -6   9   32.90    5.70
  -2   6  -9   -2.70    7.70
  -2   6  -9    3.30    6.30
  -2   6  -9    4.60    6.40
  -2   6  -9    4.00    6.20
  -2   6  -9   -6.70    8.40
  -2   6  -9    4.80    8.80
  -2   6  -9    8.20    8.40
   2  -6   9  -12.40    7.90
   2  -6   9  -13.00    6.10
   2  -6   9   -5.10    9.50
   2  -6   9    8.00    9.40
   2  -6   9    2.70    4.60
   2  -6   9   -4.70    6.60
  -3   6  -9   -5.40    9.30
  -3   6  -9   10.70   10.10
  -3   6  -9   -4.00    7.50
  -3   6  -9    9.20    9.90
   3  -6   9   10.50    7.70
   3  -6   9    6.20    6.50
   3  -6   9   26.40    8.50
   3  -6   9    4.00    9.50
  -4   6  -9   26.50   12.10
  -4   6  -9   28.60   13.20
  -4   6  -9   10.60   11.70
   4  -6   9   -2.80    9.10
   4  -6   9   -0.90    9.00
  -5   6  -9  -14.70   18.40
   5  -6   9    4.80   13.50
   5  -6   9   27.30   13.50
   4   5  -9  -15.30   12.60
   4   5  -9    9.50   15.60
   4   5  -9    4.60   12.00
  -4  -5   9  -12.50   11.80
  -4  -5   9   -1.70   11.50
  -4  -5   9    8.80    9.80
   3   5  -9    2.40   11.50
   3   5  -9  -10.60    9.00
   3   5  -9    2.40   13.70
   3   5  -9    8.10    8.90
  -3  -5   9   15.80    8.10
  -3  -5   9   -8.20    8.70
  -3  -5   9    3.60    7.70
   2   5  -9   16.70    8.60
   2   5  -9   34.50    7.50
   2   5  -9   32.70    8.00
   2   5  -9   30.00    7.60
   2   5  -9   27.80    7.00
  -2  -5   9   26.30    6.70
  -2  -5   9   23.70   10.10
  -2  -5   9   19.80    6.50
  -2  -5   9   25.20    6.80
   1   5  -9   12.70    6.40
   1   5  -9   11.70    5.60
   1   5  -9    3.40    6.60
   1   5  -9   23.50    7.30
  -1  -5   9    2.40    5.10
  -1  -5   9    2.00    5.20
  -1  -5   9    7.20    7.50
  -1  -5   9   10.10    5.80
  -1  -5   9   12.80    7.00
  -1  -5   9    7.80    7.50
   0   5  -9  484.05   14.00
   0   5  -9  471.65   14.20
   0   5  -9  479.95   12.90
   0   5  -9  471.55   13.30
   0   5  -9  487.95   14.90
   0   5  -9  493.15   13.50
   0  -5   9  502.95   13.60
   0  -5   9  480.85   14.80
   0  -5   9  487.05   12.50
   0  -5   9  513.95   12.70
   0  -5   9  504.75   14.00
  -1   5  -9   50.49    6.40
  -1   5  -9   50.69    5.90
  -1   5  -9   47.00    6.30
  -1   5  -9   32.90    5.80
  -1   5  -9   52.29    6.80
  -1   5  -9   48.10    7.20
  -1   5  -9   46.90    8.00
   1  -5   9   44.20    8.00
   1  -5   9   55.69    7.00
   1  -5   9   52.09    6.50
   1  -5   9   53.79    7.30
   1  -5   9   41.10    5.70
   1  -5   9   48.10    5.80
  -2   5  -9   41.40    7.80
  -2   5  -9   41.90    8.70
  -2   5  -9   35.00    6.00
  -2   5  -9   27.30    7.50
  -2   5  -9   39.20    8.40
  -2   5  -9   41.70    6.50
   2  -5   9   33.40    8.10
   2  -5   9   27.80    6.20
   2  -5   9   38.40    6.10
   2  -5   9   39.40    7.70
   2  -5   9   35.30    8.30
   2  -5   9   28.20    7.90
  -3   5  -9   65.79   10.10
  -3   5  -9   56.49    7.10
  -3   5  -9   71.59    9.30
  -3   5  -9   84.89    9.60
   3  -5   9   73.39    7.50
   3  -5   9   82.99    8.40
   3  -5   9   62.89    8.80
  -4   5  -9   -9.00   11.60
  -4   5  -9   10.70   11.90
  -4   5  -9   -4.90    9.30
  -4   5  -9    9.20   10.80
   4  -5   9   29.40    9.70
   4  -5   9    8.20    9.60
   4  -5   9    4.50    8.90
  -5   5  -9   24.70   16.30
  -5   5  -9    0.40   15.40
  -5   5  -9  -13.20   18.20
   5  -5   9    6.90   12.10
   5  -5   9   -7.40   12.20
   4   4  -9   36.70    8.40
   4   4  -9   56.19   14.20
   4   4  -9   19.80   10.30
   4   4  -9   25.90   12.40
  -4  -4   9   35.00   10.90
  -4  -4   9   54.09   11.60
  -4  -4   9   14.90    9.90
   3   4  -9    1.50   12.20
   3   4  -9    6.20    7.80
   3   4  -9    9.90    8.50
   3   4  -9   17.90    9.80
   3   4  -9    7.20    5.30
  -3  -4   9   21.90   12.70
  -3  -4   9   20.50    7.50
  -3  -4   9    4.30    7.30
  -3  -4   9   -0.30    7.20
   2   4  -9  149.29   10.20
   2   4  -9  120.89   11.30
   2   4  -9  154.18   10.10
   2   4  -9  117.69   11.40
  -2  -4   9  147.89    8.90
  -2  -4   9  128.09    8.70
  -2  -4   9  135.89   12.80
  -2  -4   9  148.09    8.80
  -2  -4   9  150.28   14.00
   1   4  -9   11.50    6.60
   1   4  -9   22.50    5.50
   1   4  -9   22.30    6.00
   1   4  -9   23.70    5.40
   1   4  -9   27.60    5.90
   1   4  -9   19.80    5.70
  -1  -4   9    5.00    7.10
  -1  -4   9   18.40    6.40
  -1  -4   9   28.00    5.20
  -1  -4   9   22.80    5.00
  -1  -4   9   13.90    4.90
  -1  -4   9   29.30    6.10
   0   4  -9  107.59    9.00
   0   4  -9  122.89    7.90
   0   4  -9  122.69    8.60
   0   4  -9  102.39    9.60
   0   4  -9  108.49    7.70
   0   4  -9  125.89    8.00
   0  -4   9  107.59    8.50
   0  -4   9  116.69    6.70
   0  -4   9  109.89    8.70
   0  -4   9  130.69    7.20
   0  -4   9  143.19    8.90
  -1   4  -9  818.02   18.00
  -1   4  -9  813.12   19.70
  -1   4  -9  781.82   17.70
  -1   4  -9  806.42   17.50
  -1   4  -9  846.72   19.10
  -1   4  -9  826.62   19.10
  -1   4  -9  834.92   18.50
   1  -4   9  849.52   17.80
   1  -4   9  806.42   18.90
   1  -4   9  799.92   18.80
   1  -4   9  821.72   18.20
   1  -4   9  827.82   19.20
   1  -4   9  851.11   17.80
  -2   4  -9    5.60    6.40
  -2   4  -9    3.00    6.40
  -2   4  -9    2.80    4.90
  -2   4  -9   -4.30    6.40
  -2   4  -9   -0.20    5.20
  -2   4  -9    4.60    6.10
   2  -4   9    5.60    5.00
   2  -4   9   10.30    7.10
   2  -4   9   10.20    5.80
   2  -4   9   -4.30    7.20
   2  -4   9    0.70    5.40
   2  -4   9    1.10    5.60
  -3   4  -9  110.39   10.90
  -3   4  -9  102.39   10.40
  -3   4  -9  113.29    9.10
  -3   4  -9  112.19    9.40
  -3   4  -9  136.49   11.00
  -3   4  -9  103.59    9.40
   3  -4   9  111.79   11.40
   3  -4   9  106.49   11.00
   3  -4   9  127.89   11.20
   3  -4   9  128.39   10.70
   3  -4   9  111.39   10.50
  -4   4  -9    0.90   11.70
  -4   4  -9   22.60    9.80
  -4   4  -9   10.30    8.10
  -4   4  -9   12.20   11.10
   4  -4   9    3.60    8.70
   4  -4   9   20.90    9.10
  -5   4  -9   21.60   13.70
  -5   4  -9   17.00   15.60
  -5   4  -9    8.30   16.20
   5  -4   9    3.10   11.40
   4   3  -9   49.60   13.30
   4   3  -9   40.70    9.80
   4   3  -9   34.90    8.20
   4   3  -9   40.70   11.10
  -4  -3   9   37.70   10.80
  -4  -3   9   38.20   10.60
  -4  -3   9   38.70   10.20
  -4  -3   9   41.10   17.50
   3   3  -9    7.50   11.50
   3   3  -9   22.80    5.40
   3   3  -9   -0.40    8.00
   3   3  -9    2.80    8.90
  -3  -3   9   -0.90    6.70
  -3  -3   9    4.80   11.00
  -3  -3   9    7.80    7.10
  -3  -3   9   -5.00   10.90
  -3  -3   9   22.20    7.20
   2   3  -9   33.50    5.90
   2   3  -9   36.70    7.90
   2   3  -9   35.80    6.80
   2   3  -9   34.00    6.30
  -2  -3   9   35.90    7.50
  -2  -3   9   33.50    5.80
  -2  -3   9   19.90    8.20
  -2  -3   9   26.20    5.60
   1   3  -9   16.40    5.60
   1   3  -9   14.80    5.20
   1   3  -9    5.40    5.30
   1   3  -9   24.90    4.70
   1   3  -9    9.90    6.10
   1   3  -9   22.40    5.20
   1   3  -9   17.00    5.00
  -1  -3   9   20.70    6.20
  -1  -3   9   20.00    4.20
  -1  -3   9    9.00    5.40
  -1  -3   9   29.50    5.40
  -1  -3   9   27.60    4.60
  -1  -3   9   18.80    6.10
   0   3  -9  755.32   17.10
   0   3  -9  770.62   17.30
   0   3  -9  800.72   18.10
   0   3  -9  762.52   16.80
   0   3  -9  734.13   16.50
   0   3  -9  758.62   16.70
   0  -3   9  783.92   17.70
   0  -3   9  738.33   17.40
   0  -3   9  789.62   17.40
   0  -3   9  747.83   16.10
   0  -3   9  777.32   16.10
   0  -3   9  748.53   16.90
  -1   3  -9 1041.20   21.60
  -1   3  -9 1046.00   22.20
  -1   3  -9 1015.10   21.20
  -1   3  -9 1113.09   22.30
  -1   3  -9 1087.99   21.10
  -1   3  -9 1090.19   23.00
  -1   3  -9 1079.29   22.50
   1  -3   9 1075.69   22.50
   1  -3   9 1065.69   22.80
   1  -3   9 1088.29   22.30
   1  -3   9 1091.59   21.50
   1  -3   9 1045.20   22.10
   1  -3   9 1037.10   21.60
   1  -3   9 1071.39   21.30
  -2   3  -9    5.90    5.80
  -2   3  -9    4.00    5.60
  -2   3  -9   -5.80    6.00
  -2   3  -9    9.20    4.50
   2  -3   9   10.90    4.90
   2  -3   9    0.60    5.10
   2  -3   9   -3.50    6.10
   2  -3   9    4.00    6.50
   2  -3   9   12.10    4.70
   2  -3   9    0.40    6.00
   2  -3   9   10.80    5.60
  -3   3  -9   10.30    7.50
  -3   3  -9    8.30    8.10
  -3   3  -9   15.70    5.80
  -3   3  -9   14.80    7.30
   3  -3   9   21.40    8.80
   3  -3   9   11.30    6.30
   3  -3   9   10.60    8.60
   3  -3   9    7.50    6.50
   3  -3   9   10.30    6.70
  -4   3  -9   39.60    9.80
  -4   3  -9   53.89    8.20
  -4   3  -9   63.59   10.90
  -4   3  -9   44.10    9.20
   4  -3   9   61.39    8.70
   4  -3   9   52.89    9.40
  -5   3  -9   21.60   13.20
  -5   3  -9    4.50   16.10
  -5   3  -9   -9.10   13.10
   5  -3   9   33.60   12.00
   5  -3   9    3.70   12.40
   4   2  -9    7.10   11.00
   4   2  -9   -4.90    7.70
   4   2  -9    5.10    7.60
   4   2  -9   -1.20   11.90
  -4  -2   9  -15.70    9.60
  -4  -2   9   11.60    9.80
  -4  -2   9   18.00   16.10
  -4  -2   9  -12.10   14.20
  -4  -2   9   15.50    9.70
   3   2  -9    4.30    8.70
   3   2  -9   19.30    7.20
   3   2  -9    9.70    5.30
   3   2  -9   -6.70   10.80
   3   2  -9    6.70    6.50
  -3  -2   9    8.40    6.30
  -3  -2   9    4.10    6.50
  -3  -2   9    6.80    9.90
  -3  -2   9   -6.00    6.70
  -3  -2   9   -6.10    9.30
   2   2  -9  -14.40    6.50
   2   2  -9    4.10    6.90
   2   2  -9    2.80    5.10
   2   2  -9   -9.00    6.60
   2   2  -9    1.00    4.90
   2   2  -9    2.90    5.40
   2   2  -9    5.50    3.70
  -2  -2   9   -3.00    4.40
  -2  -2   9    5.00    5.10
  -2  -2   9    0.20    6.20
  -2  -2   9   -0.60    6.90
  -2  -2   9    0.40    5.60
   1   2  -9   20.10    4.50
   1   2  -9    8.40    4.70
   1   2  -9   12.70    4.60
   1   2  -9   11.90    4.90
   1   2  -9   20.10    5.00
   1   2  -9   26.00    4.60
   1   2  -9   18.90    5.30
  -1  -2   9   18.70    3.90
  -1  -2   9   16.70    3.60
  -1  -2   9   15.70    5.20
  -1  -2   9   14.20    4.00
  -1  -2   9   19.20    5.30
   0   2  -9   27.70    4.50
   0   2  -9   27.80    4.00
   0   2  -9   33.40    4.40
   0   2  -9   32.70    4.90
   0   2  -9   30.70    4.40
   0   2  -9   34.00    4.40
   0   2  -9   28.10    5.60
   0  -2   9   28.10    4.70
   0  -2   9   28.30    5.60
   0  -2   9   34.80    4.90
   0  -2   9   35.00    5.00
   0  -2   9   27.60    2.90
   0  -2   9   26.90    4.10
   0  -2   9   27.70    3.90
  -1   2  -9   49.70    5.30
  -1   2  -9   55.69    5.80
  -1   2  -9   63.89    5.80
  -1   2  -9   60.19    5.30
  -1   2  -9   56.89    6.30
   1  -2   9   54.89    4.70
   1  -2   9   58.49    6.20
   1  -2   9   61.99    6.10
   1  -2   9   52.49    6.20
   1  -2   9   56.79    5.10
   1  -2   9   53.29    4.50
   1  -2   9   52.99    5.10
  -2   2  -9   34.10    6.00
  -2   2  -9   15.30    5.70
  -2   2  -9   28.60    4.50
  -2   2  -9   24.30    5.80
  -2   2  -9   28.00    5.80
   2  -2   9   28.90    4.70
   2  -2   9   33.50    6.20
   2  -2   9   31.20    5.70
   2  -2   9   31.20    5.90
   2  -2   9   24.00    5.10
   2  -2   9   23.30    4.80
   2  -2   9   22.10    6.50
  -3   2  -9    4.80    7.80
  -3   2  -9    1.80    5.30
  -3   2  -9    9.30    6.40
  -3   2  -9    0.10    6.70
   3  -2   9    9.00    6.20
   3  -2   9    7.30    8.00
   3  -2   9    9.90    7.70
   3  -2   9   10.10    5.90
   3  -2   9    6.80    6.80
  -4   2  -9   16.90    9.10
  -4   2  -9    7.40   10.30
  -4   2  -9    8.20    7.70
  -4   2  -9   16.20    8.80
   4  -2   9    5.60    8.40
   4  -2   9   22.60    8.00
   4  -2   9   11.10   11.80
  -5   2  -9   13.00   12.00
  -5   2  -9  -13.10   13.50
  -5   2  -9  -13.90   11.00
  -5   2  -9   25.50   13.10
   5  -2   9    1.40   11.60
   5  -2   9   18.40   12.70
   5   1  -9   -0.10   14.60
   5   1  -9   15.70   12.90
  -5  -1   9    3.40   14.40
  -5  -1   9  -12.70   14.00
   4   1  -9   18.70    7.40
   4   1  -9   26.90    7.80
   4   1  -9   12.40   11.80
   4   1  -9   -3.40    9.70
  -4  -1   9   32.40    9.80
  -4  -1   9    7.50    9.20
  -4  -1   9    9.60   14.30
  -4  -1   9   21.00   12.20
  -4  -1   9   19.30    8.90
   3   1  -9    1.10    5.20
   3   1  -9    1.30    5.80
   3   1  -9   -5.50    8.40
   3   1  -9   -1.00    9.50
   3   1  -9    4.70    8.30
  -3  -1   9   -1.80    6.60
  -3  -1   9    4.50    9.10
  -3  -1   9   17.00    9.20
  -3  -1   9   10.00    7.20
   2   1  -9   92.59    7.90
   2   1  -9   76.19    7.30
   2   1  -9   75.09    6.50
   2   1  -9   79.79    7.30
   2   1  -9   77.19    6.00
   2   1  -9   70.39    6.90
   2   1  -9   80.69    7.00
  -2  -1   9   67.69    7.40
  -2  -1   9   77.09    6.30
  -2  -1   9   51.69    7.10
  -2  -1   9   77.29    6.40
  -2  -1   9   73.69    7.50
  -2  -1   9   68.79    7.30
   1   1  -9  151.08    7.80
   1   1  -9  152.08    7.70
   1   1  -9  148.79    6.70
   1   1  -9  144.09    8.00
   1   1  -9  148.09    8.20
   1   1  -9  138.49    7.00
   1   1  -9  160.28    8.70
  -1  -1   9  140.69    8.10
  -1  -1   9  160.68    7.80
  -1  -1   9  150.78    6.20
  -1  -1   9  154.68    8.20
  -1  -1   9  160.18    8.70
  -1  -1   9  156.58    6.60
  -1  -1   9  146.59    6.30
   0   1  -9   91.69    6.60
   0   1  -9  107.99    5.60
   0   1  -9   96.19    6.70
   0   1  -9  107.39    6.00
   0   1  -9  110.59    7.60
   0   1  -9  108.89    6.30
   0   1  -9  103.79    6.00
   0  -1   9  100.49    5.40
   0  -1   9  104.09    5.50
   0  -1   9  102.39    6.50
   0  -1   9   91.39    6.80
   0  -1   9   98.89    4.90
   0  -1   9  100.89    6.70
   0  -1   9  111.29    6.70
  -1   1  -9    3.90    4.30
  -1   1  -9    0.50    3.80
  -1   1  -9    4.30    4.70
  -1   1  -9    0.50    3.30
  -1   1  -9   10.90    4.50
  -1   1  -9    7.40    3.40
   1  -1   9    5.90    3.60
   1  -1   9    2.70    4.20
   1  -1   9    8.10    4.10
   1  -1   9   -5.20    4.10
   1  -1   9    8.40    4.10
   1  -1   9    9.70    3.70
   1  -1   9   -8.80    4.40
  -2   1  -9   46.40    5.90
  -2   1  -9   53.59    4.80
  -2   1  -9   55.19    5.70
  -2   1  -9   51.89    6.20
  -2   1  -9   52.09    4.20
   2  -1   9   45.90    5.70
   2  -1   9   43.00    5.40
   2  -1   9   52.09    5.00
   2  -1   9   49.30    4.90
   2  -1   9   56.89    6.50
   2  -1   9   50.39    5.80
   2  -1   9   47.20    5.70
  -3   1  -9   11.80    4.70
  -3   1  -9   22.10    7.30
  -3   1  -9   13.60    6.70
  -3   1  -9   21.10    6.60
   3  -1   9   16.40    6.90
   3  -1   9   16.30    5.50
   3  -1   9   21.50    7.10
   3  -1   9   18.90    5.60
   3  -1   9   24.90    6.90
   3  -1   9   18.60    6.10
  -4   1  -9   13.40   10.30
  -4   1  -9   13.10    7.60
  -4   1  -9   13.80    8.50
  -4   1  -9   15.90    7.30
   4  -1   9    8.00    7.70
   4  -1   9   25.70   11.30
   4  -1   9   17.90    7.70
  -5   1  -9  -16.30   11.70
  -5   1  -9   10.80   11.00
  -5   1  -9    5.90   14.30
  -5   1  -9   14.00   12.10
   5  -1   9   -1.90   10.20
   5  -1   9   16.00   11.00
   6  -1   9    9.70   15.90
   5   0  -9   19.50   12.80
   5   0  -9   10.60   13.20
  -5   0   9    8.40   13.90
  -5   0   9   24.60   14.60
   4   0  -9    8.50    8.20
   4   0  -9    1.80   12.10
   4   0  -9   21.20    9.40
   4   0  -9   12.30    7.00
  -4   0   9   25.80    8.60
  -4   0   9   35.40   17.50
  -4   0   9   21.60   11.60
  -4   0   9    8.50   10.00
  -4   0   9    1.90    9.60
   3   0  -9   53.09    7.10
   3   0  -9   57.39    8.90
   3   0  -9   60.19    8.30
   3   0  -9   42.10    9.60
   3   0  -9   52.09    6.30
   3   0  -9   48.30    6.30
  -3   0   9   61.99   10.60
  -3   0   9   49.10    7.10
  -3   0   9   33.10    8.10
  -3   0   9   60.79    7.30
  -3   0   9   48.00    8.80
   2   0  -9    3.90    3.80
   2   0  -9    6.70    4.10
   2   0  -9   10.60    4.80
   2   0  -9   10.20    5.80
   2   0  -9   16.70    5.20
   2   0  -9    8.20    5.90
   2   0  -9   11.50    6.10
   2   0  -9   10.10    3.90
  -2   0   9   21.00    6.10
  -2   0   9   17.70    4.80
  -2   0   9   16.70    4.30
  -2   0   9   11.70    6.10
  -2   0   9    7.90    5.20
  -2   0   9   13.30    5.50
   1   0  -9  267.47    8.70
   1   0  -9  277.47    9.10
   1   0  -9  269.07    7.00
   1   0  -9  260.27    9.40
   1   0  -9  254.37    8.90
   1   0  -9  279.77    8.90
   1   0  -9  285.57    9.90
  -1   0   9  273.77    9.40
  -1   0   9  262.17    8.90
  -1   0   9  262.97    7.90
  -1   0   9  261.17    9.00
  -1   0   9  276.07    8.30
  -1   0   9  277.67    9.70
   0   0  -9  166.78    7.50
   0   0  -9  165.18    7.50
   0   0  -9  170.38    8.20
   0   0  -9  154.48    6.10
   0   0  -9  161.98    6.50
   0   0  -9  167.68    6.30
   0   0   9  166.18    6.20
   0   0   9  156.88    7.50
   0   0   9  159.48    7.90
   0   0   9  162.98    7.40
   0   0   9  161.68    7.30
   0   0   9  177.48    6.00
   0   0   9  165.68    6.40
  -1   0  -9  155.68    6.00
  -1   0  -9  151.18    7.70
  -1   0  -9  160.48    7.60
  -1   0  -9  149.79    7.40
  -1   0  -9  167.88    7.90
  -1   0  -9  144.99    6.10
   1   0   9  156.98    6.70
   1   0   9  153.98    7.50
   1   0   9  146.89    6.90
   1   0   9  161.08    8.10
   1   0   9  157.28    7.30
   1   0   9  160.28    6.20
   1   0   9  152.98    6.50
  -2   0  -9   35.00    5.20
  -2   0  -9   32.90    5.20
  -2   0  -9   34.60    4.20
  -2   0  -9   27.10    5.30
  -2   0  -9   32.10    4.50
  -2   0  -9   38.50    5.40
   2   0   9   31.20    4.70
   2   0   9   34.00    4.50
   2   0   9   24.90    5.30
   2   0   9   28.40    4.80
   2   0   9   30.50    5.60
   2   0   9   31.80    5.40
   2   0   9   33.90    5.70
  -3   0  -9   59.49    6.90
  -3   0  -9   43.30    7.20
  -3   0  -9   50.89    5.60
  -3   0  -9   63.39    6.90
  -3   0  -9   55.09    7.50
  -3   0  -9   50.89    5.10
   3   0   9   53.39    6.00
   3   0   9   56.99    8.10
   3   0   9   38.60    6.20
   3   0   9   54.99    7.80
   3   0   9   47.90    7.90
   3   0   9   49.90    6.20
  -4   0  -9    5.90    8.30
  -4   0  -9   29.90    7.50
  -4   0  -9   14.80    7.90
  -4   0  -9    0.10    8.40
   4   0   9   14.10    9.80
   4   0   9   15.20    7.80
   4   0   9   24.30    7.90
   4   0   9    4.30   11.80
  -5   0  -9    5.30   11.10
  -5   0  -9   27.30   11.50
  -5   0  -9   21.00   12.60
  -5   0  -9   27.90   14.40
   5   0   9   12.00   12.00
   5   0   9    4.80   10.20
  -6   0  -9   49.20   17.50
   6   0   9   19.30   15.90
   6   0   9   42.80   19.70
   5  -1  -9   28.60   13.70
   5  -1  -9   -7.00   13.10
  -5   1   9  -14.10   14.30
  -5   1   9   -0.90   16.00
   4  -1  -9    3.40    8.10
   4  -1  -9    5.40    8.60
   4  -1  -9    5.90   10.60
  -4   1   9   -5.60    8.60
  -4   1   9   -8.60   10.00
  -4   1   9    3.50    8.90
  -4   1   9    1.10   10.00
   3  -1  -9  116.89   11.10
   3  -1  -9  138.59    9.60
   3  -1  -9  141.89    9.30
  -3   1   9  137.49    8.50
  -3   1   9  135.49   10.30
  -3   1   9  127.29   12.70
  -3   1   9  149.79   10.30
  -3   1   9  140.19    9.10
  -3   1   9  136.59   12.70
   2  -1  -9    2.60    4.70
   2  -1  -9    6.00    6.00
   2  -1  -9   -4.00    5.30
   2  -1  -9    1.70    4.10
   2  -1  -9   19.70    5.40
  -2   1   9   -3.50    5.10
  -2   1   9    3.50    4.50
  -2   1   9    7.90    6.50
  -2   1   9   12.60    5.60
  -2   1   9    3.90    3.80
  -2   1   9    2.50    5.40
   1  -1  -9  102.19    7.70
   1  -1  -9  102.89    7.50
   1  -1  -9   94.89    6.60
   1  -1  -9   96.19    6.30
   1  -1  -9   87.79    6.80
  -1   1   9   92.19    5.70
  -1   1   9   93.09    5.50
  -1   1   9   97.39    7.10
  -1   1   9   99.69    6.80
  -1   1   9   92.29    6.00
  -1   1   9   87.89    7.60
  -1   1   9  100.79    6.60
   0  -1  -9  380.16   10.60
   0  -1  -9  394.86    8.90
   0  -1  -9  418.16    9.60
   0  -1  -9  397.86   10.90
   0  -1  -9  397.66   10.40
   0  -1  -9  389.46    9.60
   0   1   9  391.56   10.30
   0   1   9  396.16   10.60
   0   1   9  406.66   10.80
   0   1   9  369.86   10.30
   0   1   9  405.96    9.30
   0   1   9  384.56   10.20
   0   1   9  393.96    9.60
  -1  -1  -9   31.80    3.40
  -1  -1  -9   22.30    4.30
  -1  -1  -9   30.40    4.80
  -1  -1  -9   36.10    4.20
  -1  -1  -9   30.60    4.10
  -1  -1  -9   31.70    3.40
   1   1   9   27.00    3.80
   1   1   9   30.90    4.40
   1   1   9   31.50    5.10
   1   1   9   30.40    3.80
   1   1   9   32.10    4.40
   1   1   9   32.10    3.80
   1   1   9   31.60    4.40
  -2  -1  -9   68.89    6.10
  -2  -1  -9   63.79    6.60
  -2  -1  -9   67.99    5.50
  -2  -1  -9   71.89    7.70
  -2  -1  -9   60.39    5.60
  -2  -1  -9   72.49    7.30
   2   1   9   61.99    5.80
   2   1   9   69.69    6.10
   2   1   9   69.89    6.40
   2   1   9   67.89    6.10
   2   1   9   61.69    6.30
   2   1   9   80.59    6.90
   2   1   9   63.19    6.20
  -3  -1  -9  361.26   11.20
  -3  -1  -9  367.76   13.30
  -3  -1  -9  357.06   11.30
  -3  -1  -9  365.66   13.00
  -3  -1  -9  358.06   13.10
  -3  -1  -9  385.26   12.70
   3   1   9  380.66   12.10
   3   1   9  356.16   13.50
   3   1   9  355.66   13.60
   3   1   9  354.16   11.40
   3   1   9  371.26   11.90
   3   1   9  361.16   13.20
  -4  -1  -9   -1.60    7.50
  -4  -1  -9    7.40    9.00
  -4  -1  -9   -1.30    6.80
  -4  -1  -9   -2.00    8.20
   4   1   9    5.00    7.50
   4   1   9   -8.40    9.80
   4   1   9    9.00   10.20
   4   1   9   -2.10    7.20
  -5  -1  -9  -10.20   13.00
  -5  -1  -9  -17.90   11.60
  -5  -1  -9   -8.60   11.30
   5   1   9   22.10   13.50
   5   1   9    3.50   10.20
   5   1   9   13.10   15.90
  -6  -1  -9  -16.50   18.90
   6   1   9    5.50   17.20
   5  -2  -9   13.00   13.30
  -5   2   9   -9.60   16.90
  -5   2   9   12.00   16.40
   4  -2  -9   11.10    8.70
   4  -2  -9   13.20    8.30
  -4   2   9   14.50    8.10
  -4   2   9   10.90    9.10
  -4   2   9   36.00    9.50
   3  -2  -9    2.40    7.70
   3  -2  -9   12.50    6.10
  -3   2   9   -8.30    8.80
  -3   2   9    5.00    7.10
  -3   2   9    8.90    6.90
  -3   2   9   -0.80    5.60
  -3   2   9    4.80    8.60
   2  -2  -9  285.67   11.40
   2  -2  -9  326.67   10.40
   2  -2  -9  319.57   11.50
   2  -2  -9  314.27    9.70
   2  -2  -9  332.67    9.80
  -2   2   9  312.37   10.00
  -2   2   9  314.27    9.10
  -2   2   9  322.47   11.10
  -2   2   9  299.97   11.30
  -2   2   9  310.07   11.20
  -2   2   9  300.77   10.40
  -2   2   9  309.37   11.50
   1  -2  -9   70.79    6.20
   1  -2  -9   70.69    6.00
   1  -2  -9   68.99    6.00
   1  -2  -9   62.59    5.90
   1  -2  -9   73.69    6.50
  -1   2   9   55.09    4.90
  -1   2   9   65.19    5.70
  -1   2   9   64.89    6.00
  -1   2   9   63.89    6.40
  -1   2   9   59.29    5.80
  -1   2   9   63.29    5.20
  -1   2   9   66.19    5.90
   0  -2  -9  263.67    7.50
   0  -2  -9  259.97    7.40
   0  -2  -9  246.48    8.90
   0  -2  -9  258.77    9.10
   0   2   9  255.07    7.90
   0   2   9  256.67    8.30
   0   2   9  249.18    8.80
   0   2   9  266.47    9.00
   0   2   9  278.07    8.50
   0   2   9  265.17    7.70
   0   2   9  258.67    7.30
  -1  -2  -9  498.45   11.00
  -1  -2  -9  509.15   12.20
  -1  -2  -9  494.55   12.40
  -1  -2  -9  513.15   11.60
  -1  -2  -9  512.65   12.70
   1   2   9  512.15   12.50
   1   2   9  517.55   12.10
   1   2   9  493.75   11.20
   1   2   9  501.85   11.50
   1   2   9  488.05   11.40
   1   2   9  500.15   12.30
   1   2   9  510.45   13.10
  -2  -2  -9   36.80    5.50
  -2  -2  -9   38.50    5.50
  -2  -2  -9   37.90    5.30
  -2  -2  -9   41.70    5.50
  -2  -2  -9   39.70    4.10
  -2  -2  -9   39.20    4.20
   2   2   9   40.00    5.90
   2   2   9   33.10    4.40
   2   2   9   40.70    5.40
   2   2   9   38.00    5.70
   2   2   9   35.70    4.50
   2   2   9   40.00    5.80
  -3  -2  -9   64.79    6.40
  -3  -2  -9   84.19    8.10
  -3  -2  -9   73.79    7.50
  -3  -2  -9   74.89    7.50
  -3  -2  -9   79.49    7.10
  -3  -2  -9   71.19    5.80
   3   2   9   65.99    7.40
   3   2   9   78.29    8.10
   3   2   9   74.59    6.50
   3   2   9   68.39    7.90
   3   2   9   82.89    7.90
   3   2   9   77.39    7.90
  -4  -2  -9   13.60    7.60
  -4  -2  -9   14.10    8.30
  -4  -2  -9   10.60    7.50
  -4  -2  -9    7.70    9.00
   4   2   9   -3.20   10.10
   4   2   9   24.90    7.70
   4   2   9   19.50    7.60
   4   2   9   18.60    9.80
  -5  -2  -9   55.99   11.30
  -5  -2  -9   31.60   11.30
   5   2   9   40.20   10.70
   5   2   9   42.40   15.80
   5   2   9   49.50   11.40
  -6  -2  -9    2.00   17.20
   6   2   9   45.70   19.70
   4  -3  -9   10.90    8.10
   4  -3  -9    2.50    9.60
  -4   3   9   25.00   10.10
  -4   3   9   11.90    8.40
  -4   3   9   17.60   10.40
   3  -3  -9  152.98   11.70
   3  -3  -9  157.78    8.60
   3  -3  -9  173.08    9.60
  -3   3   9  152.38    8.20
  -3   3   9  160.08   13.40
  -3   3   9  159.28   11.40
  -3   3   9  161.18   15.20
  -3   3   9  136.79   11.60
   2  -3  -9   52.89    7.20
   2  -3  -9   53.39    5.10
   2  -3  -9   51.39    5.90
   2  -3  -9   54.59    5.50
  -2   3   9   49.90    6.90
  -2   3   9   73.19    7.30
  -2   3   9   59.49    6.10
  -2   3   9   52.79    4.60
  -2   3   9   50.29    7.20
  -2   3   9   56.49    5.80
  -2   3   9   39.60    7.20
   1  -3  -9  122.49    8.60
   1  -3  -9  112.59    7.80
   1  -3  -9  133.59    6.40
   1  -3  -9  128.09    6.40
   1  -3  -9  113.69    6.30
  -1   3   9  130.39    7.60
  -1   3   9  116.19    7.50
  -1   3   9  123.19    5.40
  -1   3   9  135.09    7.20
  -1   3   9  132.59    7.70
  -1   3   9  135.59    7.30
  -1   3   9  129.39    6.20
   0  -3  -9   48.20    4.30
   0  -3  -9   51.49    5.10
   0  -3  -9   46.50    4.10
   0  -3  -9   50.29    4.40
   0  -3  -9   46.50    5.10
   0   3   9   53.29    4.70
   0   3   9   54.69    4.10
   0   3   9   43.90    3.90
   0   3   9   44.40    4.80
   0   3   9   44.50    4.50
   0   3   9   42.80    5.00
   0   3   9   53.79    4.70
  -1  -3  -9  544.55   12.50
  -1  -3  -9  546.25   13.00
  -1  -3  -9  553.74   13.30
  -1  -3  -9  553.44   11.50
  -1  -3  -9  540.35   11.50
   1   3   9  545.85   13.00
   1   3   9  532.25   12.00
   1   3   9  543.45   12.20
   1   3   9  542.05   12.10
   1   3   9  530.95   13.60
   1   3   9  523.85   13.10
  -2  -3  -9   60.89    5.90
  -2  -3  -9   59.49    5.30
  -2  -3  -9   54.19    5.90
  -2  -3  -9   56.69    5.70
  -2  -3  -9   62.39    5.70
   2   3   9   59.89    6.20
   2   3   9   67.59    6.40
   2   3   9   58.89    6.20
   2   3   9   49.40    6.40
   2   3   9   53.49    6.40
   2   3   9   59.89    5.80
  -3  -3  -9    6.10    6.90
  -3  -3  -9    4.80    4.20
  -3  -3  -9    0.60    6.20
  -3  -3  -9    1.10    5.70
  -3  -3  -9    0.00    5.10
  -3  -3  -9   17.70    6.50
   3   3   9   17.00    6.60
   3   3   9    7.10    6.60
   3   3   9   13.30    5.60
   3   3   9    5.10    6.80
   3   3   9    9.90    5.60
  -4  -3  -9   65.09    9.50
  -4  -3  -9   71.69    8.50
  -4  -3  -9   68.09    8.80
   4   3   9   70.19    8.60
   4   3   9   72.89   10.90
   4   3   9   73.29   11.60
  -5  -3  -9   -0.10   11.40
  -5  -3  -9    1.50   10.60
   5   3   9   -9.10   11.30
   5   3   9   13.80   10.70
   5   3   9   18.60   15.40
  -6  -3  -9   10.50   17.20
   6   3   9    8.20   17.70
   4  -4  -9   28.90    9.80
  -4   4   9   40.90   11.10
  -4   4   9   41.40   10.10
  -4   4   9   29.30    8.50
   3  -4  -9   41.80    7.00
   3  -4  -9   39.20    8.50
  -3   4   9   51.19    7.60
  -3   4   9   31.40    7.00
  -3   4   9   46.00    9.00
  -3   4   9   38.00    8.00
  -3   4   9   44.80    5.80
  -3   4   9   18.60   10.00
   2  -4  -9  390.06   12.10
   2  -4  -9  406.76   11.60
  -2   4   9  413.66   13.10
  -2   4   9  396.56   12.40
  -2   4   9  418.76   10.40
  -2   4   9  415.46   14.00
  -2   4   9  414.96   11.30
  -2   4   9  392.56   11.50
  -2   4   9  411.96   14.20
   1  -4  -9 1324.87   25.10
   1  -4  -9 1343.37   25.90
  -1   4   9 1339.17   26.50
  -1   4   9 1332.67   25.60
  -1   4   9 1318.57   25.50
  -1   4   9 1322.47   25.60
  -1   4   9 1358.36   26.60
  -1   4   9 1333.07   24.60
  -1   4   9 1359.56   25.00
   0  -4  -9   14.20    3.10
   0  -4  -9   22.70    4.40
   0  -4  -9   14.40    3.20
   0  -4  -9   20.50    4.40
   0   4   9   12.40    4.60
   0   4   9   17.80    4.30
   0   4   9   19.60    4.40
   0   4   9   24.30    4.30
   0   4   9   18.80    4.30
   0   4   9   16.00    3.40
   0   4   9    8.70    3.00
  -1  -4  -9   37.40    4.00
  -1  -4  -9   40.00    4.20
  -1  -4  -9   40.10    3.50
  -1  -4  -9   39.20    5.80
  -1  -4  -9   47.30    5.00
   1   4   9   43.60    4.10
   1   4   9   42.50    4.10
   1   4   9   44.10    4.20
   1   4   9   45.20    5.30
   1   4   9   41.10    5.30
   1   4   9   49.80    5.30
  -2  -4  -9  192.98    8.20
  -2  -4  -9  172.18    9.20
  -2  -4  -9  191.38    7.20
   2   4   9  185.48    9.30
   2   4   9  191.18    7.90
   2   4   9  180.48    9.10
   2   4   9  195.48    9.50
   2   4   9  197.08    9.50
   2   4   9  181.18    7.90
  -3  -4  -9    8.80    5.30
  -3  -4  -9    3.00    5.60
  -3  -4  -9    7.60    6.60
  -3  -4  -9    6.00    6.60
  -3  -4  -9   15.20    4.50
   3   4   9    7.90    7.40
   3   4   9    6.40    5.60
   3   4   9   18.10    7.40
   3   4   9   18.20    5.70
   3   4   9   17.20    7.60
   3   4   9   12.10    7.20
  -4  -4  -9   15.20    8.70
  -4  -4  -9   -4.50    6.90
   4   4   9   29.00    8.60
   4   4   9    1.90    8.00
  -5  -4  -9    1.60   11.30
  -5  -4  -9   -2.80   11.90
   5   4   9    8.70   16.20
   5   4   9   13.70   12.70
   5   4   9  -12.50   11.20
   4  -5  -9   10.90    9.90
  -4   5   9   18.40   11.30
  -4   5   9   14.70   11.40
  -4   5   9   19.50    8.40
   3  -5  -9   25.20    7.90
   3  -5  -9   25.50    7.90
  -3   5   9   28.20    8.70
  -3   5   9    7.90   10.10
  -3   5   9   32.30    7.20
  -3   5   9   46.60    5.90
  -3   5   9   36.70    9.20
   2  -5  -9   50.29    6.40
  -2   5   9   58.89    5.40
  -2   5   9   49.99    5.70
  -2   5   9   53.19    6.90
  -2   5   9   49.00    8.00
  -2   5   9   45.00    6.80
  -2   5   9   57.49    6.00
   1  -5  -9  221.38    8.80
  -1   5   9  218.08    8.50
  -1   5   9  222.58    8.70
  -1   5   9  221.48    9.30
  -1   5   9  232.18    7.00
  -1   5   9  217.08   10.00
  -1   5   9  231.98    7.60
  -1   5   9  221.38    8.40
   0  -5  -9   40.80    3.60
   0  -5  -9   39.80    4.70
   0  -5  -9   48.40    5.60
   0   5   9   43.20    5.10
   0   5   9   55.49    4.30
   0   5   9   49.40    5.30
   0   5   9   38.60    4.70
   0   5   9   48.00    4.00
  -1  -5  -9  190.58    8.20
  -1  -5  -9  182.38    6.20
   1   5   9  195.38    8.70
   1   5   9  176.08    8.60
   1   5   9  188.68    7.00
   1   5   9  190.68    7.30
   1   5   9  187.58    7.60
   1   5   9  189.08    8.50
  -2  -5  -9  325.27   11.20
  -2  -5  -9  328.67    8.40
  -2  -5  -9  350.46    9.80
   2   5   9  340.17   11.60
   2   5   9  328.37   11.70
   2   5   9  344.57   10.50
   2   5   9  330.67    9.90
   2   5   9  320.77   11.70
  -3  -5  -9   56.69    6.40
  -3  -5  -9   51.89    6.00
  -3  -5  -9   66.69    8.20
   3   5   9   62.29    7.70
   3   5   9   54.69    8.40
   3   5   9   61.89    8.00
   3   5   9   65.79    7.20
   3   5   9   59.39    9.10
  -4  -5  -9    5.50    8.90
  -4  -5  -9   16.30    9.70
  -4  -5  -9   -2.10    7.40
  -4  -5  -9    8.40    6.70
   4   5   9    4.60   10.20
   4   5   9    7.60    7.90
   4   5   9    2.90    8.10
  -5  -5  -9   26.60   12.80
  -5  -5  -9   35.10   11.90
   5   5   9   12.80   13.00
   5   5   9   37.20   12.50
   4  -6  -9   22.10   10.70
  -4   6   9   32.80   11.70
  -4   6   9   46.80   12.30
  -4   6   9   43.20    8.50
   3  -6  -9    5.40    7.70
  -3   6   9    4.10    5.60
  -3   6   9   -1.60    7.50
  -3   6   9   23.60   10.60
  -3   6   9   17.20    8.30
  -3   6   9   20.20   10.90
  -2   6   9  367.36   12.60
  -2   6   9  375.26   10.70
  -2   6   9  379.76   13.30
  -2   6   9  374.66   12.20
  -2   6   9  366.06    9.30
  -2   6   9  345.77   11.10
   1  -6  -9  821.82   20.80
   1  -6  -9  827.52   16.60
  -1   6   9  860.01   19.00
  -1   6   9  837.42   18.10
  -1   6   9  848.72   17.10
  -1   6   9  755.52   19.10
  -1   6   9  866.71   16.60
  -1   6   9  851.01   16.10
   0  -6  -9    5.70    3.90
   0  -6  -9    2.70    3.20
   0   6   9    8.10    4.90
   0   6   9   16.60    5.30
   0   6   9   -2.20    4.50
   0   6   9    4.80    3.40
   0   6   9    9.80    3.30
  -1  -6  -9   -4.80    3.00
  -1  -6  -9    1.50    4.40
   1   6   9   -0.10    3.70
   1   6   9    2.70    4.30
   1   6   9    2.30    5.00
   1   6   9    4.80    4.80
   1   6   9    2.70    3.70
   1   6   9    0.20    5.00
  -2  -6  -9   40.40    4.30
  -2  -6  -9   49.60    7.20
   2   6   9   42.50    5.20
   2   6   9   37.30    5.10
   2   6   9   34.80    6.80
   2   6   9   36.30    6.30
   2   6   9   37.60    6.40
   2   6   9   43.80    6.50
  -3  -6  -9   19.00    7.30
  -3  -6  -9   10.40    5.80
   3   6   9   26.40    8.30
   3   6   9   25.50    6.20
   3   6   9   25.20    8.60
   3   6   9   18.60    6.20
   3   6   9   23.80    8.10
   3   6   9    8.50    8.40
  -4  -6  -9    3.90    9.60
  -4  -6  -9   -6.30    8.40
   4   6   9    2.90    9.10
   4   6   9   26.90    9.00
   4   6   9   37.50   11.40
  -5  -6  -9    3.60   11.90
   5   6   9   -1.30   12.60
   5   6   9  -19.90   12.20
   4  -7  -9   10.00   11.90
  -4   7   9   13.40    8.30
  -4   7   9   12.50   14.10
  -4   7   9    7.50   12.70
   3  -7  -9   33.40    8.80
  -3   7   9   12.10   10.30
  -3   7   9   20.60    9.00
  -3   7   9    5.80    5.50
  -3   7   9   11.00    9.80
  -3   7   9   -0.50    7.80
  -2   7   9   76.89    5.70
  -2   7   9   65.39    6.90
  -2   7   9   76.09    7.80
  -2   7   9   88.09    7.20
  -2   7   9   61.99    7.90
  -2   7   9   81.09    7.60
  -1   7   9    9.10    3.10
  -1   7   9    6.30    4.00
  -1   7   9   18.40    5.90
  -1   7   9    7.50    4.40
   0   7   9    0.90    5.20
   0   7   9    1.70    4.90
   0   7   9    5.70    3.20
   0   7   9    4.70    3.40
   0   7   9    5.20    4.20
  -1  -7  -9   13.30    3.60
  -1  -7  -9   11.30    4.90
   1   7   9   -6.00    5.40
   1   7   9   26.00    5.90
   1   7   9   11.60    5.30
   1   7   9   -0.40    4.10
   1   7   9    1.90    3.90
   1   7   9   17.70    5.80
  -2  -7  -9    8.60    5.80
   2   7   9    0.00    6.60
   2   7   9    8.90    6.00
   2   7   9    1.70    6.50
   2   7   9   -0.70    6.40
   2   7   9    1.20    6.10
   2   7   9   -8.00    5.20
  -3  -7  -9   25.00    5.50
   3   7   9   10.20    9.40
   3   7   9   13.20    8.10
   3   7   9   19.10    7.10
   3   7   9    6.20    9.10
   3   7   9   31.90    8.30
   3   7   9   23.30    6.50
  -4  -7  -9  -11.70   10.50
  -4  -7  -9   -2.70    7.80
  -4  -7  -9    2.50   15.20
   4   7   9    1.50   10.20
   4   7   9   -2.80   18.40
   4   7   9    8.70    9.40
  -5  -7  -9    0.30   11.70
   5   7   9    3.00   14.30
   5   7   9   17.00   13.80
   5   7   9  -13.40   15.20
   3  -8  -9    8.20    9.40
  -3   8   9   15.20    9.80
  -3   8   9   -5.60    5.40
  -3   8   9   -4.40   13.50
  -3   8   9    9.20    8.80
  -3   8   9    7.70    8.40
  -2   8   9   19.20    7.60
  -2   8   9   29.40    6.90
  -2   8   9   28.20    5.70
  -2   8   9   26.40    8.10
  -1   8   9    0.00    4.00
  -1   8   9   -1.60    5.20
   0   8   9   22.80    4.00
   0   8   9   23.90    6.50
   0   8   9   32.00    5.40
   0   8   9    6.30    7.20
  -1  -8  -9  199.08    6.40
   1   8   9  189.48   11.30
   1   8   9  196.98    9.10
   1   8   9  234.98    8.40
   1   8   9  203.48   12.60
   1   8   9  224.28   10.30
  -2  -8  -9    5.40    5.70
   2   8   9    8.30    6.80
   2   8   9   10.20    7.30
   2   8   9    3.80    5.40
   2   8   9   10.10    8.40
   2   8   9   -0.20    7.00
   2   8   9    2.60    5.40
  -3  -8  -9    2.70    8.20
   3   8   9   26.30   10.40
   3   8   9   11.80    8.30
   3   8   9   -2.90    7.10
   3   8   9   -3.30    8.70
   3   8   9   13.20   11.60
  -4  -8  -9    2.10    7.80
   4   8   9  -18.10   10.30
   4   8   9    1.20   10.60
   5   8   9   -4.90   17.10
   5   8   9  -23.80   16.30
   5   8   9    4.40   24.90
  -3   9   9   65.89    9.60
  -3   9   9   53.89   12.70
  -2   9   9   36.00    6.50
  -2   9   9   43.70    9.20
  -2   9   9   61.09    8.60
  -2   9   9   48.60    9.60
  -2   9   9   47.00    7.90
  -1   9   9    2.50    6.80
   0   9   9   27.00    6.30
   0   9   9   17.80    7.00
   0   9   9   21.90    4.30
   0   9   9   29.10    6.10
   1   9   9    6.80    6.90
   1   9   9   14.10    5.00
   1   9   9   19.60    5.20
   1   9   9   12.70    5.70
   1   9   9   21.70    7.50
   2   9   9    6.80    9.10
   2   9   9  -11.70    6.20
   2   9   9    7.40    7.70
   2   9   9   -4.50    7.90
   2   9   9   -5.90    6.00
   2   9   9    3.40    7.40
   3   9   9   -8.80    9.20
   3   9   9    1.90    8.90
   3   9   9   20.50    8.40
   3   9   9   11.50    9.30
   3   9   9    2.50   12.60
   4   9   9    6.30   13.30
   4   9   9   18.00   12.10
   4   9   9  -25.40   12.00
  -3  10   9   13.90   14.40
  -2  10   9  -11.90    9.90
  -2  10   9   -1.50    8.70
  -1  10   9   41.60    9.10
  -1  10   9   30.50    8.60
   0  10   9   -2.40    7.90
   0  10   9   -8.90    6.80
   1  10   9   -0.30    7.40
   1  10   9    8.40    8.80
   1  10   9    7.20    6.00
   1  10   9   10.80    7.70
   2  10   9   43.60    9.80
   2  10   9   35.10    8.10
   2  10   9   40.20   10.40
   2  10   9   16.00    8.10
   2  10   9   45.20    7.60
   2  10   9   47.60    9.60
   2  10   9   29.70   12.20
   3  10   9   12.00   10.10
   3  10   9   31.30   10.20
   3  10   9   15.60   11.00
   3  10   9    7.70   12.10
   4  10   9   21.50   18.00
   4  10   9  -13.40   13.70
   4  10   9    7.30   12.40
  -2  11   9   10.80   12.60
  -1  11   9   16.30    9.90
  -1  11   9   -0.50   10.60
   0  11   9    0.90    8.80
   0  11   9   18.10   10.60
   1  11   9   11.40    7.00
   1  11   9   15.50    9.40
   1  11   9    9.40   11.20
   1  11   9   -5.00   10.40
   2  11   9  -10.40   13.20
   2  11   9   14.80    8.90
   2  11   9    9.00   10.60
   2  11   9   20.90    8.10
   2  11   9   21.70    8.70
   2  11   9    8.20   13.30
   2  11   9    8.30   15.40
   3  11   9    9.20   12.40
   3  11   9   11.30   14.50
   3  11   9   20.60   10.70
  -1  12   9   11.30   12.30
  -1  12   9   26.40   12.00
   0  12   9    2.80   12.80
   0  12   9    3.60   10.30
   0  12   9   34.60   11.00
   1  12   9   -5.60   12.90
   1  12   9    5.90   10.70
   2  12   9   10.70   10.80
   2  12   9   -5.30   14.80
   3  12   9   18.50   15.00
   0  13   9    0.40   14.90
   1  13   9  -26.10   14.60
   1  13   9  -13.60   16.00
   1  10 -10   20.00   17.00
   1  10 -10   25.60   14.70
   1  10 -10    6.80   15.10
  -1 -10  10    1.10   11.10
   0  10 -10    7.80   13.60
   0  10 -10   31.70   17.10
   0  10 -10   24.50   13.80
   0  10 -10   19.10   14.80
   0 -10  10    5.70   10.80
  -1  10 -10  -14.60   16.90
  -1  10 -10   24.60   15.50
  -1  10 -10   34.60   15.40
  -1  10 -10   26.00   12.00
  -2  10 -10  -40.10   15.40
  -2  10 -10  -14.80   14.00
   2   9 -10   -9.40   17.10
   2   9 -10    4.00   18.30
   2   9 -10   -3.50   17.80
   2   9 -10   14.90   14.30
  -2  -9  10  -15.80   12.00
   1   9 -10   -0.60   11.40
   1   9 -10   19.30   13.70
   1   9 -10   -6.20   13.50
   1   9 -10   21.80   14.30
  -1  -9  10    6.80    9.40
   0   9 -10   18.30   11.10
   0   9 -10    3.50   13.20
   0   9 -10    3.00   13.40
   0   9 -10   -2.20   12.20
   0  -9  10    1.60    8.50
  -1   9 -10   22.80   10.50
  -1   9 -10   -4.90   12.90
  -1   9 -10   11.40   12.90
  -1   9 -10   26.90   14.10
  -1   9 -10    7.40   11.90
   1  -9  10    4.70    9.60
  -2   9 -10   12.00   13.70
  -2   9 -10   -1.20   14.00
  -2   9 -10   12.50   10.70
  -2   9 -10   28.60   13.20
   2  -9  10   11.00    8.80
  -3   9 -10    2.80   17.90
  -3   9 -10  -16.50   16.30
   2   8 -10   19.50   14.10
   2   8 -10   30.90   12.70
   2   8 -10   16.40   11.90
   2   8 -10   -5.00   14.50
  -2  -8  10   32.20   10.30
   1   8 -10   -7.90   12.20
   1   8 -10   12.20   11.60
   1   8 -10    2.10    9.80
   1   8 -10    2.20   10.00
  -1  -8  10   12.30    9.00
  -1  -8  10   -2.60    9.20
  -1  -8  10   -4.00    8.40
   0   8 -10    3.40    8.80
   0   8 -10    1.60    8.70
   0   8 -10   -3.20   11.60
   0   8 -10   -4.20   10.80
   0   8 -10   15.10   11.30
   0   8 -10   17.50   11.20
   0  -8  10   -5.10    7.50
   0  -8  10    6.80    8.50
  -1   8 -10   20.30    8.80
  -1   8 -10   40.70   11.60
  -1   8 -10   40.80   11.10
  -1   8 -10   31.40   10.00
  -1   8 -10   42.80   10.60
  -1   8 -10   11.80    9.20
   1  -8  10   21.90    9.00
   1  -8  10   23.00    8.50
   1  -8  10   35.40   10.10
  -2   8 -10    7.60   11.60
  -2   8 -10   13.80   11.40
  -2   8 -10    9.30    9.30
  -2   8 -10    7.60   13.00
   2  -8  10   -4.70    9.50
   2  -8  10   -0.70    8.90
  -3   8 -10    4.50   14.60
  -3   8 -10   29.40   15.00
  -3   8 -10   10.10   13.20
   3   7 -10   11.00   16.30
   3   7 -10   18.10   13.70
   3   7 -10    3.40   13.40
   3   7 -10   -2.90   15.00
  -3  -7  10    5.50   11.40
   2   7 -10   27.70   12.40
   2   7 -10   17.20   10.70
   2   7 -10   -5.10   11.20
   2   7 -10   -8.40   13.50
   2   7 -10   25.80   10.90
  -2  -7  10   18.00    9.10
  -2  -7  10   11.20    9.10
  -2  -7  10    2.30    8.90
   1   7 -10    8.00    9.50
   1   7 -10   11.50    8.30
   1   7 -10    1.40    9.10
   1   7 -10   16.70   10.70
   1   7 -10   -0.10    8.50
   1   7 -10  -28.00   10.30
  -1  -7  10    9.60    8.00
  -1  -7  10    7.50    7.40
  -1  -7  10   17.80    8.30
   0   7 -10   40.00   10.80
   0   7 -10   44.80    9.80
   0   7 -10   44.10    7.90
   0   7 -10   40.40    8.10
   0   7 -10   57.69   16.10
   0   7 -10   60.99   10.10
   0  -7  10   58.59    7.60
   0  -7  10   54.89    7.80
   0  -7  10   48.10    8.80
  -1   7 -10   -4.10    8.30
  -1   7 -10    8.90   10.00
  -1   7 -10    2.80    9.00
  -1   7 -10   -2.90    7.20
  -1   7 -10    7.20    9.40
  -1   7 -10   -1.70    7.60
   1  -7  10   10.70    8.70
   1  -7  10   -0.90    7.60
   1  -7  10   -6.60    6.90
  -2   7 -10   10.00    8.40
  -2   7 -10   30.50   17.80
  -2   7 -10    5.00    8.00
  -2   7 -10   14.70   10.90
  -2   7 -10    7.20   10.20
  -2   7 -10   -4.90   11.00
   2  -7  10    6.00    8.50
   2  -7  10   15.50    9.10
   2  -7  10   29.50    8.80
  -3   7 -10   26.40   11.70
  -3   7 -10   11.10   14.70
  -3   7 -10    3.90   12.40
   3  -7  10  -11.30    7.50
   3  -7  10   -9.50    8.50
  -4   7 -10  -10.20   18.30
  -4   7 -10   -0.30   14.90
  -4   7 -10   -3.50   15.00
   4  -7  10    7.40   11.50
   4  -7  10   19.20   10.80
   3   6 -10   -1.20   11.90
   3   6 -10    2.80   12.00
   3   6 -10   27.50   12.80
   3   6 -10   -6.70   13.90
  -3  -6  10   32.90   10.70
  -3  -6  10   18.60    9.50
   2   6 -10   -6.20   12.50
   2   6 -10    8.30   10.40
   2   6 -10    3.40    9.30
   2   6 -10   -0.90   11.10
   2   6 -10   13.40    9.40
  -2  -6  10   -0.50    8.30
  -2  -6  10    3.10    7.80
  -2  -6  10   -7.40    8.10
   1   6 -10   -4.20    8.90
   1   6 -10   -5.40    7.70
   1   6 -10   -2.80    8.60
   1   6 -10   -1.90    7.30
   1   6 -10   -9.10    7.40
  -1  -6  10   -0.10    6.70
  -1  -6  10    3.70    7.00
  -1  -6  10    0.40    6.70
  -1  -6  10    0.00   10.30
   0   6 -10   41.10    7.10
   0   6 -10   40.70    7.10
   0   6 -10   36.40    8.00
   0   6 -10   42.50    7.80
   0  -6  10   27.30    7.00
   0  -6  10   43.90    8.10
   0  -6  10    7.10    7.70
   0  -6  10   56.09   13.10
   0  -6  10   26.50   10.20
  -1   6 -10    1.00    7.10
  -1   6 -10   -3.10    7.70
  -1   6 -10   -2.60    8.00
  -1   6 -10    5.60    8.00
  -1   6 -10   -1.70    8.10
  -1   6 -10   -0.10    6.40
   1  -6  10   28.10    9.90
   1  -6  10    4.60    6.20
   1  -6  10    8.70    7.80
   1  -6  10    9.50    7.60
   1  -6  10    5.10    6.30
  -2   6 -10    6.00    8.80
  -2   6 -10    6.10    9.80
  -2   6 -10   11.60    7.10
  -2   6 -10    5.80    7.30
  -2   6 -10   -4.00    9.50
  -2   6 -10   21.60   10.50
   2  -6  10   10.30    7.70
   2  -6  10    2.60    7.00
   2  -6  10    7.90    7.90
  -3   6 -10    1.40   14.30
  -3   6 -10   20.70   12.20
  -3   6 -10  -23.80   11.20
  -3   6 -10   21.70    9.80
   3  -6  10   11.30    8.30
   3  -6  10    6.00    9.70
   3  -6  10    4.60    7.10
  -4   6 -10    5.50   13.80
  -4   6 -10   -7.80   16.80
  -4   6 -10    6.90   12.90
   4  -6  10  -10.80    9.60
   4  -6  10   -6.70   10.80
   4   5 -10    1.50   17.90
   4   5 -10   -6.90   13.70
  -4  -5  10    6.20   13.30
  -4  -5  10   28.00   13.30
   3   5 -10   49.70   11.40
   3   5 -10   92.29   10.70
   3   5 -10   90.09   13.60
  -3  -5  10   68.29   10.10
  -3  -5  10   90.49    9.30
   2   5 -10    9.20   11.20
   2   5 -10    5.90    8.00
   2   5 -10   -9.90    8.40
   2   5 -10   11.00    7.90
   2   5 -10   -0.40   10.70
  -2  -5  10    5.40    7.00
  -2  -5  10   17.50    7.30
  -2  -5  10    5.10    7.00
  -2  -5  10    9.60   12.10
   1   5 -10   40.60    7.90
   1   5 -10   14.90    7.00
   1   5 -10   12.80    7.00
   1   5 -10   17.70    8.00
   1   5 -10   26.50    7.20
   1   5 -10   14.00    6.50
  -1  -5  10   20.70    9.00
  -1  -5  10    4.40    6.90
  -1  -5  10   18.30    6.30
  -1  -5  10   20.70    6.00
   0   5 -10   10.80    7.70
   0   5 -10   11.90    6.90
   0   5 -10   10.50    6.80
   0   5 -10   13.90    6.60
   0   5 -10   17.00    6.70
   0   5 -10   10.50    6.30
   0  -5  10   12.20    5.60
   0  -5  10   24.40    6.90
   0  -5  10    4.30    6.50
   0  -5  10    9.20    8.10
   0  -5  10   13.10    5.90
  -1   5 -10    9.70    6.70
  -1   5 -10    8.30    7.90
  -1   5 -10    4.60    8.10
  -1   5 -10    6.40    7.20
  -1   5 -10    5.70    6.20
   1  -5  10   10.40    5.90
   1  -5  10    5.70    7.90
   1  -5  10    8.30    6.20
   1  -5  10    4.80    7.40
   1  -5  10    8.70    6.40
  -2   5 -10    6.20    8.10
  -2   5 -10  -16.10   10.70
  -2   5 -10    2.10    8.90
  -2   5 -10    8.70    8.40
   2  -5  10    6.90    6.20
   2  -5  10    2.20    6.90
   2  -5  10   -1.30    9.00
   2  -5  10    2.90    9.20
   2  -5  10    4.50    7.20
  -3   5 -10   10.30   10.60
  -3   5 -10   11.60    9.70
  -3   5 -10    3.10    7.80
  -3   5 -10   20.00   10.50
   3  -5  10   14.70    7.70
   3  -5  10   20.90    8.40
  -4   5 -10   -6.70   12.10
  -4   5 -10    6.20   12.60
  -4   5 -10    4.10   13.50
   4  -5  10    5.40   10.10
   4  -5  10   16.60   11.30
  -5   5 -10   -0.50   16.30
   5  -5  10   16.10   14.20
   5  -5  10  -10.50   14.40
   4   4 -10   38.80   17.90
   4   4 -10   32.70   13.70
   4   4 -10   19.60   12.60
  -4  -4  10   32.00   12.80
  -4  -4  10   22.30   12.10
  -4  -4  10   51.39   12.10
   3   4 -10    9.20    9.30
   3   4 -10   -6.80   11.00
   3   4 -10   11.20    9.90
  -3  -4  10   40.00    9.00
  -3  -4  10   21.00   10.60
  -3  -4  10   -5.70   14.80
   2   4 -10   19.50    7.10
   2   4 -10   11.70    7.60
   2   4 -10    7.50    9.10
   2   4 -10   17.90    7.50
  -2  -4  10   21.10    6.90
  -2  -4  10   19.30    9.50
  -2  -4  10   14.30    6.50
  -2  -4  10   18.10    7.00
   1   4 -10   50.99    7.00
   1   4 -10   57.69    7.30
   1   4 -10   60.19    7.50
   1   4 -10   54.59    7.20
   1   4 -10   58.19    7.80
  -1  -4  10   57.19    8.70
  -1  -4  10   61.69    7.00
  -1  -4  10   62.59    6.30
  -1  -4  10   53.59    8.90
   0   4 -10  317.17   12.80
   0   4 -10  306.87   11.40
   0   4 -10  306.17   10.70
   0   4 -10  281.47   10.90
   0   4 -10  309.37   11.70
   0   4 -10  301.47   11.60
   0  -4  10  296.87   10.20
   0  -4  10  306.47   11.90
   0  -4  10  302.57   12.80
   0  -4  10  282.47   11.80
   0  -4  10  298.57   10.20
  -1   4 -10  533.65   14.00
  -1   4 -10  575.44   16.60
  -1   4 -10  527.15   15.20
  -1   4 -10  567.64   14.80
  -1   4 -10  595.64   16.30
  -1   4 -10  555.34   16.00
   1  -4  10  546.25   14.90
   1  -4  10  543.85   16.50
   1  -4  10  537.35   15.70
   1  -4  10  532.15   16.00
   1  -4  10  584.74   14.70
   1  -4  10  576.94   14.30
  -2   4 -10    2.90    7.60
  -2   4 -10    3.60    8.20
  -2   4 -10    1.90    7.50
  -2   4 -10    2.80    7.70
  -2   4 -10    6.40    5.80
   2  -4  10   11.10    8.60
   2  -4  10    2.40    7.20
   2  -4  10    2.60    6.90
   2  -4  10    8.40    7.90
   2  -4  10    8.20    7.30
   2  -4  10    8.30    6.40
   2  -4  10   -1.10    5.70
  -3   4 -10   11.20    8.70
  -3   4 -10    1.50    6.80
  -3   4 -10    1.30    9.60
  -3   4 -10   11.00    8.70
   3  -4  10   10.10    7.60
   3  -4  10    1.50   11.80
   3  -4  10    6.20    7.40
   3  -4  10   -5.20    7.60
  -4   4 -10   31.40    9.40
  -4   4 -10   19.50   11.10
  -4   4 -10   23.60   11.60
  -4   4 -10   25.20   13.10
   4  -4  10   21.00   11.10
   4  -4  10   26.50   10.20
  -5   4 -10    0.30   17.20
  -5   4 -10   -8.40   16.90
  -5   4 -10   11.90   15.80
   5  -4  10   -5.20   13.40
   4   3 -10    7.20   10.40
   4   3 -10    5.60    9.30
   4   3 -10   19.30   12.40
  -4  -3  10   12.40   11.30
  -4  -3  10   23.90   11.40
  -4  -3  10   -3.90   10.50
   3   3 -10   16.20   10.40
   3   3 -10   -2.30    8.00
   3   3 -10    5.80    9.60
   3   3 -10   -2.70    5.60
  -3  -3  10   20.70   13.30
  -3  -3  10   10.20    7.80
  -3  -3  10   19.70    8.10
  -3  -3  10    3.80    9.60
   2   3 -10   62.59    7.70
   2   3 -10   73.79    7.50
   2   3 -10   60.29    9.20
  -2  -3  10   65.49    9.60
  -2  -3  10   83.09    7.20
  -2  -3  10   76.69    9.90
  -2  -3  10   59.19    6.80
  -2  -3  10   56.69    6.80
   1   3 -10  177.88    8.90
   1   3 -10  176.38    9.30
   1   3 -10  166.98    9.60
   1   3 -10  190.98    9.80
   1   3 -10  181.78    9.70
   1   3 -10  175.38   10.40
   1   3 -10  169.08   11.10
  -1  -3  10  176.28    6.70
  -1  -3  10  175.78   11.10
  -1  -3  10  171.98   12.00
  -1  -3  10  168.78    9.60
  -1  -3  10  167.38    7.80
  -1  -3  10  167.88    8.50
   0   3 -10   15.10    5.00
   0   3 -10   21.00    5.30
   0   3 -10   22.70    5.80
   0   3 -10    7.80    6.70
   0   3 -10    9.20    5.40
   0   3 -10    8.30    4.80
   0   3 -10   11.30    5.70
   0  -3  10    8.20    5.90
   0  -3  10   13.20    5.70
   0  -3  10    8.30    4.70
   0  -3  10    9.10    5.50
   0  -3  10   11.80    3.20
   0  -3  10    6.10    4.80
  -1   3 -10   30.60    4.90
  -1   3 -10   46.40    6.90
  -1   3 -10   31.60    6.80
  -1   3 -10   27.00    5.80
  -1   3 -10   21.60    6.20
  -1   3 -10   23.10    6.60
   1  -3  10   29.70    6.30
   1  -3  10   33.50    6.30
   1  -3  10   45.40    6.90
   1  -3  10   26.80    5.20
   1  -3  10   34.60    6.60
   1  -3  10   35.10    5.60
   1  -3  10   24.10    6.70
  -2   3 -10   71.39    8.20
  -2   3 -10   48.90    8.10
  -2   3 -10   77.39    8.10
  -2   3 -10   83.09    7.70
   2  -3  10   86.39    8.50
   2  -3  10   65.49    8.90
   2  -3  10   70.79    7.60
   2  -3  10   71.09    7.50
   2  -3  10   81.69    8.10
   2  -3  10   68.39    7.50
   2  -3  10   73.59    6.70
  -3   3 -10   73.69    7.00
  -3   3 -10   72.39    8.90
  -3   3 -10   65.19    8.80
  -3   3 -10   83.19   10.10
   3  -3  10   75.09    8.50
   3  -3  10   92.59    8.50
   3  -3  10   65.79   10.50
   3  -3  10   57.89   10.40
  -4   3 -10   60.69   11.30
  -4   3 -10   69.99   11.50
  -4   3 -10   56.79    9.30
  -4   3 -10   75.79   12.70
   4  -3  10   60.49   10.10
   4  -3  10   56.19    9.70
  -5   3 -10   -7.90   14.70
  -5   3 -10   23.10   14.60
  -5   3 -10   21.20   18.10
   5  -3  10   -5.40   12.90
   5  -3  10   15.40   15.00
   4   2 -10   11.70   10.10
   4   2 -10   33.20   14.60
   4   2 -10   38.60    8.70
   4   2 -10   37.80   12.60
  -4  -2  10   17.50   10.90
  -4  -2  10   13.70   11.40
  -4  -2  10   11.80   11.00
   3   2 -10   -3.00    7.60
   3   2 -10    1.80    8.80
   3   2 -10   -2.50    6.00
   3   2 -10  -20.50    9.40
  -3  -2  10    4.50   12.10
  -3  -2  10    6.00    8.00
  -3  -2  10   -4.70   12.00
  -3  -2  10    5.40    7.60
  -3  -2  10   -2.60    7.30
   2   2 -10  264.57   10.60
   2   2 -10  233.18   12.60
   2   2 -10  248.78   10.20
  -2  -2  10  220.68   14.10
  -2  -2  10  245.68    9.80
  -2  -2  10  245.28   13.20
  -2  -2  10  246.08   10.30
  -2  -2  10  253.77   11.10
   1   2 -10   18.90    6.10
   1   2 -10    2.70    5.90
   1   2 -10   -1.00    4.80
   1   2 -10    2.90    4.80
   1   2 -10   -5.10    5.40
   1   2 -10    8.30    5.50
   1   2 -10    1.60    5.80
  -1  -2  10    9.40    4.20
  -1  -2  10   -1.40    6.10
  -1  -2  10    2.20    4.50
  -1  -2  10    4.00    5.10
  -1  -2  10   -0.40    4.00
  -1  -2  10   10.00    6.30
   0   2 -10    9.30    4.70
   0   2 -10   13.80    5.10
   0   2 -10   -0.60    5.90
   0   2 -10    4.80    4.80
   0   2 -10    9.50    4.50
   0   2 -10    5.50    5.30
   0   2 -10    6.10    4.70
   0  -2  10    5.00    4.10
   0  -2  10   10.70    5.30
   0  -2  10    0.40    5.40
   0  -2  10   12.60    6.00
   0  -2  10    3.10    4.10
   0  -2  10   13.70    4.90
  -1   2 -10 1374.46   28.30
  -1   2 -10 1373.46   27.20
  -1   2 -10 1358.76   27.40
  -1   2 -10 1336.97   26.40
  -1   2 -10 1396.16   27.70
  -1   2 -10 1403.56   26.30
   1  -2  10 1368.56   26.70
   1  -2  10 1320.77   27.20
   1  -2  10 1399.76   28.20
   1  -2  10 1372.46   26.50
   1  -2  10 1359.16   27.10
   1  -2  10 1328.27   27.60
   1  -2  10 1373.96   27.00
  -2   2 -10   54.39    7.20
  -2   2 -10   61.59    7.30
  -2   2 -10   58.79    5.60
  -2   2 -10   59.79    7.20
  -2   2 -10   54.19    7.00
   2  -2  10   54.89    6.50
   2  -2  10   55.39    7.10
   2  -2  10   57.09    7.20
   2  -2  10   57.69    6.10
   2  -2  10   48.00    7.50
   2  -2  10   56.19    6.50
   2  -2  10   47.80    6.80
  -3   2 -10   42.70    9.00
  -3   2 -10   32.20    6.20
  -3   2 -10   24.30    7.60
  -3   2 -10   30.90    8.00
  -3   2 -10    0.20    9.50
   3  -2  10   35.50    9.60
   3  -2  10   37.10    7.10
   3  -2  10   25.90    9.30
  -4   2 -10    6.30   12.00
  -4   2 -10   -4.80    8.20
  -4   2 -10   -5.70   10.10
  -4   2 -10  -13.70    9.50
   4  -2  10    8.50    8.90
   4  -2  10   -1.20   13.20
   4  -2  10    7.40    9.00
  -5   2 -10  -16.60   16.50
  -5   2 -10   19.80   14.10
  -5   2 -10   14.00   13.50
   5  -2  10   21.10   13.00
   5  -2  10  -12.80   11.40
   4   1 -10   15.10   11.60
   4   1 -10   -0.70    9.30
   4   1 -10   18.30   14.60
   4   1 -10   14.70    8.70
  -4  -1  10  -14.70    9.80
  -4  -1  10    1.50   11.30
  -4  -1  10   23.20   15.80
  -4  -1  10   -1.70   10.60
   3   1 -10   40.40    6.20
   3   1 -10   41.10    7.90
   3   1 -10   50.19    7.40
   3   1 -10   40.40   10.50
  -3  -1  10   41.20   11.30
  -3  -1  10   70.19    8.30
  -3  -1  10   35.60   10.50
  -3  -1  10   44.60    8.10
  -3  -1  10   24.90    7.10
   2   1 -10  138.19    9.50
   2   1 -10  126.69   11.00
   2   1 -10  118.79   11.10
   2   1 -10  155.08   11.90
   2   1 -10  137.79    8.60
   2   1 -10  150.08    8.20
  -2  -1  10  127.59    8.10
  -2  -1  10  112.79   10.90
  -2  -1  10  141.29   10.00
   1   1 -10   70.59    6.70
   1   1 -10   71.49    7.10
   1   1 -10   68.99    6.30
   1   1 -10   69.79    6.60
   1   1 -10   76.79    6.90
   1   1 -10   93.69    8.20
   1   1 -10   90.99    8.40
  -1  -1  10   64.89    7.80
  -1  -1  10   86.29    6.70
  -1  -1  10   63.99    5.80
  -1  -1  10   82.29    7.90
  -1  -1  10   75.69    7.50
  -1  -1  10   73.19    7.30
   0   1 -10   28.00    4.90
   0   1 -10   36.90    5.50
   0   1 -10   20.80    6.40
   0   1 -10   14.30    4.50
   0   1 -10   25.10    5.10
   0   1 -10   18.00    4.20
   0  -1  10   26.30    5.60
   0  -1  10   22.60    6.00
   0  -1  10   24.30    5.20
   0  -1  10   27.70    3.70
   0  -1  10   24.80    4.40
   0  -1  10   38.30    5.60
   0  -1  10   27.90    4.30
  -1   1 -10   49.70    5.00
  -1   1 -10   55.69    6.10
  -1   1 -10   47.30    6.40
  -1   1 -10   52.79    5.60
  -1   1 -10   47.60    5.50
  -1   1 -10   48.50    4.80
   1  -1  10   52.59    5.70
   1  -1  10   59.09    5.30
   1  -1  10   49.80    6.50
   1  -1  10   45.90    5.80
   1  -1  10   58.49    5.60
   1  -1  10   51.99    7.90
   1  -1  10   53.99    5.10
  -2   1 -10   90.19    8.30
  -2   1 -10   75.49    7.20
  -2   1 -10   81.19    6.30
  -2   1 -10   84.49    7.30
  -2   1 -10   85.29    7.30
  -2   1 -10   84.69    7.40
   2  -1  10   88.09    7.70
   2  -1  10   71.19    7.90
   2  -1  10   90.49    9.80
   2  -1  10   85.79    8.00
   2  -1  10   71.19    6.50
   2  -1  10   88.89    7.80
   2  -1  10   99.09    7.40
  -3   1 -10    3.20    7.10
  -3   1 -10    2.70    5.20
  -3   1 -10   -2.40    6.50
   3  -1  10    7.20    8.90
   3  -1  10    4.30    6.40
   3  -1  10   11.10    6.60
   3  -1  10   -4.20    7.90
  -4   1 -10    2.80    8.00
  -4   1 -10   24.30    9.30
  -4   1 -10   21.90   11.10
  -4   1 -10   -8.10    9.20
   4  -1  10   21.00    8.50
   4  -1  10    8.10   13.00
   4  -1  10    6.10    8.50
  -5   1 -10    5.50   13.40
  -5   1 -10   18.10   12.70
  -5   1 -10   -9.90   14.00
  -5   1 -10    3.90   12.70
   5  -1  10    0.60   12.80
   5  -1  10    4.50   12.40
   4   0 -10   30.10    8.70
   4   0 -10    2.20    9.40
   4   0 -10   14.70   10.80
  -4   0  10   32.80   10.60
  -4   0  10   20.90   10.70
  -4   0  10   24.40   11.10
   3   0 -10    9.50    6.30
   3   0 -10   -1.30   10.90
   3   0 -10    8.80    9.10
   3   0 -10   25.60    9.90
   3   0 -10    5.80    6.10
  -3   0  10   15.40    6.50
  -3   0  10   15.20    7.30
  -3   0  10    4.20    9.40
  -3   0  10   10.20    7.50
   2   0 -10  104.59    7.70
   2   0 -10   95.19    8.10
   2   0 -10  120.99    9.10
   2   0 -10  119.49    6.50
   2   0 -10  106.79    9.90
  -2   0  10  121.29    9.40
  -2   0  10  122.19   11.10
  -2   0  10  115.99   10.60
  -2   0  10  112.89    8.60
  -2   0  10  114.19    7.40
  -2   0  10  112.59    9.30
   1   0 -10   32.30    6.00
   1   0 -10   23.00    5.90
   1   0 -10   34.90    6.90
   1   0 -10   27.70    5.40
   1   0 -10   30.10    5.50
  -1   0  10   25.10    4.30
  -1   0  10   28.00    4.50
  -1   0  10   25.00    6.10
  -1   0  10   29.00    6.20
  -1   0  10   27.40    5.80
  -1   0  10   34.50    5.60
   0   0 -10  155.28    8.50
   0   0 -10  129.89    7.00
   0   0 -10  134.19    8.90
   0   0 -10  122.19    6.70
   0   0 -10  140.69    7.50
   0   0 -10  140.59    6.60
   0   0  10  150.78    8.00
   0   0  10  147.09    9.00
   0   0  10  138.29    7.70
   0   0  10  128.19    8.00
   0   0  10  124.89    6.40
   0   0  10  117.19    8.30
   0   0  10  136.59    6.80
  -1   0 -10  229.78    8.80
  -1   0 -10  215.78    7.70
  -1   0 -10  217.58    8.30
  -1   0 -10  215.98    9.80
  -1   0 -10  203.28    9.40
   1   0  10  218.68    8.80
   1   0  10  214.38    7.70
   1   0  10  217.48    9.30
   1   0  10  224.98   10.00
   1   0  10  207.28    9.90
   1   0  10  212.88    8.10
   1   0  10  205.38    8.40
  -2   0 -10   32.00    5.70
  -2   0 -10   38.90    4.90
  -2   0 -10   41.00    6.30
  -2   0 -10   32.10    4.70
  -2   0 -10   37.40    6.20
   2   0  10   32.20    5.00
   2   0  10   34.10    5.20
   2   0  10   40.90    5.80
   2   0  10   40.20    6.90
   2   0  10   41.60    6.60
   2   0  10   39.50    6.40
  -3   0 -10    1.80    6.60
  -3   0 -10    6.20    5.60
  -3   0 -10   -0.80    5.80
  -3   0 -10    1.00    6.90
  -3   0 -10    7.00    7.10
   3   0  10   11.60    9.00
   3   0  10   -8.80    5.90
   3   0  10   -5.20    8.00
   3   0  10    5.00    6.40
   3   0  10   -4.70    7.50
  -4   0 -10    9.20    9.00
  -4   0 -10    2.70    9.90
  -4   0 -10   28.50    8.30
  -4   0 -10    6.20    8.70
   4   0  10   -0.80   11.40
   4   0  10   20.40    8.50
   4   0  10    5.40    7.90
  -5   0 -10    6.00   12.40
  -5   0 -10   21.00   12.40
  -5   0 -10   29.90   13.90
   5   0  10   13.70   11.80
   5   0  10   12.50   14.70
   4  -1 -10    0.70    9.70
   4  -1 -10  -12.10    9.70
  -4   1  10   -2.20   10.10
  -4   1  10   -6.40    8.90
  -4   1  10    3.70   10.90
   3  -1 -10   52.99   15.80
   3  -1 -10   68.59    8.00
   3  -1 -10   44.30    9.20
  -3   1  10   60.29    8.30
  -3   1  10   57.19    6.80
  -3   1  10   49.20   10.70
  -3   1  10   45.20    8.40
  -3   1  10   42.10    9.40
   2  -1 -10   45.10    7.40
   2  -1 -10   51.19    6.80
   2  -1 -10   68.99    6.50
   2  -1 -10   50.09    7.10
  -2   1  10   58.09    5.60
  -2   1  10   63.29    7.30
  -2   1  10   61.79    5.90
  -2   1  10   48.30    7.50
  -2   1  10   53.39    8.10
  -2   1  10   59.79    6.70
   1  -1 -10  162.38    9.60
   1  -1 -10  164.98    8.30
   1  -1 -10  171.18    8.00
   1  -1 -10  161.78    8.80
   1  -1 -10  149.79    8.80
  -1   1  10  157.78    9.00
  -1   1  10  155.28    8.90
  -1   1  10  165.38    8.30
  -1   1  10  158.58    8.80
  -1   1  10  173.88    7.30
  -1   1  10  160.88    6.60
   0  -1 -10 1227.48   23.50
   0  -1 -10 1201.88   24.50
   0  -1 -10 1232.38   24.80
   0  -1 -10 1247.28   24.30
   0  -1 -10 1238.78   23.50
   0   1  10 1231.28   23.60
   0   1  10 1216.08   24.60
   0   1  10 1232.08   23.30
   0   1  10 1182.58   24.50
   0   1  10 1228.48   23.30
   0   1  10 1246.38   24.40
   0   1  10 1202.18   24.20
  -1  -1 -10  590.74   14.60
  -1  -1 -10  608.34   13.20
  -1  -1 -10  604.44   13.80
  -1  -1 -10  617.94   14.80
  -1  -1 -10  607.94   15.30
  -1  -1 -10  635.24   13.50
   1   1  10  606.94   14.30
   1   1  10  601.14   13.60
   1   1  10  570.34   13.40
   1   1  10  612.94   15.30
   1   1  10  619.44   13.70
   1   1  10  597.44   14.50
   1   1  10  589.24   15.00
  -2  -1 -10   17.60    5.30
  -2  -1 -10   14.30    6.00
  -2  -1 -10   16.20    5.80
  -2  -1 -10   14.90    4.30
  -2  -1 -10   11.90    4.10
  -2  -1 -10    3.00    5.50
   2   1  10   17.20    4.70
   2   1  10   12.70    5.70
   2   1  10   16.90    5.70
   2   1  10   16.90    4.60
   2   1  10   10.70    5.70
   2   1  10   14.80    5.80
   2   1  10    9.90    5.30
  -3  -1 -10   17.40    5.70
  -3  -1 -10   34.30    6.90
  -3  -1 -10   34.80    7.40
  -3  -1 -10   26.80    7.20
  -3  -1 -10   20.30    5.80
  -3  -1 -10   33.20    7.20
   3   1  10   40.00    8.60
   3   1  10   16.20    6.50
   3   1  10   26.40    7.90
   3   1  10   19.60    8.00
   3   1  10   26.00    6.40
   3   1  10   24.60    7.20
  -4  -1 -10   -0.30    8.90
  -4  -1 -10    5.50    9.30
  -4  -1 -10   13.60    9.90
  -4  -1 -10    1.80    7.90
   4   1  10   13.90    8.10
   4   1  10    7.40   11.20
   4   1  10    3.60    8.10
  -5  -1 -10   18.80   13.50
  -5  -1 -10    8.70   14.40
   5   1  10    8.70   13.00
   5   1  10    6.50   11.40
   4  -2 -10    8.00    9.60
  -4   2  10   14.10   11.20
  -4   2  10    6.90    9.40
  -4   2  10   31.20   11.30
   3  -2 -10   60.69    7.30
   3  -2 -10   67.39    7.40
   3  -2 -10   60.59    9.60
  -3   2  10   57.59    8.80
  -3   2  10   42.90   10.60
  -3   2  10   36.20    8.80
  -3   2  10   62.69    7.90
  -3   2  10   44.40    6.70
   2  -2 -10   98.69    8.20
   2  -2 -10   57.09    7.50
  -2   2  10  101.39    7.90
  -2   2  10   82.19    8.20
  -2   2  10   95.49    8.20
  -2   2  10  104.59    9.50
  -2   2  10   75.39    9.00
   1  -2 -10   85.49    8.50
   1  -2 -10   94.79    7.30
   1  -2 -10   97.89    7.20
   1  -2 -10   85.29    7.70
  -1   2  10   90.19    8.40
  -1   2  10  102.39    7.60
  -1   2  10   81.19    7.10
  -1   2  10  101.49    6.90
  -1   2  10  104.89    6.10
  -1   2  10   86.09    7.20
  -1   2  10   89.09    8.20
   0  -2 -10   31.40    5.20
   0  -2 -10   39.10    4.70
   0  -2 -10   35.20    4.50
   0  -2 -10   33.30    6.90
   0   2  10   31.00    5.10
   0   2  10   27.50    4.60
   0   2  10   33.80    4.00
   0   2  10   36.30    5.50
   0   2  10   29.10    5.10
   0   2  10   42.20    4.20
   0   2  10   35.00    5.40
  -1  -2 -10   54.89    4.50
  -1  -2 -10   56.39    5.20
  -1  -2 -10   56.99    6.30
  -1  -2 -10   50.79    4.90
  -1  -2 -10   48.40    5.60
   1   2  10   48.10    4.70
   1   2  10   50.49    4.60
   1   2  10   45.00    4.60
   1   2  10   54.69    5.70
   1   2  10   44.30    5.90
   1   2  10   48.80    5.60
   1   2  10   51.89    6.10
  -2  -2 -10   21.00    6.30
  -2  -2 -10   16.90    4.20
  -2  -2 -10   16.80    5.60
  -2  -2 -10   17.70    5.50
  -2  -2 -10   24.20    4.20
  -2  -2 -10   21.10    5.60
   2   2  10   12.10    5.20
   2   2  10   20.60    6.10
   2   2  10   20.40    5.90
   2   2  10   15.30    5.40
   2   2  10   16.60    4.50
   2   2  10   31.10    6.30
   2   2  10   24.00    6.50
  -3  -2 -10   17.80    7.10
  -3  -2 -10   25.50    7.10
  -3  -2 -10   16.50    6.20
  -3  -2 -10   15.00    5.10
  -3  -2 -10    5.00    6.00
  -3  -2 -10    4.30    5.20
   3   2  10    6.90    6.70
   3   2  10   19.80    6.20
   3   2  10    9.90    8.20
   3   2  10   12.80    6.40
   3   2  10    9.40    8.00
   3   2  10    5.90    7.80
  -4  -2 -10   -7.40    8.80
  -4  -2 -10   -7.50    9.50
  -4  -2 -10   -5.70    8.60
  -4  -2 -10    4.90    8.10
   4   2  10  -20.30   11.70
   4   2  10   -3.20    8.00
  -5  -2 -10    2.60   11.60
  -5  -2 -10   12.40   12.70
   5   2  10  -16.90   17.60
   5   2  10   22.60   11.60
   4  -3 -10   -2.50    9.10
   4  -3 -10    3.70    9.60
  -4   3  10    3.90    9.50
  -4   3  10   -1.10   12.20
  -4   3  10    8.70   11.70
   3  -3 -10  -11.60    9.00
   3  -3 -10    0.10    6.50
   3  -3 -10   -1.60    6.30
  -3   3  10    4.40    6.00
  -3   3  10    6.40    7.20
  -3   3  10    1.10    7.20
  -3   3  10   10.20    8.10
  -3   3  10   -3.30    9.60
   2  -3 -10   74.19    7.70
   2  -3 -10   83.29    7.80
  -2   3  10   61.89    7.00
  -2   3  10   75.09    8.00
  -2   3  10   62.99    6.10
  -2   3  10   64.29    8.30
  -2   3  10   63.79    6.80
  -2   3  10   62.09    5.80
  -2   3  10   62.69    8.10
   1  -3 -10  268.67    8.90
   1  -3 -10  257.67   10.50
   1  -3 -10  262.97    8.90
  -1   3  10  271.37    7.90
  -1   3  10  250.47   10.10
  -1   3  10  250.77    9.70
  -1   3  10  251.77    9.90
  -1   3  10  247.68   10.40
  -1   3  10  272.67    8.90
  -1   3  10  252.57   10.20
   0  -3 -10  229.08    9.50
   0  -3 -10  220.68    7.80
   0  -3 -10  196.38    9.30
   0  -3 -10  234.68    7.50
   0  -3 -10  237.78    8.30
   0   3  10  225.98    9.70
   0   3  10  233.98    9.40
   0   3  10  227.58    7.20
   0   3  10  223.58    9.20
   0   3  10  219.28    8.90
   0   3  10  210.18    9.50
   0   3  10  229.58    7.80
  -1  -3 -10   61.79    5.40
  -1  -3 -10   68.19    7.00
  -1  -3 -10   58.69    5.80
  -1  -3 -10   61.99    6.50
   1   3  10   59.49    6.00
   1   3  10   63.39    5.60
   1   3  10   67.09    6.30
   1   3  10   62.79    4.70
   1   3  10   55.69    4.80
   1   3  10   54.69    6.40
   1   3  10   63.89    6.40
  -2  -3 -10   11.60    3.80
  -2  -3 -10    8.70    5.20
  -2  -3 -10   18.60    4.50
  -2  -3 -10    7.20    5.10
  -2  -3 -10   20.20    5.70
  -2  -3 -10   18.00    5.90
   2   3  10   18.60    6.00
   2   3  10   15.40    4.70
   2   3  10    9.50    6.20
   2   3  10   18.80    6.10
   2   3  10    7.70    6.80
   2   3  10   11.90    4.50
  -3  -3 -10  123.89    9.50
  -3  -3 -10  134.89    9.40
  -3  -3 -10  127.39   11.40
  -3  -3 -10  134.79   11.20
  -3  -3 -10  154.08   10.50
  -3  -3 -10  118.89   11.40
   3   3  10  128.89    9.30
   3   3  10  126.79   11.40
   3   3  10  124.29   11.80
   3   3  10  159.18   12.90
   3   3  10  136.69    9.50
   3   3  10  127.39   12.90
  -4  -3 -10   37.20   10.10
  -4  -3 -10   39.20    8.60
   4   3  10   31.70    8.60
   4   3  10   34.40    9.00
   4   3  10   42.30   10.90
  -5  -3 -10   -5.80   11.90
  -5  -3 -10  -14.00   12.90
   5   3  10   -8.00   12.30
   5   3  10   16.40   17.50
   5   3  10    2.50   11.60
   4  -4 -10    2.60   10.10
  -4   4  10   24.80    9.30
  -4   4  10   12.50   11.30
  -4   4  10   19.10   10.80
   3  -4 -10    4.80    7.70
  -3   4  10   14.90    7.50
  -3   4  10   13.30    9.50
  -3   4  10   11.70    5.90
  -3   4  10    1.50    7.70
  -3   4  10  -15.10    8.30
   2  -4 -10   -1.70    7.00
  -2   4  10   -3.20    7.10
  -2   4  10    6.50    6.10
  -2   4  10    9.80    7.50
  -2   4  10   23.10    5.90
  -2   4  10    5.70    4.50
  -2   4  10    7.20    6.20
   1  -4 -10  945.11   20.40
  -1   4  10  978.60   20.40
  -1   4  10  973.30   21.00
  -1   4  10  980.00   19.20
  -1   4  10  955.90   20.20
  -1   4  10  922.71   20.20
  -1   4  10  908.61   20.70
  -1   4  10  960.60   18.80
   0  -4 -10  753.92   15.90
   0  -4 -10  764.52   18.30
   0  -4 -10  815.72   15.60
   0  -4 -10  802.32   15.80
   0   4  10  803.32   16.10
   0   4  10  784.12   17.20
   0   4  10  802.72   16.20
   0   4  10  787.92   17.30
   0   4  10  791.02   17.60
   0   4  10  772.92   17.10
   0   4  10  781.22   18.00
  -1  -4 -10  112.39    5.80
  -1  -4 -10  131.09    7.40
  -1  -4 -10  116.09    8.20
  -1  -4 -10  135.09    8.40
  -1  -4 -10  119.49    5.80
   1   4  10  112.29    8.10
   1   4  10  112.49    6.80
   1   4  10  119.79    8.40
   1   4  10  119.19    8.60
   1   4  10  120.79    6.80
   1   4  10  123.09    6.70
  -2  -4 -10   20.00    4.70
  -2  -4 -10   15.40    3.90
  -2  -4 -10    8.80    5.50
  -2  -4 -10   22.30    5.20
   2   4  10   19.50    6.60
   2   4  10   10.70    5.90
   2   4  10   13.40    5.00
   2   4  10   21.40    5.20
   2   4  10   22.60    6.30
   2   4  10   20.40    6.00
  -3  -4 -10   22.30    7.50
  -3  -4 -10   38.10    6.50
  -3  -4 -10   35.10    6.30
  -3  -4 -10   31.60    5.30
  -3  -4 -10   22.60    7.60
   3   4  10   16.80    8.40
   3   4  10   18.70    7.10
   3   4  10   21.60    8.60
   3   4  10   32.20    9.50
   3   4  10   12.90    7.80
  -4  -4 -10    2.10    8.20
  -4  -4 -10    4.70    8.80
   4   4  10  -15.90   10.90
   4   4  10    1.70    8.30
   4   4  10   -1.90    8.60
  -5  -4 -10   30.70   14.60
  -5  -4 -10   22.30   12.50
   5   4  10   16.20   13.10
   5   4  10   24.30   12.60
   4  -5 -10   -3.80   11.70
  -4   5  10   -7.10   13.30
  -4   5  10    3.10   11.40
  -4   5  10    6.30    8.50
   3  -5 -10   19.30    7.90
  -3   5  10   27.60   12.80
  -3   5  10   28.10    8.90
  -3   5  10   26.60    6.10
  -3   5  10    7.10    8.70
  -3   5  10   24.80   10.30
   2  -5 -10   54.69    7.50
  -2   5  10   64.29    6.00
  -2   5  10   56.49    8.50
  -2   5  10   54.79    7.60
  -2   5  10   61.69    7.00
  -2   5  10   61.79    7.70
  -2   5  10   45.80    5.00
   1  -5 -10  103.09    8.70
  -1   5  10  123.59    8.80
  -1   5  10  108.39    8.40
  -1   5  10  132.89    9.70
  -1   5  10  100.59    8.60
  -1   5  10  100.79    9.80
  -1   5  10  126.59    6.00
  -1   5  10  114.99    7.00
   0  -5 -10  141.89    8.20
   0  -5 -10  140.19    6.60
   0  -5 -10  136.99    9.70
   0   5  10  155.88    6.60
   0   5  10  163.18    8.90
   0   5  10  149.19    9.10
   0   5  10  149.39    7.60
   0   5  10  143.99    6.10
   0   5  10  132.69    8.50
   0   5  10  138.99    8.80
  -1  -5 -10   11.60    5.00
  -1  -5 -10    2.10    3.70
  -1  -5 -10   -2.50    5.60
   1   5  10   -1.30    3.80
   1   5  10    4.50    5.60
   1   5  10   -1.70    5.40
   1   5  10   -1.50    4.40
   1   5  10   -0.50    4.00
   1   5  10    6.30    5.70
  -2  -5 -10   34.60    4.00
  -2  -5 -10   37.10    5.60
  -2  -5 -10   23.30    6.00
  -2  -5 -10   20.70    6.30
   2   5  10   36.00    5.30
   2   5  10   31.70    5.30
   2   5  10   28.30    6.80
   2   5  10   24.90    6.70
   2   5  10   23.50    6.70
   2   5  10   30.40    7.30
  -3  -5 -10   15.60    7.10
  -3  -5 -10   10.30    6.80
  -3  -5 -10   13.90    7.70
   3   5  10   17.60    6.80
   3   5  10   30.80    9.10
   3   5  10   16.60    9.10
   3   5  10   10.60    7.90
  -4  -5 -10    5.40    9.00
  -4  -5 -10    5.80    7.80
   4   5  10   17.50    9.00
   4   5  10   11.20    8.70
   4   5  10   34.10   11.50
  -5  -5 -10   12.10   12.50
   5   5  10   20.50   12.90
   5   5  10   10.20   12.90
   4  -6 -10   19.50   12.10
  -4   6  10   -5.30   10.30
  -4   6  10   -6.60   12.40
   3  -6 -10    2.40    8.50
  -3   6  10   21.40   13.00
  -3   6  10   30.80   10.80
  -3   6  10   15.40    6.20
  -2   6  10   -0.10    7.20
  -2   6  10   -0.10    8.20
  -2   6  10   -3.30    7.40
  -2   6  10    4.20    4.50
  -2   6  10    7.80    6.00
  -2   6  10    3.60    7.90
   1  -6 -10   17.30    7.20
  -1   6  10   22.60    4.70
  -1   6  10   30.50    6.00
  -1   6  10   29.20    6.30
  -1   6  10   27.70    4.90
  -1   6  10   33.70    7.10
   0  -6 -10    8.40    4.70
   0  -6 -10   20.10    6.50
   0  -6 -10   11.40    4.20
   0   6  10    9.80    4.90
   0   6  10   10.20    3.90
   0   6  10   16.70    5.80
   0   6  10   10.90    3.80
  -1  -6 -10   54.09    6.60
  -1  -6 -10   55.09    4.50
  -1  -6 -10   59.79    5.80
   1   6  10   73.09    6.90
   1   6  10   44.20    5.00
   1   6  10   67.79    5.70
   1   6  10   62.69    6.30
   1   6  10   60.29    6.10
   1   6  10   59.49    6.60
  -2  -6 -10   25.10    4.50
   2   6  10   16.70    5.40
   2   6  10   13.20    7.00
   2   6  10   14.90    7.20
   2   6  10   16.00    7.40
   2   6  10   25.00    6.60
   2   6  10   13.40    7.20
  -3  -6 -10   -2.70    7.80
  -3  -6 -10   13.50    6.00
   3   6  10   23.60    9.90
   3   6  10    9.50    6.80
   3   6  10   -1.70    8.50
   3   6  10   13.30    8.80
   3   6  10   -2.70   10.00
  -4  -6 -10    0.30    7.10
  -4  -6 -10    8.10   10.50
  -4  -6 -10    6.60    8.30
   4   6  10  -16.50   11.10
   4   6  10    1.50    9.60
   4   6  10  -11.50    9.30
  -5  -6 -10    6.00   12.50
   5   6  10    0.20   13.70
   5   6  10   19.50   14.80
   3  -7 -10   -9.30    9.30
  -3   7  10    7.80   13.50
  -3   7  10   -9.20   11.60
  -3   7  10    7.60    6.10
  -2   7  10   99.29    9.70
  -2   7  10  116.79    8.60
  -2   7  10  104.89    9.80
  -2   7  10  104.69   10.40
  -2   7  10  109.79    8.80
  -2   7  10  104.29    6.90
  -1   7  10    8.90    5.60
  -1   7  10   16.20    4.10
  -1   7  10   17.80    4.70
  -1   7  10   15.20    7.20
  -1   7  10   18.70    6.90
  -1   7  10   17.50    6.10
   0  -7 -10   22.80    7.30
   0  -7 -10   23.50    4.40
   0   7  10   18.90    5.20
   0   7  10   10.00    5.60
   0   7  10   31.70    6.50
   0   7  10   22.50    4.00
  -1  -7 -10   62.79    6.20
   1   7  10   60.79    6.40
   1   7  10   66.59    6.70
   1   7  10   66.69    7.10
   1   7  10   65.39    6.40
   1   7  10   59.09    7.20
  -2  -7 -10    5.60    6.90
   2   7  10    4.30    7.30
   2   7  10    8.00    6.00
   2   7  10    8.90    6.80
   2   7  10    4.10    6.00
   2   7  10   10.90    7.80
  -3  -7 -10   -7.40    5.50
   3   7  10   -3.00    8.70
   3   7  10   17.80    9.10
   3   7  10   18.10   11.30
   3   7  10   -6.60    9.40
   3   7  10    1.10    6.70
   3   7  10    3.00   10.00
  -4  -7 -10   15.90    8.60
   4   7  10    1.40    9.70
   4   7  10    0.10   10.10
  -5  -7 -10   32.40   13.00
   5   7  10    7.90   15.00
   5   7  10   10.70   15.20
  -3   8  10   20.00    6.50
  -3   8  10   42.50   11.30
  -2   8  10   41.50    8.50
  -2   8  10   47.60    5.10
  -2   8  10   54.89    8.20
  -2   8  10   49.80    9.30
  -2   8  10   41.40    9.60
  -2   8  10   47.00    6.80
  -1   8  10   13.30    6.50
  -1   8  10  -12.30    7.10
  -1   8  10    3.80    4.70
   0   8  10   75.39    6.30
   0   8  10   81.69    6.50
   0   8  10   86.19    9.40
   0   8  10   82.59    7.20
   0   8  10   77.89    7.10
   1   8  10   14.80    7.30
   1   8  10   24.80    6.30
   1   8  10   25.80    7.60
   1   8  10   19.40    5.30
   1   8  10   19.70    5.20
  -2  -8 -10   12.10    6.80
   2   8  10   11.10    9.00
   2   8  10   22.80    6.20
   2   8  10   18.20    7.80
   2   8  10   13.00    6.20
   2   8  10    4.00    8.30
   2   8  10   14.50    7.70
  -3  -8 -10    3.40    8.90
   3   8  10    8.60   12.50
   3   8  10   -0.60    9.40
   3   8  10    5.30    7.90
   3   8  10    5.90    9.90
   3   8  10    0.60    8.70
  -4  -8 -10   10.10    8.70
   4   8  10    8.70   10.90
   4   8  10   -9.30   12.00
  -3   9  10    5.60   13.80
  -2   9  10   29.40   10.50
  -2   9  10   20.90    7.10
  -1   9  10   -2.60    5.30
  -1   9  10   12.20    7.00
  -1   9  10   15.40    8.20
   0   9  10    9.70    5.10
   0   9  10    8.40    6.40
   1   9  10    4.40    5.50
   1   9  10    3.70    7.50
   1   9  10    9.90    6.30
   1   9  10   24.20    8.00
   1   9  10    5.00    8.40
   1   9  10    4.40    5.50
   2   9  10   -1.00    7.10
   2   9  10    0.80    9.30
   2   9  10    0.70    7.10
   2   9  10    7.60   10.40
   2   9  10    6.10    9.00
   2   9  10   15.20    8.30
  -3  -9 -10   15.90    9.90
   3   9  10   15.40    9.00
   3   9  10   -5.10    9.00
   3   9  10    7.60   11.00
   4   9  10    0.50   12.60
   4   9  10  -11.50   13.90
   4   9  10   13.30   12.70
  -2  10  10   -0.80   12.40
  -1  10  10   -5.50    9.80
   0  10  10   15.00    5.70
   0  10  10   22.50    9.20
   1  10  10   -4.00    9.10
   1  10  10    5.10    9.40
   1  10  10   -3.60    8.50
   1  10  10   -6.80    6.20
  -2 -10 -10   21.50   12.00
   2  10  10   15.00   10.40
   2  10  10   -2.70    8.90
   2  10  10   12.10    7.80
   2  10  10   10.00   13.10
   2  10  10   13.90   10.60
   2  10  10    2.70    7.80
   3  10  10   -0.30   10.50
   3  10  10   -7.80   12.00
   3  10  10   -3.90   11.00
   3  10  10    8.90   13.00
   4  10  10   -8.40   14.70
  -2  11  10   -7.60   13.10
  -1  11  10   16.20   11.80
  -1  11  10    0.40   11.20
   0  11  10   12.60   10.40
   0  11  10   28.90   12.00
   0  11  10   18.50   11.00
   1  11  10   -6.40    7.60
   1  11  10   -3.20   11.30
   1  11  10    1.80   11.90
   2  11  10   -1.70   10.40
   2  11  10   24.30   11.10
   2  11  10    1.70    8.60
   2  11  10  -18.10   13.70
   3  11  10   24.20   11.30
   3  11  10   -6.00   15.00
   3  11  10   29.20   12.40
  -1  12  10   18.70   12.80
  -1  12  10   13.60   13.00
   0  12  10   17.00   13.20
   0  12  10   -2.10   13.30
   1  12  10   -1.80   13.10
   1  12  10  -20.20   14.10
   2  12  10  -14.50   16.60
   0  10 -11   14.50   19.60
   0  10 -11   -9.50   18.60
   0 -10  11  -26.90   19.70
  -1  10 -11    1.10   14.40
  -1  10 -11  -20.70   17.50
   1   9 -11   10.60   15.50
   1   9 -11    4.20   17.50
   1   9 -11    4.90   13.50
   1   9 -11   28.10   16.70
  -1  -9  11  -10.00   10.90
   0   9 -11   -3.90   12.90
   0   9 -11  -12.90   12.70
   0   9 -11  -13.70   15.30
   0   9 -11    8.00   15.60
   0  -9  11    5.80   10.40
  -1   9 -11   17.10   15.10
  -1   9 -11    7.30   13.90
  -1   9 -11   10.80   12.60
  -1   9 -11   -2.40   15.50
   1  -9  11    8.10   10.30
  -2   9 -11    7.20   12.60
  -2   9 -11    9.50   15.50
  -2   9 -11   10.20   16.70
  -2   9 -11    0.40   16.80
   2  -9  11   12.20   11.20
   2   8 -11   24.90   16.30
   2   8 -11   14.70   14.90
   2   8 -11   15.10   18.30
   2   8 -11    5.20   13.60
  -2  -8  11    1.30   11.50
   1   8 -11  -17.50   10.90
   1   8 -11   -2.20   13.80
   1   8 -11    0.60   13.50
   1   8 -11  -10.20   12.00
  -1  -8  11   16.90   11.00
  -1  -8  11   -2.20   10.00
   0   8 -11   15.80   12.50
   0   8 -11    4.40   10.80
   0   8 -11   -7.50   11.30
   0   8 -11    9.60   12.60
   0   8 -11    2.80    9.60
   0  -8  11   -9.50   10.20
   0  -8  11    8.60    8.40
  -1   8 -11  -10.30   12.10
  -1   8 -11   -1.00    9.50
  -1   8 -11    7.20   13.00
  -1   8 -11    8.10   13.40
  -1   8 -11   -1.90   11.10
   1  -8  11   12.90    9.00
  -2   8 -11    9.80   15.10
  -2   8 -11    9.40   11.00
  -2   8 -11   13.90   13.60
  -2   8 -11    0.80   13.40
   2  -8  11   -0.60    9.20
  -3   8 -11  -10.50   16.90
  -3   8 -11  -22.30   13.80
  -3   8 -11    8.80   17.30
   3  -8  11    0.30   11.60
   2   7 -11   19.10   12.90
   2   7 -11   12.50   12.80
   2   7 -11    6.30   14.10
   2   7 -11    4.50   14.50
  -2  -7  11    6.80   11.40
  -2  -7  11   13.80   10.50
  -2  -7  11   15.40   11.30
   1   7 -11   -0.80   11.40
   1   7 -11   20.60    9.80
   1   7 -11  -24.80    9.40
   1   7 -11   -1.20   11.90
   1   7 -11   -1.80   12.10
   1   7 -11   19.70   10.90
  -1  -7  11  -16.70    9.40
  -1  -7  11    1.70    8.50
  -1  -7  11   17.70    8.90
   0   7 -11    8.70   11.00
   0   7 -11  -13.90    9.70
   0   7 -11   -3.50    9.10
   0   7 -11    3.00   10.80
   0   7 -11   12.90   10.70
   0   7 -11    6.60    8.80
   0  -7  11    3.00    7.90
   0  -7  11   -3.50    9.30
   0  -7  11    6.80    8.20
  -1   7 -11   24.10   10.60
  -1   7 -11   29.60    9.60
  -1   7 -11   42.90   11.60
  -1   7 -11   25.50   11.20
  -1   7 -11   19.60   10.50
  -1   7 -11   26.70    9.20
   1  -7  11    9.50    7.80
   1  -7  11   37.40    9.50
  -2   7 -11    0.40   12.50
  -2   7 -11   10.50    9.50
  -2   7 -11   -5.10   12.10
  -2   7 -11   10.30   12.80
   2  -7  11   10.00   10.30
   2  -7  11   -6.90    9.10
  -3   7 -11   16.10   16.00
  -3   7 -11   -8.10   13.90
  -3   7 -11  -16.90   13.20
   3  -7  11   11.30   10.30
   4  -7  11   22.70   14.10
   3   6 -11   -5.40   15.10
   3   6 -11   19.00   13.60
   3   6 -11   20.30   16.20
   3   6 -11  -11.30   13.70
  -3  -6  11   15.70   13.20
  -3  -6  11  -17.80   12.00
  -3  -6  11   24.70   13.80
   2   6 -11   -3.90   13.60
   2   6 -11   28.90   14.60
   2   6 -11   -6.20   10.90
   2   6 -11   16.80   11.70
   2   6 -11   22.90   10.20
  -2  -6  11   25.90    9.90
  -2  -6  11   17.70    9.90
  -2  -6  11    5.30    9.00
   1   6 -11    1.70    9.10
   1   6 -11    7.10    9.50
   1   6 -11    8.70   10.60
   1   6 -11    0.30    8.60
   1   6 -11    1.90   10.40
   1   6 -11    6.10    8.90
  -1  -6  11   18.30    7.50
  -1  -6  11    3.70    7.30
  -1  -6  11    3.40    8.50
   0   6 -11   47.90   11.10
   0   6 -11    9.10    8.80
   0   6 -11   -5.10    8.40
   0   6 -11  -13.00    8.20
   0   6 -11   -4.70    8.70
   0   6 -11   17.20    8.30
   0  -6  11  -14.60    8.50
   0  -6  11   -0.80    6.80
   0  -6  11    3.90    6.60
  -1   6 -11   86.29   11.70
  -1   6 -11   90.09   10.40
  -1   6 -11   90.49    8.70
  -1   6 -11   67.19   10.40
  -1   6 -11   91.29   10.20
  -1   6 -11   69.99    8.60
   1  -6  11  116.99   11.00
   1  -6  11   92.99   11.50
   1  -6  11   86.59    9.00
  -2   6 -11   -7.80    8.10
  -2   6 -11    9.50   10.70
  -2   6 -11    4.40   10.40
  -2   6 -11   -5.30   11.80
   2  -6  11    1.90    9.50
   2  -6  11   -7.60    7.80
  -3   6 -11   11.50   12.80
  -3   6 -11   16.90   12.30
  -3   6 -11    4.30   11.70
   3  -6  11    7.40   11.70
   3  -6  11   -3.80   10.50
  -4   6 -11   -9.50   17.00
  -4   6 -11   13.10   15.20
  -4   6 -11   -8.00   14.40
   4  -6  11    3.20   11.00
   4  -6  11    2.10   12.50
   3   5 -11   34.40   12.70
   3   5 -11   19.90   13.40
   3   5 -11    1.10   11.90
   3   5 -11   33.20   14.70
  -3  -5  11   16.50   11.00
  -3  -5  11   23.30   11.60
  -3  -5  11   40.60   11.00
   2   5 -11  -11.90   11.30
   2   5 -11   11.10   12.80
   2   5 -11    4.40    9.70
   2   5 -11   -2.30    9.40
  -2  -5  11   -1.30    8.80
  -2  -5  11    8.30    8.10
  -2  -5  11   -8.50    8.20
   1   5 -11   -0.30    7.50
   1   5 -11    3.30   11.10
   1   5 -11    4.90    8.20
   1   5 -11   10.20    8.60
   1   5 -11    9.80    9.50
   1   5 -11    5.90    7.90
  -1  -5  11   14.40   10.90
  -1  -5  11   17.00    7.00
  -1  -5  11    9.10    8.40
  -1  -5  11    0.50    6.60
   0   5 -11   -0.50    7.90
   0   5 -11   -0.30    6.80
   0   5 -11   -4.70    9.20
   0   5 -11   21.60    7.80
   0   5 -11   -4.70    7.60
   0   5 -11    3.00    7.50
   0  -5  11   -5.80    6.20
   0  -5  11   -2.20    9.90
   0  -5  11    0.90    6.30
   0  -5  11    9.00    7.60
  -1   5 -11   53.89    8.90
  -1   5 -11   33.50    8.00
  -1   5 -11   36.70    8.80
  -1   5 -11   43.90    7.40
   1  -5  11   30.00    7.00
   1  -5  11   46.40    9.60
   1  -5  11   46.00    6.80
   1  -5  11   56.09   10.40
  -2   5 -11    7.20    9.20
  -2   5 -11    7.10    9.00
  -2   5 -11   11.40    8.10
  -2   5 -11    6.60   10.30
   2  -5  11   -1.80    6.80
   2  -5  11    8.50    7.90
  -3   5 -11   21.00   11.20
  -3   5 -11   26.20   10.60
  -3   5 -11   35.90   11.40
  -3   5 -11   22.30    9.10
   3  -5  11   30.30    9.20
   3  -5  11    8.00    9.20
  -4   5 -11   22.80   14.20
  -4   5 -11  -21.70   13.00
  -4   5 -11  -11.10   16.20
   4  -5  11   10.20   11.90
   3   4 -11   14.80   10.50
   3   4 -11  -13.70   13.20
   3   4 -11   -6.30   12.00
   3   4 -11   16.00   11.90
  -3  -4  11    8.10    9.70
  -3  -4  11   -1.60    9.70
  -3  -4  11    5.50    9.70
   2   4 -11   15.00    8.90
   2   4 -11   21.90    9.00
   2   4 -11   41.60    9.10
   2   4 -11   20.70   10.40
  -2  -4  11   27.30    8.40
  -2  -4  11   23.70   12.80
  -2  -4  11   17.40    7.90
  -2  -4  11   22.50    7.50
   1   4 -11   74.99    9.80
   1   4 -11   59.99    8.40
   1   4 -11   62.19    8.20
   1   4 -11   49.40    9.20
   1   4 -11   57.29    7.50
   1   4 -11   55.39    7.70
  -1  -4  11   67.99    7.10
  -1  -4  11   51.99   10.20
  -1  -4  11   87.99    8.70
  -1  -4  11   69.89    7.10
   0   4 -11  123.09   10.90
   0   4 -11  127.79   11.00
   0   4 -11  131.79   10.50
   0   4 -11  135.99   12.60
   0   4 -11  121.19    8.90
   0   4 -11  135.49   10.60
   0  -4  11  135.09   10.40
   0  -4  11  147.09    8.80
   0  -4  11  142.29   11.40
   0  -4  11  137.09    9.10
  -1   4 -11    0.10    7.30
  -1   4 -11    2.80    7.40
  -1   4 -11   -2.10    7.10
  -1   4 -11    3.00    6.70
  -1   4 -11   -8.10    8.10
  -1   4 -11    3.10    6.30
   1  -4  11   18.00    7.80
   1  -4  11    4.70    5.50
   1  -4  11    5.00    8.60
  -2   4 -11   83.79    9.00
  -2   4 -11   75.09    7.50
  -2   4 -11   63.59    9.70
  -2   4 -11   75.89    9.70
   2  -4  11   74.09    8.00
   2  -4  11   74.59    9.40
   2  -4  11   52.39   11.10
   2  -4  11   71.19    7.40
   2  -4  11   71.29   10.50
  -3   4 -11   98.49   12.30
  -3   4 -11   69.99   11.00
  -3   4 -11   71.29   11.20
  -3   4 -11   68.39    8.60
   3  -4  11   81.99    9.40
   3  -4  11   70.29    9.50
  -4   4 -11   -3.10   12.60
  -4   4 -11   -2.90   13.60
  -4   4 -11    9.80   15.20
   4  -4  11   14.10   11.50
   4  -4  11   18.70   12.30
  -5   4 -11    0.70   17.40
   5  -4  11  -14.50   14.60
   4   3 -11    3.30   11.60
   4   3 -11    9.70   15.40
  -4  -3  11   15.10   14.20
  -4  -3  11    9.10   12.70
   3   3 -11   10.30   13.20
   3   3 -11    8.00    9.50
   3   3 -11   13.20    9.50
   3   3 -11   -2.30   10.10
  -3  -3  11   19.00   16.00
  -3  -3  11   13.90    9.50
  -3  -3  11    0.10    9.40
  -3  -3  11   20.10    9.60
   2   3 -11   31.80    7.30
   2   3 -11   25.20    7.80
   2   3 -11   29.50    9.90
   2   3 -11   19.70    8.10
  -2  -3  11   43.50    6.90
  -2  -3  11   19.60    9.10
  -2  -3  11   57.49   11.30
  -2  -3  11   31.20    7.30
   1   3 -11   10.30    6.70
   1   3 -11   13.60    6.40
   1   3 -11    9.80    6.60
   1   3 -11   -9.20    8.30
   1   3 -11    6.70    7.60
   1   3 -11    4.20    7.90
  -1  -3  11   10.10    5.20
  -1  -3  11    9.50    8.80
  -1  -3  11   13.60    6.90
  -1  -3  11    0.30    5.40
  -1  -3  11   18.00    9.40
   0   3 -11   54.89    6.60
   0   3 -11   43.30    8.60
   0   3 -11   44.60    6.70
   0   3 -11   38.30    6.80
   0  -3  11   45.00    5.50
   0  -3  11   41.40    7.30
   0  -3  11   46.00    7.60
  -1   3 -11  422.86   14.00
  -1   3 -11  404.46   13.90
  -1   3 -11  428.66   12.20
  -1   3 -11  398.26   14.40
   1  -3  11  408.76   13.50
   1  -3  11  388.96   15.00
   1  -3  11  419.06   12.70
   1  -3  11  422.56   12.60
   1  -3  11  431.66   14.60
  -2   3 -11   59.19    6.20
  -2   3 -11   50.09    8.20
  -2   3 -11   31.00    8.70
  -2   3 -11   46.70    8.80
   2  -3  11   39.60    8.10
   2  -3  11   55.49    7.50
   2  -3  11   48.60    9.20
   2  -3  11   77.29    9.80
  -3   3 -11    5.60   10.30
  -3   3 -11    1.50    7.60
  -3   3 -11    4.00    8.90
  -3   3 -11   12.50    9.80
   3  -3  11   17.70    7.90
   3  -3  11   19.10   12.20
   3  -3  11   13.60    7.70
  -4   3 -11   -2.40   11.60
  -4   3 -11    4.80    9.60
  -4   3 -11    5.70   13.80
  -4   3 -11    7.40   11.70
   4  -3  11   35.10   10.60
   4  -3  11   -3.50   10.40
  -5   3 -11   -2.60   19.50
  -5   3 -11   25.30   17.80
  -5   3 -11    2.70   16.30
   5  -3  11    7.90   14.90
   4   2 -11   77.79   11.80
   4   2 -11  101.49   14.80
   4   2 -11   73.99   11.10
  -4  -2  11   69.39   13.60
  -4  -2  11   61.89   13.20
  -4  -2  11   65.99   12.80
   3   2 -11   -7.70    8.10
   3   2 -11   18.10    9.60
   3   2 -11   -7.60    8.30
   3   2 -11   -2.70   10.90
  -3  -2  11   20.10    8.50
  -3  -2  11   -0.70    9.50
  -3  -2  11  -30.50   13.80
  -3  -2  11    1.40    9.00
   2   2 -11   74.39    7.40
   2   2 -11   68.59    6.90
   2   2 -11   57.09    8.20
   2   2 -11   50.99    9.50
  -2  -2  11   56.79    7.50
  -2  -2  11   61.99   10.70
  -2  -2  11   60.39   11.00
  -2  -2  11   67.59    7.50
   1   2 -11   15.90    7.50
   1   2 -11   37.10    7.20
   1   2 -11   37.70    7.50
   1   2 -11   39.30    6.90
   1   2 -11   38.30    8.20
   1   2 -11   33.60    5.90
  -1  -2  11   32.00    5.70
  -1  -2  11   37.20    7.10
  -1  -2  11   32.40    7.80
  -1  -2  11   35.20    6.10
  -1  -2  11   34.20    6.10
  -1  -2  11   28.50    8.10
   0   2 -11  171.58   10.00
   0   2 -11  125.89   11.10
   0   2 -11  142.09    8.50
   0   2 -11  142.69    9.00
   0   2 -11  143.39    9.70
   0   2 -11  135.89    9.10
   0   2 -11  131.99    9.00
   0  -2  11  162.88    8.10
   0  -2  11  133.49   10.20
   0  -2  11  157.28   10.20
   0  -2  11  137.19    6.30
   0  -2  11  147.59    8.30
  -1   2 -11  202.78   12.60
  -1   2 -11  193.58    9.80
  -1   2 -11  200.08   10.00
  -1   2 -11  192.18   10.70
  -1   2 -11  225.18   11.10
  -1   2 -11  208.98   11.00
   1  -2  11  192.38    9.10
   1  -2  11  205.08   11.50
   1  -2  11  203.88   10.50
   1  -2  11  250.67   12.10
   1  -2  11  208.68   10.00
  -2   2 -11  133.19   11.40
  -2   2 -11  142.49    9.20
  -2   2 -11  124.99   11.20
  -2   2 -11  144.59   11.80
   2  -2  11  138.29   12.50
   2  -2  11  120.09    9.50
   2  -2  11  134.79   13.10
   2  -2  11  127.59   10.00
  -3   2 -11   58.49    9.60
  -3   2 -11   54.79    9.40
  -3   2 -11   56.79    7.60
  -3   2 -11   61.99    9.40
   3  -2  11   78.59   11.30
   3  -2  11   54.89    8.20
   3  -2  11   62.89    8.40
   3  -2  11   69.69   11.30
  -4   2 -11   21.80   12.70
  -4   2 -11   24.70   12.10
  -4   2 -11   32.60    9.70
  -4   2 -11   33.20   11.10
   4  -2  11   31.50   10.10
   4  -2  11   42.60   10.30
  -5   2 -11   24.40   15.60
  -5   2 -11  -30.30   16.40
  -5   2 -11  -24.40   14.30
   5  -2  11   27.10   13.80
   4   1 -11  -21.80   13.00
   4   1 -11  -16.00   10.20
   4   1 -11    3.20   10.40
  -4  -1  11   25.30   12.30
  -4  -1  11   -5.00   12.20
  -4  -1  11   16.90   13.60
   3   1 -11    8.00    7.60
   3   1 -11    7.50   10.70
   3   1 -11   -5.10    6.90
   3   1 -11   17.30    9.60
   3   1 -11  -15.20    7.00
  -3  -1  11    4.40   13.00
  -3  -1  11   -2.90   13.70
  -3  -1  11   10.20    8.80
  -3  -1  11    0.70    7.80
  -3  -1  11    8.60    8.50
   2   1 -11   45.50    7.50
   2   1 -11   48.70    6.10
   2   1 -11   28.90    8.80
   2   1 -11   43.50    7.70
  -2  -1  11   45.70   10.00
  -2  -1  11   42.30    7.00
  -2  -1  11   44.00    8.90
  -2  -1  11   33.60    9.60
   1   1 -11  295.47   11.50
   1   1 -11  306.07   10.70
   1   1 -11  309.17   11.30
   1   1 -11  298.17   11.90
   1   1 -11  285.77    9.10
   1   1 -11  287.87   12.60
   1   1 -11  292.57   13.00
  -1  -1  11  298.07   15.50
  -1  -1  11  304.67   11.60
  -1  -1  11  298.47   12.30
  -1  -1  11  304.47   10.00
   0   1 -11   29.50    5.50
   0   1 -11   31.20    7.50
   0   1 -11   34.50    5.70
   0   1 -11   40.00    5.50
   0   1 -11   28.90    6.10
   0   1 -11   37.20    6.40
   0  -1  11   33.10    6.80
   0  -1  11   39.70    6.20
   0  -1  11   31.40    5.10
   0  -1  11   30.20    5.20
  -1   1 -11  257.27   11.20
  -1   1 -11  249.58   11.40
  -1   1 -11  238.58    9.40
  -1   1 -11  262.47   10.80
  -1   1 -11  237.78   10.00
  -1   1 -11  232.88   12.30
   1  -1  11  254.97    9.80
   1  -1  11  237.88   10.10
   1  -1  11  235.08   11.30
   1  -1  11  218.38    9.80
   1  -1  11  258.87   11.50
  -2   1 -11 1981.40   38.40
  -2   1 -11 1959.20   38.90
  -2   1 -11 1902.81   36.70
  -2   1 -11 1936.81   36.50
  -2   1 -11 1972.70   38.20
   2  -1  11 1910.91   37.70
   2  -1  11 1955.90   37.50
   2  -1  11 1985.30   39.40
   2  -1  11 1929.91   37.60
   2  -1  11 1954.30   37.30
   2  -1  11 1934.51   39.00
  -3   1 -11    2.40    9.20
  -3   1 -11   20.00    8.40
  -3   1 -11    7.10    6.60
  -3   1 -11    3.40    7.80
   3  -1  11  -12.00    7.20
   3  -1  11    0.00    7.00
   3  -1  11    5.80    8.60
   3  -1  11   -8.10   10.10
   3  -1  11   -2.90   10.00
  -4   1 -11  -14.70   11.70
  -4   1 -11   15.10    9.50
  -4   1 -11   -0.80   10.40
  -4   1 -11    6.90   10.60
   4  -1  11   -3.80    9.30
   4  -1  11   38.50   14.50
   4  -1  11   10.00    9.00
  -5   1 -11  -20.50   13.60
  -5   1 -11    2.90   16.10
  -5   1 -11    9.10   14.80
   5  -1  11   -4.80   13.80
   5  -1  11   -6.20   14.30
   4   0 -11   29.80   10.40
   4   0 -11   45.50   11.40
  -4   0  11   43.50   12.90
  -4   0  11   29.70   11.50
  -4   0  11   49.99   12.40
   3   0 -11   16.70   11.40
   3   0 -11    6.80    8.80
  -3   0  11   -5.60    7.60
  -3   0  11   -7.00   12.00
  -3   0  11   -6.00    8.80
  -3   0  11   15.10    8.30
  -3   0  11  -11.20   11.40
   2   0 -11   45.70    8.40
   2   0 -11   49.70    9.00
   2   0 -11   47.90    8.40
   2   0 -11   36.00    7.40
  -2   0  11   41.30    6.60
  -2   0  11   23.50    9.30
  -2   0  11   43.50    9.40
  -2   0  11   54.89    6.40
  -2   0  11   33.50    7.40
   1   0 -11  111.19    9.30
   1   0 -11  112.69    9.30
   1   0 -11   99.19   10.00
   1   0 -11  104.19    9.30
   1   0 -11  100.99   10.00
  -1   0  11   93.69    9.20
  -1   0  11   97.29   10.00
  -1   0  11  123.89    7.30
  -1   0  11  109.99    8.70
  -1   0  11  110.29   10.30
  -1   0  11  114.19    7.90
   0   0 -11    0.10    6.10
   0   0 -11    1.20    5.00
   0   0 -11   -0.80    6.40
   0   0 -11    1.50    5.00
   0   0 -11    7.10    5.90
   0   0 -11    5.60    4.50
   0   0  11    0.90    5.70
   0   0  11    5.60    4.50
   0   0  11    3.60    5.70
   0   0  11    2.30    5.80
   0   0  11    3.70    6.10
   0   0  11    3.20    4.50
  -1   0 -11  244.78    9.40
  -1   0 -11  246.08    9.30
  -1   0 -11  266.97   11.80
  -1   0 -11  257.27   10.20
  -1   0 -11  237.38   10.90
   1   0  11  261.67    9.40
   1   0  11  258.57   12.00
   1   0  11  238.58   11.00
   1   0  11  259.27   11.90
   1   0  11  247.08    9.60
  -2   0 -11  209.38   11.00
  -2   0 -11  159.18    8.80
  -2   0 -11  195.68   11.70
  -2   0 -11  167.38   10.30
  -2   0 -11  172.08    9.00
   2   0  11  174.48    9.80
   2   0  11  166.58   10.30
   2   0  11  161.68   11.50
   2   0  11  185.98    9.60
   2   0  11  169.48   11.20
   2   0  11  176.08   11.40
  -3   0 -11   25.70    7.40
  -3   0 -11   24.20    6.60
  -3   0 -11   16.60    8.40
  -3   0 -11   26.20    8.60
   3   0  11   28.80   10.10
   3   0  11   26.80    7.40
   3   0  11   44.00    7.40
   3   0  11   40.40    8.80
   3   0  11   30.10    8.40
  -4   0 -11  -11.00    9.60
  -4   0 -11   11.00    8.80
  -4   0 -11   17.50    9.90
  -4   0 -11    0.90   11.00
   4   0  11   -5.50    9.00
   4   0  11   -4.70    8.60
   4   0  11  -12.20   13.60
  -5   0 -11   19.00   14.30
  -5   0 -11  -23.80   16.20
  -5   0 -11   -1.60   14.30
   5   0  11   15.30   12.90
   5   0  11   18.70   13.30
   4  -1 -11   -6.70   11.50
   4  -1 -11   -0.50   10.80
  -4   1  11    8.10   11.80
  -4   1  11    8.50   12.70
  -4   1  11   -4.90   10.70
   3  -1 -11   22.10   10.60
   3  -1 -11   23.40    7.70
   3  -1 -11    9.00   10.80
  -3   1  11   11.50    9.20
  -3   1  11   22.30   13.00
  -3   1  11   14.60   11.10
  -3   1  11    7.70    8.50
  -3   1  11   15.00    7.90
   2  -1 -11  -11.90    8.10
   2  -1 -11    7.20    6.10
  -2   1  11    9.70    8.50
  -2   1  11    6.70    5.20
  -2   1  11    2.00    8.10
  -2   1  11    2.40    6.10
  -2   1  11    8.20    6.00
  -2   1  11   -0.90    7.90
   1  -1 -11   69.59    6.80
   1  -1 -11   67.09    7.10
   1  -1 -11   54.99    6.40
   1  -1 -11   66.49    8.00
   1  -1 -11   52.09    7.10
  -1   1  11   54.59    5.30
  -1   1  11   68.29    5.70
  -1   1  11   63.79    6.80
  -1   1  11   58.59    7.30
  -1   1  11   51.19    7.20
  -1   1  11   60.09    7.70
   0  -1 -11   27.80    6.30
   0  -1 -11   20.30    5.40
   0  -1 -11   29.20    6.90
   0  -1 -11   44.30    4.40
   0  -1 -11   39.90    6.20
   0  -1 -11   41.40    5.20
   0   1  11   32.00    5.20
   0   1  11   37.90    6.70
   0   1  11   36.50    6.20
   0   1  11   22.50    6.20
   0   1  11   28.00    6.60
   0   1  11   35.20    4.80
  -1  -1 -11  590.94   15.90
  -1  -1 -11  609.34   15.40
  -1  -1 -11  555.34   13.60
  -1  -1 -11  580.34   13.50
  -1  -1 -11  573.04   14.10
   1   1  11  574.84   16.00
   1   1  11  551.64   14.00
   1   1  11  559.84   15.00
   1   1  11  562.04   15.50
   1   1  11  590.64   14.00
   1   1  11  581.44   14.00
  -2  -1 -11   22.50    6.40
  -2  -1 -11    8.80    4.90
  -2  -1 -11   23.50    5.40
  -2  -1 -11   12.40    6.20
  -2  -1 -11   19.00    7.00
   2   1  11    6.70    6.50
   2   1  11   10.60    5.40
   2   1  11   16.40    5.50
   2   1  11    4.10    6.60
   2   1  11   23.00    7.30
   2   1  11    7.90    7.60
   2   1  11    9.80    6.10
  -3  -1 -11   34.80    8.10
  -3  -1 -11   36.50    7.70
  -3  -1 -11   32.10    6.60
   3   1  11   26.50    7.10
   3   1  11   46.20    9.10
   3   1  11   25.50    8.10
   3   1  11   27.50    7.00
   3   1  11   22.20    9.30
  -4  -1 -11   56.49   11.70
  -4  -1 -11   41.30    9.20
  -4  -1 -11   32.90    9.90
  -4  -1 -11   25.20   10.00
   4   1  11   26.90    9.10
   4   1  11   36.30   13.40
  -5  -1 -11   17.70   13.70
  -5  -1 -11   -3.10   15.80
  -5  -1 -11  -13.30   13.40
   5   1  11    5.60   13.40
   5   1  11    5.90   12.50
   4  -2 -11    4.10   11.20
   4  -2 -11   16.10   10.80
  -4   2  11   -9.00   11.70
  -4   2  11  -11.00   12.00
  -4   2  11   12.80   10.50
   3  -2 -11   12.50    7.60
   3  -2 -11   -0.10    7.20
   3  -2 -11  -19.60    9.60
  -3   2  11    9.40   11.60
  -3   2  11    7.00    7.30
  -3   2  11    2.90   10.40
  -3   2  11   -2.40    9.20
  -3   2  11    7.60    7.90
   2  -2 -11   39.70    8.60
   2  -2 -11   49.90    6.50
  -2   2  11   33.10    5.80
  -2   2  11   43.10    7.50
  -2   2  11   45.20    8.70
  -2   2  11   44.70    9.00
  -2   2  11   31.80    8.30
  -2   2  11   35.10    9.40
   1  -2 -11   51.09    7.60
   1  -2 -11   48.60    7.20
   1  -2 -11   60.99    6.20
   1  -2 -11   10.20   10.00
   1  -2 -11   48.80    6.40
  -1   2  11   62.79    7.30
  -1   2  11   55.99    7.20
  -1   2  11   68.79    5.50
  -1   2  11   58.49    7.50
  -1   2  11   49.99    6.70
  -1   2  11   55.29    5.60
  -1   2  11   45.50    7.90
   0  -2 -11  609.34   16.20
   0  -2 -11  601.14   13.80
   0  -2 -11  565.24   14.10
   0   2  11  590.64   13.60
   0   2  11  582.54   14.90
   0   2  11  588.84   15.40
   0   2  11  609.04   14.40
   0   2  11  607.54   14.20
   0   2  11  604.54   15.80
   0   2  11  585.94   15.00
  -1  -2 -11  776.32   16.80
  -1  -2 -11  768.32   18.40
  -1  -2 -11  820.32   24.40
  -1  -2 -11  757.02   16.40
  -1  -2 -11  773.82   16.30
  -1  -2 -11  800.32   17.90
   1   2  11  764.62   18.40
   1   2  11  763.52   18.60
   1   2  11  784.02   17.00
   1   2  11  746.23   17.90
   1   2  11  746.53   16.00
   1   2  11  726.13   17.70
   1   2  11  776.82   16.90
  -2  -2 -11    2.90    6.60
  -2  -2 -11    6.10    4.20
  -2  -2 -11   14.70    6.10
  -2  -2 -11    2.90    5.90
  -2  -2 -11    5.70    4.70
  -2  -2 -11   12.20    6.30
   2   2  11   13.10    6.60
   2   2  11    8.40    5.10
   2   2  11    6.10    6.70
   2   2  11    5.90    6.90
   2   2  11    6.50    6.40
   2   2  11   28.70    5.50
  -3  -2 -11   49.60    6.80
  -3  -2 -11   47.60    8.40
  -3  -2 -11   43.40    6.70
  -3  -2 -11   56.69    8.20
  -3  -2 -11   54.69    8.10
   3   2  11   51.19    9.70
   3   2  11   59.79    9.80
   3   2  11   42.40    7.40
   3   2  11   41.00    9.10
   3   2  11   46.30    7.30
   3   2  11   30.70    9.20
  -4  -2 -11    9.80    9.40
  -4  -2 -11   -0.10   10.40
  -4  -2 -11   22.60   10.60
   4   2  11   27.80   12.80
   4   2  11   15.90    9.60
   4   2  11   -2.80    8.90
  -5  -2 -11   -9.90   13.40
  -5  -2 -11    6.20   14.30
   5   2  11   10.00   13.40
   5   2  11    6.20   12.40
   4  -3 -11   11.10   11.50
  -4   3  11   30.30   11.00
  -4   3  11   -6.40   13.50
  -4   3  11  -23.90   12.10
   3  -3 -11   -4.00    7.20
   3  -3 -11   -5.20    7.60
  -3   3  11    6.10    9.70
  -3   3  11    0.70    9.90
  -3   3  11   -1.60    8.40
  -3   3  11    0.80    7.50
   2  -3 -11   20.00    8.70
   2  -3 -11    7.10    5.60
  -2   3  11    8.90    9.10
  -2   3  11    9.10    4.90
  -2   3  11   -0.40    7.60
  -2   3  11    3.10    7.00
  -2   3  11    8.50    7.10
  -2   3  11    5.80    8.20
   1  -3 -11   37.70    7.50
   1  -3 -11   41.60    5.60
  -1   3  11   23.20    6.80
  -1   3  11   26.80    5.20
  -1   3  11   22.70    6.80
  -1   3  11   30.00    6.50
  -1   3  11   23.00    6.80
   0  -3 -11  302.97   12.20
   0  -3 -11  308.47   10.10
   0   3  11  303.77   11.20
   0   3  11  286.07   10.30
   0   3  11  304.47   11.50
   0   3  11  294.07   11.10
   0   3  11  288.27   11.20
   0   3  11  290.17    9.20
   0   3  11  293.17    9.00
  -1  -3 -11  133.69    7.10
  -1  -3 -11  136.29    8.60
  -1  -3 -11  112.89    9.40
  -1  -3 -11  128.09    7.30
   1   3  11  130.09    7.40
   1   3  11  129.49    7.60
   1   3  11  138.89    9.30
   1   3  11  127.49    9.60
   1   3  11  113.89    9.60
   1   3  11  143.99    7.60
   1   3  11  122.09    9.00
  -2  -3 -11   23.00    6.80
  -2  -3 -11   31.50    6.10
  -2  -3 -11   30.80    6.50
  -2  -3 -11   30.70    5.30
  -2  -3 -11   31.80    6.80
  -2  -3 -11   24.50    4.50
   2   3  11   37.00    5.50
   2   3  11   29.50    7.40
   2   3  11   36.20    7.50
   2   3  11   42.00    6.70
   2   3  11   34.80    7.40
   2   3  11   27.90    5.50
  -3  -3 -11   -5.60    6.70
  -3  -3 -11    7.10    7.80
  -3  -3 -11   -2.60    5.80
  -3  -3 -11    4.10    7.00
  -3  -3 -11    9.90    8.10
   3   3  11    9.40    9.30
   3   3  11    6.70    6.40
   3   3  11    5.70    9.90
   3   3  11    8.20    8.90
   3   3  11  -21.50    8.10
  -4  -3 -11   43.50   11.00
  -4  -3 -11   48.30    9.60
   4   3  11   28.40    9.40
   4   3  11   41.80    9.60
   4   3  11   15.00   12.30
  -5  -3 -11   11.40   13.30
  -5  -3 -11    9.70   15.20
   5   3  11   -7.20   13.20
   5   3  11  -11.00   13.90
   4  -4 -11   12.50   11.40
  -4   4  11    9.50   12.80
  -4   4  11    5.90   11.60
  -4   4  11   14.70   13.90
   3  -4 -11   -3.50    8.60
  -3   4  11   23.00    8.60
  -3   4  11  -14.70    9.50
  -3   4  11    8.10    9.70
  -3   4  11    1.90    6.90
  -2   4  11   12.30    5.20
  -2   4  11    6.80    6.10
  -2   4  11   -2.00    7.50
  -2   4  11   11.20    8.30
  -2   4  11    1.10    7.40
  -2   4  11    9.00    8.90
  -1   4  11   62.39    7.50
  -1   4  11   59.79    8.20
  -1   4  11   63.89    6.20
  -1   4  11   68.89    7.80
  -1   4  11   60.29    7.80
  -1   4  11   71.79    7.20
  -1   4  11   68.59    7.60
   0  -4 -11   45.80    4.50
   0  -4 -11   32.90    6.50
   0  -4 -11   34.30    5.00
   0   4  11   31.10    6.40
   0   4  11   44.40    5.00
   0   4  11   40.40    6.40
   0   4  11   47.30    6.80
   0   4  11   33.10    6.30
   0   4  11   51.99    6.70
   0   4  11   37.30    4.90
  -1  -4 -11   13.40    5.20
  -1  -4 -11   20.50    6.60
  -1  -4 -11   11.00    5.80
  -1  -4 -11   16.40    3.90
   1   4  11   11.90    5.80
   1   4  11   19.10    6.40
   1   4  11   16.50    4.60
   1   4  11   17.30    4.90
   1   4  11   29.70    6.30
   1   4  11   10.00    4.50
   1   4  11   24.50    6.30
  -2  -4 -11    3.60    4.80
  -2  -4 -11    3.50    5.40
  -2  -4 -11   -2.00    6.60
  -2  -4 -11   -3.00    6.60
   2   4  11    6.10    6.70
   2   4  11    7.20    6.20
   2   4  11   15.90    6.70
   2   4  11    8.90    7.20
   2   4  11    2.90    7.10
   2   4  11    4.80    5.30
  -3  -4 -11   62.19    7.90
  -3  -4 -11   59.89    9.10
   3   4  11   64.49    9.70
   3   4  11   68.39   11.20
   3   4  11   69.49   11.60
   3   4  11   58.99    9.80
   3   4  11   62.69    7.60
   3   4  11   70.59    8.00
  -4  -4 -11   21.50   10.80
  -4  -4 -11   18.20    9.30
   4   4  11    8.80    9.70
   4   4  11   14.20   13.20
   4   4  11    0.70    9.60
  -5  -4 -11   20.80   13.60
   5   4  11   21.40   14.10
   5   4  11   12.10   14.10
   4  -5 -11   13.00   14.00
  -4   5  11    6.90   12.90
   3  -5 -11   -4.20    9.30
  -3   5  11   -0.10    6.80
  -3   5  11   14.90   10.60
  -3   5  11    8.30    8.40
   2  -5 -11   75.99    8.80
  -2   5  11   84.09    8.90
  -2   5  11   76.19    7.20
  -2   5  11   73.09    9.70
  -2   5  11   49.40    8.70
  -2   5  11   57.89    8.90
  -2   5  11   68.29    6.90
   1  -5 -11  280.87   12.10
  -1   5  11  303.57   12.20
  -1   5  11  283.07   12.30
  -1   5  11  280.37   11.80
  -1   5  11  290.77    9.10
  -1   5  11  301.57   10.10
  -1   5  11  312.87   12.90
   0  -5 -11   19.30    6.00
   0  -5 -11   14.00    7.40
   0   5  11   18.20    6.70
   0   5  11   24.00    6.90
   0   5  11   17.00    4.80
   0   5  11   -0.50    8.10
   0   5  11   18.50    6.30
   0   5  11   23.50    6.30
  -1  -5 -11   25.90    6.90
  -1  -5 -11   38.40    4.90
   1   5  11   21.20    6.30
   1   5  11   36.10    6.80
   1   5  11   40.00    4.90
   1   5  11   25.60    6.50
   1   5  11   39.20    5.10
   1   5  11   37.40    6.60
  -2  -5 -11  383.16   13.60
  -2  -5 -11  404.96   14.50
  -2  -5 -11  428.76   12.30
   2   5  11  401.76   14.30
   2   5  11  397.76   12.70
   2   5  11  393.36   13.80
   2   5  11  389.16   12.20
   2   5  11  391.76   15.20
   2   5  11  387.86   14.60
  -3  -5 -11   -1.00    6.60
  -3  -5 -11    5.80    8.20
   3   5  11    7.60    7.40
   3   5  11    6.10    9.60
   3   5  11    9.50    7.50
   3   5  11    6.70   10.20
   3   5  11   10.90    9.80
  -4  -5 -11   22.80   11.70
  -4  -5 -11    8.90    9.40
   4   5  11   13.00   15.50
   4   5  11    6.00    9.40
   4   5  11    4.70   10.00
  -5  -5 -11   22.30   13.60
   5   5  11  -10.40   14.10
   5   5  11    3.30   15.60
  -3   6  11   -8.00    7.30
  -3   6  11   -2.70    8.80
  -3   6  11    0.70   11.50
  -2   6  11   20.70   11.60
  -2   6  11   11.70    8.30
  -2   6  11   11.00    5.50
  -2   6  11   20.90    8.90
  -2   6  11    7.80    9.70
  -2   6  11   16.00    6.40
   1  -6 -11  337.57   15.40
  -1   6  11  380.16   10.90
  -1   6  11  379.66   13.90
  -1   6  11  372.26   14.20
  -1   6  11  368.06   13.60
  -1   6  11  378.96   10.30
   0  -6 -11  310.87   10.90
   0   6  11  320.37   12.60
   0   6  11  308.57   11.40
   0   6  11  305.17   12.40
   0   6  11  324.67    9.60
   0   6  11  312.77    9.70
  -1  -6 -11   11.50    6.90
  -1  -6 -11   20.10    6.30
   1   6  11   16.10    7.00
   1   6  11   20.10    4.90
   1   6  11   24.20    7.10
   1   6  11   26.00    5.30
   1   6  11   26.90    6.70
   1   6  11   27.50    5.20
  -2  -6 -11    2.50    8.10
   2   6  11   16.70    8.40
   2   6  11    9.40    7.30
   2   6  11   17.40    8.60
   2   6  11   12.50    5.90
   2   6  11   16.10    7.70
   2   6  11   11.50    5.90
  -3  -6 -11   16.30    6.90
  -3  -6 -11   15.00    9.30
   3   6  11    1.90   10.40
   3   6  11   10.80    7.60
   3   6  11   22.70    7.50
   3   6  11   22.00   11.90
   3   6  11   34.10   11.00
   4   6  11   -9.70   11.10
   4   6  11    3.80    9.80
  -5  -6 -11    0.70   13.90
   5   6  11   42.50   15.50
   5   6  11   31.40   14.40
  -3   7  11    5.50   12.30
  -3   7  11   12.70    9.50
  -3   7  11   -8.50    7.30
  -2   7  11   16.70    8.50
  -2   7  11   14.60    7.60
  -2   7  11    6.70    5.20
  -2   7  11   24.70    9.60
  -2   7  11   20.10   10.40
  -2   7  11   12.30    9.10
  -1   7  11    9.40    8.10
  -1   7  11   14.40    8.60
  -1   7  11   20.10    4.70
  -1   7  11    1.60    8.00
  -1   7  11   15.10    7.40
  -1   7  11   19.80    5.40
   0   7  11  126.69   11.20
   0   7  11  107.89    7.90
   0   7  11  107.69    8.80
   0   7  11  104.59   10.80
   0   7  11  107.99    7.00
  -1  -7 -11   21.50    7.70
  -1  -7 -11   29.70    6.50
   1   7  11   27.10    6.20
   1   7  11   28.20    5.40
   1   7  11   20.80    5.70
   1   7  11   24.10    7.50
   1   7  11   25.20    8.20
  -2  -7 -11   11.60    8.20
  -2  -7 -11   28.10    7.70
   2   7  11   32.90    6.60
   2   7  11   30.50    8.80
   2   7  11   40.80    9.20
   2   7  11   23.90    6.40
   2   7  11   38.50    9.40
   2   7  11   12.80    8.50
  -3  -7 -11   92.69    9.70
   3   7  11   86.69    9.60
   3   7  11   88.99   10.80
   3   7  11  100.69   11.40
   3   7  11  104.09   12.90
   3   7  11   69.59    9.10
  -4  -7 -11    1.20    9.00
   4   7  11    4.30   12.10
   4   7  11    5.30   11.30
  -3   8  11   13.40    7.60
  -3   8  11   12.40   14.00
  -3   8  11   18.80   11.10
  -2   8  11   14.20   11.00
  -2   8  11    3.70    8.90
  -2   8  11    1.60    7.40
  -2   8  11    5.90   10.50
  -2   8  11    0.00    5.70
  -1   8  11    0.50    8.70
  -1   8  11    3.10    8.00
  -1   8  11    4.90    4.80
  -1   8  11   -2.30    5.50
  -1   8  11    2.30    9.60
  -1   8  11   -4.10    6.80
   0   8  11   65.39    9.50
   0   8  11   75.99    8.10
   0   8  11   61.39    5.60
   0   8  11   84.69    8.00
   0   8  11   67.19    7.00
   1   8  11    6.90    5.70
   1   8  11    7.80    7.60
   1   8  11    0.70    5.80
   1   8  11    0.50    8.40
   1   8  11   -6.00    7.10
  -2  -8 -11  -11.60    7.30
  -2  -8 -11   -6.00   10.10
   2   8  11   11.00    6.80
   2   8  11   -3.80    7.00
   2   8  11    1.30    8.70
   2   8  11    3.90   10.10
   2   8  11   10.90    9.20
   2   8  11   -8.90   10.10
   3   8  11   -1.40   11.60
   3   8  11    3.00    8.60
   3   8  11  -25.40    8.50
   3   8  11   11.30   13.10
   4   8  11   28.50   12.40
   4   8  11   10.30   12.40
  -2   9  11    7.50    7.90
  -2   9  11    3.70   11.40
  -1   9  11   13.40    6.10
  -1   9  11   25.10   10.50
  -1   9  11    0.30   10.30
  -1   9  11   26.60   10.30
   0   9  11    2.20    6.10
   0   9  11   23.00    8.10
   0   9  11    4.90    8.80
   1   9  11   -0.70    9.10
   1   9  11   10.60    7.40
   1   9  11    7.50    6.00
   1   9  11    6.30    9.40
   1   9  11   16.50    9.70
   1   9  11   13.40    6.50
   2   9  11    3.50    9.70
   2   9  11    6.40   10.90
   2   9  11   -0.10    7.50
   2   9  11   10.00    7.50
   3   9  11    1.00   12.80
   3   9  11  -18.40    9.10
   3   9  11    8.80   10.80
   4   9  11   20.10   14.90
  -2  10  11   16.50   14.30
  -1  10  11   10.00   10.50
  -1  10  11    8.10    6.80
   0  10  11  -10.30   10.20
   0  10  11   10.50    6.50
   1  10  11  -14.20   10.00
   1  10  11    4.20    7.70
   1  10  11   -9.00   11.10
   1  10  11    2.90    6.80
   2  10  11   -9.50    8.90
   2  10  11    1.60   13.50
   3  10  11   15.30   13.30
   3  10  11   12.90   12.40
   3  10  11   10.50   10.70
  -1  11  11  -11.80   13.10
  -1  11  11    3.80   13.60
   0  11  11    0.10   12.30
   0  11  11   16.00   12.90
   1  11  11    3.80   11.80
   1  11  11  -14.50    8.80
   2  11  11  -15.60   13.90
   2  11  11   28.20   14.10
   2  11  11   25.50    9.50
   3  11  11    4.20   13.50
   0  12  11    4.50   13.70
   0  12  11   -4.90   15.40
   1  12  11   13.30   15.90
   1  12  11   -3.90   13.30
   0   9 -12   30.20   17.30
   0   9 -12  -14.20   17.60
   0  -9  12   -8.40   12.10
  -1   9 -12   22.30   19.80
  -1   9 -12    8.80   14.30
  -1   9 -12   11.80   17.90
  -1   9 -12    9.50   16.40
   1  -9  12   22.50   11.90
   1   8 -12   11.80   12.90
   1   8 -12  -18.70   16.40
   1   8 -12  -21.60   16.20
   1   8 -12    8.20   14.10
  -1  -8  12   -4.40   12.80
   0   8 -12   13.80   12.50
   0   8 -12   -9.40   14.20
   0   8 -12   -2.50   14.10
   0   8 -12    4.90   13.80
   0  -8  12   18.50   10.90
   0  -8  12   33.50   13.30
  -1   8 -12    7.70   14.70
  -1   8 -12   23.30   14.70
  -1   8 -12   -4.10   11.30
  -1   8 -12    8.70   14.90
   1  -8  12    5.20   10.50
  -2   8 -12   31.90   17.20
  -2   8 -12    1.90   15.50
  -2   8 -12   12.30   15.40
   2  -8  12    5.00   11.60
   2   7 -12   21.30   17.60
   2   7 -12   12.30   14.40
   2   7 -12   -9.50   15.40
  -2  -7  12   25.50   11.90
   1   7 -12   -9.70   12.10
   1   7 -12   -3.50   12.70
   1   7 -12    5.50   14.60
   1   7 -12    4.50   11.10
  -1  -7  12    7.90   10.10
  -1  -7  12   15.90   10.60
   0   7 -12   13.90   13.90
   0   7 -12    2.30   10.30
   0   7 -12    9.80   11.90
   0   7 -12  -16.10   12.20
   0   7 -12    2.20   11.90
   0  -7  12   36.00    9.60
   0  -7  12    3.50   10.00
   0  -7  12   -5.20   11.00
  -1   7 -12   19.80   12.80
  -1   7 -12   38.10   12.50
  -1   7 -12   20.70   10.50
  -1   7 -12    2.00   14.10
   1  -7  12    9.50    9.80
   1  -7  12   10.60   10.00
  -2   7 -12    4.30   13.70
  -2   7 -12   11.20   14.00
  -2   7 -12  -12.00   14.60
   2  -7  12  -14.00   10.80
  -3   7 -12   33.20   16.30
  -3   7 -12   -7.00   15.50
  -3   7 -12    0.30   18.10
   3  -7  12   -6.50   11.70
   2   6 -12   -5.80   11.80
   2   6 -12    4.20   12.60
   2   6 -12    1.80   15.30
   2   6 -12    9.50   12.90
  -2  -6  12  -12.00   11.20
  -2  -6  12   -5.40   11.60
   1   6 -12   44.50   13.50
   1   6 -12   59.09   11.10
   1   6 -12   19.00   11.80
   1   6 -12   49.80   13.20
   1   6 -12   29.40   11.00
   1   6 -12   49.00   11.60
  -1  -6  12   56.69   10.30
  -1  -6  12   33.90    9.30
   0   6 -12   14.20   10.50
   0   6 -12   25.40    9.80
   0   6 -12   27.60   11.70
   0   6 -12   26.30    9.10
   0   6 -12   -2.90   12.10
   0   6 -12    5.00   10.10
   0  -6  12   19.80   12.00
   0  -6  12   23.20    8.50
   0  -6  12   29.80    8.80
  -1   6 -12    4.20   10.60
  -1   6 -12   -2.00   10.50
  -1   6 -12   -3.00   11.60
  -1   6 -12    5.40    9.50
  -1   6 -12   -4.40   11.60
   1  -6  12   18.10    8.90
   1  -6  12    9.60    8.60
   1  -6  12   18.10   11.20
  -2   6 -12   17.20   10.20
  -2   6 -12   16.30   12.40
  -2   6 -12   10.10   12.10
  -2   6 -12   17.10   11.60
   2  -6  12   32.50   10.70
   2  -6  12   15.20    9.90
  -3   6 -12   12.70   14.40
  -3   6 -12  -11.80   15.10
  -3   6 -12    2.70   13.70
   3  -6  12    5.50   12.30
  -4   6 -12   40.10   18.60
   4  -6  12    8.20   13.90
   3   5 -12    4.20   18.30
   3   5 -12   -5.00   13.80
   3   5 -12   11.50   16.70
   3   5 -12   20.10   15.00
  -3  -5  12    9.10   13.20
  -3  -5  12  -11.30   14.10
  -3  -5  12    1.40   12.70
   2   5 -12   23.70   11.60
   2   5 -12   17.80   11.40
   2   5 -12    8.20   13.80
   2   5 -12   11.60   10.50
  -2  -5  12   16.10   10.20
  -2  -5  12  -14.70   10.80
  -2  -5  12   10.50   10.10
   1   5 -12   20.60    8.80
   1   5 -12   -0.10   11.00
   1   5 -12   20.20   11.50
   1   5 -12   34.20   12.10
   1   5 -12   18.10    9.70
  -1  -5  12   19.20    8.30
  -1  -5  12    9.70    7.80
   0   5 -12   15.20    9.80
   0   5 -12   14.10    8.20
   0   5 -12   35.00   10.90
   0   5 -12    8.60    9.00
   0   5 -12   13.00    9.30
   0  -5  12   22.90    7.60
   0  -5  12   26.80    7.80
  -1   5 -12   20.40   11.70
  -1   5 -12    4.40    9.30
  -1   5 -12   12.40    9.70
  -1   5 -12    6.20    8.30
  -1   5 -12    3.60   11.30
  -1   5 -12    4.20    7.90
   1  -5  12   -2.10    7.60
   1  -5  12    8.70    7.40
   1  -5  12   16.90    9.80
  -2   5 -12   22.60   11.40
  -2   5 -12   11.70   10.60
  -2   5 -12   -6.90    8.70
  -2   5 -12    8.00   11.40
   2  -5  12   -7.40    8.40
   2  -5  12   11.00    9.70
  -3   5 -12    0.40   13.80
  -3   5 -12   28.70   12.50
  -3   5 -12    5.00   12.70
   3  -5  12   -1.30   10.70
   3  -5  12  -12.60   10.90
  -4   5 -12   25.60   17.20
  -4   5 -12  -19.70   15.50
  -4   5 -12   -8.40   18.80
   4  -5  12   13.80   14.10
   3   4 -12   -2.30   13.40
   3   4 -12  -27.80   15.80
   3   4 -12   21.80   12.50
   3   4 -12    0.00   13.10
  -3  -4  12   14.10   11.40
  -3  -4  12    1.40   12.10
  -3  -4  12    7.30   11.20
   2   4 -12    1.10   10.20
   2   4 -12    4.20    9.70
   2   4 -12   -2.90    9.70
  -2  -4  12   -3.80    8.70
  -2  -4  12    9.60   15.70
  -2  -4  12   -1.30    8.60
  -2  -4  12   23.50    9.40
   1   4 -12   17.80    8.80
   1   4 -12   16.90    7.80
   1   4 -12    3.30    8.40
   1   4 -12   13.90    9.70
   1   4 -12    4.90   10.60
   1   4 -12   10.80   10.60
  -1  -4  12   18.50    7.30
  -1  -4  12    7.70   11.80
  -1  -4  12   -6.40    7.40
   0   4 -12   10.90    9.70
   0   4 -12    6.00    7.20
   0   4 -12   15.00    8.80
   0   4 -12    1.00    7.80
   0   4 -12   -0.50    8.70
   0   4 -12   13.60    8.00
   0  -4  12   -1.30   10.60
   0  -4  12    9.40    6.90
   0  -4  12   13.80    7.00
  -1   4 -12    3.80    9.60
  -1   4 -12    5.90    7.70
  -1   4 -12   15.10    8.80
  -1   4 -12   17.70    8.70
  -1   4 -12   15.80    8.90
   1  -4  12   13.50    9.40
   1  -4  12   15.70   11.00
   1  -4  12   19.30    7.00
   1  -4  12   20.40    7.30
  -2   4 -12   -1.90    8.30
  -2   4 -12   41.70    9.90
  -2   4 -12    2.20   12.20
   2  -4  12   10.20    7.70
   2  -4  12   16.30   12.30
   2  -4  12   10.40    9.90
   2  -4  12    8.60    9.00
  -3   4 -12   25.50   12.10
  -3   4 -12   51.09   12.80
  -3   4 -12   55.29   10.20
  -3   4 -12   54.19   11.90
   3  -4  12   44.10   11.00
   3  -4  12   39.40   10.50
  -4   4 -12   22.50   14.80
  -4   4 -12   -2.00   14.30
  -4   4 -12  -10.20   16.80
   4  -4  12   10.20   13.40
   4  -4  12   15.80   11.90
   3   3 -12   -2.60   16.60
   3   3 -12    3.20   10.80
   3   3 -12   18.80   11.70
   3   3 -12   15.50   12.10
  -3  -3  12   12.70   10.50
  -3  -3  12   21.20   11.90
  -3  -3  12   22.10   10.70
   2   3 -12   19.10    9.30
   2   3 -12    2.30    8.20
   2   3 -12   24.00   10.40
   2   3 -12   -9.00   11.80
  -2  -3  12    2.30    8.10
  -2  -3  12   -7.50    9.30
  -2  -3  12   11.30   12.80
  -2  -3  12    9.80    8.30
   1   3 -12    7.30    9.60
   1   3 -12    5.90    6.90
   1   3 -12   19.50    8.10
   1   3 -12   12.10    7.80
   1   3 -12   10.00    9.80
   1   3 -12   -0.70    9.60
  -1  -3  12    0.40   10.20
  -1  -3  12   16.20    6.60
  -1  -3  12    2.10    6.70
   0   3 -12   34.70    7.10
   0   3 -12   17.30    8.40
   0   3 -12   39.90    7.60
   0   3 -12   20.80    7.90
   0   3 -12   33.00    9.30
   0   3 -12   34.70    8.00
   0  -3  12   21.90    6.30
   0  -3  12   22.30   10.10
   0  -3  12   33.40    6.70
  -1   3 -12   52.09    8.70
  -1   3 -12   35.80    6.90
  -1   3 -12   43.50    9.60
  -1   3 -12   45.40    8.20
  -1   3 -12   36.60    8.80
   1  -3  12   46.00    7.20
   1  -3  12   34.80    6.90
   1  -3  12   39.30    9.50
   1  -3  12   45.60   10.60
  -2   3 -12  156.28   14.00
  -2   3 -12  128.79   11.30
   2  -3  12  146.79   14.60
   2  -3  12  130.49   11.30
   2  -3  12  118.99   13.00
   2  -3  12  122.19   11.40
   2  -3  12  129.19   11.40
  -3   3 -12  206.58   17.10
  -3   3 -12  165.38   15.70
  -3   3 -12  172.78   15.70
  -3   3 -12  152.38   12.90
   3  -3  12  160.98   13.40
   3  -3  12  165.78   15.30
  -4   3 -12    8.80   13.60
  -4   3 -12   10.70   14.50
  -4   3 -12   -4.60   12.40
  -4   3 -12    0.20   11.90
   4  -3  12   -6.10   11.40
   4  -3  12  -16.50   12.40
   5  -3  12    9.40   17.10
   3   2 -12    0.40   11.70
   3   2 -12   10.80   10.70
   3   2 -12  -19.40   10.60
   3   2 -12    9.60   13.40
  -3  -2  12   -1.40    9.80
  -3  -2  12   -6.30    9.90
  -3  -2  12   -2.70   11.40
   2   2 -12   18.60    8.20
   2   2 -12   -3.00    7.10
   2   2 -12    9.40   10.20
   2   2 -12    5.50    9.40
  -2  -2  12   -7.40    8.80
  -2  -2  12    6.40    7.40
  -2  -2  12   -8.60   11.70
  -2  -2  12   -4.50    7.70
   1   2 -12   20.70    7.40
   1   2 -12   11.00    8.70
   1   2 -12   25.80    9.30
   1   2 -12   32.90    6.20
   1   2 -12   31.50    9.30
   1   2 -12   28.60    7.70
  -1  -2  12   35.00    6.80
  -1  -2  12   38.00   10.00
  -1  -2  12   21.20    9.30
  -1  -2  12   15.80    6.40
   0   2 -12   55.09    7.90
   0   2 -12   54.19    7.00
   0   2 -12   59.69    7.70
   0   2 -12   67.69    9.20
   0   2 -12   69.19    8.00
   0  -2  12   45.30    9.10
   0  -2  12   61.39    9.10
   0  -2  12   52.19    6.60
   0  -2  12   55.39    6.40
  -1   2 -12   26.80    8.40
  -1   2 -12   51.09    7.50
  -1   2 -12   50.29    7.40
  -1   2 -12   48.10    8.10
  -1   2 -12   53.99    9.50
   1  -2  12   34.20    6.50
   1  -2  12   36.90    6.40
   1  -2  12   49.20    8.40
  -2   2 -12   26.80    8.40
  -2   2 -12   29.50    8.00
  -2   2 -12   19.20    9.20
  -2   2 -12   26.20    7.40
   2  -2  12   23.80    7.20
   2  -2  12   13.20    9.60
   2  -2  12   17.30    7.70
   2  -2  12   22.20    9.80
   2  -2  12   37.70    9.30
  -3   2 -12   11.80   10.40
  -3   2 -12   12.50   10.10
  -3   2 -12    6.90    8.10
  -3   2 -12    8.60    9.40
   3  -2  12    9.90   10.70
   3  -2  12    4.60   13.00
   3  -2  12   11.60    8.30
   3  -2  12    6.80    8.40
  -4   2 -12    0.00   12.20
  -4   2 -12   -5.10   11.40
  -4   2 -12  -18.30   12.00
  -4   2 -12   -0.70   14.20
   4  -2  12   -8.40   11.70
   4  -2  12   10.50   11.30
  -5   2 -12    6.20   17.10
  -5   2 -12  -20.00   20.40
   5  -2  12  -12.80   17.30
   5  -2  12   19.90   14.50
   3   1 -12    7.40    9.40
   3   1 -12   26.70   14.10
   3   1 -12   14.80   11.20
  -3  -1  12   30.30   10.20
  -3  -1  12   23.10   10.50
  -3  -1  12   27.20    9.40
   2   1 -12   18.10    7.70
   2   1 -12   14.00    6.40
   2   1 -12    1.80    9.50
   2   1 -12   15.50    8.70
  -2  -1  12    7.40    6.80
  -2  -1  12    3.20    7.30
  -2  -1  12   12.30    8.20
  -2  -1  12   12.70   11.10
   1   1 -12   91.39    9.50
   1   1 -12   82.19    9.70
   1   1 -12   69.19    9.30
   1   1 -12   89.19    8.10
   1   1 -12   85.69    9.50
  -1  -1  12   88.69    8.50
  -1  -1  12   77.89   10.00
  -1  -1  12   82.19    8.20
  -1  -1  12   72.59   10.00
  -1  -1  12   98.29    8.70
   0   1 -12   95.99    9.90
   0   1 -12  113.79    8.70
   0   1 -12   98.19    9.40
   0   1 -12   94.29    9.50
   0   1 -12   97.59    9.70
   0   1 -12  102.69    9.30
   0  -1  12   91.69    9.30
   0  -1  12   94.89    8.60
   0  -1  12  108.29    8.00
   0  -1  12  109.49    8.10
   0  -1  12  111.39   10.10
  -1   1 -12   40.30    6.90
  -1   1 -12   37.30    6.50
  -1   1 -12   28.60    7.30
  -1   1 -12   45.60    8.60
  -1   1 -12   43.40    8.50
  -1   1 -12   46.70    8.10
   1  -1  12   40.90    6.90
   1  -1  12   38.60    6.40
   1  -1  12   36.50    7.30
   1  -1  12   37.90    8.90
  -2   1 -12   -9.00    6.40
  -2   1 -12   -6.60    7.70
  -2   1 -12   -4.40    8.90
  -2   1 -12   -4.00    7.90
  -2   1 -12   -9.60    7.50
   2  -1  12   19.40    7.40
   2  -1  12   12.00    7.90
   2  -1  12    2.30    6.30
   2  -1  12   -7.90    9.60
   2  -1  12    0.60    8.30
  -3   1 -12    5.00    9.10
  -3   1 -12    4.80    8.80
  -3   1 -12   25.00    9.60
   3  -1  12    3.10   11.70
   3  -1  12    6.70    8.40
   3  -1  12    7.10    7.70
   3  -1  12   19.00    9.50
   3  -1  12   12.00   11.20
  -4   1 -12   35.70   12.30
  -4   1 -12   22.70   13.10
  -4   1 -12   38.20   11.30
  -4   1 -12   42.50   13.10
   4  -1  12   16.40   11.40
  -5   1 -12   23.80   19.10
  -5   1 -12   23.80   16.30
  -5   1 -12  -24.80   16.50
   5  -1  12   -7.70   14.60
   5  -1  12   -4.70   15.60
   4   0 -12    5.40   13.80
   4   0 -12   14.00   11.60
  -4   0  12    5.10   15.50
  -4   0  12    4.30   12.60
   3   0 -12   10.30   10.40
   3   0 -12    2.90   13.10
  -3   0  12    9.50    9.30
  -3   0  12   -4.20    9.40
  -3   0  12   -8.10   10.20
   2   0 -12    0.00    7.60
   2   0 -12    6.50    9.80
  -2   0  12   20.80    6.70
  -2   0  12    1.80   12.10
  -2   0  12   12.80    7.10
  -2   0  12   -6.20   10.30
  -2   0  12   13.70    8.30
   1   0 -12   26.30    8.80
   1   0 -12   30.80    7.50
   1   0 -12   40.60    8.40
   1   0 -12   26.50    8.70
   1   0 -12   38.60    7.50
  -1   0  12   34.70    8.80
  -1   0  12   33.10    8.50
  -1   0  12   35.50    6.20
  -1   0  12   43.00    7.50
  -1   0  12   48.30    9.20
   0   0 -12   70.09    8.20
   0   0 -12   78.89    9.20
   0   0 -12   80.09    7.60
   0   0 -12   78.79    7.60
   0   0 -12   64.49    6.50
   0   0 -12   66.49    6.80
   0   0  12   82.69    8.00
   0   0  12   75.99    9.10
   0   0  12   73.79    8.60
   0   0  12   78.49    7.30
   0   0  12   84.09    8.70
  -1   0 -12  386.36   12.40
  -1   0 -12  340.57   12.10
  -1   0 -12  357.36   12.00
  -1   0 -12  373.86   14.40
   1   0  12  356.86   12.30
   1   0  12  306.07   16.50
   1   0  12  368.86   11.60
  -2   0 -12    5.90    6.30
  -2   0 -12   10.10    7.40
  -2   0 -12   -7.10    7.70
   2   0  12    1.60    8.30
   2   0  12    7.20    6.70
   2   0  12   -7.60    7.50
   2   0  12    5.70    7.90
   2   0  12   -1.10    6.40
  -3   0 -12  115.29   11.30
  -3   0 -12   85.99   10.10
  -3   0 -12  131.69   13.00
   3   0  12  116.99   12.10
   3   0  12  120.59   11.90
   3   0  12  115.99   12.30
   3   0  12   78.99   12.10
   3   0  12  121.79   11.50
  -4   0 -12  -10.40   10.80
  -4   0 -12   -4.10   11.50
  -4   0 -12   24.60   12.10
   4   0  12   30.20   15.60
   4   0  12   -6.20   10.40
   4   0  12    6.80    9.70
  -5   0 -12   -8.60   16.00
  -5   0 -12   14.10   17.90
  -5   0 -12   -2.90   16.90
   5   0  12   22.60   15.30
   5   0  12   12.80   14.50
   4  -1 -12    0.60   12.30
   4  -1 -12    1.60   13.20
  -4   1  12  -16.30   14.00
  -4   1  12    7.70   14.80
   3  -1 -12   75.99   10.50
  -3   1  12   57.39   11.20
  -3   1  12   54.29    8.90
  -3   1  12   87.79   11.00
  -3   1  12   55.19   14.80
   2  -1 -12   45.70    9.20
   2  -1 -12   28.00    8.10
   2  -1 -12   32.40    9.80
  -2   1  12   22.30    6.50
  -2   1  12   16.50    7.10
  -2   1  12   12.30   10.50
  -2   1  12   25.80    8.40
  -2   1  12   16.00    8.30
  -2   1  12   21.40   10.80
   1  -1 -12   -0.90    8.50
   1  -1 -12   17.20    7.80
   1  -1 -12   -5.10    6.20
   1  -1 -12   -2.80    8.10
  -1   1  12   -1.00    6.40
  -1   1  12    2.90    6.10
  -1   1  12    8.60    7.80
  -1   1  12    8.60    7.30
  -1   1  12  -18.40    8.30
  -1   1  12   14.10    6.70
   0  -1 -12   16.50    6.50
   0  -1 -12   12.40    6.40
   0  -1 -12    4.80    7.00
   0  -1 -12   13.00    7.30
   0  -1 -12    9.40    5.60
   0   1  12    7.00    5.10
   0   1  12   24.70    7.70
   0   1  12   10.80    7.60
   0   1  12   13.70    7.10
   0   1  12   14.80    5.20
  -1  -1 -12  331.17   12.30
  -1  -1 -12  342.37   11.50
  -1  -1 -12  338.27   13.60
  -1  -1 -12  338.67   11.00
  -1  -1 -12  309.97   10.90
   1   1  12  336.27   11.10
   1   1  12  314.27   11.00
   1   1  12  293.97   10.80
   1   1  12  323.37   13.30
   1   1  12  300.07   14.40
  -2  -1 -12  125.49   11.00
  -2  -1 -12  108.79    9.30
  -2  -1 -12  131.59   11.40
  -2  -1 -12   92.49    9.20
  -2  -1 -12   91.69    9.00
   2   1  12  110.79    9.40
   2   1  12   98.99   12.70
   2   1  12  120.59   10.80
   2   1  12  109.09    9.50
   2   1  12  131.19   11.00
  -3  -1 -12   92.09    8.90
  -3  -1 -12   80.09   10.70
  -3  -1 -12   93.29    9.50
  -3  -1 -12   93.39   10.40
   3   1  12   87.29   11.70
   3   1  12   82.19   10.70
   3   1  12   70.49   10.30
   3   1  12   95.79    9.00
   3   1  12   84.79   11.50
  -4  -1 -12   29.90   12.20
  -4  -1 -12  -14.90   10.70
  -4  -1 -12   16.10   11.20
   4   1  12    4.80   16.20
   4   1  12   11.10    9.90
   4   1  12   17.90   10.80
  -5  -1 -12   -9.50   15.70
  -5  -1 -12  -16.40   17.00
  -5  -1 -12    3.10   16.10
   5   1  12    5.00   14.20
   5   1  12   -1.70   15.10
   4  -2 -12    5.40   12.30
  -4   2  12   19.00   13.80
   3  -2 -12   11.20    9.30
  -3   2  12   19.70    8.70
  -3   2  12   -4.60   13.10
  -3   2  12    8.10    9.10
  -3   2  12    1.40   10.70
   2  -2 -12   18.50    8.90
   2  -2 -12    2.80    7.00
  -2   2  12    4.80    9.30
  -2   2  12   10.60    6.90
  -2   2  12   14.90   10.20
  -2   2  12    4.60    6.10
  -2   2  12   15.30    8.10
   1  -2 -12   40.60    7.00
   1  -2 -12   18.00    8.50
   1  -2 -12   19.00    8.10
  -1   2  12   46.80    8.90
  -1   2  12    9.00    8.00
  -1   2  12   28.70    6.70
  -1   2  12   29.40    5.00
  -1   2  12    6.30    7.60
   0  -2 -12   16.60    6.20
   0  -2 -12    0.10    7.20
   0  -2 -12   13.00    5.40
   0   2  12    5.40    4.90
   0   2  12   -6.70    4.70
   0   2  12   12.30    7.00
   0   2  12    3.70    7.20
   0   2  12   -6.50    7.20
  -1  -2 -12   15.60    5.00
  -1  -2 -12   16.10    6.90
  -1  -2 -12   16.30    5.40
  -1  -2 -12    3.60    5.30
  -1  -2 -12   17.00    5.90
   1   2  12   15.30    7.50
   1   2  12   10.10    5.20
   1   2  12   14.20    7.40
   1   2  12   13.60    5.30
   1   2  12    5.30    5.20
   1   2  12    9.80    7.00
   1   2  12   13.40    5.40
  -2  -2 -12   11.00    6.80
  -2  -2 -12    6.60    6.50
  -2  -2 -12    3.00    6.00
  -2  -2 -12    7.30    7.50
   2   2  12    9.30    8.50
   2   2  12    8.00    8.50
   2   2  12   11.90    7.80
   2   2  12    5.40    5.80
   2   2  12    2.30    7.10
  -3  -2 -12    9.80    8.40
  -3  -2 -12    0.20    8.60
  -3  -2 -12   12.80    8.30
  -3  -2 -12   32.60    9.20
   3   2  12   -4.00    9.20
   3   2  12   18.70    8.70
   3   2  12   -4.30    7.30
   3   2  12   26.50   10.40
   3   2  12    3.50   10.20
  -4  -2 -12   28.80   12.20
  -4  -2 -12   29.00   10.40
  -4  -2 -12   29.40   12.00
   4   2  12   28.40   15.00
   4   2  12   18.60   10.70
   4   2  12   24.30   10.00
  -5  -2 -12   25.40   15.60
   5   2  12    8.40   15.00
   5   2  12    8.30   14.00
   3  -3 -12    2.70    8.60
  -3   3  12    8.30   10.00
  -3   3  12   -1.00    9.00
  -3   3  12   22.00    8.80
   2  -3 -12    4.30    6.40
   2  -3 -12   16.60    9.70
  -2   3  12   -1.90    9.70
  -2   3  12    0.80    9.20
  -2   3  12    9.40    5.90
  -2   3  12    2.10    7.00
  -2   3  12   -3.00    8.00
   1  -3 -12   11.70    8.00
  -1   3  12    4.50    7.10
  -1   3  12   -2.70    4.80
  -1   3  12   13.50    7.90
  -1   3  12    5.70    5.70
  -1   3  12   -2.60    8.60
  -1   3  12    8.10    7.90
  -1   3  12   -1.60    7.50
   0  -3 -12  266.07   10.60
   0  -3 -12  244.28   12.20
   0   3  12  235.08   12.10
   0   3  12  251.97    9.70
   0   3  12  245.48   11.10
   0   3  12  222.68   13.60
   0   3  12  248.58   11.90
   0   3  12  259.47   12.10
  -1  -3 -12    6.50    5.90
  -1  -3 -12   -9.10    5.40
  -1  -3 -12   -0.90    7.50
   1   3  12    5.60    7.20
   1   3  12    4.00    5.60
   1   3  12    6.20    7.20
   1   3  12    7.50    7.20
   1   3  12    5.00    4.90
   1   3  12   11.00    5.40
  -2  -3 -12   27.40    5.50
  -2  -3 -12   39.00    6.80
  -2  -3 -12   32.70    8.30
  -2  -3 -12   29.40    7.20
  -2  -3 -12   34.20    5.70
   2   3  12   43.20    9.50
   2   3  12   27.40    7.50
   2   3  12   37.10    8.60
   2   3  12   23.30    8.60
  -3  -3 -12   55.09    7.50
  -3  -3 -12  101.89   10.40
  -3  -3 -12   67.49   10.40
   3   3  12   51.39   12.70
   3   3  12   63.99    8.50
   3   3  12   70.89    8.70
   3   3  12   89.69   10.80
  -4  -3 -12   12.40   11.20
  -4  -3 -12    6.10   10.80
   4   3  12  -14.00   14.10
   4   3  12  -11.50   10.30
   4   3  12    1.80   10.80
  -5  -3 -12   15.50   15.50
   5   3  12   -5.60   14.60
   5   3  12    6.30   15.10
  -3   4  12   -4.00   10.00
  -3   4  12   22.40    8.20
  -3   4  12    6.30   11.10
  -2   4  12   15.10   10.20
  -2   4  12   26.00    8.80
  -2   4  12   20.10    7.40
  -2   4  12   15.60    6.40
  -2   4  12    3.40    9.50
   1  -4 -12    7.30    5.70
  -1   4  12   11.80    8.20
  -1   4  12   -4.80    7.70
  -1   4  12    1.10    5.50
  -1   4  12   10.10    8.30
  -1   4  12   10.90    6.90
  -1   4  12    9.20    4.80
   0  -4 -12   78.19    6.20
   0  -4 -12   73.59    6.80
   0  -4 -12   62.99    8.10
   0   4  12   70.59    8.00
   0   4  12   70.09    8.50
   0   4  12   64.29    5.70
   0   4  12   61.89    5.80
   0   4  12   64.09    7.80
   0   4  12   59.29    7.70
  -1  -4 -12   25.40    6.00
  -1  -4 -12   13.90    7.10
   1   4  12   25.60    5.40
   1   4  12    4.40    7.70
   1   4  12   23.90    5.80
   1   4  12   19.60    4.70
   1   4  12   25.40    7.70
   1   4  12   23.30    7.00
  -2  -4 -12    7.60    6.80
  -2  -4 -12    3.30    7.50
   2   4  12   -4.90    6.70
   2   4  12    2.20    8.80
   2   4  12    0.80    6.20
   2   4  12    6.90    8.20
   2   4  12    1.00    9.00
  -3  -4 -12   -0.50    7.90
  -3  -4 -12    6.00    9.20
  -3  -4 -12   -8.30    6.80
   3   4  12   14.00    8.30
   3   4  12    6.90    9.70
   3   4  12   14.40    7.80
   3   4  12   -9.40    9.80
   3   4  12  -11.80   10.60
  -4  -4 -12   -9.40   12.50
  -4  -4 -12  -11.80   10.60
   4   4  12   -0.60   10.30
   4   4  12   15.50   10.50
  -5  -4 -12   12.30   14.70
   5   4  12  -25.50   15.10
   5   4  12   -1.40   14.70
  -3   5  12   12.20    8.40
  -3   5  12    6.20   12.10
  -3   5  12   14.40   11.00
  -2   5  12   -1.50    7.00
  -2   5  12   -0.40    5.70
  -2   5  12    8.60    8.40
  -2   5  12    7.20   10.10
  -2   5  12   12.50    9.10
  -2   5  12    0.10   13.40
   1  -5 -12   31.60    8.10
  -1   5  12   41.80    6.10
  -1   5  12   26.60    5.30
  -1   5  12   40.20    9.10
  -1   5  12   36.20    7.90
  -1   5  12   32.50    8.50
   0  -5 -12   21.90    7.10
   0   5  12   12.60    5.10
   0   5  12   12.20    8.40
   0   5  12    7.80    7.00
   0   5  12   21.50    7.70
   0   5  12   14.80    5.30
   0   5  12   19.40    7.10
  -1  -5 -12    7.00    5.20
   1   5  12    0.00    5.30
   1   5  12   -0.30    7.00
   1   5  12   -0.20    5.40
   1   5  12   -3.20    7.50
   1   5  12    6.80    7.80
   1   5  12   -9.30    7.80
  -2  -5 -12    9.20    7.80
  -2  -5 -12    6.70    6.30
   2   5  12   13.70    8.60
   2   5  12    6.80    9.00
   2   5  12    6.60    6.20
   2   5  12   13.80    8.60
   2   5  12   29.20    7.70
  -3  -5 -12    4.20    7.90
  -3  -5 -12   -7.00    8.60
   3   5  12    7.90   10.70
   3   5  12  -12.50    7.70
   3   5  12  -16.50    7.90
   3   5  12   -9.30   10.50
   3   5  12   11.00   10.10
  -4  -5 -12   -0.40   10.20
   4   5  12    9.70   11.30
   4   5  12   13.90   10.90
  -5  -5 -12   17.10   14.90
   5   5  12   -9.50   17.00
  -3   6  12    9.10   13.20
  -3   6  12   -0.50    8.30
  -3   6  12   -8.00   10.80
  -2   6  12   15.60   10.00
  -2   6  12   21.70    6.00
  -2   6  12   26.60   10.50
  -2   6  12   19.90   12.40
   1  -6 -12    0.90    8.00
  -1   6  12  -11.60    8.80
  -1   6  12   17.20    9.30
  -1   6  12    4.80    5.20
  -1   6  12   20.90    6.00
  -1   6  12   16.50    7.90
   0  -6 -12   37.50    7.30
   0   6  12   42.10    8.40
   0   6  12   43.70    5.70
   0   6  12   40.00    7.90
   0   6  12   40.30    5.80
   0   6  12   38.70    8.30
   0   6  12   42.60    9.10
  -1  -6 -12    3.90    7.20
   1   6  12   -1.80    7.70
   1   6  12    1.30    5.40
   1   6  12   -1.20    7.20
   1   6  12    6.90    8.50
   1   6  12   10.90    5.60
  -2  -6 -12   20.50    5.70
   2   6  12   -6.90   10.20
   2   6  12  -16.00    8.60
   2   6  12   14.40    8.60
   2   6  12   -8.60    6.50
   2   6  12   22.00    9.10
  -3  -6 -12   18.80   11.90
  -3  -6 -12   27.60    7.30
   3   6  12   20.50   12.80
   3   6  12   12.00    8.00
   3   6  12   -1.90   11.30
   3   6  12   13.20    8.50
   3   6  12   30.70   10.70
  -4  -6 -12   -7.10    9.90
   4   6  12    0.00   12.00
   4   6  12  -20.20   11.60
  -3   7  12   28.70   11.40
  -3   7  12   17.30    8.60
  -2   7  12   -1.00    6.00
  -2   7  12    3.40   13.30
  -2   7  12  -14.00   10.70
  -1   7  12   17.10    9.60
  -1   7  12   16.20   10.50
  -1   7  12   24.80    6.80
  -1   7  12   13.20    8.60
  -1   7  12   13.90    9.50
  -1   7  12   15.80    5.50
   0   7  12  134.99    8.60
   0   7  12  118.29   11.40
   0   7  12  134.49   12.70
   0   7  12  142.29    9.50
   0   7  12  146.99   12.60
   0   7  12  121.89   11.00
  -1  -7 -12   24.30    7.10
   1   7  12   21.20    6.30
   1   7  12   35.20    7.80
   1   7  12   25.80    6.30
   1   7  12    5.50    8.60
   1   7  12   31.70    9.10
  -2  -7 -12   -1.30    8.50
   2   7  12    6.40    9.30
   2   7  12   10.00   11.50
   2   7  12    3.80    8.60
   2   7  12    2.50   10.30
   2   7  12   -3.10    7.30
  -3  -7 -12   12.70    7.20
   3   7  12    8.90   13.40
   3   7  12   14.10   11.60
   3   7  12   19.40    9.40
   3   7  12   -8.50    9.10
  -4  -7 -12   -2.30   10.40
   4   7  12   10.50   13.50
   4   7  12   -6.20   12.00
  -2   8  12   -2.20   11.00
  -2   8  12   -4.30    6.30
  -1   8  12    4.00   11.20
  -1   8  12    5.60    7.10
  -1   8  12   -5.80   10.10
  -1   8  12   -3.20   10.00
  -1   8  12    3.80    5.70
  -1   8  12    8.60    8.20
   0   8  12  101.89    8.50
   0   8  12  107.79    8.90
   0   8  12   91.19    9.70
   0   8  12  110.79    9.60
   0   8  12  104.49   10.70
   1   8  12   20.70    9.60
   1   8  12    4.60    6.90
   1   8  12   14.30    8.20
   1   8  12   32.40    9.90
   1   8  12   16.60    7.20
   2   8  12   -5.90    9.60
   2   8  12    0.30   12.20
   2   8  12   -6.70   10.50
   2   8  12   -8.70    9.90
   2   8  12    9.50    7.80
   3   8  12    6.10    9.40
   3   8  12    4.70   12.70
   3   8  12   -6.30   15.30
   3   8  12    1.30   10.60
   4   8  12   15.30   13.80
   4   8  12    6.50   13.60
  -2   9  12    1.40   13.70
  -1   9  12    3.10   12.20
  -1   9  12  -13.10   15.30
  -1   9  12   -5.40    7.10
   0   9  12    4.20    6.20
   0   9  12   -4.10    9.80
   0   9  12    3.00    6.60
   0   9  12    0.10   10.70
   0   9  12    8.50    7.60
   1   9  12   26.60   10.90
   1   9  12    8.10    8.30
   1   9  12    3.40   10.40
   1   9  12   18.10    7.50
   1   9  12   18.80    7.90
   2   9  12   -1.70    8.50
   2   9  12    2.00   11.90
   2   9  12   -4.50    8.60
   3   9  12    9.90   13.40
   3   9  12    2.10   10.40
   3   9  12   -0.20   11.00
  -1  10  12    1.70   13.50
   0  10  12  -10.00    7.30
   0  10  12  -10.80   11.80
   1  10  12   17.20    7.90
   1  10  12    2.80   12.40
   1  10  12    2.60    9.10
   1  10  12   13.20    8.60
   2  10  12    8.30   10.00
   2  10  12   10.10    9.90
   2  10  12   -2.50   13.40
   3  10  12   12.90   13.80
   3  10  12  -25.00   20.20
   3  10  12  -16.60   15.60
   0  11  12   -3.60   13.10
   1  11  12   16.70   14.10
   2  11  12   -5.10   11.30
   2  11  12   12.40   10.60
   2  11  12    7.90   16.10
   0   8 -13    0.00   16.30
   0   8 -13  -18.40   19.10
   0  -8  13   -7.70   16.10
   0  -8  13   -2.70   12.20
  -1   8 -13  -10.20   17.20
  -1   8 -13    2.20   18.90
  -1   8 -13    4.50   13.30
   1  -8  13  -15.40   11.70
   1   7 -13   28.00   15.60
   1   7 -13    7.60   17.20
   1   7 -13   24.70   15.70
   1   7 -13   15.90   16.90
  -1  -7  13   47.60   14.30
  -1  -7  13   35.50   13.10
   0   7 -13   12.40   11.80
   0   7 -13   -7.90   15.70
   0   7 -13    9.90   14.90
   0   7 -13   24.00   13.90
   0  -7  13    6.90   12.70
   0  -7  13   27.50   12.10
  -1   7 -13  -11.10   16.60
  -1   7 -13   -3.10   14.50
  -1   7 -13   28.60   12.00
  -1   7 -13   -4.20   15.70
   1  -7  13    8.30   11.00
  -2   7 -13    4.00   16.00
  -2   7 -13   18.90   15.70
  -2   7 -13   25.00   17.70
   2  -7  13   44.00   13.40
   2   6 -13   59.99   18.70
   2   6 -13   32.90   14.40
   2   6 -13   35.90   16.30
  -2  -6  13   23.30   15.00
  -2  -6  13   29.80   13.20
  -2  -6  13   14.40   13.20
   1   6 -13   13.10   12.90
   1   6 -13    6.30   16.10
   1   6 -13   -3.90   11.60
   1   6 -13  -15.50   12.90
  -1  -6  13   23.50   11.70
  -1  -6  13   17.70   10.90
  -1  -6  13   30.10   13.90
   0   6 -13   22.80   11.80
   0   6 -13    7.00   10.50
   0   6 -13  -10.00   12.40
   0   6 -13  -10.30   14.20
   0   6 -13   18.50   15.10
   0  -6  13   -9.60    9.70
   0  -6  13    4.40   12.70
   0  -6  13   21.40    9.80
  -1   6 -13    4.20   12.50
  -1   6 -13   18.60   14.40
  -1   6 -13  -14.20   10.00
  -1   6 -13    4.10   12.80
   1  -6  13   -1.40   12.40
   1  -6  13    6.90    9.50
   1  -6  13  -14.50   10.20
  -2   6 -13   24.30   14.10
  -2   6 -13   21.70   14.80
  -2   6 -13   18.10   13.70
   2  -6  13   24.70   13.90
   2  -6  13    5.90   11.30
  -3   6 -13  -41.50   17.20
  -3   6 -13   28.20   16.10
  -3   6 -13   -6.80   16.40
   3  -6  13    8.10   14.10
   2   5 -13   -8.60   15.90
   2   5 -13   12.30   12.50
   2   5 -13   20.70   12.20
   2   5 -13  -28.20   13.40
  -2  -5  13   -0.60   13.10
  -2  -5  13  -11.50   10.90
  -2  -5  13   -8.70   12.30
   1   5 -13    7.40   12.40
   1   5 -13  -15.20   10.00
   1   5 -13    0.80   13.50
   1   5 -13    0.00   10.90
   1   5 -13   -2.70   14.30
  -1  -5  13  -14.70    9.30
  -1  -5  13   -8.20   11.30
   0   5 -13    6.00   10.50
   0   5 -13    1.30    9.50
   0   5 -13  -13.50   11.50
   0   5 -13    5.70   10.80
   0   5 -13   -4.00   12.30
   0  -5  13   -0.50    8.50
   0  -5  13    2.10   11.20
   0  -5  13   -6.40    9.30
  -1   5 -13    1.80   11.40
  -1   5 -13   -6.80   10.50
  -1   5 -13   -9.60   13.80
  -1   5 -13   -7.30   10.30
   1  -5  13   12.80    9.20
   1  -5  13   -2.80   12.50
   1  -5  13   18.10    8.90
  -2   5 -13    8.00   12.10
  -2   5 -13   26.70   11.70
  -2   5 -13   -8.50   13.20
  -2   5 -13   23.60   13.90
   2  -5  13   -6.20    9.70
   2  -5  13    3.50   12.70
   2  -5  13    2.00   10.70
  -3   5 -13   35.30   15.60
  -3   5 -13   38.80   16.00
  -3   5 -13   22.40   14.20
   3  -5  13   44.30   12.80
   3  -5  13   31.50   12.60
   4  -5  13   33.50   16.20
   2   4 -13   19.50   11.50
   2   4 -13   27.40   10.90
   2   4 -13  -20.00   14.70
   2   4 -13   -6.00   12.20
  -2  -4  13    9.70   12.90
  -2  -4  13    0.50   11.00
  -2  -4  13  -15.70   10.20
   1   4 -13   15.30    9.50
   1   4 -13  -17.50   15.00
   1   4 -13   11.90   10.20
   1   4 -13    9.20    9.00
  -1  -4  13    4.80   10.80
  -1  -4  13    8.20    8.50
  -1  -4  13   14.90   16.90
   0   4 -13    3.90    9.00
   0   4 -13   -1.10   10.50
   0   4 -13   -2.70    9.90
   0   4 -13    4.40    8.50
   0  -4  13   15.10    9.70
   0  -4  13  -19.40   12.80
   0  -4  13    9.50    8.10
   0  -4  13   18.10    8.10
  -1   4 -13    7.50    9.90
  -1   4 -13  -11.00   13.90
  -1   4 -13    8.40    9.10
  -1   4 -13   -3.20    9.60
   1  -4  13   14.80   14.30
   1  -4  13    9.80    8.20
   1  -4  13   14.60   10.90
   1  -4  13   13.60    7.90
  -2   4 -13   14.20   12.00
  -2   4 -13    8.00   11.40
  -2   4 -13    6.30    9.80
   2  -4  13    4.20    9.40
   2  -4  13   17.40   11.80
   2  -4  13    4.40    8.70
  -3   4 -13   16.40   13.80
  -3   4 -13   -1.60   11.60
  -3   4 -13    9.10   13.70
  -3   4 -13   17.70   13.30
   3  -4  13   15.90   11.50
   3  -4  13    5.90   10.90
  -4   4 -13   14.70   16.80
  -4   4 -13   -3.70   16.80
  -4   4 -13    6.80   18.20
   4  -4  13    9.90   15.50
   3   3 -13  -15.90   13.90
   3   3 -13    0.30   13.00
  -3  -3  13   -4.00   14.00
  -3  -3  13   23.00   13.00
   2   3 -13   16.80    9.80
   2   3 -13    0.60   11.20
   2   3 -13    4.50    9.50
   2   3 -13  -13.30   14.50
  -2  -3  13   10.10    9.40
  -2  -3  13   -0.70    9.00
  -2  -3  13    8.00   18.10
  -2  -3  13    6.60   11.80
   1   3 -13    0.00   11.30
   1   3 -13   -3.10    8.50
   1   3 -13   11.20   10.40
   1   3 -13  -10.20    7.80
  -1  -3  13   14.90   12.80
  -1  -3  13   -1.60   10.20
  -1  -3  13    5.70    8.30
  -1  -3  13    4.10    9.60
   0   3 -13   11.50    8.90
   0   3 -13    1.20   10.40
   0   3 -13   12.10    9.80
   0   3 -13   14.90    7.90
   0  -3  13   -4.40    7.00
   0  -3  13   24.60   12.10
   0  -3  13   16.70    7.60
   0  -3  13    3.40    9.30
  -1   3 -13    2.80    8.40
  -1   3 -13   14.80    8.30
  -1   3 -13   -8.40    9.20
  -1   3 -13   11.20   10.40
   1  -3  13   -0.50   10.50
   1  -3  13   -4.40    7.50
   1  -3  13    3.10    7.50
   1  -3  13   10.70   11.80
  -2   3 -13   37.80   11.10
  -2   3 -13   21.90   13.20
  -2   3 -13   31.80    9.20
  -2   3 -13   42.50   11.20
   2  -3  13   22.90   11.50
   2  -3  13   22.40   13.80
   2  -3  13   33.50   10.70
   2  -3  13   29.00    8.70
   2  -3  13   32.90    9.20
  -3   3 -13   24.30   12.30
  -3   3 -13   -3.20   11.80
  -3   3 -13   12.30   13.30
  -3   3 -13   -5.60   10.80
   3  -3  13   16.60   10.50
   3  -3  13   26.00   11.30
  -4   3 -13   16.80   14.20
  -4   3 -13   12.50   16.80
  -4   3 -13   14.50   14.90
   4  -3  13   -5.30   12.90
   3   2 -13   -9.50   11.70
   3   2 -13  -11.90   14.10
  -3  -2  13    4.80   11.80
  -3  -2  13   16.10   12.80
  -3  -2  13   -1.30   11.60
   2   2 -13   -8.10   12.60
   2   2 -13    3.90    9.60
   2   2 -13   -7.10   10.90
   2   2 -13  -17.50    8.30
  -2  -2  13   -0.90    9.00
  -2  -2  13  -12.40   10.40
  -2  -2  13    0.70   15.20
  -2  -2  13   21.90    9.60
   1   2 -13   -5.80   10.30
   1   2 -13   -1.80    8.50
   1   2 -13  -13.00    8.80
   1   2 -13    8.00    7.30
  -1  -2  13   11.80   11.40
  -1  -2  13   -7.70    7.20
  -1  -2  13    8.50    7.60
  -1  -2  13    8.40    9.90
   0   2 -13   38.00   10.20
   0   2 -13   26.20    7.20
   0   2 -13   21.20    9.20
   0   2 -13   49.10    8.80
   0  -2  13   37.40   11.10
   0  -2  13   22.60    7.20
   0  -2  13   25.30    7.10
   0  -2  13   33.20    9.20
  -1   2 -13   13.10    9.50
  -1   2 -13   12.50    8.50
  -1   2 -13   18.00    8.10
  -1   2 -13   -0.50    7.90
   1  -2  13    6.50    7.10
   1  -2  13   -4.30   10.90
   1  -2  13    4.90    7.30
   1  -2  13   21.60    9.70
  -2   2 -13   91.29   10.60
  -2   2 -13   67.19    9.10
  -2   2 -13   82.69   11.30
  -2   2 -13   77.39   10.40
   2  -2  13   58.89   12.80
   2  -2  13   83.79   10.60
   2  -2  13   78.29    8.80
   2  -2  13   88.39   11.70
   2  -2  13   68.19    9.50
  -3   2 -13    3.40   12.20
  -3   2 -13    6.30   11.00
  -3   2 -13   13.50   10.00
   3  -2  13    1.70   17.90
   3  -2  13   11.70   12.70
   3  -2  13   16.60   10.00
   3  -2  13   -1.80    9.40
  -4   2 -13    8.70   15.20
  -4   2 -13    2.10   15.00
  -4   2 -13   12.20   14.40
   4  -2  13    5.50   13.10
   4  -2  13    5.20   12.20
   3   1 -13    3.80   13.40
  -3  -1  13    7.80   11.40
  -3  -1  13    8.80   13.60
  -3  -1  13   -0.20   11.00
   2   1 -13    2.40    9.10
   2   1 -13   -3.00   12.10
  -2  -1  13   -5.40    8.60
  -2  -1  13   20.20    9.80
  -2  -1  13    7.30   14.20
  -2  -1  13   -7.40    7.70
   1   1 -13   -2.60    8.10
   1   1 -13   10.30    9.70
   1   1 -13   17.10    6.50
  -1  -1  13    6.80    6.70
  -1  -1  13   12.20    7.30
  -1  -1  13   -7.00    8.70
  -1  -1  13    7.00   10.60
   0   1 -13   12.50    8.40
   0   1 -13   13.70    8.50
   0   1 -13   -9.30    9.00
   0   1 -13   -0.10    6.40
   0  -1  13    2.00    6.40
   0  -1  13   -3.00    8.60
   0  -1  13    2.00    6.70
   0  -1  13   -5.70    9.40
  -1   1 -13   12.60    8.70
  -1   1 -13   -2.30    7.30
  -1   1 -13   20.40    7.50
  -1   1 -13  -10.70    8.80
   1  -1  13    5.90    9.80
   1  -1  13   -0.20    6.00
   1  -1  13    2.00    6.80
   1  -1  13    2.50    8.80
  -2   1 -13  205.18   14.60
  -2   1 -13  226.98   13.90
  -2   1 -13  189.28   15.40
  -2   1 -13  186.18   12.50
   2  -1  13  191.88   13.00
   2  -1  13  231.38   15.70
   2  -1  13  205.08   16.50
   2  -1  13  217.88   16.90
   2  -1  13  233.08   12.60
  -3   1 -13    1.80    9.30
  -3   1 -13  -19.00   10.70
  -3   1 -13    6.50   10.10
  -3   1 -13   24.50   10.40
   3  -1  13  -16.50   14.30
   3  -1  13  -14.80   10.30
   3  -1  13   19.20    9.50
  -4   1 -13  -14.40   13.90
  -4   1 -13   24.60   13.30
  -4   1 -13    6.20   13.60
   4  -1  13  -13.40   11.90
   4  -1  13    4.90   12.50
   3   0 -13   28.70   13.00
  -3   0  13   -7.30   12.40
  -3   0  13   29.10   11.40
  -3   0  13    9.90   10.90
   2   0 -13    0.00    9.60
   2   0 -13    4.90   12.00
  -2   0  13    3.40    9.50
  -2   0  13    5.70    7.50
  -2   0  13   13.70   12.50
  -2   0  13   10.70   11.70
  -2   0  13   -2.60    8.30
   1   0 -13   -7.10    8.20
   1   0 -13   22.20    9.70
  -1   0  13    4.70    6.30
  -1   0  13    8.80    6.90
  -1   0  13   13.00    8.60
  -1   0  13   -4.50   10.00
   0   0 -13   21.80    9.10
   0   0 -13   18.30    8.60
   0   0 -13   14.00    7.80
   0   0 -13   14.50    5.90
   0   0  13   14.30    6.40
   0   0  13   23.70    7.70
   0   0  13   14.60   10.00
  -1   0 -13   45.50    9.70
  -1   0 -13   51.09    7.70
  -1   0 -13   30.70   10.10
  -1   0 -13   52.39    7.20
   1   0  13   38.60    9.70
   1   0  13   52.89    9.30
   1   0  13   39.20    7.10
   1   0  13   46.10    7.10
   1   0  13   53.59    7.40
  -2   0 -13  143.59   11.80
  -2   0 -13  186.18   13.90
  -2   0 -13  197.98   13.60
  -2   0 -13  151.78   13.80
   2   0  13  150.18   11.60
   2   0  13  153.88   12.10
   2   0  13  156.28   13.60
   2   0  13  146.59   12.40
   2   0  13  184.08   13.80
  -3   0 -13   38.30   10.90
  -3   0 -13   49.60   10.90
  -3   0 -13   43.80   11.40
   3   0  13   34.10   12.20
   3   0  13   42.80   11.80
   3   0  13   52.59    9.60
   3   0  13   26.30   13.40
   3   0  13   46.10    9.80
  -4   0 -13   -2.40   12.60
  -4   0 -13   13.60   14.10
   4   0  13   -4.00   21.00
   4   0  13   15.40   11.50
   4   0  13   10.20   12.00
  -5   0 -13   15.20   19.50
  -5   0 -13   30.90   18.50
   5   0  13   48.30   17.90
   3  -1 -13   22.40   11.30
  -3   1  13   27.00   12.80
  -3   1  13   17.30   11.00
  -3   1  13   21.40   10.80
   2  -1 -13   -9.30   11.60
   2  -1 -13    1.10    9.20
  -2   1  13   -6.20    8.70
  -2   1  13    0.40    8.20
  -2   1  13    8.70    7.70
  -2   1  13    8.90   11.90
   1  -1 -13   17.50    8.10
   1  -1 -13   -4.50    9.00
   1  -1 -13   15.80    7.70
  -1   1  13   16.30    6.70
  -1   1  13   15.30    6.70
  -1   1  13    6.30    7.70
  -1   1  13   24.10   13.10
  -1   1  13   15.60    8.70
  -1   1  13   10.80   10.60
   0  -1 -13  104.09   10.50
   0  -1 -13   82.99    9.60
   0  -1 -13   80.99    8.50
   0  -1 -13  117.59   11.00
   0   1  13   85.99   10.60
   0   1  13   78.29    9.00
   0   1  13   94.29    8.70
   0   1  13   92.49    8.90
   0   1  13  101.19   10.50
  -1  -1 -13    1.20    8.70
  -1  -1 -13   14.10    7.60
  -1  -1 -13    6.20    7.00
  -1  -1 -13   14.50    6.20
  -1  -1 -13    6.60    6.40
   1   1  13   22.90    9.20
   1   1  13   17.10    6.40
   1   1  13    6.20    7.50
  -2  -1 -13   19.50   10.00
  -2  -1 -13   19.10    7.60
  -2  -1 -13   21.90    7.90
  -2  -1 -13   17.50    7.30
   2   1  13   22.50    7.50
   2   1  13   17.90    8.50
   2   1  13   11.90   11.30
   2   1  13    3.90    8.30
  -3  -1 -13  108.39   11.90
  -3  -1 -13   91.49   11.20
   3   1  13   78.79   10.30
   3   1  13   98.79   13.30
   3   1  13   89.49   10.00
   3   1  13   98.29   12.60
   3   1  13  101.79   12.90
  -4  -1 -13    4.40   11.90
  -4  -1 -13  -14.40   13.30
  -4  -1 -13   -7.80   12.70
   4   1  13    1.70   17.70
   4   1  13    2.90   11.30
   4   1  13   -3.90   11.90
  -5  -1 -13    9.00   20.30
  -5  -1 -13   13.80   17.90
  -5  -1 -13  -33.10   19.10
   5   1  13    0.90   17.10
   3  -2 -13   29.10   13.10
  -3   2  13    4.10   13.20
  -3   2  13   21.80   10.50
  -3   2  13    5.60   11.10
   2  -2 -13   -7.30    8.30
   2  -2 -13   -6.00   11.30
  -2   2  13    2.90   10.20
  -2   2  13    3.10   12.40
  -2   2  13   20.50    7.80
  -2   2  13   -2.60    8.50
   1  -2 -13    8.60    7.30
   1  -2 -13    2.70    8.90
  -1   2  13   10.80    6.20
  -1   2  13    6.10    6.00
  -1   2  13   -9.80    8.10
  -1   2  13   12.60    9.80
  -1   2  13    2.80    9.60
   0  -2 -13   49.80    9.30
   0  -2 -13   39.00    7.60
   0   2  13   48.90   11.30
   0   2  13   33.20    8.20
   0   2  13   53.19    9.30
   0   2  13   32.30    6.20
   0   2  13   56.59    8.60
   0   2  13   26.00    8.50
   0   2  13   46.60    6.50
  -1  -2 -13    9.80    5.70
  -1  -2 -13   10.20    7.30
  -1  -2 -13   18.90    7.90
  -1  -2 -13   11.40    6.80
   1   2  13   -1.70    8.90
   1   2  13    9.90    8.10
   1   2  13   13.70    6.00
   1   2  13    6.90    6.00
   1   2  13    8.40    8.40
   1   2  13   17.40    6.30
  -2  -2 -13   -1.10    6.60
  -2  -2 -13    7.50    7.70
  -2  -2 -13    0.00    8.20
  -2  -2 -13    5.00    7.40
   2   2  13   12.20   10.90
   2   2  13   -2.40    7.30
   2   2  13   10.20    9.00
   2   2  13   -6.90    6.40
   2   2  13    2.70    8.60
  -3  -2 -13  164.48   15.10
  -3  -2 -13  146.09   13.20
  -3  -2 -13  138.49   12.10
   3   2  13  134.09   13.30
   3   2  13  164.68   13.90
   3   2  13  154.38   14.00
   3   2  13  140.69   13.00
   3   2  13  137.59   13.20
  -4  -2 -13   32.70   12.70
  -4  -2 -13   24.80   13.40
  -4  -2 -13  -13.10   11.30
   4   2  13   -2.00   12.00
   4   2  13   -1.70   11.40
   4   2  13   17.70   24.90
  -5  -2 -13   13.90   16.20
   5   2  13  -16.00   18.30
  -3   3  13    7.90   11.60
  -3   3  13   16.40   11.70
  -3   3  13   -4.70    9.30
   2  -3 -13    3.70    7.80
  -2   3  13   -5.90   11.50
  -2   3  13   16.40    7.10
  -2   3  13   12.40   10.30
  -2   3  13    6.40    8.30
   1  -3 -13    4.40   10.70
  -1   3  13    5.20    8.10
  -1   3  13  -14.10    9.30
  -1   3  13    3.00    6.70
  -1   3  13   -9.40    5.70
  -1   3  13  -11.90    9.60
   0  -3 -13   57.19    7.40
   0   3  13   27.60    9.10
   0   3  13   41.40    9.30
   0   3  13   42.60    6.30
   0   3  13   54.29    8.30
   0   3  13   38.40    8.70
  -1  -3 -13   14.80    7.30
  -1  -3 -13    9.80    8.10
   1   3  13   10.80    6.30
   1   3  13    7.00    7.00
   1   3  13   10.20    5.60
   1   3  13   14.20    8.40
   1   3  13    2.10    8.30
   1   3  13   -1.50    8.80
  -2  -3 -13    3.20    5.80
  -2  -3 -13   -7.40    8.40
  -2  -3 -13   -0.20    7.90
   2   3  13    8.00    7.60
   2   3  13   -2.50    7.50
   2   3  13   12.90    8.70
   2   3  13   -5.70    8.00
   2   3  13    0.30   10.20
  -3  -3 -13    7.60    9.30
  -3  -3 -13   18.20   11.00
   3   3  13   23.00   11.70
   3   3  13  -13.30    8.50
   3   3  13   21.00   12.90
   3   3  13   16.50    8.80
   3   3  13   22.10   10.40
  -4  -3 -13   -6.90   13.70
  -4  -3 -13  -10.00   12.20
   4   3  13   -3.20   12.20
   4   3  13   11.00   11.70
  -5  -3 -13   -6.50   16.30
   5   3  13   18.20   17.00
  -3   4  13  -18.40   13.10
  -3   4  13   21.40    9.70
  -3   4  13    0.00   10.80
  -2   4  13   23.10   11.50
  -2   4  13   30.90    7.30
  -2   4  13   21.60    8.40
  -2   4  13   30.90   10.80
   1  -4 -13    3.50    6.10
  -1   4  13   10.60    6.70
  -1   4  13  -19.00    9.40
  -1   4  13   -7.10    5.50
  -1   4  13    4.10    8.90
  -1   4  13   24.70   10.40
   0  -4 -13  103.99    9.50
   0  -4 -13   65.39    9.10
   0   4  13   92.09    9.00
   0   4  13   98.99    8.50
   0   4  13   90.19    9.40
   0   4  13   83.39   10.30
   0   4  13   82.09    9.70
  -1  -4 -13   13.20    6.60
  -1  -4 -13   -3.30    8.60
   1   4  13   -0.40    6.00
   1   4  13  -10.10    9.00
   1   4  13   10.70    8.00
   1   4  13   -1.20    8.50
  -2  -4 -13    2.10    9.00
  -2  -4 -13   -6.30    7.00
   2   4  13   -8.80    6.80
   2   4  13   12.10   10.20
   2   4  13   30.90    9.90
   2   4  13   16.30    7.20
   2   4  13   18.30    7.90
  -3  -4 -13   13.50   10.10
  -3  -4 -13   10.90    7.70
   3   4  13    7.60   11.40
   3   4  13  -16.80   11.80
   3   4  13    6.30    9.40
   3   4  13   -0.80   13.20
   3   4  13    6.00    8.90
  -4  -4 -13    4.10   11.30
   4   4  13    8.40   11.70
   4   4  13   14.20   12.20
  -3   5  13  -10.20   11.90
  -2   5  13   -0.80    7.10
  -2   5  13   -3.00   11.80
  -2   5  13   12.70    8.40
  -2   5  13   -2.80   11.00
   1  -5 -13   -1.60    9.80
  -1   5  13   18.50   10.10
  -1   5  13   17.20    6.20
  -1   5  13   15.00    9.60
  -1   5  13   -3.50   10.90
  -1   5  13   12.50    7.80
  -1   5  13   13.60    9.00
   0  -5 -13   23.80    8.40
   0   5  13   40.10   10.00
   0   5  13   25.80    7.60
   0   5  13   28.10    8.90
   0   5  13   24.60    6.10
   0   5  13   25.30    9.10
  -1  -5 -13   21.30    6.10
   1   5  13    6.20    8.90
   1   5  13   -6.60    9.10
   1   5  13   10.20    8.20
   1   5  13    7.70    6.40
  -2  -5 -13   43.20    7.70
  -2  -5 -13   34.50    9.50
   2   5  13   27.10    7.80
   2   5  13   34.70    8.10
   2   5  13   45.00    9.20
   2   5  13   32.00   10.50
   2   5  13   57.29   10.40
  -3  -5 -13  -14.30    8.60
  -3  -5 -13  -21.30   10.50
   3   5  13   -4.20    9.20
   3   5  13   20.30   12.10
   3   5  13   -2.70   12.50
   3   5  13    7.70    9.30
  -4  -5 -13   17.50   11.70
   4   5  13    6.40   12.90
   4   5  13   -3.50   12.30
  -3   6  13    2.40   12.90
  -2   6  13    7.70   11.00
  -2   6  13  -12.80    8.80
  -2   6  13    6.20    7.20
  -1   6  13    9.20    6.40
  -1   6  13   16.10   11.40
  -1   6  13  -11.80   11.50
  -1   6  13    2.80    9.60
  -1   6  13    3.30    9.90
   0  -6 -13    6.30    8.60
   0   6  13   11.10    7.90
   0   6  13   23.20    9.70
   0   6  13    3.80    5.70
   0   6  13   14.80    9.30
   0   6  13   13.60    6.80
  -1  -6 -13    1.20    8.80
   1   6  13   -8.60    9.20
   1   6  13   -0.90    9.60
   1   6  13    3.90    6.60
   1   6  13    6.40    8.40
   2   6  13   -4.50    7.70
   2   6  13    6.00   11.30
   2   6  13   13.00    9.90
   2   6  13    7.70    7.70
   2   6  13   15.00    9.10
  -3  -6 -13   -3.00    8.50
   3   6  13  -11.60   10.20
   3   6  13   37.20   10.50
   3   6  13   -9.90   13.40
   3   6  13   -5.20   12.80
  -4  -6 -13    7.40   11.10
   4   6  13   18.00   14.40
   4   6  13   -3.10   12.50
  -2   7  13    8.00    7.60
  -2   7  13   15.00   12.80
  -2   7  13   -2.50    9.20
  -1   7  13   15.00   12.20
  -1   7  13    3.20    6.50
  -1   7  13   31.80   11.20
   0   7  13   28.80   10.80
   0   7  13   33.20   10.00
   0   7  13   25.90    6.80
   0   7  13   39.30   10.30
   0   7  13   39.30    7.00
  -1  -7 -13   17.50   13.10
   1   7  13   37.60    9.20
   1   7  13   33.60   11.30
   1   7  13   38.90    7.40
   1   7  13   25.00   10.50
   2   7  13    1.10    8.10
   2   7  13   10.00    9.80
   2   7  13   22.10    8.10
   2   7  13  -10.70   11.00
   3   7  13   -6.90   13.90
   3   7  13   10.20   10.90
   3   7  13   16.60   10.30
   3   7  13    6.90   15.10
   4   7  13  -10.40   14.00
   4   7  13   17.40   14.70
  -2   8  13   28.10   14.70
  -2   8  13   11.20    9.70
  -2   8  13    3.00    8.00
  -1   8  13   -6.90   11.80
  -1   8  13   -4.70    6.80
   0   8  13    6.40    9.40
   0   8  13    4.20   11.40
   0   8  13   22.10   10.60
   0   8  13    9.00    7.10
   0   8  13    1.10    7.60
   1   8  13   39.10    7.90
   1   8  13   51.39   15.50
   1   8  13   23.60   11.50
   1   8  13   40.00   12.30
   2   8  13   -7.90    8.80
   2   8  13    0.10   12.30
   2   8  13    0.70    9.20
   3   8  13   -3.30   11.40
   3   8  13   15.10   11.00
   3   8  13   10.70   15.10
  -1   9  13    3.70   10.10
  -1   9  13   30.30   13.30
   0   9  13   13.30    8.20
   0   9  13    8.80    7.50
   0   9  13   27.10   11.60
   1   9  13   58.09    8.80
   1   9  13   31.40   14.00
   1   9  13   92.59   13.50
   2   9  13  -13.90   13.60
   2   9  13   -7.20    9.70
   2   9  13   -9.30   10.00
   3   9  13    4.60   12.30
   3   9  13   23.70   16.60
  -1  10  13   13.90   15.00
   0  10  13    1.10   14.10
   1  10  13   -9.10    8.80
   1  10  13  -21.00   13.90
   2  10  13    0.20   10.80
   2  10  13  -23.00   11.20
   2  10  13   17.90   15.40
   0   7 -14   -8.90   17.20
   0   7 -14    7.60   18.80
   0  -7  14  -19.40   12.90
   0  -7  14   -9.40   16.70
  -1   7 -14    6.90   20.20
  -1   7 -14  -25.00   16.20
   1  -7  14   24.40   13.30
   1   6 -14   16.00   18.20
   1   6 -14   15.80   14.60
  -1  -6  14   16.00   13.60
  -1  -6  14   -5.80   13.50
  -1  -6  14   12.50   15.70
   0   6 -14   -6.50   12.40
   0   6 -14   44.10   14.90
   0   6 -14   19.20   14.10
   0   6 -14   48.40   17.00
   0  -6  14   11.00   11.50
   0  -6  14   21.20   15.40
   0  -6  14    3.00   14.40
  -1   6 -14    2.90   16.80
  -1   6 -14   -9.40   14.00
  -1   6 -14   14.60   15.30
   1  -6  14   -7.80   13.90
   1  -6  14   -5.90   12.60
   1  -6  14    4.50   13.30
  -2   6 -14   -4.50   16.40
  -2   6 -14   10.90   17.60
  -2   6 -14   -4.60   18.10
   2  -6  14   -3.10   13.60
   1   5 -14    6.40   16.30
   1   5 -14   17.70   14.10
   1   5 -14   15.20   12.50
   1   5 -14   29.50   12.70
  -1  -5  14   27.50   11.20
  -1  -5  14   16.20   11.70
  -1  -5  14   20.20   14.10
   0   5 -14   13.00   13.00
   0   5 -14   10.00   15.00
   0   5 -14  -15.80   11.90
   0   5 -14   21.20   10.90
   0  -5  14   12.90   10.70
   0  -5  14   23.50   13.80
  -1   5 -14   29.50   15.10
  -1   5 -14   -4.00   12.80
  -1   5 -14    9.30   12.20
  -1   5 -14   -1.90   14.10
   1  -5  14   17.90   15.20
   1  -5  14  -10.50   11.30
   1  -5  14   -1.00   11.10
  -2   5 -14   12.20   16.00
  -2   5 -14   14.40   14.40
   2  -5  14   13.70   11.10
   2  -5  14   11.70   13.90
   2  -5  14    7.00   15.30
  -3   5 -14    9.30   17.90
  -3   5 -14    3.40   18.50
   3  -5  14   -2.40   14.70
   2   4 -14   23.40   15.00
   2   4 -14   16.70   13.20
   2   4 -14    1.10   18.00
  -2  -4  14  -20.40   13.60
  -2  -4  14   -0.20   12.00
  -2  -4  14   -1.40   14.50
   1   4 -14  -11.60   12.60
   1   4 -14   42.00   14.70
   1   4 -14  -10.20   11.20
   1   4 -14   13.10   12.50
  -1  -4  14    9.80   10.10
  -1  -4  14   12.30   13.10
  -1  -4  14   -8.60   10.00
   0   4 -14   11.20   14.60
   0   4 -14   18.80   12.20
   0   4 -14   24.70   12.60
   0  -4  14    1.80   11.20
   0  -4  14    1.50   12.70
   0  -4  14   16.00   10.10
  -1   4 -14    6.40   12.10
  -1   4 -14    2.10   13.00
  -1   4 -14   -9.50   10.60
  -1   4 -14    4.60   12.80
   1  -4  14   21.00    9.60
   1  -4  14   14.10    9.90
   1  -4  14   -8.10   11.90
  -2   4 -14   -5.80   12.40
  -2   4 -14   -5.50   13.80
  -2   4 -14    0.60   13.80
   2  -4  14   11.80   11.60
   2  -4  14  -16.40   13.50
   2  -4  14  -12.30   10.10
  -3   4 -14    9.40   15.90
  -3   4 -14   17.20   15.90
  -3   4 -14   55.09   15.90
   3  -4  14   38.30   14.20
   2   3 -14  -19.60   12.40
   2   3 -14   16.90   16.60
   2   3 -14   17.80   14.70
  -2  -3  14   30.50   14.00
  -2  -3  14   -4.50   10.70
  -2  -3  14   -9.40   11.40
   1   3 -14    2.80   10.90
   1   3 -14   -5.40    9.20
   1   3 -14   -1.80   14.20
   1   3 -14    2.80   11.30
  -1  -3  14    1.80   16.40
  -1  -3  14   19.50   12.50
  -1  -3  14  -16.10    9.70
  -1  -3  14   -3.10    9.20
   0   3 -14   10.70   12.30
   0   3 -14   22.30   10.90
   0   3 -14   -2.70    9.30
   0  -3  14   -3.40    8.70
   0  -3  14  -14.50    8.50
   0  -3  14   20.80   11.30
   0  -3  14   17.20   14.20
  -1   3 -14   -3.80   11.90
  -1   3 -14   -0.90   13.80
  -1   3 -14    4.80   10.90
   1  -3  14   13.90    9.30
   1  -3  14   27.00   14.70
   1  -3  14    3.60   11.30
  -2   3 -14   12.50   11.70
  -2   3 -14   27.50   12.50
  -2   3 -14    3.10   11.30
  -2   3 -14    4.20   13.00
   2  -3  14   -7.60   12.60
   2  -3  14   -0.70   12.30
   2  -3  14    6.00    9.70
  -3   3 -14   -3.50   14.20
  -3   3 -14    6.00   13.70
  -3   3 -14   22.10   15.40
   3  -3  14   30.60   14.90
   3  -3  14   11.80   12.20
  -4   3 -14   36.50   19.50
  -4   3 -14   28.90   19.10
   4  -3  14    1.10   15.10
   4  -3  14   32.50   18.70
   2   2 -14  -24.50   16.30
   2   2 -14   -4.40   13.10
  -2  -2  14    6.20   10.30
  -2  -2  14   -4.10   10.60
  -2  -2  14   -1.70   14.50
   1   2 -14   -0.60   11.20
   1   2 -14    1.20    8.50
   1   2 -14   -4.80   13.50
  -1  -2  14   -3.00    8.80
  -1  -2  14    7.30   14.10
  -1  -2  14   -5.70    9.20
  -1  -2  14    7.70   10.50
   0   2 -14    8.20   11.40
   0   2 -14   37.10   10.40
   0   2 -14   22.40    8.50
   0  -2  14   28.50   13.00
   0  -2  14   30.00   10.90
   0  -2  14   30.30    8.40
   0  -2  14   34.30    8.70
  -1   2 -14   18.00   11.30
  -1   2 -14    6.90    8.90
  -1   2 -14    1.40    9.70
  -1   2 -14    4.50   11.30
   1  -2  14    1.30    8.50
   1  -2  14    3.50   11.30
   1  -2  14    4.50   12.70
  -2   2 -14    7.90   12.00
  -2   2 -14   -2.80   11.00
  -2   2 -14    8.90   10.60
  -2   2 -14   15.00   12.70
   2  -2  14   -9.40   12.10
   2  -2  14   17.00    9.20
   2  -2  14  -36.00   14.50
   2  -2  14   -3.80   13.00
  -3   2 -14    8.20   13.20
  -3   2 -14   -5.70   14.10
  -3   2 -14    8.80   13.50
   3  -2  14    2.30   11.10
   3  -2  14    2.10   11.30
   3  -2  14   -4.20   13.30
  -4   2 -14  -17.20   19.20
  -4   2 -14   -8.70   16.30
  -4   2 -14   43.70   16.20
   4  -2  14   40.80   16.10
   4  -2  14  -16.50   14.50
  -3  -1  14   13.20   12.90
  -3  -1  14   21.50   15.40
   2   1 -14  -10.30   14.70
   2   1 -14    8.50   12.60
  -2  -1  14    4.40   10.20
  -2  -1  14   11.00   10.30
  -2  -1  14   -4.70   12.90
   1   1 -14   21.20    7.30
   1   1 -14   -5.60   10.60
   1   1 -14   21.00   12.10
  -1  -1  14   21.20   13.50
  -1  -1  14   15.10   10.40
  -1  -1  14   21.20    8.20
  -1  -1  14   16.60    8.20
   0   1 -14   27.20   10.70
   0   1 -14    3.10    7.20
   0   1 -14    8.40    9.80
   0  -1  14   12.70   10.30
   0  -1  14   12.10    8.20
   0  -1  14   21.90    7.90
   0  -1  14    6.60   11.60
  -1   1 -14   -5.90   10.30
  -1   1 -14   -5.10    7.90
   1  -1  14   -3.70   10.20
   1  -1  14   12.30   13.00
   1  -1  14    1.90    7.80
   1  -1  14   -0.20    7.80
  -2   1 -14   -0.40   10.00
  -2   1 -14    7.80   10.70
  -2   1 -14    2.50   10.00
   2  -1  14   10.50    9.50
   2  -1  14   -1.60    8.50
   2  -1  14   -1.60   11.50
   2  -1  14    9.80   12.20
   2  -1  14    2.80   13.30
  -3   1 -14   26.50   11.90
  -3   1 -14   12.90   12.40
  -3   1 -14  -18.20   12.80
   3  -1  14    9.50   10.80
   3  -1  14   -4.00   13.00
   3  -1  14   -1.80   17.00
   3  -1  14   -0.50   10.70
  -4   1 -14  -19.20   16.10
  -4   1 -14    6.60   16.30
  -4   1 -14   21.20   17.40
   4  -1  14   -5.20   14.60
   4  -1  14   -9.80   13.40
   3   0 -14   18.40   14.90
  -3   0  14    5.00   12.00
  -3   0  14   -1.20   15.10
   2   0 -14   -4.90   11.70
  -2   0  14    3.40    8.60
  -2   0  14    2.70   11.80
  -2   0  14    2.00    9.80
   1   0 -14   29.50   10.20
   1   0 -14   48.20   13.30
  -1   0  14   33.40    8.20
  -1   0  14   12.20    9.10
  -1   0  14   29.90   12.20
  -1   0  14   19.50   10.70
  -1   0  14   18.10    7.80
   0   0 -14   -3.30   10.40
   0   0 -14   13.00    8.90
   0   0 -14   15.00    6.70
   0   0  14   14.00    9.70
   0   0  14   20.90    7.50
   0   0  14   -3.20    7.00
   0   0  14    4.20   10.70
  -1   0 -14    2.70    7.10
  -1   0 -14    2.70    9.90
  -1   0 -14    6.20    9.50
   1   0  14   -1.20    7.90
   1   0  14   14.80    7.50
   1   0  14   19.40    8.00
   1   0  14   11.80   11.10
   1   0  14   11.70   10.20
  -2   0 -14    5.00    9.60
  -2   0 -14   17.20    8.60
  -2   0 -14   24.30   10.50
   2   0  14    0.70    9.00
   2   0  14   11.60   11.70
   2   0  14   32.60   11.40
   2   0  14   28.90    9.10
   2   0  14    3.80   12.90
  -3   0 -14   20.30   11.70
  -3   0 -14    6.90   10.80
  -3   0 -14   28.30   13.30
   3   0  14    9.40   14.00
   3   0  14   21.70   15.90
   3   0  14   -8.70   11.90
   3   0  14   -8.10   10.20
  -4   0 -14   23.90   16.00
  -4   0 -14   14.70   15.80
  -4   0 -14  -12.10   16.00
   4   0  14   20.60   14.20
   4   0  14  -18.10   13.00
   3  -1 -14   -4.30   13.10
  -3   1  14    7.40   15.50
  -3   1  14    4.30   14.80
  -3   1  14    4.10   11.40
   2  -1 -14   11.80   10.80
  -2   1  14   15.00    9.60
  -2   1  14   -4.70    9.20
  -2   1  14   17.10   12.00
   1  -1 -14   16.10   11.80
   1  -1 -14   17.60    9.30
  -1   1  14   10.80    7.30
  -1   1  14   21.30   10.20
  -1   1  14   11.70    8.20
   0  -1 -14    3.30   10.70
   0   1  14   11.70    7.50
   0   1  14   14.10   18.10
   0   1  14   -2.10    9.40
   0   1  14    0.20    7.40
   0   1  14    7.80    6.90
  -1  -1 -14   -2.40    6.90
  -1  -1 -14   -7.90    8.60
  -1  -1 -14   -4.40    9.90
   1   1  14   -3.50    9.70
   1   1  14   -9.30   11.00
   1   1  14   12.60    7.50
   1   1  14    7.90    7.80
   1   1  14   -8.00    7.30
  -2  -1 -14    9.00   10.30
  -2  -1 -14   16.20    9.20
  -2  -1 -14    5.70    9.20
   2   1  14    3.80    8.40
   2   1  14  -14.40    9.60
   2   1  14   -2.60    8.60
   2   1  14   16.10   10.20
   2   1  14    3.70   12.10
  -3  -1 -14   47.90   11.80
  -3  -1 -14   34.00   11.10
  -3  -1 -14   27.20   12.10
   3   1  14   41.90   10.60
   3   1  14   51.59   13.80
   3   1  14   26.10   16.60
   3   1  14   58.19   15.80
   3   1  14   11.70   10.90
  -4  -1 -14   26.30   15.00
  -4  -1 -14   36.20   14.50
  -4  -1 -14   32.30   13.90
   4   1  14    8.60   14.00
   4   1  14   13.50   13.50
  -3   2  14    0.20   13.70
  -2   2  14   -9.30   11.90
  -2   2  14    3.70   10.20
  -2   2  14    3.10    8.90
   1  -2 -14   25.50    9.10
   1  -2 -14   13.60   11.90
   1  -2 -14   13.20   11.60
  -1   2  14    8.20    6.90
  -1   2  14   18.60    8.70
  -1   2  14    0.20    9.00
  -1   2  14   26.20   11.60
   0  -2 -14   69.29   11.30
   0  -2 -14   77.99    9.00
   0   2  14   53.89    7.40
   0   2  14   55.09   10.00
   0   2  14   58.79    8.10
   0   2  14   51.49   10.30
  -1  -2 -14   15.70    6.40
  -1  -2 -14   25.00    7.40
  -1  -2 -14   -2.00   10.10
  -1  -2 -14    1.30    8.60
   1   2  14   21.70    7.00
   1   2  14   15.90    7.30
   1   2  14   -4.50   10.10
   1   2  14   14.70   10.00
   1   2  14   12.20    7.40
  -2  -2 -14   22.80   10.90
  -2  -2 -14   16.30    8.50
  -2  -2 -14   22.20    8.90
   2   2  14    9.50    8.60
   2   2  14   11.70    9.80
   2   2  14   -9.50    9.60
   2   2  14    8.20   12.20
   2   2  14    5.10    8.80
  -3  -2 -14    5.30   12.60
  -3  -2 -14   -7.10   11.00
  -3  -2 -14   14.40   10.80
   3   2  14    2.10   10.20
   3   2  14   14.90   10.30
   3   2  14   15.80   15.80
   3   2  14   11.10   13.50
   3   2  14   17.20   14.50
  -4  -2 -14   23.50   15.50
  -4  -2 -14    7.20   14.20
  -4  -2 -14   39.90   15.70
   4   2  14   23.00   15.40
   4   2  14   26.70   13.10
  -3   3  14   -1.80   13.90
  -2   3  14   23.30   10.20
  -2   3  14   16.20    8.60
  -2   3  14    4.30   12.10
   1  -3 -14    1.40    8.00
  -1   3  14   -7.60    9.90
  -1   3  14   -5.20    7.10
  -1   3  14   15.90   15.80
  -1   3  14    9.90    8.40
   0  -3 -14   11.80    7.30
   0  -3 -14   -2.20   10.50
   0   3  14    5.60   10.50
   0   3  14    7.10    6.70
   0   3  14   11.90    7.10
   0   3  14   22.10    9.70
  -1  -3 -14   51.79   10.30
  -1  -3 -14   62.49    8.90
   1   3  14   53.89    7.90
   1   3  14   62.69    9.90
   1   3  14   50.29   10.40
   1   3  14   66.69    8.20
  -2  -3 -14   -6.00    9.90
  -2  -3 -14   10.10    7.90
   2   3  14    1.90   11.40
   2   3  14   17.70    8.80
   2   3  14   13.60    9.20
   2   3  14   16.90    8.40
   2   3  14    0.20   10.10
  -3  -3 -14   23.90   11.00
  -3  -3 -14    4.80   12.90
   3   3  14    9.10   10.80
   3   3  14   -2.40   10.20
   3   3  14   15.50   14.00
   3   3  14  -11.20   12.90
  -4  -3 -14   40.80   14.10
   4   3  14    5.40   13.20
   4   3  14   15.70   13.10
  -2   4  14   19.70    9.60
  -2   4  14   25.40   12.70
  -2   4  14   33.20    8.30
  -1   4  14  -15.40   10.50
  -1   4  14   -3.30    8.30
  -1   4  14    0.40    6.80
   0  -4 -14    8.40   10.30
   0  -4 -14   12.20    6.90
   0   4  14   -1.40   10.00
   0   4  14   11.00   10.30
   0   4  14   -2.20    6.70
   0   4  14    5.80    7.50
  -1  -4 -14   23.40    7.70
   1   4  14   16.70    7.80
   1   4  14    7.90    9.90
   1   4  14   17.80    7.20
   1   4  14    4.30   10.10
  -2  -4 -14   -8.30    9.60
  -2  -4 -14    6.30    8.70
   2   4  14   -1.30    8.60
   2   4  14    4.50    9.70
   2   4  14    9.10   10.00
   2   4  14   22.40   12.00
   2   4  14    9.10    8.30
  -3  -4 -14   13.90   10.70
   3   4  14   -1.20   10.40
   3   4  14   -8.40   13.30
   3   4  14   -1.80   14.00
   3   4  14   25.10   11.00
  -4  -4 -14   35.30   14.00
   4   4  14  -12.20   13.00
   4   4  14   15.10   18.00
   4   4  14   -6.00   13.60
  -2   5  14   -3.10   13.30
  -2   5  14   -4.90    8.10
  -2   5  14    3.10    9.90
  -1   5  14   -1.30   11.20
  -1   5  14    6.70    7.20
  -1   5  14   10.50    8.30
   0   5  14   16.60    7.80
   0   5  14    9.10   10.90
   0   5  14   -8.70    6.90
   0   5  14    1.60   10.20
  -1  -5 -14   37.10    7.40
  -1  -5 -14   22.70   11.00
   1   5  14   35.40    8.10
   1   5  14   40.30    8.10
   1   5  14   11.00    9.50
   1   5  14   33.80   11.30
  -2  -5 -14   14.50    8.30
   2   5  14  -10.00    9.60
   2   5  14    0.30    8.60
   2   5  14   -4.50    7.90
   2   5  14   19.00   11.70
   3   5  14  -23.80   10.50
   3   5  14    9.50   10.60
   3   5  14   21.60   14.40
   3   5  14  -21.20   14.40
  -4  -5 -14   12.10   13.50
   4   5  14   34.20   13.70
   4   5  14    2.80   13.70
   4   5  14    5.90   18.50
  -2   6  14    5.90    8.80
  -2   6  14    8.40   12.80
  -2   6  14    0.80   10.10
  -1   6  14   -7.50    7.70
  -1   6  14   17.40    8.80
  -1   6  14   -2.60   11.80
   0   6  14    7.70    7.40
   0   6  14   12.40   11.20
   0   6  14   10.10    7.50
   1   6  14    6.50    7.80
   1   6  14  -16.50   11.00
   1   6  14    2.90    7.70
   2   6  14   12.80    8.80
   2   6  14    7.80   11.90
   2   6  14   -2.70    9.20
  -3  -6 -14  -11.20    9.50
   3   6  14    7.50   15.80
   3   6  14    8.10   10.80
   3   6  14   -0.70   12.20
   4   6  14   10.80   15.00
   4   6  14   -9.00   20.50
  -2   7  14   -8.40   10.90
  -1   7  14    6.50    8.00
  -1   7  14    7.70    9.20
  -1   7  14    7.20   12.70
   0   7  14    7.00    8.00
   0   7  14    8.30    8.20
   0   7  14   10.20   11.60
   1   7  14    4.00    8.20
   1   7  14    4.00    8.10
   1   7  14  -20.70   11.50
   2   7  14   -0.90   12.80
   2   7  14    1.40    9.60
   2   7  14   -2.60    9.00
   3   7  14   27.60   11.50
   3   7  14   12.40   12.00
   3   7  14  -23.30   15.90
  -1   8  14    3.10    8.60
  -1   8  14  -18.40   14.10
  -1   8  14   -6.30   10.30
   0   8  14    0.50   12.50
   0   8  14    0.40    9.20
   0   8  14   -9.20    8.40
   1   8  14   18.10   13.40
   1   8  14   31.70    9.30
   1   8  14   31.10    9.20
   2   8  14    1.10   14.30
   2   8  14   -3.10    9.40
   2   8  14    6.00   11.00
   3   8  14   -3.20   13.20
   3   8  14    3.00   18.10
  -1   9  14   31.20   15.80
  -1   9  14   17.10    8.90
   0   9  14  -22.10    9.10
   0   9  14    9.90   14.60
   0   9  14  -10.50    8.90
   1   9  14    7.50    9.60
   1   9  14   35.90   14.50
   1   9  14   10.90   11.00
   2   9  14   34.80   16.80
   2   9  14    5.60   12.10
   2   9  14    9.10   11.30
   1  10  14   -4.40   15.60
   1  10  14   23.10   10.50
   1  10  14   13.80   14.10
  -1   6 -15   29.90   16.20
   1  -6  15   -0.50   17.70
   1  -6  15    6.80   14.80
   0   5 -15   28.50   17.70
   0   5 -15   14.80   16.30
   0   5 -15  -16.70   13.60
   0  -5  15  -15.30   13.00
   0  -5  15  -13.70   17.20
   0  -5  15   -4.20   12.70
  -1   5 -15   29.40   17.50
  -1   5 -15   21.50   16.00
  -1   5 -15    3.00   14.40
   1  -5  15    5.90   14.70
   1  -5  15    2.80   18.20
   1  -5  15  -13.40   13.40
  -2   5 -15  -21.80   15.90
  -2   5 -15   39.20   20.70
   2  -5  15   11.50   14.70
   2  -5  15  -13.20   19.20
   1   4 -15   11.90   13.40
   1   4 -15   14.70   15.30
   1   4 -15    0.30   18.10
  -1  -4  15   -6.50   12.70
  -1  -4  15    3.20   12.30
  -1  -4  15   17.30   16.70
   0   4 -15   57.39   17.80
   0   4 -15   50.79   14.70
   0   4 -15   45.70   12.70
   0  -4  15   64.29   12.10
   0  -4  15   65.89   12.10
   0  -4  15   96.09   17.80
  -1   4 -15   25.50   15.70
  -1   4 -15    8.10   13.70
  -1   4 -15  -10.60   14.30
   1  -4  15   -1.90   12.10
   1  -4  15   -0.40   15.90
   1  -4  15  -11.30   11.60
  -2   4 -15   -2.80   16.50
  -2   4 -15    6.10   15.60
  -2   4 -15  -13.10   14.20
   2  -4  15   -1.70   16.10
   2  -4  15   31.40   14.10
   2  -4  15   -8.40   12.40
  -3   4 -15  -12.40   18.20
  -3   4 -15   26.80   19.60
   3  -4  15  -11.00   15.50
   1   3 -15    6.70   14.00
   1   3 -15  -23.10   16.30
  -1  -3  15    4.90   10.90
  -1  -3  15   -4.90   12.00
  -1  -3  15    6.60   15.40
   0   3 -15   11.50   14.40
   0   3 -15   23.10   14.90
   0   3 -15    6.00   11.10
   0  -3  15   12.70   10.80
   0  -3  15    6.20   10.60
   0  -3  15   26.80   14.60
  -1   3 -15   16.10   11.80
  -1   3 -15   15.50   14.10
  -1   3 -15   19.50   13.10
   1  -3  15   -0.90   11.40
   1  -3  15   18.90   10.90
   1  -3  15   14.10   14.20
  -2   3 -15   -7.50   16.00
  -2   3 -15    0.30   13.40
  -2   3 -15    0.00   13.70
   2  -3  15   -5.70   11.80
   2  -3  15  -15.00   12.60
   2  -3  15  -14.80   15.30
  -3   3 -15  -16.70   16.30
  -3   3 -15   33.60   17.80
  -3   3 -15    1.60   16.10
   3  -3  15    4.70   15.80
   3  -3  15   17.90   14.10
   2   2 -15    6.80   15.20
  -2  -2  15    4.30   16.30
  -2  -2  15    1.00   12.10
   1   2 -15  -23.00   13.70
   1   2 -15   21.80   15.20
  -1  -2  15   18.20   10.60
  -1  -2  15   -1.00   10.70
  -1  -2  15   -2.30   14.50
   0   2 -15  -13.00   12.50
   0   2 -15    1.60   15.40
   0   2 -15  -13.30    9.70
   0  -2  15   10.70    9.70
   0  -2  15   -0.80   12.60
   0  -2  15    7.40   15.90
   0  -2  15  -10.40   10.80
  -1   2 -15  -23.40   13.00
  -1   2 -15   -5.60   13.10
  -1   2 -15    9.50   10.90
   1  -2  15    4.10   11.10
   1  -2  15    8.40   10.20
   1  -2  15   17.00   16.30
   1  -2  15   -6.50   12.80
  -2   2 -15    6.50   13.30
  -2   2 -15    0.10   14.50
  -2   2 -15    5.40   12.10
   2  -2  15   11.80   10.90
   2  -2  15   16.90   11.90
   2  -2  15   -1.80   14.40
  -3   2 -15   -2.70   14.20
  -3   2 -15   17.80   15.60
  -3   2 -15   -6.20   15.40
   3  -2  15    4.30   17.20
   3  -2  15   -7.20   13.10
   3  -2  15   20.90   14.80
   2   1 -15    9.00   14.50
  -2  -1  15  -16.40   13.30
  -2  -1  15    8.50   11.60
  -2  -1  15   -0.90   16.30
   1   1 -15   17.70   12.90
   1   1 -15   40.20   14.60
  -1  -1  15   27.00   13.10
  -1  -1  15  -21.70    9.90
  -1  -1  15   -9.80   10.40
   0   1 -15   16.60   11.30
   0   1 -15   22.20   13.60
   0   1 -15    2.80    8.80
   0  -1  15   -4.50    9.00
   0  -1  15    1.30   14.60
   0  -1  15   11.20   12.30
   0  -1  15    0.60    9.40
  -1   1 -15   -0.60   12.90
  -1   1 -15    8.30    9.90
   1  -1  15   -8.60    8.80
   1  -1  15   -1.00    9.70
   1  -1  15   12.80   16.00
   1  -1  15  -15.70    9.90
   1  -1  15    0.20   11.20
  -2   1 -15   -0.10   10.90
  -2   1 -15   15.60   13.40
  -2   1 -15    0.00   13.20
   2  -1  15  -31.60   16.70
   2  -1  15   -1.80   10.20
   2  -1  15  -17.10   10.50
   2  -1  15   16.20   14.10
   2  -1  15    8.30   14.40
  -3   1 -15   27.00   14.50
  -3   1 -15   -2.20   13.80
  -3   1 -15   26.10   14.90
   3  -1  15   21.10   13.00
   3  -1  15   -5.40   12.70
   3  -1  15   -5.20   16.10
  -4   1 -15   -7.20   18.80
  -4   1 -15  -20.90   19.00
   4  -1  15   13.50   19.50
   2   0 -15    1.30   14.20
  -2   0  15    9.20   11.70
  -2   0  15  -31.40   13.50
  -2   0  15   -3.30   11.70
   1   0 -15    1.40   11.70
   1   0 -15   -8.70   15.60
  -1   0  15    2.10   10.00
  -1   0  15  -10.00    9.00
  -1   0  15  -10.60   12.10
   0   0 -15   16.80   10.90
   0   0 -15    9.70   13.80
   0   0  15    2.70    8.80
   0   0  15   21.40   11.80
   0   0  15   11.60    8.70
   0   0  15   15.10   13.70
  -1   0 -15   24.20    8.90
  -1   0 -15   20.00   11.00
  -1   0 -15   14.10   12.00
   1   0  15   26.30   10.50
   1   0  15   14.80   12.30
   1   0  15   23.70    9.30
   1   0  15   12.80   13.70
  -2   0 -15   -3.50   10.00
  -2   0 -15   40.00   11.90
  -2   0 -15    2.60   12.30
   2   0  15   29.20   13.90
   2   0  15   10.40   12.50
   2   0  15   37.40   17.10
   2   0  15   -0.60   10.40
   2   0  15   30.60   10.90
  -3   0 -15   18.40   12.80
  -3   0 -15   -4.80   14.20
  -3   0 -15   20.40   14.70
   3   0  15   12.10   12.20
   3   0  15    4.00   14.70
   3   0  15    0.10   12.50
  -4   0 -15  -18.80   19.10
  -4   0 -15    2.00   17.60
  -4   0 -15   -1.40   17.70
   4   0  15   10.90   16.10
   2  -1 -15   17.10   12.70
  -2   1  15   -8.50   10.10
  -2   1  15  -11.30   11.50
  -2   1  15    4.40   14.30
   1  -1 -15    5.80   11.30
  -1   1  15    4.00    8.70
  -1   1  15    4.00    9.40
  -1   1  15   18.70   12.90
   0  -1 -15  -20.10   12.90
   0   1  15    7.90    8.70
   0   1  15  -10.60    9.10
   0   1  15   12.70   19.60
   0   1  15   -4.90   10.50
  -1  -1 -15  -10.20   12.50
  -1  -1 -15   -6.80    8.10
  -1  -1 -15    2.40   10.20
   1   1  15    2.80   12.70
   1   1  15  -12.20   11.50
   1   1  15   13.20    8.90
   1   1  15    0.40    8.70
  -2  -1 -15    1.60    9.90
  -2  -1 -15   -4.50   13.10
  -2  -1 -15   20.10   10.90
   2   1  15   -8.50   14.20
   2   1  15  -15.80   11.70
   2   1  15   10.70   11.90
   2   1  15    8.30   10.40
   2   1  15   -3.40    9.70
  -3  -1 -15   -0.50   13.50
  -3  -1 -15   20.90   13.70
  -3  -1 -15   40.60   15.40
   3   1  15    1.40   11.80
   3   1  15   35.20   12.90
   3   1  15   -3.60   15.60
  -4  -1 -15   27.00   17.70
  -4  -1 -15   45.50   17.40
   4   1  15   27.90   17.20
   2  -2 -15   29.80   12.80
  -2   2  15   28.60   11.10
  -2   2  15    7.20   15.10
  -2   2  15   42.60   11.50
  -1   2  15   27.20   10.30
  -1   2  15   20.10   12.20
  -1   2  15   25.40    9.20
   0  -2 -15   16.10   12.80
   0  -2 -15   -5.70   10.40
   0   2  15    0.50   10.20
   0   2  15   -8.40    8.40
   0   2  15  -13.50    8.30
  -1  -2 -15   24.10   11.90
  -1  -2 -15   13.60    9.40
  -1  -2 -15   -1.20    7.30
   1   2  15   21.30   11.70
   1   2  15   -5.70    9.50
   1   2  15   14.60    8.30
  -2  -2 -15   -4.70   11.60
  -2  -2 -15    3.90    9.20
  -2  -2 -15   -0.90   10.50
   2   2  15   13.60   11.00
   2   2  15   -6.30   10.10
   2   2  15   -0.90   12.70
   2   2  15   -9.30   10.70
  -3  -2 -15   13.60   13.20
  -3  -2 -15   42.00   15.60
  -3  -2 -15   33.00   11.80
   3   2  15   36.40   15.90
   3   2  15   26.90   12.20
   3   2  15   13.80   11.90
  -4  -2 -15   33.70   16.70
  -4  -2 -15   38.00   17.80
   4   2  15   39.40   17.10
  -2   3  15   38.60   10.40
  -2   3  15   10.10   12.50
  -2   3  15   26.30   14.60
   1  -3 -15    4.70   10.00
  -1   3  15   14.60   12.40
  -1   3  15  -10.20    9.70
  -1   3  15   -4.30    8.60
   0  -3 -15    9.30    8.90
   0   3  15   12.70   11.70
   0   3  15   16.00    8.50
   0   3  15   19.00    8.30
  -1  -3 -15   31.70   12.20
  -1  -3 -15   32.30   10.00
  -1  -3 -15   24.70    9.10
   1   3  15    9.80    9.50
   1   3  15   39.20   12.20
   1   3  15   38.80    9.10
  -2  -3 -15    4.80   10.50
  -2  -3 -15   11.90   12.70
   2   3  15    9.80   17.00
   2   3  15   24.20   10.70
   2   3  15   32.40   10.40
   2   3  15   25.30   13.80
  -3  -3 -15    8.70   11.90
   3   3  15    8.40   13.10
   3   3  15   11.00   20.90
   3   3  15   -1.90   11.70
   3   3  15   12.40   14.30
  -4  -3 -15   18.50   16.90
   4   3  15  -12.20   16.80
   4   3  15  -16.80   20.60
  -2   4  15   -4.30   11.30
  -1   4  15    4.30   11.60
  -1   4  15  -26.80    9.60
  -1   4  15   -4.20    8.20
   0  -4 -15   19.30    8.50
   0   4  15    9.80    8.40
   0   4  15    3.50   10.30
   0   4  15    3.40    8.30
  -1  -4 -15   -1.80    8.90
   1   4  15   -9.40   10.70
   1   4  15    3.50    8.70
   1   4  15    2.40    8.40
   2   4  15    2.40   13.30
   2   4  15  -14.50    9.70
   2   4  15    9.10   10.20
  -3  -4 -15   -6.40   12.10
   3   4  15  -10.80   15.70
   3   4  15   -2.10   12.70
   3   4  15  -14.40   11.90
  -4  -4 -15   54.79   16.70
   4   4  15   16.80   21.20
   4   4  15   26.60   16.70
  -2   5  15    0.90   12.30
  -1   5  15    9.70   13.40
  -1   5  15    8.60    9.70
  -1   5  15   26.30    9.00
   0   5  15   20.20   12.80
   0   5  15   26.70    8.90
  -1  -5 -15   -3.10    8.40
   1   5  15    0.50   12.60
   1   5  15   -2.40    8.20
   1   5  15   26.20    9.50
  -2  -5 -15    8.10    9.60
   2   5  15    3.60   13.60
   2   5  15   18.70   10.10
   2   5  15    7.60    9.80
  -3  -5 -15    5.90   11.70
   3   5  15   26.70   16.90
   3   5  15   26.40   12.80
   3   5  15   15.00   12.20
  -1   6  15   13.60    9.30
  -1   6  15   12.50   13.10
  -1   6  15  -17.10    9.60
   0   6  15   -2.00   13.30
   0   6  15  -15.30    8.80
   0   6  15    7.70    8.60
   1   6  15  -26.60    9.00
   1   6  15    3.30   13.60
   1   6  15    8.70    9.60
   2   6  15   12.00   15.80
   2   6  15   -9.20   10.70
   2   6  15    2.70   10.90
   3   6  15   -5.30   13.60
   3   6  15   -4.50   13.30
   3   6  15  -23.10   18.50
  -1   7  15    5.10   16.50
  -1   7  15   11.20   11.60
  -1   7  15  -17.10   17.00
   0   7  15   11.90    9.20
   0   7  15    4.10   12.90
   0   7  15    0.30   10.10
   1   7  15   27.10    9.30
   1   7  15    7.40   10.50
   1   7  15   23.70   14.40
   2   7  15   15.60   11.40
   2   7  15   -0.20   15.90
   2   7  15    7.30   11.10
   3   7  15   11.00   14.50
   3   7  15    1.40   19.50
   0   8  15    9.00   15.90
   0   8  15    5.70   10.20
   0   8  15   18.00   10.60
   1   8  15  -11.50   10.60
   1   8  15   10.90   17.30
   1   8  15    0.20   11.10
   2   8  15   -9.20   18.10
   2   8  15   10.20   12.40
   0   4 -16   27.30   22.50
   0  -4  16  -15.10   18.70
   0  -4  16  -19.50   14.30
  -1   4 -16  -16.20   16.40
  -1   4 -16   11.40   19.90
   1  -4  16  -21.50   15.90
   1  -4  16   20.10   18.40
   0   3 -16   -9.50   14.90
   0   3 -16  -11.00   19.10
   0  -3  16   31.10   14.30
   0  -3  16  -21.70   12.40
   0  -3  16   21.90   16.50
  -1   3 -16   27.00   14.30
  -1   3 -16   14.10   15.50
  -1   3 -16   34.60   18.80
   1  -3  16   34.70   13.30
   1  -3  16   37.00   18.40
   1  -3  16   63.89   14.20
  -2   3 -16   12.30   16.60
  -2   3 -16    6.40   17.90
  -2   3 -16    1.70   18.70
   2  -3  16  -19.50   14.70
   2  -3  16    8.80   18.70
   2  -3  16    6.90   14.00
   1   2 -16    3.00   15.30
  -1  -2  16    9.40   16.40
  -1  -2  16   20.70   13.30
   0   2 -16   45.90   15.80
   0  -2  16   -3.70   12.00
   0  -2  16   24.90   12.10
   0  -2  16   35.80   16.10
  -1   2 -16  -18.70   13.50
  -1   2 -16   26.60   16.40
   1  -2  16  -11.00   12.60
   1  -2  16   12.70   15.70
   1  -2  16   10.30   12.30
  -2   2 -16    4.90   17.20
  -2   2 -16   21.00   16.00
  -2   2 -16   30.00   15.00
   2  -2  16  -12.50   13.50
   2  -2  16    2.40   12.90
   2  -2  16  -26.70   17.20
  -3   2 -16    1.30   16.50
  -3   2 -16  -12.40   19.10
   3  -2  16   -6.10   16.20
   1   1 -16   13.60   15.40
  -1  -1  16  -35.60   15.10
  -1  -1  16  -11.40   13.00
  -1  -1  16    7.10   12.30
   0   1 -16    4.60   14.00
   0   1 -16   13.10   16.70
   0  -1  16   30.40   11.60
   0  -1  16   25.90   11.90
   0  -1  16   11.90   15.00
  -1   1 -16   31.30   13.30
  -1   1 -16   25.10   11.10
  -1   1 -16   25.00   16.40
   1  -1  16   54.39   12.10
   1  -1  16   43.20   13.30
   1  -1  16   44.90   15.70
  -2   1 -16  -24.40   15.50
  -2   1 -16   -8.70   12.60
   2  -1  16   -5.30   11.70
   2  -1  16    1.50   12.70
   2  -1  16    8.20   16.50
  -3   1 -16  -16.80   17.80
  -3   1 -16   15.40   16.30
  -3   1 -16  -37.90   19.70
   3  -1  16   -3.20   15.30
   1   0 -16   35.90   15.40
  -1   0  16   23.10   15.40
  -1   0  16   10.00   11.70
  -1   0  16    7.30   12.30
   0   0  16   50.69   12.10
   0   0  16   42.10   11.60
   0   0  16   41.90   14.80
  -1   0 -16   11.60    9.90
  -1   0 -16   -2.60   15.90
  -1   0 -16   -4.40   13.20
   1   0  16  -17.40   14.60
   1   0  16   44.90   12.70
   1   0  16    8.80   11.30
  -2   0 -16   22.80   14.10
  -2   0 -16   13.70   14.40
  -2   0 -16   17.10   15.40
   2   0  16   -4.30   11.90
   2   0  16  -15.60   12.20
   2   0  16   -7.50   14.30
  -3   0 -16   11.90   14.80
  -3   0 -16  -18.20   16.10
   3   0  16    9.70   15.20
   3   0  16   14.00   16.10
   3   0  16   50.99   19.80
   1  -1 -16    4.90   12.90
  -1   1  16    1.10   11.10
  -1   1  16   -2.20   11.30
  -1   1  16   15.30   13.50
   0  -1 -16   -9.60   11.90
   0   1  16    8.70   13.10
   0   1  16   -9.90   10.40
   0   1  16   -7.90    9.80
  -1  -1 -16   -2.30   13.00
  -1  -1 -16   36.00   25.20
   1   1  16    6.40   11.30
   1   1  16   -4.10   12.80
   1   1  16   16.00   11.10
  -2  -1 -16  -26.50   25.80
  -2  -1 -16   13.90   13.40
  -2  -1 -16  -18.00   11.30
   2   1  16    4.60   11.70
   2   1  16   17.90   11.90
   2   1  16   -6.20   15.40
  -3  -1 -16  -33.00   15.80
  -3  -1 -16   16.40   14.00
   3   1  16  -22.10   14.40
   3   1  16   14.00   18.20
   3   1  16   -0.80   13.90
  -1   2  16   15.30   14.30
  -1   2  16   16.20   12.60
  -1   2  16    3.40   11.60
   0  -2 -16   10.00   11.60
   0   2  16   30.20   10.60
   0   2  16  -15.80   10.90
   0   2  16   12.30   12.70
  -1  -2 -16   -0.80   11.10
   1   2  16   -0.90   11.00
   1   2  16    7.40   10.60
   1   2  16    8.60   12.90
  -2  -2 -16   25.80   12.80
  -2  -2 -16   16.80   11.20
   2   2  16   17.20   11.90
   2   2  16   21.40   12.10
   2   2  16   -3.20   14.50
  -3  -2 -16   -6.80   15.60
  -3  -2 -16    7.80   14.50
   3   2  16    5.60   15.50
   3   2  16   29.50   18.60
   3   2  16    1.50   13.70
  -1   3  16   17.00   10.60
  -1   3  16   -3.60   13.80
  -1   3  16   18.50   11.90
   0   3  16   18.40   14.00
   0   3  16    7.30   10.50
   0   3  16   -6.60   10.80
  -1  -3 -16   -0.50   10.70
   1   3  16    9.00   10.90
   1   3  16    4.40   12.70
   1   3  16    9.70   10.50
  -2  -3 -16   12.90   12.90
   2   3  16   13.60   16.40
   2   3  16    1.30   12.40
   2   3  16    8.30   12.30
  -3  -3 -16    9.20   14.60
   3   3  16  -18.30   14.40
   3   3  16   10.70   14.00
   3   3  16    9.10   18.10
  -1   4  16   15.70   17.40
  -1   4  16   17.30   10.40
  -1   4  16   -4.90   11.60
   0   4  16    7.50   14.20
   0   4  16  -12.50   10.30
   0   4  16   10.40   11.00
  -1  -4 -16    7.60   10.30
   1   4  16   10.90   11.00
   1   4  16   -8.20   14.50
   1   4  16   11.70   11.10
  -2  -4 -16   21.40   11.50
   2   4  16   16.20   12.40
   2   4  16   27.20   16.20
   2   4  16   14.40   12.10
  -3  -4 -16    8.10   14.10
   3   4  16  -15.30   14.30
   3   4  16    2.60   17.00
   3   4  16   22.40   14.70
  -1   5  16    3.20   12.80
   0   5  16   36.90   13.60
   0   5  16   29.90   11.50
   0   5  16   23.80   11.00
   1   5  16   13.30   11.00
   1   5  16   10.90   11.50
   1   5  16   14.50   15.10
   2   5  16   -8.20   13.10
   2   5  16   12.70   12.70
   2   5  16  -27.20   16.10
   3   5  16   18.60   20.10
   3   5  16  -19.00   14.50
   0   6  16   -1.20   11.70
   0   6  16  -13.10   11.50
   0   6  16    5.70   15.50
   1   6  16   11.50   10.90
   1   6  16   11.40   11.90
   1   6  16   40.60   16.00
   2   6  16   -7.50   17.20
   2   6  16  -10.00   14.30
   2   6  16  -19.50   13.20
   0   7  16  -28.90   12.90
   1   7  16  -10.80   12.00
   1   7  16    7.60   17.40
   2   7  16   18.00   17.80
   2   7  16    2.30   13.80
   1  -2  17  -28.90   15.20
   0   1 -17    3.60   16.50
   0  -1  17    0.40   13.70
  -1   1 -17    9.60   15.40
   1  -1  17  -10.20   14.80
   1  -1  17    1.90   21.40
  -2   1 -17   16.50   16.60
   2  -1  17    9.10   17.00
   0   0  17    8.50   14.30
   0   0  17    3.50   19.60
  -1   0 -17    6.40   15.30
   1   0  17  -11.30   14.90
   1   0  17    5.10   13.60
   1   0  17    9.40   17.50
  -2   0 -17   -3.20   16.10
   2   0  17   10.50   15.20
   0  -1 -17   18.20   14.80
   0   1  17   21.80   12.20
   0   1  17   17.10   16.00
  -1  -1 -17   -5.30   14.20
   1   1  17   28.40   17.30
   1   1  17  -30.80   13.80
   1   1  17   34.40   13.20
  -2  -1 -17    5.30   15.50
   2   1  17    8.10   14.50
   0  -2 -17   27.20   14.20
   0   2  17   17.70   13.00
   0   2  17   24.20   14.10
  -1  -2 -17    4.00   13.10
   1   2  17    2.70   13.00
   1   2  17    2.50   17.00
   1   2  17   15.90   14.10
  -2  -2 -17    6.80   15.30
   2   2  17    1.30   13.60
   2   2  17  -26.20   14.80
   0   3  17   -5.60   14.00
   0   3  17    3.40   13.40
  -1  -3 -17   -5.20   13.30
   1   3  17   22.20   14.00
   1   3  17  -10.00   17.60
   1   3  17   10.50   13.20
   2   3  17   15.60   15.20
   2   3  17   26.50   14.80
   0   4  17   -0.60   13.90
   1   4  17    4.30   13.90
   1   4  17   -2.20   12.90
   2   4  17  -18.30   13.90
   1   5  17    7.40   13.80
   0   0   0    0.00    0.00
_computing_structure_solution     'SHELXT 2014/5 (Sheldrick, 2014)'
;
_shelx_hkl_checksum              22317
loop_
_symmetry_equiv_pos_as_xyz
'x, y, z'
loop_
_atom_site_label
_atom_site_type_symbol
_atom_site_fract_x
_atom_site_fract_y
_atom_site_fract_z
_atom_site_U_iso_or_equiv
_atom_site_adp_type
_atom_site_occupancy
_atom_site_site_symmetry_order
_atom_site_calc_flag
_atom_site_refinement_flags_posn
_atom_site_refinement_flags_adp
_atom_site_refinement_flags_occupancy
_atom_site_disorder_assembly
_atom_site_disorder_group
F7 F 1.8257(7) 0.6863(4) -0.3062(3) 0.0774(11) Uani 1 1 d . . . . .
F1 F 0.8915(8) 0.5415(3) 0.1299(3) 0.0661(9) Uani 1 1 d . . . . .
F1' F -0.5886(7) 0.3783(3) 1.1023(3) 0.0625(9) Uani 1 1 d . . . . .
F5 F 1.4142(8) 0.8451(3) 0.2542(3) 0.0740(11) Uani 1 1 d . . . . .
F2 F 0.6277(8) 0.4803(4) 0.3259(3) 0.0775(11) Uani 1 1 d . . . . .
F3 F 0.7584(9) 0.5972(5) 0.4887(3) 0.0852(12) Uani 1 1 d . . . . .
F5' F 0.0282(7) 0.0258(4) 1.1438(3) 0.0748(11) Uani 1 1 d . . . . .
F3' F -0.6446(9) 0.1237(5) 1.4256(3) 0.0874(13) Uani 1 1 d . . . . .
F6 F 1.6048(8) 0.6179(4) -0.1062(3) 0.0732(11) Uani 1 1 d . . . . .
C4 C 0.8215(12) 0.5696(5) 0.3071(5) 0.0523(15) Uani 1 1 d . . . . .
O1 O 1.5684(6) 0.7659(4) 0.0637(3) 0.0636(10) Uani 1 1 d . . . . .
F10 F 0.9408(7) 0.9571(4) -0.1283(3) 0.0718(10) Uani 1 1 d . . . . .
O1' O 0.1435(6) 0.2177(4) 0.9862(3) 0.0664(10) Uani 1 1 d . . . . .
F6' F 0.1235(8) 0.4530(4) 0.8681(3) 0.0729(10) Uani 1 1 d . . . . .
F10' F -0.4477(8) 0.1523(4) 0.7655(4) 0.0802(12) Uani 1 1 d . . . . .
F4 F 1.1593(9) 0.7768(4) 0.4518(4) 0.0883(13) Uani 1 1 d . . . . .
F9 F 1.1522(10) 1.0154(4) -0.3331(3) 0.0828(12) Uani 1 1 d . . . . .
F4' F -0.1974(9) -0.0179(4) 1.3474(3) 0.0821(12) Uani 1 1 d . . . . .
C7' C -0.1796(11) 0.1024(6) 1.1813(5) 0.0549(15) Uani 1 1 d . . . . .
C6 C 1.0909(13) 0.7193(6) 0.3715(5) 0.0576(15) Uani 1 1 d . . . . .
F8 F 1.6023(10) 0.8825(5) -0.4234(3) 0.0856(12) Uani 1 1 d . . . . .
F2' F -0.8444(7) 0.3200(4) 1.3001(3) 0.0725(11) Uani 1 1 d . . . . .
N1 N 1.1518(9) 0.7536(5) -0.0013(4) 0.0541(13) Uani 1 1 d . . . . .
H1 H 0.972891 0.742546 0.014203 0.065 Uiso 1 1 calc R U . . .
N1' N -0.2836(9) 0.2647(5) 0.9307(4) 0.0527(13) Uani 1 1 d . . . . .
H2 H -0.463872 0.266565 0.948384 0.063 Uiso 1 1 calc R U . . .
C4' C -0.6234(11) 0.2498(6) 1.2627(5) 0.0504(14) Uani 1 1 d . . . . .
F9' F -0.2335(11) 0.2192(5) 0.5613(4) 0.1078(17) Uani 1 1 d . . . . .
F7' F 0.3494(9) 0.5123(4) 0.6658(4) 0.0895(13) Uani 1 1 d . . . . .
C5' C -0.5251(13) 0.1495(6) 1.3258(5) 0.0573(16) Uani 1 1 d . . . . .
C9 C 1.4937(11) 0.7214(5) -0.1587(5) 0.0468(13) Uani 1 1 d . . . . .
C13' C -0.2510(11) 0.2433(6) 0.7397(5) 0.0568(16) Uani 1 1 d . . . . .
C2' C -0.2728(10) 0.2026(5) 1.1155(4) 0.0412(12) Uani 1 1 d . . . . .
C5 C 0.8892(12) 0.6288(6) 0.3898(5) 0.0553(16) Uani 1 1 d . . . . .
F8' F 0.1819(10) 0.3983(5) 0.5113(3) 0.1002(15) Uani 1 1 d . . . . .
C12 C 1.2642(12) 0.9186(6) -0.2756(5) 0.0538(15) Uani 1 1 d . . . . .
C1 C 1.3101(11) 0.7384(6) 0.0768(5) 0.0504(14) Uani 1 1 d . . . . .
C2 C 1.1563(10) 0.6991(5) 0.1838(4) 0.0427(12) Uani 1 1 d . . . . .
C8' C -0.1691(10) 0.2994(5) 0.8215(4) 0.0437(13) Uani 1 1 d . . . . .
C1' C -0.1248(11) 0.2299(5) 1.0056(4) 0.0442(12) Uani 1 1 d . . . . .
C8 C 1.2692(11) 0.7874(5) -0.1088(5) 0.0461(13) Uani 1 1 d . . . . .
C7 C 1.2234(10) 0.7536(6) 0.2678(5) 0.0487(14) Uani 1 1 d . . . . .
C9' C 0.0398(11) 0.3919(5) 0.7948(5) 0.0469(13) Uani 1 1 d . . . . .
C3 C 0.9606(11) 0.6051(6) 0.2076(5) 0.0482(14) Uani 1 1 d . . . . .
C3' C -0.4944(11) 0.2765(5) 1.1585(4) 0.0462(13) Uani 1 1 d . . . . .
C6' C -0.3005(13) 0.0776(6) 1.2852(5) 0.0572(16) Uani 1 1 d . . . . .
C11 C 1.4912(13) 0.8509(6) -0.3212(5) 0.0548(15) Uani 1 1 d . . . . .
C10 C 1.6070(11) 0.7533(6) -0.2624(5) 0.0537(15) Uani 1 1 d . . . . .
C12' C -0.1419(13) 0.2771(7) 0.6378(5) 0.0644(18) Uani 1 1 d . . . . .
C13 C 1.1604(10) 0.8890(5) -0.1715(4) 0.0454(13) Uani 1 1 d . . . . .
C11' C 0.0648(14) 0.3656(7) 0.6112(5) 0.0638(18) Uani 1 1 d . . . . .
C10' C 0.1519(11) 0.4216(6) 0.6888(5) 0.0569(16) Uani 1 1 d . . . . .
loop_
_atom_site_aniso_label
_atom_site_aniso_U_11
_atom_site_aniso_U_22
_atom_site_aniso_U_33
_atom_site_aniso_U_23
_atom_site_aniso_U_13
_atom_site_aniso_U_12
F7 0.068(2) 0.099(3) 0.062(2) -0.025(2) 0.0065(18) 0.021(2)
F1 0.081(2) 0.054(2) 0.066(2) -0.0134(18) -0.0136(18) -0.0073(17)
F1' 0.073(2) 0.050(2) 0.062(2) -0.0001(16) -0.0093(16) 0.0154(16)
F5 0.057(2) 0.070(3) 0.095(3) 0.005(2) -0.0205(19) -0.0213(18)
F2 0.071(2) 0.064(2) 0.089(3) 0.005(2) 0.0104(19) -0.0240(18)
F3 0.088(3) 0.106(3) 0.051(2) 0.002(2) 0.0135(18) -0.004(2)
F5' 0.063(2) 0.074(2) 0.084(3) -0.009(2) -0.0043(19) 0.0239(18)
F3' 0.096(3) 0.106(3) 0.052(2) 0.000(2) 0.008(2) -0.007(2)
F6 0.078(2) 0.066(2) 0.073(2) -0.0058(19) -0.0078(18) 0.0210(19)
C4 0.050(3) 0.038(3) 0.063(4) 0.003(3) 0.004(3) -0.003(2)
O1 0.0269(15) 0.092(3) 0.067(2) 0.0046(19) -0.0011(14) -0.0062(15)
F10 0.0503(18) 0.079(3) 0.083(3) -0.013(2) -0.0036(17) 0.0166(17)
O1' 0.0281(16) 0.093(3) 0.075(2) -0.001(2) -0.0024(15) -0.0046(16)
F6' 0.077(2) 0.067(2) 0.074(3) -0.011(2) -0.006(2) -0.0157(19)
F10' 0.054(2) 0.087(3) 0.104(3) -0.015(2) -0.019(2) -0.0179(19)
F4 0.094(3) 0.104(3) 0.074(3) -0.023(2) -0.021(2) -0.011(2)
F9 0.100(3) 0.073(3) 0.076(3) 0.011(2) -0.031(2) 0.013(2)
F4' 0.094(3) 0.081(3) 0.067(2) 0.014(2) -0.020(2) 0.013(2)
C7' 0.038(3) 0.055(4) 0.070(4) -0.001(3) -0.008(3) 0.002(3)
C6 0.061(3) 0.066(4) 0.048(3) -0.016(3) -0.010(3) 0.015(3)
F8 0.101(3) 0.105(3) 0.043(2) 0.0031(19) 0.0051(18) -0.010(2)
F2' 0.066(2) 0.079(3) 0.072(2) -0.026(2) -0.0005(18) 0.0141(19)
N1 0.039(2) 0.062(3) 0.058(3) -0.001(2) -0.002(2) -0.005(2)
N1' 0.033(2) 0.064(3) 0.057(3) -0.001(2) 0.0004(19) 0.0081(19)
C4' 0.046(3) 0.049(4) 0.056(4) -0.017(3) -0.002(3) 0.005(2)
F9' 0.126(4) 0.141(4) 0.073(3) -0.046(3) -0.046(3) 0.018(3)
F7' 0.079(3) 0.076(3) 0.100(3) 0.014(2) 0.017(2) -0.023(2)
C5' 0.056(3) 0.067(4) 0.049(4) -0.009(3) -0.001(3) -0.023(3)
C9 0.042(3) 0.045(3) 0.052(3) -0.002(3) -0.008(2) 0.001(2)
C13' 0.042(3) 0.061(4) 0.070(4) -0.011(3) -0.020(3) 0.018(3)
C2' 0.034(2) 0.045(3) 0.045(3) -0.002(2) -0.006(2) -0.006(2)
C5 0.048(3) 0.064(4) 0.046(3) 0.013(3) 0.004(2) 0.008(3)
F8' 0.115(3) 0.114(4) 0.054(2) 0.012(2) 0.022(2) 0.024(3)
C12 0.055(3) 0.049(4) 0.060(4) -0.002(3) -0.017(3) -0.011(3)
C1 0.040(3) 0.060(4) 0.047(3) 0.006(3) -0.003(2) 0.008(2)
C2 0.031(2) 0.046(3) 0.049(3) -0.003(3) -0.003(2) 0.001(2)
C8' 0.030(2) 0.047(3) 0.048(3) 0.002(2) 0.003(2) 0.010(2)
C1' 0.042(3) 0.045(3) 0.044(3) -0.001(2) -0.004(2) -0.009(2)
C8 0.040(2) 0.045(3) 0.052(3) -0.004(3) -0.002(2) -0.011(2)
C7 0.034(2) 0.047(3) 0.062(4) 0.003(3) -0.002(2) -0.006(2)
C9' 0.043(3) 0.040(3) 0.055(3) -0.003(3) -0.003(2) -0.001(2)
C3 0.044(3) 0.053(4) 0.047(3) -0.007(3) -0.006(2) 0.009(3)
C3' 0.045(3) 0.043(3) 0.051(3) -0.005(3) -0.008(2) -0.007(2)
C6' 0.062(4) 0.052(4) 0.056(4) 0.013(3) -0.019(3) -0.005(3)
C11 0.061(3) 0.059(4) 0.044(3) -0.004(3) -0.008(3) -0.006(3)
C10 0.041(3) 0.065(4) 0.055(4) -0.011(3) -0.001(3) -0.006(3)
C12' 0.059(3) 0.078(5) 0.058(4) -0.010(3) -0.015(3) 0.015(3)
C13 0.039(3) 0.049(4) 0.050(3) -0.012(3) -0.008(2) -0.002(2)
C11' 0.067(4) 0.071(5) 0.046(4) -0.005(3) 0.009(3) 0.014(3)
C10' 0.038(3) 0.064(4) 0.060(4) 0.008(3) 0.006(3) 0.002(3)
loop_
_atom_type_symbol
_atom_type_description
_atom_type_scat_dispersion_real
_atom_type_scat_dispersion_imag
_atom_type_scat_source
C C 0.0033 0.0016 'International Tables Vol C Tables 4.2.6.8 and 6.1.1.4'
H H 0 0 'International Tables Vol C Tables 4.2.6.8 and 6.1.1.4'
N N 0.0061 0.0033 'International Tables Vol C Tables 4.2.6.8 and 6.1.1.4'
O O 0.0106 0.006 'International Tables Vol C Tables 4.2.6.8 and 6.1.1.4'
F F 0.0171 0.0103 'International Tables Vol C Tables 4.2.6.8 and 6.1.1.4'
loop_
_geom_angle_atom_site_label_1
_geom_angle_atom_site_label_2
_geom_angle_atom_site_label_3
_geom_angle
_geom_angle_site_symmetry_1
_geom_angle_site_symmetry_3
_geom_angle_publ_flag
F2 C4 C3 122.0(6) . . ?
F2 C4 C5 119.8(5) . . ?
C3 C4 C5 118.2(5) . . ?
F5' C7' C6' 118.5(6) . . ?
F5' C7' C2' 120.0(6) . . ?
C6' C7' C2' 121.5(6) . . ?
F4 C6 C5 120.6(6) . . ?
F4 C6 C7 120.1(6) . . ?
C5 C6 C7 119.3(6) . . ?
C1 N1 C8 122.2(5) . . ?
C1 N1 H1 118.9 . . ?
C8 N1 H1 118.9 . . ?
C1' N1' C8' 123.2(4) . . ?
C1' N1' H2 118.4 . . ?
C8' N1' H2 118.4 . . ?
F2' C4' C5' 120.5(5) . . ?
F2' C4' C3' 120.0(6) . . ?
C5' C4' C3' 119.5(5) . . ?
F3' C5' C6' 120.4(6) . . ?
F3' C5' C4' 120.1(6) . . ?
C6' C5' C4' 119.5(5) . . ?
F6 C9 C10 117.2(5) . . ?
F6 C9 C8 120.1(5) . . ?
C10 C9 C8 122.7(6) . . ?
C12' C13' F10' 120.6(6) . . ?
C12' C13' C8' 122.0(6) . . ?
F10' C13' C8' 117.4(6) . . ?
C7' C2' C3' 117.2(5) . . ?
C7' C2' C1' 119.4(5) . . ?
C3' C2' C1' 123.3(5) . . ?
F3 C5 C6 119.5(6) . . ?
F3 C5 C4 120.3(6) . . ?
C6 C5 C4 120.2(5) . . ?
F9 C12 C13 120.4(6) . . ?
F9 C12 C11 119.8(6) . . ?
C13 C12 C11 119.8(6) . . ?
O1 C1 N1 123.4(5) . . ?
O1 C1 C2 120.9(5) . . ?
N1 C1 C2 115.4(5) . . ?
C7 C2 C3 116.1(5) . . ?
C7 C2 C1 118.8(5) . . ?
C3 C2 C1 125.0(6) . . ?
C13' C8' C9' 117.3(5) . . ?
C13' C8' N1' 122.8(5) . . ?
C9' C8' N1' 119.9(6) . . ?
O1' C1' N1' 123.0(5) . . ?
O1' C1' C2' 120.1(5) . . ?
N1' C1' C2' 116.9(5) . . ?
C9 C8 C13 115.7(5) . . ?
C9 C8 N1 122.4(5) . . ?
C13 C8 N1 121.9(5) . . ?
F5 C7 C2 121.3(5) . . ?
F5 C7 C6 116.7(6) . . ?
C2 C7 C6 121.9(5) . . ?
F6' C9' C10' 120.2(5) . . ?
F6' C9' C8' 121.0(5) . . ?
C10' C9' C8' 118.8(6) . . ?
F1 C3 C4 115.7(5) . . ?
F1 C3 C2 120.1(5) . . ?
C4 C3 C2 124.2(6) . . ?
F1' C3' C2' 121.2(5) . . ?
F1' C3' C4' 117.1(5) . . ?
C2' C3' C4' 121.7(6) . . ?
F4' C6' C5' 119.8(6) . . ?
F4' C6' C7' 119.6(6) . . ?
C5' C6' C7' 120.6(6) . . ?
F8 C11 C10 119.9(6) . . ?
F8 C11 C12 120.2(6) . . ?
C10 C11 C12 119.8(5) . . ?
F7 C10 C11 120.3(5) . . ?
F7 C10 C9 119.9(6) . . ?
C11 C10 C9 119.8(6) . . ?
C13' C12' F9' 119.0(7) . . ?
C13' C12' C11' 121.0(7) . . ?
F9' C12' C11' 119.9(6) . . ?
F10 C13 C12 118.8(5) . . ?
F10 C13 C8 119.0(5) . . ?
C12 C13 C8 122.2(5) . . ?
F8' C11' C10' 119.0(7) . . ?
F8' C11' C12' 122.3(7) . . ?
C10' C11' C12' 118.7(6) . . ?
C11' C10' F7' 120.6(6) . . ?
C11' C10' C9' 122.2(6) . . ?
F7' C10' C9' 117.3(6) . . ?
loop_
_geom_bond_atom_site_label_1
_geom_bond_atom_site_label_2
_geom_bond_distance
_geom_bond_site_symmetry_2
_geom_bond_publ_flag
F7 C10 1.333(7) . ?
F1 C3 1.353(7) . ?
F1' C3' 1.326(7) . ?
F5 C7 1.333(6) . ?
F2 C4 1.324(7) . ?
F3 C5 1.338(7) . ?
F5' C7' 1.329(7) . ?
F3' C5' 1.323(7) . ?
F6 C9 1.352(7) . ?
C4 C3 1.365(9) . ?
C4 C5 1.378(9) . ?
O1 C1 1.264(6) . ?
F10 C13 1.340(6) . ?
O1' C1' 1.277(6) . ?
F6' C9' 1.319(7) . ?
F10' C13' 1.349(8) . ?
F4 C6 1.342(8) . ?
F9 C12 1.335(7) . ?
F4' C6' 1.339(7) . ?
C7' C6' 1.369(9) . ?
C7' C2' 1.380(8) . ?
C6 C5 1.361(9) . ?
C6 C7 1.397(9) . ?
F8 C11 1.346(7) . ?
F2' C4' 1.333(7) . ?
N1 C1 1.338(7) . ?
N1 C8 1.418(8) . ?
N1 H1 0.86 . ?
N1' C1' 1.325(7) . ?
N1' C8' 1.435(7) . ?
N1' H2 0.86 . ?
C4' C5' 1.370(9) . ?
C4' C3' 1.386(9) . ?
F9' C12' 1.350(8) . ?
F7' C10' 1.348(7) . ?
C5' C6' 1.368(9) . ?
C9 C10 1.367(8) . ?
C9 C8 1.376(8) . ?
C13' C12' 1.345(10) . ?
C13' C8' 1.376(9) . ?
C2' C3' 1.380(8) . ?
C2' C1' 1.480(8) . ?
F8' C11' 1.331(7) . ?
C12 C13 1.357(9) . ?
C12 C11 1.374(9) . ?
C1 C2 1.477(8) . ?
C2 C7 1.365(9) . ?
C2 C3 1.367(8) . ?
C8' C9' 1.402(8) . ?
C8 C13 1.397(8) . ?
C9' C10' 1.387(9) . ?
C11 C10 1.357(9) . ?
C12' C11' 1.365(10) . ?
C11' C10' 1.342(10) . ?
