#------------------------------------------------------------------------------
#$Date: 2022-09-23 01:37:45 +0300 (Fri, 23 Sep 2022) $
#$Revision: 278090 $
#$URL: file:///home/coder/svn-repositories/cod/cif/7/24/55/7245541.cif $
#------------------------------------------------------------------------------
#
# This file is available in the Crystallography Open Database (COD),
# http://www.crystallography.net/
#
# All data on this site have been placed in the public domain by the
# contributors.
#
data_7245541
loop_
_publ_author_name
'Stoesser, Julian'
'Engelage, Elric'
'Huber, Stefan'
_publ_section_title
;
 Co-crystallization studies of the syn- and anti-atropisomers of
 triphenyl-based perfluorinated halogen bond donors with halides
;
_journal_name_full               CrystEngComm
_journal_paper_doi               10.1039/D2CE00973K
_journal_year                    2022
_chemical_formula_sum            'C18 F12 I2'
_chemical_formula_weight         697.98
_space_group_crystal_system      triclinic
_space_group_IT_number           2
_space_group_name_Hall           '-P 1'
_space_group_name_H-M_alt        'P -1'
_atom_sites_solution_primary     'dual space'
_atom_sites_solution_secondary   difmap
_audit_creation_method           SHELXL-2018/3
_audit_update_record
;
2022-08-31 deposited with the CCDC.	2022-09-16 downloaded from the CCDC.
;
_cell_angle_alpha                77.925(4)
_cell_angle_beta                 86.254(4)
_cell_angle_gamma                68.455(5)
_cell_formula_units_Z            2
_cell_length_a                   8.2040(4)
_cell_length_b                   10.2959(5)
_cell_length_c                   12.6309(6)
_cell_measurement_reflns_used    3405
_cell_measurement_temperature    170(2)
_cell_measurement_theta_max      25
_cell_measurement_theta_min      3
_cell_volume                     970.32(9)
_computing_cell_refinement
;
CrysAlisPro, Agilent Technologies,
Version 1.171.36.24 (release 03-12-2012 CrysAlis171 .NET)
(compiled Dec  3 2012,18:21:49)
;
_computing_data_collection
;
CrysAlisPro, Agilent Technologies,
Version 1.171.36.24 (release 03-12-2012 CrysAlis171 .NET)
(compiled Dec  3 2012,18:21:49)
;
_computing_data_reduction
;
CrysAlisPro, Agilent Technologies,
Version 1.171.36.24 (release 03-12-2012 CrysAlis171 .NET)
(compiled Dec  3 2012,18:21:49)
;
_computing_molecular_graphics
;
 Diamond 4 - Crystal and Molecular Structure Visualization
  Crystal Impact - Dr. H. Putz & Dr. K. Brandenburg GbR, 
  Kreuzherrenstr. 102, 53227 Bonn, Germany
  http://www.crystalimpact.com/diamond
 Mercury CSD 2.0 - New Features for the Visualization 
 and Investigation of Crystal Structures
  C. F. Macrae, I. J. Bruno, J. A. Chisholm, P. R. Edgington, P. McCabe,
  E. Pidcock, 
  L. Rodriguez-Monge, R. Taylor, J. van de Streek and P. A. Wood, 
  J. Appl. Cryst., 41, 466-470, 2008
;
_computing_publication_material
'WinGX L. J. Farrugia, J. Appl. Crystallogr., 1999, 32, 837-838.'
_computing_structure_refinement  'SHELXL-2018/3 (Sheldrick, 2018)'
_computing_structure_solution
;
 shelXT  G. M. Sheldrick, Acta Crystallogr., Sect. A: Found. Crystallogr.,
 2008, 64, 112-122.
 shelXle C. B. Huebschle, G. M. Sheldrick and B. Dittrich J. Appl. Cryst.
  (2011). 44, 1281-1284
;
_diffrn_ambient_temperature      170(2)
_diffrn_detector_area_resol_mean 8.4171
_diffrn_measured_fraction_theta_full 0.998
_diffrn_measured_fraction_theta_max 0.998
_diffrn_measurement_device_type  'Xcalibur, Sapphire2, large Be window'
_diffrn_radiation_monochromator  graphite
_diffrn_radiation_source         'Enhance (Mo) X-ray Source'
_diffrn_radiation_type           'Mo K\a'
_diffrn_radiation_wavelength     0.7107
_diffrn_reflns_av_R_equivalents  0.0207
_diffrn_reflns_av_unetI/netI     0.0173
_diffrn_reflns_Laue_measured_fraction_full 0.998
_diffrn_reflns_Laue_measured_fraction_max 0.998
_diffrn_reflns_limit_h_max       9
_diffrn_reflns_limit_h_min       -9
_diffrn_reflns_limit_k_max       12
_diffrn_reflns_limit_k_min       -12
_diffrn_reflns_limit_l_max       14
_diffrn_reflns_limit_l_min       -14
_diffrn_reflns_number            12924
_diffrn_reflns_point_group_measured_fraction_full 0.998
_diffrn_reflns_point_group_measured_fraction_max 0.998
_diffrn_reflns_theta_full        24.985
_diffrn_reflns_theta_max         24.985
_diffrn_reflns_theta_min         3.007
_diffrn_source                   'fine-focus sealed X-ray tube'
_exptl_absorpt_correction_T_max  1.00000
_exptl_absorpt_correction_T_min  0.70681
_exptl_absorpt_correction_type   multi-scan
_exptl_absorpt_process_details
;
CrysAlisPro, Agilent Technologies,
Version 1.171.36.24 (release 03-12-2012 CrysAlis171 .NET)
(compiled Dec  3 2012,18:21:49)
Empirical absorption correction using spherical harmonics,
 implemented in SCALE3 ABSPACK scaling algorithm.
;
_exptl_crystal_colour            'translucent colorless'
_exptl_crystal_density_diffrn    2.389
_exptl_crystal_density_meas      ?
_exptl_crystal_description       prism
_exptl_crystal_F_000             644
_exptl_crystal_recrystallization_method
'Re-crystallisation from solvent: Pentane/DCM see SI'
_exptl_crystal_size_max          0.401
_exptl_crystal_size_mid          0.272
_exptl_crystal_size_min          0.174
_refine_diff_density_max         1.219
_refine_diff_density_min         -0.793
_refine_diff_density_rms         0.092
_refine_ls_extinction_method     none
_refine_ls_goodness_of_fit_ref   1.065
_refine_ls_hydrogen_treatment    undef
_refine_ls_matrix_type           full
_refine_ls_number_parameters     289
_refine_ls_number_reflns         3405
_refine_ls_number_restraints     0
_refine_ls_restrained_S_all      1.065
_refine_ls_R_factor_all          0.0396
_refine_ls_R_factor_gt           0.0338
_refine_ls_shift/su_max          0.001
_refine_ls_shift/su_mean         0.000
_refine_ls_structure_factor_coef Fsqd
_refine_ls_weighting_details
'w=1/[\s^2^(Fo^2^)+(0.0368P)^2^+1.5795P] where P=(Fo^2^+2Fc^2^)/3'
_refine_ls_weighting_scheme      calc
_refine_ls_wR_factor_gt          0.0803
_refine_ls_wR_factor_ref         0.0838
_reflns_Friedel_coverage         0.000
_reflns_number_gt                2955
_reflns_number_total             3405
_reflns_threshold_expression     'I > 2\s(I)'
_cod_data_source_file            d2ce00973k2.cif
_cod_data_source_block           syn-m-1
_cod_depositor_comments
;
The following automatic conversions were performed:

data item '_exptl_crystal_density_meas' value 'not measured' was
changed to '?' -- the value is perceived as not measured.

data item '_atom_sites_solution_secondary' value 'diffmap' was
changed to 'difmap'.

Automatic conversion script
Id: cif_fix_values 7556 2019-12-06 15:28:31Z antanas 
;
_cod_database_code               7245541
_shelx_shelxl_version_number     2018/3
_shelx_space_group_comment
;
The symmetry employed for this shelxl refinement is uniquely defined
by the following loop, which should always be used as a source of
symmetry information in preference to the above space-group names.
They are only intended as comments.
;
_shelx_res_file
;
TITL shelxt_a.res in P-1
    syn-m-1.res
    created by SHELXL-2018/3 at 10:22:23 on 15-Apr-2022
REM Old TITL shelxt_a.res in P-1
REM SHELXT solution in P-1
REM R1 0.171,  Rweak 0.009,  Alpha 0.058,  Orientation as input
REM Formula found by SHELXT:  C18 F12 I2
CELL  0.71073   8.2040  10.2959  12.6309   77.925   86.254   68.455
ZERR    2.000   0.0004   0.0005   0.0006    0.004    0.004    0.005
LATT  1
SFAC C F I
UNIT 36.00 24.00 4.00
TEMP -103
L.S. 10
BOND $H
LIST 4
acta
omit -4 50
FMAP 2
PLAN 20
WGHT    0.036800    1.579500
FVAR       4.63151
I1    3   -0.205369    0.825795    0.327625    11.00000    0.05651    0.08059 =
         0.10635   -0.02334   -0.01587   -0.01413
I2    3    0.224669    0.873675   -0.010239    11.00000    0.03789    0.06294 =
         0.07633   -0.00611   -0.00609   -0.00893
F1    2   -0.270463    0.935814    0.545552    11.00000    0.06925    0.07638 =
         0.11926   -0.03433    0.04414   -0.01550
F2    2   -0.057324    0.919429    0.703802    11.00000    0.15316    0.06653 =
         0.05714   -0.02723    0.04477   -0.02419
F3    2    0.293426    0.776336    0.694175    11.00000    0.14192    0.07457 =
         0.05790   -0.02494   -0.03149   -0.00972
F4    2    0.425566    0.651684    0.526707    11.00000    0.06453    0.08457 =
         0.07427   -0.03271   -0.02052   -0.00245
F5    2    0.105457    0.474172    0.413766    11.00000    0.08319    0.05717 =
         0.06292   -0.01231    0.03107   -0.03987
F6    2    0.263266    0.332480    0.257329    11.00000    0.09731    0.05408 =
         0.07089   -0.02368    0.02245   -0.04747
F7    2    0.475798    0.428722    0.117407    11.00000    0.08108    0.06117 =
         0.05285   -0.03026    0.02177   -0.03423
F8    2    0.371000    0.811815    0.290870    11.00000    0.06090    0.04880 =
         0.06589   -0.02677    0.02048   -0.02901
F9    2    0.794343    0.501635    0.226212    11.00000    0.05087    0.06454 =
         0.06855    0.01151   -0.01645   -0.01336
F10   2    1.018986    0.575810    0.086634    11.00000    0.03285    0.10087 =
         0.08684   -0.01562   -0.00138   -0.01674
F11   2    0.899557    0.782537   -0.091071    11.00000    0.05966    0.10521 =
         0.06455   -0.01535    0.01869   -0.04951
F12   2    0.553834    0.918695   -0.129062    11.00000    0.06762    0.06764 =
         0.05523    0.00980   -0.00224   -0.02816
C1    1   -0.032773    0.799835    0.450095    11.00000    0.05198    0.04177 =
         0.05047   -0.00555    0.01170   -0.01695
C2    1   -0.098495    0.862835    0.538344    11.00000    0.06549    0.04174 =
         0.06708   -0.00899    0.03218   -0.01599
C3    1    0.008922    0.855994    0.620482    11.00000    0.09802    0.04148 =
         0.04354   -0.00739    0.02369   -0.01591
C4    1    0.185101    0.784047    0.615940    11.00000    0.10485    0.04416 =
         0.03633   -0.00434   -0.00559   -0.01507
C5    1    0.254269    0.719390    0.529443    11.00000    0.07048    0.04112 =
         0.04401   -0.01109   -0.00072   -0.00661
C6    1    0.148147    0.724539    0.445483    11.00000    0.05175    0.03749 =
         0.04043   -0.00633    0.00706   -0.01549
C7    1    0.231172    0.649459    0.355663    11.00000    0.04534    0.04099 =
         0.03310   -0.00880    0.00526   -0.01342
C8    1    0.208505    0.525245    0.344415    11.00000    0.04580    0.04794 =
         0.04247   -0.00793    0.00346   -0.01677
C9    1    0.289822    0.451613    0.265516    11.00000    0.05391    0.04167 =
         0.04560   -0.00917    0.00307   -0.02401
C10   1    0.398364    0.500540    0.195168    11.00000    0.05060    0.04438 =
         0.03363   -0.01384    0.00505   -0.01697
C11   1    0.428223    0.622856    0.201179    11.00000    0.03934    0.03780 =
         0.03735   -0.00873    0.00534   -0.01441
C12   1    0.344018    0.693366    0.282488    11.00000    0.04243    0.03735 =
         0.04698   -0.01048    0.00087   -0.01630
C13   1    0.549070    0.672220    0.123501    11.00000    0.03923    0.04085 =
         0.04071   -0.01538    0.00608   -0.01637
C14   1    0.728760    0.606312    0.140624    11.00000    0.04432    0.05263 =
         0.04640   -0.00922    0.00122   -0.01900
C15   1    0.845784    0.643797    0.069119    11.00000    0.03398    0.06744 =
         0.05615   -0.01960   -0.00148   -0.01667
C16   1    0.785139    0.748462   -0.021077    11.00000    0.04474    0.06248 =
         0.04977   -0.01759    0.01005   -0.03092
C17   1    0.607543    0.816810   -0.039637    11.00000    0.05161    0.04651 =
         0.03971   -0.01073    0.00121   -0.02088
C18   1    0.489272    0.779153    0.031298    11.00000    0.03486    0.04168 =
         0.04460   -0.01394    0.00353   -0.01391
HKLF 4




REM  shelxt_a.res in P-1
REM wR2 = 0.0838, GooF = S = 1.065, Restrained GooF = 1.065 for all data
REM R1 = 0.0338 for 2955 Fo > 4sig(Fo) and 0.0396 for all 3405 data
REM 289 parameters refined using 0 restraints

END

WGHT      0.0367      1.5787

REM Highest difference peak  1.219,  deepest hole -0.793,  1-sigma level  0.092
Q1    1   0.2031  0.8838  0.0617  11.00000  0.05    1.22
Q2    1  -0.1379  0.8598  0.2826  11.00000  0.05    0.94
Q3    1  -0.1809  0.8032  0.3916  11.00000  0.05    0.79
Q4    1   0.2165  0.8049 -0.0217  11.00000  0.05    0.58
Q5    1   0.8364  0.5006  0.1592  11.00000  0.05    0.57
Q6    1   0.3181  0.8829 -0.0209  11.00000  0.05    0.52
Q7    1  -0.1791  0.7572  0.3005  11.00000  0.05    0.51
Q8    1   0.3691  0.7259  0.5468  11.00000  0.05    0.43
Q9    1   0.2440  0.5663  0.3730  11.00000  0.05    0.40
Q10   1  -0.3361  0.9310  0.6399  11.00000  0.05    0.39
Q11   1   0.8290  0.4672  0.2465  11.00000  0.05    0.37
Q12   1   0.2167  0.7429  0.4843  11.00000  0.05    0.35
Q13   1   0.7355  0.4764  0.2187  11.00000  0.05    0.34
Q14   1   0.3761  0.6162  0.5530  11.00000  0.05    0.32
Q15   1   0.7714  0.5576  0.2389  11.00000  0.05    0.32
Q16   1   0.1806  0.9185 -0.0366  11.00000  0.05    0.32
Q17   1   0.7938  0.6986  0.0191  11.00000  0.05    0.30
Q18   1   0.2327  0.7756  0.5444  11.00000  0.05    0.29
Q19   1   0.3139  0.6518  0.3308  11.00000  0.05    0.29
Q20   1   0.2586  0.9760  0.0203  11.00000  0.05    0.28
;
_shelx_res_checksum              16795
_shelx_hkl_file
;
   0   0  -2 55848.9 618.058   9
   0   0   2 57468.6 479.042   1
   0   0  -2 34708.9 443.702   5
   0   0   2 54070.5 559.273   5
   0   0  -3 575932. 7852.94   5
   0   0   3 578408. 7933.18   9
   0   0   3 554594. 7750.97   1
   0   0   3 567109. 7853.71   5
   0   0  -3 595805. 7932.37   9
   0   0   3 580026. 7922.37   2
   0   0  -4 60160.7 1212.41   9
   0   0   4 61642.6 1315.01   6
   0   0   4 60359.1 1080.18   3
   0   0   4 62766.5 1048.58   1
   0   0  -4 61858.7 1145.32   5
   0   0  -4 59769.5 1108.30   3
   0   0  -4 62943.0 1132.84   3
   0   0   5 17115.6 666.638   6
   0   0  -5 17560.6 546.599   5
   0   0   5 18274.8 470.509   1
   0   0   6 113322. 2139.04   2
   0   0  -6 114013. 1630.19   7
   0   0   6 117531. 1867.57   1
   0   0   6 116206. 2299.63   6
   0   0  -6 116410. 2040.45   5
   0   0  -6 114599. 1976.52   3
   0   0  -7 53758.1 1176.44   3
   0   0  -7 52425.9 1227.24   5
   0   0  -7 52329.5 814.690   7
   0   0   7 53516.8 1455.26   6
   0   0   7 51994.7 1352.03   2
   0   0   8 3495.91 232.392   1
   0   0   8 3428.39 347.243   2
   0   0  -8 3369.39 288.413   5
   0   0  -8 2969.54 260.419   3
   0   0   8 3533.27 378.992   6
   0   0   9 59888.1 1729.51   6
   0   0  -9 57228.4 1406.45   5
   0   0   9 57777.1 1195.59   1
   0   0 -10 8545.37 510.001   5
   0   0 -10 7621.35 444.385   3
   0   0  10 7953.46 626.599   6
   0   0  10 7688.72 379.493   1
   0   0 -11 1971.27 242.359   3
   0   0 -11 2299.94 304.639   5
   0   0  11 2243.63 373.924   6
   0   0 -12 188.140 138.171   5
   0   0  12 83.8346 203.932   6
   0   0 -13 440.802 176.624   5
   0   0  13 487.306 266.337   6
   0   0 -14-86.7541 153.185   5
   0   0  14-67.5967 199.662   6
   0   0  15 897.673 347.682   6
   0   0 -15 953.386 242.717   5
   0  -1  15-80.9383 243.454   6
   0   1 -15 157.646 156.853   5
   0   1 -14 610.160 217.664   5
   0  -1  14 761.468 292.846   6
   0  -1  13 8791.04 797.640   6
   0   1 -13 9253.84 626.680   5
   0   1 -12 1107.49 234.407   5
   0  -1  12 458.922 246.694   6
   0   1 -11 15696.3 751.689   5
   0  -1  11 15870.5 838.612   2
   0  -1  11 14426.6 922.557   6
   0   1 -10 1028.68 154.185   3
   0  -1  10 740.524 222.183   2
   0   1 -10 799.404 185.405   5
   0  -1  10 726.150 240.875   6
   0  -1   9 35421.5 776.918   1
   0  -1   9 37025.9 1202.11   2
   0   1  -9 36345.9 1101.49   5
   0   1  -8 21381.2 832.860   9
   0  -1   8 20388.7 521.284   1
   0   1  -8 21038.0 558.673   1
   0  -1   8 20711.9 851.695   2
   0   1  -8 21650.2 774.363   5
   0  -1   8 22322.8 979.454   6
   0  -1   7 11131.4 337.663   1
   0   1  -7 10671.2 498.026   5
   0  -1   7 11853.3 659.173   6
   0  -1   7 10398.8 547.514   2
   0   1  -7 10644.1 546.175   9
   0  -1   6 156171. 2809.17   2
   0   1  -6 159511. 2445.38   3
   0  -1   6 164721. 2354.20   1
   0   1  -6 161194. 2693.74   5
   0   1  -6 161467. 2811.66   9
   0  -1   6 165818. 3058.63   6
   0   1  -5 108057. 1956.22   5
   0  -1   5 114133. 2252.85   6
   0   1  -5 108718. 2036.22   9
   0  -1   5 111851. 2047.51   2
   0  -1   4 307.907 43.3714   1
   0  -1   4 302.040 114.437   6
   0   1  -4 109.966 44.7612   1
   0  -1   4 330.292 107.319   2
   0   1  -4 350.931 110.587   9
   0   1  -4 365.743 63.2488   3
   0   1  -4 156.374 55.0359   3
   0   1  -4 397.783 66.9814   7
   0   1  -4 289.961 84.8701   5
   0   1  -3 520363. 7133.31   5
   0   1  -3 537032. 7200.17   9
   0  -1   3 523139. 7158.85   2
   0  -1   2 397353. 5426.72   2
   0  -1   2 386497. 5307.15   7
   0   1  -2 397261. 5421.88   5
   0   1   2 7514.21 220.177  10
   0  -1  -2 6747.53 262.314   3
   0   1   2 6990.38 262.747   3
   0   1   2 7102.01 261.482   1
   0  -1  -2 6991.10 234.380   7
   0   1   2 5875.62 211.195   7
   0  -1  -3 178807. 2545.24   7
   0   1   3 176417. 2660.20   1
   0   1   3 183917. 2536.97   7
   0  -1  -3 179154. 2580.66  10
   0   1   3 174830. 2611.58   5
   0  -1  -4 192000. 2698.26   7
   0  -1  -4 188284. 2827.81   5
   0   1   4 184891. 2862.17   1
   0   1   4 191504. 2664.89   7
   0  -1  -5 78108.0 1246.47   7
   0  -1  -5 75844.6 1479.52   3
   0   1   5 74528.5 1418.07   1
   0  -1  -5 76529.8 1420.73   5
   0   1   5 75072.8 1535.05   6
   0  -1  -6 89880.5 1669.87   5
   0   1   6 85958.9 1365.45   7
   0   1   6 90980.7 1645.69   1
   0  -1  -6 89436.2 1422.33   7
   0   1   6 92566.6 1852.66   6
   0  -1  -6 89672.0 1734.84   3
   0   1   7 104470. 1588.54   7
   0   1   7 103737. 2182.05   6
   0  -1  -7 109498. 1982.72   5
   0  -1  -7 105480. 2028.43   3
   0   1   7 108305. 1925.95   1
   0   1   8 13141.8 679.491   6
   0  -1  -8 13171.8 574.576   5
   0   1   8 13346.0 532.928   1
   0  -1  -8 14441.8 613.698   3
   0  -1  -9 2374.11 257.586   5
   0  -1  -9 2016.08 249.413   3
   0   1   9 1804.33 207.620   1
   0   1   9 1735.32 280.856   6
   0   1  10 9781.32 656.191   6
   0   1  10 8799.30 459.999   1
   0  -1 -10 9957.22 543.257   5
   0  -1 -10 8611.42 519.112   3
   0  -1 -11 9900.61 568.826   5
   0   1  11 9224.83 474.733   1
   0  -1 -11 9983.53 565.790   3
   0   1  11 9631.05 690.994   6
   0  -1 -12 28.6527 126.720   5
   0   1  12 4.90442 160.111   6
   0  -1 -12-109.559 153.056   3
   0  -1 -13 47.4443 128.979  10
   0   1  13 144.880 182.119   6
   0  -1 -14 1555.88 251.400  10
   0   1  14 1820.70 369.099   6
   0   1  15 368.166 272.667   6
   0  -2  14 3172.23 545.371   6
   0   2 -14 2495.57 355.324   5
   0   2 -13 1683.61 303.680   5
   0  -2  13 607.119 244.836   2
   0  -2  13 1437.36 391.358   6
   0   2 -12 4709.48 442.825   5
   0  -2  12 4013.13 453.744   2
   0  -2  12 3432.34 509.586   6
   0   2 -11 6104.24 490.433   5
   0   2 -11 5170.78 499.061   9
   0  -2  11 5512.11 622.996   6
   0  -2  11 5323.14 499.536   2
   0  -2  10 244.731 170.528   2
   0   2 -10 695.367 197.456   5
   0   2 -10 323.558 151.217   9
   0  -2  10 669.467 257.975   6
   0   2  -9 5183.53 401.443   5
   0  -2   9 5373.79 552.812   6
   0  -2   9 4608.76 417.376   2
   0   2  -9 4500.81 426.481   9
   0  -2   8 29379.4 1024.19   2
   0  -2   8 31663.4 1240.77   6
   0   2  -8 28658.4 936.809   5
   0   2  -8 29885.9 1034.64   9
   0   2  -7 1454.93 113.410   3
   0   2  -7 1282.52 226.227   9
   0  -2   7 1091.97 215.937   2
   0   2  -7 1534.37 213.496   5
   0  -2   7 1601.47 293.292   6
   0   2  -7 1054.83 80.3898   1
   0   2  -7 1425.64 127.475   7
   0   2  -7 1035.34 90.1578   3
   0   2  -6 110.438 116.053   9
   0  -2   6 83.8066 127.983   6
   0   2  -6 82.5998 61.8807   7
   0   2  -6 50.9202 34.7080   3
   0  -2   6 155.447 115.744   2
   0   2  -6 70.7791 25.8008   1
   0   2  -6 170.345 45.2861   3
   0   2  -6 101.711 105.553   5
   0  -2   5 76762.6 1567.71   2
   0   2  -5 75918.1 1604.07   9
   0   2  -5 76214.9 1536.62   5
   0  -2   5 76974.3 1803.54   6
   0  -2   4 14590.9 639.669   6
   0  -2   4 13108.0 497.948   2
   0   2  -4 13489.6 497.470   5
   0   2  -4 13437.1 420.117   7
   0  -2   3 4983.18 271.288   2
   0  -2   3 4957.70 336.775   6
   0   2  -3 5188.37 251.739   7
   0   2  -2 94872.9 1369.52   1
   0  -2   2 94163.3 1580.18   2
   0   2  -1 9561.29 349.313   7
   0   2  -1 8521.74 237.830   3
   0  -2   1 9191.58 311.001   2
   0  -2   1 9686.79 234.311   3
   0   2  -1 8801.56 257.556   1
   0  -2   0 154131. 2271.99   3
   0   2   0 155644. 2424.75   7
   0   2   0 151346. 2294.93   1
   0  -2   0 158309. 2419.43   7
   0  -2   0 161285. 2318.84   2
   0  -2  -1 31817.8 661.477   2
   0  -2  -1 30446.9 670.309   3
   0  -2  -1 30901.2 726.149   7
   0   2   1 29958.4 673.762   1
   0   2   1 31266.7 726.742   7
   0  -2  -2 239166. 3487.26   3
   0  -2  -2 231212. 3474.63   7
   0   2   2 237496. 3482.58   7
   0   2   2 233260. 3474.81   1
   0   2   3 570683. 7716.59   7
   0  -2  -3 557395. 7797.33   3
   0   2   3 549840. 7777.75   1
   0   2   4 235.755 88.6893   7
   0   2   4 19.3131 106.279   1
   0  -2  -5 4294.98 320.588   3
   0   2   5 4466.42 247.342   7
   0   2   5 4235.53 300.116   1
   0   2   5 4568.08 276.055   6
   0   2   6 119935. 2194.62   6
   0   2   6 117733. 2193.57   1
   0   2   7 245.903 83.3630   7
   0  -2  -7 113.919 88.1402  10
   0  -2  -7 247.732 145.861   3
   0   2   7 207.921 105.522   1
   0   2   7 453.380 139.054   6
   0   2   8 3772.57 212.924   7
   0   2   8 3708.36 340.677   6
   0  -2  -8 3985.14 362.148   3
   0   2   8 3675.28 305.258   1
   0  -2  -8 3555.68 275.717  10
   0  -2  -9 7743.93 426.961  10
   0   2   9 7658.56 453.309   1
   0   2   9 8754.08 545.422   6
   0  -2  -9 8271.26 517.989   3
   0   2   9 7827.04 302.522   7
   0   2  10 304.264 142.028   1
   0  -2 -10 325.679 145.532  10
   0   2  10-3.58120 129.914   6
   0  -2 -10-185.339 169.572   3
   0   2  11 11073.1 701.444   6
   0  -2 -11 11515.7 654.063   3
   0   2  11 10133.3 560.882   1
   0  -2 -11 9850.01 533.170  10
   0   2  12 1408.94 290.923   6
   0   2  12 1435.39 235.572   1
   0  -2 -12 1739.20 251.157  10
   0  -2 -12 2106.73 321.563   3
   0  -2 -13-9.06926 121.903  10
   0   2  13-94.4942 146.952   6
   0  -2 -13-152.171 194.578   3
   0   2  14 511.233 252.201   6
   0  -3  14 199.965 172.055   2
   0  -3  14 755.988 384.261   6
   0   3 -14 604.364 226.347   5
   0  -3  13 232.183 227.318   2
   0  -3  13-2.42744 238.871   6
   0   3 -13-38.1742 158.725   5
   0   3 -12-156.410 162.016   5
   0  -3  12-211.243 244.640   6
   0  -3  12-1.59802 196.473   2
   0  -3  11 1676.33 313.104   2
   0   3 -11 1263.51 276.767   9
   0  -3  11 1735.24 399.811   6
   0   3 -11 1497.93 270.280   5
   0   3 -10 2.68312 147.652   9
   0   3 -10 15.5859 139.997   5
   0  -3  10 6.58056 147.368   2
   0  -3  10 114.999 209.179   6
   0  -3   9 3792.96 393.051   2
   0  -3   9 3760.28 491.990   6
   0   3  -9 3316.31 349.814   5
   0   3  -9 3513.85 373.397   9
   0  -3   8 8079.33 644.185   6
   0  -3   8 7497.34 528.813   2
   0   3  -8 8313.32 552.525   9
   0   3  -8 7659.16 487.502   5
   0   3  -7 392.333 152.417   9
   0   3  -7 211.570 97.7064   7
   0   3  -7 320.707 153.107   5
   0  -3   7 196.778 157.941   2
   0  -3   7 458.118 197.006   6
   0   3  -6 111427. 2186.40   5
   0  -3   6 113540. 2210.85   2
   0  -3   6 113049. 2521.19   6
   0   3  -6 110058. 2271.33   9
   0   3  -5 2318.24 239.323   5
   0  -3   5 2267.43 307.191   6
   0   3  -5 2015.64 189.872   7
   0  -3   5 2360.98 242.950   2
   0   3  -4 9964.74 454.431   5
   0  -3   4 9523.20 446.701   2
   0  -3   4 9694.18 549.839   6
   0   3  -4 9143.55 226.169   1
   0   3  -4 9518.06 420.129   7
   0  -3   3 301079. 4556.09   2
   0  -3   3 309589. 4819.43   6
   0   3  -3 310649. 4210.26   1
   0   3  -3 303187. 4579.14   7
   0  -3   2 15591.1 581.877   6
   0  -3   2 15238.9 508.412   2
   0  -3   2 15150.4 327.671   3
   0   3  -2 14837.3 396.393   1
   0   3  -2 14993.1 558.190   7
   0   3  -2 15329.6 346.703   3
   0  -3   1 809.222 127.766   2
   0   3  -1 755.854 107.944   1
   0   3  -1 886.618 166.195   7
   0  -3   1 672.435 87.7860   3
   0   3  -1 836.910 104.339   3
   0   3   0 602967. 8504.41   1
   0   3   0 594988. 8694.76   7
   0   3   1 50186.7 1168.96   7
   0  -3  -1 52462.7 1063.11   2
   0   3   1 52025.8 1082.14   1
   0   3   1 53845.6 989.075   4
   0  -3  -1 52423.0 1068.23   3
   0   3   2 10459.4 437.392   1
   0  -3  -2 10076.9 402.989   2
   0  -3  -2 10065.3 429.025   3
   0   3   2 9669.83 457.570   7
   0   3   3 557419. 7810.92   1
   0  -3  -3 557332. 7739.98   2
   0   3   3 536533. 7778.57   7
   0  -3  -3 552286. 7809.15   3
   0  -3  -4 526.290 172.767   3
   0   3   4 869.721 156.269   7
   0   3   4 818.711 170.012   1
   0   3   5 50366.6 1247.18   1
   0  -3  -5 50864.6 1266.73   3
   0   3   5 51353.9 1176.13   7
   0  -3  -6 27131.4 911.837   3
   0   3   6 26891.1 882.513   1
   0   3   6 27133.7 772.759   7
   0   3   7 22841.1 754.153   6
   0   3   7 26194.5 883.251   1
   0  -3  -7 23929.5 888.907   3
   0   3   7 25184.3 730.326   7
   0   3   8 1874.40 191.648   7
   0   3   8 1951.67 234.098   6
   0  -3  -8 2214.55 295.578   3
   0   3   8 1921.36 262.401   1
   0   3   9 66009.1 1613.25   6
   0   3   9 64231.0 1320.17   7
   0  -3  -9 66100.5 1721.26   3
   0   3   9 66085.2 1631.54   1
   0   3  10 32989.8 1120.04   6
   0  -3 -10 34662.0 1202.73   3
   0   3  10 32587.8 1099.93   1
   0  -3 -11 1071.83 253.512   3
   0   3  11 776.082 216.300   6
   0   3  11 919.866 223.300   1
   0   3  12 11748.2 653.881   1
   0  -3 -12 12580.3 755.358   3
   0  -3 -13 723.514 228.336   3
   0   3  13 859.132 225.653   1
   0  -3 -14-151.900 236.594   3
   0  -4  13 270.625 190.720   2
   0  -4  13 343.833 321.857   6
   0   4 -13 61.3175 159.032   5
   0  -4  12 1695.97 332.947   2
   0   4 -12 1209.84 289.303   9
   0   4 -12 1697.63 309.480   5
   0  -4  12 1927.78 434.839   6
   0  -4  11 2793.34 414.609   2
   0  -4  11 2550.65 466.137   6
   0   4 -11 2730.98 359.965   5
   0   4 -11 3498.47 429.624   9
   0  -4  10 86.9759 153.897   2
   0   4 -10 98.0469 162.949   9
   0  -4  10 146.115 279.144   6
   0   4 -10-18.4901 136.297   5
   0  -4   9 5136.06 576.064   6
   0  -4   9 5273.75 477.435   2
   0   4  -9 5925.34 509.219   9
   0   4  -9 5633.43 457.785   5
   0  -4   8 30996.4 1345.11   6
   0  -4   8 31662.0 1137.96   2
   0   4  -8 32567.5 1111.55   5
   0   4  -8 32528.6 1174.45   9
   0   4  -7 279.739 157.199   5
   0   4  -7 489.023 162.945   9
   0   4  -7 372.788 119.227   7
   0  -4   7 571.821 177.766   2
   0  -4   7 156.831 155.491   6
   0   4  -6 89999.8 1841.46   7
   0   4  -6 93465.2 2070.20   9
   0  -4   6 94395.6 2011.18   2
   0   4  -6 93712.7 1992.29   5
   0  -4   6 91556.5 2285.32   6
   0   4  -5 21725.2 796.444   5
   0   4  -5 21678.0 751.358   7
   0  -4   5 22638.1 960.064   6
   0  -4   5 22655.6 804.678   2
   0   4  -4 58.2777 109.487   7
   0  -4   4 10.7816 96.6422   2
   0   4  -4 22.0235 39.5797   1
   0  -4   4 100.046 127.050   6
   0  -4   3 108726. 2216.41   6
   0  -4   3 105151. 1545.59   3
   0  -4   3 110781. 2031.56   2
   0   4  -3 109197. 2100.95   7
   0   4  -3 109342. 1718.80   1
   0  -4   2 193774. 2833.49   3
   0   4  -2 198958. 2961.94   1
   0  -4   2 196813. 3307.12   6
   0  -4   2 198921. 3172.88   2
   0   4  -2 199135. 3313.32   7
   0   4  -1 985.103 133.765   1
   0  -4   1 622.361 123.704   2
   0  -4   1 872.481 139.589   6
   0   4  -1 704.454 166.065   7
   0  -4   1 650.479 104.842   3
   0   4   0 125462. 2351.88   7
   0  -4   0 129290. 2106.83   3
   0   4   0 121925. 2138.06   1
   0  -4   0 126962. 2181.11   2
   0  -4  -1 310834. 4616.70   3
   0  -4  -1 313007. 4624.39   2
   0   4   1 305751. 4491.07   4
   0   4   1 312196. 4844.55   7
   0   4   1 313958. 4659.70   1
   0   4   2 193.436 77.4265   4
   0   4   2 214.029 145.273   1
   0  -4  -2 138.813 90.0628   2
   0   4   2 202.898 145.174   7
   0  -4  -2 361.336 140.547   3
   0   4   3 24822.4 844.448   7
   0  -4  -3 26846.4 793.642   2
   0  -4  -3 25553.8 821.251   3
   0   4   3 25587.5 817.414   1
   0  -4  -4 113627. 2193.90   3
   0   4   4 110712. 2184.61   1
   0   4   4 111851. 2181.53   7
   0  -4  -4 109054. 2105.47   2
   0  -4  -5 139.611 133.827   2
   0   4   5 103.371 134.338   7
   0  -4  -5 257.381 152.611   3
   0   4   5-48.4830 133.864   1
   0   4   6 15546.3 663.719   7
   0   4   6 17339.1 745.895   1
   0  -4  -6 15855.7 728.015   3
   0   4   7 132877. 2479.37   7
   0  -4  -7 134814. 2711.40   3
   0   4   7 138519. 2696.46   1
   0   4   8 1764.82 221.028   7
   0  -4  -8 1642.00 281.011   3
   0   4   8 1853.88 258.749   1
   0  -4  -9 8133.81 586.330   3
   0   4   9 7703.74 430.458   7
   0   4   9 8442.80 570.871   1
   0   4  10 5701.17 470.302   1
   0  -4 -10 6134.88 522.532   3
   0   4  10 5759.12 364.650   7
   0  -4 -11 81.0351 192.734   3
   0   4  11-2.41901 157.735   1
   0  -4 -12-179.425 223.638   3
   0   4  12 49.4269 150.217   1
   0   4  13 2767.14 367.147   1
   0  -4 -13 3372.74 439.158   3
   0   4  14 882.658 240.241   1
   0  -4 -14 953.292 311.897   3
   0  -4 -15 949.424 241.746   3
   0  -5  12 1504.92 400.341   6
   0  -5  12 1612.39 370.999   2
   0   5 -12 1265.48 294.692   5
   0  -5  11 1576.00 313.500   2
   0  -5  11 2319.28 451.535   6
   0   5 -11 1832.71 338.914   9
   0   5 -11 2007.62 315.323   5
   0  -5  10 544.419 207.869   2
   0   5 -10 605.379 206.378   5
   0   5 -10 844.275 274.786   9
   0  -5  10 591.258 318.267   6
   0  -5   9 7784.46 602.329   2
   0   5  -9 9494.78 672.494   9
   0  -5   9 8688.84 750.850   6
   0   5  -9 9289.24 628.129   5
   0   5  -8 18306.4 908.355   9
   0   5  -8 19418.8 887.099   5
   0  -5   8 18124.0 1045.29   6
   0  -5   8 19136.7 895.502   2
   0  -5   7 10399.1 746.222   6
   0   5  -7 9971.96 530.162   7
   0  -5   7 9393.96 599.531   2
   0   5  -7 10107.9 618.974   5
   0   5  -7 9679.12 627.580   9
   0   5  -6 11802.5 606.711   7
   0   5  -6 12904.6 666.272   5
   0  -5   6 11417.8 636.200   2
   0  -5   6 11888.3 759.489   6
   0   5  -5 91821.4 2017.17   7
   0  -5   5 96699.2 2322.46   6
   0  -5   5 95298.1 2065.58   2
   0   5  -4 11339.7 590.381   7
   0  -5   4 10662.4 633.798   6
   0   5  -4 10993.7 367.264   1
   0  -5   4 11252.0 570.060   2
   0  -5   3 443.442 66.1846   3
   0   5  -3 288.973 63.2322   3
   0   5  -3 137.519 113.839   7
   0   5  -3 518.664 95.8535   1
   0  -5   3 327.508 71.4443   3
   0  -5   3 385.543 134.082   2
   0  -5   2 68601.5 1591.10   6
   0  -5   2 67355.1 1500.04   2
   0   5  -2 66810.5 1332.45   1
   0  -5   2 66014.1 1209.61   3
   0   5  -2 68610.1 1643.95   7
   0  -5   1 11890.5 535.111   2
   0   5  -1 12729.9 631.301   7
   0   5  -1 12936.4 504.211   1
   0  -5   1 13555.4 564.594   6
   0  -5   1 12686.4 454.214   3
   0   5   0 2281.89 305.659   7
   0  -5   0 2339.93 231.090   3
   0   5   0 2198.50 230.627   1
   0  -5   0 2708.31 261.064   2
   0  -5   0 2489.36 212.149   6
   0  -5  -1 145418. 2582.56   2
   0   5   1 147616. 2598.95   1
   0   5   1 151725. 2440.30   4
   0   5   1 141710. 2776.46   7
   0  -5  -1 143391. 2543.50   3
   0   5   2 3507.87 311.266   1
   0  -5  -2 3421.99 282.282   2
   0   5   2 3871.96 359.473   7
   0   5   2 3310.80 252.410   4
   0  -5  -2 3365.10 293.128   3
   0  -5  -3 7029.45 446.815   3
   0   5   3 7329.70 490.644   7
   0  -5  -3 6659.76 421.040   2
   0   5   3 7119.21 446.320   1
   0  -5  -4 173327. 3135.12   3
   0   5   4 176436. 3167.79   1
   0  -5  -4 171622. 3047.78   2
   0   5   4 174060. 3185.81   7
   0   5   5 3220.35 341.999   7
   0   5   5 2872.59 312.748   1
   0  -5  -5 3004.23 325.564   3
   0  -5  -5 2732.86 295.900   2
   0  -5  -6 22947.3 938.257   3
   0   5   6 22306.8 883.036   7
   0   5   6 25061.8 956.587   1
   0   5   7 22469.0 864.698   7
   0   5   7 22212.4 936.103   1
   0  -5  -7 21513.8 884.325   2
   0  -5  -7 22084.8 945.926   3
   0   5   8 5637.75 420.249   7
   0  -5  -8 5071.29 472.909   3
   0   5   8 5177.55 475.283   1
   0  -5  -9 8950.36 635.275   3
   0   5   9 8660.88 600.587   1
   0   5   9 8379.08 523.073   7
   0  -5 -10 4842.26 480.837   3
   0   5  10 3866.88 353.540   7
   0   5  10 4749.76 457.966   1
   0   5  11 2295.51 339.574   1
   0  -5 -11 2033.46 363.791   3
   0  -5 -12 749.265 293.857   3
   0   5  12 315.295 189.710   1
   0   5  13 382.539 205.827   1
   0  -5 -13 399.626 206.730   3
   0  -5 -14 194.138 214.648   3
   0   5  14 1.54204 188.110   1
   0   5  15 372.076 220.448   1
   0  -5 -15 269.885 221.205   3
   0  -6  11 1333.45 403.892   6
   0   6 -11 1488.00 316.453   5
   0  -6  11 1316.40 308.661   2
   0   6 -10 1737.50 306.872   5
   0   6 -10 1419.01 314.145   9
   0  -6  10 1875.92 342.039   2
   0  -6  10 2046.64 432.469   6
   0   6  -9 862.136 249.972   9
   0   6  -9 491.018 196.568   5
   0  -6   9 840.864 248.377   2
   0  -6   9 609.509 301.786   6
   0  -6   8 3260.87 392.545   2
   0   6  -8 3736.06 444.369   9
   0  -6   8 3426.62 492.071   6
   0   6  -8 3511.92 408.384   5
   0  -6   7 11845.9 840.784   6
   0   6  -7 10829.2 628.075   7
   0   6  -7 11671.6 698.316   5
   0  -6   7 11081.9 685.313   2
   0   6  -6 293.964 155.800   7
   0  -6   6 114.714 156.259   2
   0  -6   6 673.157 246.374   6
   0   6  -6 358.489 177.628   5
   0   6  -5 1232.81 234.416   7
   0  -6   5 1357.98 238.271   2
   0  -6   5 889.081 224.454   6
   0  -6   4-12.5903 142.398   6
   0   6  -4-0.44238 62.6050   1
   0  -6   4 25.6128 131.967   2
   0  -6   3 11871.0 652.548   6
   0  -6   3 10419.3 346.651   3
   0   6  -3 11291.0 458.258   1
   0   6  -3 11514.4 650.922   7
   0  -6   3 10560.8 572.888   2
   0  -6   2 14900.3 686.019   6
   0   6  -2 14828.9 566.408   1
   0  -6   2 14214.4 474.549   3
   0   6  -2 14077.3 729.865   7
   0  -6   2 14506.5 664.937   2
   0  -6   1 38977.1 1138.24   2
   0  -6   1 40589.0 982.283   3
   0   6  -1 41795.6 1317.61   7
   0  -6   1 42587.1 1143.38   6
   0   6  -1 43474.7 1098.14   1
   0   6   0 40163.8 1106.35   1
   0  -6   0 40021.0 1027.63   3
   0  -6   0 40982.8 1031.44   6
   0  -6   0 40687.7 1146.77   2
   0   6   0 40733.5 1299.52   7
   0   6   0 38940.1 973.279   4
   0   6   1 3048.60 254.085   4
   0   6   1 2794.65 296.654   1
   0  -6  -1 2429.93 259.356   3
   0  -6  -1 2886.49 285.282   2
   0   6   1 2697.33 337.409   7
   0   6   2 26996.0 836.861   4
   0  -6  -2 29145.8 947.065   2
   0  -6  -2 27394.3 921.552   3
   0   6   2 28782.0 968.982   1
   0   6   2 27728.9 1049.71   7
   0  -6  -3 49120.7 1349.73   3
   0   6   3 49974.7 1394.92   1
   0  -6  -3 47684.9 1309.56   2
   0   6   4 2688.86 355.808   7
   0   6   4 2722.45 313.396   1
   0  -6  -4 2973.88 332.875   3
   0  -6  -4 2638.76 296.623   2
   0   6   5 781.921 204.983   1
   0  -6  -5 543.703 192.646   2
   0  -6  -5 691.818 197.520   3
   0   6   5 478.703 174.214   7
   0  -6  -6 28419.4 1087.84   3
   0   6   6 27814.5 1079.62   1
   0  -6  -6 26780.3 1007.87   2
   0   6   6 27650.9 1068.28   7
   0   6   7 281.109 187.095   7
   0  -6  -7-62.1026 144.431   2
   0   6   7 335.579 198.250   1
   0  -6  -7 214.988 174.007   3
   0   6   8 62.1057 179.591   1
   0  -6  -8 129.707 182.354   3
   0  -6  -8 261.820 183.315   2
   0   6   8-154.401 202.819   7
   0  -6  -9 9335.53 657.646   2
   0   6   9 10755.3 721.495   1
   0   6   9 10199.7 615.020   7
   0  -6  -9 10910.3 726.696   3
   0   6  10 749.790 202.761   7
   0   6  10 1095.20 282.061   1
   0  -6 -10 1592.58 349.523   3
   0  -6 -10 770.970 265.863   2
   0   6  11 174.351 171.497   1
   0  -6 -11 383.966 226.651   3
   0  -6 -12 5032.58 558.319   3
   0   6  12 6021.89 571.671   1
   0   6  13 109.418 173.466   1
   0  -6 -13 492.102 238.772   3
   0   6  14-3.40151 183.317   1
   0  -6 -14-35.9167 228.370   3
   0  -7  10 173.553 204.279   2
   0  -7  10 482.133 279.644   6
   0   7 -10 404.536 186.993   5
   0  -7   9 289.560 171.543   2
   0  -7   9 157.989 193.658   6
   0   7  -9 175.047 185.395   5
   0   7  -9 202.044 171.950   9
   0   7  -8 2270.67 358.152   9
   0   7  -8 2400.18 368.722   5
   0  -7   8 2044.20 339.377   2
   0  -7   8 2812.13 465.013   6
   0  -7   7-105.427 187.563   6
   0  -7   7-277.573 216.844   2
   0   7  -7 244.923 187.282   5
   0   7  -6 5794.89 497.948   7
   0   7  -6 4642.70 463.947   5
   0  -7   6 6072.74 584.566   6
   0  -7   6 5562.89 483.801   2
   0  -7   5 11114.5 665.956   2
   0  -7   5 11003.9 740.052   6
   0   7  -5 10396.7 675.988   7
   0  -7   4 2669.41 365.082   6
   0  -7   4 2596.89 334.784   2
   0   7  -4 2297.93 315.056   7
   0   7  -3 8466.90 601.823   7
   0  -7   3 7794.12 536.994   2
   0   7  -3 8848.48 437.226   1
   0  -7   3 8121.48 561.900   6
   0   7  -2 46457.9 1493.45   7
   0  -7   2 43995.4 1030.22   3
   0   7  -2 46505.2 1190.67   1
   0  -7   2 46611.2 1347.43   2
   0  -7   2 46898.7 1347.45   6
   0  -7   1 242.710 114.142   6
   0   7  -1 263.288 114.779   1
   0   7  -1 413.009 163.843   7
   0  -7   1 264.768 140.414   2
   0  -7   1 177.390 121.124   3
   0   7   0 140.208 189.387   7
   0  -7   0 47.2177 97.4332   3
   0  -7   0 94.2947 82.2545   6
   0  -7   0-0.97025 120.602   2
   0   7   0 151.153 99.2839   4
   0   7   0 309.935 170.567   1
   0  -7  -1 55933.8 1203.42   6
   0   7   1 59325.2 1510.17   1
   0   7   1 58173.8 1696.24   7
   0   7   1 53805.5 1319.92   4
   0  -7  -1 54665.7 1468.10   2
   0  -7  -1 55905.4 1423.48   3
   0  -7  -2 574.293 175.745   2
   0   7   2 968.774 235.854   7
   0   7   2 775.131 177.164   4
   0  -7  -2 1084.05 223.028   3
   0   7   2 947.262 215.290   1
   0   7   3 8873.58 575.176   1
   0  -7  -3 9607.09 582.273   3
   0  -7  -3 8670.58 550.435   2
   0   7   3 8289.03 613.023   7
   0  -7  -4 69505.0 1770.45   3
   0   7   4 68229.3 1890.30   7
   0   7   4 68743.3 1815.38   1
   0  -7  -4 65234.0 1711.38   2
   0  -7  -5 2068.61 320.670   2
   0   7   5 1705.44 308.502   7
   0  -7  -5 2005.96 325.377   3
   0   7   5 1972.64 318.156   1
   0  -7  -6 1644.54 302.646   2
   0  -7  -6 1558.28 305.759   3
   0   7   6 2267.74 355.778   1
   0   7   6 1665.11 327.504   7
   0  -7  -7 42568.2 1461.01   3
   0  -7  -7 42358.6 1406.64   2
   0   7   7 42606.6 1450.54   7
   0   7   7 45770.7 1518.71   1
   0   7   8 3565.70 447.332   1
   0  -7  -8 3553.05 423.686   2
   0   7   8 3243.85 386.619   7
   0  -7  -8 3571.05 451.680   3
   0  -7  -9 3482.36 451.377   3
   0  -7  -9 3923.16 458.512   2
   0   7   9 3089.36 428.592   1
   0   7   9 2699.00 351.220   7
   0  -7 -10 7768.81 636.847   2
   0  -7 -10 7642.47 655.628   3
   0   7  10 7864.65 585.028   7
   0   7  10 6883.18 621.394   1
   0   7  11 4415.23 509.811   1
   0  -7 -11 3796.15 456.165   2
   0   7  11 3054.40 387.462   7
   0  -7 -11 3473.03 477.744   3
   0   7  12 1647.55 351.762   1
   0  -7 -12 2514.63 456.570   3
   0  -7 -12 1604.72 356.600   2
   0   7  13 957.457 297.803   1
   0  -7 -13 1263.36 353.801   2
   0  -7 -13 981.947 312.941   3
   0  -7 -14-154.067 258.277   2
   0   7  14 205.763 193.465   1
   0  -7 -14-128.782 289.861   3
   0   8  -9 2415.13 406.164   5
   0  -8   9 3172.17 536.874   6
   0  -8   9 2239.48 387.600   2
   0  -8   8 1126.77 305.632   2
   0   8  -8 839.793 253.536   9
   0   8  -8 1409.92 325.030   5
   0  -8   8 1225.01 337.592   6
   0  -8   7 555.722 242.780   6
   0  -8   7 467.839 189.834   2
   0   8  -7 260.364 191.118   5
   0   8  -6 6800.62 576.904   7
   0   8  -6 7796.28 627.681   5
   0  -8   6 6857.87 589.499   2
   0  -8   6 7150.74 657.825   6
   0  -8   5 24063.7 1141.96   6
   0  -8   5 23915.5 1051.92   2
   0   8  -5 23311.9 1092.15   7
   0  -8   4 5576.00 518.879   6
   0  -8   4 5884.25 505.777   2
   0   8  -4 6001.44 572.256   7
   0   8  -3 2013.45 355.290   7
   0  -8   3 1895.06 294.757   2
   0   8  -2 31968.7 1009.30   1
   0  -8   2 32119.4 1163.11   2
   0   8  -2 33058.7 1330.08   7
   0  -8   2 33900.7 1154.84   6
   0  -8   1 2225.36 246.465   3
   0   8  -1 2498.18 401.463   7
   0   8  -1 2769.30 313.720   1
   0  -8   1 2532.18 334.895   2
   0   8  -1 2859.46 267.090   4
   0  -8   1 2973.04 303.666   6
   0   8   0 298.532 126.976   4
   0  -8   0 400.464 151.507   3
   0  -8   0 142.604 156.469   2
   0   8   0 340.355 213.157   7
   0   8   0 291.798 149.977   1
   0  -8  -1 54350.6 1562.02   2
   0   8   1 56946.8 1416.63   4
   0  -8  -1 54791.0 1447.22   3
   0   8   1 54798.5 1768.24   7
   0   8   1 59175.8 1586.86   1
   0   8   2 11326.4 583.330   4
   0   8   2 12501.4 697.226   1
   0  -8  -2 9817.26 613.467   2
   0  -8  -2 12288.6 650.156   3
   0   8   2 11464.6 776.807   7
   0  -8  -3 586.913 240.472   3
   0   8   3 550.248 283.204   7
   0  -8  -3 291.078 155.336   2
   0   8   3 433.362 190.708   1
   0  -8  -4 31310.9 1163.75   3
   0   8   4 32169.3 1221.41   1
   0   8   4 31074.5 1289.89   7
   0  -8  -4 30414.0 1128.06   2
   0   8   5 45153.9 1585.31   7
   0  -8  -5 44905.4 1438.93   2
   0   8   5 47954.0 1552.19   1
   0  -8  -5 44506.0 1471.03   3
   0   8   6-134.480 208.689   1
   0  -8  -6-5.56429 189.587   3
   0  -8  -6 86.1534 176.839   2
   0   8   6 24.4725 187.345   7
   0   8   7 1133.65 256.330   1
   0  -8  -7 1127.68 267.063   2
   0   8   7 1190.34 306.263   7
   0  -8  -7 733.089 243.498   3
   0  -8  -8 6194.48 555.719   2
   0   8   8 5889.60 556.530   7
   0  -8  -8 5664.36 715.288   3
   0   8   8 6217.98 590.684   1
   0   8   9 373.733 182.391   7
   0   8   9 338.564 246.581   1
   0  -8  -9 1001.67 299.401   3
   0  -8  -9 1028.13 302.752   2
   0  -8 -10 2700.76 408.721   2
   0   8  10 2515.23 375.378   7
   0   8  10 2256.61 393.213   1
   0  -8 -10 3110.72 464.428   3
   0  -8 -11 799.789 312.903   3
   0   8  11 1312.43 367.328   1
   0  -8 -11 692.121 283.865   2
   0   8  11 420.405 238.632   7
   0   8  12-141.222 249.011   1
   0  -8 -12 421.613 256.656   2
   0  -8 -12 259.981 220.827   3
   0  -8 -13 780.549 248.177   2
   0   8  13 1295.41 364.104   1
   0  -8 -13 799.976 280.369   3
   0   9  -7 3166.69 452.630   5
   0  -9   7 3271.36 490.224   6
   0  -9   7 2989.93 435.554   2
   0   9  -6 77.1295 183.483   5
   0  -9   6 33.8837 167.887   2
   0  -9   6 189.489 227.306   6
   0  -9   5 4474.34 506.499   6
   0  -9   5 3845.97 457.032   2
   0   9  -5 2730.70 453.904   7
   0  -9   4 2646.27 378.779   6
   0   9  -4 2728.53 416.452   7
   0  -9   4 3097.38 412.102   2
   0   9  -3 1952.13 395.146   7
   0  -9   3 1888.59 315.703   2
   0  -9   3 1752.80 281.076   6
   0  -9   2 1622.04 288.430   2
   0   9  -2 2001.11 374.887   7
   0   9  -2 1678.66 226.713   4
   0   9  -1 14998.5 910.461   7
   0   9  -1 14137.1 700.248   1
   0   9  -1 12918.7 610.814   4
   0  -9   1 13708.0 778.268   2
   0   9   0 55.3479 204.041   7
   0  -9   0-44.6010 179.760   2
   0   9   0 262.247 152.281   4
   0   9   0-63.7620 137.058   1
   0  -9  -1 5908.66 509.124   2
   0  -9  -1 5453.60 441.053   3
   0   9   1 6374.97 499.002   1
   0   9   1 5521.23 571.053   7
   0   9   1 5755.45 438.194   4
   0   9   2 17046.5 777.298   4
   0   9   2 17948.4 1030.72   7
   0  -9  -2 17183.2 814.365   3
   0   9   2 19021.4 908.403   1
   0  -9  -2 17410.6 867.947   2
   0  -9  -3 727.443 203.268   2
   0   9   3 661.309 273.491   7
   0  -9  -3 271.909 156.329   3
   0   9   3 501.121 231.345   1
   0  -9  -4 1415.20 257.749   3
   0   9   4 1718.71 320.826   1
   0   9   4 1625.94 338.395   7
   0  -9  -4 1363.96 278.219   2
   0  -9  -5 482.000 215.742   2
   0   9   5 403.746 207.855   7
   0  -9  -5 102.100 178.361   3
   0   9   5 43.6557 193.237   1
   0  -9  -6 182.447 160.702   3
   0  -9  -6 554.843 224.929   2
   0   9   6 189.491 182.703   1
   0   9   7 500.060 236.291   1
   0  -9  -7 291.911 186.730   2
   0   9   7 228.236 211.043   7
   0  -9  -7-274.646 261.674   3
   0   9   8 5547.36 588.139   7
   0   9   8 4271.35 505.902   1
   0  -9  -8 4941.10 538.428   3
   0  -9  -8 4152.08 487.368   2
   0   9   9 942.206 310.799   1
   0   9   9 884.224 290.268   7
   0  -9  -9 437.056 210.344   3
   0  -9  -9 953.301 290.876   2
   0  -9 -10 403.763 269.893   2
   0   9  10 246.370 231.999   7
   0   9  10 83.5205 218.096   1
   0  -9 -10 211.162 252.269   3
   0  -9 -11 300.156 299.738   3
   0   9  11 99.9934 232.924   1
   0   9  11-23.4711 194.187   7
   0  -9 -11 77.4159 219.578   2
   0  -9 -12-248.743 337.498   3
   0  -9 -12 237.232 269.942   2
   0   9  12 129.759 207.747   1
   0  10  -5 250.145 214.943   7
   0 -10   5-245.702 215.730   2
   0 -10   4 1279.69 315.973   2
   0  10  -4 879.970 315.677   7
   0 -10   3 489.395 233.139   2
   0  10  -3 577.983 266.458   7
   0  10  -3 412.934 138.545   4
   0 -10   2 1828.03 345.177   2
   0  10  -2 2264.21 272.579   4
   0  10  -2 2292.72 400.750   7
   0  10  -1 3818.82 524.948   7
   0 -10   1 3134.90 411.065   2
   0  10  -1 3950.59 361.383   4
   0  10   0 242.790 170.907   1
   0  10   0-64.9619 126.958   4
   0 -10   0-75.3626 159.609   2
   0  10   0 139.528 258.183   7
   0  10   1 2894.05 455.335   7
   0  10   1 2279.45 299.264   4
   0  10   1 2785.95 376.412   1
   0 -10  -1 2470.84 373.232   2
   0  10   2 326.339 179.342   1
   0 -10  -2 544.241 222.973   2
   0 -10  -2 678.627 210.319   3
   0  10   2 449.999 267.909   7
   0  10   3 288.605 193.653   1
   0 -10  -3 27.8429 194.999   3
   0 -10  -3-45.2683 183.117   2
   0  10   3-200.758 236.207   7
   0 -10  -4 2030.41 348.204   3
   0 -10  -4 2876.89 387.580   2
   0  10   4 2918.06 413.926   1
   0  10   4 2212.26 402.829   7
   0  10   5 591.684 280.226   7
   0 -10  -5 748.615 239.756   2
   0  10   5 849.773 291.046   1
   0 -10  -5 1280.05 309.211   3
   0  10   6 616.817 262.497   7
   0 -10  -6-37.1627 169.313   3
   0  10   6 321.077 210.833   1
   0 -10  -6-54.5520 201.137   2
   0 -10  -7 454.430 280.125   3
   0 -10  -7 773.043 245.294   2
   0  10   7 886.389 308.731   7
   0  10   7 455.655 205.729   1
   0  10   8-128.268 220.260   7
   0  10   8-124.132 211.405   1
   0 -10  -8-133.163 245.316   3
   0 -10  -8 16.8695 211.191   2
   0 -10  -9 333.492 241.189   2
   0 -10  -9-1.89111 197.148   3
   0  10   9 53.6068 229.623   1
   0  10   9 250.986 241.164   7
   0  10  10 512.392 257.344   1
   0 -10 -10-77.3635 273.024   3
   0 -10 -10 259.906 223.040   2
   0  10  10-3.78127 262.981   7
   0  10  11-5.64030 216.957   7
   0 -10 -11 107.694 231.706   2
   0  10  11 113.367 244.627   1
   0  11  -3 198.727 251.954   7
   0  11  -3-112.150 138.777   4
   0 -11   3-66.6241 191.058   2
   0 -11   2 1302.76 301.604   2
   0  11  -2 1510.53 259.851   4
   0  11  -2 1398.95 377.968   7
   0  11  -1 3116.27 505.764   7
   0 -11   1 2613.83 399.371   2
   0  11  -1 3063.53 367.991   4
   0  11   0 96.3865 270.392   7
   0 -11   0 16.2829 155.893   2
   0  11   0 117.276 130.610   4
   0  11   1 1855.82 431.274   7
   0 -11  -1 1992.90 345.368   2
   0  11   1 2389.06 335.454   4
   0  11   1 1878.12 333.717   1
   0  11   2 1082.27 332.368   7
   0  11   2 1002.84 239.622   1
   0 -11  -2 296.558 173.775   2
   0  11   3 517.026 312.795   7
   0 -11  -3 99.5614 213.268   2
   0  11   3 393.251 244.366   1
   0 -11  -4 1864.30 322.058   3
   0 -11  -4 2225.43 402.188   2
   0  11   4 2476.77 409.726   1
   0  11   4 1904.78 417.687   7
   0 -11  -5 1401.57 306.606   3
   0 -11  -5 1276.86 314.238   2
   0  11   5 1105.00 292.785   1
   0  11   5 1004.59 297.834   7
   0  11   6 436.005 235.664   1
   0 -11  -6 500.531 230.983   2
   0  11   6 609.045 310.096   7
   0 -11  -6 699.570 245.357   3
   0 -11  -7 1569.42 366.808   3
   0  11   7 1481.07 384.731   7
   0 -11  -7 1526.03 358.887   2
   0  11   7 1847.39 388.845   1
   0 -11  -8 1751.49 373.547   2
   0 -11  -8 1873.35 396.412   3
   0  11   8 2819.97 469.620   1
   0  11   8 1614.26 368.244   7
   1 -11  -7 916.293 317.267   3
  -1  11   7 890.693 323.450   1
   1 -11  -7 1142.30 340.343   2
  -1  11   6 21.2039 251.725   1
   1 -11  -6 94.1815 218.900   3
   1 -11  -6 156.695 182.088   2
  -1  11   6 395.087 282.887   7
   1 -11  -5-177.635 251.241   2
  -1  11   5-96.3800 198.879   1
   1 -11  -5-218.772 225.257   3
  -1  11   5-280.562 271.407   7
  -1  11   4 2550.54 426.388   1
   1 -11  -4 2097.76 346.424   3
  -1  11   4 2238.39 487.739   7
   1 -11  -4 2374.40 413.232   2
  -1  11   3 1987.37 376.599   1
  -1  11   3 2207.14 432.147   7
   1 -11  -3 2087.96 394.643   2
  -1  11   2 29.4377 200.197   1
  -1  11   2-517.789 288.007   7
   1 -11  -2 40.8696 170.216   2
   1 -11  -1 791.507 277.180   2
  -1  11   1 1353.44 294.004   1
  -1  11   1 1482.32 404.734   7
   1 -11   0 2707.26 412.080   2
  -1  11   0 3243.68 494.993   7
  -1  11  -1-82.4042 126.048   4
   1 -11   1-92.6543 224.929   2
  -1  11  -1-43.7185 235.346   7
   1 -10  -9 5162.21 585.557   2
  -1  10   9 5527.97 613.952   7
   1 -10  -9 4750.16 594.589   3
  -1  10   9 5380.19 642.513   1
  -1  10   8-137.923 228.917   1
  -1  10   8 124.793 283.299   7
   1 -10  -8 202.248 189.839   2
   1 -10  -7 1852.22 341.552   2
   1 -10  -7 1945.47 360.610   3
  -1  10   7 1526.10 341.747   1
  -1  10   7 1482.57 377.082   7
  -1  10   6 8115.96 697.829   1
   1 -10  -6 6725.29 617.956   3
  -1  10   6 7144.54 690.281   7
   1 -10  -6 7240.08 640.663   2
  -1  10   5 1409.56 337.308   1
  -1  10   5 2103.92 441.090   7
   1 -10  -5 1410.37 340.175   3
   1 -10  -5 1445.13 304.907   2
  -1  10   4 673.669 258.803   1
   1 -10  -4 253.031 176.816   2
   1 -10  -4 335.955 214.794   3
  -1  10   4-166.425 237.798   7
   1 -10  -3 22581.0 1109.10   2
  -1  10   3 22574.7 1086.39   1
  -1  10   3 22349.9 1223.26   7
   1 -10  -3 21057.7 996.082   3
  -1  10   2 644.258 237.502   1
   1 -10  -2 568.906 250.874   2
  -1  10   2 514.876 248.080   7
  -1  10   1 4790.41 589.291   7
   1 -10  -1 3927.92 465.803   2
  -1  10   1 4529.04 485.929   1
  -1  10   0 9043.84 608.943   4
  -1  10   0 10181.2 677.040   1
   1 -10   0 9171.44 708.679   2
  -1  10   0 10483.9 850.405   7
   1 -10   1 1584.72 328.712   2
  -1  10  -1 1774.09 276.559   4
  -1  10  -1 1365.08 361.390   7
  -1  10  -2 1629.20 255.842   4
   1 -10   2 1156.89 292.641   2
  -1  10  -2 1530.27 360.618   7
   1 -10   3 4464.60 510.068   2
  -1  10  -3 4742.95 584.802   7
  -1  10  -3 3694.92 360.329   4
  -1  10  -4 370.886 191.211   7
   1 -10   4 754.236 286.075   2
  -1   9  11 886.988 287.512   1
   1  -9 -11 734.205 321.486   2
  -1   9  11 929.324 305.616   7
   1  -9 -11 369.899 270.402   3
  -1   9  10 440.516 241.674   1
  -1   9  10 470.997 277.524   7
   1  -9 -10-65.7796 228.411   2
   1  -9 -10 490.638 233.670   3
   1  -9  -9 5147.30 563.084   3
  -1   9   9 6167.12 630.959   1
   1  -9  -9 6197.65 616.650   2
  -1   9   9 5457.56 588.598   7
  -1   9   8 3944.56 518.564   1
   1  -9  -8 3755.55 500.262   3
  -1   9   8 4678.21 554.963   7
   1  -9  -8 3933.24 506.157   2
   1  -9  -7 238.301 219.181   3
   1  -9  -7 172.668 218.423   2
  -1   9   7 102.960 226.324   7
  -1   9   7 654.490 254.207   1
  -1   9   6 15886.7 980.145   7
   1  -9  -6 15056.4 911.851   3
   1  -9  -6 14890.5 891.214   2
  -1   9   6 18061.1 1004.32   1
  -1   9   5 2613.28 448.386   7
   1  -9  -5 2934.07 415.018   3
   1  -9  -5 2347.63 369.650   2
  -1   9   5 2795.74 427.840   1
   1  -9  -4 3084.28 400.333   3
  -1   9   4 3188.61 467.344   7
  -1   9   4 3849.39 466.073   1
   1  -9  -4 3787.70 447.624   2
   1  -9  -3 23068.2 1071.02   2
  -1   9   3 24680.5 1097.87   1
   1  -9  -3 23275.1 1027.89   3
  -1   9   3 26340.0 1269.98   7
  -1   9   2 6802.13 560.604   1
  -1   9   2 7205.27 664.188   7
   1  -9  -2 7041.70 585.298   2
   1  -9  -2 6889.37 525.373   3
  -1   9   1-11.9974 120.477   4
  -1   9   1 283.485 230.206   7
   1  -9  -1-196.081 177.307   2
  -1   9   1 212.301 161.674   1
   1  -9  -1-47.6638 145.015   3
  -1   9   0 6615.18 485.458   4
  -1   9   0 8496.10 594.268   1
   1  -9   0 6967.61 576.807   2
  -1   9   0 7945.27 693.205   7
   1  -9   1 3502.98 429.478   2
  -1   9  -1 4754.76 554.014   7
  -1   9  -1 3743.24 378.460   1
  -1   9  -1 3674.25 358.433   4
   1  -9   2 10.4188 171.797   2
  -1   9  -2 60.6669 161.659   7
  -1   9  -2-15.7022 96.0419   4
   1  -9   3 69.4660 174.221   2
  -1   9  -3 384.554 207.910   7
   1  -9   4 2188.53 360.970   2
  -1   9  -4 2096.94 353.294   7
  -1   9  -5-250.559 193.281   7
   1  -9   5 1.70504 138.686   6
   1  -9   6 790.663 272.738   2
  -1   9  -6 839.438 277.181   5
   1  -9   6 1369.81 334.387   6
   1  -8 -12 320.292 253.534   2
  -1   8  12 603.969 275.268   1
   1  -8 -12 664.040 341.306   3
   1  -8 -11 2616.94 435.122   3
  -1   8  11 3045.84 486.567   1
   1  -8 -11 2344.77 416.023   2
  -1   8  11 2468.51 388.114   7
  -1   8  10 888.519 284.576   7
  -1   8  10 911.502 290.734   1
   1  -8 -10 1171.55 338.675   3
   1  -8 -10 859.527 315.953   2
   1  -8  -9 1249.94 332.360   2
  -1   8   9 1638.45 331.102   7
   1  -8  -9 1653.34 375.014   3
  -1   8   9 1362.89 355.762   1
  -1   8   8 1212.69 330.805   1
   1  -8  -8 1029.17 333.228   3
   1  -8  -8 1111.22 275.643   2
  -1   8   8 640.819 270.683   7
   1  -8  -7 898.801 294.004   3
   1  -8  -7 612.063 233.426   2
  -1   8   7 585.350 237.759   7
  -1   8   7 429.910 251.807   1
   1  -8  -6 4126.10 467.812   3
   1  -8  -6 4335.23 466.563   2
  -1   8   6 4345.22 483.368   1
  -1   8   6 3771.93 466.213   7
  -1   8   5 20776.4 1006.29   1
  -1   8   5 18073.4 989.669   7
   1  -8  -5 16651.6 887.510   3
   1  -8  -5 19257.4 935.820   2
  -1   8   4 396.748 201.391   1
   1  -8  -4 151.901 162.918   2
   1  -8  -4 171.769 189.125   3
  -1   8   4 133.725 201.153   7
  -1   8   3 9688.69 736.403   7
  -1   8   3 9872.44 657.653   1
   1  -8  -3 8985.11 590.561   3
   1  -8  -3 8087.53 595.729   2
  -1   8   2 4268.34 376.162   4
  -1   8   2 4458.26 439.276   1
  -1   8   2 4681.52 530.078   7
   1  -8  -2 4187.97 441.182   2
   1  -8  -2 4347.47 420.811   3
   1  -8  -1 958.463 263.057   2
  -1   8   1 1248.00 287.780   7
   1  -8  -1 671.503 178.326   3
  -1   8   1 529.071 157.851   4
  -1   8   1 901.856 226.117   1
   1  -8   0 3952.78 428.852   2
  -1   8   0 4246.87 488.853   7
  -1   8   0 3890.62 383.712   1
   1  -8   0 3259.02 327.726   3
  -1   8   0 4071.82 356.114   4
  -1   8  -1 242.590 130.584   4
   1  -8   1 296.487 163.228   2
  -1   8  -1 346.091 206.296   7
  -1   8  -1 444.019 147.938   1
  -1   8  -2 2665.57 306.855   1
  -1   8  -2 2400.13 353.174   7
   1  -8   2 2459.25 301.590   6
   1  -8   2 2645.76 370.087   2
   1  -8   3 2560.65 355.530   2
   1  -8   3 3077.02 360.119   6
  -1   8  -3 2901.73 409.679   7
   1  -8   4 2289.45 369.740   2
   1  -8   4 2490.09 357.228   6
  -1   8  -4 2064.94 338.538   7
   1  -8   5 2534.88 382.886   2
  -1   8  -5 2258.34 359.247   7
   1  -8   5 2011.29 358.205   6
   1  -8   6 2081.27 356.363   6
   1  -8   6 2124.13 348.168   2
  -1   8  -6 1533.92 304.384   5
  -1   8  -6 2167.91 346.714   7
  -1   8  -7 124.616 181.491   5
   1  -8   7 421.930 254.220   2
   1  -8   7-28.0503 186.655   6
  -1   8  -8 3173.30 457.845   9
  -1   8  -8 2931.03 437.789   5
   1  -8   8 3004.19 482.084   6
   1  -8   8 3461.87 462.576   2
  -1   7  13-158.998 214.564   1
   1  -7 -13 137.415 215.980   2
   1  -7 -13 160.208 249.515   3
   1  -7 -12 111.229 219.065   3
   1  -7 -12 149.064 245.591   2
  -1   7  12-154.581 208.703   1
   1  -7 -11 156.098 241.719   3
  -1   7  11 438.746 235.031   1
   1  -7 -11-21.7094 207.759   2
  -1   7  11 246.466 164.080   7
  -1   7  10 253.304 176.620   7
  -1   7  10 318.349 224.283   1
   1  -7 -10 618.678 283.983   3
   1  -7 -10 107.201 176.343   2
   1  -7  -9 4067.16 469.875   2
   1  -7  -9 4413.52 516.535   3
  -1   7   9 4170.56 488.824   1
  -1   7   9 4324.98 472.474   7
   1  -7  -8 1244.21 328.854   3
   1  -7  -8 996.699 278.284   2
  -1   7   8 1604.91 336.230   7
  -1   7   8 1451.04 322.221   1
   1  -7  -7 195.978 184.370   2
  -1   7   7 32.1058 180.452   1
   1  -7  -7 209.898 227.999   3
  -1   7   7 194.645 207.942   7
  -1   7   6 22438.5 1024.36   1
  -1   7   6 19954.0 998.488   7
   1  -7  -6 22116.1 1014.02   3
   1  -7  -6 21382.2 971.676   2
  -1   7   5 5073.29 476.124   1
   1  -7  -5 4795.45 443.729   2
  -1   7   5 4968.65 494.892   7
   1  -7  -5 4069.79 433.127   3
   1  -7  -4 7605.40 561.134   3
  -1   7   4 8039.21 624.572   7
   1  -7  -4 8048.09 568.894   2
  -1   7   4 8450.76 598.407   1
   1  -7  -3 20184.8 877.260   3
  -1   7   3 19852.4 814.474   4
  -1   7   3 21703.4 927.622   1
  -1   7   3 19973.4 987.668   7
   1  -7  -3 21125.7 905.629   2
  -1   7   2 3677.42 339.826   4
  -1   7   2 3541.68 374.194   1
   1  -7  -2 3710.42 384.532   2
   1  -7  -2 3884.07 358.837   3
  -1   7   2 2921.00 373.166   7
   1  -7  -1 975.006 230.697   2
   1  -7  -1 909.964 211.527   3
  -1   7   1 999.760 212.361   1
  -1   7   1 965.529 260.750   7
  -1   7   1 1163.76 197.256   4
  -1   7   0 65437.7 1893.56   7
   1  -7   0 64445.9 1531.79   3
  -1   7   0 66460.7 1652.37   1
   1  -7   0 66061.0 1727.67   2
  -1   7   0 67013.9 1521.86   4
   1  -7   1 2309.85 257.941   6
   1  -7   1 2574.07 315.739   2
   1  -7   1 2078.90 238.185   3
  -1   7  -1 2053.00 348.425   7
  -1   7  -1 2204.62 265.173   1
  -1   7  -2 6796.95 446.289   1
  -1   7  -2 6593.08 576.554   7
   1  -7   2 6899.76 519.583   2
   1  -7   2 7740.53 505.147   6
   1  -7   3 28905.7 1100.43   6
   1  -7   3 29465.7 1115.96   2
  -1   7  -3 29720.3 1196.03   7
  -1   7  -3 29386.5 920.066   1
   1  -7   4 7506.13 566.301   2
   1  -7   4 7380.85 576.571   6
  -1   7  -4 8078.52 609.090   7
   1  -7   5 2050.30 337.537   2
   1  -7   5 1716.97 316.065   6
  -1   7  -5 1944.80 313.545   7
  -1   7  -6 8980.01 621.338   7
  -1   7  -6 9236.26 669.085   5
   1  -7   6 9859.20 688.552   2
   1  -7   6 9377.25 731.292   6
   1  -7   7 1526.02 355.450   6
   1  -7   7 1883.33 337.871   2
  -1   7  -7 1570.14 306.752   5
   1  -7   8 974.471 289.197   2
   1  -7   8 1790.10 384.952   6
  -1   7  -8 1136.55 294.016   9
  -1   7  -8 1008.50 252.184   5
   1  -7   9 4009.28 555.416   6
  -1   7  -9 5064.99 531.131   5
  -1   7  -9 5055.86 543.401   9
   1  -7   9 3931.41 473.837   2
   1  -7  10 876.977 337.308   6
   1  -7  10 660.033 236.474   2
   1  -6 -14-264.263 201.888   2
  -1   6  14-93.8804 247.096   1
   1  -6 -14-50.5129 255.645   3
   1  -6 -13 168.636 213.508   3
   1  -6 -13 132.971 180.275   2
  -1   6  13 274.917 207.190   1
   1  -6 -12 2353.83 397.008   2
   1  -6 -12 2511.51 432.441   3
  -1   6  12 2875.44 406.986   1
  -1   6  11 491.899 201.300   7
  -1   6  11 175.899 207.661   1
   1  -6 -11 619.549 290.864   3
   1  -6 -11 259.208 240.198   2
   1  -6 -10 5291.57 541.258   3
  -1   6  10 6301.78 568.082   1
  -1   6  10 4655.00 439.495   7
   1  -6 -10 5638.82 542.445   2
  -1   6   9 27991.6 1108.63   7
   1  -6  -9 30048.5 1256.09   3
  -1   6   9 32568.3 1287.86   1
   1  -6  -9 31057.4 1233.10   2
  -1   6   8 25587.6 1104.95   1
  -1   6   8 24149.1 1011.72   7
   1  -6  -8 25642.6 1076.63   2
   1  -6  -8 25125.8 1111.50   3
   1  -6  -7 268.611 211.645   2
   1  -6  -7 26.4646 181.919   3
  -1   6   7 75.9585 170.199   7
  -1   6   7 82.0393 183.425   1
   1  -6  -6 34131.8 1245.05   3
   1  -6  -6 34989.4 1226.04   2
  -1   6   6 35309.4 1262.87   7
  -1   6   6 37684.7 1300.06   1
  -1   6   5 41272.6 1336.98   1
  -1   6   5 40703.8 1366.56   7
   1  -6  -5 39542.7 1313.18   3
   1  -6  -5 40219.5 1280.18   2
   1  -6  -4 2817.29 334.018   2
  -1   6   4 3136.75 346.453   1
   1  -6  -4 2735.06 343.378   3
  -1   6   4 2735.62 374.696   7
   1  -6  -3 34321.4 1130.73   2
  -1   6   3 33290.7 1014.17   4
  -1   6   3 34179.0 1243.95   7
   1  -6  -3 34679.6 1122.89   3
  -1   6   3 35757.5 1159.19   1
   1  -6  -2 46716.8 1340.19   2
  -1   6   2 49305.8 1371.22   1
   1  -6  -2 48843.8 1311.05   3
  -1   6   2 47564.5 1487.44   7
  -1   6   2 47593.2 1234.28   4
  -1   6   1 3859.87 307.999   4
  -1   6   1 3588.41 395.681   7
  -1   6   1 3817.10 351.697   1
   1  -6  -1 3828.25 341.922   3
   1  -6  -1 3489.93 341.704   2
   1  -6   0 54414.1 1316.74   3
  -1   6   0 56709.3 1421.53   1
   1  -6   0 57694.5 1258.02   6
   1  -6   0 55411.5 1481.29   2
  -1   6   0 53974.6 1599.32   7
  -1   6  -1 62553.7 1482.60   1
   1  -6   1 62980.7 1463.07   6
   1  -6   1 62451.2 1588.49   2
   1  -6   1 61779.7 1346.97   3
  -1   6  -1 61707.7 1714.37   7
  -1   6  -2 30174.6 919.879   1
   1  -6   2 30000.7 793.386   3
   1  -6   2 28962.0 1035.82   2
  -1   6  -2 30887.1 1130.39   7
   1  -6   2 31851.8 1038.13   6
   1  -6   3 21831.1 910.245   6
   1  -6   3 21874.1 892.936   2
   1  -6   3 21044.5 595.839   3
  -1   6  -3 21989.5 737.184   1
  -1   6  -3 20798.5 919.725   7
   1  -6   4 22562.2 991.136   6
  -1   6  -4 23473.8 727.251   1
  -1   6  -4 22857.4 952.015   7
   1  -6   4 21542.8 917.547   2
   1  -6   5 2322.24 347.733   6
   1  -6   5 2243.95 313.183   2
  -1   6  -5 1861.02 295.636   7
   1  -6   6 16341.1 843.923   2
  -1   6  -6 15421.4 805.809   5
   1  -6   6 16095.8 922.431   6
  -1   6  -6 16364.6 770.288   7
   1  -6   7 9963.04 776.276   6
  -1   6  -7 10274.6 680.695   9
  -1   6  -7 10310.9 675.729   5
   1  -6   7 10991.2 710.415   2
  -1   6  -8 688.707 217.431   5
  -1   6  -8 578.327 184.148   9
   1  -6   8 222.889 163.750   2
   1  -6   8 482.246 259.289   6
  -1   6  -9 3486.30 432.978   9
   1  -6   9 4375.76 505.588   2
  -1   6  -9 4283.82 475.756   5
   1  -6   9 5210.98 613.686   6
   1  -6  10 2055.51 431.968   6
  -1   6 -10 1821.65 328.495   5
  -1   6 -10 1345.58 292.194   9
   1  -6  10 2224.83 384.413   2
   1  -6  11 20.4042 238.090   6
   1  -6  11 41.7569 196.169   2
  -1   6 -11-47.5379 183.419   5
   1  -5 -14 1343.36 353.602   3
  -1   5  14 2025.52 368.635   1
   1  -5 -13-137.972 216.416   3
  -1   5  13-139.109 193.106   1
   1  -5 -12 5483.99 558.773   3
  -1   5  12 6576.18 583.925   1
  -1   5  11 26107.5 1144.14   1
   1  -5 -11 27206.3 1206.09   3
  -1   5  11 23643.7 936.989   7
   1  -5 -10 1500.35 303.604   2
  -1   5  10 1625.12 239.822   7
   1  -5 -10 1345.35 315.924   3
  -1   5  10 2315.20 361.361   1
   1  -5  -9 12748.1 767.422   3
  -1   5   9 11339.8 632.913   7
  -1   5   9 12313.9 740.832   1
   1  -5  -9 11021.2 701.274   2
   1  -5  -8 28423.0 1106.66   2
  -1   5   8 28583.6 1023.72   7
   1  -5  -8 29822.3 1165.71   3
  -1   5   8 30312.9 1160.60   1
   1  -5  -7 1602.44 307.483   3
  -1   5   7 1310.91 257.607   7
  -1   5   7 1379.75 273.346   1
   1  -5  -7 1351.28 268.354   2
  -1   5   6 5602.61 477.590   1
   1  -5  -6 6448.36 514.535   3
   1  -5  -6 5438.84 448.511   2
  -1   5   6 5369.48 455.254   7
  -1   5   5 75456.3 1840.23   1
  -1   5   5 74380.8 1845.19   7
   1  -5  -5 77329.9 1856.80   3
   1  -5  -5 75608.0 1799.03   2
   1  -5  -4 57.4087 126.306   2
   1  -5  -4 48.5844 151.037   3
  -1   5   4-8.75463 147.762   1
  -1   5   4 42.1867 137.253   7
  -1   5   3 43.0950 164.333   7
   1  -5  -3-27.1299 124.047   2
  -1   5   3 83.0731 79.1991   4
  -1   5   3 251.813 151.232   1
   1  -5  -3 98.8662 150.932   3
  -1   5   2 285209. 4754.81   7
   1  -5  -2 277718. 4534.78   2
  -1   5   2 278992. 4370.20   4
  -1   5   2 288118. 4585.66   1
   1  -5  -2 284930. 4515.59   3
  -1   5   1 4077.02 328.751   1
  -1   5   1 3458.99 357.458   7
   1  -5  -1 3382.49 308.462   2
  -1   5   1 3405.12 265.232   4
   1  -5  -1 3184.70 285.445   3
   1  -5   0 642.536 141.645   2
  -1   5   0 1038.88 169.272   1
  -1   5   0 1019.62 226.664   7
   1  -5   0 981.185 171.414   3
   1  -5   0 997.178 142.407   6
  -1   5  -1 107867. 2031.45   1
   1  -5   1 109146. 2062.47   6
   1  -5   1 105719. 2152.56   2
  -1   5  -1 103227. 2280.55   7
   1  -5   1 108279. 1914.05   3
   1  -5   2 1035.32 194.734   6
  -1   5  -2 770.047 136.293   1
   1  -5   2 779.579 118.181   3
  -1   5  -2 647.074 198.632   7
   1  -5   2 679.747 181.584   2
   1  -5   3 1733.95 150.404   3
   1  -5   3 1431.30 237.056   2
  -1   5  -3 1746.02 183.637   1
   1  -5   3 1794.13 256.367   6
  -1   5  -3 1862.41 267.375   7
   1  -5   4 28999.3 1083.32   6
  -1   5  -4 27099.9 731.028   1
   1  -5   4 27426.3 972.017   2
  -1   5  -4 27928.6 968.565   7
   1  -5   5 478.627 203.380   6
   1  -5   5 9.42477 159.578   2
  -1   5  -5 194.520 144.914   5
  -1   5  -5 190.687 74.7475   1
  -1   5  -5 271.285 147.995   7
   1  -5   6 1084.94 228.349   2
   1  -5   6 1222.34 255.626   6
  -1   5  -6 1298.48 220.811   7
  -1   5  -6 1219.78 241.494   5
  -1   5  -7 13103.8 732.820   9
   1  -5   7 13316.7 860.190   6
   1  -5   7 11687.4 704.291   2
  -1   5  -7 12919.3 606.821   7
  -1   5  -7 14383.5 761.271   5
  -1   5  -8 5145.43 468.993   5
  -1   5  -8 5138.24 489.498   9
   1  -5   8 4094.64 444.872   2
   1  -5   8 4191.93 522.335   6
   1  -5   9 1039.02 328.042   6
  -1   5  -9 741.989 250.983   9
   1  -5   9 797.049 259.049   2
  -1   5  -9 820.374 254.989   5
  -1   5 -10 400.827 214.215   9
   1  -5  10 425.792 220.084   6
   1  -5  10 380.157 207.168   2
  -1   5 -10 439.055 189.117   5
   1  -5  11-130.568 208.767   6
   1  -5  11 84.6575 187.749   2
  -1   5 -11-90.0914 183.587   5
  -1   5 -11 50.6648 155.419   9
  -1   5 -12 89.7552 148.606   5
   1  -5  12 404.119 314.681   6
   1  -5  12 5.73276 200.266   2
   1  -4 -15 1187.17 337.778   3
  -1   4  14 1694.48 333.379   1
   1  -4 -14 2372.70 380.832   3
  -1   4  13 2810.20 372.606   1
   1  -4 -13 2614.29 378.454   3
   1  -4 -12 122.253 196.938   3
  -1   4  12 76.2716 155.628   1
  -1   4  11 1454.29 277.898   1
   1  -4 -11 1817.95 329.695   3
  -1   4  10 3792.54 401.830   1
  -1   4  10 3209.05 323.269   7
   1  -4 -10 4175.07 456.756   3
   1  -4  -9 21.3699 189.687   3
  -1   4   9-3.41208 130.205   7
  -1   4   9 32.4967 171.938   1
   1  -4  -8 29464.3 1110.68   3
  -1   4   8 29221.2 1084.01   1
  -1   4   8 27308.3 931.067   7
  -1   4   8 28287.9 793.632   6
   1  -4  -7 24367.1 942.290   2
  -1   4   7 23336.2 947.854   1
  -1   4   7 23434.2 853.662   7
   1  -4  -7 25128.3 981.316   3
  -1   4   7 23021.9 630.285   6
  -1   4   6 6493.26 459.599   1
  -1   4   6 6458.18 439.317   7
   1  -4  -6 6766.98 463.873   2
   1  -4  -6 6304.71 462.788   3
   1  -4  -5 19080.9 793.599   3
  -1   4   5 17869.2 752.124   7
  -1   4   5 20282.5 804.309   1
   1  -4  -5 20656.2 792.861   2
  -1   4   4 1444.72 234.169   1
  -1   4   4 855.818 198.391   7
   1  -4  -4 989.711 176.002   2
   1  -4  -4 1427.16 216.164   3
   1  -4  -3 20874.2 762.009   3
  -1   4   3 20223.3 665.117   4
   1  -4  -3 21016.5 746.515   2
  -1   4   3 21557.3 774.817   1
  -1   4   3 21328.2 805.635   7
   1  -4  -2 4658.32 334.649   2
  -1   4   2 5682.90 374.152   1
  -1   4   2 5692.46 321.833   4
   1  -4  -2 5028.66 347.247   3
  -1   4   2 5083.29 393.790   7
  -1   4   1 26.9079 151.610   7
  -1   4   1 179.856 83.4418   4
  -1   4   1 93.3082 96.6298   1
   1  -4  -1 103.367 94.8867   2
   1  -4  -1 182.749 88.7271   3
   1  -4   0 39953.0 941.629   3
  -1   4   0 39500.5 983.495   1
   1  -4   0 40242.1 1038.98   2
  -1   4   0 37552.5 1114.81   7
  -1   4  -1 8201.79 484.918   7
   1  -4   1 8186.34 348.393   3
   1  -4   1 8348.10 413.655   6
  -1   4  -1 7960.35 379.478   1
   1  -4   1 8259.58 441.269   2
   1  -4   2 1103.62 189.139   6
  -1   4  -2 1152.67 211.048   7
  -1   4  -2 1213.33 157.817   1
   1  -4   2 954.292 160.251   2
   1  -4   2 972.767 117.299   3
   1  -4   3 157195. 2387.94   3
   1  -4   3 158128. 2962.38   6
   1  -4   3 165233. 2865.26   2
  -1   4  -3 162931. 2538.32   1
   1  -4   4 51.7499 107.245   6
  -1   4  -4-49.3222 46.2795   3
  -1   4  -4 74.0519 141.605   7
   1  -4   4 83.5303 125.711   2
  -1   4  -4 62.0970 60.7662   1
   1  -4   4 89.5347 53.7644   3
  -1   4  -5 233.124 49.2593   3
  -1   4  -5 168.424 134.898   5
   1  -4   5 215.753 42.9698   3
   1  -4   5 292.725 126.886   2
   1  -4   5 221.730 165.466   6
  -1   4  -5 431.723 79.2232   1
  -1   4  -5 150.438 122.327   7
  -1   4  -6 40743.0 1238.77   9
  -1   4  -6 38888.2 793.728   1
  -1   4  -6 41818.3 1091.29   7
   1  -4   6 39907.4 1410.88   6
   1  -4   6 40093.8 1239.25   2
  -1   4  -6 40454.5 1221.49   5
  -1   4  -7 2589.63 319.586   5
   1  -4   7 2130.09 297.887   2
   1  -4   7 2077.99 347.549   6
  -1   4  -7 2475.36 239.215   7
  -1   4  -7 2039.59 295.828   9
  -1   4  -8 555.193 181.574   9
  -1   4  -8 1037.96 234.910   5
   1  -4   8 1253.04 318.442   6
   1  -4   8 955.173 243.266   2
  -1   4  -9 6774.03 549.521   9
   1  -4   9 6266.92 551.484   2
   1  -4   9 6563.07 647.695   6
  -1   4  -9 6598.82 525.929   5
   1  -4  10 985.418 314.617   6
  -1   4 -10 1327.55 266.699   5
  -1   4 -10 1929.52 332.868   9
   1  -4  10 1316.51 278.102   2
   1  -4  11 448.323 240.979   2
  -1   4 -11 788.603 224.400   5
  -1   4 -11 975.972 285.791   9
   1  -4  11 556.341 315.273   6
   1  -4  12 2866.61 541.875   6
  -1   4 -12 2916.86 402.228   5
   1  -4  12 3743.92 493.048   2
  -1   4 -12 2798.23 408.468   9
   1  -4  13 2215.17 489.623   6
   1  -4  13 1698.91 404.094   2
  -1   4 -13 1245.45 294.254   5
   1  -3 -14 103.292 153.186   3
  -1   3  13 1989.88 295.239   1
   1  -3 -13 1521.12 310.619   3
  -1   3  13 1751.04 313.591   6
  -1   3  12 1308.62 258.848   1
   1  -3 -12 1177.85 274.459   3
  -1   3  12 829.806 216.985   6
  -1   3  11 1199.36 245.013   1
   1  -3 -11 1186.23 273.639   3
  -1   3  11 977.557 206.932   6
  -1   3  10 4444.99 416.988   1
  -1   3  10 3185.92 333.186   6
   1  -3 -10 4286.78 427.516   3
  -1   3  10 3451.88 281.024   7
   1  -3  -9 6570.19 507.749   3
  -1   3   9 6633.77 432.792   6
  -1   3   9 6785.88 392.585   7
  -1   3   9 5778.60 456.696   1
  -1   3   8 37277.9 1026.88   6
  -1   3   8 38284.0 1022.86   7
  -1   3   8 37733.4 1202.75   1
   1  -3  -8 36990.7 1217.05   3
   1  -3  -7 2827.55 326.249   3
  -1   3   7 2223.21 238.465   7
  -1   3   7 2465.25 219.616   6
  -1   3   7 3107.60 319.272   1
   1  -3  -6 38320.2 1140.68   3
  -1   3   6 38874.2 1024.88   7
  -1   3   6 36764.0 861.580   6
  -1   3   6 38626.1 1124.02   1
   1  -3  -5 130207. 2452.75   3
  -1   3   5 127485. 2335.94   7
  -1   3   5 130373. 2435.32   1
   1  -3  -5 127347. 2400.10   2
   1  -3  -4 61620.6 1365.68   2
   1  -3  -4 56638.7 1369.00   3
  -1   3   4 58530.3 1355.65   7
  -1   3   4 59816.5 1388.18   1
  -1   3   3 82600.4 1695.74   7
   1  -3  -3 80754.5 1630.38   2
  -1   3   3 83465.0 1686.06   1
   1  -3  -3 83729.8 1680.76   3
   1  -3  -2 109525. 1980.73   3
  -1   3   2 111046. 2074.31   7
   1  -3  -2 107809. 1970.71   2
  -1   3   2 108389. 1982.78   1
  -1   3   1 26902.7 668.434   4
  -1   3   1 24846.6 718.532   1
  -1   3   1 25514.8 811.030   7
   1  -3  -1 27162.3 719.060   3
   1  -3  -1 25590.6 730.232   2
   1  -3   0 107414. 1814.42   3
  -1   3   0 107174. 1855.27   1
  -1   3   0 106349. 2031.68   7
   1  -3   0 109674. 1923.60   2
   1  -3   1 320746. 4504.38   3
  -1   3  -1 316237. 4816.37   7
  -1   3  -1 321497. 4582.07   1
   1  -3   1 315075. 4715.15   2
   1  -3   1 313805. 4686.45   6
  -1   3  -2 49162.3 1171.42   7
   1  -3   2 50130.3 918.176   3
   1  -3   2 49206.6 1194.62   6
  -1   3  -2 50310.4 988.642   1
   1  -3   2 49632.4 1143.80   2
  -1   3  -3 71198.1 1462.97   7
   1  -3   3 69662.1 1481.98   2
   1  -3   3 67231.5 1588.40   6
  -1   3  -3 71528.7 1238.43   1
  -1   3  -3 69335.9 1158.97   3
   1  -3   3 70005.5 1150.62   3
   1  -3   4 145222. 2149.56   3
   1  -3   4 150428. 2645.76   2
  -1   3  -4 149071. 2247.44   1
   1  -3   4 143059. 2830.09   6
  -1   3  -4 150281. 2623.92   5
  -1   3  -4 154817. 2533.95   7
   1  -3   5 7372.51 527.156   6
  -1   3  -5 7454.18 372.489   7
   1  -3   5 6920.74 431.161   2
   1  -3   5 6519.54 219.654   3
  -1   3  -5 7192.53 428.950   5
  -1   3  -5 6878.78 257.930   1
  -1   3  -6 41519.6 1166.35   9
  -1   3  -6 39354.1 744.119   1
   1  -3   6 40194.9 1165.94   2
   1  -3   6 39699.7 1350.06   6
  -1   3  -6 40341.4 1142.88   5
  -1   3  -6 41647.1 949.636   7
  -1   3  -7 4833.99 205.547   1
   1  -3   7 5641.51 524.753   6
   1  -3   7 4838.63 414.482   2
  -1   3  -7 5194.47 407.961   9
  -1   3  -7 5771.87 292.838   7
  -1   3  -7 5400.08 415.729   5
   1  -3   8 3288.01 426.957   6
  -1   3  -8 3567.21 373.476   9
  -1   3  -8 3746.07 362.628   5
   1  -3   8 3740.85 381.188   2
   1  -3   9 27066.2 1279.35   6
   1  -3   9 28372.8 1117.69   2
  -1   3  -9 28388.9 1094.17   9
  -1   3  -9 28514.8 1051.90   5
   1  -3  10 22464.4 1228.33   6
  -1   3 -10 22109.4 1005.31   9
  -1   3 -10 21364.6 939.168   5
   1  -3  10 22767.5 1037.59   2
  -1   3 -11 2801.65 378.401   9
   1  -3  11 2585.78 398.872   2
  -1   3 -11 2967.17 374.339   5
   1  -3  11 2793.95 469.180   6
  -1   3 -12 4066.27 469.142   9
  -1   3 -12 3479.00 407.411   5
   1  -3  12 3465.96 533.805   6
   1  -3  12 3272.61 444.118   2
   1  -3  13 2159.35 379.785   2
   1  -3  13 2421.21 498.131   6
  -1   3 -13 1898.11 330.340   5
  -1   2  15 1717.29 373.379   6
  -1   2  14 4232.02 498.522   6
  -1   2  13 443.332 215.912   6
   1  -2 -13 628.087 223.704   3
  -1   2  12 4617.30 404.660   1
  -1   2  12 3968.03 453.008   6
   1  -2 -12 4795.02 460.066   3
  -1   2  11 17563.4 869.403   6
   1  -2 -11 17261.7 824.910   3
  -1   2  11 17818.0 770.644   1
  -1   2  10-107.678 155.664   6
  -1   2  10-18.6759 71.7484   7
  -1   2  10 175.120 129.594   1
   1  -2  -9 10345.9 595.215   3
  -1   2   9 10116.7 560.464   1
  -1   2   9 9157.37 405.859   7
  -1   2   9 10053.7 568.773   6
   1  -2  -8 108715. 2222.97   3
  -1   2   8 101402. 1870.54   7
  -1   2   8 109575. 2183.64   1
  -1   2   8 106091. 2155.03   6
  -1   2   7 3239.90 242.343   7
   1  -2  -7 2983.86 299.938   3
  -1   2   7 2871.66 264.138   6
  -1   2   7 2548.20 273.339   1
  -1   2   6 2054.51 200.370   7
  -1   2   6 2076.73 202.739   6
  -1   2   6 2316.74 256.015   1
   1  -2  -6 2241.39 264.634   3
  -1   2   5 454951. 6368.31   7
  -1   2   5 442146. 6526.90   1
   1  -2  -5 440350. 6555.13   3
  -1   2   4 53920.6 1214.48   1
   1  -2  -4 51933.4 1207.28   3
  -1   2   4 52996.4 1126.72   7
   1  -2  -3 1372.15 188.468   3
   1  -2  -3 1221.46 160.683   2
  -1   2   3 1256.53 174.841   1
  -1   2   3 1315.59 164.043   7
  -1   2   2 506100. 7086.78   7
   1  -2  -2 505361. 7045.93   2
  -1   2   2 502741. 7058.94   1
   1  -2  -2 503670. 7061.51   3
  -1   2   1 212826. 3347.08   7
  -1   2   1 221267. 3265.31   1
   1  -2  -1 220041. 3276.08   2
   1  -2  -1 219614. 3251.87   3
  -1   2   0 3653.19 208.322   1
  -1   2   0 3410.07 243.908   7
   1  -2   0 4161.80 236.374   2
   1  -2   0 3626.72 196.191   3
   1  -2   1 707403. 9496.16   3
  -1   2  -1 724830. 9557.23   1
   1  -2   1 729164. 9684.92   2
   1  -2   2 4914.87 279.243   2
  -1   2  -2 4460.06 205.786   1
   1  -2   2 4828.09 303.230   6
  -1   2  -2 4750.75 191.800   3
   1  -2   2 5048.57 196.179   3
  -1   2  -2 4958.21 277.439   7
  -1   2  -3 2220.95 201.335   5
   1  -2   3 2298.65 249.133   6
  -1   2  -3 2339.97 139.883   1
  -1   2  -3 2345.73 124.582   3
   1  -2   3 2525.59 219.721   2
  -1   2  -3 2560.10 195.831   7
   1  -2   3 2200.16 127.761   3
  -1   2  -4 88777.7 1338.12   3
   1  -2   4 85110.2 1359.62   3
  -1   2  -4 93354.1 1550.49   7
   1  -2   4 85631.7 1702.34   2
  -1   2  -4 87593.3 1398.04   1
  -1   2  -4 92267.1 1702.37   9
   1  -2   4 86161.7 1898.62   6
  -1   2  -4 86441.9 1676.86   5
  -1   2  -5 4265.43 316.737   5
  -1   2  -5 4433.58 328.982   9
   1  -2   5 3679.34 371.811   6
  -1   2  -5 4464.38 231.469   7
  -1   2  -5 4156.49 195.636   1
   1  -2   5 4363.32 324.841   2
  -1   2  -6 543.844 79.6329   1
   1  -2   6 549.923 92.3846   3
  -1   2  -6 774.121 93.1835   7
  -1   2  -6 685.761 87.7777   3
  -1   2  -6 419.928 144.822   5
  -1   2  -6 583.456 71.0083   3
  -1   2  -6 661.584 155.752   9
   1  -2   6 633.156 196.919   6
   1  -2   6 633.572 88.7999   7
   1  -2   6 660.940 154.498   2
  -1   2  -7 99947.9 1589.81   3
  -1   2  -7 104926. 2107.71   5
  -1   2  -7 110336. 2173.82   9
   1  -2   7 96181.5 1633.52   8
   1  -2   7 109086. 2217.02   2
   1  -2   7 107680. 2492.54   6
  -1   2  -7 100979. 1627.98   1
  -1   2  -7 108190. 1602.26   7
   1  -2   8 31800.3 1277.52   6
  -1   2  -8 30388.5 1000.05   5
   1  -2   8 32992.9 1133.68   2
  -1   2  -8 29328.6 1036.99   9
  -1   2  -8 29795.0 657.429   1
   1  -2   9 260.495 186.325   6
  -1   2  -9 261.357 135.844   9
  -1   2  -9 183.709 122.632   5
   1  -2   9 32.9179 175.478   2
  -1   2 -10 17154.8 805.897   5
   1  -2  10 16883.9 868.594   2
  -1   2 -10 17468.4 849.885   9
   1  -2  10 18152.9 1069.48   6
   1  -2  11 3911.26 520.531   6
  -1   2 -11 3956.82 419.033   5
   1  -2  11 3642.90 435.757   2
  -1   2 -12 216.113 167.113   5
   1  -2  12 63.7703 183.652   2
   1  -2  12 168.865 229.346   6
  -1   2 -13 1903.47 330.051   5
   1  -2  13 1967.15 460.252   6
   1  -2  13 1406.33 325.482   2
   1  -2  14 406.663 218.200   2
   1  -2  14 643.848 352.833   6
  -1   2 -14 143.076 146.817   5
  -1   1  15 254.786 216.379   6
  -1   1  14 2594.48 420.027   6
  -1   1  13 5628.16 572.721   6
   1  -1 -13 5899.85 420.667  10
   1  -1 -12 8404.54 538.186   3
  -1   1  12 8146.50 644.997   6
   1  -1 -12 7851.45 471.924  10
  -1   1  11 14979.8 657.119   1
   1  -1 -11 16368.6 736.350   3
   1  -1 -11 15063.1 632.251  10
  -1   1  11 16226.0 870.872   6
  -1   1  10 10041.6 652.607   6
   1  -1 -10 10460.1 496.536  10
   1  -1 -10 11420.0 590.570   3
  -1   1  10 10084.0 516.213   1
  -1   1   9 2458.44 320.449   6
   1  -1  -9 2464.34 284.729   3
   1  -1  -9 2001.90 207.991  10
  -1   1   9 2099.21 239.188   1
   1  -1  -8 68135.0 1381.69  10
  -1   1   8 67632.3 1506.07   1
  -1   1   8 67510.7 1679.07   6
   1  -1  -8 68769.1 1561.35   3
  -1   1   7 23817.8 767.073   1
   1  -1  -7 24191.5 806.904   3
   1  -1  -7 24344.1 666.041  10
  -1   1   7 24094.0 624.509   7
  -1   1   7 24226.3 860.438   6
   1  -1  -6 18407.7 524.028  10
  -1   1   6 18621.5 635.027   1
  -1   1   6 19700.9 702.712   6
   1  -1  -6 18992.6 667.454   3
  -1   1   6 18856.8 529.799   7
  -1   1   5 64779.4 1338.66   1
  -1   1   5 65901.2 1365.98   6
   1  -1  -5 65200.9 1371.94   3
  -1   1   5 66206.9 1206.70   7
  -1   1   4 242357. 3766.31   1
   1  -1  -4 248223. 3782.44   3
  -1   1   3 7227.97 319.660   1
   1  -1  -3 7304.91 326.813   3
  -1   1   3 7006.17 218.640  10
  -1   1   3 7080.19 287.392   7
   1  -1  -2 65066.1 1162.45   2
   1  -1  -2 65097.7 1179.53   3
  -1   1   2 64876.0 1152.15   7
   1  -1  -2 62205.5 1139.61   7
  -1   1   2 66976.1 1173.70   1
   1  -1  -1 226479. 3312.19   7
  -1   1   1 230818. 3312.52   7
   1  -1  -1 230757. 3291.71   2
   1  -1  -1 234747. 3294.55   3
  -1   1   1 228204. 3292.14   1
  -1   1   0 45646.6 822.017   1
   1  -1   0 47503.6 870.032   7
  -1   1   0 45688.0 804.798   3
  -1   1   0 43203.6 850.907   7
   1  -1   0 45453.9 806.480   3
   1  -1   0 46406.3 839.911   2
   1  -1   1 752.926 104.115   7
  -1   1  -1 872.982 91.6267   1
   1  -1   1 628.139 72.1651   3
  -1   1  -1 750.587 76.7446   3
  -1   1  -1 805.047 98.3320   7
   1  -1   1 693.171 99.9999   2
   1  -1   2 424733. 5842.80   2
  -1   1  -2 415179. 5736.86   7
  -1   1  -2 428711. 5816.73   5
   1  -1   2 423759. 5666.35   3
  -1   1  -2 415071. 5655.47   3
  -1   1  -2 419251. 5694.97   1
   1  -1   2 424046. 5759.06   7
  -1   1  -3 9707.53 372.658   5
   1  -1   3 9064.00 301.927   7
   1  -1   3 9992.06 457.700   6
  -1   1  -3 9387.37 269.330   3
  -1   1  -3 9680.15 287.568   1
   1  -1   3 9453.10 376.928   2
  -1   1  -3 9544.64 358.681   9
   1  -1   3 9276.09 273.391   3
  -1   1  -3 10111.3 290.204   7
   1  -1   4 169.990 84.1393   2
   1  -1   4 26.1876 39.7150   8
  -1   1  -4 145.303 53.1936   1
  -1   1  -4 83.1324 76.3252   9
   1  -1   4 162.076 140.238   6
  -1   1  -4 204.827 52.6723   3
   1  -1   4 234.038 65.3720   7
   1  -1   4 168.435 68.3703   3
  -1   1  -4 271.430 98.7238   5
   1  -1   5 139407. 2119.14   8
  -1   1  -5 139052. 2406.60   9
  -1   1  -5 141205. 2393.47   5
   1  -1   5 140430. 2445.45   2
   1  -1   5 141391. 2708.64   6
  -1   1  -6 44110.4 1125.46   9
  -1   1  -6 43474.7 1086.17   5
   1  -1   6 44003.0 860.584   8
   1  -1   6 43173.2 1152.72   2
   1  -1   6 44314.8 1344.95   6
   1  -1   7 10132.4 548.483   2
   1  -1   7 10708.5 650.397   6
  -1   1  -7 10346.7 509.683   5
   1  -1   7 9948.47 354.075   8
  -1   1  -7 10166.5 368.111   1
  -1   1  -7 10488.9 535.217   9
   1  -1   8 232.398 69.5485   8
   1  -1   8 487.657 186.205   6
  -1   1  -8 116.959 111.557   5
  -1   1  -8 215.127 123.397   9
   1  -1   8 148.615 152.117   2
  -1   1  -8 378.425 109.794   1
  -1   1  -8 248.826 97.9315   3
  -1   1  -9 1838.80 196.863   3
  -1   1  -9 1533.06 221.253   5
  -1   1  -9 1531.86 161.107   1
   1  -1   9 1708.18 333.913   6
   1  -1   9 1955.20 309.893   2
   1  -1  10 431.722 200.895   6
   1  -1  10 491.665 178.578   2
  -1   1 -10 633.846 181.603   5
   1  -1  11-1.37824 167.641   2
   1  -1  11-324.797 228.865   6
  -1   1 -11 386.408 192.568   5
  -1   1 -12 6806.63 535.455   5
   1  -1  12 6209.18 591.287   2
   1  -1  12 6771.96 692.480   6
   1  -1  13 541.737 303.276   6
   1  -1  13 792.338 257.254   2
  -1   1 -13 492.119 224.492   5
   1  -1  14 1234.38 403.426   6
  -1   1 -14 516.576 193.914   5
  -1   0  15 352.049 249.606   6
  -1   0  14 1211.77 386.598   6
   1   0 -14 906.826 233.143   5
  -1   0  13 56.7115 190.812   6
   1   0 -13 198.350 153.974   5
   1   0 -12 11569.1 632.874   5
  -1   0  12 11372.8 805.870   6
   1   0 -11-21.8217 115.169   5
   1   0 -11 51.2845 109.688   3
  -1   0  11 328.581 222.054   6
  -1   0  10 16176.5 594.837   1
  -1   0  10 16369.0 886.391   6
   1   0 -10 15659.9 677.920   5
   1   0 -10 16291.0 655.521   3
  -1   0   9 15.1854 137.960   6
   1   0  -9 42.5305 101.114   3
  -1   0   9 282.507 95.4477   1
   1   0  -9 237.074 124.159   5
   1   0  -8 1408.40 188.838   3
   1   0  -8 1319.22 183.009   5
  -1   0   8 1656.47 195.663   1
  -1   0   8 1635.45 264.505   6
   1   0  -7 81346.8 1583.64   3
   1   0  -7 79184.2 1562.75   5
  -1   0   7 80903.4 1530.79   1
  -1   0   7 79208.2 1873.50   6
   1   0  -6 22938.7 654.992   5
   1   0  -6 24200.0 683.183   3
  -1   0   6 23370.6 648.777   1
  -1   0   6 22643.3 827.154   6
  -1   0   5 74220.4 1576.78   6
   1   0  -5 74088.7 1381.30   3
  -1   0   5 73789.8 1356.23   1
   1   0  -5 73381.0 1336.33   5
   1   0  -4 118960. 1853.73   5
   1   0  -4 119013. 1916.00   3
  -1   0   4 120754. 1818.87   7
  -1   0   4 117815. 2079.77   6
   1   0  -4 116081. 1806.79   7
  -1   0   4 116585. 1900.70   1
  -1   0   3 90918.0 1482.78   3
  -1   0   3 90338.1 1416.58   7
  -1   0   3 88769.5 1384.84   5
  -1   0   3 85194.0 1507.06   9
   1   0  -3 91254.7 1468.79   3
  -1   0   3 90134.9 1450.16   1
   1   0  -3 87282.2 1409.76   7
   1   0  -3 91538.7 1388.15   5
  -1   0   2 88660.4 1356.02   1
  -1   0   2 92154.0 1258.43   5
   1   0  -2 92281.6 1257.95   5
   1   0  -2 85885.0 1346.93   7
  -1   0   2 88644.7 1356.21   7
   1   0  -2 87636.7 1366.81   3
  -1   0   2 89029.5 1373.55   3
   1   0  -1 156692. 940.982   7
  -1   0   1 137527. 870.667   3
  -1   0   1 143729. 869.812   1
  -1   0  -1 4009.78 144.913   3
   1   0   1 745.353 77.5774   3
  -1   0  -1 3080.48 122.645   5
  -1   0  -1 103.248 48.9071   7
   1   0   1 1495.66 94.7941   5
   1   0   1 4007.31 137.859   7
  -1   0  -1 3998.15 151.562   1
   1   0   1-20.5147 38.1638   2
   1   0   2 1347.55 115.953   2
   1   0   2 952.287 109.599   3
   1   0   2 1433.94 90.5519   7
  -1   0  -2 1602.13 117.570   5
  -1   0  -2 1547.83 110.656   9
  -1   0  -2 1330.35 112.409   1
   1   0   2 1689.00 125.229   5
  -1   0  -2 1686.66 84.0918   7
   1   0   2 1826.77 116.279   9
  -1   0  -3 107316. 1772.82   5
  -1   0  -3 111970. 1773.75   9
   1   0   3 109555. 1950.00   6
  -1   0  -3 110056. 1711.00   1
   1   0   3 110755. 1809.94   2
   1   0   3 111648. 1681.67   1
  -1   0  -3 112870. 1690.37   3
   1   0   3 109993. 1769.17   9
   1   0   4 60340.6 1063.13   1
  -1   0  -4 61047.5 1203.54   9
  -1   0  -4 61513.5 1187.60   5
   1   0   4 60563.1 1379.13   6
   1   0   4 63017.5 1240.79   2
  -1   0  -4 61028.1 1096.82   1
   1   0   5 23997.1 840.198   6
   1   0   5 24999.2 583.986   1
  -1   0  -5 24583.3 699.782   5
   1   0   6 1134.36 167.767   3
   1   0   6 1127.71 131.254   1
  -1   0  -6 1026.66 139.946   1
   1   0   6 1069.07 185.899   2
  -1   0  -6 1136.28 167.831   5
   1   0   6 1135.85 215.622   6
  -1   0  -6 1020.32 139.973   3
  -1   0  -7 41828.7 1092.76   5
   1   0   7 41294.6 1167.83   2
   1   0   7 42341.7 1310.31   6
  -1   0  -7 43325.5 958.157   1
   1   0   7 41942.7 910.689   1
   1   0   8 11851.4 642.303   2
  -1   0  -8 12407.1 475.587   1
   1   0   8 12461.3 719.949   6
  -1   0  -8 12797.6 583.590   5
   1   0   9 5142.24 500.404   6
   1   0   9 4518.72 414.258   2
  -1   0  -9 5001.83 390.299   5
   1   0   9 4619.63 283.244   1
  -1   0  -9 4805.84 315.152   1
  -1   0 -10 23265.0 731.889   1
   1   0  10 23231.5 1019.07   2
  -1   0 -10 24282.0 912.006   5
   1   0  10 22419.6 691.590   1
   1   0  10 24917.6 1138.03   6
   1   0  11 6905.40 557.930   2
   1   0  11 5770.09 583.173   6
  -1   0 -11 6537.98 483.117   5
   1   0  12 601.459 268.091   6
  -1   0 -12 206.542 166.309   5
  -1   0 -13 14091.8 784.409   5
   1   0  13 15972.0 1043.76   6
  -1   0 -14 2902.32 382.900   5
  -1   0 -15 73.4826 195.197   5
   1   1 -15 94.6637 144.523   5
  -1  -1  15-52.5608 208.233   6
   1   1 -14 1259.20 269.476   5
  -1  -1  14 1210.08 318.766   6
   1   1 -13 695.394 196.195   5
  -1  -1  13 280.470 282.833   6
  -1  -1  12 9247.89 764.972   6
   1   1 -12 9111.45 579.940   5
  -1  -1  11 23579.6 1164.07   6
   1   1 -11 22649.7 879.933   5
   1   1 -10 1790.17 192.177   3
   1   1 -10 1885.03 255.519   5
  -1  -1  10 1563.72 307.550   6
  -1  -1   9 438.092 101.812   1
   1   1  -9 575.398 133.757   3
   1   1  -9 250.448 121.818   5
  -1  -1   9 495.653 207.135   6
  -1  -1   8 26871.4 652.049   1
  -1  -1   8 27864.6 1108.00   6
   1   1  -8 26853.0 960.732   9
   1   1  -8 27386.7 847.071   5
  -1  -1   8 28481.4 970.494   2
   1   1  -8 27801.6 729.420   3
   1   1  -7 656.714 115.692   3
   1   1  -7 487.910 148.789   9
  -1  -1   7 316.705 149.732   2
  -1  -1   7 667.044 190.817   6
   1   1  -7 447.504 101.299   5
  -1  -1   7 862.896 106.290   1
  -1  -1   6 17858.0 664.768   2
  -1  -1   6 18507.6 475.668   1
   1   1  -6 16841.3 661.171   9
   1   1  -6 17699.0 504.668   3
   1   1  -6 17245.2 576.030   5
  -1  -1   5 139178. 2589.08   6
  -1  -1   5 142163. 2372.68   2
   1   1  -5 141828. 2135.91   3
   1   1  -5 142413. 2423.29   9
  -1  -1   5 136394. 2085.74   1
   1   1  -5 134145. 2232.80   5
  -1  -1   4 32631.2 671.640   3
   1   1  -4 32775.1 641.603   3
  -1  -1   4 32504.3 911.521   6
  -1  -1   4 31332.0 614.508   1
   1   1  -4 31397.3 814.000   9
   1   1  -4 30148.4 695.479   5
  -1  -1   3 209.444 84.8208   2
   1   1  -3 386.496 93.8959   9
  -1  -1   3 251.236 47.7104   1
  -1  -1   3 188.724 95.1194   6
  -1  -1   3 247.661 63.1004   3
   1   1  -3 244.570 64.6287   5
   1   1  -3 243.164 56.6144   3
  -1  -1   2 413218. 5358.49   1
   1   1  -2 397582. 5419.44   5
  -1  -1   2 410367. 5392.91   3
   1   1  -2 399441. 5540.51   9
   1   1  -1 3391.98 139.802   3
  -1  -1   1 10324.0 204.995   1
  -1  -1   1 2626.23 109.865   2
  -1  -1   1 10257.3 216.919   3
  -1  -1  -1 60070.3 767.755  10
   1   1   1 30160.1 672.641  10
   1   1   2 399.778 76.0106   5
   1   1   2 359.385 65.7574   2
   1   1   2 321.528 89.6912   3
  -1  -1  -2 503.500 92.3981   3
   1   1   3 5352.74 233.779   1
  -1  -1  -3 5377.17 247.021   5
   1   1   4 444579. 6104.01   1
  -1  -1  -4 427490. 6142.55   3
  -1  -1  -4 443653. 6185.44   5
   1   1   4 450057. 6243.25   2
   1   1   5 28516.4 708.420   1
   1   1   5 30952.2 897.339   6
   1   1   5 28670.0 814.215   2
  -1  -1  -5 29008.1 764.134   5
  -1  -1  -5 30462.6 757.677   3
   1   1   6 40862.9 916.283   1
  -1  -1  -6 41130.8 1004.16   5
  -1  -1  -6 41018.2 987.086   3
   1   1   7 139197. 2556.94   2
   1   1   7 134276. 2682.45   6
  -1  -1  -7 134109. 2419.85   5
  -1  -1  -8 13668.7 590.968   3
   1   1   8 13327.3 511.102   1
  -1  -1  -8 13469.4 590.960   5
   1   1   8 13282.4 712.711   6
   1   1   8 11728.7 657.849   2
  -1  -1  -9 1456.15 218.175   3
   1   1   9 1503.00 270.777   6
  -1  -1  -9 1473.02 217.438   5
   1   1   9 1642.64 197.978   1
  -1  -1 -10 53920.0 1435.42   5
   1   1  10 53540.6 1258.36   1
   1   1  10 52719.1 1682.70   6
  -1  -1 -11 8804.95 527.680   3
   1   1  11 7525.42 439.845   1
   1   1  11 8703.20 676.121   6
  -1  -1 -11 7552.42 519.115   5
  -1  -1 -12 65.0354 131.983   3
  -1  -1 -12 286.845 171.636   5
  -1  -1 -13 7398.26 554.219   5
  -1  -1 -14-14.0327 158.812   5
  -1  -1 -15-37.7958 177.153  10
  -1  -2  14 810.426 339.953   6
   1   2 -14 980.128 216.557   5
   1   2 -13 2338.44 326.004   5
  -1  -2  13 3501.50 512.748   6
  -1  -2  12 684.046 291.237   6
   1   2 -12 617.862 201.505   5
  -1  -2  11 2774.31 368.271   2
  -1  -2  11 3184.38 462.183   6
   1   2 -11 2418.84 306.161   5
   1   2 -10 2662.60 344.984   9
  -1  -2  10 2757.85 347.616   2
   1   2 -10 2653.82 294.392   5
  -1  -2  10 2539.79 398.301   6
   1   2  -9 4908.60 239.789   3
   1   2  -9 5249.85 449.134   9
  -1  -2   9 4118.55 471.923   6
  -1  -2   9 4411.74 427.307   2
   1   2  -9 4801.45 375.274   5
  -1  -2   8 23679.1 897.629   2
   1   2  -8 22859.7 794.025   5
   1   2  -8 24486.0 935.031   9
  -1  -2   8 26193.8 1111.89   6
   1   2  -8 24935.0 581.491   3
   1   2  -7 120551. 1878.16   3
  -1  -2   7 124003. 2639.97   6
   1   2  -7 122353. 1799.37   3
  -1  -2   7 118213. 2281.54   2
   1   2  -7 119334. 2169.22   5
   1   2  -7 118346. 2345.71   9
   1   2  -6 10707.8 295.096   3
   1   2  -6 10883.9 544.792   9
  -1  -2   6 10294.4 502.324   2
  -1  -2   6 9730.20 308.639   3
  -1  -2   6 9614.83 219.244   1
  -1  -2   6 11189.8 630.765   6
   1   2  -6 10793.4 464.554   5
   1   2  -6 11458.8 354.546   3
   1   2  -5 96507.6 1404.66   3
   1   2  -5 91306.9 1865.36   9
  -1  -2   5 89484.0 1443.03   3
   1   2  -5 94922.8 1724.28   5
  -1  -2   5 97441.1 1785.49   2
  -1  -2   5 94335.2 2043.88   6
   1   2  -4 424942. 6038.22   5
   1   2  -4 426862. 6202.14   9
  -1  -2   4 418071. 5749.74   3
  -1  -2   4 415359. 6385.21   6
  -1  -2   4 421202. 6074.02   2
   1   2  -4 434241. 5709.14   3
  -1  -2   3 201570. 2732.05   3
  -1  -2   3 194761. 2963.70   2
  -1  -2   3 199416. 3246.13   6
  -1  -2   2 546.124 79.4919   2
  -1  -2   2 553.350 118.966   6
  -1  -2   2 597.715 55.9272   3
   1   2  -2 513.941 56.0653   3
   1   2  -1 958872. 12225.7   1
  -1  -2   1 921865. 12264.8   2
   1   2   0 802.862 89.9514   3
   1   2   0 768.291 101.359   7
  -1  -2   0 837.983 91.4446   3
   1   2   0 896.221 85.4945   1
  -1  -2   0 979.349 71.1557   2
   1   2   1 242513. 3478.72   7
  -1  -2  -1 244732. 3482.60   7
   1   2   2 558371. 7721.85   1
  -1  -2  -2 569592. 7715.39   3
   1   2   2 568301. 7685.29   7
  -1  -2  -3 2484.85 198.882   3
   1   2   3 2182.11 198.304   1
   1   2   3 2648.60 165.502   7
   1   2   3 2094.63 205.199   3
  -1  -2  -4 119381. 1998.79  10
   1   2   4 117052. 2060.00   1
  -1  -2  -4 127097. 1886.36   7
  -1  -2  -4 123571. 2074.35   3
  -1  -2  -5 231820. 3528.37  10
  -1  -2  -5 228674. 3585.67   3
   1   2   6 4568.29 311.857   1
  -1  -2  -6 5182.96 318.204  10
  -1  -2  -6 4887.04 331.241   3
   1   2   6 4854.07 221.993   7
  -1  -2  -7 41330.2 1067.52  10
   1   2   7 41378.2 777.449   7
  -1  -2  -7 43912.8 1150.69   3
   1   2   7 41965.9 1052.75   1
   1   2   8 111188. 2073.00   1
  -1  -2  -8 112241. 2206.87   3
   1   2   8 105198. 1609.64   7
  -1  -2  -8 113318. 2125.83  10
  -1  -2  -9 2275.63 284.781   3
  -1  -2  -9 1563.94 220.895  10
   1   2   9 1735.83 224.522   1
   1   2  10 22285.8 794.433   1
  -1  -2 -10 23267.8 863.325  10
  -1  -2 -11 422.460 151.450   3
  -1  -2 -11 428.016 158.550  10
   1   2  11 205.479 120.205   1
  -1  -2 -12 3271.15 383.812   3
   1   2  12 2811.05 297.231   1
  -1  -2 -12 2794.41 327.726  10
  -1  -2 -13 110.796 191.367   3
  -1  -2 -13 32.3914 126.033  10
  -1  -2 -14 1172.95 245.679  10
  -1  -2 -15 67.3068 128.555  10
  -1  -3  14 1786.05 414.927   6
   1   3 -14 2112.57 331.832   5
  -1  -3  13 113.737 271.793   6
   1   3 -13 38.4272 144.351   5
   1   3 -12 2749.80 342.992   5
  -1  -3  12 2360.43 385.589   2
   1   3 -12 3192.33 436.241   9
  -1  -3  12 2818.89 478.518   6
  -1  -3  11 1381.75 336.916   6
   1   3 -11 1019.64 240.379   9
  -1  -3  11 844.864 227.179   2
   1   3 -11 1067.71 220.092   5
  -1  -3  10 12946.2 739.653   2
   1   3 -10 13530.7 782.716   9
  -1  -3  10 15234.9 956.422   6
   1   3 -10 14609.1 708.586   5
   1   3  -9 2992.37 310.931   5
  -1  -3   9 2267.97 307.030   2
  -1  -3   9 3011.46 415.730   6
   1   3  -9 2860.91 363.204   9
   1   3  -8 3414.25 363.336   9
  -1  -3   8 3523.89 429.496   6
   1   3  -8 2744.57 278.684   5
  -1  -3   8 3325.15 340.487   2
   1   3  -7 41157.0 1131.07   5
  -1  -3   7 42386.6 1207.02   2
  -1  -3   7 40970.7 1431.09   6
   1   3  -7 42538.4 1259.28   9
   1   3  -7 41469.3 974.870   7
  -1  -3   6 57301.0 1624.08   6
   1   3  -6 56065.2 1435.72   9
   1   3  -6 56119.5 1330.19   5
  -1  -3   6 55416.7 1348.41   2
   1   3  -5 31489.5 954.735   9
   1   3  -5 29845.9 851.166   5
  -1  -3   5 29462.1 856.152   2
  -1  -3   5 29329.7 1051.83   6
  -1  -3   4 101734. 2149.34   6
  -1  -3   4 104292. 1852.75   2
  -1  -3   3 375.386 108.828   2
   1   3  -3 356.406 116.337   7
  -1  -3   3 408.639 126.533   6
   1   3  -2 135353. 1874.63   1
  -1  -3   2 132739. 2324.67   6
  -1  -3   2 128256. 2074.63   2
   1   3  -2 125287. 2187.50   7
   1   3  -1 812047. 10917.9   1
  -1  -3   1 817498. 11203.5   6
  -1  -3   1 831616. 10906.6   3
   1   3  -1 825086. 11180.7   7
  -1  -3   1 811779. 10992.3   2
  -1  -3   0 70491.3 1222.20   3
   1   3   0 73582.8 1248.34   1
  -1  -3   0 72340.8 1220.00   2
   1   3   0 71220.7 1384.09   7
   1   3   0 73843.9 1131.00   4
   1   3   1 78276.2 1466.59   7
  -1  -3  -1 79816.8 1373.70   3
   1   3   1 77718.3 1381.88   1
  -1  -3  -1 78340.7 1320.09   2
  -1  -3  -2 662162. 9117.33   2
   1   3   2 676690. 9214.05   1
   1   3   2 677013. 9253.42   7
  -1  -3  -2 670465. 9200.71   3
   1   3   2 671995. 9280.53   3
   1   3   3 459089. 6524.86   1
   1   3   3 451306. 6499.35   7
  -1  -3  -3 466779. 6527.87   3
   1   3   4 1657.69 184.935   7
  -1  -3  -4 1446.70 205.115   3
   1   3   4 1356.94 181.915   1
  -1  -3  -5 127298. 2321.14   3
   1   3   5 126575. 2280.13   1
  -1  -3  -6 2862.62 289.757   3
   1   3   6 2817.45 222.936   7
   1   3   6 2470.38 264.452   1
   1   3   7 79020.1 1476.11   7
  -1  -3  -7 78178.1 1761.84   3
   1   3   7 78436.3 1699.46   1
   1   3   8 5238.33 275.570   7
  -1  -3  -8 5730.73 435.317   3
  -1  -3  -9 1699.34 281.864   3
   1   3   9 1604.92 157.316   7
   1   3   9 1868.60 264.811   1
  -1  -3 -10 9639.14 617.379   3
   1   3  10 7482.77 477.752   1
   1   3  11 1874.95 269.321   1
  -1  -3 -11 2476.85 331.809   3
  -1  -3 -12 1426.12 293.215   3
   1   3  12 1359.56 236.896   1
   1   3  13 3852.50 380.826   1
  -1  -3 -13 4661.67 478.443   3
  -1  -3 -14 1508.47 342.595   3
   1   4 -13 381.544 192.575   5
  -1  -4  13 226.257 203.608   2
  -1  -4  13 324.060 259.255   6
   1   4 -12 4347.47 510.159   9
  -1  -4  12 4229.66 571.770   6
  -1  -4  12 3344.17 441.677   2
   1   4 -12 3749.06 418.891   5
  -1  -4  11 30.6214 153.214   2
   1   4 -11-92.7446 141.841   5
  -1  -4  11-110.116 262.407   6
   1   4 -11 185.984 153.980   9
  -1  -4  10 2815.47 452.680   6
   1   4 -10 2225.14 309.059   5
   1   4 -10 2429.60 357.183   9
  -1  -4  10 2432.86 364.511   2
   1   4  -9 5141.00 423.104   5
  -1  -4   9 6428.52 621.644   6
  -1  -4   9 5303.66 460.011   2
   1   4  -9 5086.98 487.377   9
   1   4  -8 208.603 114.986   7
  -1  -4   8 19.9547 165.047   6
   1   4  -8-23.3195 124.805   5
   1   4  -8 104.563 142.268   9
  -1  -4   8 104.836 130.813   2
  -1  -4   7 7271.71 605.564   6
  -1  -4   7 7856.37 496.346   2
   1   4  -7 7590.47 479.188   5
   1   4  -7 7124.57 514.455   9
   1   4  -7 7142.87 407.601   7
   1   4  -6 1720.83 221.106   7
  -1  -4   6 1690.41 316.967   6
   1   4  -6 1935.34 267.860   9
   1   4  -6 1884.24 238.154   5
  -1  -4   6 2106.30 257.375   2
  -1  -4   5 9222.64 599.219   6
   1   4  -5 10037.1 474.777   7
   1   4  -5 10648.7 516.144   5
  -1  -4   5 9583.92 479.471   2
  -1  -4   4 6783.01 377.631   2
  -1  -4   4 7669.96 508.109   6
   1   4  -4 7475.66 409.396   7
   1   4  -3 11108.5 270.557   1
  -1  -4   3 11191.6 257.683   3
  -1  -4   3 11334.6 460.766   2
  -1  -4   3 11246.5 579.876   6
   1   4  -3 11232.3 512.749   7
  -1  -4   2 937.279 139.929   2
  -1  -4   2 979.267 99.4022   3
   1   4  -2 877.390 174.967   7
  -1  -4   2 703.662 78.5989   3
  -1  -4   2 934.429 162.756   6
   1   4  -2 836.196 92.3014   1
   1   4  -1 1718.83 139.433   1
  -1  -4   1 1480.60 159.813   2
  -1  -4   1 1336.18 137.245   3
   1   4  -1 1991.05 214.478   7
  -1  -4   1 1549.42 179.750   6
  -1  -4   1 1674.17 141.743   3
  -1  -4   0 39844.5 868.824   2
   1   4   0 39393.1 756.740   4
  -1  -4   0 39019.8 854.896   3
  -1  -4   0 37819.1 894.501   6
   1   4   0 38777.6 869.269   1
   1   4   0 39150.3 1021.12   7
   1   4   1 103877. 1962.33   7
   1   4   1 101670. 1810.12   1
  -1  -4  -1 100877. 1741.36   2
   1   4   2 8334.22 407.879   1
   1   4   2 8159.15 432.287   7
  -1  -4  -2 8794.55 403.074   3
  -1  -4  -3 22800.4 682.753   2
  -1  -4  -3 22880.7 733.795   3
   1   4   3 23645.2 762.790   7
   1   4   3 22604.6 731.486   1
  -1  -4  -4 222046. 3497.84   2
   1   4   4 215842. 3577.83   1
   1   4   4 222663. 3589.05   7
  -1  -4  -4 219261. 3594.99   3
  -1  -4  -5 4621.59 362.874   3
   1   4   5 4450.30 336.652   1
  -1  -4  -6 7797.16 491.181   3
   1   4   6 6993.73 457.980   1
  -1  -4  -7 58351.1 1543.78   3
   1   4   7 60840.4 1360.62   7
   1   4   7 56496.2 1470.92   1
   1   4   8 9501.15 568.611   1
  -1  -4  -8 9515.63 595.156   3
   1   4   8 10228.6 480.843   7
  -1  -4  -9 6204.47 500.370   3
   1   4   9 6220.13 480.084   1
   1   4   9 6037.29 352.214   7
  -1  -4 -10 35540.9 1253.27   3
   1   4  10 33361.4 1159.24   1
  -1  -4 -11 5875.87 513.478   3
   1   4  11 5567.35 467.162   1
  -1  -4 -12 2477.05 356.230   3
   1   4  12 1607.23 272.163   1
   1   4  13 5722.14 501.701   1
  -1  -4 -13 7224.38 617.333   3
   1   4  14 228.093 158.329   1
  -1  -4 -14 479.470 241.498   3
  -1  -4 -15-181.700 207.348   3
  -1  -5  12-89.8873 264.208   6
  -1  -5  12-54.2695 174.119   2
   1   5 -12 270.458 162.922   5
  -1  -5  11 184.709 251.978   6
   1   5 -11 55.9274 159.176   9
   1   5 -11 129.207 139.677   5
  -1  -5  11 726.863 257.092   2
  -1  -5  10 1859.37 313.828   2
   1   5 -10 2595.01 350.925   5
  -1  -5  10 1783.14 372.573   6
   1   5 -10 1960.93 345.632   9
  -1  -5   9 479.801 301.237   6
  -1  -5   9 180.467 146.091   2
   1   5  -9-70.2278 149.566   5
   1   5  -9 70.2343 164.922   9
  -1  -5   8 3279.63 372.989   2
   1   5  -8 2987.14 297.374   7
   1   5  -8 3585.33 401.667   9
   1   5  -8 3175.61 344.752   5
  -1  -5   8 3427.54 461.543   6
  -1  -5   7 12150.5 817.450   6
   1   5  -7 11802.7 700.695   9
  -1  -5   7 12675.9 655.838   2
   1   5  -7 11451.1 592.144   7
   1   5  -7 12261.4 646.505   5
  -1  -5   6 4218.25 368.838   2
  -1  -5   6 4033.32 452.856   6
   1   5  -6 3496.49 347.879   5
   1   5  -6 3828.32 353.721   7
   1   5  -5 9615.14 525.423   7
  -1  -5   5 9515.03 645.474   6
  -1  -5   5 9464.49 507.483   2
   1   5  -4 61605.0 955.790   1
  -1  -5   4 65187.5 1716.73   6
  -1  -5   4 64944.9 1457.62   2
   1   5  -4 65965.3 1546.01   7
  -1  -5   3 13125.8 338.380   3
   1   5  -3 14297.9 383.629   1
   1   5  -3 13683.3 635.260   7
  -1  -5   3 13487.7 560.128   2
  -1  -5   3 13757.2 675.442   6
   1   5  -2 26914.8 651.677   1
   1   5  -2 26210.7 896.299   7
  -1  -5   2 26613.5 625.996   3
  -1  -5   2 25216.4 769.891   2
  -1  -5   2 27223.7 907.409   6
   1   5  -1 202046. 3044.71   1
  -1  -5   1 191389. 3249.08   6
  -1  -5   1 192514. 3122.62   2
  -1  -5   1 196386. 3013.08   3
   1   5  -1 193274. 3396.04   7
  -1  -5   0 5791.86 321.709   3
  -1  -5   0 5750.98 334.020   6
  -1  -5   0 5971.81 334.977   2
   1   5   0 6065.86 337.762   1
   1   5   0 5904.95 269.963   4
   1   5   0 5917.43 417.918   7
  -1  -5  -1 957.101 126.159   6
  -1  -5  -1 783.418 144.600   2
  -1  -5  -1 845.121 150.812   3
   1   5   1 1026.17 185.477   7
   1   5   1 1183.69 182.541   1
   1   5   1 1302.86 150.797   4
  -1  -5  -2 210139. 3388.89   2
  -1  -5  -2 222152. 3504.42   3
   1   5   2 212173. 3504.97   1
   1   5   2 216561. 3656.63   7
   1   5   3 3785.37 322.832   1
   1   5   3 3984.14 356.853   7
  -1  -5  -3 4258.38 341.602   3
  -1  -5  -3 4161.54 305.789   2
   1   5   4 82304.4 1817.03   1
  -1  -5  -4 84941.2 1727.01   2
  -1  -5  -4 82197.4 1805.77   3
   1   5   4 84504.2 1851.87   7
   1   5   5 274601. 4538.05   1
  -1  -5  -5 276626. 4562.05   3
   1   5   5 282220. 4533.56   7
  -1  -5  -5 278193. 4434.29   2
  -1  -5  -6 31308.6 1065.93   3
   1   5   6 29636.8 1030.79   1
   1   5   6 30300.0 997.837   7
  -1  -5  -7 59141.0 1604.54   3
   1   5   7 55151.5 1520.21   1
   1   5   7 57452.4 1440.89   7
  -1  -5  -8 51462.9 1512.86   3
   1   5   8 49735.0 1306.59   7
  -1  -5  -9 1000.63 256.162   3
   1   5   9 824.536 235.804   1
   1   5   9 912.819 169.262   7
   1   5  10 4955.64 374.633   7
   1   5  10 5507.95 481.167   1
   1   5  11 12531.5 746.869   1
  -1  -5 -11 12159.0 770.149   3
  -1  -5 -12 426.688 263.257   3
   1   5  12 70.4725 165.053   1
  -1  -5 -13 1658.60 325.066   3
   1   5  13 1292.53 280.883   1
  -1  -5 -14 3095.09 436.169   3
   1   5  14 3696.11 428.096   1
  -1  -5 -15 279.227 190.038   3
   1   5  15 361.283 209.822   1
   1   6 -12 80.9417 175.370   5
  -1  -6  12-26.5382 262.685   6
  -1  -6  12 525.605 254.607   2
   1   6 -11 1066.62 263.785   5
  -1  -6  11 816.186 332.939   6
  -1  -6  11 1247.24 319.553   2
  -1  -6  10 5057.93 635.934   6
   1   6 -10 4574.60 513.569   9
  -1  -6  10 4365.44 476.894   2
   1   6 -10 4898.06 481.722   5
   1   6  -9 2380.87 321.100   5
   1   6  -9 3254.20 420.914   9
  -1  -6   9 2551.67 365.813   2
  -1  -6   9 3336.74 507.684   6
  -1  -6   8-128.913 167.678   2
  -1  -6   8 136.370 249.007   6
   1   6  -8 324.430 206.516   9
   1   6  -8 79.8731 146.921   5
  -1  -6   7 18406.4 838.287   2
   1   6  -7 17594.1 800.793   7
  -1  -6   7 18369.6 1031.96   6
   1   6  -7 18035.8 841.169   5
   1   6  -6 9090.70 563.887   7
  -1  -6   6 8757.30 697.016   6
  -1  -6   6 9296.96 565.186   2
   1   6  -6 9341.06 584.973   5
   1   6  -5 2542.59 312.217   7
  -1  -6   5 2792.57 379.001   6
  -1  -6   5 2685.40 308.194   2
  -1  -6   4 55613.3 1606.35   6
   1   6  -4 50079.0 903.814   1
  -1  -6   4 53528.1 1365.30   2
   1   6  -4 52864.6 1473.23   7
   1   6  -3 43893.2 898.467   1
  -1  -6   3 41400.4 809.031   3
  -1  -6   3 42175.3 1319.28   6
   1   6  -3 44025.1 1310.79   7
  -1  -6   3 43375.4 1167.23   2
  -1  -6   2 8095.89 347.623   3
  -1  -6   2 8473.96 457.976   2
  -1  -6   2 8828.57 524.939   6
   1   6  -2 9004.41 383.629   1
   1   6  -1 94826.8 1772.57   1
   1   6  -1 91820.0 2098.41   7
  -1  -6   1 95220.0 1953.29   6
  -1  -6   1 90564.2 1712.80   3
  -1  -6   1 91293.1 1846.00   2
   1   6   0 45312.7 1135.00   1
  -1  -6   0 44675.6 1091.78   3
   1   6   0 45955.5 999.408   4
  -1  -6   0 44855.5 1142.17   2
  -1  -6   0 44838.4 1127.87   6
   1   6   0 46722.6 1360.93   7
   1   6   1 18202.7 697.778   1
  -1  -6  -1 18284.7 666.645   2
  -1  -6  -1 17867.5 672.054   3
   1   6   1 18441.8 825.377   7
  -1  -6  -1 19264.1 615.204   6
   1   6   1 18293.2 608.931   4
  -1  -6  -2 176457. 3024.39   3
  -1  -6  -2 165745. 2915.59   2
   1   6   2 168807. 3022.88   1
   1   6   2 169274. 3223.26   7
   1   6   3 5658.79 419.871   1
   1   6   3 6041.54 474.575   7
  -1  -6  -3 6303.93 397.803   2
  -1  -6  -3 5610.78 411.762   3
  -1  -6  -4 28610.4 990.092   3
   1   6   4 27413.9 1014.97   7
  -1  -6  -4 27104.5 901.887   2
   1   6   4 27426.6 976.124   1
   1   6   5 22425.9 919.633   7
  -1  -6  -5 23549.4 925.342   3
  -1  -6  -5 22454.0 837.818   2
   1   6   5 23604.2 925.457   1
   1   6   6 32901.2 1114.85   7
  -1  -6  -6 30869.9 1127.00   3
  -1  -6  -6 33721.8 1097.13   2
   1   6   6 32457.1 1142.33   1
   1   6   7 4380.50 440.380   1
  -1  -6  -7 4456.14 420.150   3
   1   6   7 4278.33 397.000   7
  -1  -6  -7 4221.81 394.546   2
   1   6   8 15264.2 809.948   1
  -1  -6  -8 15162.9 822.385   3
   1   6   8 16602.3 759.372   7
  -1  -6  -8 15027.3 781.130   2
  -1  -6  -9 4225.31 467.003   3
   1   6   9 4402.10 396.351   7
   1   6   9 4322.36 433.567   1
  -1  -6 -10 1635.12 329.904   3
   1   6  10 1840.45 277.924   7
   1   6  10 1635.05 301.321   1
  -1  -6 -11 8647.97 675.442   3
   1   6  11 8441.45 640.665   1
  -1  -6 -12 3584.60 481.308   3
   1   6  12 3267.50 436.322   1
  -1  -6 -13 13.9925 210.050   3
   1   6  13 191.538 177.431   1
  -1  -6 -14 564.995 282.953   3
   1   6  14 163.391 199.915   1
   1   6  15-79.9485 190.418   1
  -1  -6 -15-116.201 211.437   3
  -1  -7  11 548.693 224.592   2
   1   7 -11 500.093 260.921   5
  -1  -7  11 289.214 266.916   6
  -1  -7  10 846.271 241.642   2
   1   7 -10 1737.57 325.563   5
  -1  -7  10 1413.33 381.060   6
   1   7  -9 4987.98 498.821   5
  -1  -7   9 4199.77 564.045   6
   1   7  -9 4642.26 525.091   9
  -1  -7   9 3681.22 427.713   2
  -1  -7   8-133.092 194.731   6
   1   7  -8-312.184 219.493   5
   1   7  -8-176.651 156.127   9
  -1  -7   8 157.820 183.902   2
   1   7  -7 11705.8 702.080   7
  -1  -7   7 11406.7 697.380   2
  -1  -7   7 12743.9 877.924   6
   1   7  -7 11638.4 714.544   5
   1   7  -6 6184.24 504.481   7
  -1  -7   6 6464.14 499.856   2
  -1  -7   6 6602.92 605.849   6
  -1  -7   5 127.375 152.491   2
  -1  -7   5 169.417 139.216   6
   1   7  -5 318.361 160.404   7
  -1  -7   4 11369.9 620.531   2
  -1  -7   4 12081.7 747.764   6
   1   7  -4 11525.4 696.562   7
   1   7  -3 29443.8 771.906   1
   1   7  -3 30333.6 1153.06   7
  -1  -7   3 31193.3 1025.08   2
  -1  -7   3 31240.2 1156.43   6
   1   7  -2 382.761 190.472   7
  -1  -7   2 598.958 184.660   6
  -1  -7   2 334.766 111.253   3
   1   7  -2 250.187 86.8226   1
  -1  -7   2 366.144 136.636   2
   1   7  -1 3787.14 305.027   1
   1   7  -1 3096.52 233.432   4
  -1  -7   1 3258.27 269.154   3
  -1  -7   1 2993.38 295.250   2
  -1  -7   1 3552.71 327.484   6
   1   7  -1 3681.03 402.852   7
   1   7   0 35192.1 1026.41   1
  -1  -7   0 35852.9 1026.17   6
  -1  -7   0 35025.1 984.979   3
  -1  -7   0 33451.1 1038.35   2
   1   7   0 32894.5 890.301   4
   1   7   0 34934.0 1245.08   7
   1   7   1 1492.93 229.922   1
  -1  -7  -1 1608.27 232.747   2
   1   7   1 1369.64 265.581   7
  -1  -7  -1 1466.62 180.937   6
   1   7   1 1637.29 194.559   4
  -1  -7  -1 1458.16 223.690   3
  -1  -7  -2 589.938 179.728   3
   1   7   2 691.363 183.982   1
  -1  -7  -2 483.065 140.866   2
   1   7   2 475.938 185.924   7
  -1  -7  -2 604.561 108.546   6
   1   7   3 35993.1 1176.97   1
  -1  -7  -3 36891.3 1152.23   3
  -1  -7  -3 35898.0 1099.68   2
   1   7   3 35814.1 1270.00   7
   1   7   4 1698.17 254.183   1
   1   7   4 1669.88 304.154   7
  -1  -7  -4 1687.83 250.170   2
  -1  -7  -4 1880.26 287.850   3
   1   7   5 206.598 144.863   1
  -1  -7  -5 161.423 142.227   3
   1   7   5-132.215 190.003   7
  -1  -7  -5 363.284 162.749   2
   1   7   6 585.588 230.635   1
  -1  -7  -6 104.230 188.526   3
  -1  -7  -6 119.480 183.007   2
   1   7   6 189.052 153.600   7
   1   7   7 7539.62 567.316   1
   1   7   7 7540.28 553.520   7
  -1  -7  -7 7071.49 536.493   2
  -1  -7  -7 7257.14 578.879   3
   1   7   8 321.110 192.869   1
  -1  -7  -8 506.945 221.064   2
   1   7   8 490.886 192.483   7
  -1  -7  -8 635.459 224.904   3
  -1  -7  -9 1471.18 295.202   2
   1   7   9 1492.24 296.567   1
  -1  -7  -9 2097.83 366.535   3
   1   7   9 1894.63 301.447   7
  -1  -7 -10 931.606 256.347   3
   1   7  10 1214.04 258.358   1
   1   7  10 1102.14 244.068   7
  -1  -7 -10 1173.81 270.034   2
   1   7  11 1008.14 275.511   1
  -1  -7 -11 1001.16 290.463   3
  -1  -7 -11 866.354 267.562   2
  -1  -7 -12 21.1855 200.647   3
   1   7  12 111.190 183.893   1
  -1  -7 -13 1994.55 378.534   3
   1   7  13 1341.10 303.108   1
   1   7  14 603.689 271.957   1
  -1  -7 -14 580.836 289.882   3
   1   8  -9 435.878 221.904   5
  -1  -8   9 735.280 311.018   6
  -1  -8   9 277.185 205.151   2
  -1  -8   8 62.9863 200.709   6
   1   8  -8 214.401 201.678   9
   1   8  -8 191.756 160.110   5
  -1  -8   8 296.743 176.586   2
  -1  -8   7 3724.86 434.607   2
  -1  -8   7 3760.72 525.796   6
   1   8  -7 3002.47 392.272   5
   1   8  -6 5262.46 513.139   7
  -1  -8   6 4285.29 435.994   2
  -1  -8   6 4426.80 528.363   6
  -1  -8   5 3982.21 413.492   2
   1   8  -5 4651.46 492.515   7
  -1  -8   4 976.225 229.440   2
   1   8  -4 877.612 242.868   7
  -1  -8   4 808.138 237.933   6
  -1  -8   3 3293.18 385.471   6
   1   8  -3 2315.86 359.661   7
  -1  -8   3 2933.16 344.711   2
  -1  -8   2-114.197 132.244   2
  -1  -8   2 153.556 137.852   6
   1   8  -2 336.911 111.817   1
   1   8  -2-119.573 207.754   7
   1   8  -2 77.6397 91.7004   4
  -1  -8   1 2615.27 307.201   2
   1   8  -1 2559.92 272.077   1
  -1  -8   1 2457.63 282.417   6
  -1  -8   1 2446.06 240.912   3
   1   8  -1 3371.02 426.000   7
   1   8  -1 2644.91 242.359   4
   1   8   0 59.4603 96.5047   4
  -1  -8   0 74.6216 121.661   3
  -1  -8   0 29.4315 140.272   2
   1   8   0 53.6505 190.207   7
   1   8   0 341.031 161.321   1
  -1  -8   0-62.2569 110.318   6
   1   8   1 9381.37 560.259   1
  -1  -8  -1 8927.14 522.213   3
  -1  -8  -1 9992.06 486.704   6
   1   8   1 8837.58 480.259   4
  -1  -8  -1 9790.04 574.334   2
   1   8   1 8557.47 646.769   7
  -1  -8  -2 26761.1 973.294   3
   1   8   2 25361.9 1127.90   7
  -1  -8  -2 25260.0 946.729   2
   1   8   2 26866.0 1003.67   1
  -1  -8  -3 5192.79 419.095   2
  -1  -8  -3 4390.08 414.043   3
   1   8   3 4550.20 427.545   1
   1   8   3 4322.32 468.750   7
  -1  -8  -4 10159.7 629.945   3
   1   8   4 10559.1 718.610   7
   1   8   4 10478.2 653.871   1
  -1  -8  -4 11307.9 625.770   2
   1   8   5 20601.6 966.833   1
  -1  -8  -5 22953.2 946.367   2
   1   8   5 22494.7 1045.18   7
  -1  -8  -5 22050.9 975.056   3
  -1  -8  -6 16974.1 835.789   2
  -1  -8  -6 16791.8 875.110   3
   1   8   6 18994.8 953.597   7
   1   8   6 18126.4 921.031   1
  -1  -8  -7 2375.65 354.341   2
   1   8   7 2316.40 383.747   1
   1   8   7 2738.60 383.899   7
  -1  -8  -7 2647.24 374.644   3
  -1  -8  -8 40191.4 1473.47   3
   1   8   8 39167.7 1462.34   1
   1   8   8 38092.3 1395.69   7
  -1  -8  -8 38671.4 1371.32   2
   1   8   9 408.749 210.937   7
  -1  -8  -9 451.882 271.570   3
   1   8   9 363.152 205.544   1
  -1  -8  -9 276.204 200.521   2
  -1  -8 -10 506.872 242.661   2
  -1  -8 -10 209.310 228.946   3
   1   8  10 926.806 279.181   7
   1   8  10 235.951 175.125   1
  -1  -8 -11 5050.59 538.241   2
   1   8  11 5353.77 503.278   7
  -1  -8 -11 5373.58 582.449   3
   1   8  11 6337.74 632.072   1
  -1  -8 -12-137.392 176.615   2
  -1  -8 -12 24.4404 220.670   3
   1   8  12 346.047 235.725   1
  -1  -8 -13 207.571 224.088   2
   1   8  13-528.857 279.058   1
  -1  -8 -13 146.468 243.388   3
   1   9  -8-383.404 220.987   5
  -1  -9   8 286.218 252.184   6
  -1  -9   8 200.291 196.957   2
  -1  -9   7-206.201 181.766   2
  -1  -9   7 42.1219 181.057   6
   1   9  -7 64.7519 181.401   5
  -1  -9   6 2241.76 344.896   2
   1   9  -6 2135.07 369.402   7
  -1  -9   6 2243.67 400.711   6
   1   9  -5 603.385 246.105   7
  -1  -9   5 1036.93 273.696   2
  -1  -9   5 1032.37 297.968   6
  -1  -9   4 979.637 233.542   2
   1   9  -4 1154.96 282.916   7
  -1  -9   4 1306.23 279.836   6
  -1  -9   3 3476.89 392.588   2
   1   9  -3 4299.05 487.966   7
  -1  -9   3 4077.42 431.711   6
   1   9  -3 3388.30 270.185   4
   1   9  -2 576.757 225.113   7
  -1  -9   2 798.819 231.983   6
  -1  -9   2 758.157 214.945   2
   1   9  -2 858.422 176.218   4
   1   9  -1 18185.3 752.012   1
   1   9  -1 17930.2 703.544   4
   1   9  -1 18355.6 1002.90   7
  -1  -9   1 17889.6 818.708   6
  -1  -9   1 17344.2 826.718   2
  -1  -9   0 4834.34 384.197   3
   1   9   0 4558.87 401.985   1
  -1  -9   0 4653.85 419.785   2
   1   9   0 5405.70 548.682   7
   1   9   0 5445.40 396.755   4
  -1  -9  -1-166.269 170.923   2
   1   9   1-130.807 144.492   4
  -1  -9  -1-35.7996 128.042   3
   1   9   1-115.786 136.039   1
   1   9   1 49.5802 211.840   7
   1   9   2 8947.49 594.707   1
  -1  -9  -2 8200.14 548.297   3
   1   9   2 8069.13 684.153   7
  -1  -9  -2 8921.77 579.331   2
   1   9   3 3395.55 478.103   7
  -1  -9  -3 3976.29 410.613   3
   1   9   3 4047.57 432.510   1
  -1  -9  -3 3813.15 400.953   2
   1   9   4 609.798 241.066   1
   1   9   4 301.873 235.886   7
  -1  -9  -4 189.749 160.422   3
  -1  -9  -4-58.4808 148.162   2
  -1  -9  -5 18989.8 934.424   3
   1   9   5 20231.0 991.498   1
  -1  -9  -5 18904.9 896.735   2
   1   9   5 19302.8 1024.83   7
  -1  -9  -6 9807.09 704.887   3
  -1  -9  -6 8864.35 626.241   2
   1   9   6 9173.65 706.428   7
   1   9   6 10979.0 740.682   1
  -1  -9  -7 167.023 178.316   3
   1   9   7 26.4849 177.817   1
  -1  -9  -7 226.645 182.312   2
   1   9   7-46.7900 192.640   7
  -1  -9  -8 6526.42 611.922   3
   1   9   8 7082.86 631.529   1
   1   9   8 5545.40 555.078   7
  -1  -9  -8 6579.06 564.837   2
  -1  -9  -9 1321.76 312.130   2
   1   9   9 1230.41 302.157   7
  -1  -9  -9 817.716 252.354   3
   1   9   9 615.683 253.970   1
  -1  -9 -10 356.442 238.658   2
  -1  -9 -10 77.5557 185.743   3
   1   9  10 135.682 221.204   7
   1   9  10 98.3318 185.230   1
   1   9  11 5349.85 544.400   7
  -1  -9 -11 5685.56 628.724   3
   1   9  11 5404.01 601.871   1
  -1  -9 -11 5641.10 580.933   2
   1   9  12 932.342 323.629   1
  -1  -9 -12 724.322 268.830   3
  -1  -9 -12 813.471 304.148   2
  -1  -9 -13 333.921 245.178   2
   1   9  13 409.434 254.035   1
  -1 -10   6 1489.33 296.431   2
  -1 -10   6 1407.89 344.409   6
  -1 -10   5 807.117 266.803   6
   1  10  -5 1248.68 312.083   7
  -1 -10   5 720.425 243.331   2
  -1 -10   4 2721.42 385.193   2
  -1 -10   4 2799.27 403.215   6
   1  10  -4 2535.55 437.930   7
   1  10  -4 2167.97 233.821   4
   1  10  -3 9649.27 762.923   7
  -1 -10   3 8364.43 625.998   2
   1  10  -3 9583.04 498.939   4
  -1 -10   2 2652.22 359.087   2
   1  10  -2 3240.99 467.965   7
   1  10  -2 3200.90 310.246   4
  -1 -10   1 1591.51 277.991   2
   1  10  -1 1707.33 352.303   7
   1  10  -1 991.089 195.707   4
   1  10   0 7548.15 523.077   1
   1  10   0 6855.36 657.150   7
   1  10   0 7077.91 492.800   4
  -1 -10   0 7244.02 554.855   2
  -1 -10  -1 2642.27 362.403   2
   1  10   1 1958.30 309.304   1
   1  10   1 2605.18 427.606   7
  -1 -10  -2 3037.21 389.359   2
   1  10   2 2428.18 395.376   7
  -1 -10  -2 3016.20 356.618   3
   1  10   2 2444.63 330.654   1
  -1 -10  -3 9001.21 618.924   3
  -1 -10  -3 9714.49 657.066   2
   1  10   3 8746.25 637.111   1
   1  10   3 7427.64 672.736   7
  -1 -10  -4 248.005 216.107   3
   1  10   4 51.7655 215.154   7
  -1 -10  -4 73.8989 147.364   2
   1  10   4 121.212 190.558   1
  -1 -10  -5 1035.05 306.304   3
   1  10   5 782.204 247.092   1
  -1 -10  -5 1151.00 245.301   2
   1  10   5 1016.53 291.412   7
  -1 -10  -6 5576.68 532.855   2
   1  10   6 6224.67 584.164   1
   1  10   6 5987.15 605.801   7
  -1 -10  -6 6426.16 586.820   3
   1  10   7-143.698 218.201   1
  -1 -10  -7-214.263 213.327   3
   1  10   7 108.777 182.135   7
  -1 -10  -7 271.172 218.399   2
  -1 -10  -8 50.2189 174.941   2
   1  10   8 267.697 238.903   7
  -1 -10  -8-163.267 232.579   3
   1  10   8 370.532 271.658   1
   1  10   9 2476.37 432.311   1
   1  10   9 2572.98 417.782   7
  -1 -10  -9 2650.25 412.001   3
  -1 -10  -9 2900.54 422.534   2
  -1 -10 -10 113.309 258.010   3
  -1 -10 -10 272.960 225.771   2
   1  10  10 444.379 283.451   1
   1  10  10 442.370 251.535   7
  -1 -10 -11 410.089 268.933   2
   1  10  11 449.092 242.392   1
   1  10  11 214.596 217.721   7
  -1 -10 -11-185.101 213.251   3
  -1 -11   4 439.993 208.233   2
   1  11  -4 867.249 337.821   7
   1  11  -4 579.817 152.039   4
  -1 -11   3 1618.12 315.097   2
   1  11  -3 1779.20 402.700   7
   1  11  -3 1793.71 258.900   4
  -1 -11   2 531.656 228.649   2
   1  11  -2 607.772 181.010   4
   1  11  -1 574.982 244.321   7
   1  11  -1 700.363 198.640   4
  -1 -11   1 1036.54 265.197   2
   1  11   0 4211.17 539.198   7
  -1 -11   0 3807.56 439.304   2
   1  11   1 15.9820 139.562   1
  -1 -11  -1-23.1649 160.304   2
   1  11   1 27.8754 226.436   7
   1  11   2 345.085 160.417   1
  -1 -11  -2 661.894 214.817   2
   1  11   2 204.750 208.386   7
  -1 -11  -3 2433.41 355.440   2
   1  11   3 2556.75 372.972   1
   1  11   3 2197.72 422.508   7
  -1 -11  -3 2232.88 330.604   3
   1  11   4 442.685 277.573   7
   1  11   4 1016.31 254.164   1
  -1 -11  -4 859.989 251.578   2
  -1 -11  -4 1073.04 231.090   3
   1  11   5 624.821 232.408   1
  -1 -11  -5 450.772 212.197   3
   1  11   5 338.469 251.454   7
  -1 -11  -5 661.333 205.919   2
   1  11   6 316.583 172.850   1
  -1 -11  -6 480.145 224.104   3
  -1 -11  -6 331.133 193.261   2
   1  11   7 1998.28 389.049   1
  -1 -11  -7 2069.07 358.626   2
  -1 -11  -7 1653.15 350.128   3
   1  11   7 1756.20 384.954   7
   1  11   8 2151.86 417.410   1
  -1 -11  -8 2090.47 396.118   3
   1  11   8 2241.58 458.478   7
  -1 -11  -8 1044.94 244.414   2
  -1 -11  -9 582.563 270.290   3
  -1 -11  -9 853.640 289.747   2
   1  11   9 230.142 191.611   7
   1  11   9 213.698 232.733   1
   1  11  10-162.446 242.060   7
  -1 -11 -10-104.001 179.546   2
   1  11  10 76.1908 240.094   1
  -1 -12   0 636.959 248.966   2
   1  12   0 220.546 246.206   7
  -1 -12  -1 358.118 218.441   2
   1  12   1 98.9773 227.952   7
   1  12   2 839.841 353.028   7
  -1 -12  -2 143.324 178.131   2
   1  12   2 1091.82 290.221   1
  -1 -12  -3 14.8426 177.300   2
   1  12   3 375.336 256.678   7
   1  12   3 402.169 235.710   1
  -1 -12  -4 345.105 223.795   2
   1  12   4 285.017 194.075   1
   1  12   4 547.447 324.253   7
  -1 -12  -5 507.215 204.082   3
   1  12   5 226.941 272.100   7
   1  12   5 559.863 289.102   1
  -1 -12  -5 264.196 220.481   2
   1  12   6 317.731 254.271   1
   1  12   6 357.796 210.921   7
  -1 -12  -6 420.378 168.826   3
  -1 -12  -6 446.508 246.306   2
  -2  10   8 143.554 252.894   7
   2 -10  -8-532.331 310.528   3
  -2  10   8 135.059 217.438   1
   2 -10  -8 158.117 244.812   2
   2 -10  -7 377.905 255.493   2
  -2  10   7-200.799 212.597   7
  -2  10   7 37.3987 212.255   1
  -2  10   6 140.041 235.196   1
  -2  10   6-181.292 268.405   7
   2 -10  -6 14.2032 198.487   3
   2 -10  -6-350.416 237.718   2
   2 -10  -5 110.641 211.088   2
  -2  10   5 196.320 218.061   7
  -2  10   5 519.361 264.456   1
   2 -10  -5 104.230 169.763   3
   2 -10  -4 4866.69 510.190   3
   2 -10  -4 5241.06 561.717   2
  -2  10   4 4920.06 597.670   7
  -2  10   4 5525.87 577.500   1
   2 -10  -3 205.816 242.095   2
   2 -10  -3 111.623 189.086   3
  -2  10   3 207.876 213.166   7
  -2  10   3 345.172 208.431   1
   2 -10  -2-54.6667 198.377   2
  -2  10   2 114.945 294.132   7
  -2  10   2-101.153 176.962   1
  -2  10   1 682.428 244.281   7
  -2  10   1 280.441 164.011   1
   2 -10  -1 359.818 193.840   2
   2 -10   0 444.752 204.361   2
  -2  10   0 296.992 271.589   7
  -2  10   0 899.652 257.085   1
   2 -10   1 1165.65 322.023   2
  -2  10  -1 1050.72 328.963   7
  -2  10  -1 517.079 166.796   4
  -2  10  -2 858.693 279.457   7
   2 -10   2 389.111 260.732   2
  -2  10  -2 183.027 135.126   4
   2  -9 -10-5.87371 184.774   2
  -2   9  10-111.145 246.091   1
   2  -9  -9 482.030 317.165   2
   2  -9  -9-26.9914 283.745   3
  -2   9   9 261.516 205.544   7
  -2   9   9 383.011 287.294   1
  -2   9   8 1304.15 322.728   1
   2  -9  -8 386.875 222.334   3
   2  -9  -8 838.053 276.340   2
  -2   9   8 584.338 272.871   7
   2  -9  -7-169.818 211.595   3
  -2   9   7 101.964 209.848   1
  -2   9   7-94.2379 206.251   7
   2  -9  -7 254.933 187.413   2
   2  -9  -6 140.270 209.863   2
   2  -9  -6 247.839 230.028   3
  -2   9   6 352.014 222.340   1
  -2   9   6 40.2474 176.972   7
   2  -9  -5 6796.39 609.804   3
  -2   9   5 6891.37 674.953   7
   2  -9  -5 5552.21 563.055   2
  -2   9   5 6912.32 623.383   1
   2  -9  -4 423.012 198.144   2
  -2   9   4 308.216 268.451   7
   2  -9  -4 485.621 214.166   3
  -2   9   4 731.309 285.593   1
   2  -9  -3 10782.4 700.853   3
  -2   9   3 12422.9 885.684   7
   2  -9  -3 11961.4 797.013   2
  -2   9   3 12515.6 798.643   1
   2  -9  -2 248.079 203.784   2
  -2   9   2-71.6131 244.749   7
   2  -9  -2 12.9139 179.445   3
  -2   9   2 38.2590 165.863   1
  -2   9   1 49.3170 152.072   1
   2  -9  -1 202.600 191.882   2
  -2   9   0-78.1764 205.468   7
  -2   9   0 129.713 131.381   4
   2  -9   0 139.801 167.386   2
  -2   9   0 279.089 204.419   1
  -2   9  -1 8582.68 732.111   7
  -2   9  -1 8718.92 566.076   4
  -2   9  -1 9263.62 612.767   1
   2  -9   1 9850.12 736.455   2
   2  -9   2 1320.55 301.191   2
  -2   9  -2 1321.31 310.517   7
  -2   9  -2 1089.69 222.609   4
  -2   9  -3 2305.50 397.685   7
   2  -9   3 1810.22 371.125   2
  -2   9  -4 7125.82 665.542   7
   2  -9   4 7184.06 652.502   2
   2  -9   5 1862.61 408.419   2
  -2   9  -5 1169.85 306.231   5
  -2   8  11 240.073 196.660   7
   2  -8 -11 513.649 286.610   3
  -2   8  11 907.839 385.708   1
   2  -8 -11 481.624 257.419   2
   2  -8 -10 4218.00 548.926   3
  -2   8  10 4101.93 503.570   7
   2  -8 -10 4512.14 549.233   2
  -2   8  10 4940.46 599.648   1
   2  -8  -9 124.871 240.366   3
  -2   8   9-9.19420 212.100   1
  -2   8   9 378.907 261.556   7
   2  -8  -9 352.865 243.649   2
   2  -8  -8 5433.84 568.002   3
   2  -8  -8 4506.47 521.118   2
  -2   8   8 4591.90 537.684   7
  -2   8   8 5070.46 564.671   1
   2  -8  -7 5971.79 582.601   3
   2  -8  -7 5158.61 533.744   2
  -2   8   7 4112.15 493.376   7
  -2   8   7 4943.39 546.242   1
   2  -8  -6 1714.83 351.554   3
  -2   8   6 1885.72 365.351   1
  -2   8   6 1826.52 359.342   7
   2  -8  -6 1698.47 342.510   2
  -2   8   5 4420.39 538.185   7
   2  -8  -5 5185.56 507.887   3
  -2   8   5 5055.83 518.136   1
   2  -8  -5 4623.05 498.727   2
   2  -8  -4 6549.10 561.221   3
  -2   8   4 5419.58 571.204   7
   2  -8  -4 6160.16 556.453   2
  -2   8   4 5559.77 526.572   1
  -2   8   3 427.972 243.923   1
  -2   8   3-56.2735 182.248   7
   2  -8  -3-66.4251 165.934   3
   2  -8  -3-159.988 229.568   2
   2  -8  -2 34175.6 1309.93   2
  -2   8   2 35414.5 1442.55   7
  -2   8   2 34340.6 1272.50   1
   2  -8  -2 33634.4 1201.41   3
   2  -8  -1 24991.7 979.014   3
  -2   8   1 25863.8 1225.76   7
  -2   8   1 28540.7 1114.39   1
   2  -8  -1 25974.5 1127.84   2
  -2   8   1 25995.5 998.138   4
   2  -8   0 3187.60 331.048   3
  -2   8   0 3181.94 370.906   1
  -2   8   0 2739.30 315.631   4
  -2   8   0 2531.00 417.789   7
   2  -8   0 2453.83 353.281   2
  -2   8  -1 15459.0 918.611   7
   2  -8   1 15057.9 850.859   2
  -2   8  -1 15710.9 782.974   1
  -2   8  -1 15168.9 710.234   4
  -2   8  -2 13280.8 690.882   1
  -2   8  -2 14094.6 871.276   7
   2  -8   2 12482.1 777.093   2
  -2   8  -3 208.021 214.103   7
   2  -8   3 823.620 238.417   2
  -2   8  -4 6698.79 597.827   7
   2  -8   4 6121.09 572.905   2
   2  -8   5 6097.58 573.445   2
  -2   8  -5 4873.72 519.191   5
  -2   8  -5 4953.85 507.729   7
  -2   8  -6 185.583 202.244   5
   2  -8   6 69.9821 192.808   2
   2  -8   7 3060.60 471.254   2
  -2   8  -7 2825.99 421.405   9
  -2   8  -7 2574.35 421.818   5
  -2   7  13 2022.59 451.363   1
   2  -7 -13 2061.67 419.462   2
   2  -7 -12 391.607 288.430   2
  -2   7  12 283.157 207.843   1
   2  -7 -12 180.513 237.605   3
  -2   7  11 965.806 279.927   1
  -2   7  11 1068.87 295.929   7
   2  -7 -11 905.876 276.824   3
   2  -7 -11 1254.51 313.442   2
   2  -7 -10 5544.59 594.891   3
  -2   7  10 5735.35 551.087   7
   2  -7 -10 6357.86 623.383   2
  -2   7  10 6864.93 642.114   1
  -2   7   9-1.55011 200.939   7
  -2   7   9 59.3575 186.632   1
   2  -7  -9-198.287 223.771   3
  -2   7   8 1246.32 308.823   1
   2  -7  -8 981.052 275.464   2
  -2   7   8 725.976 270.373   7
   2  -7  -8 219.764 206.552   3
   2  -7  -7 16740.0 931.744   3
  -2   7   7 16842.6 927.149   7
   2  -7  -7 17549.7 934.564   2
  -2   7   7 18262.2 971.938   1
   2  -7  -6 6829.17 575.081   3
  -2   7   6 5844.89 561.413   7
   2  -7  -6 7811.11 614.790   2
  -2   7   6 6889.61 586.444   1
  -2   7   5 441.700 247.003   1
   2  -7  -5 29.2507 197.732   2
  -2   7   5 62.9548 187.001   7
   2  -7  -5 553.806 257.924   3
  -2   7   4 74697.4 2084.41   7
   2  -7  -4 67244.0 1864.60   3
  -2   7   4 74575.9 1971.88   1
   2  -7  -4 67581.7 1892.96   2
   2  -7  -3 6.34138 157.971   2
  -2   7   3 214.957 176.458   7
  -2   7   3 175.513 144.162   1
   2  -7  -3-57.2456 201.700   3
  -2   7   2 55.4429 138.124   4
   2  -7  -2-40.0414 170.209   2
  -2   7   2 437.458 205.644   1
   2  -7  -2-131.825 151.888   3
  -2   7   2 136.360 174.152   7
   2  -7  -1 31163.0 1054.64   3
  -2   7   1 29338.0 1238.49   7
  -2   7   1 30673.6 1122.40   1
  -2   7   1 31134.8 1040.30   4
   2  -7  -1 31095.6 1172.95   2
   2  -7   0-42.5630 167.336   2
   2  -7   0-41.3064 131.640   3
  -2   7   0-35.5561 183.464   7
  -2   7   0 161.603 154.301   1
  -2   7   0 206.942 131.863   4
   2  -7   1 1912.30 295.990   2
   2  -7   1 1814.59 246.629   3
  -2   7  -1 2286.11 305.151   1
  -2   7  -1 2143.67 360.481   7
  -2   7  -2 34321.7 1305.71   7
  -2   7  -2 33151.5 1086.17   1
   2  -7   2 30353.1 1192.35   2
   2  -7   3 67.6060 159.995   2
  -2   7  -3 249.277 190.538   7
  -2   7  -3 503.660 172.977   1
   2  -7   4 692.713 231.836   2
  -2   7  -4 987.321 240.112   7
  -2   7  -5 5371.23 494.236   7
   2  -7   5 5761.83 548.452   2
  -2   7  -5 6053.86 550.748   5
   2  -7   6 37.8354 165.508   2
  -2   7  -6 20.9555 155.003   5
   2  -7   7 652.851 266.138   2
  -2   7  -7 501.743 190.529   9
  -2   7  -7 629.243 217.704   5
  -2   7  -8 156.842 156.310   9
   2  -7   8-220.231 241.486   2
  -2   7  -8-91.5600 193.866   5
  -2   7  -9 384.590 212.899   9
   2  -7   9-32.1209 169.550   2
   2  -6 -13 284.116 219.693   3
   2  -6 -13 52.4034 217.764   2
  -2   6  13 662.579 300.612   1
   2  -6 -12 1225.94 338.407   2
   2  -6 -12 1451.43 313.442   3
  -2   6  12 903.983 266.483   1
   2  -6 -11 503.589 248.403   3
  -2   6  11 316.118 205.052   7
   2  -6 -11 1179.95 319.356   2
  -2   6  11 1125.16 298.575   1
   2  -6 -10 233.334 241.890   2
  -2   6  10 409.414 238.736   1
  -2   6  10 437.657 223.238   7
   2  -6 -10 288.859 257.206   3
   2  -6  -9-155.261 197.000   2
   2  -6  -9-259.909 237.127   3
  -2   6   9 32.6475 244.925   1
  -2   6   9 44.9923 181.632   7
  -2   6   8 504.586 207.847   7
   2  -6  -8-51.6158 193.681   2
   2  -6  -8 258.423 216.301   3
  -2   6   8 278.765 200.168   1
  -2   6   7 4218.41 433.647   7
   2  -6  -7 4485.88 464.464   2
  -2   6   7 4134.46 447.171   1
   2  -6  -7 3778.15 447.708   3
   2  -6  -6 1077.82 274.645   3
  -2   6   6 750.761 228.830   1
   2  -6  -6 1121.23 253.197   2
  -2   6   6 501.309 203.480   7
  -2   6   5 4361.12 449.909   7
   2  -6  -5 4598.89 445.325   2
  -2   6   5 4218.00 423.160   1
   2  -6  -5 4238.57 423.847   3
   2  -6  -4 6787.70 508.626   3
  -2   6   4 7894.58 566.061   1
  -2   6   4 6955.58 564.578   7
   2  -6  -4 7192.13 534.906   2
   2  -6  -3 559.944 195.506   2
  -2   6   3 258.357 155.648   1
   2  -6  -3 652.097 171.037   3
  -2   6   3 813.299 249.700   7
  -2   6   2 23959.9 1040.13   7
   2  -6  -2 24550.4 918.281   3
   2  -6  -2 23876.5 962.247   2
  -2   6   2 26174.3 992.724   1
  -2   6   2 23306.1 860.308   4
   2  -6  -1 3479.06 363.527   2
   2  -6  -1 3458.27 331.042   3
  -2   6   1 3737.40 407.670   7
  -2   6   1 3639.59 356.837   1
  -2   6   1 4088.94 343.138   4
  -2   6   0 1337.71 232.605   1
   2  -6   0 1646.19 277.011   2
  -2   6   0 1942.67 317.065   7
   2  -6   0 1617.66 240.676   3
   2  -6   1 23228.3 782.325   3
   2  -6   1 22460.9 955.404   2
  -2   6  -1 24441.5 1027.38   7
  -2   6  -1 23887.7 866.042   1
   2  -6   2 9385.41 464.718   3
   2  -6   2 10018.1 625.892   2
  -2   6  -2 10237.4 647.565   7
  -2   6  -2 10618.0 549.715   1
  -2   6  -3 5692.16 482.942   7
   2  -6   3 5943.21 491.377   2
  -2   6  -3 5455.09 382.263   1
  -2   6  -4 33264.7 973.839   1
  -2   6  -4 34342.6 1204.36   7
   2  -6   4 33180.7 1218.69   2
  -2   6  -5 4418.30 416.265   7
   2  -6   5 5239.74 482.421   2
  -2   6  -5 4359.45 427.322   5
   2  -6   6 941.101 252.217   2
  -2   6  -6 1121.07 228.630   7
  -2   6  -6 824.672 216.712   5
   2  -6   7 12925.5 808.178   2
  -2   6  -7 12080.5 736.572   9
   2  -6   8 815.187 280.916   2
  -2   6  -8 869.133 255.194   5
  -2   6  -8 1034.36 252.842   9
   2  -6   9 247.994 191.646   2
  -2   6  -9 19.3677 151.669   5
  -2   6  -9 228.232 185.826   9
  -2   6 -10 1587.13 329.782   9
  -2   6 -10 1773.70 364.571   5
   2  -6  10 2041.74 386.658   2
  -2   5  14 43.3517 193.139   1
   2  -5 -14 45.0718 209.256   2
   2  -5 -14-162.609 237.249   3
   2  -5 -13 296.288 197.725   2
   2  -5 -13-8.92962 212.019   3
  -2   5  13 88.1359 234.908   1
  -2   5  12 211.274 217.785   1
   2  -5 -12 282.853 216.447   3
   2  -5 -12-59.5970 181.385   2
   2  -5 -11 987.297 298.550   2
  -2   5  11 417.370 185.405   7
   2  -5 -11 641.517 199.835   3
  -2   5  11 722.191 244.476   1
   2  -5 -10 372.783 217.037   2
  -2   5  10 82.9650 148.330   7
   2  -5 -10-158.268 262.964   3
  -2   5  10 282.143 191.239   1
   2  -5  -9 516.396 208.071   3
   2  -5  -9 337.560 189.680   2
  -2   5   9 742.735 225.407   7
  -2   5   9 854.079 263.515   1
  -2   5   8 3361.93 426.110   1
   2  -5  -8 3314.79 393.937   2
  -2   5   8 2860.76 359.224   7
   2  -5  -8 2892.76 380.220   3
  -2   5   7 16515.5 812.881   7
   2  -5  -7 17245.8 852.084   2
   2  -5  -7 16575.5 858.745   3
  -2   5   7 17417.3 865.518   1
   2  -5  -6 669.732 215.169   2
  -2   5   6 828.265 230.136   7
  -2   5   6 772.977 246.136   1
   2  -5  -6 859.780 236.103   3
   2  -5  -5 49771.4 1483.23   3
  -2   5   5 51371.9 1517.80   7
   2  -5  -5 52179.5 1489.64   2
  -2   5   5 53134.3 1522.50   1
  -2   5   4 57118.2 1618.79   7
   2  -5  -4 57612.4 1551.48   2
   2  -5  -4 59608.6 1568.18   3
  -2   5   4 57624.0 1589.75   1
   2  -5  -3 547.197 146.407   2
  -2   5   3 925.688 251.386   7
  -2   5   3 744.659 173.487   1
   2  -5  -3 327.568 166.717   3
  -2   5   3 543.870 127.330   4
  -2   5   2 56007.1 1566.22   7
   2  -5  -2 54649.5 1472.29   2
   2  -5  -2 53608.5 1407.32   3
  -2   5   2 55794.7 1448.04   1
  -2   5   2 56169.4 1357.56   4
   2  -5  -1 102222. 2062.11   3
   2  -5  -1 98579.4 2168.57   2
  -2   5   1 100063. 2288.72   7
  -2   5   1 105207. 2035.11   4
  -2   5   1 103267. 2124.61   1
   2  -5   0 323.286 138.923   2
  -2   5   0 336.102 139.424   7
  -2   5   0 734.868 168.238   1
   2  -5   0 443.160 135.228   3
   2  -5   1 58400.6 1309.14   3
  -2   5  -1 57711.5 1384.89   1
  -2   5  -1 59633.2 1601.13   7
   2  -5   1 57858.7 1511.05   2
   2  -5   2 81416.7 1905.46   2
   2  -5   2 81544.7 1601.32   3
  -2   5  -2 82717.6 1956.58   7
  -2   5  -2 81226.8 1702.03   1
   2  -5   3 3567.93 244.129   3
   2  -5   3 3193.79 352.566   2
  -2   5  -3 3711.46 292.028   1
  -2   5  -3 3255.64 325.806   7
  -2   5  -4 36527.5 972.645   1
  -2   5  -4 37715.8 1175.76   7
   2  -5   4 34388.4 1206.76   2
   2  -5   4 36412.4 859.180   3
  -2   5  -4 37155.1 1197.97   5
   2  -5   5 54148.7 1560.42   2
  -2   5  -5 51888.1 1191.15   1
  -2   5  -5 52918.2 1506.80   5
  -2   5  -5 54322.1 1443.80   7
  -2   5  -6 190.400 104.069   7
   2  -5   6 221.985 174.244   6
   2  -5   6 294.311 206.416   2
  -2   5  -6 241.919 146.319   5
   2  -5   7 4657.81 527.408   6
   2  -5   7 5217.18 490.782   2
  -2   5  -7 5231.52 462.071   9
  -2   5  -7 5206.01 478.109   5
   2  -5   8 16971.7 914.920   2
  -2   5  -8 16882.1 873.097   9
  -2   5  -8 18279.9 921.025   5
  -2   5  -9 2669.99 376.162   5
  -2   5  -9 1943.88 317.796   9
   2  -5   9 2007.68 363.380   2
   2  -5  10 4977.34 554.245   2
  -2   5 -10 4330.27 470.392   9
  -2   5 -10 4535.40 484.268   5
   2  -5  11 2718.84 433.951   2
  -2   5 -11 2759.94 398.672   9
  -2   5 -11 2348.03 390.661   5
  -2   4  14-29.7446 200.824   1
   2  -4 -14-20.7493 198.279   3
   2  -4 -13 1757.72 372.343   3
  -2   4  13 1706.40 334.786   1
   2  -4 -12 1953.60 367.798   3
  -2   4  12 2304.00 364.223   1
  -2   4  11 107.074 131.968   7
   2  -4 -11-90.7222 179.841   3
  -2   4  11 174.947 164.909   1
   2  -4 -10 18407.3 936.330   3
   2  -4 -10 18289.6 918.127   2
  -2   4  10 17683.0 781.991   7
  -2   4  10 17657.6 901.564   1
  -2   4   9 481.485 172.038   7
   2  -4  -9 525.289 213.945   2
   2  -4  -9 232.893 165.910   3
  -2   4   9 513.152 191.131   1
   2  -4  -8 3519.49 397.548   2
   2  -4  -8 3401.97 403.653   3
  -2   4   8 3412.85 384.385   1
  -2   4   8 3812.47 377.469   7
   2  -4  -7 27923.9 1046.71   2
  -2   4   7 26007.7 965.000   7
   2  -4  -7 26414.8 1045.38   3
  -2   4   7 28151.7 1068.21   1
   2  -4  -6 9794.41 598.485   3
   2  -4  -6 10561.1 604.992   2
  -2   4   6 11081.6 638.579   1
  -2   4   6 10383.4 586.113   7
   2  -4  -5 9138.68 564.674   3
   2  -4  -5 10839.9 589.063   2
  -2   4   5 10465.0 590.302   7
  -2   4   5 10323.2 606.845   1
   2  -4  -4 132224. 2575.05   3
  -2   4   4 133489. 2625.95   7
   2  -4  -4 127720. 2554.34   2
  -2   4   4 133660. 2590.98   1
   2  -4  -3 80081.0 1795.97   3
  -2   4   3 82855.7 1879.60   7
  -2   4   3 81450.0 1805.49   1
   2  -4  -3 79838.6 1784.55   2
  -2   4   3 79875.5 1680.64   4
   2  -4  -2 17656.3 698.269   3
   2  -4  -2 16938.6 702.578   2
  -2   4   2 18088.8 711.225   1
  -2   4   2 18766.3 667.519   4
  -2   4   2 17855.1 769.451   7
   2  -4  -1 270289. 4159.62   3
  -2   4   1 263366. 4183.09   1
  -2   4   1 264399. 4373.45   7
   2  -4   0 1744.79 226.322   2
   2  -4   0 2165.04 219.840   3
  -2   4   0 1931.55 258.242   7
  -2   4  -1 20617.1 802.837   7
  -2   4  -1 20506.6 689.828   1
   2  -4   1 19634.3 635.756   3
   2  -4   1 19205.1 751.456   2
   2  -4   2 155319. 2535.70   3
  -2   4  -2 158717. 2875.28   7
   2  -4   2 154771. 2843.95   2
  -2   4  -2 153398. 2625.26   1
   2  -4   3 23705.7 662.940   3
  -2   4  -3 24130.9 854.976   7
   2  -4   3 24426.7 885.423   2
  -2   4  -3 24244.5 724.916   1
   2  -4   4 3334.72 221.530   3
   2  -4   4 2632.77 301.336   2
  -2   4  -4 3461.43 309.363   7
  -2   4  -4 3280.35 240.952   1
  -2   4  -4 2866.97 302.671   5
   2  -4   5 75940.5 1388.37   3
   2  -4   5 78163.0 1884.44   2
  -2   4  -5 80531.6 1716.16   7
  -2   4  -5 77261.7 1497.73   1
   2  -4   5 81459.2 2069.30   6
  -2   4  -5 79365.6 1838.42   5
   2  -4   6 14688.4 754.792   2
  -2   4  -6 15071.1 608.852   7
  -2   4  -6 13943.2 688.284   9
  -2   4  -6 15860.9 528.917   1
  -2   4  -6 15697.0 751.723   5
   2  -4   6 15105.9 854.095   6
   2  -4   7 374.141 169.121   2
   2  -4   7 344.539 175.215   6
  -2   4  -7 652.278 192.771   9
  -2   4  -7 508.270 134.856   7
  -2   4  -7 936.652 226.922   5
   2  -4   8 15889.4 965.999   6
  -2   4  -8 14244.0 763.873   9
   2  -4   8 14389.6 803.559   2
  -2   4  -8 14634.6 777.121   5
  -2   4  -9 797.194 219.678   9
   2  -4   9 557.457 274.395   6
  -2   4  -9 646.007 242.980   5
   2  -4   9 1114.86 284.371   2
  -2   4 -10 459.113 191.444   9
  -2   4 -10 668.608 223.620   5
   2  -4  10 662.429 257.739   2
   2  -4  11 3341.47 462.245   2
  -2   4 -11 2290.85 352.966   9
  -2   4 -11 3166.66 406.593   5
   2  -4  12 1050.06 290.217   2
  -2   4 -12 1023.25 286.770   9
  -2   4 -12 1524.64 322.835   5
   2  -3 -14 143.635 172.406   3
   2  -3 -13 2897.00 400.412   3
  -2   3  13 2526.82 352.415   1
  -2   3  12 6908.24 547.358   1
   2  -3 -12 6227.74 562.758   3
   2  -3 -11 668.185 231.965   3
  -2   3  11 844.331 230.916   1
  -2   3  10 9148.07 524.009   7
  -2   3  10 9256.66 535.889   6
   2  -3 -10 10133.7 648.060   3
  -2   3  10 9747.03 625.110   1
  -2   3   9 17220.2 708.229   7
  -2   3   9 16027.5 673.403   6
   2  -3  -9 16949.8 824.608   3
  -2   3   9 16662.1 804.318   1
   2  -3  -8 4530.73 423.298   3
  -2   3   8 4161.88 346.401   7
  -2   3   8 4802.80 417.016   1
  -2   3   8 4369.92 317.990   6
   2  -3  -7 30138.0 1055.91   3
   2  -3  -7 29402.1 1040.34   2
  -2   3   7 28979.8 817.060   6
  -2   3   7 29984.4 962.662   7
  -2   3   7 30165.9 1045.47   1
   2  -3  -6 97171.0 2112.55   3
  -2   3   6 93749.6 1709.82   6
  -2   3   6 101289. 2139.22   1
  -2   3   6 99685.1 2031.02   7
   2  -3  -6 99784.2 2111.36   2
   2  -3  -5 14489.9 665.435   3
  -2   3   5 14157.6 663.783   1
   2  -3  -5 15430.9 671.090   2
  -2   3   5 14794.5 643.528   7
   2  -3  -4 44192.1 1195.94   3
  -2   3   4 43380.2 1175.36   7
  -2   3   4 43051.7 1177.55   1
   2  -3  -4 43895.1 1172.56   2
   2  -3  -3 41052.6 1102.44   3
  -2   3   3 41886.2 1138.14   7
  -2   3   3 42349.4 1110.44   1
   2  -3  -3 40370.7 1089.48   2
   2  -3  -2 12450.7 535.099   3
   2  -3  -2 12607.6 555.580   2
  -2   3   2 12046.5 569.758   7
  -2   3   2 12925.7 545.113   1
   2  -3  -1 5797.39 354.708   2
   2  -3  -1 6371.42 365.433   3
  -2   3   1 6586.02 370.842   1
  -2   3   1 5668.11 383.524   7
   2  -3   0 58155.7 1351.85   2
   2  -3   0 61935.6 1270.68   3
  -2   3   0 61427.3 1418.33   7
  -2   3   0 62254.9 1309.97   1
   2  -3   1 18224.3 655.821   2
   2  -3   1 18026.8 565.672   3
  -2   3  -1 18873.4 608.659   1
  -2   3  -1 18172.6 685.765   7
   2  -3   2 4664.41 260.620   3
  -2   3  -2 5094.59 349.672   7
   2  -3   2 5041.67 347.958   2
  -2   3  -2 4848.83 286.078   1
   2  -3   3 94514.9 1946.90   2
  -2   3  -3 98560.0 1881.75   7
  -2   3  -3 95391.3 1892.81   5
  -2   3  -3 95843.1 1719.08   1
   2  -3   3 96626.1 1663.66   3
   2  -3   4 410.164 129.704   2
   2  -3   4 349.895 83.3186   3
  -2   3  -4 396.923 118.540   7
  -2   3  -4 449.095 127.667   5
  -2   3  -4 403.054 97.2860   1
   2  -3   5 1300.89 206.646   2
  -2   3  -5 1226.55 197.073   9
  -2   3  -5 1396.32 179.714   7
  -2   3  -5 1359.10 149.067   1
   2  -3   5 1385.72 143.658   3
  -2   3  -5 1302.40 211.644   5
   2  -3   6 10893.0 391.923   3
  -2   3  -6 12148.4 617.548   5
   2  -3   6 11592.0 627.301   2
   2  -3   6 11892.9 725.163   6
  -2   3  -6 11807.1 581.747   9
  -2   3  -6 11140.0 417.376   1
   2  -3   7 11373.8 657.801   2
   2  -3   7 12452.5 808.994   6
  -2   3  -7 11888.8 422.967   1
  -2   3  -7 11442.6 615.558   9
  -2   3  -7 10814.0 614.429   5
  -2   3  -7 10947.9 423.659   7
  -2   3  -8 361.763 170.332   5
   2  -3   8 318.861 237.826   6
  -2   3  -8 377.828 151.939   9
   2  -3   8 398.705 203.462   2
   2  -3   9 5327.89 505.280   2
  -2   3  -9 4272.23 409.728   9
   2  -3   9 5294.36 579.198   6
  -2   3  -9 4685.36 427.895   5
  -2   3 -10 396.793 177.299   9
  -2   3 -10 183.298 159.903   5
   2  -3  10 68.6088 171.342   2
  -2   3 -11 912.781 220.413   5
   2  -3  11 1373.38 307.387   2
  -2   3 -11 1331.76 294.162   9
  -2   3 -12 161.600 181.984   5
   2  -3  12 496.357 272.940   2
  -2   3 -13 284.911 186.303   5
   2  -3  13 485.483 276.328   2
  -2   2  14 352.470 203.503   6
   2  -2 -13 736.620 245.576   3
  -2   2  13 589.471 234.536   6
  -2   2  12 1521.26 260.336   1
  -2   2  12 1569.04 278.145   6
   2  -2 -12 1361.00 283.465   3
  -2   2  11 359.551 169.756   6
   2  -2 -11 618.743 211.721   3
  -2   2  11 307.025 182.322   1
   2  -2 -10 5544.70 455.200   3
  -2   2  10 5421.89 438.302   6
  -2   2  10 6284.32 467.075   1
  -2   2  10 5693.22 373.908   7
  -2   2   9 15481.6 621.683   7
   2  -2  -9 15759.0 749.334   3
  -2   2   9 16243.2 732.735   6
  -2   2   9 15256.8 721.298   1
   2  -2  -8 3009.94 330.430   3
  -2   2   8 3290.01 305.525   6
  -2   2   8 3170.36 280.283   7
  -2   2   8 3390.53 333.547   1
   2  -2  -7 8271.63 504.513   3
  -2   2   7 9159.34 514.920   1
  -2   2   7 8699.41 445.858   7
  -2   2   7 9258.31 465.280   6
   2  -2  -6 34394.4 1038.71   3
  -2   2   6 33587.7 951.393   7
  -2   2   6 34774.3 1041.64   1
  -2   2   6 35187.9 915.127   6
  -2   2   5 62217.0 1446.75   1
   2  -2  -5 59525.3 1443.07   3
  -2   2   5 62429.9 1245.47   6
   2  -2  -5 61699.8 1440.20   2
   2  -2  -4 53763.4 1286.60   3
  -2   2   4 53327.3 1245.92   7
  -2   2   4 54857.9 1278.54   1
   2  -2  -4 53988.3 1261.43   2
   2  -2  -3 170590. 2898.39   3
  -2   2   3 172785. 2892.34   7
   2  -2  -3 177398. 2879.41   2
  -2   2   3 173425. 2886.19   1
  -2   2   2 201502. 3283.87   7
   2  -2  -2 204459. 3249.57   2
  -2   2   2 204843. 3253.33   1
   2  -2  -2 209330. 3263.90   3
  -2   2   1 143443. 2501.89   7
   2  -2  -1 151736. 2442.84   3
  -2   2   1 153677. 2462.38   1
   2  -2  -1 142944. 2448.04   2
   2  -2   0 62509.6 1221.14   3
  -2   2   0 61728.2 1240.42   1
  -2   2   0 60225.6 1307.68   7
   2  -2   0 62340.9 1278.82   2
   2  -2   1 4761.01 257.533   3
  -2   2  -1 4310.71 258.795   1
  -2   2  -1 4406.72 293.719   7
   2  -2   1 5014.25 295.027   2
   2  -2   2 70815.5 1288.42   3
  -2   2  -2 69199.6 1321.38   1
  -2   2  -2 71092.5 1397.45   7
   2  -2   2 70766.9 1441.46   2
  -2   2  -2 70574.0 1384.37   5
   2  -2   3 15047.6 456.121   3
  -2   2  -3 13836.9 528.354   5
   2  -2   3 14504.4 569.691   2
  -2   2  -3 14224.0 495.789   7
  -2   2  -3 14050.5 466.483   1
   2  -2   4 43038.9 901.198   3
  -2   2  -4 44904.2 1043.80   9
  -2   2  -4 43470.1 960.435   7
  -2   2  -4 43222.8 934.416   1
   2  -2   4 43549.4 1131.22   2
  -2   2  -4 45010.7 1110.66   5
  -2   2  -5 160359. 2543.91   1
  -2   2  -5 163807. 2540.54   7
  -2   2  -5 160770. 2769.55   9
   2  -2   5 159611. 2894.23   2
  -2   2  -5 163639. 2838.59   5
  -2   2  -6 137.004 66.1305   7
  -2   2  -6 99.5680 103.857   9
  -2   2  -6 107.677 132.350   5
  -2   2  -6 74.7408 71.4376   1
   2  -2   6-11.2103 65.3542   3
   2  -2   6 9.72893 142.939   2
  -2   2  -7 4813.77 219.008   7
   2  -2   7 4248.14 383.773   2
  -2   2  -7 4366.72 256.170   1
   2  -2   7 4363.48 466.914   6
  -2   2  -7 4430.53 371.006   5
  -2   2  -7 4692.11 366.559   9
   2  -2   7 4252.27 261.380   3
  -2   2  -8 61151.8 1560.90   9
   2  -2   8 62131.9 1915.53   6
  -2   2  -8 56648.1 1179.89   1
   2  -2   8 63720.0 1668.18   2
  -2   2  -8 60340.9 1562.39   5
  -2   2  -9 2404.48 308.292   9
  -2   2  -9 2520.51 314.038   5
   2  -2   9 2743.72 352.253   2
  -2   2 -10 328.439 170.179   9
  -2   2 -10 262.004 167.512   5
   2  -2  10 759.347 222.497   2
   2  -2  11 5413.35 535.066   2
  -2   2 -11 5247.62 481.293   5
  -2   2 -12 763.282 230.581   5
   2  -2  12 973.356 310.375   2
  -2   2 -13 597.014 209.661   5
   2  -2  13 232.419 210.198   2
   2  -2  14 1723.28 412.620   2
  -2   1  15 101.746 210.899   6
  -2   1  14 1497.71 334.012   6
  -2   1  13 160.271 156.918   6
  -2   1  12 398.675 178.780   6
   2  -1 -12 156.367 136.846   3
  -2   1  11 1925.79 304.854   6
  -2   1  11 2287.88 279.842   1
   2  -1 -11 2740.25 326.106   3
   2  -1 -10 10072.8 569.063   3
  -2   1  10 9999.71 644.860   6
  -2   1  10 9513.23 545.718   1
   2  -1  -9 8341.09 506.472   3
  -2   1   9 8313.36 556.603   6
  -2   1   9 7600.77 395.201   7
  -2   1   9 7217.50 459.611   1
  -2   1   8 2403.06 291.058   6
   2  -1  -8 2134.15 259.122   3
  -2   1   8 2153.53 248.120   1
  -2   1   8 2288.32 226.840   7
   2  -1  -7 29983.0 929.509   3
  -2   1   7 31502.2 846.594   7
  -2   1   7 30384.4 973.482   6
  -2   1   7 29768.4 926.013   1
   2  -1  -6 1607.29 210.992   3
  -2   1   6 1202.05 193.608   1
  -2   1   6 1203.45 161.044   7
  -2   1   6 1243.92 185.263   6
  -2   1   5 1005.75 156.041   6
  -2   1   5 1205.06 157.824   7
  -2   1   5 942.164 157.394   1
   2  -1  -5 922.844 151.163   3
  -2   1   4 84651.2 1376.56   5
   2  -1  -4 82860.3 1629.15   3
  -2   1   4 85977.5 1560.72   6
  -2   1   4 84254.9 1586.14   7
  -2   1   4 82403.8 1609.94   1
   2  -1  -3 65093.7 1314.60   3
  -2   1   3 63344.7 1287.59   7
  -2   1   3 63623.4 1294.24   1
   2  -1  -3 62962.4 1281.84   2
  -2   1   2 37095.2 874.914   7
  -2   1   2 36228.7 859.442   1
   2  -1  -2 36650.3 865.435   3
   2  -1  -2 36576.9 838.140   2
   2  -1  -1 416188. 5840.16   3
  -2   1   1 411784. 5844.71   1
  -2   1   1 409074. 5877.59   7
   2  -1  -1 421790. 5821.45   2
   2  -1   0 2466.15 187.254   3
  -2   1   0 2100.02 189.029   7
  -2   1   0 2246.85 185.541   1
   2  -1   0 2687.45 189.358   2
   2  -1   1 36454.1 787.329   3
  -2   1  -1 37028.0 755.187   5
  -2   1  -1 35522.0 821.034   7
  -2   1  -1 35528.0 802.324   1
   2  -1   1 38078.5 827.598   2
   2  -1   2 888462. 11963.9   3
  -2   1  -2 911550. 11989.8   7
   2  -1   2 893127. 12079.9   2
  -2   1  -2 886556. 12004.6   5
  -2   1  -3 328.086 87.9824   9
   2  -1   3 230.336 101.163   2
  -2   1  -3 477.030 94.7537   7
  -2   1  -3 364.838 91.7964   5
   2  -1   3 253.055 85.0158   3
  -2   1  -3 130.630 78.7010   1
  -2   1  -4 5402.99 272.388   1
   2  -1   4 5169.13 267.228   8
  -2   1  -4 4908.31 279.791   9
  -2   1  -4 5327.82 232.539   7
   2  -1   4 4723.41 309.711   2
  -2   1  -4 5027.86 301.846   5
   2  -1   4 4571.22 248.434   3
  -2   1  -5 432859. 6118.65   1
   2  -1   5 435726. 6129.95   8
  -2   1  -5 438275. 6281.54   9
   2  -1   5 444382. 6425.62   2
   2  -1   5 435186. 6123.12   3
  -2   1  -5 425366. 6345.47   5
  -2   1  -6 74159.9 1594.88   9
   2  -1   6 75545.4 1299.28   7
  -2   1  -6 78121.8 1432.69   1
   2  -1   6 75666.6 1703.98   2
   2  -1   6 78315.5 1457.89   3
   2  -1   6 77281.6 1430.92   8
  -2   1  -6 76335.2 1629.12   5
  -2   1  -7 5341.37 293.962   1
   2  -1   7 5955.87 437.810   2
   2  -1   7 5378.09 312.442   3
  -2   1  -7 5596.93 392.714   5
  -2   1  -7 5241.23 380.875   9
   2  -1   7 5021.89 287.251   8
  -2   1  -8 57864.6 1227.21   3
  -2   1  -8 56674.3 1468.31   5
  -2   1  -8 57528.2 1212.32   1
   2  -1   8 54841.0 1192.10   8
   2  -1   8 60846.3 1592.21   2
  -2   1  -8 57838.8 1481.93   9
   2  -1   8 59925.6 1306.71   3
  -2   1  -9 17555.4 787.874   5
  -2   1  -9 17654.7 600.638   1
   2  -1   9 19016.3 883.259   2
   2  -1  10 995.775 247.803   2
  -2   1 -10 567.284 186.238   5
  -2   1 -11 13841.3 761.801   5
   2  -1  11 15011.1 840.503   2
   2  -1  12 7047.20 612.213   2
  -2   1 -12 6244.82 534.505   5
  -2   1 -13 192.525 151.995   5
   2  -1  13 358.319 210.733   2
  -2   1 -14 754.819 238.125   5
   2  -1  14 906.603 291.170   2
  -2   0  15-108.686 191.257   6
  -2   0  14-2.00840 215.859   6
  -2   0  13 1356.41 309.035   6
  -2   0  12 10518.4 769.434   6
  -2   0  11 3462.69 442.843   6
   2   0 -11 3688.80 331.203   3
   2   0 -11 4449.75 314.388  10
   2   0 -11 4274.77 350.015   5
   2   0 -10 752.285 166.778   3
  -2   0  10 832.901 168.935   1
  -2   0  10 560.106 211.236   6
   2   0 -10 812.753 156.546   5
  -2   0   9 28028.9 1109.53   6
   2   0  -9 27456.4 882.778   3
  -2   0   9 27984.6 868.399   1
   2   0  -9 26339.6 817.803   5
   2   0  -8 11065.0 473.518   5
   2   0  -8 12061.8 536.449   3
  -2   0   8 11157.3 507.870   1
  -2   0   8 11871.9 664.013   6
   2   0  -7 35818.7 894.407   5
   2   0  -7 38036.0 994.548   3
  -2   0   7 39252.3 1184.32   6
  -2   0   7 37906.6 986.137   1
  -2   0   6 227051. 3465.55   7
   2   0  -6 231916. 3573.22   3
  -2   0   6 221275. 3784.59   6
   2   0  -6 228859. 3399.89   5
  -2   0   6 224275. 3552.94   1
   2   0  -5 14680.9 356.391  10
  -2   0   5 13852.6 579.891   6
   2   0  -5 13702.7 416.189   5
  -2   0   5 14289.9 512.566   1
   2   0  -5 14671.0 522.580   3
  -2   0   5 14186.9 487.489   7
   2   0  -4 356864. 5186.00   3
  -2   0   4 353701. 5297.95   6
  -2   0   4 361177. 5159.01   7
  -2   0   4 349398. 5161.61   1
  -2   0   4 363964. 4939.76   5
   2   0  -4 367962. 5064.27   4
  -2   0   3 266818. 3872.43   7
  -2   0   3 269210. 3584.05   5
   2   0  -3 256377. 3863.04   3
  -2   0   3 260118. 3928.88   6
  -2   0   3 260877. 3854.48   1
  -2   0   3 256464. 3826.92   9
  -2   0   2 268.608 95.8650   7
   2   0  -2 240.165 81.0731   2
   2   0  -2 348.270 93.6283   3
  -2   0   2 404.853 78.5696   9
  -2   0   2 242.296 85.5318   1
   2   0  -1 97353.6 1644.23   3
  -2   0   1 98774.1 1665.90   7
  -2   0   1 98769.5 1647.30   1
   2   0  -1 99936.2 1577.12   2
  -2   0   1 103256. 1463.58   9
  -2   0   0 599689. 8220.83   1
  -2   0   0 600184. 8224.72   7
   2   0   0 601155. 8120.87   2
  -2   0   0 599861. 7995.63   5
   2   0   0 613610. 8215.94   3
   2   0   1 89536.3 1490.42   3
  -2   0  -1 89691.4 1498.81   1
   2   0   1 89014.2 1498.13   8
  -2   0  -1 89762.2 1472.39   7
   2   0   1 90361.7 1438.03   2
  -2   0  -1 85669.0 1377.60   5
   2   0   1 88142.0 1385.91   5
   2   0   2 423.641 102.595   3
  -2   0  -2 436.292 86.8655   5
   2   0   2 285.416 81.9609   2
  -2   0  -2 449.018 106.930   1
   2   0   2 211.939 79.4018   7
  -2   0  -2 532.117 71.0584   9
   2   0   3 983281. 13145.2   3
  -2   0  -3 991668. 13018.1   7
  -2   0  -3 977514. 13181.3   1
   2   0   3 954291. 13215.1   2
  -2   0  -3 959511. 13172.3   5
   2   0   3 999999. 13039.6   7
   2   0   3 968370. 13068.0   9
   2   0   3 991257. 13156.5   8
  -2   0  -3 984071. 13079.4   9
  -2   0  -4 32019.7 602.921   7
   2   0   4 30602.3 808.125   2
  -2   0  -4 29580.1 746.819   1
  -2   0  -4 30379.1 784.290   5
   2   0   4 30951.3 741.030   9
   2   0   4 31202.2 737.482   8
  -2   0  -5 60666.1 1294.59   5
  -2   0  -5 60028.8 1197.87   1
   2   0   5 62383.9 1013.38   7
   2   0   5 58257.3 1178.07   8
   2   0   5 58376.9 1328.20   2
  -2   0  -6 99756.7 1761.46   1
   2   0   6 97457.1 1735.44   8
   2   0   6 99719.3 1971.75   2
  -2   0  -6 96740.7 1893.85   5
   2   0   6 96026.0 1803.01   3
   2   0   7 1184.89 178.136   3
  -2   0  -7 1578.87 185.639   3
   2   0   7 1526.58 229.400   2
  -2   0  -7 1103.51 158.607   1
  -2   0  -7 1613.91 219.268   5
  -2   0  -8 606.302 143.032   3
  -2   0  -8 812.084 145.439   1
   2   0   8 332.235 154.444   2
   2   0   8 588.350 149.468   3
  -2   0  -8 316.890 117.786   5
  -2   0  -9 23334.7 757.564   1
  -2   0  -9 25386.6 925.639   5
   2   0   9 26944.2 1047.14   2
  -2   0 -10 536.384 141.446   1
  -2   0 -10 480.734 148.689   3
  -2   0 -10 537.929 171.462   5
   2   0  10 1047.01 265.841   2
   2   0  10 582.826 134.892   8
  -2   0 -11-41.9323 171.110   5
   2   0  11 204.434 145.934   2
   2   0  12 6999.21 621.879   2
  -2   0 -12 7269.77 553.577   5
  -2   0 -13 1787.42 327.105   5
   2   0  13 1678.18 368.903   2
  -2   0 -14 436.332 215.410   5
  -2  -1  14 97.8319 213.898   6
   2   1 -14 471.802 180.087   5
  -2  -1  13 3730.61 538.952   6
   2   1 -13 3682.40 374.758   5
   2   1 -12 6872.24 480.138   5
  -2  -1  12 7853.06 700.969   6
  -2  -1  11 6856.13 635.753   6
   2   1 -11 5884.33 414.379   5
  -2  -1  10 36450.5 1399.24   6
   2   1 -10 32931.7 1004.57   5
   2   1 -10 34942.9 955.393   3
   2   1  -9 50672.9 1160.44   3
  -2  -1   9 47510.1 1097.57   1
   2   1  -9 47250.9 1203.87   5
  -2  -1   9 52058.9 1627.02   6
   2   1  -8 1919.34 207.764   5
   2   1  -8 1835.70 193.844   3
  -2  -1   8 2004.51 192.469   1
  -2  -1   8 1862.00 307.776   6
   2   1  -7 4718.33 283.694   3
   2   1  -7 4883.53 376.030   9
  -2  -1   7 4809.70 421.952   6
   2   1  -7 3931.10 269.998   5
  -2  -1   7 4888.48 285.144   1
  -2  -1   6 70221.4 1695.96   6
   2   1  -6 70248.2 1335.69   5
   2   1  -6 68882.9 1543.89   9
  -2  -1   6 68683.2 1326.01   1
   2   1  -6 70729.1 1341.70   3
   2   1  -5 10942.9 397.582   3
  -2  -1   5 10785.5 539.794   6
   2   1  -5 10533.1 476.602   9
  -2  -1   5 10123.1 382.021   1
   2   1  -5 10687.8 372.311   5
  -2  -1   4 25.4474 57.1717   1
   2   1  -4 48.0939 68.8445   3
  -2  -1   4 115.182 83.9625   6
   2   1  -4 141.969 91.4733   9
   2   1  -4 41.3849 46.3016   5
   2   1  -3 294255. 4285.09   3
   2   1  -3 299110. 4378.75   9
  -2  -1   3 300056. 4262.71   1
  -2  -1   3 298147. 4532.61   6
   2   1  -3 310456. 4132.43   5
   2   1  -2 57149.3 840.098   5
   2   1  -2 53530.4 1006.75   3
  -2  -1   2 55410.1 1149.41   6
  -2  -1   2 54305.7 995.191   1
   2   1  -2 54403.1 1009.38   9
   2   1  -1 21234.3 527.391   3
   2   1  -1 21700.5 390.317  10
  -2  -1   1 22066.6 522.071   1
   2   1   0 400635. 5487.30   3
  -2  -1   0 393794. 5480.45   1
   2   1   0 394513. 5263.15   2
  -2  -1   0 391806. 5346.31  10
   2   1   0 391500. 5471.06   8
   2   1   1 31097.9 681.919   3
   2   1   1 31534.3 678.708   8
   2   1   1 31302.8 564.544   2
  -2  -1  -1 30343.8 688.183   1
   2   1   1 30746.8 592.489   5
   2   1   2 5183.78 258.362   3
   2   1   2 4329.94 210.193   7
  -2  -1  -2 5200.60 230.890   5
   2   1   2 4418.81 207.059   2
   2   1   2 5077.25 244.370   8
  -2  -1  -2 4736.30 250.742   1
   2   1   3 31915.0 721.567   1
   2   1   3 31437.2 624.635   7
   2   1   3 30834.2 723.924   2
  -2  -1  -3 30334.5 714.193   5
   2   1   3 31077.3 738.401   3
  -2  -1  -4 36566.1 846.571   1
   2   1   4 34036.7 794.243   9
   2   1   4 34447.3 843.946   2
  -2  -1  -4 34013.9 830.680   5
   2   1   4 34622.0 827.259   3
  -2  -1  -5 219961. 3473.37   1
   2   1   5 230134. 3419.43   1
   2   1   5 220452. 3575.87   2
  -2  -1  -5 229844. 3515.44   5
   2   1   6 41134.8 974.439   1
  -2  -1  -6 42100.9 1012.09   1
  -2  -1  -6 41941.0 1059.83   5
   2   1   6 41266.8 1112.40   2
   2   1   6 43478.4 1067.28   3
  -2  -1  -7 335.120 118.003   3
  -2  -1  -7 55.7054 98.0528   1
   2   1   7 184.907 102.239   1
   2   1   7 420.894 163.542   2
   2   1   7 165.688 117.164   3
  -2  -1  -7 377.732 134.568   5
  -2  -1  -8 99628.9 1916.66   1
   2   1   8 93638.9 2118.25   2
  -2  -1  -8 99199.6 2021.80   5
  -2  -1  -9 103.710 113.975   1
   2   1   9 418.265 177.234   2
  -2  -1  -9 341.062 140.755   3
  -2  -1  -9 303.476 140.276   5
   2   1   9 324.785 129.771   1
   2   1  10 6867.84 526.996   2
  -2  -1 -10 6884.33 447.363   3
   2   1  10 5641.74 368.070   1
  -2  -1 -10 6467.93 475.734   5
   2   1  11 4860.06 494.408   2
  -2  -1 -11 4144.82 352.582   1
   2   1  11 4014.09 324.538   1
  -2  -1 -11 4928.57 403.318   3
  -2  -1 -11 4236.41 412.485   5
  -2  -1 -12 220.306 147.633   3
  -2  -1 -12 57.2135 131.406   5
  -2  -1 -13 174.197 164.894   5
  -2  -1 -14 3210.97 408.897   5
  -2  -1 -15 276.932 208.581   5
   2   2 -14 679.070 202.220   5
  -2  -2  14 812.707 377.390   6
  -2  -2  13-89.0191 252.144   6
   2   2 -13 628.699 193.154   5
  -2  -2  12 3341.54 506.871   6
   2   2 -12 3314.10 342.304   5
  -2  -2  11 3567.82 499.808   6
   2   2 -11 2851.24 311.355   5
  -2  -2  10 478.811 235.645   6
   2   2 -10 919.510 236.292   9
   2   2 -10 566.830 156.183   5
   2   2  -9 13644.4 606.919   5
   2   2  -9 13397.3 727.596   9
  -2  -2   9 14225.3 860.179   6
   2   2  -9 14534.5 489.181   3
   2   2  -8 590.974 182.475   9
   2   2  -8 550.560 133.364   5
  -2  -2   8 668.031 217.016   6
   2   2  -8 722.353 110.791   3
   2   2  -7 1089.23 127.479   3
  -2  -2   7 1381.89 252.953   6
   2   2  -7 1156.54 218.101   9
  -2  -2   7 1147.72 123.062   1
   2   2  -7 1146.44 161.523   5
   2   2  -6 103.399 73.8929   3
  -2  -2   6 158.385 107.923   2
  -2  -2   6 78.4743 60.4401   1
  -2  -2   6 43.7839 147.272   6
   2   2  -6 57.2958 101.400   9
   2   2  -6 89.6590 72.4469   5
   2   2  -5 7382.84 286.002   3
   2   2  -5 7007.12 413.083   9
  -2  -2   5 7854.83 492.634   6
  -2  -2   5 7188.03 378.731   2
   2   2  -5 7454.66 339.684   5
  -2  -2   5 7213.07 268.750   1
   2   2  -4 99595.6 1592.95   3
  -2  -2   4 95803.8 1722.36   2
  -2  -2   4 100023. 2020.57   6
  -2  -2   4 98350.0 1543.25   1
   2   2  -4 99336.6 1850.21   9
   2   2  -4 99834.3 1652.76   5
   2   2  -3 6550.04 255.804   3
  -2  -2   3 5854.56 263.637   2
  -2  -2   3 6708.82 236.623   1
  -2  -2   3 7038.65 401.434   6
   2   2  -2 59830.8 1052.58   3
  -2  -2   2 60498.1 994.390   2
  -2  -2   2 60282.7 1024.15   1
  -2  -2   2 60340.5 1282.44   6
  -2  -2   2 58419.9 1042.61   3
   2   2  -1 313643. 4370.86   3
  -2  -2   1 311146. 4361.71   1
  -2  -2   1 308874. 4575.13   6
   2   2  -1 313461. 4340.47   8
   2   2   0 40000.3 795.386   3
   2   2   0 38592.7 772.720   8
  -2  -2   0 39405.5 797.884   1
  -2  -2  -1 40338.3 858.517   1
   2   2   1 41035.3 824.886   1
   2   2   1 41930.7 850.381   3
   2   2   2 433741. 5954.27   1
   2   2   2 419658. 5998.21   3
   2   2   3 115209. 1986.74   3
  -2  -2  -3 117238. 1957.33  10
   2   2   4 91645.5 1646.99   1
  -2  -2  -4 92481.2 1686.00  10
   2   2   4 87440.2 1637.50   2
   2   2   5 116236. 1773.18   7
   2   2   5 106325. 2000.74   1
   2   2   5 117313. 2056.06   2
   2   2   5 110305. 2102.76   3
  -2  -2  -6 36583.4 977.990   5
   2   2   6 36792.3 943.685   1
   2   2   6 36042.0 1006.81   2
   2   2   7 2307.10 230.166   1
   2   2   7 1880.70 256.737   3
  -2  -2  -7 2004.73 230.183   5
  -2  -2  -7 2081.30 237.596   3
   2   2   7 2151.03 254.934   2
   2   2   8 9029.86 224.422   7
  -2  -2  -8 9702.62 515.157   5
  -2  -2  -8 10023.4 526.293   3
   2   2   8 9727.40 482.208   1
   2   2   9 22645.6 784.126   1
  -2  -2  -9 21686.9 837.089   5
  -2  -2 -10 5698.24 434.531   5
  -2  -2 -11 9143.63 579.449   3
   2   2  11 9680.98 519.918   1
  -2  -2 -11 9359.77 565.708   1
  -2  -2 -11 8830.24 581.360   5
  -2  -2 -12 6319.23 505.662   3
   2   2  12 6403.67 433.499   1
  -2  -2 -13 588.637 194.258  10
  -2  -2 -13 381.487 165.152   3
  -2  -2 -14 2660.11 358.549  10
  -2  -2 -15 2034.71 340.099  10
   2   3 -14 98.0614 133.983   5
  -2  -3  14 37.6486 231.650   6
  -2  -3  13 247.280 252.851   6
   2   3 -13 238.115 116.607   5
  -2  -3  12 920.530 310.148   6
   2   3 -12 414.609 207.557   9
   2   3 -12 444.124 142.363   5
   2   3 -11 1063.44 214.416   5
  -2  -3  11 924.288 275.096   6
   2   3 -11 1367.39 288.745   9
  -2  -3  10 11367.2 672.491   2
  -2  -3  10 11663.3 847.182   6
   2   3 -10 10836.5 586.420   5
   2   3 -10 11639.3 728.069   9
   2   3  -9 41064.0 1353.95   9
  -2  -3   9 43867.2 1594.11   6
   2   3  -9 40045.6 1155.29   5
  -2  -3   9 41437.3 1299.20   2
  -2  -3   8 6053.49 440.719   2
  -2  -3   8 5966.94 552.810   6
   2   3  -8 6469.98 405.428   5
   2   3  -8 5847.22 466.690   9
   2   3  -7 21117.6 864.611   9
   2   3  -7 20716.9 495.523   3
  -2  -3   7 21815.9 1001.18   6
   2   3  -7 21316.3 731.823   5
  -2  -3   7 21045.5 789.253   2
   2   3  -6 50511.5 1315.87   9
  -2  -3   6 47317.3 899.086   3
  -2  -3   6 48018.6 1183.98   2
   2   3  -6 51283.8 1152.11   5
  -2  -3   6 49837.3 1475.19   6
  -2  -3   5 27903.9 603.584   3
  -2  -3   5 27283.6 782.610   2
  -2  -3   5 28887.8 1040.08   6
   2   3  -5 27175.3 892.938   9
   2   3  -5 28340.8 775.890   5
   2   3  -4 38800.6 729.530   3
  -2  -3   4 39050.8 737.114   3
  -2  -3   4 37859.0 668.382   1
  -2  -3   4 40294.8 1170.24   6
  -2  -3   4 38020.9 893.794   2
   2   3  -3 184747. 2697.20   3
  -2  -3   3 188257. 2637.77   1
  -2  -3   3 186565. 3215.93   6
  -2  -3   3 188405. 2687.11   3
  -2  -3   3 181167. 2794.84   2
   2   3  -2 6333.50 246.472   3
  -2  -3   2 6127.63 368.309   6
  -2  -3   2 5849.98 233.234   2
  -2  -3   2 6171.89 230.234   1
  -2  -3   1 408044. 5700.16   1
   2   3  -1 412811. 5669.86   1
  -2  -3   1 400982. 5977.44   6
  -2  -3   1 415674. 5554.99   2
   2   3  -1 419806. 5713.01   3
   2   3   0 362449. 5074.43   1
  -2  -3   0 368048. 5265.54   6
  -2  -3   0 373135. 4883.15   2
   2   3   0 359488. 5118.67   3
   2   3   1 921.330 127.049   1
  -2  -3  -1 648.233 70.4349   2
  -2  -3  -1 593.551 103.110   6
   2   3   1 681.682 121.080   3
   2   3   2 12721.4 470.921   3
   2   3   2 13425.4 455.384   7
   2   3   2 12780.8 454.479   1
   2   3   3 380185. 5429.05   1
   2   3   3 372002. 5513.51   3
   2   3   4 538.702 108.265   7
   2   3   4 345.591 137.337   3
   2   3   4 472.243 121.412   1
   2   3   5 19561.9 728.316   3
   2   3   5 18202.0 576.892   7
  -2  -3  -5 19617.2 684.557   3
   2   3   6 323293. 4868.90   1
   2   3   6 315896. 4642.91   7
  -2  -3  -6 320339. 4920.36   3
   2   3   7 196.689 160.055   3
  -2  -3  -7 190.477 138.546   3
   2   3   7 122.705 83.2972   7
  -2  -3  -7-63.9174 94.6725  10
   2   3   7 211.545 94.9160   1
   2   3   8 6599.75 436.763   1
  -2  -3  -8 7381.56 485.745   3
  -2  -3  -8 6931.22 434.231  10
   2   3   9 28044.8 932.816   1
  -2  -3  -9 26288.7 940.249  10
  -2  -3 -10 1932.50 267.095  10
   2   3  10 1674.30 269.431   1
  -2  -3 -10 1990.60 281.932   3
  -2  -3 -11 5284.38 473.868   3
   2   3  11 4097.15 376.400   1
  -2  -3 -11 4408.90 403.306  10
   2   3  12 15737.9 747.005   1
  -2  -3 -12 14485.0 743.878  10
  -2  -3 -13 2701.26 340.153  10
  -2  -3 -13 2063.44 325.181   3
   2   3  13 1963.25 298.941   1
  -2  -3 -14 283.684 183.449   3
  -2  -3 -14 275.940 151.549  10
  -2  -4  13 152.091 258.031   6
   2   4 -13 107.122 164.481   5
  -2  -4  12 7222.31 755.980   6
   2   4 -12 7270.82 657.160   9
   2   4 -12 6021.37 501.082   5
  -2  -4  11 1542.41 294.865   2
  -2  -4  11 1602.90 380.987   6
   2   4 -11 1000.67 218.442   5
   2   4 -11 1327.61 288.999   9
   2   4 -10 980.163 249.516   9
  -2  -4  10 768.907 201.598   2
   2   4 -10 1128.19 218.756   5
   2   4  -9 9639.38 652.318   9
  -2  -4   9 8974.05 749.301   6
  -2  -4   9 9720.75 601.121   2
   2   4  -9 9556.96 547.749   5
  -2  -4   8 12515.3 641.867   2
  -2  -4   8 13110.2 854.068   6
   2   4  -8 12969.1 737.857   9
   2   4  -8 12986.7 620.980   5
  -2  -4   7 14031.2 834.312   6
   2   4  -7 13941.6 716.013   9
  -2  -4   7 13077.4 630.903   2
   2   4  -7 13577.0 619.101   5
   2   4  -6 50585.9 1411.44   9
   2   4  -6 49637.8 1238.35   5
  -2  -4   6 47881.8 1241.55   2
   2   4  -5 37161.8 653.786   3
   2   4  -5 37885.7 1006.09   7
  -2  -4   5 38560.2 1272.68   6
  -2  -4   5 36764.0 979.680   2
  -2  -4   4 9424.24 268.601   3
  -2  -4   4 9673.92 418.903   2
  -2  -4   4 9668.83 575.860   6
  -2  -4   4 8963.86 222.821   1
   2   4  -4 10000.6 468.559   7
   2   4  -4 9874.34 282.349   3
  -2  -4   3 187598. 2739.99   3
  -2  -4   3 190677. 2936.54   2
  -2  -4   3 197291. 3387.96   6
   2   4  -3 181898. 3124.50   7
   2   4  -3 196504. 2766.20   3
  -2  -4   2 84348.6 1787.14   6
   2   4  -2 86018.6 1370.42   1
  -2  -4   2 83516.3 1448.62   2
   2   4  -2 85331.9 1678.99   7
   2   4  -2 82646.1 1414.08   3
   2   4  -1 4840.20 236.591   1
  -2  -4   1 4878.28 329.353   6
   2   4  -1 4613.34 309.317   7
  -2  -4   1 4469.00 215.339   2
   2   4  -1 4544.94 163.978   4
   2   4  -1 4875.28 251.299   3
   2   4   0 163957. 2554.58   1
   2   4   0 162712. 2598.41   3
   2   4   0 164028. 2729.48   7
  -2  -4   0 164248. 2714.44   6
  -2  -4   0 165219. 2444.20   2
   2   4   1 105974. 1816.48   1
   2   4   1 102874. 1914.65   7
  -2  -4  -1 105310. 1865.45   6
  -2  -4  -1 104902. 1680.68   2
   2   4   1 102566. 1871.64   3
  -2  -4  -2 968.354 123.962   2
   2   4   2 1078.18 171.238   7
  -2  -4  -2 1036.17 163.739   3
   2   4   2 827.996 139.636   1
   2   4   2 1015.89 175.225   3
   2   4   3 115849. 2073.34   1
  -2  -4  -3 114100. 2064.42   3
   2   4   3 115821. 2085.17   7
  -2  -4  -4 4033.46 318.754   3
   2   4   4 3462.50 334.613   3
   2   4   5 2291.26 221.027   7
  -2  -4  -5 2253.26 252.760   3
   2   4   5 1665.77 259.633   3
   2   4   5 2082.39 227.289   1
   2   4   6 41923.6 1064.92   7
   2   4   6 40580.4 1148.65   1
  -2  -4  -6 41361.2 1159.67   3
   2   4   6 39319.3 1233.21   3
   2   4   7 47978.9 1276.88   1
  -2  -4  -7 45858.3 1300.12   3
  -2  -4  -8 11512.4 641.307   3
   2   4   8 12358.0 506.690   7
   2   4   9 47446.0 1367.39   1
  -2  -4  -9 50976.2 1466.84   3
   2   4   9 48102.2 1110.18   7
   2   4  10 4663.52 412.255   1
  -2  -4 -10 4776.14 453.841   3
  -2  -4 -11 303.304 218.320   3
   2   4  11 341.309 193.983   1
   2   4  12 3642.85 385.683   1
  -2  -4 -12 3470.90 425.647   3
  -2  -4 -13 1076.81 292.253   3
   2   4  13 642.055 223.685   1
   2   4  14 646.273 200.196   1
  -2  -4 -14 418.599 237.614   3
  -2  -4 -15 216.906 209.637   3
   2   5 -12 952.503 235.545   5
  -2  -5  12 1021.27 364.261   6
  -2  -5  12 1295.04 317.367   2
   2   5 -11 5433.18 557.622   9
  -2  -5  11 5803.16 671.461   6
  -2  -5  11 5770.56 535.352   2
   2   5 -11 5046.86 458.559   5
   2   5 -10 855.260 211.077   5
  -2  -5  10 403.689 299.428   6
   2   5 -10 586.203 202.976   9
  -2  -5  10 562.809 192.342   2
  -2  -5   9 6849.93 673.510   6
  -2  -5   9 6282.40 497.844   2
   2   5  -9 6711.46 496.069   5
   2   5  -9 6269.76 552.885   9
  -2  -5   8 5317.10 557.770   6
   2   5  -8 5405.37 486.061   9
  -2  -5   8 5527.62 451.620   2
   2   5  -8 5507.44 436.541   5
  -2  -5   7 7164.79 624.110   6
   2   5  -7 8051.42 572.915   9
   2   5  -7 7751.40 480.423   7
  -2  -5   7 7893.00 502.282   2
   2   5  -7 7560.35 493.104   5
   2   5  -6 1082.20 209.056   7
  -2  -5   6 1566.13 294.443   6
   2   5  -6 1563.66 219.598   5
  -2  -5   6 1730.30 235.084   2
  -2  -5   5 12296.3 727.332   6
   2   5  -5 13069.1 614.195   7
  -2  -5   5 12192.6 547.914   2
  -2  -5   4 9157.26 254.853   3
  -2  -5   4 9367.63 269.352   3
  -2  -5   4 11125.4 639.017   6
   2   5  -4 9861.08 527.639   7
  -2  -5   4 10418.9 464.134   2
  -2  -5   3 5297.50 219.780   3
  -2  -5   3 5933.78 450.284   6
  -2  -5   3 5627.38 233.286   3
   2   5  -3 5540.82 219.837   1
   2   5  -3 6028.56 409.534   7
  -2  -5   3 5577.94 322.455   2
   2   5  -3 6079.30 258.069   3
  -2  -5   2 276389. 4589.38   6
  -2  -5   2 293887. 4083.48   3
   2   5  -2 284735. 4069.01   1
   2   5  -2 287746. 4512.39   7
  -2  -5   2 279728. 4207.71   2
   2   5  -2 279766. 4141.82   3
   2   5  -1 7998.71 334.572   1
  -2  -5   1 7521.80 332.173   3
  -2  -5   1 8748.75 463.144   6
   2   5  -1 7566.56 450.947   7
  -2  -5   1 7888.75 342.483   2
   2   5  -1 7639.10 260.757   4
   2   5  -1 8220.75 365.888   3
   2   5   0 41063.6 953.135   1
  -2  -5   0 41496.6 946.240   3
  -2  -5   0 43218.7 1079.49   6
  -2  -5   0 43294.6 922.109   2
   2   5   0 41890.2 1132.65   7
   2   5   1 81578.1 1549.41   1
  -2  -5  -1 79025.1 1525.01   3
   2   5   1 75117.9 1681.95   7
  -2  -5  -1 78622.0 1552.73   6
  -2  -5  -1 76981.8 1432.33   2
   2   5   2 63196.5 1364.21   1
  -2  -5  -2 63087.1 1349.64   3
  -2  -5  -2 61739.4 1280.16   6
   2   5   2 63040.6 1454.45   7
  -2  -5  -2 61044.4 1250.66   2
   2   5   2 60563.0 1416.57   3
   2   5   3 213.121 149.384   7
   2   5   3-69.9579 118.922   3
  -2  -5  -3 137.962 90.7177   2
  -2  -5  -3 110.777 75.9420   6
  -2  -5  -3 97.5673 125.075   3
  -2  -5  -4 156854. 2835.36   3
   2   5   4 162685. 2873.95   7
  -2  -5  -4 157833. 2704.63   2
   2   5   4 153958. 2939.63   3
  -2  -5  -5 1254.68 204.560   3
   2   5   5 1568.56 222.737   7
   2   5   5 1081.90 204.562   1
   2   5   6 6469.25 463.300   1
   2   5   6 7082.41 439.695   7
  -2  -5  -6 6425.83 453.387   3
   2   5   7 32062.7 985.946   7
   2   5   7 31410.8 1079.68   1
  -2  -5  -7 33526.4 1112.19   3
   2   5   8 2053.82 254.672   7
   2   5   8 1647.30 258.388   1
  -2  -5  -8 2001.36 313.150   3
   2   5   9 8.57279 118.005   7
  -2  -5  -9-56.4180 163.563   3
   2   5   9 44.1194 153.746   1
  -2  -5 -10 369.446 193.106   3
   2   5  10 277.953 143.749   1
  -2  -5 -11 924.618 255.033   3
   2   5  11 646.860 219.762   1
  -2  -5 -12 4312.70 494.717   3
   2   5  12 3645.81 417.906   1
  -2  -5 -13-172.037 222.671   3
   2   5  13-46.0841 152.972   1
   2   5  14 135.756 164.734   1
  -2  -5 -14-90.4602 204.246   3
   2   5  15 108.663 209.422   1
  -2  -5 -15 41.4886 188.952   3
  -2  -6  12-371.796 236.241   2
  -2  -6  12-55.1591 236.559   6
   2   6 -12 17.8419 163.315   5
  -2  -6  11 298.196 276.439   6
   2   6 -11-117.491 175.590   5
  -2  -6  11-96.4744 181.573   2
   2   6 -10 217.237 172.223   9
  -2  -6  10 36.4756 206.289   6
  -2  -6  10 416.044 199.079   2
   2   6 -10 183.737 118.386   5
   2   6  -9-155.332 187.939   9
  -2  -6   9 82.9959 227.545   6
   2   6  -9 220.768 137.666   5
  -2  -6   9 174.962 145.331   2
   2   6  -8 1184.90 278.012   9
  -2  -6   8 885.915 308.885   6
   2   6  -8 564.627 190.105   7
   2   6  -8 989.517 221.991   5
  -2  -6   8 901.848 224.980   2
  -2  -6   7 304.473 235.491   6
   2   6  -7 236.811 147.998   7
   2   6  -7 7.53458 109.294   5
  -2  -6   7 43.6301 135.025   2
   2   6  -6 3662.04 354.891   7
  -2  -6   6 3682.50 445.116   6
  -2  -6   6 2943.30 303.057   2
  -2  -6   5 8545.78 628.609   6
  -2  -6   5 7483.09 452.611   2
   2   6  -5 7487.93 503.653   7
  -2  -6   4 1115.57 184.039   2
  -2  -6   4 1093.52 249.049   6
  -2  -6   3 14754.3 444.007   3
   2   6  -3 15509.3 433.766   1
   2   6  -3 14513.9 707.717   7
  -2  -6   3 14962.2 590.230   2
  -2  -6   3 13555.1 718.149   6
  -2  -6   2 55879.0 1243.50   2
   2   6  -2 55241.8 1107.84   1
   2   6  -2 55220.0 1477.43   7
  -2  -6   2 57218.1 1499.91   6
  -2  -6   2 55255.7 1123.37   3
  -2  -6   1 48554.6 1110.12   2
   2   6  -1 46291.6 1334.95   7
   2   6  -1 48120.4 1065.59   1
  -2  -6   1 46531.7 1059.17   3
  -2  -6   1 49183.0 1304.30   6
   2   6  -1 48494.3 940.289   4
   2   6   0 133927. 2316.60   1
   2   6   0 129360. 2595.81   7
  -2  -6   0 132201. 2441.26   6
  -2  -6   0 129525. 2272.62   2
  -2  -6   0 135518. 2313.27   3
   2   6   1 914.457 205.104   7
  -2  -6  -1 760.869 148.576   3
   2   6   1 1115.72 196.207   1
  -2  -6  -1 800.429 143.550   6
  -2  -6  -1 754.437 133.976   2
  -2  -6  -2 3355.93 302.096   3
   2   6   2 3299.31 331.753   7
  -2  -6  -2 3466.82 266.964   2
   2   6   2 3361.19 295.172   1
  -2  -6  -2 3489.62 260.472   6
   2   6   3 135751. 2568.54   1
  -2  -6  -3 137544. 2548.80   3
  -2  -6  -3 135428. 2312.27   6
  -2  -6  -3 137838. 2413.05   2
   2   6   3 135661. 2673.63   7
   2   6   4 4022.08 369.743   1
   2   6   4 3830.03 360.029   7
  -2  -6  -4 3510.71 341.161   3
  -2  -6  -4 3729.27 251.053   6
  -2  -6  -4 4010.17 312.307   2
   2   6   5 19872.0 838.468   1
   2   6   5 20802.3 842.367   7
  -2  -6  -5 20148.3 819.335   3
  -2  -6  -5 20187.2 758.289   2
   2   6   6 23137.5 916.448   1
  -2  -6  -6 22357.4 912.468   3
   2   6   6 22908.3 894.337   7
  -2  -6  -6 23862.2 862.607   2
   2   6   7 4370.20 436.175   1
  -2  -6  -7 5178.34 456.733   3
   2   6   7 4016.92 385.928   7
   2   6   8 189.336 173.458   7
  -2  -6  -8 281.838 247.176   3
   2   6   8 128.144 217.268   1
   2   6   9 69793.7 1872.16   1
  -2  -6  -9 71532.6 1931.93   3
   2   6   9 66293.9 1666.73   7
   2   6  10 901.427 208.422   7
   2   6  10 657.655 216.755   1
  -2  -6 -10 565.982 252.842   3
  -2  -6 -11 287.287 175.849   3
   2   6  11 12.3773 183.432   1
   2   6  12 5801.51 535.933   1
  -2  -6 -12 6797.21 617.173   3
   2   6  13 1109.32 288.403   1
  -2  -6 -13 1476.09 356.268   3
  -2  -6 -14-49.1547 193.784   3
   2   6  14-128.156 178.265   1
   2   6  15 1283.17 290.670   1
  -2  -6 -15 1072.56 321.485   3
   2   7 -11 85.2172 130.108   5
  -2  -7  11 266.993 246.460   6
  -2  -7  11-193.261 170.388   2
  -2  -7  10 50.6866 216.929   6
   2   7 -10-81.4125 179.874   5
  -2  -7   9 1660.80 301.256   2
  -2  -7   9 2135.09 445.834   6
   2   7  -9 1561.08 289.486   5
   2   7  -9 1658.64 342.016   9
   2   7  -8 1396.94 304.899   9
  -2  -7   8 1286.64 348.388   6
   2   7  -8 926.943 228.300   5
  -2  -7   8 1133.85 258.803   2
   2   7  -7 1239.57 251.237   5
   2   7  -7 1507.88 258.780   7
  -2  -7   7 924.109 298.809   6
  -2  -7   7 1186.82 238.830   2
  -2  -7   6 1088.18 216.585   2
   2   7  -6 932.185 228.954   7
  -2  -7   5 2937.44 304.179   2
  -2  -7   5 3152.21 415.729   6
   2   7  -5 3338.34 374.495   7
   2   7  -4 5974.77 490.910   7
  -2  -7   4 6467.30 538.971   6
  -2  -7   4 5537.39 401.450   2
   2   7  -3 15627.1 487.233   1
  -2  -7   3 16151.7 664.028   2
  -2  -7   3 15077.8 791.505   6
   2   7  -3 15055.4 784.937   7
  -2  -7   2 31188.8 935.935   2
   2   7  -2 32485.3 821.257   1
  -2  -7   2 33292.3 842.770   3
   2   7  -2 31106.3 1144.88   7
  -2  -7   2 32790.4 1133.50   6
   2   7  -2 30651.1 695.578   4
  -2  -7   1-14.0792 101.668   2
   2   7  -1 85.1957 155.699   7
   2   7  -1 160.415 102.577   1
  -2  -7   1 148.427 127.770   6
   2   7  -1 216.367 91.2488   4
  -2  -7   1 125.680 93.7886   3
  -2  -7   0 46553.1 1165.63   2
   2   7   0 46445.3 1171.59   1
  -2  -7   0 46536.8 1166.67   3
  -2  -7   0 47894.6 1273.99   6
   2   7   0 45536.9 1417.25   7
   2   7   1 19652.9 742.226   1
  -2  -7  -1 19288.7 729.691   3
  -2  -7  -1 20129.5 725.806   6
   2   7   1 19507.0 880.387   7
  -2  -7  -1 20759.2 721.766   2
   2   7   2 713.719 183.911   1
   2   7   2 953.545 241.515   7
  -2  -7  -2 859.893 178.021   3
  -2  -7  -2 526.265 153.902   2
  -2  -7  -2 644.762 144.778   6
   2   7   3 49834.4 1387.86   1
  -2  -7  -3 51066.2 1375.59   3
  -2  -7  -3 51046.5 1158.68   6
   2   7   3 50802.0 1507.51   7
  -2  -7  -3 50910.0 1272.24   2
   2   7   4 46275.1 1352.93   1
  -2  -7  -4 48566.4 1370.84   3
  -2  -7  -4 46371.7 1242.96   2
   2   7   4 50245.1 1478.53   7
  -2  -7  -4 46123.5 1067.22   6
  -2  -7  -5 158.788 154.155   2
   2   7   5-74.5838 156.442   1
   2   7   5 152.666 196.077   7
  -2  -7  -5 130.580 167.176   3
  -2  -7  -5 15.6545 60.4111   6
   2   7   6 80277.3 2055.68   1
  -2  -7  -6 86274.2 2084.78   3
   2   7   6 84570.6 2063.25   7
  -2  -7  -6 87254.6 1951.79   2
   2   7   7 90826.7 2225.26   1
  -2  -7  -7 92418.5 2231.90   3
  -2  -7  -7 90148.8 2083.67   2
   2   7   7 89088.7 2158.27   7
  -2  -7  -8 2889.35 383.225   3
  -2  -7  -8 3064.69 357.355   2
   2   7   8 3032.51 411.187   1
   2   7   8 2685.36 344.482   7
  -2  -7  -9 3400.40 452.425   3
   2   7   9 3642.92 440.779   1
  -2  -7  -9 2807.28 367.356   2
   2   7   9 3799.80 389.569   7
   2   7  10 11510.3 757.612   1
  -2  -7 -10 12119.0 791.866   3
   2   7  10 11086.1 652.250   7
  -2  -7 -11 648.737 267.355   3
   2   7  11 669.462 264.338   1
  -2  -7 -12 1959.33 384.834   3
   2   7  12 1892.86 358.285   1
  -2  -7 -13 1526.80 320.747   3
   2   7  13 1597.84 317.101   1
  -2  -7 -14 164.329 222.680   3
   2   7  14 313.071 205.932   1
  -2  -8  10 122.292 228.878   6
   2   8 -10 484.170 241.956   5
  -2  -8  10 296.065 197.124   2
  -2  -8   9 589.582 259.524   6
   2   8  -9 445.028 192.619   5
  -2  -8   9 503.981 217.108   2
   2   8  -8 2975.59 425.073   9
  -2  -8   8 2513.79 459.503   6
   2   8  -8 2365.91 353.866   5
  -2  -8   8 2726.89 375.117   2
   2   8  -7 1715.47 294.494   5
   2   8  -7 1758.04 324.489   7
  -2  -8   7 2069.08 408.207   6
  -2  -8   7 1828.19 282.278   2
  -2  -8   6 13498.1 905.692   6
  -2  -8   6 14503.6 749.666   2
   2   8  -6 13312.0 810.791   7
  -2  -8   5 3173.07 346.870   2
   2   8  -5 3181.07 422.542   7
  -2  -8   4-97.2247 129.628   2
   2   8  -4-208.207 173.142   7
  -2  -8   4 123.167 166.873   6
  -2  -8   3 4468.75 450.966   6
   2   8  -3 4202.04 448.630   7
  -2  -8   3 4655.01 382.125   2
   2   8  -3 4592.63 239.100   4
   2   8  -2 36396.7 954.154   1
  -2  -8   2 37366.0 1278.72   6
   2   8  -2 38907.7 1380.16   7
  -2  -8   2 38758.6 1143.84   2
   2   8  -2 37681.1 890.355   4
   2   8  -1 4425.46 329.867   1
  -2  -8   1 4524.31 336.927   3
  -2  -8   1 5032.58 424.640   6
  -2  -8   1 4368.79 356.441   2
   2   8  -1 4674.38 308.616   4
   2   8  -1 3940.55 439.731   7
   2   8   0 6530.85 429.210   1
  -2  -8   0 6228.91 445.590   6
  -2  -8   0 5655.89 397.946   3
   2   8   0 5797.69 521.661   7
  -2  -8   0 5848.38 400.617   2
   2   8   1 106957. 2240.92   1
  -2  -8  -1 109929. 2242.45   3
  -2  -8  -1 108259. 2181.73   6
  -2  -8  -1 111707. 2214.56   2
   2   8   1 110527. 2560.65   7
   2   8   2 90.1479 181.608   7
  -2  -8  -2-62.7895 130.066   3
   2   8   2 98.2781 149.532   1
  -2  -8  -2 83.5318 95.4709   6
  -2  -8  -2-121.507 128.057   2
  -2  -8  -3 2624.22 319.626   3
   2   8   3 2856.14 330.956   1
  -2  -8  -3 2437.44 229.876   6
   2   8   3 2208.55 366.562   7
  -2  -8  -3 2522.38 284.917   2
   2   8   4 30436.2 1125.78   1
  -2  -8  -4 33043.8 1147.55   3
   2   8   4 31836.0 1233.34   7
  -2  -8  -4 29520.7 1023.15   2
  -2  -8  -5 3963.39 414.269   3
   2   8   5 4367.88 461.564   7
   2   8   5 3842.02 406.609   1
  -2  -8  -5 4549.77 395.566   2
   2   8   6 9.45638 172.442   7
  -2  -8  -6 90.2499 176.951   2
   2   8   6 59.9467 178.977   1
  -2  -8  -6-28.3488 188.939   3
   2   8   7 13722.5 802.704   1
  -2  -8  -7 13598.3 800.713   3
   2   8   7 13122.8 795.778   7
  -2  -8  -7 13780.7 728.090   2
   2   8   8 19674.8 1010.03   1
  -2  -8  -8 22687.1 1068.12   3
   2   8   8 21312.0 978.395   7
  -2  -8  -8 20981.3 963.098   2
  -2  -8  -9 4793.38 506.115   3
   2   8   9 4325.47 490.482   1
   2   8   9 5264.66 498.679   7
  -2  -8  -9 4757.49 467.353   2
   2   8  10 5621.77 582.040   1
  -2  -8 -10 6312.62 609.030   3
   2   8  10 5511.27 504.655   7
  -2  -8 -10 5761.27 539.166   2
  -2  -8 -11-58.9948 219.638   3
  -2  -8 -11-10.5634 183.741   2
   2   8  11 1.68045 244.971   1
  -2  -8 -12 189.342 203.126   3
  -2  -8 -12 80.7841 171.829   2
   2   8  12 250.763 177.554   1
  -2  -8 -13-314.706 205.310   3
  -2  -8 -13 108.809 197.103   2
   2   8  13-39.7237 205.987   1
  -2  -8 -14 379.833 222.199   2
  -2  -8 -14 1063.14 332.833   3
   2   8  14 563.941 243.410   1
  -2  -9   8 3181.33 409.071   2
  -2  -9   8 4408.11 586.070   6
   2   9  -8 3557.68 454.663   5
  -2  -9   7 732.865 308.654   6
   2   9  -7 497.657 222.565   5
  -2  -9   7 171.246 173.005   2
  -2  -9   6 564.046 205.945   2
   2   9  -6 37.4122 191.366   7
  -2  -9   6 553.753 278.129   6
  -2  -9   5 8216.92 582.167   2
   2   9  -5 7777.84 654.766   7
  -2  -9   5 7858.27 688.842   6
  -2  -9   4 2466.92 317.812   2
  -2  -9   4 3078.93 424.549   6
   2   9  -4 2106.97 184.041   4
   2   9  -4 3243.78 442.849   7
  -2  -9   3 192.277 120.586   2
   2   9  -3 37.9653 194.675   7
  -2  -9   3 139.589 161.326   6
   2   9  -3 132.261 77.6894   4
  -2  -9   2 7494.84 514.716   2
  -2  -9   2 7822.03 584.352   6
   2   9  -2 8635.86 671.338   7
   2   9  -2 7435.95 406.253   4
   2   9  -1 2511.81 397.798   7
   2   9  -1 2016.47 234.789   1
  -2  -9   1 2784.18 340.452   6
  -2  -9   1 1770.48 265.503   2
   2   9  -1 2336.46 245.038   4
  -2  -9   0 576.522 165.037   2
  -2  -9   0 316.129 157.540   3
   2   9   0 875.898 263.997   7
   2   9   0 817.507 174.892   1
  -2  -9   0 671.252 180.123   6
   2   9   1 7868.40 525.021   1
  -2  -9  -1 7965.21 509.952   3
   2   9   1 7478.77 627.231   7
  -2  -9  -1 7903.76 482.189   6
  -2  -9  -1 6557.32 486.654   2
  -2  -9  -2 1432.62 237.196   2
   2   9   2 1188.65 286.224   7
  -2  -9  -2 1294.77 232.467   3
   2   9   2 1529.58 254.665   1
   2   9   3 742.039 216.532   1
   2   9   3 436.352 209.500   7
  -2  -9  -3 640.047 151.158   3
  -2  -9  -3 826.161 207.751   2
  -2  -9  -4 1339.86 231.465   2
  -2  -9  -4 1190.57 251.377   3
   2   9   4 1657.03 338.295   7
   2   9   4 1308.60 268.497   1
  -2  -9  -5 8708.72 621.647   3
   2   9   5 8525.44 632.144   1
   2   9   5 9597.50 708.065   7
  -2  -9  -5 9134.55 591.789   2
  -2  -9  -6 2966.73 387.007   3
   2   9   6 3135.83 417.549   7
   2   9   6 3059.87 377.572   1
  -2  -9  -6 2828.91 349.856   2
  -2  -9  -7 520.949 205.026   2
   2   9   7 353.387 224.371   1
   2   9   7 166.991 197.569   7
  -2  -9  -7 979.438 288.310   3
   2   9   8 68.5478 189.937   1
  -2  -9  -8 59.5900 224.392   3
  -2  -9  -8 176.869 189.412   2
   2   9   8 451.548 243.977   7
   2   9   9 5804.21 553.681   7
   2   9   9 6580.30 621.347   1
  -2  -9  -9 6307.86 624.233   3
  -2  -9  -9 6193.32 561.407   2
  -2  -9 -10 347.327 210.425   2
   2   9  10 257.750 212.417   1
   2   9  10 738.661 258.506   7
  -2  -9 -10-180.882 213.824   3
  -2  -9 -11-14.8360 193.665   3
  -2  -9 -11-130.405 180.504   2
   2   9  11 167.781 191.422   1
  -2  -9 -12 572.819 296.876   3
   2   9  12 41.6334 260.398   1
  -2  -9 -12 223.329 228.521   2
  -2  -9 -13 97.0040 195.036   2
   2   9  13-52.7582 184.411   1
  -2 -10   7 452.687 291.810   6
   2  10  -7-3.51722 187.802   5
  -2 -10   6 8.37404 173.966   6
   2  10  -6 321.160 226.874   7
  -2 -10   5 274.279 170.951   2
   2  10  -5 419.156 262.572   7
  -2 -10   5 311.745 232.570   6
   2  10  -5 6.94950 71.6269   4
  -2 -10   4 585.696 206.675   2
  -2 -10   4 369.579 203.628   6
   2  10  -4 620.089 139.159   4
   2  10  -4 131.780 270.120   7
  -2 -10   3 1693.87 288.673   2
   2  10  -3 1133.25 288.246   7
  -2 -10   3 2041.36 343.456   6
   2  10  -3 1845.69 224.168   4
  -2 -10   2 522.999 188.895   2
  -2 -10   2 518.701 212.675   6
   2  10  -2 545.070 268.565   7
   2  10  -2 480.822 146.841   4
   2  10  -1 5105.32 561.992   7
  -2 -10   1 3917.91 395.368   2
   2  10  -1 5134.62 381.919   4
   2  10   0 4351.95 390.881   1
  -2 -10   0 4452.43 422.212   2
   2  10   0 3659.22 478.509   7
   2  10   1 9418.10 604.419   1
   2  10   1 9263.29 764.793   7
  -2 -10  -1 9094.59 584.978   2
   2  10   2 3092.95 370.775   1
  -2 -10  -2 2575.18 330.319   2
   2  10   2 3321.39 459.008   7
  -2 -10  -2 3451.98 384.114   3
   2  10   3 4396.66 536.051   7
   2  10   3 4048.24 436.786   1
  -2 -10  -3 3668.70 399.207   3
  -2 -10  -3 4299.64 408.791   2
   2  10   4 9374.64 671.103   1
  -2 -10  -4 9538.98 666.095   3
  -2 -10  -4 8623.25 590.582   2
   2  10   4 9655.90 743.211   7
   2  10   5-271.939 230.440   1
  -2 -10  -5-222.058 188.733   2
   2  10   5-146.398 244.362   7
  -2 -10  -5 207.247 193.009   3
   2  10   6 1926.63 360.790   1
   2  10   6 980.709 340.775   7
  -2 -10  -6 1366.26 297.524   3
  -2 -10  -6 1509.51 285.177   2
   2  10   7 7392.71 654.399   1
  -2 -10  -7 8423.19 672.709   3
  -2 -10  -7 7919.97 615.872   2
   2  10   7 7863.51 673.287   7
   2  10   8 856.972 281.529   1
   2  10   8 875.235 302.639   7
  -2 -10  -8 709.577 246.791   2
  -2 -10  -8 118.371 176.057   3
  -2 -10  -9 1373.46 310.462   2
  -2 -10  -9 1739.75 380.103   3
   2  10   9 1882.89 405.657   1
   2  10   9 1657.39 332.759   7
  -2 -10 -10 3285.34 493.698   3
   2  10  10 3466.45 470.874   7
   2  10  10 3912.06 529.256   1
  -2 -10 -10 4046.78 496.073   2
  -2 -10 -11 449.103 222.209   2
  -2 -10 -11 557.916 274.315   3
   2  10  11 60.9070 235.940   1
  -2 -10 -12 1066.82 338.631   2
   2  10  12 970.789 324.339   1
   2  11  -4-18.0137 223.536   7
   2  11  -4 266.806 126.887   4
   2  11  -3-57.7004 176.834   7
   2  11  -3 152.722 113.388   4
  -2 -11   2 1847.26 302.495   2
   2  11  -2 2054.45 390.443   7
   2  11  -2 1888.66 251.837   4
  -2 -11   1 435.827 169.981   2
   2  11  -1 775.280 294.861   7
  -2 -11   0 1.30882 168.562   2
   2  11   0 115.385 219.434   7
   2  11   1 6929.66 535.068   1
   2  11   1 5324.21 605.857   7
  -2 -11  -1 6053.67 508.807   2
  -2 -11  -2 826.717 203.120   2
   2  11   2 752.338 274.235   7
   2  11   2 662.331 215.645   1
  -2 -11  -3 1654.07 293.309   2
  -2 -11  -3 1688.93 300.442   3
   2  11   3 2063.95 356.370   1
   2  11   3 2217.62 433.314   7
   2  11   4 10727.4 749.833   1
  -2 -11  -4 11720.3 745.695   3
   2  11   4 11940.3 871.919   7
  -2 -11  -4 11022.3 698.753   2
  -2 -11  -5 89.3174 158.120   2
   2  11   5 678.998 265.939   7
   2  11   5 42.0886 185.719   1
  -2 -11  -5 822.551 280.366   3
  -2 -11  -6 598.204 204.646   3
   2  11   6 489.564 238.084   7
  -2 -11  -6 34.5819 163.967   2
   2  11   6 363.637 261.768   1
  -2 -11  -7 4452.87 481.494   2
  -2 -11  -7 4288.58 518.641   3
   2  11   7 3854.79 494.079   7
   2  11   7 5056.48 573.047   1
  -2 -11  -8 239.416 156.290   2
  -2 -11  -8 291.066 254.766   3
   2  11   8-29.8265 224.179   1
   2  11   8 91.9109 230.169   7
  -2 -11  -9 149.145 193.690   2
  -2 -11  -9 510.928 269.960   3
   2  11   9 372.281 240.927   7
   2  11   9 85.7203 214.066   1
  -2 -11 -10 1542.10 414.760   3
   2  11  10 1197.02 360.029   1
   2  11  10 1838.95 408.448   7
  -2 -11 -10 1518.30 336.047   2
   2  12  -1 574.872 240.967   7
  -2 -12   0 631.459 245.744   2
   2  12   0 288.013 208.894   7
  -2 -12  -1 1369.35 297.965   2
   2  12   1 1373.12 346.036   7
  -2 -12  -2 2150.40 328.740   2
   2  12   2 2433.80 439.093   7
   2  12   2 2002.66 316.703   1
  -2 -12  -3 198.501 216.958   2
   2  12   3-44.3992 237.442   7
   2  12   3 413.345 233.084   1
  -2 -12  -4 54.5063 150.508   2
   2  12   4 31.6126 222.446   7
   2  12   4 159.107 171.600   1
  -2 -12  -4-114.306 193.581   3
  -2 -12  -5 1061.55 285.773   2
   2  12   5 779.992 257.353   1
   2  12   5 695.829 284.873   7
  -2 -12  -5 674.099 235.192   3
   2  12   6 175.693 210.962   1
   2  12   6 291.029 314.623   7
  -2 -12  -6 226.021 263.536   3
  -2 -12  -6-73.1585 169.998   2
  -2 -12  -7 2121.15 360.645   2
  -2 -12  -7 1638.76 368.863   3
   2  12   7 1355.06 368.687   1
   2  12   7 1367.09 376.965   7
  -2 -12  -8 367.317 208.656   3
   2  12   8 292.568 310.963   7
   2  12   8 744.860 285.116   1
  -2 -12  -8 848.332 292.852   2
   3 -10  -4 2151.46 425.813   2
   3 -10  -4 1716.78 349.865   3
  -3  10   4 1493.17 349.659   1
  -3  10   3 2814.40 424.543   1
   3 -10  -3 2635.10 450.583   2
   3 -10  -2-263.802 250.423   2
  -3  10   2 656.329 273.015   1
   3  -9  -8 264.053 243.812   3
  -3   9   8-182.671 218.841   7
  -3   9   8-31.9775 231.903   1
   3  -9  -8 9.70116 185.081   2
   3  -9  -7 60.0894 205.709   3
  -3   9   7 127.803 218.889   7
  -3   9   7 415.821 237.836   1
   3  -9  -7 143.518 198.778   2
  -3   9   6 3002.41 456.532   1
   3  -9  -6 2659.37 433.763   3
  -3   9   6 4192.45 571.054   7
   3  -9  -6 2820.16 447.518   2
   3  -9  -5 451.013 240.488   3
  -3   9   5 312.553 253.103   7
  -3   9   5 283.487 194.747   1
   3  -9  -5 36.0388 214.522   2
   3  -9  -4 118.065 178.390   3
   3  -9  -4-186.340 192.589   2
  -3   9   4 373.379 235.677   1
  -3   9   4 24.2380 215.828   7
   3  -9  -3 5360.79 527.965   3
  -3   9   3 5133.45 616.352   7
   3  -9  -3 5658.06 581.110   2
  -3   9   3 6619.54 605.816   1
   3  -9  -2 61.2788 180.489   2
  -3   9   2-101.708 224.365   7
  -3   9   2-118.525 169.882   1
   3  -9  -2-438.692 247.087   3
   3  -9  -1 3823.52 479.390   2
  -3   9   1 3995.42 544.682   7
   3  -9   0 2027.27 391.332   2
  -3   9   0 2817.45 387.176   1
  -3   9   0 1991.68 383.227   7
  -3   9  -1 880.010 296.919   7
  -3   9  -1 581.029 246.884   1
   3  -9   2 703.918 276.406   2
  -3   9  -2 194.983 251.352   7
  -3   9  -2 252.555 130.937   4
   3  -9   3 1092.41 322.928   2
  -3   9  -3 1139.27 338.359   7
  -3   8  10 236.501 232.879   7
  -3   8  10-14.1604 196.274   1
   3  -8 -10-165.630 226.003   2
   3  -8  -9 67.1838 231.111   2
   3  -8  -9 823.262 316.144   3
  -3   8   9 162.626 239.217   7
  -3   8   9 750.444 263.852   1
   3  -8  -8 884.417 300.522   3
  -3   8   8 1844.83 393.021   7
   3  -8  -8 1452.95 306.315   2
  -3   8   8 1321.05 332.564   1
   3  -8  -7 1713.86 344.792   2
   3  -8  -7 1502.99 352.692   3
  -3   8   7 1157.21 310.399   7
  -3   8   7 1790.20 355.955   1
   3  -8  -6 46.7140 184.977   3
  -3   8   6 202.337 185.037   7
   3  -8  -6 204.880 233.134   2
  -3   8   6 368.342 222.694   1
  -3   8   5 1504.21 353.589   7
   3  -8  -5 2238.50 371.820   2
   3  -8  -5 1664.45 330.148   3
  -3   8   5 1974.95 364.487   1
   3  -8  -4 4408.29 493.693   2
   3  -8  -4 5026.94 505.336   3
  -3   8   4 4459.83 539.449   7
  -3   8   4 4141.95 461.979   1
   3  -8  -3 1662.35 315.506   2
   3  -8  -3 2080.29 316.620   3
  -3   8   3 2336.47 386.984   1
  -3   8   3 2341.50 386.893   7
   3  -8  -2 3265.79 438.102   2
  -3   8   2 3189.11 459.057   7
  -3   8   2 3186.46 395.662   1
   3  -8  -2 2570.54 349.778   3
   3  -8  -1 3232.55 426.297   2
  -3   8   1 3520.18 414.674   1
   3  -8  -1 3362.19 376.460   3
  -3   8   1 2809.62 434.457   7
   3  -8   0 4631.96 491.927   2
  -3   8   0 5366.34 566.073   7
  -3   8   0 5335.23 501.179   1
   3  -8   1 441.375 245.682   2
  -3   8  -1 283.893 207.310   1
  -3   8  -1 457.582 218.346   7
  -3   8  -1 358.595 164.400   4
  -3   8  -2 6950.98 535.859   1
  -3   8  -2 7469.21 663.688   7
   3  -8   2 7249.25 633.749   2
   3  -8   3 1367.59 294.911   2
  -3   8  -3 665.892 240.748   7
   3  -8   4-136.812 182.299   2
  -3   8  -4 9.86394 190.613   7
  -3   8  -4-71.3553 149.341   5
   3  -8   5 3784.81 485.289   2
  -3   8  -5 3615.33 465.494   5
   3  -8   6 629.687 265.822   2
  -3   8  -6 819.539 252.980   5
  -3   7  11-185.172 227.244   7
   3  -7 -11 206.777 279.204   3
   3  -7 -11 384.739 288.062   2
  -3   7  11-84.4248 250.351   1
   3  -7 -10 3529.08 506.442   3
  -3   7  10 3452.83 461.224   7
   3  -7 -10 3758.89 493.752   2
  -3   7  10 3321.18 488.326   1
   3  -7  -9 1372.99 349.482   3
  -3   7   9 991.241 334.807   7
  -3   7   9 1363.80 348.737   1
   3  -7  -9 1174.57 343.744   2
   3  -7  -8 461.006 248.855   3
  -3   7   8 242.166 223.684   1
   3  -7  -8 33.1701 188.259   2
  -3   7   8 117.834 175.127   7
   3  -7  -7 4413.40 492.152   3
  -3   7   7 5400.36 557.769   7
   3  -7  -7 5264.67 540.286   2
  -3   7   7 5319.38 550.055   1
   3  -7  -6 18985.6 996.299   3
  -3   7   6 20775.8 1075.16   7
   3  -7  -6 18773.9 988.650   2
  -3   7   6 19608.4 1028.59   1
   3  -7  -5 7307.34 606.973   3
  -3   7   5 6465.14 613.545   7
   3  -7  -5 6922.63 602.134   2
  -3   7   5 6804.24 600.247   1
   3  -7  -4 26052.8 1112.93   3
  -3   7   4 24696.6 1167.57   7
   3  -7  -4 23812.0 1093.47   2
  -3   7   4 25279.1 1125.20   1
   3  -7  -3 9229.04 624.787   3
  -3   7   3 9212.68 701.527   7
   3  -7  -3 7786.54 617.287   2
  -3   7   3 9698.51 672.062   1
   3  -7  -2 533.319 188.161   2
  -3   7   2 1461.54 278.147   1
   3  -7  -2 879.044 227.735   3
  -3   7   2 1239.45 263.243   7
   3  -7  -1 7000.60 514.096   3
  -3   7   1 6358.19 575.319   7
   3  -7  -1 6801.73 575.793   2
  -3   7   1 7889.59 586.397   1
   3  -7   0 15350.6 731.347   3
  -3   7   0 16633.9 930.352   7
   3  -7   0 15445.4 859.112   2
  -3   7   0 16604.7 816.718   1
  -3   7   0 15248.6 738.363   4
   3  -7   1 264.455 189.617   2
   3  -7   1 409.621 143.541   3
  -3   7  -1 139.642 167.393   7
  -3   7  -1 101.982 154.893   1
   3  -7   2 2313.95 347.653   2
  -3   7  -2 2478.73 297.891   1
  -3   7  -2 1896.96 323.986   7
  -3   7  -3 21654.3 1034.16   7
   3  -7   3 21923.0 1059.94   2
  -3   7  -3 22056.7 893.553   1
   3  -7   4 2941.21 409.720   2
  -3   7  -4 3595.67 423.557   7
  -3   7  -4 3622.98 432.779   5
   3  -7   5 4244.60 496.871   2
  -3   7  -5 4229.79 445.971   7
  -3   7  -5 4325.10 474.154   5
   3  -7   6 5641.61 578.137   2
  -3   7  -6 5926.41 565.568   5
   3  -7   7 5165.37 561.197   2
  -3   7  -7 4297.89 463.716   9
  -3   7  -7 4812.71 528.886   5
   3  -7   8-71.4995 242.769   2
   3  -6 -12 2120.57 397.357   2
   3  -6 -12 2045.10 437.846   3
  -3   6  12 2336.57 431.096   1
   3  -6 -11 577.692 297.684   3
  -3   6  11 228.614 189.287   7
  -3   6  11 358.344 279.760   1
   3  -6 -11 385.833 217.665   2
   3  -6 -10 1127.09 343.231   3
   3  -6 -10 1990.30 400.725   2
  -3   6  10 1096.67 291.232   7
  -3   6  10 1384.52 328.126   1
   3  -6  -9 14724.4 915.587   3
  -3   6   9 15243.8 884.155   7
   3  -6  -9 14797.1 903.926   2
  -3   6   9 15979.1 948.881   1
  -3   6   8 645.769 227.455   1
   3  -6  -8 523.097 272.116   3
  -3   6   8 515.806 198.049   7
   3  -6  -8 901.444 280.529   2
  -3   6   7 594.001 258.886   7
   3  -6  -7 82.9686 201.629   3
  -3   6   7 86.3890 177.047   1
   3  -6  -7 210.400 164.783   2
  -3   6   6 21257.4 1042.82   7
   3  -6  -6 19759.6 987.554   3
   3  -6  -6 21665.8 1010.54   2
  -3   6   6 22012.5 1046.61   1
   3  -6  -5 3980.21 436.151   2
  -3   6   5 3576.14 437.451   7
   3  -6  -5 3289.78 401.769   3
  -3   6   5 4063.21 449.426   1
   3  -6  -4 9888.15 648.118   3
  -3   6   4 10485.3 713.117   7
   3  -6  -4 10360.7 669.595   2
  -3   6   4 11535.6 719.346   1
  -3   6   3 35438.6 1325.32   7
   3  -6  -3 32190.2 1185.23   3
   3  -6  -3 32271.0 1215.46   2
  -3   6   3 36659.1 1272.54   1
   3  -6  -2 24499.6 979.101   3
  -3   6   2 26806.1 1140.08   7
   3  -6  -2 25548.3 1052.83   2
  -3   6   2 25458.3 1031.13   1
   3  -6  -1 1051.60 227.365   3
   3  -6  -1 552.556 171.179   2
  -3   6   1 754.025 221.581   7
  -3   6   1 885.845 216.598   1
  -3   6   1 416.075 140.405   4
   3  -6   0 57804.8 1508.78   3
  -3   6   0 61335.5 1791.37   7
   3  -6   0 57948.0 1690.34   2
  -3   6   0 59557.7 1591.71   1
   3  -6   1 4785.47 382.136   3
  -3   6  -1 5322.52 501.770   7
  -3   6  -1 4680.95 402.649   1
   3  -6   1 4864.31 459.219   2
   3  -6   2 150.478 177.076   2
   3  -6   2-67.4262 112.213   3
  -3   6  -2 70.4747 155.810   7
  -3   6  -2 198.519 141.329   1
  -3   6  -3 12094.9 719.947   7
   3  -6   3 11979.5 736.405   2
  -3   6  -3 12025.1 614.298   1
   3  -6   4 3955.86 452.916   2
  -3   6  -4 3561.75 395.201   7
  -3   6  -4 3716.97 335.311   1
  -3   6  -4 3905.87 415.406   5
   3  -6   5 922.421 265.652   2
  -3   6  -5 1076.88 242.309   7
  -3   6  -5 871.933 237.211   5
   3  -6   6 17072.0 944.019   2
  -3   6  -6 17686.4 863.677   9
  -3   6  -6 17821.5 930.448   5
   3  -6   7 1660.63 341.559   2
  -3   6  -7 1401.80 278.036   9
  -3   6  -7 1275.15 275.518   5
   3  -6   8-211.268 213.040   2
  -3   6  -8 23.4810 161.870   9
  -3   6  -8-163.731 176.697   5
   3  -6   9 2113.00 385.429   2
  -3   6  -9 2601.43 377.064   9
  -3   6  -9 2035.97 389.225   5
   3  -5 -13 96.7618 218.726   3
  -3   5  13 105.583 259.023   1
   3  -5 -13 445.206 254.983   2
   3  -5 -12 480.957 252.442   2
   3  -5 -12 1127.06 298.735   3
  -3   5  12 876.344 259.183   1
  -3   5  11 4873.72 478.106   7
   3  -5 -11 5537.11 570.597   3
   3  -5 -11 5195.76 558.497   2
  -3   5  11 5497.83 559.508   1
  -3   5  10 190.206 173.572   7
   3  -5 -10-109.725 191.594   3
  -3   5  10 92.4935 213.685   1
   3  -5 -10-271.506 230.511   2
   3  -5  -9 2715.56 409.252   2
  -3   5   9 2868.16 408.970   1
  -3   5   9 3664.42 423.154   7
   3  -5  -9 3099.91 424.627   3
   3  -5  -8 15191.8 859.512   3
  -3   5   8 16983.9 875.672   7
   3  -5  -8 15325.6 856.012   2
  -3   5   8 16395.0 902.182   1
  -3   5   7 1699.06 309.011   7
  -3   5   7 2392.34 373.502   1
   3  -5  -7 1943.98 318.471   3
   3  -5  -7 1377.02 261.697   2
   3  -5  -6 5559.33 496.398   3
  -3   5   6 5947.33 516.030   7
   3  -5  -6 6148.84 520.307   2
  -3   5   6 6842.05 560.289   1
   3  -5  -5 58476.0 1678.56   3
  -3   5   5 59267.0 1721.48   7
  -3   5   5 60018.2 1702.43   1
   3  -5  -5 57835.8 1650.84   2
   3  -5  -4 9032.57 590.225   3
  -3   5   4 7382.96 561.459   7
   3  -5  -4 7252.58 544.370   2
  -3   5   4 7677.24 546.742   1
   3  -5  -3 4023.12 380.472   3
   3  -5  -3 4085.38 391.901   2
  -3   5   3 4236.31 436.902   7
  -3   5   3 3655.08 379.342   1
   3  -5  -2 23724.2 909.353   3
   3  -5  -2 24079.3 960.426   2
  -3   5   2 26863.6 1068.05   7
  -3   5   2 24765.1 952.965   1
  -3   5   2 22962.6 872.826   4
   3  -5  -1 2746.43 324.710   2
  -3   5   1 3062.22 318.398   1
  -3   5   1 3007.43 380.532   7
   3  -5  -1 3007.30 307.418   3
  -3   5   1 2722.64 283.477   4
   3  -5   0-160.158 166.820   2
  -3   5   0 58.8146 135.785   1
   3  -5   0-67.7695 109.129   3
  -3   5   0 38.0228 131.891   7
   3  -5   1 44246.6 1200.66   3
  -3   5  -1 45069.7 1394.57   7
  -3   5  -1 43294.5 1235.36   1
   3  -5   1 43156.9 1342.07   2
   3  -5   2-47.2801 156.660   2
  -3   5  -2 355.164 147.167   1
   3  -5   2 88.8817 98.4219   3
  -3   5  -2 290.250 153.463   7
   3  -5   3 9199.86 467.634   3
  -3   5  -3 10279.0 617.479   7
  -3   5  -3 9541.84 516.518   1
   3  -5   3 9181.86 613.058   2
  -3   5  -4 22605.0 938.627   5
   3  -5   4 24203.7 1024.40   2
  -3   5  -4 24911.5 953.066   7
  -3   5  -4 25323.8 850.873   1
  -3   5  -5 4908.16 419.457   7
   3  -5   5 4947.55 480.361   2
  -3   5  -5 4792.58 351.080   1
  -3   5  -5 4142.64 414.100   5
   3  -5   6 217.298 193.928   2
  -3   5  -6 130.127 148.794   9
  -3   5  -6 124.136 135.918   7
  -3   5  -6 77.2179 126.854   5
   3  -5   7 333.806 219.692   2
  -3   5  -7 398.904 200.646   5
  -3   5  -7-36.2760 146.441   9
  -3   5  -8 489.170 179.604   9
   3  -5   8 834.262 295.499   2
  -3   5  -8 617.300 221.957   5
   3  -5   9 2423.60 404.777   2
  -3   5  -9 1956.55 318.195   9
  -3   5  -9 1901.79 348.457   5
  -3   5 -10-15.4000 169.878   9
  -3   5 -10 60.9472 200.782   5
   3  -5  10-94.3533 185.065   2
   3  -4 -14 223.513 235.495   3
   3  -4 -14 114.289 218.716   2
  -3   4  14-162.729 186.873   1
   3  -4 -13-92.8156 243.755   3
   3  -4 -13-5.28106 176.931   2
  -3   4  13 258.663 172.347   1
   3  -4 -12 571.879 237.117   3
   3  -4 -12 56.1452 186.474   2
  -3   4  12 379.499 211.994   1
   3  -4 -11 4578.23 509.985   3
  -3   4  11 4922.90 453.430   7
   3  -4 -11 5434.26 540.235   2
  -3   4  11 4720.89 510.131   1
  -3   4  10 40.8464 185.740   1
   3  -4 -10-247.937 234.036   3
  -3   4  10 347.440 184.448   7
   3  -4 -10 129.485 191.762   2
   3  -4  -9-99.4139 186.871   3
   3  -4  -9 440.600 205.513   2
  -3   4   9 219.685 194.566   1
  -3   4   9-9.50095 144.808   7
   3  -4  -8 5776.12 512.840   3
  -3   4   8 5181.04 449.077   7
   3  -4  -8 6143.89 519.990   2
  -3   4   8 5766.64 506.236   1
  -3   4   7 1022.36 242.779   7
   3  -4  -7 1568.68 292.594   2
   3  -4  -7 1199.46 262.007   3
  -3   4   7 1380.23 269.920   1
   3  -4  -6 38313.4 1307.19   3
  -3   4   6 39602.0 1298.38   7
   3  -4  -6 40673.2 1309.37   2
  -3   4   6 40680.4 1326.87   1
   3  -4  -5 26833.1 1021.32   3
  -3   4   5 25845.9 1022.21   7
  -3   4   5 26497.2 1019.24   1
   3  -4  -5 25889.1 996.359   2
   3  -4  -4 282.569 173.483   2
   3  -4  -4 103.696 141.117   3
  -3   4   4 232.041 157.653   1
  -3   4   4 538.905 185.057   7
   3  -4  -3 14309.5 690.895   3
  -3   4   3 14662.3 740.138   7
  -3   4   3 14653.5 698.481   1
   3  -4  -3 15585.1 714.384   2
   3  -4  -2 52365.5 1376.17   3
   3  -4  -2 49709.3 1388.78   2
  -3   4   2 53049.4 1488.56   7
  -3   4   2 52150.3 1386.61   1
  -3   4   2 53365.4 1333.52   4
  -3   4   1 18777.2 822.546   7
  -3   4   1 21134.1 799.754   1
   3  -4  -1 19221.9 789.879   2
   3  -4  -1 18977.3 744.444   3
   3  -4   0 32033.6 967.798   3
  -3   4   0 31869.7 1091.51   7
  -3   4   0 32881.1 1005.16   1
   3  -4   0 32823.1 1059.08   2
  -3   4  -1 37.0144 104.684   1
  -3   4  -1 240.200 146.907   7
   3  -4   1 26.9333 93.9223   3
   3  -4   2 5989.00 366.006   3
   3  -4   2 5490.80 425.054   2
  -3   4  -2 5852.56 437.679   7
   3  -4   3 77665.9 1606.37   3
  -3   4  -3 81214.9 1832.02   7
  -3   4  -3 79048.4 1680.68   1
   3  -4   3 80537.8 1901.59   2
  -3   4  -3 77876.2 1790.88   5
   3  -4   4 234.121 150.576   2
   3  -4   4 759.411 142.317   3
  -3   4  -4 615.523 159.233   7
  -3   4  -4 465.975 130.637   1
  -3   4  -4 752.113 197.729   5
  -3   4  -5 87.3574 126.285   7
   3  -4   5 110.145 91.4108   3
   3  -4   5 70.8044 144.265   2
  -3   4  -5 152.579 165.266   5
  -3   4  -5 72.8810 112.846   1
  -3   4  -6 30589.1 950.628   7
  -3   4  -6 29775.2 1019.83   9
   3  -4   6 29224.7 1146.44   2
  -3   4  -6 30409.8 876.409   1
  -3   4  -6 30068.1 1108.64   5
   3  -4   7 1739.83 299.950   2
  -3   4  -7 1598.61 247.249   9
  -3   4  -7 1789.28 286.116   5
   3  -4   8 3535.12 440.086   2
  -3   4  -8 2729.07 336.022   9
  -3   4  -8 3183.41 388.977   5
  -3   4  -9 9281.96 624.395   9
   3  -4   9 8368.58 669.606   2
  -3   4  -9 9043.05 649.531   5
  -3   4 -10 2885.58 378.203   9
  -3   4 -10 3226.52 424.703   5
   3  -4  10 2879.33 433.547   2
  -3   4 -11 664.077 239.070   9
  -3   4 -11 537.627 242.767   5
   3  -4  11 499.871 225.029   2
   3  -3 -14-55.2910 216.161   3
   3  -3 -13 214.554 214.103   3
  -3   3  13 219.018 205.663   1
   3  -3 -12 1915.96 338.034   3
  -3   3  12 1632.59 296.025   1
   3  -3 -11 897.251 271.157   3
   3  -3 -11 711.436 258.983   2
  -3   3  11 859.505 257.767   1
  -3   3  11 1167.41 229.179   7
   3  -3 -10 3745.44 420.636   3
   3  -3 -10 3309.03 421.432   2
  -3   3  10 3838.24 379.945   7
  -3   3  10 2809.92 365.667   1
   3  -3  -9 15568.5 819.487   3
  -3   3   9 16324.9 827.081   1
  -3   3   9 14865.7 717.670   7
   3  -3  -9 15915.5 832.789   2
   3  -3  -8 6162.56 508.748   3
  -3   3   8 5929.20 453.215   7
  -3   3   8 5833.77 484.204   1
   3  -3  -8 6439.69 507.318   2
   3  -3  -7 2374.88 323.124   2
   3  -3  -7 2380.06 317.645   3
  -3   3   7 2813.90 243.639   6
  -3   3   7 2846.21 330.338   1
  -3   3   7 2440.93 300.422   7
  -3   3   6 58750.8 1558.95   1
   3  -3  -6 56301.8 1564.61   3
  -3   3   6 55465.2 1201.48   6
  -3   3   6 59643.0 1541.31   7
   3  -3  -6 57370.8 1538.27   2
   3  -3  -5 6042.86 444.015   3
  -3   3   5 5727.60 437.426   7
  -3   3   5 5822.28 294.282   6
  -3   3   5 5571.48 433.743   1
   3  -3  -5 6392.98 454.063   2
  -3   3   4 330.082 177.283   7
  -3   3   4 117.900 55.8880   6
  -3   3   4 294.405 174.215   1
   3  -3  -4 159.843 146.107   2
   3  -3  -4 279.646 155.503   3
   3  -3  -3 218094. 3636.13   3
  -3   3   3 215665. 3700.23   7
  -3   3   3 222082. 3637.46   1
   3  -3  -3 217510. 3617.35   2
   3  -3  -2 64285.1 1523.94   3
   3  -3  -2 66730.1 1540.16   2
  -3   3   2 66825.7 1612.98   7
  -3   3   2 67208.0 1542.54   1
  -3   3   2 64469.9 1460.86   4
   3  -3  -1 1710.08 229.783   3
  -3   3   1 2173.74 254.376   1
   3  -3  -1 2154.96 244.721   2
  -3   3   1 2038.90 268.042   7
   3  -3   0 147191. 2547.68   3
  -3   3   0 140745. 2660.04   7
  -3   3   0 140877. 2554.95   1
   3  -3   0 138725. 2602.01   2
   3  -3   1 141776. 2478.09   3
  -3   3  -1 138165. 2627.86   7
  -3   3  -1 144246. 2529.04   1
   3  -3   1 139477. 2606.27   2
   3  -3   2 7783.04 399.265   3
  -3   3  -2 7147.57 438.933   7
  -3   3  -2 6767.27 391.365   1
   3  -3   2 6957.17 432.375   2
  -3   3  -2 7162.03 407.765   5
   3  -3   3 131897. 2307.90   3
   3  -3   3 134232. 2559.73   2
  -3   3  -3 131526. 2351.60   1
  -3   3  -3 130783. 2437.66   5
  -3   3  -3 130494. 2447.22   7
   3  -3   4 45574.4 1077.87   3
  -3   3  -4 47342.6 1194.39   7
  -3   3  -4 46841.2 1134.35   1
   3  -3   4 48447.9 1352.98   2
  -3   3  -4 46960.0 1262.24   5
   3  -3   5 16566.5 586.410   3
  -3   3  -5 17310.1 677.341   9
  -3   3  -5 18066.7 659.131   7
  -3   3  -5 16407.1 608.754   1
   3  -3   5 17921.4 803.665   2
  -3   3  -5 18082.7 758.643   5
  -3   3  -6 71090.5 1494.08   7
   3  -3   6 71345.2 1817.45   2
  -3   3  -6 67971.4 1455.25   1
  -3   3  -6 73932.1 1662.52   9
  -3   3  -6 70519.7 1740.94   5
   3  -3   6 67240.1 1409.94   3
  -3   3  -7 30584.8 1023.00   9
  -3   3  -7 31385.5 828.956   7
  -3   3  -7 28203.1 826.759   1
   3  -3   7 29530.3 1129.98   2
  -3   3  -7 29587.4 1070.86   5
  -3   3  -8 3872.75 361.700   9
   3  -3   8 4214.03 441.662   2
  -3   3  -8 4071.09 404.130   5
   3  -3   9 17515.2 929.151   2
  -3   3  -9 18109.3 874.289   5
  -3   3  -9 17183.0 826.771   9
  -3   3 -10 4875.91 487.398   5
   3  -3  10 4446.32 506.340   2
  -3   3 -10 4308.57 432.094   9
  -3   3 -11 165.094 151.476   9
  -3   3 -11 18.1547 139.656   5
   3  -3  11-36.6505 197.133   2
  -3   3 -12 2131.16 362.411   5
   3  -3  12 2467.70 420.391   2
   3  -2 -14 139.466 194.021   3
   3  -2 -13 561.509 230.598   3
   3  -2 -12 2118.05 327.664   3
  -3   2  12 2302.95 334.237   1
   3  -2 -11 7265.83 555.100   3
  -3   2  11 7105.96 541.996   6
  -3   2  11 7424.51 554.015   1
   3  -2 -10 3242.37 373.080   3
  -3   2  10 3476.16 329.749   7
  -3   2  10 3745.75 377.270   1
  -3   2  10 3289.77 352.388   6
   3  -2  -9 7952.88 556.514   3
  -3   2   9 8251.86 504.813   7
  -3   2   9 8388.55 526.556   6
  -3   2   9 7891.38 550.289   1
   3  -2  -8 36961.2 1209.71   3
  -3   2   8 36632.7 1110.64   7
  -3   2   8 37271.4 1110.38   6
  -3   2   8 37749.8 1218.96   1
   3  -2  -8 37287.9 1238.31   2
  -3   2   7 38.2502 84.0702   6
  -3   2   7-173.300 149.929   1
   3  -2  -7 19.0991 137.066   3
   3  -2  -7 241.565 143.116   2
  -3   2   7-7.72943 113.954   7
   3  -2  -6 47306.2 1327.81   3
  -3   2   6 45718.7 1249.82   7
  -3   2   6 46865.7 1139.21   6
  -3   2   6 48131.8 1313.72   1
   3  -2  -6 46323.0 1310.45   2
   3  -2  -5 101997. 2112.11   3
  -3   2   5 101979. 2079.70   7
  -3   2   5 102196. 1867.28   6
  -3   2   5 99968.6 2090.34   1
   3  -2  -5 101175. 2085.12   2
  -3   2   4 1215.73 198.183   1
   3  -2  -4 992.993 177.063   2
   3  -2  -4 1093.51 200.851   3
  -3   2   4 1122.72 140.903   6
  -3   2   4 992.698 186.030   7
   3  -2  -3 16262.4 660.067   3
  -3   2   3 16651.8 680.907   7
  -3   2   3 17200.1 536.595   6
  -3   2   3 17651.9 678.601   1
   3  -2  -3 16298.4 649.466   2
   3  -2  -2 381358. 5668.63   2
   3  -2  -2 387523. 5700.95   3
  -3   2   2 388880. 5708.77   1
   3  -2  -1 25512.7 790.011   3
  -3   2   1 25898.6 843.697   7
  -3   2   1 26331.0 801.568   1
   3  -2  -1 25873.4 796.611   2
   3  -2   0 116713. 2116.81   3
  -3   2   0 115111. 2202.88   7
  -3   2   0 116803. 2134.70   1
   3  -2   0 121173. 2171.00   2
   3  -2   1 287181. 4336.00   3
  -3   2  -1 288217. 4375.01   1
   3  -2   1 282893. 4411.44   2
  -3   2  -1 288287. 4258.21   5
  -3   2  -1 284292. 4441.08   7
   3  -2   2 8015.24 392.442   3
  -3   2  -2 8437.87 431.400   7
  -3   2  -2 8178.65 412.200   1
   3  -2   2 7941.16 435.153   2
  -3   2  -2 8145.04 391.534   5
   3  -2   3 14612.2 543.145   3
   3  -2   3 15910.0 646.139   2
  -3   2  -3 17037.4 606.323   7
  -3   2  -3 16121.5 576.119   1
  -3   2  -3 15801.0 593.884   5
   3  -2   4 250264. 3833.88   3
  -3   2  -4 247856. 3863.02   7
  -3   2  -4 253800. 3880.96   1
  -3   2  -4 252656. 3835.38   9
  -3   2  -4 249796. 4014.74   5
   3  -2   4 248509. 4119.83   2
   3  -2   5 1150.43 218.512   2
   3  -2   5 771.596 141.559   3
  -3   2  -5 1008.22 143.722   7
  -3   2  -5 917.442 158.330   9
  -3   2  -5 952.138 176.440   5
  -3   2  -5 685.004 144.455   1
   3  -2   6 1142.86 211.396   2
  -3   2  -6 1026.91 136.645   7
  -3   2  -6 1180.32 178.526   9
   3  -2   6 1035.98 155.633   3
  -3   2  -6 1230.20 205.897   5
  -3   2  -6 964.215 151.664   1
  -3   2  -7 58129.9 1268.26   1
   3  -2   7 57163.2 1575.18   2
  -3   2  -7 54465.9 1469.89   5
  -3   2  -7 56603.5 1421.80   9
   3  -2   7 56089.4 1252.79   3
  -3   2  -8 749.067 172.610   9
  -3   2  -8 1006.44 157.621   1
  -3   2  -8 1070.51 231.758   5
   3  -2   8 810.065 222.029   2
  -3   2  -9 28.6443 109.875   9
  -3   2  -9 90.2507 148.914   5
   3  -2   9 126.535 163.468   2
  -3   2 -10 4193.81 430.413   5
   3  -2  10 3338.48 422.674   2
  -3   2 -11 1099.86 288.952   5
   3  -2  11 872.268 291.047   2
  -3   2 -12 277.089 168.883   5
   3  -2  12 579.352 284.857   2
  -3   2 -13 1174.96 307.227   5
   3  -2  13 1217.44 334.564   2
  -3   1  14 1553.10 335.932   6
   3  -1 -13 869.959 226.266   3
  -3   1  13 1508.04 321.614   6
  -3   1  12 256.267 190.583   6
   3  -1 -12 419.231 189.711   3
   3  -1 -11 8795.37 575.766   3
  -3   1  11 9309.23 648.247   6
  -3   1  11 8281.11 549.841   1
   3  -1 -10 1603.00 272.898   3
  -3   1  10 1296.45 233.419   1
  -3   1  10 1333.53 236.538   6
   3  -1  -9 12122.6 640.050   3
  -3   1   9 11769.9 562.552   7
  -3   1   9 12619.8 688.237   6
  -3   1   9 11460.6 623.197   1
   3  -1  -8 36572.9 1141.08   3
  -3   1   8 34466.3 1025.02   7
  -3   1   8 35459.6 1149.00   6
  -3   1   8 38769.5 1158.12   1
  -3   1   7 2227.29 279.247   1
  -3   1   7 2271.06 268.296   6
   3  -1  -7 2720.21 291.330   3
  -3   1   7 2620.93 276.509   7
   3  -1  -7 2379.14 255.956   4
  -3   1   6 13366.7 594.345   7
   3  -1  -6 14374.7 637.423   3
  -3   1   6 13655.6 594.497   6
  -3   1   6 14415.6 631.261   1
   3  -1  -6 14718.0 637.144   2
   3  -1  -5 40805.2 1104.77   3
  -3   1   5 40969.5 1087.46   7
  -3   1   5 39584.3 791.708   5
  -3   1   5 40204.1 1099.30   1
   3  -1  -5 41227.0 1102.69   2
  -3   1   5 43090.2 1071.46   6
  -3   1   4 24664.6 731.344   6
   3  -1  -4 24813.5 801.373   3
   3  -1  -4 23287.7 761.638   2
  -3   1   4 24350.7 781.012   7
  -3   1   4 24139.5 782.116   1
  -3   1   4 24055.0 516.107   5
   3  -1  -3 11070.6 491.921   3
  -3   1   3 11398.5 498.621   1
  -3   1   3 11244.9 500.191   7
  -3   1   3 10938.2 443.751   6
   3  -1  -3 10970.4 469.885   2
   3  -1  -2 151697. 2618.25   3
  -3   1   2 151266. 2632.14   7
  -3   1   2 152526. 2497.73   6
  -3   1   2 156910. 2611.83   1
   3  -1  -2 156639. 2564.97   2
   3  -1  -1 15004.4 556.416   3
   3  -1  -1 14835.9 517.500   2
  -3   1   1 14729.0 564.210   7
  -3   1   1 14640.5 546.532   1
   3  -1   0 2072.96 189.740   2
  -3   1   0 1826.65 194.465   7
   3  -1   0 1705.79 184.317   3
  -3   1   0 1827.08 138.503   5
  -3   1   0 1590.37 195.734   1
   3  -1   1 58815.0 1238.81   3
  -3   1  -1 60380.0 1268.28   7
  -3   1  -1 59880.0 1263.29   1
   3  -1   1 58021.2 1230.44   2
  -3   1  -1 59803.4 1133.02   5
   3  -1   2 27771.8 749.989   3
  -3   1  -2 26736.0 573.103   9
  -3   1  -2 26087.2 697.406   5
  -3   1  -2 27458.8 767.394   1
   3  -1   2 27284.7 773.766   2
  -3   1  -2 27629.4 755.726   7
   3  -1   3 27740.8 753.247   3
  -3   1  -3 28381.5 655.194   9
  -3   1  -3 27404.6 737.186   7
  -3   1  -3 27132.5 764.026   1
   3  -1   3 27549.7 816.678   2
  -3   1  -3 27098.1 759.073   5
   3  -1   4 657.771 148.370   2
  -3   1  -4 758.159 118.327   9
  -3   1  -4 756.097 115.170   7
   3  -1   4 864.800 145.209   3
  -3   1  -4 784.778 140.956   5
  -3   1  -5 6739.60 398.613   5
   3  -1   5 6779.98 369.246   8
  -3   1  -5 7137.97 318.245   7
  -3   1  -5 6994.19 362.666   1
   3  -1   5 7241.37 442.486   2
  -3   1  -5 7125.96 365.458   9
   3  -1   5 6972.38 362.064   3
  -3   1  -6 5767.91 344.315   1
   3  -1   6 5383.52 403.954   2
   3  -1   6 5844.07 354.700   8
  -3   1  -6 5978.79 368.330   9
  -3   1  -6 6633.15 420.886   5
   3  -1   7 3212.35 262.552   8
  -3   1  -7 2952.17 257.593   1
   3  -1   7 3371.44 344.464   2
  -3   1  -7 3567.07 189.134   7
  -3   1  -7 3230.77 289.943   9
  -3   1  -7 2960.95 301.815   5
   3  -1   7 2735.79 260.402   3
   3  -1   8 214.011 107.701   8
   3  -1   8 174.997 118.336   3
  -3   1  -8 89.9193 98.6489   1
  -3   1  -8 146.331 135.248   5
   3  -1   8 192.101 190.991   2
  -3   1  -9 12527.2 537.794   1
   3  -1   9 12374.9 538.575   8
   3  -1   9 13567.9 757.824   2
  -3   1  -9 11874.8 669.948   5
  -3   1 -10 164.288 152.723   5
   3  -1  10 474.446 202.360   2
  -3   1 -11 570.184 212.724   5
   3  -1  11 293.533 199.851   2
   3  -1  12 6165.21 587.979   2
  -3   1 -12 5397.73 518.117   5
  -3   1 -13 251.452 183.863   5
   3  -1  13 506.563 225.293   2
   3  -1  14 226.925 238.172   2
  -3   0  14 593.782 278.986   6
  -3   0  13 982.171 283.961   6
   3   0 -12 953.694 219.535   3
  -3   0  12 1345.91 305.051   6
   3   0 -11 13458.0 663.578   3
  -3   0  11 13995.9 857.912   6
   3   0 -10 9758.84 549.101   3
  -3   0  10 8646.98 644.361   6
  -3   0  10 8618.94 512.940   1
   3   0  -9 46657.6 1261.60   3
  -3   0   9 43160.4 1222.83   1
  -3   0   9 44402.8 1434.08   6
  -3   0   8 103.126 103.528   1
  -3   0   8 233.066 166.354   6
   3   0  -8 41.3708 113.137   3
   3   0  -7 17822.2 685.935   3
  -3   0   7 17681.4 775.597   6
  -3   0   7 17007.1 665.704   1
   3   0  -7 16918.1 609.274   4
  -3   0   6 33890.9 1052.43   6
  -3   0   6 34731.8 957.940   7
   3   0  -6 35391.5 974.807   3
  -3   0   6 33410.4 945.504   1
   3   0  -6 33406.5 896.019   4
  -3   0   5 20291.4 681.454   7
   3   0  -5 19849.3 676.772   3
  -3   0   5 20582.7 742.083   6
  -3   0   5 20755.1 684.769   1
  -3   0   5 19676.1 466.724   5
   3   0  -5 19944.6 647.761   4
  -3   0   4 66729.5 1402.07   7
   3   0  -4 65384.7 1379.90   3
  -3   0   4 66070.5 1445.52   6
  -3   0   4 63787.4 1375.41   1
  -3   0   4 64446.9 1012.02   5
   3   0  -4 66355.9 1357.78   2
   3   0  -3 31178.7 835.071   3
  -3   0   3 29180.4 709.884   9
  -3   0   3 29673.8 832.161   7
  -3   0   3 29483.0 830.290   6
  -3   0   3 30408.1 815.577   1
   3   0  -3 30774.3 773.397   2
   3   0  -2 17557.8 584.157   3
  -3   0   2 16504.7 576.597   7
  -3   0   2 16408.7 568.281   6
  -3   0   2 16395.2 555.730   1
  -3   0   2 16795.8 432.522   9
   3   0  -2 16650.1 511.523   2
   3   0  -1 58303.2 1219.78   3
  -3   0   1 60718.4 1255.54   7
  -3   0   1 58318.6 1218.66   1
  -3   0   1 58306.7 875.301   5
   3   0  -1 61322.2 1127.72   2
  -3   0   1 59027.6 924.398   9
   3   0   0 220167. 3359.78   3
  -3   0   0 210353. 3355.99   7
   3   0   0 215494. 3223.66   2
  -3   0   0 221901. 3041.87   5
  -3   0   0 215581. 3361.68   1
   3   0   1 287868. 4280.51   3
  -3   0  -1 278575. 4253.81   7
  -3   0  -1 289485. 4278.49   1
   3   0   1 289796. 4158.25   2
  -3   0  -1 289225. 4045.82   5
   3   0   2 23267.3 657.213   3
   3   0   2 22498.1 665.013   8
  -3   0  -2 22860.0 671.188   1
   3   0   2 21939.4 619.819   2
  -3   0  -2 23050.2 634.608   7
  -3   0  -2 21871.5 578.603   5
   3   0   3 124775. 2122.41   3
   3   0   3 123256. 2128.81   8
  -3   0  -3 123734. 2126.77   1
  -3   0  -3 124142. 2017.09   7
   3   0   3 120323. 2110.41   2
  -3   0  -3 120405. 2057.20   5
   3   0   4 41743.7 998.217   3
   3   0   4 41288.5 997.581   8
   3   0   4 40449.5 1025.94   2
  -3   0  -4 43094.9 1010.54   1
  -3   0  -4 40809.0 991.270   5
   3   0   5 822.435 172.582   2
   3   0   5 805.117 141.499   3
  -3   0  -5 639.208 138.611   1
  -3   0  -5 944.070 160.982   5
   3   0   5 643.244 129.985   8
   3   0   6 65037.0 1367.65   8
  -3   0  -6 58912.1 1351.95   1
   3   0   6 63668.2 1505.84   2
  -3   0  -6 63164.9 1446.21   5
   3   0   6 62553.2 1381.31   3
  -3   0  -7 27158.5 814.217   1
   3   0   7 26160.8 793.991   8
   3   0   7 25452.8 938.857   2
  -3   0  -7 25270.2 886.056   5
   3   0   7 25291.5 825.330   3
  -3   0  -8 5368.12 355.195   1
   3   0   8 5004.88 429.047   2
   3   0   8 4617.98 323.674   8
  -3   0  -8 4631.25 384.590   5
  -3   0  -9 16993.1 666.403   3
  -3   0  -9 17175.7 658.602   1
   3   0   9 16932.7 828.253   2
   3   0   9 16197.6 638.546   8
  -3   0  -9 16233.3 759.770   5
   3   0   9 16588.2 706.385   3
  -3   0 -10 18266.5 712.338   1
  -3   0 -10 19969.8 877.597   5
   3   0  10 18309.5 786.410   3
   3   0  10 20370.1 948.795   2
   3   0  10 18281.3 695.223   8
  -3   0 -11 1776.07 293.590   5
   3   0  11 2017.77 343.394   2
  -3   0 -12 2295.45 330.932   5
   3   0  12 1954.41 365.184   2
  -3   0 -13 2167.73 344.762   5
   3   0  13 2008.13 362.218   2
  -3   0 -14 411.990 219.551   5
   3   0  14 339.599 262.129   2
  -3  -1  14-86.5562 219.433   6
  -3  -1  13 22.1861 198.172   6
  -3  -1  12 295.154 192.651   6
   3   1 -12 131.385 90.6662   5
  -3  -1  11 6246.67 597.202   6
   3   1 -11 5561.90 382.950   5
  -3  -1  10 106.994 156.532   6
   3   1 -10 436.774 143.666   3
   3   1 -10 280.028 110.684   5
   3   1  -9-61.4563 116.057   3
  -3  -1   9 236.460 208.173   6
  -3  -1   9 190.877 112.550   1
   3   1  -9 47.1488 96.6097   5
   3   1  -8 20785.6 706.779   3
  -3  -1   8 21160.2 944.466   6
   3   1  -8 19376.4 626.135   5
  -3  -1   8 19752.7 704.908   1
   3   1  -7 2496.86 236.376   3
  -3  -1   7 2011.82 213.308   1
  -3  -1   7 2389.73 308.613   6
   3   1  -7 2037.92 178.991   5
   3   1  -6 18913.1 636.425   3
  -3  -1   6 17579.1 768.507   6
   3   1  -6 17622.4 691.588   9
   3   1  -6 18565.4 512.525   5
  -3  -1   6 17768.0 606.298   1
   3   1  -5 78754.5 1543.96   3
  -3  -1   5 77718.8 1766.84   6
  -3  -1   5 78619.0 1518.82   1
   3   1  -5 79845.4 1300.20   5
   3   1  -5 78335.3 1605.65   9
   3   1  -5 75245.0 1424.69   4
   3   1  -4 63284.8 1308.97   3
   3   1  -4 62615.3 1303.02   9
  -3  -1   4 63458.2 1478.38   6
  -3  -1   4 63878.0 1285.17   1
   3   1  -4 64569.2 1026.34   5
   3   1  -4 65075.6 1240.53   4
   3   1  -3 71840.1 1408.28   3
  -3  -1   3 75333.2 1571.76   6
  -3  -1   3 74359.9 1398.50   1
   3   1  -3 73070.3 1056.91   5
   3   1  -3 73404.4 1355.58   9
   3   1  -2 540539. 7702.04   3
  -3  -1   2 548485. 7683.71   1
  -3  -1   2 537287. 7844.28   6
   3   1  -1 43834.7 971.287   3
  -3  -1   1 42465.3 1029.99   6
   3   1  -1 43731.1 770.702   9
  -3  -1   1 43637.8 967.196   1
   3   1  -1 45715.1 805.206   2
   3   1   0 37017.2 883.435   3
   3   1   0 38484.1 891.137   8
  -3  -1   0 38216.1 887.849   1
   3   1   0 37221.8 597.511   9
   3   1   0 36899.9 699.923   2
   3   1   0 39057.1 646.349   5
  -3  -1  -1 655431. 8924.50   1
   3   1   1 653794. 8908.14   3
   3   1   1 647202. 8907.83   8
   3   1   1 654460. 8674.49   2
  -3  -1  -1 656857. 8666.04   5
   3   1   1 624219. 8640.93   5
   3   1   2 11014.9 448.353   3
   3   1   2 11551.3 282.648   9
  -3  -1  -2 11831.1 465.022   1
   3   1   2 11476.6 446.892   8
   3   1   2 11813.3 383.176   2
  -3  -1  -2 11592.2 382.670   5
   3   1   3 32565.2 838.998   3
   3   1   3 32096.0 772.346   2
  -3  -1  -3 33573.1 852.523   1
   3   1   3 31942.2 828.263   8
   3   1   3 31572.5 657.451   9
  -3  -1  -3 32715.2 780.536   5
   3   1   4 352277. 5197.34   8
  -3  -1  -4 364398. 5236.27   1
   3   1   4 361416. 5179.02   2
  -3  -1  -4 358843. 5181.54   5
  -3  -1  -5 404.628 124.785   1
   3   1   5 815.002 141.051   8
   3   1   5 493.430 127.323   3
  -3  -1  -5 486.233 123.520   5
   3   1   5 607.844 137.923   2
   3   1   6 9137.68 438.552   8
  -3  -1  -6 9121.86 448.439   1
   3   1   6 8751.13 312.387   7
   3   1   6 9100.31 490.230   2
  -3  -1  -6 9272.69 467.856   5
   3   1   6 8866.75 454.316   3
   3   1   7 170124. 2855.45   8
   3   1   7 172180. 3049.62   2
  -3  -1  -7 161908. 2952.65   5
   3   1   7 164743. 2936.72   3
   3   1   8 9982.46 579.081   2
  -3  -1  -8 9723.43 501.670   1
  -3  -1  -8 9027.27 524.019   5
   3   1   8 9765.48 534.402   3
  -3  -1  -9 10949.1 563.439   1
   3   1   9 12217.7 675.772   2
  -3  -1  -9 10715.2 601.094   5
  -3  -1 -10 34701.6 1044.78   1
   3   1  10 32046.7 1221.69   2
  -3  -1 -10 33303.7 1056.22   3
   3   1  10 32671.7 1000.91   8
  -3  -1 -10 31779.6 1118.58   5
   3   1  10 32442.8 1118.06   3
   3   1  11 1924.13 248.115   8
  -3  -1 -11 1793.64 257.297   1
  -3  -1 -11 1819.25 263.105   3
  -3  -1 -11 2029.85 297.515   5
   3   1  11 1897.58 315.155   2
  -3  -1 -12 259.667 174.043   5
   3   1  12 370.693 218.232   2
   3   1  13 4303.95 495.463   2
  -3  -1 -13 4411.89 462.265   5
  -3  -1 -14-34.4440 171.995   5
  -3  -2  14 1515.67 400.974   6
  -3  -2  13 1037.97 316.141   6
  -3  -2  12 573.101 252.945   6
   3   2 -12 389.059 138.211   5
  -3  -2  11 1356.70 312.419   6
   3   2 -11 1572.73 217.649   5
  -3  -2  10 811.351 234.072   6
   3   2 -10 1128.26 165.127   5
   3   2  -9 3784.34 279.709   3
  -3  -2   9 3791.84 454.478   6
   3   2  -9 3488.00 379.644   9
   3   2  -9 4014.09 304.693   5
   3   2  -8 23130.7 702.688   3
   3   2  -8 22221.7 899.553   9
  -3  -2   8 24241.7 1061.34   6
   3   2  -8 22649.9 712.794   5
  -3  -2   8 21693.2 671.559   1
   3   2  -7 66236.4 1333.52   3
   3   2  -7 63129.7 1578.38   9
  -3  -2   7 66470.1 1807.15   6
   3   2  -7 64236.3 1314.78   5
  -3  -2   7 65518.7 1311.51   1
  -3  -2   6 160.866 87.6635   1
   3   2  -6 177.490 133.213   9
   3   2  -6 151.255 107.795   3
  -3  -2   6 66.5711 120.920   6
   3   2  -6 15.7243 70.4844   5
   3   2  -5 91713.1 1655.63   3
  -3  -2   5 93585.4 2049.14   6
   3   2  -5 90883.1 1836.38   9
  -3  -2   5 91221.9 1626.18   1
   3   2  -5 91198.6 1544.64   5
   3   2  -4 182773. 2852.63   3
  -3  -2   4 180315. 3227.21   6
  -3  -2   4 180955. 2807.18   1
   3   2  -4 184272. 2989.33   9
   3   2  -4 180316. 2678.10   5
   3   2  -4 183006. 2683.22   4
   3   2  -3 2039.83 183.942   3
  -3  -2   3 2076.34 173.139   1
  -3  -2   3 2011.25 233.673   6
   3   2  -3 1980.23 190.684   9
   3   2  -3 2269.37 131.016   5
   3   2  -3 2626.17 170.862   4
   3   2  -2 52226.4 1085.81   3
  -3  -2   2 52653.4 1059.15   1
  -3  -2   2 52483.0 1249.43   6
   3   2  -1 94406.7 1670.56   3
   3   2  -1 96785.8 1664.79   8
  -3  -2   1 92052.6 1654.17   1
  -3  -2   1 96565.2 1828.79   6
   3   2  -1 95696.2 1347.63   2
   3   2   0 38392.8 884.705   3
   3   2   0 38713.3 876.731   8
  -3  -2   0 38186.9 886.400   1
   3   2   1 296097. 4373.87   3
   3   2   1 292766. 4351.18   8
  -3  -2  -1 296095. 4387.00   1
   3   2   1 298711. 4038.56   2
   3   2   2 86888.1 1611.42   8
  -3  -2  -2 86489.4 1648.77   1
   3   2   2 89709.1 1425.95   2
  -3  -2  -2 87789.8 1572.59  10
   3   2   2 87326.0 1642.27   3
  -3  -2  -3 14647.9 556.161   1
  -3  -2  -3 15675.2 540.085  10
   3   2   3 14709.8 559.308   3
   3   2   4 147330. 2492.81   1
  -3  -2  -4 146512. 2557.35   1
   3   2   4 147853. 2443.67   2
   3   2   4 152742. 2563.13   3
   3   2   5 27109.5 800.877   1
   3   2   5 26947.0 806.730   2
  -3  -2  -5 28167.8 816.255   5
  -3  -2  -5 29132.8 862.344   1
   3   2   5 25818.9 835.332   3
   3   2   6 402.405 136.087   1
  -3  -2  -6 584.150 152.628   1
   3   2   6 269.156 131.207   3
  -3  -2  -6 513.558 133.380   5
   3   2   6 458.910 140.718   2
   3   2   7 33015.7 949.436   1
   3   2   7 30759.3 664.068   7
   3   2   7 32805.6 1010.53   2
  -3  -2  -7 31404.3 970.105   5
  -3  -2  -7 33967.7 1004.75   1
  -3  -2  -8 30029.9 946.495   3
  -3  -2  -8 31188.4 981.885   1
   3   2   8 31770.7 1048.40   2
   3   2   8 27752.5 915.268   1
  -3  -2  -8 28733.4 971.883   5
   3   2   8 29337.5 1032.12   3
   3   2   9 1617.52 231.670   1
  -3  -2  -9 1576.29 240.654   1
  -3  -2  -9 1872.80 266.029   3
   3   2   9 1602.73 272.738   3
  -3  -2  -9 2083.13 271.697   5
   3   2   9 1785.54 295.520   2
   3   2  10 12685.3 728.151   2
  -3  -2 -10 12262.8 626.933   1
   3   2  10 10941.9 575.024   1
  -3  -2 -10 11009.4 629.210   5
   3   2  10 11518.4 695.406   3
  -3  -2 -11 4327.46 387.277   1
  -3  -2 -11 4290.72 418.065   3
  -3  -2 -11 4794.45 443.518   5
   3   2  11 4207.70 369.737   1
   3   2  12 1654.24 237.931   1
  -3  -2 -12 1816.45 294.139   1
  -3  -2 -12 1920.56 300.254   3
  -3  -2 -12 1929.59 300.407   5
  -3  -2 -14 376.705 182.829  10
  -3  -2 -15-192.321 221.201  10
  -3  -3  13 2176.31 458.579   6
  -3  -3  12 484.955 308.639   6
   3   3 -12 295.315 131.889   5
   3   3 -11 2680.01 387.599   9
  -3  -3  11 2408.85 435.070   6
   3   3 -11 2825.86 307.566   5
   3   3 -10 18498.5 921.660   9
   3   3 -10 17204.4 723.516   5
   3   3  -9 1005.63 247.375   9
  -3  -3   9 1304.16 307.926   6
   3   3  -9 800.092 160.579   5
   3   3  -8 3540.63 372.248   9
  -3  -3   8 3951.40 442.630   6
   3   3  -8 3587.90 283.806   5
   3   3  -7 38739.9 1205.52   9
  -3  -3   7 39834.1 1393.89   6
   3   3  -7 36392.0 951.541   5
  -3  -3   6 182.790 75.3404   1
   3   3  -6 87.7998 75.5513   3
   3   3  -6-21.4811 120.825   9
  -3  -3   6 49.5928 163.014   6
   3   3  -6-9.04936 75.1184   5
   3   3  -5 13939.1 468.133   3
   3   3  -5 14107.3 624.025   9
  -3  -3   5 15220.0 736.951   6
   3   3  -5 14246.7 493.066   5
   3   3  -4 53092.7 1252.67   9
  -3  -3   4 54137.8 1436.28   6
   3   3  -3 36141.7 829.440   3
  -3  -3   3 37838.2 809.996   1
  -3  -3   3 36815.5 1104.32   6
   3   3  -3 37910.4 693.926   4
   3   3  -2 26379.5 674.262   3
   3   3  -2 26217.7 647.059   8
  -3  -3   2 25529.1 646.136   1
  -3  -3   2 25664.0 853.950   6
   3   3  -1 349569. 5028.80   3
  -3  -3   1 350338. 5290.13   6
  -3  -3   1 351296. 5015.11   1
   3   3  -1 347160. 4988.98   8
   3   3   0 12541.8 463.632   3
   3   3   0 13656.3 459.028   8
  -3  -3   0 12354.1 462.795   1
  -3  -3   0 13035.4 535.010   6
  -3  -3  -1 41267.1 976.879   1
   3   3   1 40508.1 948.056   1
   3   3   1 43107.9 981.080   3
   3   3   2 47722.4 1066.34   1
  -3  -3  -2 46568.6 1105.85   1
   3   3   2 48444.6 1098.84   3
  -3  -3  -3 35230.3 955.926   1
   3   3   3 36566.3 917.754   1
   3   3   3 34919.5 950.881   3
   3   3   4 29116.4 836.108   1
  -3  -3  -4 29651.4 885.525   1
   3   3   4 29382.1 875.204   3
  -3  -3  -5 20014.8 697.018  10
  -3  -3  -5 17993.8 703.419   1
   3   3   5 18910.7 664.641   1
   3   3   5 19368.0 718.927   3
  -3  -3  -6 80.0277 136.710   1
  -3  -3  -6 187.845 110.224  10
   3   3   6 154.489 124.985   3
   3   3   6 119.591 70.7715   7
   3   3   6 196.115 131.970   1
  -3  -3  -7 3610.51 323.092  10
  -3  -3  -7 3107.36 321.360   1
   3   3   7 3214.92 293.495   1
   3   3   7 2811.65 330.544   3
  -3  -3  -7 3450.90 318.268   3
  -3  -3  -8 15670.2 698.876   3
  -3  -3  -8 15351.9 715.247   1
   3   3   8 14623.4 646.203   1
  -3  -3  -8 15876.3 706.876  10
  -3  -3  -9 7903.91 512.723   3
  -3  -3  -9 8552.95 526.731   1
   3   3   9 7192.60 488.492   1
  -3  -3  -9 7686.66 512.556  10
  -3  -3 -10 19892.6 851.090   1
  -3  -3 -10 21122.2 886.748   3
   3   3  10 18788.2 909.001   3
  -3  -3 -10 20222.5 864.569  10
  -3  -3 -11 311.092 181.493   1
  -3  -3 -11 47.8748 138.638   3
   3   3  11 308.028 165.303   1
  -3  -3 -11-131.484 172.086  10
  -3  -3 -12 1598.82 309.738   1
   3   3  12 2087.67 282.643   1
  -3  -3 -12 2342.93 342.547   3
  -3  -3 -12 1911.83 299.897  10
  -3  -3 -13 6234.21 546.898   3
  -3  -3 -13 5792.85 503.660  10
  -3  -3 -13 5852.60 510.688   1
   3   3  13 6020.78 478.291   1
  -3  -3 -14 44.9836 170.207  10
  -3  -3 -15 91.0831 150.356  10
  -3  -4  13 458.107 282.650   6
   3   4 -12-147.250 211.722   9
  -3  -4  12 126.952 279.662   6
   3   4 -12 246.658 161.211   5
   3   4 -11 643.345 258.520   9
  -3  -4  11 162.511 241.863   6
   3   4 -11 223.439 140.995   5
   3   4 -10 2970.22 402.619   9
  -3  -4  10 3100.77 487.193   6
   3   4 -10 2923.38 321.249   5
   3   4  -9 1088.68 215.159   7
   3   4  -9 1746.67 305.245   9
  -3  -4   9 2095.21 398.418   6
   3   4  -9 1612.25 227.210   5
   3   4  -8 690.288 167.379   7
  -3  -4   8 974.878 257.439   6
  -3  -4   8 1077.81 205.006   2
   3   4  -8 849.206 234.151   9
   3   4  -8 889.366 168.174   5
   3   4  -7 12517.5 404.452   3
  -3  -4   7 12331.2 589.022   2
   3   4  -7 12909.2 704.227   9
   3   4  -7 14101.8 589.844   5
  -3  -4   7 13444.8 820.505   6
   3   4  -6 4535.78 397.189   9
  -3  -4   6 4352.83 315.996   2
  -3  -4   6 4470.21 461.579   6
   3   4  -6 4446.00 313.479   5
   3   4  -5 41840.7 877.863   3
  -3  -4   5 43213.3 1380.49   6
   3   4  -5 41454.0 1023.74   5
   3   4  -4 2752.53 198.758   3
  -3  -4   4 2492.67 166.186   1
  -3  -4   4 3199.88 224.058   2
  -3  -4   4 2401.19 303.794   6
   3   4  -3 5417.02 272.195   3
   3   4  -3 4940.50 242.426   8
  -3  -4   3 5386.84 418.568   6
  -3  -4   3 5068.87 241.464   1
  -3  -4   3 5298.88 253.107   2
   3   4  -2 129267. 2056.30   8
  -3  -4   2 126038. 2071.40   1
  -3  -4   2 126564. 1919.37   2
  -3  -4   2 130460. 2486.52   6
   3   4  -2 127349. 2100.35   3
  -3  -4   1 1494.81 204.835   6
   3   4  -1 1585.32 152.972   8
  -3  -4   1 1525.67 167.062   1
  -3  -4   1 1326.46 85.8236   2
   3   4  -1 1456.62 161.523   3
  -3  -4   0 640.771 118.180   1
   3   4   0 845.799 153.557   3
   3   4   0 861.221 134.559   1
  -3  -4   0 707.452 57.3273   2
  -3  -4   0 819.668 150.761   6
  -3  -4  -1 44090.2 1100.81   6
  -3  -4  -1 44595.8 757.419   2
   3   4   1 43290.2 1052.47   3
   3   4   2 13039.7 540.196   3
   3   4   3 23312.6 717.228   7
   3   4   3 23389.5 767.493   3
   3   4   4 228178. 3863.33   1
   3   4   4 249194. 3750.69   7
   3   4   5 4638.24 304.614   7
   3   4   5 4005.19 379.728   3
  -3  -4  -6 6558.70 427.680   3
   3   4   6 6879.34 440.294   1
   3   4   6 6948.56 368.958   7
   3   4   7 114200. 2026.38   7
  -3  -4  -7 111963. 2278.40   3
   3   4   7 113875. 2386.86   3
  -3  -4  -8 10085.3 587.628   3
   3   4   8 10424.1 580.404   1
   3   4   8 10032.7 633.078   3
   3   4   9 4954.90 428.915   1
   3   4   9 4426.19 482.694   3
  -3  -4 -10 40440.2 1307.75   3
   3   4  10 35951.1 1234.12   1
  -3  -4 -11 3597.26 411.226   3
   3   4  11 2999.54 358.184   1
  -3  -4 -12 1365.55 289.540   1
  -3  -4 -12 1136.69 285.575   3
   3   4  12 1275.37 283.970   1
   3   4  13 4803.72 451.914   1
  -3  -4 -13 4572.79 501.779   1
  -3  -4 -13 4594.79 488.059   3
   3   4  14 357.426 174.339   1
  -3  -4 -14 575.773 254.810   1
  -3  -4 -14-19.3146 214.851   3
  -3  -5  12 252.555 310.086   6
   3   5 -12 54.3967 135.282   5
   3   5 -11 528.184 219.311   9
  -3  -5  11 691.956 301.661   6
   3   5 -11 496.139 194.801   5
   3   5 -10 348.160 213.337   9
  -3  -5  10 899.830 337.620   6
   3   5 -10 253.029 131.608   5
  -3  -5  10 419.846 197.734   2
   3   5  -9 3390.29 417.782   9
  -3  -5   9 3571.08 504.791   6
   3   5  -9 3172.29 318.194   5
  -3  -5   9 2662.81 322.905   2
   3   5  -8 6822.10 559.780   9
   3   5  -8 6033.39 429.545   7
  -3  -5   8 6768.80 461.440   2
  -3  -5   8 7750.30 676.445   6
   3   5  -8 6454.11 447.644   5
   3   5  -7 17288.8 844.498   9
  -3  -5   7 16032.8 948.765   6
  -3  -5   7 16651.2 708.224   2
   3   5  -7 16944.5 705.224   5
   3   5  -6 369.415 164.390   7
   3   5  -6 353.156 134.401   5
  -3  -5   6 199.848 200.750   6
  -3  -5   6 268.478 118.489   2
  -3  -5   5 49404.8 1174.06   2
   3   5  -5 49534.5 1317.90   7
   3   5  -4 75987.3 1706.13   7
  -3  -5   4 73179.9 1256.43   1
  -3  -5   4 75371.2 1469.26   2
   3   5  -4 74975.2 1352.26   3
  -3  -5   4 78346.4 1950.73   6
   3   5  -3 3141.71 189.992   8
   3   5  -3 2834.43 302.131   7
  -3  -5   3 2697.16 191.340   1
  -3  -5   3 3077.83 344.328   6
  -3  -5   3 2574.11 191.981   2
   3   5  -3 3206.25 214.798   3
   3   5  -2 117030. 1892.95   8
   3   5  -2 109898. 2208.99   7
  -3  -5   2 117256. 2368.42   6
  -3  -5   2 110015. 1821.88   2
   3   5  -2 113979. 1944.71   3
   3   5  -1 91828.2 1864.94   7
  -3  -5   1 88380.0 1914.38   6
  -3  -5   1 89057.5 1446.50   2
   3   5  -1 86282.8 1591.44   1
   3   5  -1 88471.5 1655.72   3
   3   5   0 93.1909 70.6901   1
  -3  -5   0 68.1752 52.9660   2
   3   5   0 48.0894 125.726   7
  -3  -5   0 31.9295 88.0674   1
   3   5   0 109.406 88.0134   3
  -3  -5   0-101.570 99.6973   6
  -3  -5  -1 118221. 1851.53   2
   3   5   1 117625. 2244.19   7
  -3  -5  -1 119714. 2240.62   6
   3   5   1 118188. 2160.14   3
   3   5   2 203169. 3429.80   7
  -3  -5  -2 206320. 3383.95   6
  -3  -5  -2 202911. 3075.02   2
   3   5   2 207055. 3417.19   3
   3   5   2 214660. 3377.32   1
   3   5   3 12035.4 566.807   1
   3   5   3 12808.3 565.952   7
  -3  -5  -3 12488.8 451.888   2
   3   5   3 12495.8 576.644   3
   3   5   4 46000.4 1195.34   1
   3   5   4 44223.4 1171.08   7
  -3  -5  -4 45750.5 1189.67   3
   3   5   4 47464.0 1275.67   3
   3   5   5 96395.7 1989.19   1
  -3  -5  -5 95439.1 1986.98   3
   3   5   5 93208.1 1909.62   7
   3   5   6 4284.84 335.699   7
   3   5   6 4780.37 382.186   1
  -3  -5  -6 4069.82 356.573   3
   3   5   7 21739.9 858.000   1
  -3  -5  -7 20690.2 840.950   3
   3   5   7 20126.5 733.171   7
   3   5   8 19787.4 852.517   1
  -3  -5  -8 20400.8 871.849   3
   3   5   8 19791.3 744.246   7
   3   5   8 17701.0 919.406   3
   3   5   9 1811.57 280.409   1
   3   5   9 1321.72 188.793   7
  -3  -5  -9 1232.21 265.770   3
   3   5  10 2426.25 325.848   1
  -3  -5 -10 2084.41 316.700   3
  -3  -5 -11 11732.4 757.868   3
  -3  -5 -12-163.526 202.744   3
   3   5  12-83.8884 150.804   1
  -3  -5 -13 992.574 314.836   3
   3   5  13 1312.93 296.455   1
  -3  -5 -14 2160.49 412.550   3
   3   5  14 2003.13 349.127   1
  -3  -5 -15 191.867 164.190   1
  -3  -5 -15 187.344 248.461   3
   3   5  15 546.564 234.208   1
  -3  -6  11 1429.50 414.024   6
   3   6 -11 1543.20 258.069   5
  -3  -6  10 5969.85 511.946   2
   3   6 -10 6300.66 608.635   9
  -3  -6  10 5990.98 676.125   6
   3   6 -10 6903.03 525.291   5
   3   6  -9 78.8593 176.909   9
  -3  -6   9 357.573 284.657   6
   3   6  -9 64.4950 142.367   5
  -3  -6   9-60.7352 127.434   2
   3   6  -8 8386.80 643.588   9
  -3  -6   8 9094.49 772.564   6
  -3  -6   8 8380.07 544.793   2
   3   6  -8 8023.21 540.433   5
   3   6  -7 47264.0 1528.15   9
   3   6  -7 45080.9 1319.48   5
   3   6  -7 43729.4 1339.44   7
  -3  -6   7 44826.0 1669.13   6
  -3  -6   7 46005.8 1294.76   2
   3   6  -6 24537.1 951.405   7
  -3  -6   6 26960.9 1203.75   6
  -3  -6   6 24745.2 854.139   2
   3   6  -5 28374.8 1013.22   7
  -3  -6   5 30651.7 1226.68   6
  -3  -6   5 27650.0 860.165   2
  -3  -6   4 44164.7 1448.51   6
  -3  -6   4 42058.9 1046.07   2
   3   6  -4 42001.8 1268.41   7
  -3  -6   3 536.833 110.946   2
   3   6  -3 584.799 93.9123   8
  -3  -6   3 401.525 97.3010   1
   3   6  -3 636.569 173.819   7
  -3  -6   3 458.461 197.931   6
   3   6  -3 454.118 112.148   3
  -3  -6   2 17938.2 809.146   6
   3   6  -2 18035.2 762.966   7
  -3  -6   2 18341.6 564.560   2
   3   6  -2 18157.3 559.405   1
   3   6  -2 18468.8 608.110   3
   3   6  -1 38402.1 1173.52   7
   3   6  -1 41507.5 959.286   1
  -3  -6   1 37645.5 866.530   2
  -3  -6   1 40492.5 1215.01   6
   3   6  -1 41354.4 1018.21   3
   3   6   0 20763.0 681.887   1
   3   6   0 19860.0 805.979   7
  -3  -6   0 20424.5 569.752   2
  -3  -6   0 21385.0 804.401   6
   3   6   1 13089.1 554.454   1
  -3  -6  -1 13090.8 540.043   3
  -3  -6  -1 13054.8 591.087   6
  -3  -6  -1 12330.1 434.694   2
   3   6   1 13440.7 598.651   3
   3   6   1 12120.0 623.969   7
   3   6   2 127764. 2475.17   7
  -3  -6  -2 128748. 2359.99   6
  -3  -6  -2 124286. 2320.73   3
  -3  -6  -2 126114. 2108.40   2
   3   6   3 502.099 172.713   1
   3   6   3 711.194 195.441   3
   3   6   3 739.125 178.206   7
  -3  -6  -3 448.979 155.788   3
  -3  -6  -3 624.834 130.868   6
  -3  -6  -3 569.553 123.279   2
   3   6   4 3981.47 336.355   1
  -3  -6  -4 3151.81 314.795   3
   3   6   4 3017.71 306.431   7
   3   6   4 2799.30 335.519   3
  -3  -6  -4 2800.76 252.818   2
  -3  -6  -5 56489.4 1446.98   3
   3   6   5 53239.5 1415.94   7
  -3  -6  -5 52975.0 1281.42   2
   3   6   5 52422.1 1504.60   3
   3   6   6 762.936 206.920   7
  -3  -6  -6 560.688 180.320   3
   3   6   6 180.205 179.149   3
   3   6   6 899.377 218.643   1
   3   6   7 85.0284 124.748   7
  -3  -6  -7 122.176 155.388   3
   3   6   7 172.808 156.862   1
   3   6   7 26.5176 179.882   3
   3   6   8 17332.0 835.868   1
  -3  -6  -8 19103.8 874.624   3
   3   6   8 17647.9 762.945   7
   3   6   9 6463.73 526.762   1
  -3  -6  -9 6099.11 522.228   3
   3   6   9 6426.47 434.979   7
   3   6  10 1756.85 286.122   1
  -3  -6 -10 1889.16 340.543   3
   3   6  11 2244.84 348.692   1
  -3  -6 -11 3409.15 439.374   3
   3   6  12 860.838 286.952   1
  -3  -6 -12 1450.49 291.147   3
  -3  -6 -13 1359.58 295.119   3
   3   6  13 1600.77 310.468   1
   3   6  14-9.64535 177.455   1
  -3  -6 -14-52.7102 226.659   3
  -3  -6 -15 864.448 307.167   3
   3   6  15-342.601 218.221   1
  -3  -7  11-289.332 283.778   6
   3   7 -11-25.8110 165.668   5
  -3  -7  10 1314.11 400.654   6
   3   7 -10 2153.04 318.539   5
   3   7  -9 2848.76 433.032   9
  -3  -7   9 3414.41 523.194   6
   3   7  -9 3360.96 376.704   5
   3   7  -8 103.899 146.670   7
  -3  -7   8 267.444 195.773   6
   3   7  -8 604.606 206.447   9
   3   7  -8 402.978 160.248   5
  -3  -7   8 307.470 165.306   2
   3   7  -7 2484.77 348.379   7
  -3  -7   7 3571.01 494.123   6
   3   7  -7 3154.64 349.693   5
  -3  -7   7 2912.04 332.578   2
  -3  -7   6 1119.83 293.699   6
   3   7  -6 928.530 238.705   7
  -3  -7   6 908.026 184.571   2
   3   7  -5 824.679 231.068   7
  -3  -7   5 1069.70 282.553   6
  -3  -7   5 959.498 176.597   2
   3   7  -4 9857.19 630.627   7
  -3  -7   4 11899.5 759.814   6
  -3  -7   4 11221.5 523.602   2
   3   7  -3 27872.6 705.726   1
  -3  -7   3 30758.8 1163.58   6
  -3  -7   3 28323.0 841.389   2
  -3  -7   3 29366.0 744.532   3
   3   7  -3 29225.1 1091.44   7
   3   7  -3 26671.1 584.005   4
   3   7  -3 28862.2 791.369   3
   3   7  -2 12100.0 466.070   1
   3   7  -2 11956.0 683.203   7
  -3  -7   2 12076.9 499.986   2
  -3  -7   2 12331.5 694.485   6
  -3  -7   2 12269.9 485.941   3
   3   7  -1 4329.00 409.009   7
   3   7  -1 4482.97 315.387   1
  -3  -7   1 4735.93 411.275   6
  -3  -7   1 4619.24 295.547   2
  -3  -7   1 5044.38 325.620   3
   3   7  -1 4696.22 342.315   3
   3   7   0 18106.2 674.875   1
  -3  -7   0 20035.7 806.015   6
  -3  -7   0 17618.1 658.802   3
  -3  -7   0 18042.6 602.334   2
   3   7   0 18168.3 828.811   7
   3   7   1 2493.32 259.404   1
   3   7   1 2434.90 295.088   3
   3   7   1 2272.52 317.183   7
  -3  -7  -1 1912.23 233.165   3
  -3  -7  -1 2559.30 278.120   6
  -3  -7  -1 2238.17 214.194   2
  -3  -7  -2 561.420 164.376   3
  -3  -7  -2 711.152 150.835   2
   3   7   2 185.320 136.937   3
   3   7   2 575.772 190.465   7
  -3  -7  -2 512.861 142.545   6
   3   7   2 258.494 144.784   1
   3   7   3 3318.31 330.886   1
  -3  -7  -3 3464.60 333.563   3
  -3  -7  -3 3928.18 318.078   6
   3   7   3 3161.72 356.760   7
  -3  -7  -3 3142.32 272.201   2
   3   7   3 3206.17 370.949   3
   3   7   4 2729.75 334.213   3
   3   7   4 2394.74 311.007   7
  -3  -7  -4 2688.15 312.228   3
  -3  -7  -4 2832.27 259.367   6
   3   7   4 2563.94 310.112   1
  -3  -7  -4 2887.09 266.843   2
   3   7   5 30.4138 149.611   7
  -3  -7  -5-36.5228 142.791   3
  -3  -7  -5 189.689 127.370   2
   3   7   5 49.2886 142.977   1
   3   7   5 265.771 192.226   3
  -3  -7  -6 991.319 219.346   2
   3   7   6 833.358 211.219   7
  -3  -7  -6 771.455 185.466   3
   3   7   6 634.438 192.311   1
   3   7   7 24827.8 975.622   7
   3   7   7 23859.4 1007.09   1
  -3  -7  -7 23335.4 993.483   3
  -3  -7  -7 24430.4 920.744   2
   3   7   8 8736.06 629.338   1
   3   7   8 7813.62 543.813   7
  -3  -7  -8 9384.20 639.018   3
   3   7   9 16770.8 875.827   1
  -3  -7  -9 17843.7 919.972   3
   3   7  10 5938.54 537.367   1
  -3  -7 -10 5519.60 527.895   3
  -3  -7 -11 656.814 224.964   3
   3   7  11 954.127 291.219   1
   3   7  12 725.840 246.377   1
  -3  -7 -12 171.286 202.493   3
   3   7  13 2030.53 376.310   1
  -3  -7 -13 1493.66 382.354   3
   3   7  14 261.725 206.465   1
  -3  -7 -14 86.3889 195.023   3
  -3  -8  10 221.514 283.070   6
   3   8 -10-68.0203 159.920   5
  -3  -8   9 851.852 329.090   6
   3   8  -9-16.1773 139.185   5
   3   8  -8 293.555 220.109   9
  -3  -8   8 113.388 206.486   6
   3   8  -8 357.160 198.839   5
   3   8  -7 443.687 221.028   7
  -3  -8   7 394.754 215.228   6
   3   8  -7 658.125 216.767   5
  -3  -8   6 1339.07 312.595   6
   3   8  -6 1351.99 281.806   7
  -3  -8   5 134.798 131.297   2
   3   8  -5 107.964 159.923   7
  -3  -8   5-39.5477 195.094   6
  -3  -8   4 71397.4 2046.05   6
   3   8  -4 71116.5 1923.04   7
  -3  -8   4 71915.2 1618.88   2
  -3  -8   3 436.409 134.686   2
   3   8  -3 452.217 226.062   7
  -3  -8   3 938.266 242.667   6
   3   8  -3 502.922 104.353   4
   3   8  -2 8077.97 404.417   1
   3   8  -2 8557.21 621.146   7
  -3  -8   2 8047.76 587.339   6
  -3  -8   2 6877.07 413.075   2
   3   8  -1 5177.24 487.450   7
   3   8  -1 4870.97 350.651   1
  -3  -8   1 5015.58 431.954   6
  -3  -8   1 5003.84 340.284   2
  -3  -8   1 4248.86 324.568   3
  -3  -8   0 185.075 110.319   2
   3   8   0 145.627 162.731   7
  -3  -8   0 234.239 126.128   3
  -3  -8   0 297.287 153.975   6
   3   8   0 434.259 145.961   1
   3   8   1 5999.78 411.100   1
  -3  -8  -1 5795.92 423.723   6
  -3  -8  -1 5767.90 402.710   3
   3   8   1 5905.70 504.836   7
  -3  -8  -1 6332.92 382.266   2
   3   8   2 7792.43 506.971   1
  -3  -8  -2 8182.54 490.608   6
  -3  -8  -2 7347.61 479.256   3
   3   8   2 7523.72 577.830   7
  -3  -8  -2 7995.37 443.463   2
  -3  -8  -3 115.471 118.670   2
   3   8   3 42.9098 168.051   7
  -3  -8  -3 110.355 163.193   3
  -3  -8  -3 67.6113 82.6830   6
   3   8   3-24.3693 127.630   1
   3   8   4 17613.0 820.610   1
  -3  -8  -4 17726.8 810.783   3
  -3  -8  -4 18583.1 696.983   6
  -3  -8  -4 18075.8 722.772   2
   3   8   4 17261.2 873.500   7
   3   8   5 24054.3 992.150   1
  -3  -8  -5 22555.2 778.557   6
   3   8   5 22876.5 1015.78   7
  -3  -8  -5 23256.9 971.088   3
  -3  -8  -5 23772.6 866.696   2
  -3  -8  -6 700.125 200.792   2
   3   8   6 867.729 246.818   7
  -3  -8  -6 284.729 144.759   3
   3   8   6 518.786 237.163   1
  -3  -8  -6 596.811 145.395   6
   3   8   7 5262.14 509.626   1
  -3  -8  -7 5568.58 506.275   3
   3   8   7 4433.24 453.236   7
  -3  -8  -7 5792.16 469.656   2
  -3  -8  -8 5002.38 497.266   3
   3   8   8 5168.98 478.169   7
   3   8   8 4219.01 450.051   1
  -3  -8  -8 5060.48 475.447   2
  -3  -8  -9 2391.13 332.245   2
   3   8   9 2025.59 314.849   7
  -3  -8  -9 2224.90 360.329   3
   3   8   9 1876.85 358.538   1
  -3  -8 -10 65.2265 189.449   2
   3   8  10 21.8375 162.598   7
  -3  -8 -10-80.5838 250.985   3
   3   8  10 399.486 258.145   1
   3   8  11 8405.67 687.489   1
  -3  -8 -11 8273.94 703.786   3
  -3  -8 -12-133.751 267.053   3
   3   8  12 201.978 244.549   1
   3   8  13 465.658 261.156   1
  -3  -8 -13 776.745 316.685   3
   3   8  14 287.240 198.062   1
  -3  -8 -14 574.919 216.042   3
  -3  -9   8 733.882 311.323   6
   3   9  -8 408.727 176.922   5
  -3  -9   7 2929.80 471.171   6
   3   9  -7 2808.67 372.059   5
   3   9  -7 2404.40 383.150   7
   3   9  -6 2123.81 378.725   7
  -3  -9   6 2123.59 406.067   6
   3   9  -5 3609.54 459.935   7
   3   9  -5 2688.07 170.195   4
  -3  -9   5 3049.67 441.902   6
   3   9  -4 1780.11 339.507   7
  -3  -9   4 1540.20 326.389   6
   3   9  -4 733.549 122.838   4
   3   9  -3 1224.62 276.038   7
  -3  -9   3 1227.50 265.437   6
   3   9  -3 1152.13 167.072   4
  -3  -9   2 5220.53 490.667   6
  -3  -9   2 4411.63 363.342   2
   3   9  -2 5692.01 535.586   7
   3   9  -1 16092.8 665.209   1
   3   9  -1 16422.9 910.799   7
  -3  -9   1 17071.5 844.209   6
  -3  -9   1 15354.9 673.146   2
   3   9   0 5461.35 399.574   1
  -3  -9   0 4741.94 382.630   3
  -3  -9   0 4437.78 404.232   6
  -3  -9   0 4661.89 357.095   2
   3   9   0 5017.76 520.270   7
  -3  -9  -1 489.889 168.029   2
  -3  -9  -1 700.766 201.693   3
   3   9   1 403.242 220.784   7
  -3  -9  -1 334.306 133.630   6
   3   9   1 745.972 180.593   1
   3   9   2 30509.9 1080.81   1
  -3  -9  -2 29880.2 1067.14   3
  -3  -9  -2 30927.7 1023.60   6
   3   9   2 31906.1 1286.20   7
  -3  -9  -2 31056.9 990.970   2
   3   9   3 16986.2 806.462   1
  -3  -9  -3 16991.5 807.742   3
   3   9   3 16870.5 924.922   7
  -3  -9  -3 16706.4 699.250   6
  -3  -9  -3 15538.3 696.465   2
  -3  -9  -4 1593.03 242.393   2
   3   9   4 2100.76 373.711   7
  -3  -9  -4 1709.04 296.758   3
   3   9   4 1585.00 277.941   1
   3   9   5 14960.3 830.394   1
  -3  -9  -5 15942.1 838.886   3
   3   9   5 15127.0 870.256   7
  -3  -9  -5 15776.0 737.180   2
   3   9   6 1383.85 300.655   7
  -3  -9  -6 1452.13 288.219   3
   3   9   6 1506.84 303.547   1
  -3  -9  -6 1322.98 266.412   2
  -3  -9  -7 32.1834 168.447   2
   3   9   7 305.731 215.020   7
  -3  -9  -7-129.984 187.973   3
   3   9   7 43.7526 174.214   1
   3   9   8 11181.8 763.137   1
  -3  -9  -8 11969.7 786.801   3
   3   9   8 11757.4 755.703   7
  -3  -9  -8 11244.7 697.917   2
  -3  -9  -9-55.7402 171.944   2
   3   9   9 96.4368 182.855   7
  -3  -9  -9 350.690 230.827   3
   3   9   9-71.0862 233.410   1
   3   9  10-136.550 168.042   7
  -3  -9 -10-220.280 235.000   3
  -3  -9 -10-75.7450 185.459   2
   3   9  10-10.1632 221.033   1
  -3  -9 -11 2228.26 363.402   2
  -3  -9 -11 3265.42 473.294   3
   3   9  11 3175.14 466.795   1
  -3  -9 -12 460.772 238.587   2
  -3  -9 -12-223.954 230.576   3
   3   9  12 457.815 203.059   1
  -3  -9 -13 390.952 247.718   2
   3   9  13 78.5558 241.106   1
   3  10  -7 807.141 232.448   5
   3  10  -7 584.890 85.8802   4
   3  10  -6 1047.17 279.271   7
  -3 -10   6 898.708 337.898   6
   3  10  -6 664.828 115.988   4
   3  10  -5 1065.56 317.820   7
  -3 -10   5 945.052 262.411   6
   3  10  -5 795.012 141.076   4
   3  10  -4 1133.70 300.738   7
  -3 -10   4 1338.24 292.282   6
   3  10  -4 518.142 144.461   4
  -3 -10   3 4661.36 510.999   6
   3  10  -3 5116.94 567.637   7
   3  10  -2 8.64681 179.490   7
  -3 -10   2 279.330 193.196   6
   3  10  -1 1291.45 311.299   7
  -3 -10   1 1442.32 276.283   6
   3  10   0 4616.81 395.168   1
  -3 -10   0 4229.20 375.380   2
   3  10   0 4499.97 527.805   7
  -3 -10   0 4111.66 407.339   6
  -3 -10  -1 2600.76 294.954   2
   3  10   1 2798.30 435.036   7
  -3 -10  -1 2488.21 322.155   3
  -3 -10  -1 3047.57 335.946   6
   3  10   1 2974.60 333.235   1
   3  10   2 4323.06 418.542   1
  -3 -10  -2 4326.78 408.073   3
   3  10   2 5061.39 555.567   7
  -3 -10  -2 4428.96 391.674   2
  -3 -10  -3 1352.39 236.781   2
   3  10   3 1397.98 326.013   7
  -3 -10  -3 1247.51 258.976   3
   3  10   3 1344.03 254.054   1
  -3 -10  -4 172.755 136.675   2
  -3 -10  -4-245.014 224.463   3
   3  10   4 303.388 146.858   1
   3  10   4 5.02079 190.788   7
   3  10   5 5064.55 511.262   1
  -3 -10  -5 5082.88 497.923   3
  -3 -10  -5 5981.41 481.773   2
   3  10   5 5495.22 562.596   7
   3  10   6 6591.92 578.594   1
  -3 -10  -6 5465.95 534.184   3
   3  10   6 5003.13 538.145   7
  -3 -10  -6 5792.91 481.708   2
   3  10   7-285.505 219.502   7
  -3 -10  -7-6.36028 201.961   3
   3  10   7 65.2318 211.575   1
  -3 -10  -7 548.854 194.376   2
   3  10   8 3309.71 447.838   7
  -3 -10  -8 4686.44 536.090   3
  -3 -10  -8 4426.64 461.366   2
   3  10   8 4196.39 520.545   1
   3  10   9 5504.04 575.350   1
  -3 -10  -9 5580.72 593.882   3
   3  10   9 4938.10 549.241   7
  -3 -10  -9 5522.65 525.012   2
  -3 -10 -10 223.819 210.199   2
   3  10  10 102.867 200.771   7
  -3 -10 -10-127.486 233.164   3
   3  10  10 232.663 193.854   1
  -3 -10 -11 724.893 343.539   3
  -3 -10 -11 683.953 253.962   2
   3  10  11 382.352 223.625   1
  -3 -10 -12 67.2417 167.674   2
   3  10  12 21.8956 237.875   1
   3  11  -5 116.567 210.977   7
  -3 -11   5 607.549 220.780   6
   3  11  -5 339.008 121.469   4
  -3 -11   4-48.1180 182.994   6
   3  11  -4 157.497 198.148   7
   3  11  -3 1075.44 321.396   7
  -3 -11   3 1542.47 321.586   6
   3  11  -2-54.6473 240.895   7
  -3 -11   2 133.776 152.149   6
   3  11  -1 512.180 288.578   7
   3  11   0 2688.53 445.379   7
   3  11   1 856.873 264.714   7
   3  11   1 1171.50 245.576   1
   3  11   2 168.425 243.979   7
   3  11   2 224.123 161.749   1
  -3 -11  -3 2119.40 298.274   2
   3  11   3 2371.06 422.611   7
  -3 -11  -3 2165.67 331.063   3
   3  11   3 1878.34 318.062   1
  -3 -11  -4 262.754 135.163   2
   3  11   4 129.607 227.989   7
  -3 -11  -4 237.804 158.327   3
   3  11   4-95.2319 237.254   1
   3  11   5 288.685 201.325   1
  -3 -11  -5 497.825 247.167   3
   3  11   5-58.1437 221.148   7
  -3 -11  -5 579.588 205.310   2
  -3 -11  -6 210.045 235.366   3
  -3 -11  -6 471.957 198.153   2
   3  11   6 190.863 220.110   7
   3  11   6 286.616 236.737   1
  -3 -11  -7-16.4820 196.754   2
   3  11   7 33.5866 241.541   7
  -3 -11  -7 402.326 190.702   3
   3  11   7 189.369 212.071   1
  -3 -11  -8 1745.93 315.627   2
   3  11   8 1724.32 387.337   7
  -3 -11  -8 1535.81 364.872   3
   3  11   8 2034.55 428.840   1
  -3 -11  -9 426.625 220.687   2
   3  11   9 79.5255 232.078   7
  -3 -11  -9 327.058 228.904   3
   3  11   9 292.371 226.805   1
  -3 -11 -10 47.2520 204.188   2
  -3 -11 -10-125.721 222.084   3
   3  11  10-153.528 211.175   1
   3  12  -2 199.496 295.191   7
   3  12  -1-290.290 272.034   7
   3  12   0 533.388 330.802   7
   3  12   1 38.0772 244.158   7
   3  12   2 1075.06 362.462   7
   3  12   2 1176.69 272.632   1
   3  12   3 736.285 286.159   7
   3  12   3 752.418 226.876   1
   3  12   4 231.069 238.582   7
  -3 -12  -4 24.6226 155.136   3
   3  12   4-30.1066 198.777   1
  -3 -12  -5 2508.26 421.791   3
   3  12   5 1816.74 405.574   7
   3  12   5 1776.93 354.600   1
   3  12   6-130.432 183.838   1
   3  12   6-121.696 226.479   7
  -3 -12  -6-91.1390 200.163   3
   3  12   7 168.083 173.329   7
  -3 -12  -7-46.5970 186.378   2
  -3 -12  -7-7.23746 223.721   3
   3  12   7-273.583 225.967   1
   3  12   8 721.754 315.785   7
  -3 -12  -8 1.90006 240.335   3
   3  12   8-129.539 283.232   1
  -3 -12  -8 75.1981 164.098   2
   4  -9  -4 120.744 211.961   2
   4  -9  -4 95.2387 174.822   3
  -4   9   4 67.5069 216.172   1
   4  -9  -3 2540.97 434.460   2
   4  -9  -3 2104.53 355.300   3
  -4   9   3 2151.68 397.912   1
   4  -9  -2 3161.63 476.217   2
  -4   9   2 4388.47 599.268   7
  -4   9   2 3841.24 489.838   1
   4  -9  -1 1582.43 333.971   2
  -4   9   1 2013.61 340.750   1
  -4   9   1 1466.09 380.952   7
   4  -9   0 4481.06 560.556   2
  -4   9   0 4586.88 508.664   1
  -4   9   0 5405.32 622.554   7
   4  -8  -8 2478.92 450.805   3
  -4   8   8 2966.41 491.316   7
  -4   8   8 3267.70 492.962   1
   4  -8  -7 1739.80 368.849   2
  -4   8   7 1420.95 344.520   7
  -4   8   7 1678.67 350.123   1
   4  -8  -7 1309.90 337.422   3
   4  -8  -6 738.182 278.194   2
   4  -8  -6 308.992 236.805   3
  -4   8   6 471.411 258.385   7
  -4   8   6 936.536 289.212   1
   4  -8  -5 6566.13 620.989   3
  -4   8   5 7203.35 709.307   7
   4  -8  -5 6544.50 638.219   2
  -4   8   5 8546.64 724.987   1
   4  -8  -4 2235.84 362.925   3
   4  -8  -4 2825.52 441.881   2
  -4   8   4 2475.80 410.919   7
  -4   8   4 2965.92 442.683   1
   4  -8  -3 321.839 215.710   2
   4  -8  -3 58.3219 171.559   3
  -4   8   3 785.314 257.600   7
  -4   8   3 809.438 263.515   1
   4  -8  -2 10056.9 702.911   3
  -4   8   2 9304.94 781.406   7
   4  -8  -2 9587.79 752.842   2
  -4   8   2 10674.1 763.549   1
   4  -8  -1 3119.67 439.735   2
  -4   8   1 3884.85 452.452   1
   4  -8  -1 2854.48 377.742   3
  -4   8   1 3291.55 472.660   7
   4  -8   0 217.549 286.999   2
  -4   8   0 252.012 226.847   1
  -4   8   0-56.7418 175.646   7
   4  -8   1 14017.9 910.190   2
  -4   8  -1 13598.9 808.687   1
  -4   8  -1 13642.2 918.089   7
   4  -8   2 765.191 284.322   2
  -4   8  -2 858.900 231.802   1
  -4   8  -2 1196.94 334.888   7
   4  -8   3 249.916 221.955   2
  -4   8  -3 139.731 194.683   7
  -4   8  -3 536.632 206.161   5
   4  -8   4 2589.42 413.166   2
  -4   8  -4 2778.24 394.902   7
  -4   8  -4 2475.28 407.415   5
  -4   7  10 5324.08 581.865   7
   4  -7 -10 6061.58 648.790   2
  -4   7  10 5953.69 633.721   1
   4  -7  -9-64.8715 178.836   2
   4  -7  -9-113.993 242.245   3
  -4   7   9 15.3333 256.756   7
  -4   7   9-79.0071 228.768   1
   4  -7  -8 1097.43 360.767   3
   4  -7  -8 1046.77 315.679   2
  -4   7   8 1327.35 335.352   7
  -4   7   8 1548.22 372.371   1
  -4   7   7 4247.34 512.333   7
   4  -7  -7 4005.56 495.677   2
  -4   7   7 4339.74 524.797   1
   4  -7  -7 3521.03 475.760   3
   4  -7  -6 175.403 184.711   2
   4  -7  -6 173.484 197.782   3
  -4   7   6 229.603 219.889   1
  -4   7   6 180.073 216.823   7
   4  -7  -5 293.342 170.980   3
   4  -7  -5 197.293 208.147   2
  -4   7   5 221.312 216.301   7
  -4   7   5 350.749 199.650   1
   4  -7  -4 4056.43 468.236   2
  -4   7   4 4025.44 464.130   1
   4  -7  -4 3810.77 451.052   3
  -4   7   4 3600.78 488.761   7
   4  -7  -3-80.2208 191.907   2
  -4   7   3-115.522 184.803   1
  -4   7   3-63.9465 246.856   7
   4  -7  -3-168.142 229.951   3
   4  -7  -2 734.081 236.600   2
  -4   7   2 808.840 255.685   1
   4  -7  -2 611.143 203.947   3
  -4   7   2 1101.37 278.228   7
   4  -7  -1 5529.00 498.983   3
  -4   7   1 5726.96 580.675   7
   4  -7  -1 6008.59 559.704   2
  -4   7   1 5603.61 512.093   1
   4  -7   0 551.235 226.931   2
  -4   7   0 938.306 235.585   1
   4  -7   0 1414.61 276.835   3
  -4   7   0 797.756 239.322   7
   4  -7   1 147.443 169.443   2
  -4   7  -1 35.3274 148.598   1
  -4   7  -1-241.945 251.659   7
   4  -7   2 3205.59 442.232   2
  -4   7  -2 3794.92 494.355   7
  -4   7  -2 3326.27 383.631   1
  -4   7  -3 1526.51 262.751   1
   4  -7   3 1457.61 312.214   2
  -4   7  -3 1199.36 245.332   7
  -4   7  -3 1453.10 298.172   5
   4  -7   4 375.561 198.371   2
  -4   7  -4 384.429 156.160   7
  -4   7  -4 182.758 174.456   5
   4  -7   5 681.962 247.644   2
  -4   7  -5 722.218 250.376   5
   4  -7   6 1429.37 337.171   2
  -4   7  -6 904.487 251.735   5
   4  -6 -11 409.442 264.909   2
   4  -6 -11 391.079 205.513   3
  -4   6  11 452.203 231.080   7
  -4   6  11 439.737 235.233   1
   4  -6 -10 1776.99 358.027   2
   4  -6 -10 1660.37 357.738   3
  -4   6  10 1717.81 361.614   7
  -4   6  10 1390.36 348.669   1
   4  -6  -9 2574.02 437.009   3
   4  -6  -9 2482.37 407.546   2
  -4   6   9 2551.74 387.203   7
  -4   6   9 2572.33 446.927   1
   4  -6  -8 17.4581 207.222   3
  -4   6   8 70.8174 197.420   1
   4  -6  -8-285.245 252.005   2
  -4   6   7-143.027 216.568   7
   4  -6  -7-160.260 237.658   2
  -4   6   7 638.041 267.709   1
   4  -6  -7 29.6209 224.480   3
   4  -6  -6 781.688 245.317   2
  -4   6   6 697.754 238.807   1
   4  -6  -6 582.185 207.107   3
  -4   6   6 636.807 218.864   7
  -4   6   5 3034.44 425.001   1
   4  -6  -5 2741.44 393.957   2
   4  -6  -5 2694.40 372.762   3
  -4   6   5 3298.68 456.465   7
  -4   6   4 151.577 167.038   1
   4  -6  -4 77.3872 149.056   2
   4  -6  -4-309.196 230.962   3
  -4   6   4 21.0402 156.512   7
   4  -6  -3 611.847 217.630   2
   4  -6  -3 591.255 212.219   3
  -4   6   3 708.049 261.717   7
  -4   6   3 408.770 162.051   1
   4  -6  -2 12325.5 713.596   3
  -4   6   2 12248.0 788.155   7
   4  -6  -2 11535.3 735.335   2
  -4   6   2 12418.6 735.076   1
   4  -6  -1 295.989 215.486   2
  -4   6   1 263.206 176.394   1
   4  -6  -1 231.691 147.342   3
  -4   6   1 50.7650 204.603   7
   4  -6   0 4652.49 420.360   3
   4  -6   0 4521.87 464.929   2
  -4   6   0 4613.76 500.394   7
  -4   6   0 5752.17 485.657   1
   4  -6   1 34280.6 1144.09   3
  -4   6  -1 37244.4 1388.80   7
   4  -6   1 35008.7 1322.56   2
  -4   6  -1 36056.6 1232.87   1
   4  -6   2 2098.66 340.599   2
  -4   6  -2 2682.43 333.494   1
   4  -6   2 2387.27 282.991   3
  -4   6  -2 2784.11 368.163   7
  -4   6  -3 5521.46 515.605   7
   4  -6   3 5457.74 536.693   2
  -4   6  -3 5993.12 472.849   1
  -4   6  -3 5147.20 469.523   5
   4  -6   4 15137.0 884.790   2
  -4   6  -4 15155.7 729.696   1
  -4   6  -4 15886.5 845.883   5
  -4   6  -4 14566.6 812.998   7
   4  -6   5 899.162 289.474   2
  -4   6  -5 669.174 195.624   7
  -4   6  -5 348.310 169.027   5
   4  -6   6 543.096 236.183   2
  -4   6  -6 460.242 194.815   5
   4  -6   7 9301.92 755.360   2
  -4   6  -7 9070.22 693.678   5
   4  -6   8 402.686 237.463   2
  -4   6  -8 126.427 180.145   5
   4  -5 -12 29.7680 200.010   2
   4  -5 -12 325.928 322.633   3
  -4   5  12-141.957 207.521   1
   4  -5 -11 3731.98 515.928   3
  -4   5  11 4057.31 516.725   1
   4  -5 -11 3808.06 513.453   2
  -4   5  11 4731.17 512.304   7
   4  -5 -10 2253.29 403.139   2
  -4   5  10 2681.91 436.269   1
  -4   5  10 2562.06 394.804   7
   4  -5 -10 2634.70 419.597   3
   4  -5  -9 1508.40 290.353   2
   4  -5  -9 1613.64 359.830   3
  -4   5   9 1848.72 358.074   7
  -4   5   9 1659.65 334.905   1
   4  -5  -8 8690.11 688.014   3
  -4   5   8 10285.9 718.393   7
   4  -5  -8 9452.41 696.413   2
  -4   5   8 9768.07 734.362   1
   4  -5  -7 6745.59 596.762   3
  -4   5   7 6632.45 587.147   7
   4  -5  -7 7843.46 620.228   2
  -4   5   7 7405.01 621.455   1
   4  -5  -6 169.775 173.311   2
   4  -5  -6 183.793 187.192   3
  -4   5   6 275.825 186.297   7
  -4   5   6 512.217 247.635   1
   4  -5  -5 30961.4 1223.89   3
  -4   5   5 31104.6 1264.05   7
   4  -5  -5 28593.1 1162.67   2
  -4   5   5 32356.3 1227.05   1
   4  -5  -4 12066.3 735.376   3
  -4   5   4 12155.4 769.401   7
   4  -5  -4 12012.0 717.104   2
  -4   5   4 11619.8 714.603   1
   4  -5  -3-51.0909 187.891   2
   4  -5  -3 340.219 168.274   3
  -4   5   3 53.8221 164.762   7
  -4   5   3-225.829 186.734   1
   4  -5  -2 40195.1 1302.75   3
  -4   5   2 40421.3 1418.32   7
   4  -5  -2 41087.3 1363.44   2
  -4   5   2 41826.7 1348.86   1
   4  -5  -1 31951.5 1124.93   3
  -4   5   1 33668.2 1277.71   7
   4  -5  -1 33191.3 1198.81   2
  -4   5   1 31451.1 1137.48   1
  -4   5   0 1198.78 232.351   1
   4  -5   0 778.797 192.617   2
   4  -5   0 881.316 218.511   3
  -4   5   0 1289.75 268.396   7
   4  -5   1 34848.8 1118.83   3
  -4   5  -1 35389.1 1283.65   7
   4  -5   1 37813.7 1294.52   2
  -4   5  -1 36538.3 1190.93   1
   4  -5   2 26583.2 946.007   3
  -4   5  -2 27561.7 1104.33   7
   4  -5   2 29182.5 1140.21   2
  -4   5  -2 30065.0 1040.13   1
  -4   5  -2 26677.1 995.175   5
  -4   5  -3 2234.52 287.874   1
   4  -5   3 1824.48 288.949   2
   4  -5   3 2190.84 273.195   3
  -4   5  -3 1897.25 302.482   7
  -4   5  -3 2171.32 307.238   5
  -4   5  -4 47108.0 1440.44   7
   4  -5   4 43804.5 1498.88   2
  -4   5  -4 45777.6 1315.07   1
  -4   5  -4 45776.9 1421.64   5
  -4   5  -5 11564.8 622.206   9
  -4   5  -5 11935.9 672.545   7
   4  -5   5 12672.4 785.762   2
  -4   5  -5 12573.6 628.722   1
  -4   5  -5 11115.3 691.724   5
   4  -5   6 4742.95 505.001   2
  -4   5  -6 5492.92 510.429   5
   4  -5   7 3911.57 478.255   2
  -4   5  -7 5225.95 517.534   5
   4  -5   8 8307.82 692.522   2
  -4   5  -8 8372.73 646.745   5
   4  -5   9 128.450 176.610   2
  -4   5  -9 236.529 221.766   5
   4  -4 -13 258.578 197.597   3
  -4   4  13 741.383 251.402   1
   4  -4 -12 855.436 272.970   3
  -4   4  12 1357.61 302.797   1
  -4   4  11 754.381 239.598   7
   4  -4 -11 1796.97 372.637   3
   4  -4 -11 1865.62 354.314   2
  -4   4  11 976.623 311.127   1
   4  -4 -10 5486.73 558.931   3
  -4   4  10 4822.55 487.957   7
   4  -4 -10 6177.39 585.384   2
  -4   4  10 5457.25 544.607   1
   4  -4  -9 2342.27 387.837   3
   4  -4  -9 2200.42 357.736   2
  -4   4   9 2470.19 366.153   7
  -4   4   9 2425.92 375.046   1
   4  -4  -8 9107.73 693.044   3
  -4   4   8 9271.04 650.293   7
   4  -4  -8 9339.35 664.422   2
  -4   4   8 10189.4 706.633   1
   4  -4  -7 59163.7 1785.33   3
  -4   4   7 61235.6 1785.12   7
   4  -4  -7 64918.7 1811.25   2
  -4   4   7 61368.7 1810.81   1
   4  -4  -6 547.876 237.551   3
  -4   4   6 417.675 216.223   7
   4  -4  -6 553.317 218.919   2
  -4   4   6 503.298 202.182   1
  -4   4   5 57415.9 1682.96   7
   4  -4  -5 57320.2 1656.14   3
  -4   4   5 57535.2 1657.65   1
   4  -4  -5 54080.6 1589.29   2
   4  -4  -4 22260.3 957.689   3
  -4   4   4 24292.4 990.221   1
   4  -4  -4 25062.4 992.868   2
  -4   4   4 24300.6 1042.23   7
   4  -4  -3 11417.8 652.350   3
  -4   4   3 11842.5 697.114   7
  -4   4   3 10975.9 640.510   1
   4  -4  -3 11025.4 649.758   2
   4  -4  -2 5330.16 452.936   3
  -4   4   2 6822.88 527.579   7
  -4   4   2 6027.66 476.835   1
   4  -4  -2 5661.99 456.679   2
   4  -4  -1 88119.3 2020.80   3
  -4   4   1 90562.4 2163.45   7
  -4   4   1 88365.4 2041.35   1
   4  -4  -1 92992.8 2098.89   2
   4  -4   0 3547.45 351.819   2
  -4   4   0 3987.85 407.380   7
   4  -4   0 3659.68 341.191   3
  -4   4   0 4097.02 378.878   1
   4  -4   1 12935.3 627.494   3
  -4   4  -1 13053.3 703.914   7
  -4   4  -1 13365.6 652.219   1
   4  -4   1 12789.4 676.102   2
   4  -4   2 53845.2 1370.95   3
   4  -4   2 51700.1 1506.85   2
  -4   4  -2 54489.7 1526.30   7
  -4   4  -2 54317.7 1422.67   1
  -4   4  -2 53400.3 1393.56   5
  -4   4  -3 1880.93 256.819   1
   4  -4   3 1658.00 275.876   2
  -4   4  -3 1899.46 286.368   7
   4  -4   3 1480.88 221.394   3
  -4   4  -3 1346.33 217.703   5
   4  -4   4 623.469 215.104   2
   4  -4   4 851.378 177.275   3
  -4   4  -4 942.830 214.975   7
  -4   4  -4 509.945 169.012   5
  -4   4  -4 1072.32 195.948   1
  -4   4  -5 14253.2 647.480   9
  -4   4  -5 15549.6 713.655   7
  -4   4  -5 15464.8 673.638   1
   4  -4   5 16761.9 852.479   2
  -4   4  -5 14593.6 746.778   5
   4  -4   6 1172.89 275.652   2
  -4   4  -6 1119.14 200.123   9
  -4   4  -6 1303.05 224.478   7
  -4   4  -6 985.733 224.892   5
  -4   4  -6 1143.76 200.224   1
   4  -4   7 71.5102 152.020   2
  -4   4  -7 129.387 129.913   9
  -4   4  -7-27.2772 134.231   5
   4  -4   8 11922.7 797.567   2
  -4   4  -8 10734.7 637.707   9
  -4   4  -8 11454.0 730.155   5
   4  -4   9 37.6205 185.906   2
  -4   4  -9-22.3764 160.263   5
  -4   4 -10-29.0234 187.160   5
   4  -4  10 47.8116 208.785   2
   4  -3 -13 4093.74 514.537   2
  -4   3  13 3185.18 426.532   1
   4  -3 -13 3053.21 438.198   3
   4  -3 -12 1979.80 350.233   3
   4  -3 -12 2069.68 375.560   2
  -4   3  12 2222.86 364.054   1
   4  -3 -11 437.623 233.381   2
   4  -3 -11 336.683 183.372   3
  -4   3  11 614.271 216.143   7
  -4   3  11 313.295 167.646   1
   4  -3 -10 6765.23 577.934   3
  -4   3  10 6817.64 553.729   7
   4  -3 -10 6242.02 566.124   2
  -4   3  10 6355.88 545.495   1
   4  -3  -9 4642.69 463.339   3
  -4   3   9 4730.34 451.723   7
   4  -3  -9 5100.30 489.247   2
  -4   3   9 5271.05 500.459   1
   4  -3  -8 732.267 229.166   2
  -4   3   8 868.492 223.681   1
   4  -3  -8 874.216 234.436   3
  -4   3   8 587.195 174.840   7
  -4   3   7 3507.41 375.785   1
  -4   3   7 2768.39 342.633   7
   4  -3  -7 3493.76 395.936   3
   4  -3  -7 2954.51 374.598   2
   4  -3  -6 8834.94 593.513   3
  -4   3   6 7964.52 563.595   7
  -4   3   6 8617.48 587.642   1
   4  -3  -6 8523.43 573.671   2
  -4   3   5 586.603 182.976   1
   4  -3  -5 548.167 186.689   3
  -4   3   5 912.114 237.523   7
   4  -3  -5 1042.34 226.142   2
   4  -3  -4 5854.70 450.992   3
  -4   3   4 5238.66 445.866   7
  -4   3   4 5585.22 322.037   6
  -4   3   4 5287.92 428.634   1
   4  -3  -4 5580.90 436.657   2
  -4   3   3 3293.29 336.050   1
   4  -3  -3 3243.86 335.047   3
  -4   3   3 3340.93 356.124   7
  -4   3   3 3062.30 240.736   6
   4  -3  -3 3484.21 340.412   2
   4  -3  -2 673.834 184.663   3
  -4   3   2 967.989 186.950   1
   4  -3  -2 359.351 145.879   2
  -4   3   2 903.061 226.058   7
   4  -3  -1 47332.1 1294.13   3
  -4   3   1 44237.9 1335.97   7
  -4   3   1 47228.9 1305.22   1
   4  -3  -1 46566.0 1298.96   2
  -4   3   0 1013.80 200.325   1
   4  -3   0 692.324 171.411   2
  -4   3   0 934.622 206.408   7
   4  -3   0 1145.91 207.520   3
   4  -3   1 7671.94 452.340   3
  -4   3  -1 7825.11 507.775   7
  -4   3  -1 7383.83 456.475   1
   4  -3   1 8003.01 510.071   2
  -4   3  -1 7033.34 401.780   5
   4  -3   2 16115.3 669.452   3
  -4   3  -2 16995.9 740.721   7
  -4   3  -2 16710.1 695.716   1
   4  -3   2 15137.3 718.592   2
  -4   3  -2 16381.8 659.699   5
   4  -3   3 3612.01 304.638   3
  -4   3  -3 3433.12 322.515   7
  -4   3  -3 3148.39 302.316   1
   4  -3   3 3439.98 362.687   2
  -4   3  -3 3339.69 308.269   5
   4  -3   4 24541.8 829.852   3
  -4   3  -4 25772.1 784.103   9
  -4   3  -4 25141.6 867.244   1
  -4   3  -4 25424.9 886.235   7
   4  -3   4 26331.4 999.891   2
  -4   3  -4 26533.7 927.911   5
   4  -3   5 1559.00 273.423   2
  -4   3  -5 1299.93 218.550   5
  -4   3  -5 1612.27 207.892   9
   4  -3   5 1312.72 203.077   3
  -4   3  -5 1583.72 219.408   7
  -4   3  -5 1415.36 210.718   1
   4  -3   6 3398.26 388.061   2
  -4   3  -6 3092.24 291.889   9
   4  -3   6 2861.06 262.992   3
  -4   3  -6 3155.18 286.772   7
  -4   3  -6 3501.44 305.353   1
  -4   3  -6 3216.75 349.492   5
  -4   3  -7 7343.97 479.088   9
  -4   3  -7 7648.04 451.877   1
   4  -3   7 7578.27 578.523   2
  -4   3  -7 7641.29 545.963   5
   4  -3   8 63.5445 191.933   2
  -4   3  -8-137.522 122.251   9
  -4   3  -8-118.453 135.414   5
  -4   3  -9 70.0448 143.584   9
  -4   3  -9 441.123 220.425   5
   4  -3   9-50.2672 177.433   2
   4  -3  10 6876.97 624.883   2
  -4   3 -10 5841.08 551.514   5
  -4   3 -11 722.892 275.587   5
   4  -3  11 37.3319 189.330   2
   4  -2 -13 489.440 231.216   2
   4  -2 -13 557.837 231.792   3
   4  -2 -12 1538.78 305.765   3
   4  -2 -12 1212.81 318.824   2
  -4   2  12 2263.36 336.432   1
   4  -2 -11 587.258 176.853   3
   4  -2 -11 975.540 281.432   2
  -4   2  11 737.687 228.310   1
  -4   2  11 744.284 213.083   7
  -4   2  10 317.418 133.671   7
   4  -2 -10 552.002 208.446   3
   4  -2 -10 103.971 175.528   2
  -4   2  10 423.141 201.154   1
   4  -2  -9 959.603 244.194   2
   4  -2  -9 693.166 195.514   3
  -4   2   9 432.486 179.874   1
  -4   2   9 401.817 149.658   6
  -4   2   9 586.930 186.652   7
  -4   2   8 2909.83 340.182   1
   4  -2  -8 3045.31 384.138   2
  -4   2   8 3184.04 367.588   7
  -4   2   8 2651.96 293.088   6
   4  -2  -8 2729.33 345.076   3
   4  -2  -7 6671.99 512.797   3
  -4   2   7 6576.09 425.245   6
  -4   2   7 7115.70 509.211   7
  -4   2   7 6498.43 505.155   1
   4  -2  -7 6466.89 493.837   2
   4  -2  -6 14202.2 718.356   3
  -4   2   6 14324.5 708.706   7
  -4   2   6 15430.6 629.718   6
  -4   2   6 14571.4 725.623   1
   4  -2  -6 14797.2 710.503   2
  -4   2   5 21821.2 733.263   6
   4  -2  -5 21062.6 866.047   3
  -4   2   5 21165.7 866.140   7
  -4   2   5 20552.9 839.469   1
   4  -2  -5 21812.8 842.547   2
   4  -2  -4 3489.81 343.998   3
  -4   2   4 3627.35 351.042   7
  -4   2   4 3528.98 273.646   6
  -4   2   4 3747.75 353.523   1
   4  -2  -4 3997.78 345.788   2
   4  -2  -3 14574.8 678.079   3
  -4   2   3 15325.3 705.119   7
  -4   2   3 15073.2 570.438   6
  -4   2   3 14737.9 679.726   1
   4  -2  -3 14596.6 642.010   2
   4  -2  -2 60817.1 1502.10   3
  -4   2   2 62964.2 1520.47   1
   4  -2  -2 62811.2 1471.19   2
  -4   2   2 59154.5 1533.22   7
   4  -2  -1 51096.1 1308.59   3
  -4   2   1 52758.4 1369.99   7
  -4   2   1 49875.3 1310.72   1
   4  -2  -1 50000.4 1276.81   2
   4  -2   0 692.758 154.127   2
   4  -2   0 1180.76 197.926   3
  -4   2   0 807.001 170.476   7
  -4   2   0 977.801 129.519   5
  -4   2   0 829.718 174.477   1
   4  -2   1 111901. 2183.64   3
  -4   2  -1 111989. 2249.59   7
  -4   2  -1 112255. 2206.49   1
   4  -2   1 113628. 2218.67   2
  -4   2  -1 115571. 2022.18   5
   4  -2   2 55432.3 1353.82   3
  -4   2  -2 57864.7 1411.02   7
  -4   2  -2 58527.0 1392.23   1
   4  -2   2 56718.0 1417.64   2
  -4   2  -2 57517.2 1291.45   5
   4  -2   3 1596.91 221.559   2
  -4   2  -3 1801.84 161.006   9
   4  -2   3 1647.41 207.488   3
  -4   2  -3 1712.21 225.191   7
  -4   2  -3 1451.37 207.183   1
  -4   2  -3 1557.79 198.389   5
   4  -2   4 47549.3 1188.05   3
  -4   2  -4 48532.8 1064.88   9
  -4   2  -4 48210.8 1221.22   1
   4  -2   4 43517.3 1301.84   2
  -4   2  -4 44783.2 1206.85   5
  -4   2  -4 46628.3 1182.22   7
   4  -2   5 1481.47 254.871   2
  -4   2  -5 1390.11 178.641   9
   4  -2   5 1750.05 217.607   3
  -4   2  -5 1445.26 194.611   7
  -4   2  -5 1476.71 214.364   1
  -4   2  -5 1285.50 205.098   5
   4  -2   6 4710.43 335.993   3
  -4   2  -6 5276.50 331.625   7
   4  -2   6 4798.01 425.216   2
  -4   2  -6 4909.07 362.490   1
  -4   2  -6 5001.94 397.269   5
  -4   2  -6 4816.97 339.215   9
  -4   2  -7 14207.2 632.408   9
  -4   2  -7 13787.8 525.291   7
  -4   2  -7 13673.4 605.375   1
   4  -2   7 15050.3 776.468   2
  -4   2  -7 14153.7 712.766   5
   4  -2   7 14102.6 608.687   3
  -4   2  -8 17523.6 754.818   9
  -4   2  -8 17025.9 678.189   1
   4  -2   8 17155.4 880.807   2
  -4   2  -8 18398.5 840.271   5
  -4   2  -9 963.277 219.361   5
   4  -2   9 1076.30 261.577   2
  -4   2 -10 4833.94 482.720   5
   4  -2  10 4198.03 487.968   2
   4  -2  11 9690.00 749.570   2
  -4   2 -11 8991.98 670.403   5
  -4   2 -12 778.885 250.287   5
   4  -2  12 1298.62 340.203   2
   4  -1 -13 1361.16 273.865   3
   4  -1 -12 415.659 165.879   3
  -4   1  12 335.433 194.306   6
   4  -1 -11 3172.06 385.920   3
  -4   1  11 2777.25 349.653   1
  -4   1  11 3932.55 429.118   6
   4  -1 -10 11275.6 669.199   3
  -4   1  10 10844.0 683.081   6
  -4   1  10 9630.04 621.842   1
   4  -1  -9 453.241 194.986   3
  -4   1   9 87.6022 137.259   1
   4  -1  -9 73.0270 149.052   2
  -4   1   9 59.6067 126.164   7
  -4   1   9 53.6403 130.746   6
  -4   1   8 1358.75 228.843   7
   4  -1  -8 1556.02 281.788   2
   4  -1  -8 1251.45 234.547   3
  -4   1   8 1735.78 269.273   1
  -4   1   8 1751.29 259.119   6
   4  -1  -7 59535.6 1549.23   3
  -4   1   7 59620.4 1520.03   7
  -4   1   7 58727.7 1540.40   1
   4  -1  -7 57457.6 1531.22   2
  -4   1   7 57004.8 1493.48   6
   4  -1  -6 7827.53 516.330   3
  -4   1   6 8781.86 522.640   7
  -4   1   6 8846.33 501.193   6
  -4   1   6 8766.07 521.819   1
   4  -1  -6 7615.47 481.374   2
   4  -1  -5 25466.0 923.531   3
  -4   1   5 27181.7 942.590   7
  -4   1   5 26901.0 876.989   6
  -4   1   5 27500.8 930.038   1
   4  -1  -5 27887.6 910.413   2
   4  -1  -4 165231. 2924.81   3
  -4   1   4 162504. 2930.57   7
  -4   1   4 165648. 2801.30   6
  -4   1   4 165543. 2906.06   1
   4  -1  -4 164095. 2832.63   2
   4  -1  -3 11331.7 566.705   3
  -4   1   3 10813.5 554.131   7
  -4   1   3 9853.22 478.303   6
  -4   1   3 11110.6 540.136   1
   4  -1  -3 11286.5 510.609   2
   4  -1  -2 78362.1 1713.23   3
  -4   1   2 76212.7 1322.59   9
  -4   1   2 81023.4 1748.51   7
  -4   1   2 79160.3 1619.26   6
  -4   1   2 82349.8 1714.78   1
   4  -1  -2 80803.8 1620.46   2
  -4   1   2 77820.2 1240.02   5
   4  -1  -1 44178.7 1159.27   3
  -4   1   1 44769.7 1191.81   7
  -4   1   1 46531.4 1189.28   1
   4  -1  -1 47301.1 1125.07   2
  -4   1   1 44525.9 851.012   5
   4  -1   0 12082.7 544.714   3
  -4   1   0 11716.1 538.818   1
  -4   1   0 11114.8 540.469   7
   4  -1   0 12302.2 515.771   2
  -4   1   0 11506.4 386.723   5
   4  -1   1 3501.43 293.569   3
  -4   1  -1 3294.95 125.229   9
  -4   1  -1 3814.25 309.780   7
  -4   1  -1 4015.19 314.659   1
   4  -1   1 3783.32 284.917   2
  -4   1  -1 3572.18 229.265   5
   4  -1   2 294284. 4601.09   3
  -4   1  -2 298956. 4085.42   9
  -4   1  -2 299356. 4590.61   7
   4  -1   2 296087. 4591.76   2
  -4   1  -2 292405. 4410.40   5
  -4   1  -2 296699. 4626.25   1
   4  -1   3-124.579 158.921   2
  -4   1  -3 194.632 102.064   7
  -4   1  -3 167.502 53.7628   9
   4  -1   3 271.056 131.020   3
  -4   1  -3 284.198 122.310   1
  -4   1  -3 205.248 84.7006   5
   4  -1   4 24073.5 786.960   3
  -4   1  -4 22806.3 621.083   9
  -4   1  -4 23490.2 731.792   7
  -4   1  -4 23571.3 792.360   1
   4  -1   4 23476.4 830.060   2
  -4   1  -4 22361.1 744.884   5
   4  -1   5 263732. 4140.75   3
  -4   1  -5 263074. 4010.30   7
  -4   1  -5 265781. 4184.68   1
   4  -1   5 266821. 4332.80   2
  -4   1  -5 259711. 4187.44   5
  -4   1  -5 248698. 3939.11   9
  -4   1  -6 3246.10 241.062   7
  -4   1  -6 3619.36 309.118   1
   4  -1   6 3778.05 362.180   2
  -4   1  -6 3719.05 335.676   5
   4  -1   6 3411.64 313.491   3
   4  -1   7 50.3895 166.354   2
   4  -1   7 385.191 132.534   3
  -4   1  -7 165.844 102.170   1
  -4   1  -7 329.413 123.128   5
  -4   1  -8 36459.8 1050.36   1
   4  -1   8 36975.4 1268.88   2
  -4   1  -8 36830.8 1204.35   5
   4  -1   8 36478.9 1053.99   3
   4  -1   9 3887.71 333.516   8
  -4   1  -9 4010.59 325.948   1
  -4   1  -9 4274.02 412.756   5
   4  -1   9 4224.18 447.991   2
  -4   1 -10 299.788 188.753   5
   4  -1  10 472.131 208.333   2
   4  -1  11 14877.4 908.094   2
  -4   1 -11 14147.4 816.384   5
  -4   1 -12 317.958 263.692   5
   4  -1  12 798.406 263.018   2
  -4   1 -13-204.923 212.136   5
   4  -1  13 55.8141 229.787   2
  -4   0  14 215.650 236.066   6
  -4   0  13 2893.90 432.715   6
   4   0 -12 11.7315 139.908   3
  -4   0  12-90.3103 193.538   6
   4   0 -11 1144.14 223.140   3
  -4   0  11 916.788 268.513   6
   4   0 -10 218.194 135.185   3
  -4   0  10 76.6802 127.390   1
  -4   0  10 139.013 152.155   6
   4   0  -9 11543.3 622.518   3
  -4   0   9 11993.9 723.721   6
  -4   0   9 12451.2 633.128   1
   4   0  -8 18779.9 784.490   3
  -4   0   8 19407.9 886.869   6
  -4   0   8 20546.5 804.064   1
   4   0  -7 21591.0 825.201   3
  -4   0   7 21271.1 885.884   6
  -4   0   7 22944.7 832.066   1
  -4   0   6 27887.7 927.317   7
   4   0  -6 27144.3 923.325   3
  -4   0   6 28441.1 919.277   1
  -4   0   6 28862.4 1004.01   6
   4   0  -6 27907.8 910.531   2
   4   0  -5 17894.5 713.686   3
  -4   0   5 17443.7 712.233   7
  -4   0   5 17153.9 717.537   6
  -4   0   5 18686.7 708.113   1
   4   0  -5 17993.4 675.093   2
   4   0  -4 96617.3 1989.25   3
  -4   0   4 97903.3 2007.89   7
  -4   0   4 99926.7 2031.92   6
  -4   0   4 101081. 1984.51   1
   4   0  -4 99961.5 1896.94   2
   4   0  -3 66257.2 1491.64   3
  -4   0   3 66656.1 1519.47   7
  -4   0   3 66948.3 1481.16   1
  -4   0   3 63639.9 1225.83   9
   4   0  -3 67274.6 1384.26   2
  -4   0   2 756.481 86.8554   9
   4   0  -2 762.377 123.145   2
   4   0  -2 861.056 167.488   3
  -4   0   2 860.774 161.470   7
  -4   0   2 848.797 159.870   6
  -4   0   2 830.248 159.085   1
   4   0  -1 212659. 3460.41   3
  -4   0   1 217916. 3466.04   1
  -4   0   1 212548. 3477.83   7
  -4   0   1 211888. 2931.53   5
   4   0  -1 208166. 3266.05   2
   4   0   0 198254. 3260.60   3
  -4   0   0 192085. 3224.98   7
  -4   0   0 201683. 3246.52   1
   4   0   0 196975. 3056.86   2
  -4   0   0 194223. 2830.00   5
   4   0   1 2519.44 247.501   3
  -4   0  -1 2401.09 230.835   7
  -4   0  -1 2872.55 267.383   1
   4   0   1 2474.58 206.055   2
  -4   0  -1 2591.23 174.551   5
   4   0   2 128560. 2316.35   3
  -4   0  -2 126211. 2265.78   7
  -4   0  -2 123179. 2311.57   1
   4   0   2 130053. 2223.70   2
  -4   0  -2 129648. 2116.62   5
   4   0   3 87261.4 1804.20   3
   4   0   3 90489.2 1827.24   8
  -4   0  -3 89899.8 1719.17   7
  -4   0  -3 92058.4 1824.69   1
   4   0   3 94043.2 1777.11   2
  -4   0  -3 90025.9 1690.01   5
   4   0   4 7875.85 441.200   3
   4   0   4 8589.24 454.868   8
  -4   0  -4 8346.03 394.954   7
  -4   0  -4 8112.36 441.678   1
   4   0   4 8474.41 445.609   2
  -4   0  -4 7990.47 417.271   5
   4   0   5 6525.06 405.753   8
  -4   0  -5 7207.63 421.388   1
   4   0   5 6920.60 428.790   2
  -4   0  -5 6678.75 405.144   5
   4   0   5 6713.76 413.857   3
  -4   0  -6 55058.7 1335.97   1
   4   0   6 54491.9 1345.13   8
   4   0   6 52116.0 1397.41   2
  -4   0  -6 53633.6 1357.76   5
   4   0   6 53107.1 1315.05   3
   4   0   7 145.804 138.604   3
   4   0   7 110.903 105.554   8
  -4   0  -7 37.0653 115.494   1
  -4   0  -7 175.698 143.674   5
   4   0   7-95.9283 151.860   2
  -4   0  -8 28173.0 932.476   1
   4   0   8 29243.4 1083.62   2
   4   0   8 29378.8 942.905   8
  -4   0  -8 27293.1 998.285   5
   4   0   8 27951.9 944.568   3
  -4   0  -9 19283.9 747.647   1
   4   0   9 17551.5 880.085   2
   4   0   9 18118.0 739.657   8
  -4   0  -9 17671.0 822.834   5
   4   0   9 17801.2 770.237   3
  -4   0 -10 370.114 170.840   1
   4   0  10 535.003 167.395   8
  -4   0 -10 520.732 213.655   5
   4   0  10 649.912 231.143   2
  -4   0 -11 437.868 190.518   5
   4   0  11 195.158 205.005   2
  -4   0 -12 2621.25 376.104   5
   4   0  12 3155.82 428.234   2
  -4   0 -13 1013.62 277.768   5
   4   0  13 429.927 220.727   2
  -4  -1  13 190.348 218.429   6
  -4  -1  12 3892.09 509.131   6
   4   1 -11 736.952 172.678   3
  -4  -1  11 585.271 195.395   6
  -4  -1  10 2014.69 345.964   6
   4   1 -10 1791.90 251.811   3
   4   1  -9 5183.94 383.640   3
  -4  -1   9 4251.81 464.117   6
  -4  -1   9 5105.17 388.174   1
  -4  -1   8 11.4694 101.121   1
  -4  -1   8 185.423 124.202   6
   4   1  -8 94.1381 128.914   3
   4   1  -8 21.7123 85.4610   4
   4   1  -7 19841.8 750.407   3
  -4  -1   7 19828.4 886.686   6
  -4  -1   7 20520.7 738.869   1
   4   1  -7 19947.8 707.110   4
   4   1  -6 23449.4 810.207   3
  -4  -1   6 24294.0 959.308   6
  -4  -1   6 23988.1 792.294   1
   4   1  -6 24183.0 779.216   4
  -4  -1   5 1291.47 196.318   1
   4   1  -5 1664.10 206.409   2
   4   1  -5 1649.88 218.149   3
  -4  -1   5 1527.70 238.445   6
   4   1  -5 1036.53 157.782   4
   4   1  -4 135.552 97.8928   2
   4   1  -4 64.7207 119.027   3
  -4  -1   4-29.9287 119.880   6
  -4  -1   4 205.326 129.002   1
   4   1  -3 33360.1 931.328   3
  -4  -1   3 32935.0 1007.06   6
  -4  -1   3 33192.4 921.946   1
   4   1  -3 33634.2 809.420   2
   4   1  -2 26589.7 809.055   3
  -4  -1   2 25643.6 790.445   1
  -4  -1   2 27160.3 873.811   6
   4   1  -2 27821.9 663.901   2
   4   1  -1 174.846 75.0734   2
  -4  -1   1 125.454 50.0451  10
   4   1  -1 85.7147 120.971   3
  -4  -1   1 186.496 110.301   1
   4   1   0 41250.8 1050.35   3
  -4  -1   0 42421.4 1053.28   1
   4   1   0 41786.0 845.276   2
   4   1   0 41078.2 730.345   5
   4   1   1 14233.0 562.002   3
  -4  -1  -1 14250.2 565.581   1
   4   1   1 14129.3 442.088   2
   4   1   1 13942.0 564.433   8
  -4  -1  -1 13923.3 408.838   5
   4   1   2 409.992 87.1600   2
   4   1   2 357.445 129.369   8
   4   1   2 423.281 138.982   3
  -4  -1  -2 179.060 102.165   1
  -4  -1  -2 301.110 80.7463   5
   4   1   3 163289. 2757.78   3
   4   1   3 155206. 2295.90   9
   4   1   3 161483. 2765.72   8
  -4  -1  -3 159331. 2765.95   1
   4   1   3 160429. 2599.90   2
  -4  -1  -3 162127. 2588.10   5
   4   1   4 16598.4 655.577   3
   4   1   4 16902.8 474.570   9
  -4  -1  -4 18684.8 688.186   1
   4   1   4 17987.4 670.470   8
   4   1   4 17864.9 621.577   2
  -4  -1  -4 17625.1 609.119   5
  -4  -1  -5 7983.68 463.137   1
   4   1   5 8978.34 469.865   8
   4   1   5 9227.75 468.297   2
  -4  -1  -5 9201.46 457.925   5
   4   1   5 8897.48 486.651   3
  -4  -1  -6 35693.7 1030.83   1
   4   1   6 34000.7 1036.09   2
   4   1   6 34323.2 1009.18   8
  -4  -1  -6 32725.9 990.307   5
   4   1   6 34762.2 1036.29   3
   4   1   7 5123.43 375.358   8
   4   1   7 5123.62 406.709   2
  -4  -1  -7 5173.29 392.230   5
   4   1   7 5109.94 384.279   3
  -4  -1  -8 39764.1 1138.56   1
   4   1   8 39370.4 1237.56   2
  -4  -1  -8 36553.0 1156.20   5
   4   1   8 37496.4 1160.04   3
   4   1   8 39778.7 1139.33   8
   4   1   9 2888.01 336.382   3
   4   1   9 3446.75 326.428   8
  -4  -1  -9 3096.06 333.003   1
  -4  -1  -9 3196.44 345.823   5
   4   1   9 3648.75 385.380   2
   4   1  10-79.0487 122.728   8
   4   1  10 324.599 183.349   3
  -4  -1 -10 30.6780 135.099   1
  -4  -1 -10 105.553 124.366   3
  -4  -1 -10 394.146 185.255   5
   4   1  10-106.763 165.617   2
  -4  -1 -11 13195.5 703.722   1
   4   1  11 14429.6 849.061   2
   4   1  11 13890.5 678.432   8
  -4  -1 -11 14273.7 794.809   5
  -4  -1 -12 435.634 192.992   5
   4   1  12 133.003 179.796   2
  -4  -1 -13 405.332 242.347   5
   4   1  13 361.676 210.317   2
   4   1  14 2745.81 453.235   2
  -4  -1 -14 1696.05 370.363   5
  -4  -2  13 457.460 281.639   6
  -4  -2  12 377.593 253.968   6
  -4  -2  11 410.915 217.241   6
   4   2 -10 1007.64 184.169   3
  -4  -2  10 1193.09 279.706   6
   4   2  -9 608.394 146.577   3
   4   2  -9 473.004 109.816   5
  -4  -2   9 634.835 224.701   6
   4   2  -9 418.177 117.208   4
   4   2  -8 2347.36 263.686   3
   4   2  -8 2432.19 311.273   9
  -4  -2   8 1931.91 332.014   6
  -4  -2   8 2325.44 236.237   1
   4   2  -8 2439.05 205.083   5
   4   2  -8 2346.80 223.477   4
   4   2  -7 9490.31 466.999   3
   4   2  -7 9125.61 527.752   9
  -4  -2   7 8489.82 601.345   6
   4   2  -7 8968.05 358.829   5
  -4  -2   7 8150.05 435.680   1
   4   2  -7 8651.95 411.340   4
  -4  -2   6 1284.78 176.179   1
   4   2  -6 1183.59 207.343   9
   4   2  -6 1126.14 179.956   3
  -4  -2   6 1708.84 276.279   6
   4   2  -6 1315.80 126.208   5
   4   2  -6 1167.65 158.549   4
   4   2  -5 3418.60 275.211   3
  -4  -2   5 4122.75 384.087   6
   4   2  -5 3298.02 287.892   9
  -4  -2   5 3575.39 272.838   1
   4   2  -5 3204.43 170.666   5
   4   2  -5 4116.85 277.972   4
   4   2  -4 87723.2 1723.89   3
   4   2  -4 87764.7 1684.95   9
  -4  -2   4 91822.1 1998.20   6
  -4  -2   4 88573.6 1676.12   1
   4   2  -4 89068.2 1306.73   5
   4   2  -3 1554.82 168.761   9
   4   2  -3 1713.87 195.845   3
  -4  -2   3 1987.94 250.782   6
   4   2  -3 1652.34 79.8114   5
  -4  -2   3 2025.16 207.804   1
   4   2  -3 1497.94 141.823   2
   4   2  -2 53938.8 1241.69   3
   4   2  -2 52910.2 1074.17   9
  -4  -2   2 56253.6 1224.39   1
  -4  -2   2 55227.2 1387.47   6
   4   2  -2 55442.6 966.354   2
   4   2  -1 124261. 2250.21   3
  -4  -2   1 125160. 2244.91   1
  -4  -2   1 126219. 2407.17   6
   4   2  -1 131630. 1831.01   5
   4   2  -1 126938. 1877.39   2
   4   2   0 1449.90 177.946   8
   4   2   0 1546.06 196.995   3
  -4  -2   0 1357.78 177.751   1
   4   2   0 1410.63 96.5068   2
   4   2   0 1660.80 110.881   5
   4   2   1 4818.94 317.134   3
  -4  -2  -1 4610.33 257.911  10
  -4  -2  -1 4116.60 297.042   1
   4   2   1 4455.46 194.852   2
   4   2   2 173918. 2926.35   3
  -4  -2  -2 183576. 2831.05  10
   4   2   2 174119. 2917.16   8
   4   2   2 174641. 2609.61   2
   4   2   3 16119.2 619.606   3
   4   2   3 15101.4 601.273   8
  -4  -2  -3 16352.0 630.889   1
   4   2   3 15555.2 503.482   2
   4   2   4 977.422 175.027   8
   4   2   4 1145.31 182.194   3
  -4  -2  -4 1123.76 195.257   1
   4   2   4 1231.97 158.212   2
   4   2   5 218036. 3618.71   8
  -4  -2  -5 224592. 3662.85   1
   4   2   5 219815. 3541.69   2
  -4  -2  -5 215989. 3548.87   5
   4   2   5 220614. 3671.54   3
  -4  -2  -6 14273.9 644.640   1
   4   2   6 13420.6 599.535   8
   4   2   6 13782.5 610.987   2
  -4  -2  -6 13128.7 591.205   5
   4   2   6 13279.9 631.370   3
   4   2   7 6388.80 421.233   8
  -4  -2  -7 6543.84 438.961   1
   4   2   7 5854.67 432.150   2
  -4  -2  -7 5800.22 408.223   5
   4   2   8 57136.6 1462.18   8
  -4  -2  -8 58213.9 1515.79   1
   4   2   8 61317.2 1571.95   2
  -4  -2  -8 57348.6 1499.11   5
   4   2   8 59452.8 1564.80   3
   4   2   9 4803.45 398.119   8
   4   2   9 5512.45 469.751   2
  -4  -2  -9 5665.91 447.387   1
  -4  -2  -9 4844.11 421.072   5
   4   2   9 5069.97 438.163   3
  -4  -2 -10 3318.77 357.597   3
   4   2  10 3891.51 425.081   3
   4   2  10 4384.90 379.504   8
  -4  -2 -10 3661.47 382.035   1
  -4  -2 -10 3796.94 396.493   5
   4   2  10 3628.84 401.390   2
  -4  -2 -11 13905.1 732.087   1
   4   2  11 15041.0 836.843   2
   4   2  11 15218.1 730.382   8
  -4  -2 -11 14062.1 770.324   5
   4   2  12 2495.58 302.462   8
  -4  -2 -12 2793.98 341.228   1
  -4  -2 -12 2780.32 343.671   3
  -4  -2 -12 2878.35 373.463   5
   4   2  12 3001.29 429.392   2
   4   2  12 2231.72 346.107   3
  -4  -3  13 781.777 347.581   6
  -4  -3  12 401.651 285.370   6
  -4  -3  11-66.7218 213.808   6
   4   3 -10 3350.16 401.407   9
  -4  -3  10 3373.12 472.240   6
   4   3  -9 1398.50 269.532   9
  -4  -3   9 1611.94 334.243   6
   4   3  -9 1553.53 193.139   5
   4   3  -8 295.070 173.493   9
   4   3  -8 140.674 93.9916   3
  -4  -3   8 289.290 196.379   6
   4   3  -8 236.045 93.4011   5
   4   3  -7 16801.3 756.733   9
  -4  -3   7 16952.6 886.243   6
  -4  -3   7 15571.5 559.258   1
   4   3  -7 16409.6 548.963   5
   4   3  -7 15480.4 499.634   4
   4   3  -6 62898.2 1377.24   3
   4   3  -6 66003.4 1587.18   9
  -4  -3   6 67113.7 1826.51   6
  -4  -3   6 64855.6 1336.92   1
   4   3  -6 63428.2 1244.66   5
   4   3  -6 65369.8 1250.49   4
   4   3  -5 6082.96 346.415   3
   4   3  -5 5689.59 395.762   9
  -4  -3   5 5163.03 454.789   6
  -4  -3   5 5468.72 309.819   1
   4   3  -5 5925.97 274.938   5
   4   3  -5 6115.24 302.466   4
   4   3  -4 94975.1 1798.93   3
   4   3  -4 95793.5 1886.57   9
  -4  -3   4 93561.5 2144.11   6
  -4  -3   4 95843.7 1746.23   1
   4   3  -4 94913.7 1560.10   5
   4   3  -3 98978.9 1838.98   3
   4   3  -3 99944.1 1853.64   9
  -4  -3   3 98487.0 1806.60   1
  -4  -3   3 97730.5 2155.13   6
   4   3  -2 5431.69 327.092   3
   4   3  -2 5897.99 330.927   8
  -4  -3   2 5198.12 315.200   1
  -4  -3   2 5316.47 407.590   6
   4   3  -1 97711.7 1856.98   3
   4   3  -1 101152. 1850.13   8
  -4  -3   1 97983.5 1843.47   1
  -4  -3   1 99169.2 2065.94   6
   4   3   0 114822. 2084.35   3
   4   3   0 115672. 2062.44   8
  -4  -3   0 111410. 2073.60   1
  -4  -3   0 113138. 2232.60   6
   4   3   1 4521.58 316.667   3
  -4  -3  -1 3945.30 299.493   1
   4   3   1 4437.91 305.929   8
   4   3   1 4204.76 148.042   2
   4   3   2 150187. 2624.02   8
  -4  -3  -2 151081. 2653.62   1
   4   3   2 152244. 2256.99   2
   4   3   2 153209. 2657.67   3
  -4  -3  -3 287884. 4538.33   1
   4   3   3 293752. 4493.61   8
   4   3   3 288633. 4180.31   2
   4   3   3 288458. 4543.40   3
  -4  -3  -4 27204.8 834.461  10
  -4  -3  -4 29110.2 908.378   1
   4   3   4 27200.8 742.685   2
   4   3   4 26873.0 895.815   3
  -4  -3  -5 86905.9 1805.23  10
  -4  -3  -5 89225.2 1878.64   1
   4   3   5 83408.9 1694.34   2
   4   3   5 86725.9 1873.11   3
  -4  -3  -6 114482. 2277.95  10
   4   3   6 113610. 2231.43   1
   4   3   6 112652. 2177.95   2
  -4  -3  -6 114786. 2319.55   1
   4   3   6 111417. 2302.87   3
   4   3   7 565.866 156.019   1
   4   3   7 729.002 197.567   3
  -4  -3  -7 721.583 197.235   1
  -4  -3  -7 947.215 203.573  10
   4   3   7 869.833 181.831   2
   4   3   8 11935.0 608.944   1
  -4  -3  -8 12289.1 656.260   1
  -4  -3  -8 11890.3 637.418  10
   4   3   8 11489.2 678.792   3
  -4  -3  -9 43238.8 1335.90  10
  -4  -3  -9 45246.8 1331.04   3
   4   3   9 40960.5 1243.60   1
  -4  -3  -9 43370.6 1337.95   1
   4   3   9 43883.3 1347.54   2
   4   3   9 42874.7 1370.49   3
   4   3  10 74.0614 159.598   1
  -4  -3 -10 268.183 177.855   1
  -4  -3 -10 188.705 132.648   3
   4   3  10-5.13624 161.714   3
  -4  -3 -10 202.628 140.850  10
  -4  -3 -11 5094.06 479.031   3
   4   3  11 4519.40 483.892   3
   4   3  11 4489.62 407.821   1
  -4  -3 -11 5011.06 465.704   1
  -4  -3 -11 4109.98 425.209  10
  -4  -3 -12 8272.44 617.236  10
   4   3  12 8622.58 568.464   1
  -4  -3 -12 8354.85 608.729   1
   4   3  12 7816.64 657.881   3
  -4  -3 -13 511.870 216.493  10
   4   3  13 416.194 169.113   1
  -4  -3 -13 23.4615 153.387   1
  -4  -3 -13 55.7555 153.160   3
  -4  -3 -14-135.768 156.783  10
   4   4 -12 3387.62 453.200   9
  -4  -4  12 2960.86 505.918   6
   4   4 -11 3285.30 451.564   9
  -4  -4  11 2899.50 492.382   6
   4   4 -10 3451.12 419.088   9
  -4  -4  10 3292.68 493.861   6
   4   4  -9 8358.17 613.214   9
  -4  -4   9 9537.24 772.866   6
   4   4  -9 8909.64 474.805   5
   4   4  -8 2981.89 358.391   9
  -4  -4   8 3551.19 453.831   6
   4   4  -8 3085.11 270.385   5
   4   4  -7 13416.2 509.711   3
   4   4  -7 12813.7 702.996   9
  -4  -4   7 14829.9 860.514   6
   4   4  -7 13633.7 546.806   5
   4   4  -6 21984.8 668.379   3
   4   4  -6 22266.9 888.317   9
  -4  -4   6 20374.5 609.390   1
   4   4  -6 22667.7 693.971   5
   4   4  -6 21074.9 515.238   4
   4   4  -5 508.918 121.942   3
  -4  -4   5 486.532 186.087   6
   4   4  -5 202.048 120.414   9
  -4  -4   5 402.788 101.772   1
   4   4  -5 446.849 104.586   5
   4   4  -5 315.420 73.1737   4
   4   4  -4 13430.3 509.727   3
  -4  -4   4 14356.0 740.848   6
  -4  -4   4 12977.7 476.651   1
  -4  -4   3 62761.2 1265.88   1
  -4  -4   3 60150.1 1615.73   6
   4   4  -2 549.093 112.140   8
   4   4  -2 400.284 124.466   3
  -4  -4   2 588.692 119.786   1
  -4  -4   2 473.861 158.625   6
   4   4  -1 1284.83 167.959   8
   4   4  -1 1633.62 193.730   3
  -4  -4   1 1523.51 189.387   1
  -4  -4   1 1509.58 227.720   6
   4   4   0 181440. 2981.26   8
  -4  -4   0 181885. 3007.79   1
  -4  -4   0 182200. 3228.66   6
   4   4   0 181202. 3007.39   3
   4   4   1 16835.9 608.062   8
  -4  -4  -1 16475.6 630.467   1
  -4  -4  -1 17450.9 709.173   6
   4   4   1 15675.2 614.200   3
  -4  -4  -2 4053.10 322.927   1
   4   4   2 3104.46 264.862   1
   4   4   2 3828.64 306.932   3
  -4  -4  -3 190620. 3279.50   1
   4   4   3 189866. 3200.18   1
   4   4   3 188879. 3248.81   3
   4   4   4 1079.88 193.641   1
  -4  -4  -4 1508.37 231.558   1
   4   4   4 1291.08 220.506   3
   4   4   5 502.609 170.426   3
  -4  -4  -5 974.701 226.381   1
   4   4   5 549.983 180.578   1
  -4  -4  -6 88122.2 1982.33   1
   4   4   6 87661.1 1985.98   3
   4   4   7 379.977 188.265   3
  -4  -4  -7 563.319 177.280   1
   4   4   7 366.115 117.894   7
   4   4   7 459.101 167.916   1
  -4  -4  -8 5421.75 432.041   3
   4   4   8 4460.71 410.793   1
   4   4   8 4897.16 485.034   3
  -4  -4  -8 5020.42 437.883   1
  -4  -4  -9 15665.1 747.494  10
  -4  -4  -9 17049.0 790.679   3
   4   4   9 15066.0 737.772   1
  -4  -4  -9 17062.0 834.009   1
  -4  -4 -10 1848.32 280.897  10
   4   4  10 1545.47 328.400   3
  -4  -4 -10 1473.35 283.518   1
  -4  -4 -10 1574.29 265.480   3
   4   4  10 1549.80 273.765   1
  -4  -4 -11 2976.55 373.835  10
   4   4  11 2629.36 397.322   3
  -4  -4 -11 3174.94 390.412   3
   4   4  11 3710.39 383.363   1
  -4  -4 -12 2117.22 309.357  10
  -4  -4 -12 1884.59 340.724   1
  -4  -4 -12 2046.55 364.033   3
   4   4  12 2193.30 319.943   1
   4   4  13 370.781 204.310   1
  -4  -4 -13 323.120 204.203   1
  -4  -4 -14 665.972 260.042   1
  -4  -4 -14 808.206 265.621   3
   4   4  14 371.592 179.680   1
  -4  -5  12 301.538 249.134   6
   4   5 -11 1539.55 328.254   9
  -4  -5  11 1793.37 402.906   6
   4   5 -10-1.58122 157.081   9
  -4  -5  10 453.090 269.692   6
   4   5  -9 113.594 138.205   9
   4   5  -9 121.795 127.292   7
  -4  -5   9-228.204 241.697   6
   4   5  -9 197.582 134.819   5
   4   5  -8 8825.96 631.656   9
  -4  -5   8 9231.68 745.302   6
   4   5  -8 9753.55 521.575   5
  -4  -5   7 1881.79 350.161   6
   4   5  -7 2010.81 304.820   9
   4   5  -7 2062.52 238.559   5
   4   5  -6 5862.09 314.096   3
   4   5  -6 5823.36 486.946   9
  -4  -5   6 6064.25 570.539   6
   4   5  -6 5969.75 371.249   5
   4   5  -5 12872.2 482.601   3
  -4  -5   5 12094.6 488.723   2
   4   5  -5 12113.4 325.991   4
   4   5  -4 185.840 101.201   3
  -4  -5   4 204.942 160.491   6
  -4  -5   4 162.422 74.7864   1
  -4  -5   4 90.1174 64.0047   2
   4   5  -3 11206.0 434.815   8
  -4  -5   3 10019.1 344.113   2
  -4  -5   3 10817.5 648.245   6
  -4  -5   3 10632.2 433.893   1
   4   5  -3 11053.7 462.323   3
   4   5  -2 3688.60 259.136   8
  -4  -5   2 3703.25 269.580   1
  -4  -5   2 3216.40 151.701   2
  -4  -5   2 3125.99 335.538   6
   4   5  -2 3743.20 279.706   3
  -4  -5   1 4296.89 379.567   6
   4   5  -1 4389.01 292.033   8
   4   5  -1 4523.54 309.524   3
  -4  -5   0 7281.79 406.154   1
  -4  -5   0 6739.07 464.743   6
   4   5   0 6718.29 395.645   3
   4   5   1 1187.74 177.489   1
  -4  -5  -1 931.836 164.890   1
  -4  -5  -1 1328.12 224.239   6
  -4  -5  -1 1238.37 75.8579   2
   4   5   1 1446.30 198.204   3
   4   5   2 57240.6 1370.97   1
  -4  -5  -2 61124.1 1487.81   6
   4   5   2 58515.8 1420.81   3
  -4  -5  -3 40639.1 1175.73   1
   4   5   3 39263.3 1113.55   1
   4   5   3 41811.7 1175.37   3
   4   5   4 9735.26 500.543   7
  -4  -5  -4 10026.0 557.201   1
   4   5   4 8528.33 517.155   1
   4   5   5 80339.9 1790.00   1
  -4  -5  -5 78723.5 1875.63   1
   4   5   5 76460.0 1684.93   7
   4   5   5 78510.0 1867.89   3
   4   5   6 8491.20 524.584   1
  -4  -5  -6 7884.26 545.547   1
   4   5   6 8156.92 449.405   7
  -4  -5  -7 4823.75 413.389   3
  -4  -5  -7 4822.23 451.453   1
   4   5   7 4378.11 341.342   7
   4   5   7 4724.37 419.310   1
   4   5   7 4423.81 443.349   3
  -4  -5  -8 34588.2 1166.42   3
   4   5   8 32681.9 1150.07   1
  -4  -5  -8 33194.4 1196.01   1
   4   5   8 32694.3 970.873   7
   4   5   9 1020.85 261.147   3
  -4  -5  -9 1063.89 244.553   3
  -4  -5  -9 968.899 246.485   1
   4   5   9 1306.41 261.561   1
   4   5  10-221.255 225.713   3
  -4  -5 -10-184.110 168.205   1
  -4  -5 -10 353.425 201.476   3
   4   5  10 105.341 190.885   1
  -4  -5 -11 6554.06 555.203   3
   4   5  11 6516.67 535.292   1
  -4  -5 -11 7309.63 605.040   1
   4   5  11 6120.35 610.024   3
   4   5  12 78.3558 171.527   1
  -4  -5 -12 369.487 256.339   1
  -4  -5 -12 472.512 235.393   3
   4   5  13 48.8032 155.832   1
  -4  -5 -13 59.6475 180.944   1
  -4  -5 -13 31.9573 171.951   3
  -4  -5 -14 1457.03 302.623   1
  -4  -5 -14 2068.26 377.853   3
   4   5  14 1323.05 290.268   1
  -4  -6  11-96.8686 246.351   6
   4   6 -10-151.305 194.618   9
  -4  -6  10 522.298 350.014   6
   4   6 -10 291.892 142.562   5
  -4  -6   9 248.951 215.987   6
   4   6  -9 520.198 227.057   9
   4   6  -9 272.831 137.019   5
   4   6  -8 115.865 159.296   9
   4   6  -8 143.656 153.297   7
  -4  -6   8 293.433 197.311   6
   4   6  -8 50.1056 102.065   5
   4   6  -7-32.9548 194.471   9
   4   6  -7 38.6872 134.018   7
  -4  -6   7-57.6777 188.133   6
   4   6  -7 14.5096 104.935   5
   4   6  -6 195.846 138.642   7
  -4  -6   6 97.0590 171.030   6
   4   6  -6 297.523 113.896   5
   4   6  -5 138.191 153.224   7
   4   6  -5 12.5817 75.5131   3
  -4  -6   5 135.261 202.944   6
   4   6  -5 14.6862 23.1382   4
  -4  -6   4 3775.94 431.152   6
   4   6  -4 4045.95 408.984   7
   4   6  -4 4279.15 280.347   3
  -4  -6   3 27225.3 1093.27   6
   4   6  -3 26471.1 719.826   8
  -4  -6   3 25622.0 727.519   1
  -4  -6   3 25136.8 654.833   2
   4   6  -3 26343.8 976.806   7
   4   6  -3 27157.0 778.209   3
   4   6  -2 5283.71 430.901   7
  -4  -6   2 5707.60 478.223   6
  -4  -6   2 4773.62 228.477   2
   4   6  -2 5630.54 322.570   8
   4   6  -2 5611.64 349.506   3
  -4  -6   1 13795.3 711.261   6
  -4  -6   1 13203.6 365.153   2
   4   6  -1 14825.4 694.737   7
  -4  -6   1 14273.7 567.992   1
   4   6  -1 14462.8 584.644   3
   4   6   0 7851.73 420.141   1
   4   6   0 9305.12 548.586   7
  -4  -6   0 8083.97 517.980   6
  -4  -6   0 7992.82 257.164   2
   4   6   0 8246.82 456.540   3
   4   6   1 18035.7 675.097   1
   4   6   1 17810.1 760.701   7
  -4  -6  -1 18438.7 780.386   6
  -4  -6  -1 16997.2 437.896   2
   4   6   1 18700.6 714.700   3
  -4  -6  -2 6228.62 437.907   1
   4   6   2 5487.57 426.144   7
  -4  -6  -2 6428.60 438.871   6
  -4  -6  -2 6594.20 275.823   2
   4   6   2 6727.71 453.124   3
   4   6   3 104030. 2142.53   1
   4   6   3 105617. 2184.74   7
  -4  -6  -3 107592. 2193.45   6
  -4  -6  -3 103225. 1804.35   2
   4   6   3 107389. 2223.27   3
   4   6   4 557.097 202.497   3
  -4  -6  -4 737.185 127.831   2
  -4  -6  -4 318.154 131.918   1
   4   6   4 571.831 183.926   7
   4   6   4 784.937 202.675   1
   4   6   5 27096.2 1006.71   1
   4   6   5 28601.7 956.111   7
   4   6   5 28020.7 1062.12   3
  -4  -6  -6 70315.7 1735.06   3
   4   6   6 66373.3 1727.18   1
   4   6   6 70237.7 1647.40   7
   4   6   6 66491.2 1838.00   3
   4   6   7 12.6964 173.838   3
   4   6   7 215.868 148.243   7
  -4  -6  -7 155.304 176.599   3
   4   6   7-16.7786 153.830   1
   4   6   8 10019.8 551.613   7
   4   6   8 9392.63 642.399   1
  -4  -6  -8 10740.2 653.668   3
   4   6   9 30947.7 1009.54   7
  -4  -6  -9 32568.0 1207.70   3
   4   6   9 31266.1 1188.89   1
  -4  -6 -10 4173.36 464.320   3
   4   6  10 2977.33 414.119   1
   4   6  10 4048.42 488.958   3
  -4  -6 -11 1490.97 337.507   3
   4   6  11 1614.41 346.038   1
  -4  -6 -12 24724.7 1156.75   3
   4   6  12 22114.9 1081.60   1
  -4  -6 -12 23151.5 1138.23   1
  -4  -6 -13 360.821 234.178   1
  -4  -6 -13 672.796 297.971   3
   4   6  13 733.092 274.500   1
   4   6  14 372.324 224.609   1
  -4  -6 -14 551.779 227.027   1
  -4  -6 -14 440.997 265.596   3
  -4  -7  10 1269.28 349.729   6
   4   7 -10 895.934 227.567   5
   4   7  -9 1167.77 300.046   9
  -4  -7   9 1748.64 372.119   6
   4   7  -9 1882.38 296.465   5
   4   7  -8 1286.39 277.728   9
   4   7  -8 980.003 227.517   7
  -4  -7   8 1004.98 306.009   6
   4   7  -8 1555.05 259.271   5
   4   7  -7 891.695 260.940   9
   4   7  -7 181.680 170.129   7
  -4  -7   7 680.150 290.796   6
   4   7  -7 658.386 178.539   5
   4   7  -6 3302.72 395.952   7
  -4  -7   6 3016.19 439.229   6
   4   7  -5 1591.90 296.223   7
  -4  -7   5 1087.37 240.618   6
   4   7  -4 902.323 216.569   7
  -4  -7   4 1330.95 299.501   6
   4   7  -3 5314.28 460.907   7
  -4  -7   3 5849.70 513.729   6
   4   7  -3 6278.33 366.815   3
   4   7  -2 11270.1 478.820   8
   4   7  -2 11450.5 665.148   7
  -4  -7   2 11751.5 708.383   6
   4   7  -2 11260.5 521.908   3
   4   7  -1 25540.8 1010.08   7
  -4  -7   1 26647.3 1047.63   6
   4   7  -1 27089.5 815.501   1
   4   7  -1 26744.4 861.199   3
   4   7   0 61770.0 1432.46   1
   4   7   0 62409.6 1650.42   7
  -4  -7   0 64671.9 1680.58   6
  -4  -7   0 61370.7 1160.00   2
   4   7   0 62925.7 1502.22   3
   4   7   1 26409.5 871.517   1
  -4  -7  -1 26401.7 973.937   6
  -4  -7  -1 26463.5 661.100   2
   4   7   1 26911.5 1017.67   7
   4   7   1 25672.8 927.925   3
  -4  -7  -2 605.173 112.511   2
  -4  -7  -2 707.403 205.818   1
   4   7   2 605.779 221.759   7
   4   7   2 686.928 201.214   3
  -4  -7  -2 551.756 142.507   6
   4   7   2 718.029 196.842   1
  -4  -7  -3 101133. 2116.67   3
   4   7   3 100660. 2226.43   7
  -4  -7  -3 101206. 2141.74   6
   4   7   3 105545. 2183.61   1
  -4  -7  -3 96448.4 1809.38   2
   4   7   3 101467. 2223.68   3
   4   7   4 483.867 207.661   3
  -4  -7  -4 97.0492 90.3454   2
   4   7   4 424.038 201.470   1
   4   7   4 232.539 188.096   7
  -4  -7  -4 170.742 160.479   3
  -4  -7  -4-195.367 145.828   6
   4   7   5-40.7995 171.947   3
  -4  -7  -5 71.9751 112.866   2
   4   7   5-84.9619 152.804   1
   4   7   5-42.2498 142.616   7
  -4  -7  -5 80.5324 155.882   3
  -4  -7  -6 47281.1 1425.59   3
   4   7   6 48109.8 1404.45   7
   4   7   6 47589.8 1473.67   1
   4   7   6 47340.2 1552.11   3
  -4  -7  -7 4454.40 439.368   3
   4   7   7 4100.17 452.972   3
   4   7   7 4068.20 448.976   1
   4   7   7 3970.30 389.307   7
   4   7   8 862.239 287.078   3
   4   7   8 804.231 259.925   1
   4   7   8 1112.00 233.993   7
  -4  -7  -8 1281.28 287.238   3
   4   7   9 13051.2 689.660   7
  -4  -7  -9 13386.7 795.015   3
   4   7   9 13479.2 807.004   1
  -4  -7 -10 15787.9 885.118   3
   4   7  10 14081.6 881.549   1
   4   7  11 112.700 182.619   1
  -4  -7 -11 358.626 252.960   3
  -4  -7 -12 595.760 291.606   3
   4   7  12 472.833 281.843   1
  -4  -7 -13 1961.81 405.550   3
   4   7  13 1974.51 387.200   1
  -4  -7 -14-40.7700 221.270   1
  -4  -7 -14 339.140 273.502   3
   4   7  14 60.9565 182.028   1
  -4  -8   9 680.370 319.172   6
   4   8  -9 371.801 183.350   5
   4   8  -8 1627.93 323.174   7
   4   8  -8 1504.79 331.393   9
  -4  -8   8 1740.52 377.535   6
   4   8  -8 1104.89 261.601   5
   4   8  -7 417.918 206.886   7
  -4  -8   7 352.820 236.246   6
   4   8  -7 627.064 183.800   5
   4   8  -6 5611.44 522.315   7
  -4  -8   6 5865.50 621.336   6
  -4  -8   5 9442.21 737.241   6
   4   8  -5 9579.53 675.235   7
   4   8  -4 310.166 184.101   7
  -4  -8   4 883.620 280.275   6
   4   8  -3 62653.0 1794.70   7
  -4  -8   3 61765.9 1865.56   6
   4   8  -2 7629.92 587.499   7
   4   8  -2 8109.90 420.422   1
  -4  -8   2 9001.84 640.750   6
   4   8  -2 7488.15 449.937   3
  -4  -8   1 397.258 169.311   1
   4   8  -1 582.035 202.395   7
  -4  -8   1 735.302 154.021   3
  -4  -8   1 543.837 196.195   6
   4   8  -1 420.458 134.846   1
   4   8  -1 295.216 158.181   3
   4   8   0 15387.6 810.410   7
  -4  -8   0 14483.8 633.970   3
  -4  -8   0 15951.2 791.604   6
   4   8   0 14589.0 645.164   1
  -4  -8  -1 24267.9 866.792   3
   4   8   1 24879.3 890.973   1
   4   8   1 25186.0 1051.19   7
  -4  -8  -1 24893.7 976.482   6
   4   8   1 24478.4 932.370   3
  -4  -8  -2 133.245 95.4483   2
   4   8   2 38.2464 144.110   7
  -4  -8  -2 139.277 143.611   3
   4   8   2-2.89431 136.508   1
  -4  -8  -2-26.9097 110.299   6
   4   8   2 98.0666 130.615   3
   4   8   3 6430.37 492.899   1
  -4  -8  -3 6567.21 470.169   3
   4   8   3 7246.02 556.258   7
  -4  -8  -3 7744.40 502.780   6
  -4  -8  -3 5811.76 351.294   2
   4   8   3 6883.72 528.317   3
   4   8   4 46963.9 1401.80   1
  -4  -8  -4 44634.4 1345.92   3
   4   8   4 43791.6 1425.17   7
  -4  -8  -4 45995.5 1303.17   6
  -4  -8  -4 42985.0 1129.44   2
   4   8   5 364.999 188.775   3
   4   8   5 464.186 205.240   1
  -4  -8  -5 498.869 165.324   2
   4   8   5 224.134 154.878   7
  -4  -8  -5 350.899 205.856   3
  -4  -8  -5 355.670 139.665   6
   4   8   6 2192.84 363.116   3
   4   8   6 3035.02 405.794   1
  -4  -8  -6 2675.75 285.397   2
   4   8   6 3126.97 373.473   7
  -4  -8  -6 2790.99 362.280   3
   4   8   7 8463.63 613.320   1
   4   8   7 7967.81 586.853   7
  -4  -8  -7 7725.91 519.453   2
   4   8   8 67.6506 174.585   1
  -4  -8  -8 157.179 144.506   2
   4   8   8 60.9290 166.117   7
  -4  -8  -8-74.3792 177.466   3
   4   8   9 2037.66 330.350   1
  -4  -8  -9 1317.47 240.914   2
   4   8   9 2048.47 310.248   7
  -4  -8  -9 1740.88 337.206   3
   4   8  10 1364.44 313.473   1
  -4  -8 -10 1128.30 272.454   3
   4   8  11 372.814 233.000   1
  -4  -8 -11 333.017 202.579   3
   4   8  12 383.263 230.258   1
  -4  -8 -12-222.027 247.875   3
   4   8  13-200.572 225.947   1
  -4  -8 -13-111.601 199.794   3
  -4  -9   8-14.4150 235.095   6
   4   9  -8 256.012 149.136   5
   4   9  -7 390.264 201.451   7
   4   9  -7 326.668 163.770   5
   4   9  -6 60.7698 174.621   7
  -4  -9   6 295.601 241.225   6
   4   9  -5 3670.65 478.023   7
  -4  -9   5 3998.02 517.066   6
   4   9  -4 2099.67 360.070   7
  -4  -9   4 1523.36 324.798   6
   4   9  -3 964.216 270.191   7
  -4  -9   3 782.928 239.799   6
   4   9  -2 9177.98 683.425   7
  -4  -9   2 8616.68 656.715   6
  -4  -9   1 3.55213 106.766   1
   4   9  -1 165.425 121.353   1
   4   9  -1 411.168 249.558   7
  -4  -9   1 241.133 139.004   6
  -4  -9   0 769.207 223.220   1
   4   9   0 1304.45 304.497   7
  -4  -9   0 954.198 200.469   3
  -4  -9   0 1944.09 291.422   6
   4   9   0 785.755 184.596   1
   4   9   0 1602.36 260.317   3
  -4  -9  -1 6651.06 465.379   3
   4   9   1 7030.99 483.344   1
   4   9   1 6989.10 590.933   7
  -4  -9  -1 6695.82 518.240   6
   4   9   1 6930.73 526.485   3
   4   9   2 4226.75 392.595   1
   4   9   2 4635.37 487.896   7
  -4  -9  -2 4497.53 408.542   6
  -4  -9  -2 4265.16 393.569   3
   4   9   2 3786.15 405.733   3
   4   9   3 2720.42 331.488   1
   4   9   3 3066.90 399.204   7
  -4  -9  -3 2842.84 335.391   3
  -4  -9  -3 2534.36 297.868   6
   4   9   3 2112.12 349.201   3
   4   9   4 9830.10 660.595   1
  -4  -9  -4 9845.14 622.023   3
  -4  -9  -4 10099.5 577.028   6
   4   9   4 9856.46 695.584   7
  -4  -9  -4 8999.91 493.866   2
   4   9   5 296.978 212.485   1
  -4  -9  -5 398.730 157.301   2
   4   9   5 464.938 228.079   7
  -4  -9  -5 262.877 165.505   3
  -4  -9  -5 237.694 118.416   6
   4   9   6 15633.0 857.242   1
  -4  -9  -6 17397.1 887.339   3
   4   9   6 14970.8 858.458   7
  -4  -9  -6 16662.2 734.899   6
  -4  -9  -6 16618.4 745.188   2
   4   9   7 2211.53 359.285   1
  -4  -9  -7 1855.92 303.146   2
   4   9   7 2561.31 377.906   7
  -4  -9  -7 2609.92 382.103   3
   4   9   8 719.028 262.303   1
  -4  -9  -8 294.603 170.626   2
   4   9   8 198.161 190.006   7
  -4  -9  -8 410.545 220.640   3
   4   9   9 7492.59 634.333   1
  -4  -9  -9 6672.19 619.561   3
   4   9   9 7197.83 581.926   7
  -4  -9  -9 7618.51 570.403   2
   4   9  10 268.816 220.441   1
  -4  -9 -10 267.989 188.396   2
   4   9  10 411.416 215.942   7
  -4  -9 -10 479.063 276.504   3
   4   9  11 375.708 275.395   1
  -4  -9 -11-75.5151 200.182   2
  -4  -9 -11-103.313 217.544   3
   4   9  12 2218.27 406.303   1
  -4  -9 -12 1658.33 344.752   2
  -4  -9 -12 1956.72 414.783   3
   4   9  13 39.8451 215.492   1
  -4  -9 -13 333.523 228.015   2
   4  10  -7 49.8533 189.840   7
  -4 -10   7 274.906 245.937   6
   4  10  -7 324.454 188.910   5
   4  10  -6-41.8539 220.484   7
  -4 -10   6 147.278 207.221   6
   4  10  -5 1164.56 342.993   7
  -4 -10   5 534.671 219.245   6
   4  10  -4 45.5555 219.869   7
  -4 -10   4 119.219 193.890   6
   4  10  -3 6510.42 630.752   7
  -4 -10   3 6879.22 618.625   6
   4  10  -2 851.271 273.837   7
  -4 -10   2 1027.29 239.475   6
   4  10  -1 502.924 236.936   7
  -4 -10   1-123.748 148.603   6
   4  10   0 7190.67 482.164   1
   4  10   0 7240.25 639.718   7
  -4 -10   0 6934.85 559.203   6
   4  10   1 2750.20 419.671   7
  -4 -10  -1 2530.50 322.237   3
   4  10   1 3102.65 341.914   1
  -4 -10  -1 2767.69 357.303   6
   4  10   2 678.531 219.943   1
   4  10   2 984.982 324.192   7
  -4 -10  -2 685.979 236.440   3
  -4 -10  -2 467.133 165.478   6
  -4 -10  -3 11499.0 691.221   3
   4  10   3 11329.0 691.986   1
  -4 -10  -3 11547.7 646.724   6
   4  10   3 11142.0 785.357   7
   4  10   4 7192.56 577.493   1
  -4 -10  -4 6977.61 554.668   3
   4  10   4 6580.31 605.427   7
   4  10   5 402.826 225.124   1
   4  10   5 290.701 174.314   7
  -4 -10  -5 230.649 168.496   3
   4  10   6 9891.14 708.374   1
  -4 -10  -6 10783.2 740.307   3
   4  10   6 10859.7 770.916   7
   4  10   7 45.5675 167.382   1
  -4 -10  -7 63.3634 161.460   2
   4  10   7 256.402 234.368   7
  -4 -10  -7-259.273 232.453   3
   4  10   8 1139.61 276.856   1
  -4 -10  -8 1175.65 250.673   2
   4  10   8 863.247 271.255   7
  -4 -10  -8 1122.68 290.708   3
   4  10   9 1448.19 326.442   1
  -4 -10  -9 1146.12 271.834   2
   4  10   9 813.893 247.781   7
  -4 -10  -9 1014.17 279.956   3
   4  10  10 1652.25 381.434   1
  -4 -10 -10 2159.67 347.609   2
   4  10  10 3054.92 423.183   7
  -4 -10 -10 2875.90 460.050   3
   4  10  11 306.855 216.346   1
  -4 -10 -11 127.521 196.458   2
  -4 -10 -11 179.204 218.580   3
   4  10  12 1036.35 326.069   1
  -4 -10 -12 1018.46 312.361   2
   4  11  -5 2042.77 423.073   7
  -4 -11   5 2148.12 386.837   6
   4  11  -4 392.250 282.133   7
  -4 -11   4 52.1633 213.626   6
   4  11  -3 3221.19 493.171   7
  -4 -11   3 3655.86 495.769   6
   4  11  -2 5822.26 650.935   7
  -4 -11   2 5587.28 571.207   6
   4  11  -1 4365.10 558.593   7
  -4 -11   1 3685.29 454.768   6
   4  11   0 7742.72 718.984   7
  -4 -11   0 6583.53 555.815   6
   4  11   1 4769.38 448.139   1
   4  11   1 4644.69 557.342   7
   4  11   2 518.839 175.961   1
   4  11   2 287.454 210.116   7
  -4 -11  -2 133.960 147.655   3
   4  11   3 156.810 181.298   7
  -4 -11  -3 364.676 182.992   3
   4  11   3 681.389 214.832   1
  -4 -11  -4 6089.99 546.452   3
   4  11   4 5461.50 531.329   1
   4  11   4 6379.64 643.845   7
   4  11   5 352.984 234.925   1
   4  11   5 252.033 223.652   7
  -4 -11  -5-33.1800 163.195   3
   4  11   6 894.623 270.789   1
   4  11   6 805.805 279.068   7
  -4 -11  -6 714.595 236.898   3
   4  11   7 9263.28 737.002   1
  -4 -11  -7 8493.93 683.600   3
   4  11   7 8401.77 719.396   7
   4  11   8-362.660 251.018   7
  -4 -11  -8 334.684 208.778   3
   4  11   8 286.884 217.890   1
   4  11   9 114.105 234.307   1
   4  11   9 54.9352 200.523   7
  -4 -11  -9-142.873 181.180   3
   4  11  10 803.505 268.598   1
  -4 -11 -10 508.478 230.421   2
   4  11  10 250.082 194.910   7
  -4 -11 -10 148.755 212.483   3
   4  12  -2 814.542 332.914   7
   4  12  -1-267.912 231.506   7
   4  12   0 58.9559 185.171   7
   4  12   1 1703.63 407.301   7
   4  12   2 872.753 234.723   1
   4  12   2 1043.94 306.374   7
   4  12   3-277.489 199.568   1
   4  12   3 249.993 235.761   7
   4  12   4 1884.22 333.147   1
   4  12   4 2060.11 426.386   7
  -4 -12  -4 1754.35 348.072   3
   4  12   5 771.014 271.184   1
   4  12   5 825.591 323.358   7
  -4 -12  -5 876.264 265.130   3
   4  12   6 191.415 182.232   1
   4  12   6 507.515 270.630   7
  -4 -12  -6 45.0205 171.038   3
   4  12   7 974.934 301.170   7
  -4 -12  -7 921.099 274.602   3
   4  12   8 381.702 280.051   7
  -4 -12  -8 140.666 186.191   3
   4  12   8-126.455 238.548   1
   5  -8  -4 2699.14 451.443   2
   5  -8  -4 2572.49 438.535   3
  -5   8   4 2801.00 456.083   1
   5  -8  -3-132.596 192.920   2
  -5   8   3 164.145 193.096   1
   5  -8  -3-471.990 225.278   3
   5  -8  -2 348.357 233.000   2
  -5   8   2 658.804 245.208   1
   5  -8  -2 57.5578 190.448   3
  -5   8   2 178.210 177.116   7
   5  -8  -1 4158.51 515.202   2
  -5   8   1 4094.64 489.349   1
  -5   8   1 4695.41 592.309   7
   5  -8   0 722.203 267.423   2
  -5   8   0 733.247 244.526   1
  -5   8   0 554.392 284.304   7
  -5   7   8-106.673 232.094   7
  -5   7   8 261.609 288.513   1
   5  -7  -8 106.300 222.692   2
   5  -7  -7 3365.06 486.273   2
   5  -7  -7 2819.01 455.120   3
  -5   7   7 2339.92 425.586   7
  -5   7   7 3128.71 476.081   1
   5  -7  -6 618.043 271.157   2
  -5   7   6 1590.07 360.051   1
   5  -7  -6 1032.68 265.455   3
  -5   7   6 688.997 287.972   7
   5  -7  -5 229.042 191.992   2
  -5   7   5-12.7266 210.163   1
   5  -7  -5-242.607 223.024   3
  -5   7   5-435.449 299.012   7
   5  -7  -4 8364.46 699.459   3
  -5   7   4 9141.43 769.094   7
   5  -7  -4 9879.89 763.601   2
  -5   7   4 8957.38 727.934   1
   5  -7  -3 6982.35 614.702   3
  -5   7   3 7981.51 732.637   7
   5  -7  -3 8104.67 679.827   2
  -5   7   3 8317.28 681.002   1
   5  -7  -2-5.18281 200.929   2
  -5   7   2 615.446 274.929   1
   5  -7  -2 356.141 214.531   3
  -5   7   2 56.5483 290.898   7
   5  -7  -1 11243.7 729.667   3
  -5   7   1 12360.2 890.378   7
   5  -7  -1 11889.5 827.028   2
  -5   7   1 12773.5 811.542   1
   5  -7   0 6568.37 559.789   3
  -5   7   0 7629.01 687.875   7
   5  -7   0 6766.68 622.412   2
  -5   7   0 6785.71 586.006   1
   5  -7   1 1080.32 283.651   2
  -5   7  -1 1160.13 269.649   1
  -5   7  -1 1116.09 300.595   7
  -5   7  -1 1517.44 282.157   5
  -5   7  -2 10312.2 778.982   7
   5  -7   2 9364.87 756.275   2
  -5   7  -2 8964.55 649.673   5
  -5   7  -2 9157.16 657.269   1
  -5   7  -3 8913.61 713.297   7
   5  -7   3 9617.22 767.154   2
  -5   7  -3 9089.16 678.040   5
  -5   7  -3 9231.50 648.197   1
   5  -7   4 779.947 275.179   2
  -5   7  -4 511.683 217.361   7
  -5   7  -4 995.923 253.277   5
   5  -6  -9 2435.33 401.913   2
   5  -6  -9 2341.56 406.917   3
  -5   6   9 2664.12 452.717   7
  -5   6   9 2283.70 421.213   1
   5  -6  -8-521.353 329.369   3
   5  -6  -8 277.860 221.489   2
  -5   6   8-30.2232 200.099   1
  -5   6   8-182.771 272.008   7
  -5   6   7 2714.47 435.799   1
   5  -6  -7 2231.31 403.811   3
  -5   6   7 2253.94 391.084   7
   5  -6  -7 2203.16 395.001   2
   5  -6  -6 18652.5 1037.88   3
  -5   6   6 20299.8 1108.79   7
   5  -6  -6 17538.1 993.430   2
  -5   6   6 18836.1 1047.72   1
   5  -6  -5-131.261 247.897   2
  -5   6   5 312.635 181.611   1
   5  -6  -5 177.188 178.549   3
  -5   6   5 123.029 223.152   7
   5  -6  -4 2403.37 377.809   2
  -5   6   4 2246.94 386.757   7
   5  -6  -4 2069.00 357.723   3
  -5   6   4 2439.02 384.344   1
   5  -6  -3 9845.70 711.232   3
   5  -6  -3 10858.3 756.855   2
  -5   6   3 9684.94 706.331   1
   5  -6  -2 312.763 178.487   2
  -5   6   2 239.255 206.496   1
   5  -6  -2 7.18838 175.599   3
  -5   6   2 153.080 196.121   7
   5  -6  -1 54.0270 167.154   2
  -5   6   1 256.030 179.929   1
   5  -6  -1 755.002 251.280   3
  -5   6   1 298.786 235.827   7
   5  -6   0 23874.0 1031.87   3
  -5   6   0 26504.0 1227.06   7
   5  -6   0 25520.3 1151.59   2
  -5   6   0 24070.7 1080.96   1
   5  -6   1 939.455 285.324   2
  -5   6  -1 899.781 237.944   1
   5  -6   1 1064.17 247.327   3
  -5   6  -1 1146.99 293.241   7
  -5   6  -1 1550.91 285.499   5
   5  -6   2 1008.82 281.171   2
  -5   6  -2 1128.23 257.113   1
  -5   6  -2 951.582 270.509   7
  -5   6  -2 1232.87 239.421   5
  -5   6  -3 13152.6 816.388   7
   5  -6   3 12446.6 835.583   2
  -5   6  -3 12288.8 721.513   1
  -5   6  -3 10156.1 682.107   5
   5  -6   4 650.900 253.056   2
  -5   6  -4 1164.79 277.009   1
  -5   6  -4 586.336 226.594   7
  -5   6  -4 704.766 243.174   5
   5  -6   5 168.971 225.434   2
  -5   6  -5-40.1297 162.871   5
   5  -6   6 3196.27 456.168   2
  -5   6  -6 3999.12 470.218   5
   5  -5 -11 1935.47 388.757   2
  -5   5  11 1629.52 386.408   1
  -5   5  11 1790.64 365.581   7
   5  -5 -10 44.9989 168.493   2
  -5   5  10-239.553 251.663   7
  -5   5  10-111.641 245.233   1
   5  -5 -10-69.1741 265.921   3
   5  -5  -9 1613.74 350.557   3
  -5   5   9 1186.25 307.700   1
  -5   5   9 964.174 301.244   7
   5  -5  -9 1536.94 375.645   2
   5  -5  -8-19.6285 174.198   2
  -5   5   8-321.928 255.077   1
   5  -5  -8-315.983 261.746   3
  -5   5   8 299.713 250.311   7
  -5   5   7 424.392 250.087   1
   5  -5  -7 724.137 280.453   3
  -5   5   7 180.393 214.472   7
   5  -5  -7 619.040 230.443   2
   5  -5  -6 3359.54 430.304   2
  -5   5   6 2968.56 410.816   1
   5  -5  -6 3126.77 406.030   3
  -5   5   6 3783.89 478.037   7
   5  -5  -5 3600.70 442.831   2
  -5   5   5 2662.66 397.371   1
   5  -5  -5 2818.11 398.979   3
  -5   5   5 2436.16 394.093   7
   5  -5  -4 962.326 251.516   2
  -5   5   4 902.477 246.999   1
   5  -5  -4 1031.02 271.905   3
  -5   5   4 865.320 271.792   7
   5  -5  -3 8335.29 627.717   3
  -5   5   3 9323.16 697.418   7
   5  -5  -3 9760.85 681.413   2
  -5   5   3 9805.45 671.733   1
   5  -5  -2 6606.66 546.364   3
  -5   5   2 6264.48 575.405   7
   5  -5  -2 6837.39 557.293   2
  -5   5   2 7792.81 593.164   1
   5  -5  -1 7348.96 563.059   3
  -5   5   1 8835.15 666.600   7
   5  -5  -1 8017.38 607.908   2
  -5   5   1 7920.11 596.155   1
   5  -5   0 5082.06 465.930   3
  -5   5   0 4258.80 470.615   7
   5  -5   0 4867.55 485.028   2
  -5   5   0 5552.05 490.197   1
  -5   5  -1 103.157 128.045   1
   5  -5   1-46.1923 190.473   2
   5  -5   1 16.2343 138.993   3
  -5   5  -1-16.1397 200.268   7
  -5   5  -1 108.952 112.918   5
  -5   5  -2 3788.41 395.042   1
   5  -5   2 3735.99 437.798   2
   5  -5   2 2881.59 348.530   3
  -5   5  -2 3215.35 398.599   7
  -5   5  -2 3678.86 382.743   5
  -5   5  -3 441.359 182.212   1
   5  -5   3 149.850 189.769   2
   5  -5   3 396.543 161.381   3
  -5   5  -3-175.781 169.613   7
  -5   5  -3 119.076 133.146   5
  -5   5  -4 171.948 169.525   1
   5  -5   4 242.289 159.128   2
  -5   5  -4 21.3725 191.005   7
  -5   5  -4 161.136 151.478   5
  -5   5  -5 7483.99 562.648   7
   5  -5   5 8682.95 689.040   2
  -5   5  -5 7712.27 535.168   1
  -5   5  -5 7671.45 590.825   5
   5  -5   6-134.933 201.867   2
  -5   5  -6 110.808 174.546   5
   5  -5   7 135.210 213.667   2
  -5   5  -7-99.5120 181.950   5
   5  -5   8 2277.88 400.853   2
  -5   5  -8 2476.86 372.873   5
   5  -4 -11 860.783 268.466   2
   5  -4 -11 576.820 232.741   3
  -5   4  11 756.296 256.470   7
  -5   4  11 529.436 228.457   1
   5  -4 -10 265.392 214.759   2
   5  -4 -10 281.246 205.058   3
  -5   4  10 123.286 211.138   7
  -5   4  10 135.233 213.832   1
   5  -4  -9 1606.75 335.161   2
  -5   4   9 1728.52 318.042   1
   5  -4  -9 1655.73 337.010   3
  -5   4   9 1350.85 302.423   7
   5  -4  -8 3029.05 395.303   2
   5  -4  -8 2898.08 392.769   3
  -5   4   8 2999.07 409.480   7
  -5   4   8 3380.59 453.853   1
  -5   4   7 415.632 173.925   1
   5  -4  -7 470.342 194.329   2
   5  -4  -7 210.979 158.057   3
  -5   4   7 306.489 199.917   7
  -5   4   6 153.879 176.245   1
   5  -4  -6 34.0118 159.519   2
   5  -4  -6 21.9998 186.670   3
  -5   4   6 107.471 174.212   7
   5  -4  -5 272.563 159.980   2
   5  -4  -5 99.6704 173.528   3
  -5   4   5-56.1134 395.739   7
  -5   4   5 347.546 221.479   1
   5  -4  -4 11816.9 724.300   3
  -5   4   4 11349.8 737.576   7
  -5   4   4 12047.0 725.510   1
   5  -4  -4 12222.4 722.245   2
   5  -4  -3 14952.9 804.771   3
  -5   4   3 16511.6 887.820   7
  -5   4   3 15325.2 823.513   1
   5  -4  -3 15861.6 812.369   2
  -5   4   2 261.281 188.911   1
   5  -4  -2 201.382 150.108   2
   5  -4  -2 23.2221 154.034   3
  -5   4   2-31.9456 182.742   7
   5  -4  -1 31304.1 1146.72   3
  -5   4   1 31363.0 1222.70   7
  -5   4   1 33207.6 1190.70   1
   5  -4  -1 31341.7 1160.54   2
   5  -4   0 17089.3 810.518   3
  -5   4   0 19447.1 932.761   7
  -5   4   0 17133.9 821.998   1
   5  -4   0 17849.0 860.827   2
  -5   4   0 17202.6 702.063   5
   5  -4   1 4167.31 403.438   3
   5  -4   1 3593.01 379.930   2
  -5   4  -1 3610.00 402.730   7
  -5   4  -1 3942.37 399.469   1
  -5   4  -1 3841.02 337.384   5
   5  -4   2 31791.8 1099.66   3
  -5   4  -2 31080.4 1177.08   7
  -5   4  -2 32138.5 1132.82   1
   5  -4   2 32649.3 1203.47   2
  -5   4  -2 31771.0 1052.86   5
   5  -4   3 28014.3 1009.94   3
  -5   4  -3 30063.1 1120.94   7
  -5   4  -3 30594.7 1082.63   1
   5  -4   3 27738.0 1135.38   2
  -5   4  -3 28199.0 1026.71   5
   5  -4   4-82.9725 199.196   2
   5  -4   4 283.383 126.646   3
  -5   4  -4 131.648 129.800   7
  -5   4  -4 232.293 146.695   5
  -5   4  -4 169.998 149.548   1
  -5   4  -5 8857.41 556.743   7
   5  -4   5 8563.41 640.426   2
  -5   4  -5 8983.47 567.533   1
  -5   4  -5 7637.31 551.927   5
   5  -4   6 26315.3 1168.01   2
  -5   4  -6 24788.8 947.485   1
  -5   4  -6 23584.0 1016.71   5
   5  -4   7 322.712 186.799   2
  -5   4  -7 576.157 209.294   5
   5  -4   8 8115.71 692.070   2
  -5   4  -8 7146.90 592.221   5
   5  -4   9 8535.38 734.487   2
  -5   4  -9 6947.24 609.190   5
   5  -3 -12 1.78486 215.946   3
  -5   3  12-71.0008 216.675   1
   5  -3 -12 3.49531 194.148   2
  -5   3  11 1227.12 314.081   7
   5  -3 -11 1388.03 316.646   2
   5  -3 -11 581.827 233.154   3
  -5   3  11 1235.17 290.263   1
   5  -3 -10 1398.26 310.177   2
  -5   3  10 1184.02 283.879   1
  -5   3  10 854.049 257.358   7
   5  -3 -10 621.316 245.295   3
  -5   3   9 5462.51 515.618   7
   5  -3  -9 5077.55 529.521   3
   5  -3  -9 5829.67 545.314   2
  -5   3   9 5162.03 532.016   1
  -5   3   8 820.357 267.958   1
   5  -3  -8 169.088 176.468   3
  -5   3   8 371.184 200.016   7
   5  -3  -8 122.617 176.501   2
  -5   3   7 162.649 174.605   1
  -5   3   7 489.868 212.704   7
   5  -3  -7 137.129 151.922   2
   5  -3  -7 53.6657 165.631   3
   5  -3  -6 16119.8 858.711   3
  -5   3   6 15524.2 843.914   7
  -5   3   6 15731.0 846.034   1
   5  -3  -6 15367.1 808.219   2
  -5   3   5 2981.45 356.825   1
   5  -3  -5 3661.51 399.042   2
   5  -3  -5 2202.25 320.012   3
  -5   3   5 2973.10 386.718   7
   5  -3  -4 9409.83 625.333   3
  -5   3   4 9193.55 634.234   7
  -5   3   4 10029.4 645.444   1
   5  -3  -4 10010.3 611.449   2
   5  -3  -3 81357.2 2024.53   3
  -5   3   3 81849.2 2060.24   7
  -5   3   3 80927.2 2007.36   1
   5  -3  -3 81390.7 1953.40   2
  -5   3   2 3707.14 384.543   1
   5  -3  -2 3515.92 355.183   2
   5  -3  -2 3622.83 386.212   3
  -5   3   2 3637.37 392.177   7
   5  -3  -1 5618.70 464.586   3
  -5   3   1 5463.28 474.430   7
  -5   3   1 6123.29 479.409   1
   5  -3  -1 4888.41 411.261   2
  -5   3   1 5572.08 330.647   5
   5  -3   0 103014. 2252.14   3
  -5   3   0 101365. 2319.50   7
  -5   3   0 101484. 2251.53   1
   5  -3   0 102254. 2254.58   2
  -5   3   0 99406.6 1938.16   5
   5  -3   1 21002.8 859.167   3
  -5   3  -1 20532.5 890.855   7
  -5   3  -1 21459.1 873.040   1
   5  -3   1 19990.2 865.520   2
  -5   3  -1 20623.3 744.594   5
   5  -3   2 2416.76 304.634   2
   5  -3   2 2494.90 296.420   3
  -5   3  -2 2755.70 320.872   7
  -5   3  -2 2577.18 272.826   5
  -5   3  -2 2904.49 323.692   1
   5  -3   3 90672.5 2015.17   3
  -5   3  -3 88049.2 2051.33   7
  -5   3  -3 93046.1 2062.91   1
   5  -3   3 88638.3 2133.69   2
  -5   3  -3 90157.2 1967.25   5
   5  -3   4 16981.0 749.917   3
  -5   3  -4 17940.3 785.416   7
  -5   3  -4 18737.3 809.232   1
   5  -3   4 17608.5 852.353   2
  -5   3  -4 17948.6 776.671   5
   5  -3   5 12998.4 641.805   3
  -5   3  -5 13449.9 653.133   7
  -5   3  -5 12887.3 653.568   1
   5  -3   5 11754.7 715.330   2
  -5   3  -5 12184.7 657.826   5
  -5   3  -6 43543.6 1258.83   7
  -5   3  -6 46421.5 1322.35   1
   5  -3   6 45151.9 1514.82   2
  -5   3  -6 44554.9 1389.92   5
   5  -3   7 2512.33 380.497   2
  -5   3  -7 1969.98 314.307   5
  -5   3  -7 2430.81 284.481   1
   5  -3   8 447.440 203.370   2
  -5   3  -8 106.524 150.575   5
   5  -3   9 9804.48 746.678   2
  -5   3  -9 8138.36 626.342   5
  -5   3 -10 1588.95 320.405   5
   5  -3  10 1939.34 383.463   2
   5  -2 -12 1753.69 350.659   2
   5  -2 -12 1651.66 309.851   3
  -5   2  12 1645.80 340.182   1
  -5   2  11 124.752 171.015   7
   5  -2 -11-28.1261 246.784   3
  -5   2  11 464.501 210.753   1
   5  -2 -11 264.107 168.871   2
   5  -2 -10 1000.39 254.281   2
  -5   2  10 1301.71 274.447   1
   5  -2 -10 1032.44 252.299   3
  -5   2  10 804.351 237.200   7
   5  -2  -9 7166.78 576.731   3
  -5   2   9 6625.24 538.092   7
  -5   2   9 6103.86 537.117   1
   5  -2  -9 7210.78 569.411   2
   5  -2  -8 29685.3 1184.95   3
  -5   2   8 30688.6 1169.33   7
  -5   2   8 30517.8 1192.21   1
   5  -2  -8 29986.7 1167.06   2
  -5   2   7 3432.43 394.686   1
   5  -2  -7 3058.52 369.916   2
   5  -2  -7 3232.17 372.130   3
  -5   2   7 3602.77 399.232   7
   5  -2  -6 79843.6 2036.26   3
  -5   2   6 80371.5 1804.25   6
  -5   2   6 80259.1 2029.13   7
  -5   2   6 81513.1 2025.70   1
   5  -2  -6 81092.7 1965.78   2
   5  -2  -5 23582.5 988.181   3
  -5   2   5 21784.2 952.449   7
  -5   2   5 21461.5 799.164   6
  -5   2   5 23317.2 966.474   1
   5  -2  -5 22730.8 909.608   2
  -5   2   4 1951.32 296.975   1
   5  -2  -4 2204.89 279.137   2
   5  -2  -4 1952.23 289.664   3
  -5   2   4 1705.12 286.835   7
  -5   2   4 2174.58 240.095   6
   5  -2  -3 41810.4 1306.32   3
  -5   2   3 43179.2 1352.51   7
  -5   2   3 41987.3 1156.10   6
  -5   2   3 46185.3 1352.02   1
   5  -2  -3 42839.3 1250.65   2
   5  -2  -2 64624.7 1641.04   3
  -5   2   2 63625.1 1671.76   7
  -5   2   2 64996.0 1658.93   1
   5  -2  -2 64619.8 1565.61   2
  -5   2   2 59801.6 1171.18   5
   5  -2  -1 2151.20 255.375   2
   5  -2  -1 2374.31 301.535   3
  -5   2   1 2334.58 301.554   7
  -5   2   1 2171.54 186.795   5
  -5   2   1 2131.88 284.939   1
   5  -2   0 20419.7 832.344   3
  -5   2   0 22124.3 858.409   1
  -5   2   0 21374.1 872.447   7
   5  -2   0 20277.8 801.426   2
  -5   2   0 19974.9 632.266   5
   5  -2   1 48014.1 1341.51   3
  -5   2  -1 49119.9 1378.25   7
  -5   2  -1 46959.1 1342.44   1
   5  -2   1 48499.7 1329.43   2
  -5   2  -1 48161.3 1134.62   5
   5  -2   2 2360.46 271.822   2
   5  -2   2 2424.66 287.856   3
  -5   2  -2 2243.40 276.718   7
  -5   2  -2 2092.36 226.618   5
  -5   2  -2 2214.18 282.277   1
   5  -2   3 32462.1 1041.03   3
  -5   2  -3 32720.0 1052.90   7
  -5   2  -3 31606.9 1056.06   1
   5  -2   3 32218.2 1084.25   2
  -5   2  -3 31552.5 960.698   5
   5  -2   4 19368.8 777.192   3
  -5   2  -4 18620.2 757.409   7
  -5   2  -4 18156.9 769.185   1
   5  -2   4 18467.4 828.872   2
  -5   2  -4 17683.1 730.993   5
   5  -2   5-64.3568 181.241   2
   5  -2   5-186.634 185.019   3
  -5   2  -5 87.4918 111.187   7
  -5   2  -5 118.474 115.927   1
  -5   2  -5-96.0094 134.983   5
   5  -2   6 703.410 235.910   2
   5  -2   6 367.142 156.205   3
  -5   2  -6 735.040 169.489   7
  -5   2  -6 205.783 154.608   1
  -5   2  -6 687.974 200.983   5
  -5   2  -7 34833.3 1105.67   1
   5  -2   7 35956.1 1296.82   2
  -5   2  -7 32725.5 1176.29   5
   5  -2   8 370.305 202.340   2
  -5   2  -8 62.4675 128.488   1
  -5   2  -8 274.100 187.567   5
  -5   2  -9-77.3847 162.081   5
   5  -2   9-220.887 186.797   2
  -5   2 -10 439.856 211.426   5
   5  -2  10 680.400 269.088   2
  -5   2 -11 94.1872 210.917   5
   5  -2  11 449.408 252.692   2
   5  -1 -13 849.937 273.901   2
   5  -1 -13 298.725 207.339   3
   5  -1 -12 3136.59 433.358   2
   5  -1 -12 2177.90 362.085   3
   5  -1 -11 5540.69 511.111   3
  -5   1  11 4038.86 435.998   1
   5  -1 -11 5404.36 526.374   2
   5  -1 -10 601.992 243.377   2
  -5   1  10 797.149 220.260   1
   5  -1 -10 617.581 204.816   3
  -5   1  10 813.837 221.414   6
  -5   1   9 5569.37 487.518   7
   5  -1  -9 4948.33 467.549   3
  -5   1   9 4902.63 452.740   6
  -5   1   9 5643.50 474.325   1
   5  -1  -9 4898.24 458.878   2
   5  -1  -8 8040.41 579.323   3
  -5   1   8 8148.76 568.386   7
  -5   1   8 7846.24 541.673   6
  -5   1   8 8727.43 583.839   1
   5  -1  -8 8037.26 565.550   2
   5  -1  -7 19457.4 882.719   3
  -5   1   7 19164.8 864.430   7
  -5   1   7 19403.8 837.611   6
  -5   1   7 18124.7 847.319   1
   5  -1  -7 19722.6 859.150   2
  -5   1   6 26459.1 1013.67   7
   5  -1  -6 25252.9 1007.81   3
  -5   1   6 27479.2 975.138   6
  -5   1   6 26665.0 1010.54   1
   5  -1  -6 25641.5 954.045   2
   5  -1  -5 31596.7 1093.16   3
  -5   1   5 31181.9 1100.82   7
  -5   1   5 29281.6 989.120   6
  -5   1   5 29293.2 1058.34   1
   5  -1  -5 29476.6 991.922   2
  -5   1   4 855.312 179.862   1
   5  -1  -4 934.178 184.093   2
   5  -1  -4 1100.00 237.125   3
  -5   1   4 1153.36 245.656   7
  -5   1   4 803.529 181.688   6
   5  -1  -3 5070.63 412.002   3
  -5   1   3 4532.36 410.212   7
  -5   1   3 5097.86 375.729   6
  -5   1   3 5068.90 419.316   1
   5  -1  -3 4598.41 354.383   2
   5  -1  -2 55946.4 1447.93   3
  -5   1   2 50225.5 946.723   9
  -5   1   2 56346.1 1478.30   7
  -5   1   2 53933.6 1363.04   6
  -5   1   2 55813.0 1434.92   1
  -5   1   2 51877.1 902.788   5
   5  -1  -2 55114.9 1326.80   2
   5  -1  -1 10777.2 577.238   3
  -5   1   1 9008.32 231.791   9
  -5   1   1 10514.4 589.508   7
  -5   1   1 10665.5 571.997   1
   5  -1  -1 11244.0 524.595   2
  -5   1   1 10175.0 334.660   5
   5  -1   0 10297.9 559.187   3
  -5   1   0 10352.3 565.816   7
  -5   1   0 10762.6 582.249   1
   5  -1   0 10210.4 508.252   2
  -5   1   0 10024.9 383.207   5
   5  -1   1 45731.6 1261.33   3
  -5   1  -1 44581.8 1246.49   7
  -5   1  -1 43028.0 1241.50   1
   5  -1   1 45613.4 1187.64   2
  -5   1  -1 43246.1 989.398   5
   5  -1   2 3055.00 297.894   3
  -5   1  -2 2663.70 291.079   7
  -5   1  -2 3070.80 322.318   1
   5  -1   2 3201.98 295.977   2
  -5   1  -2 3500.22 256.549   5
   5  -1   3 30200.4 993.145   3
  -5   1  -3 31082.0 973.460   7
  -5   1  -3 30509.1 1003.62   1
   5  -1   3 31395.9 997.606   2
  -5   1  -3 29395.9 872.896   5
   5  -1   4 14245.4 650.516   3
  -5   1  -4 13229.8 596.469   7
  -5   1  -4 14263.5 660.533   1
   5  -1   4 13849.4 661.912   2
  -5   1  -4 12793.3 576.662   5
   5  -1   5 4236.73 357.616   3
  -5   1  -5 4695.87 341.925   7
  -5   1  -5 4961.72 390.575   1
   5  -1   5 4901.23 405.297   2
  -5   1  -5 5136.02 387.663   5
   5  -1   6 34944.6 1097.24   3
  -5   1  -6 34154.3 968.951   7
  -5   1  -6 35499.0 1122.97   1
   5  -1   6 35325.4 1194.04   2
  -5   1  -6 34376.8 1104.44   5
  -5   1  -7 7388.63 490.199   1
   5  -1   7 7851.10 578.331   2
  -5   1  -7 7435.87 515.240   5
   5  -1   7 6724.53 456.266   3
  -5   1  -8 10202.8 574.687   1
   5  -1   8 10652.3 688.332   2
  -5   1  -8 10079.6 630.903   5
   5  -1   8 10447.5 589.482   3
  -5   1  -9 11048.3 607.486   1
   5  -1   9 10341.4 710.708   2
  -5   1  -9 10421.5 665.885   5
  -5   1 -10 200.859 187.526   5
   5  -1  10-130.954 208.991   2
  -5   1 -11 956.677 258.227   5
   5  -1  11 993.368 288.500   2
  -5   1 -12 3024.01 409.386   5
   5  -1  12 2914.84 442.412   2
  -5   0  13-379.949 242.258   6
   5   0 -12 155.300 157.515   2
   5   0 -12 183.009 187.354   3
  -5   0  12-154.588 185.627   6
   5   0 -11 501.917 226.768   2
   5   0 -11-48.2310 174.868   3
  -5   0  11 282.273 207.069   6
  -5   0  10-202.609 157.025   1
   5   0 -10 189.152 173.312   2
   5   0 -10-331.480 222.372   3
  -5   0  10-30.3928 158.527   6
  -5   0   9 2489.30 322.817   1
   5   0  -9 2239.77 317.851   2
   5   0  -9 2512.84 329.058   3
  -5   0   9 2040.78 339.407   6
  -5   0   8 1063.09 229.169   1
   5   0  -8 443.932 178.443   2
   5   0  -8 608.537 189.404   3
  -5   0   8 752.283 201.456   6
   5   0  -7 6905.68 509.242   3
  -5   0   7 8028.80 551.906   6
  -5   0   7 7913.45 515.198   1
   5   0  -7 7948.65 505.719   2
   5   0  -6 52778.3 1458.51   3
  -5   0   6 51270.7 1454.84   7
  -5   0   6 53423.6 1500.88   6
  -5   0   6 53147.1 1452.08   1
   5   0  -6 53232.9 1382.30   2
   5   0  -5 3621.22 364.047   3
  -5   0   5 3345.98 348.437   7
  -5   0   5 3790.51 359.514   6
  -5   0   5 4137.98 369.572   1
   5   0  -5 3854.04 321.862   2
   5   0  -4 6950.24 461.358   3
  -5   0   4 6445.57 466.416   7
  -5   0   4 6313.71 453.901   6
  -5   0   4 6547.18 453.356   1
   5   0  -4 6492.91 397.599   2
   5   0  -3 100615. 2134.03   3
  -5   0   3 102748. 2169.77   7
  -5   0   3 102485. 2149.66   6
  -5   0   3 100700. 2116.92   1
   5   0  -3 101825. 1943.79   2
   5   0  -2 8039.84 483.568   3
  -5   0   2 7191.61 474.682   7
  -5   0   2 6477.16 437.339   6
  -5   0   2 6732.06 448.583   1
   5   0  -2 6979.29 380.667   2
   5   0  -1 7011.82 451.910   3
  -5   0   1 7322.07 461.855   7
  -5   0   1 7325.15 462.406   1
  -5   0   1 6827.67 223.281   5
   5   0  -1 6852.22 371.934   2
   5   0   0 167336. 2986.87   3
  -5   0   0 163863. 2963.23   7
  -5   0   0 168101. 2987.36   1
   5   0   0 165783. 2752.50   2
  -5   0   0 161622. 2465.33   5
   5   0   1 7583.68 466.787   3
  -5   0  -1 7560.65 455.160   7
  -5   0  -1 7903.60 475.698   1
   5   0   1 7841.92 405.005   2
  -5   0  -1 7365.25 328.472   5
   5   0   2 634.566 131.852   2
   5   0   2 546.654 176.645   3
  -5   0  -2 651.084 170.986   7
  -5   0  -2 565.011 158.848   1
  -5   0  -2 879.310 124.861   5
   5   0   3 116459. 2324.90   3
  -5   0  -3 115074. 2225.18   7
  -5   0  -3 120842. 2340.88   1
   5   0   3 117565. 2220.52   2
  -5   0  -3 117182. 2117.11   5
   5   0   4 12114.6 602.608   3
  -5   0  -4 11754.7 535.483   7
  -5   0  -4 10573.2 566.373   1
   5   0   4 11972.7 572.530   2
  -5   0  -4 11146.1 520.130   5
   5   0   5 12884.9 623.227   3
  -5   0  -5 12690.6 621.703   1
   5   0   5 11889.1 596.391   2
  -5   0  -5 12839.5 595.866   5
   5   0   6 54293.2 1437.13   8
  -5   0  -6 56641.8 1433.64   1
   5   0   6 51736.7 1444.15   2
  -5   0  -6 50546.6 1377.24   5
   5   0   6 54025.5 1432.33   3
   5   0   7 7775.43 513.052   8
  -5   0  -7 7280.52 482.864   1
   5   0   7 7972.38 534.653   2
  -5   0  -7 7652.56 501.553   5
   5   0   7 7261.42 490.849   3
   5   0   8 1352.51 237.820   8
   5   0   8 1210.66 241.662   3
  -5   0  -8 1525.36 234.484   1
  -5   0  -8 1459.74 256.185   5
   5   0   8 965.424 219.644   2
   5   0   9 28833.5 1044.31   8
  -5   0  -9 29953.2 1043.58   1
   5   0   9 29886.6 1190.76   2
  -5   0  -9 28285.8 1097.34   5
   5   0   9 28905.2 1059.62   3
   5   0  10 5769.13 457.457   8
  -5   0 -10 6105.17 469.484   1
   5   0  10 7196.60 596.384   2
  -5   0 -10 5566.00 501.742   5
  -5   0 -11 1105.14 248.518   5
   5   0  11 1360.63 290.613   2
  -5   0 -12 2390.40 353.954   5
   5   0  12 2413.71 402.261   2
   5   0  13 1147.06 320.313   2
  -5  -1  13 37.4440 187.525   6
  -5  -1  12 1303.92 318.895   6
   5   1 -11 983.021 233.777   3
  -5  -1  11 1334.63 304.044   6
   5   1 -10 3343.25 357.947   3
  -5  -1  10 4426.42 486.591   6
   5   1  -9 8214.30 540.153   3
  -5  -1   9 8643.67 648.056   6
  -5  -1   9 7854.32 518.180   1
   5   1  -8 37241.3 1166.84   3
  -5  -1   8 36478.8 1338.74   6
  -5  -1   8 35686.6 1145.05   1
  -5  -1   7 3044.22 315.987   1
   5   1  -7 2955.30 298.649   2
   5   1  -7 2757.95 303.046   3
  -5  -1   7 3697.38 397.735   6
   5   1  -6 34938.0 1096.58   3
  -5  -1   6 34249.7 1203.56   6
  -5  -1   6 32246.9 1043.81   1
   5   1  -6 34892.6 1019.37   2
   5   1  -5 58421.8 1481.51   3
  -5  -1   5 59166.8 1601.66   6
  -5  -1   5 57864.1 1449.68   1
   5   1  -5 58729.3 1348.36   2
   5   1  -4 3711.57 336.326   3
  -5  -1   4 3387.63 320.710   1
  -5  -1   4 2967.01 314.187   6
   5   1  -4 3315.08 259.916   2
   5   1  -3 99340.4 2041.98   3
  -5  -1   3 97804.5 2133.87   6
  -5  -1   3 95373.9 1996.99   1
   5   1  -3 95908.5 1769.86   2
   5   1  -2 128290. 2493.50   3
  -5  -1   2 134473. 2606.89   6
  -5  -1   2 131817. 2483.42   1
   5   1  -2 134117. 2210.84   2
   5   1  -1 669.120 113.214   2
  -5  -1   1 644.105 89.4111  10
   5   1  -1 820.656 190.390   3
  -5  -1   1 857.511 182.091   1
   5   1   0 31909.2 999.829   3
  -5  -1   0 34310.9 1012.96   1
   5   1   0 31542.1 785.875   2
   5   1   1 208427. 3492.61   3
  -5  -1  -1 204670. 3484.70   1
   5   1   1 200398. 3163.82   2
  -5  -1  -1 205822. 3058.36   5
   5   1   2 9751.09 523.130   3
  -5  -1  -2 9668.49 524.211   1
   5   1   2 9307.38 519.989   8
   5   1   2 9634.84 418.837   2
  -5  -1  -2 9301.83 390.581   5
   5   1   3 73808.2 1694.20   3
  -5  -1  -3 73807.8 1681.88   1
   5   1   3 73085.4 1690.29   8
   5   1   3 74645.9 1515.79   2
  -5  -1  -3 72655.7 1467.26   5
   5   1   4 149076. 2767.09   3
   5   1   4 150128. 2787.09   8
  -5  -1  -4 152032. 2786.46   1
   5   1   4 143710. 2599.26   2
  -5  -1  -4 146714. 2569.53   5
   5   1   5 1957.23 234.474   2
   5   1   5 2041.98 252.988   8
   5   1   5 2305.04 273.875   3
  -5  -1  -5 1980.65 261.703   1
  -5  -1  -5 2049.48 236.990   5
   5   1   6 26688.5 948.702   8
  -5  -1  -6 28087.9 961.239   1
   5   1   6 26332.6 927.674   2
  -5  -1  -6 25133.3 878.867   5
   5   1   6 27768.2 972.415   3
   5   1   7 36175.1 1154.14   8
  -5  -1  -7 36593.3 1150.64   1
   5   1   7 36073.8 1172.65   2
  -5  -1  -7 34460.3 1106.68   5
   5   1   7 38969.1 1202.18   3
  -5  -1  -8 636.785 181.775   1
  -5  -1  -8 682.759 187.721   5
   5   1   8 627.380 176.922   8
   5   1   8 702.358 189.267   2
   5   1   8 879.670 216.489   3
   5   1   9 389.729 151.810   3
   5   1   9 761.407 194.515   8
  -5  -1  -9 583.535 191.070   1
  -5  -1  -9 330.576 166.162   5
   5   1   9 963.957 254.260   2
  -5  -1 -10 8700.97 565.982   1
   5   1  10 8599.37 645.901   2
   5   1  10 9249.09 579.482   8
  -5  -1 -10 8659.89 602.197   5
   5   1  10 8339.31 592.129   3
   5   1  11 220.248 147.824   8
  -5  -1 -11 738.021 202.613   3
  -5  -1 -11 452.579 181.567   1
  -5  -1 -11 260.850 204.646   5
   5   1  11-10.7435 168.875   2
  -5  -1 -12 1900.53 333.304   5
   5   1  12 1954.42 369.560   2
  -5  -1 -13 2116.92 368.752   5
   5   1  13 2024.56 361.199   2
  -5  -2  13-154.459 221.042   6
  -5  -2  12 3671.48 509.370   6
  -5  -2  11 6908.09 671.466   6
   5   2 -10 1700.68 243.571   3
  -5  -2  10 1582.85 311.300   6
   5   2  -9 6276.46 446.526   3
  -5  -2   9 6648.24 600.265   6
   5   2  -8 26680.3 927.546   3
  -5  -2   8 28167.8 1190.09   6
  -5  -2   8 25287.9 893.889   1
  -5  -2   7 219.366 132.612   1
   5   2  -7 170.331 119.557   3
  -5  -2   7 123.807 137.519   6
  -5  -2   6 1335.54 208.759   1
   5   2  -6 1190.02 181.598   2
   5   2  -6 1073.57 200.095   3
  -5  -2   6 999.953 238.811   6
   5   2  -5 50755.7 1321.23   3
   5   2  -5 51123.2 1252.74   9
  -5  -2   5 52161.6 1526.12   6
  -5  -2   5 49456.3 1273.18   1
   5   2  -5 51739.8 1173.78   2
   5   2  -4 14994.9 646.972   3
   5   2  -4 15406.3 569.550   9
  -5  -2   4 15333.8 754.177   6
  -5  -2   4 15296.4 634.614   1
   5   2  -4 15280.4 519.919   2
   5   2  -3 10394.7 523.545   3
   5   2  -3 9559.15 406.607   9
  -5  -2   3 9480.75 573.571   6
  -5  -2   3 10715.4 526.349   1
   5   2  -3 10541.5 384.372   2
   5   2  -2 67030.9 1545.65   3
   5   2  -2 64658.3 1218.21   9
  -5  -2   2 66956.3 1511.26   1
  -5  -2   2 69830.6 1711.65   6
   5   2  -2 67240.0 1187.64   2
   5   2  -1 98598.4 1992.53   3
   5   2  -1 99847.4 1542.32   9
  -5  -2   1 100620. 1981.66   1
  -5  -2   1 103101. 2161.16   6
   5   2  -1 96105.6 1557.17   2
   5   2  -1 94374.5 1391.01   5
   5   2   0 1129.99 82.4700   9
   5   2   0 1305.39 216.007   3
  -5  -2   0 974.815 182.340   1
   5   2   0 1438.03 121.647   2
   5   2   0 1124.94 94.0999   5
   5   2   1 136548. 2530.85   3
  -5  -2  -1 136115. 2294.50  10
   5   2   1 140933. 2557.96   8
  -5  -2  -1 135428. 2525.46   1
   5   2   1 132539. 2122.87   2
   5   2   2 1126.05 131.879   2
  -5  -2  -2 1532.75 191.643  10
   5   2   2 1205.88 203.518   8
   5   2   2 1066.31 188.440   3
  -5  -2  -2 1258.25 198.317   1
   5   2   3 8828.99 510.900   3
   5   2   3 8498.62 263.327   9
   5   2   3 8969.78 504.350   8
  -5  -2  -3 9109.97 517.235   1
   5   2   3 9403.98 404.702   2
   5   2   4 60283.0 1471.54   8
  -5  -2  -4 60465.6 1480.25   1
   5   2   4 61125.3 1297.72   2
   5   2   4 61661.3 1492.85   3
   5   2   5 2696.16 285.059   8
   5   2   5 3156.20 319.190   3
  -5  -2  -5 2562.35 301.535   1
   5   2   5 3194.19 277.913   2
  -5  -2  -5 3254.65 292.250   5
   5   2   6 2661.15 306.323   3
   5   2   6 2925.25 309.334   8
  -5  -2  -6 3637.95 357.421   1
   5   2   6 3371.69 316.119   2
  -5  -2  -6 2785.11 288.546   5
  -5  -2  -7 28090.2 992.892   1
   5   2   7 27094.1 966.935   2
   5   2   7 25270.7 947.619   8
  -5  -2  -7 27258.8 947.926   5
   5   2   7 26583.2 985.648   3
   5   2   8 1909.35 253.495   8
  -5  -2  -8 1925.02 271.338   1
   5   2   8 1978.52 307.490   3
  -5  -2  -8 1962.27 277.794   5
   5   2   8 1752.53 266.128   2
   5   2   9 1723.67 279.955   3
   5   2   9 1587.90 255.624   8
  -5  -2  -9 1456.14 246.053   1
  -5  -2  -9 1100.66 223.778   5
   5   2   9 909.587 236.083   2
   5   2  10 4247.52 400.058   8
  -5  -2 -10 4300.48 405.770   1
   5   2  10 4033.67 426.583   2
  -5  -2 -10 3579.64 389.350   5
   5   2  10 4139.34 451.194   3
   5   2  11 375.805 213.102   3
   5   2  11 113.817 124.664   8
  -5  -2 -11 26.3859 140.838   1
  -5  -2 -11 92.1371 146.556   3
  -5  -2 -11 40.4028 152.529   5
   5   2  11-248.172 212.007   2
   5   2  12 2277.98 307.854   8
  -5  -2 -12 2592.68 329.906   1
  -5  -2 -12 2738.10 360.125   3
  -5  -2 -12 2789.80 391.622   5
   5   2  12 2706.17 404.454   2
   5   2  13 497.063 265.742   2
  -5  -3  12 674.400 279.135   6
  -5  -3  11 1368.24 378.432   6
  -5  -3  10 762.530 287.156   6
   5   3  -9 516.698 205.988   9
   5   3  -9 217.334 124.846   3
  -5  -3   9 199.929 211.765   6
   5   3  -9 198.637 110.613   4
   5   3  -8 316.047 177.195   9
   5   3  -8 89.3861 135.781   3
  -5  -3   8 273.970 234.917   6
   5   3  -8 64.8790 99.1687   4
   5   3  -7 2010.85 276.315   9
   5   3  -7 2407.49 274.088   3
  -5  -3   7 2639.96 383.967   6
  -5  -3   7 2603.21 267.100   1
   5   3  -7 2348.44 250.580   4
   5   3  -6 3894.83 327.407   3
   5   3  -6 3670.78 334.555   9
  -5  -3   6 3359.90 288.899   1
  -5  -3   6 3399.21 404.459   6
   5   3  -5 7858.55 453.040   3
   5   3  -5 7502.69 447.180   9
  -5  -3   5 8527.03 599.908   6
  -5  -3   5 7936.80 438.045   1
   5   3  -5 7357.81 259.023   5
   5   3  -4 16507.8 667.041   3
   5   3  -4 17122.8 639.162   9
  -5  -3   4 16434.1 812.881   6
  -5  -3   4 17207.9 642.759   1
   5   3  -4 14964.8 365.114   5
   5   3  -3 22450.5 783.518   3
   5   3  -3 22432.4 699.500   9
  -5  -3   3 22686.5 754.812   1
  -5  -3   3 23378.0 941.689   6
   5   3  -3 21360.2 440.435   5
   5   3  -3 22656.6 519.306   2
   5   3  -2 13942.2 592.146   3
   5   3  -2 13110.1 479.459   9
  -5  -3   2 13507.4 578.922   1
  -5  -3   2 13807.5 697.384   6
   5   3  -2 12614.8 300.065   2
   5   3  -1 9592.95 499.028   3
   5   3  -1 10068.8 502.123   8
  -5  -3   1 9191.73 481.274   1
  -5  -3   1 10613.2 599.497   6
   5   3  -1 8760.20 203.085   2
   5   3  -1 9397.81 287.837   5
   5   3   0 56008.4 1321.29   8
   5   3   0 54427.5 1320.28   3
  -5  -3   0 53358.9 1297.20   1
  -5  -3   0 51716.7 1427.22   6
   5   3   0 49640.5 801.779   2
   5   3   1 659.872 179.516   3
   5   3   1 699.234 78.0216   2
   5   3   2 52979.1 1364.69   3
   5   3   2 54293.2 1355.46   8
  -5  -3  -2 55446.8 1382.32   1
   5   3   2 53798.6 1010.07   2
  -5  -3  -3 15936.1 617.605  10
   5   3   3 16602.2 693.722   8
  -5  -3  -3 17241.1 726.689   1
   5   3   3 17501.2 529.638   2
   5   3   3 17246.1 725.701   3
  -5  -3  -4 2380.94 256.207  10
   5   3   4 2594.80 278.314   8
   5   3   4 2979.92 315.291   3
  -5  -3  -4 2238.07 282.928   1
   5   3   4 2526.27 217.652   2
  -5  -3  -5 7964.41 483.334  10
   5   3   5 7926.78 491.233   8
  -5  -3  -5 7599.06 504.655   1
   5   3   5 8005.43 420.919   2
   5   3   5 7520.68 505.902   3
  -5  -3  -6 50848.4 1395.96  10
   5   3   6 51373.3 1410.76   8
  -5  -3  -6 51132.3 1432.58   1
   5   3   6 52481.3 1300.15   2
   5   3   6 51608.4 1443.98   3
   5   3   7 7598.46 513.161   8
  -5  -3  -7 8030.84 528.943   1
   5   3   7 8101.48 497.463   2
  -5  -3  -7 6979.00 486.826  10
   5   3   7 7652.18 545.388   3
  -5  -3  -8 24.7436 133.169  10
   5   3   8 29.1035 174.613   3
   5   3   8 64.2478 136.852   8
  -5  -3  -8 127.290 143.936   1
   5   3   8 30.2361 137.435   2
  -5  -3  -9 9198.96 608.578  10
   5   3   9 9452.13 594.661   8
  -5  -3  -9 8693.57 591.889   1
   5   3   9 9218.85 592.208   2
   5   3   9 8084.80 596.116   3
  -5  -3 -10 1525.17 249.929  10
   5   3  10 1567.70 301.841   3
   5   3  10 1531.54 270.912   8
  -5  -3 -10 1994.93 320.908   1
   5   3  10 2014.08 315.320   2
  -5  -3 -11 2930.04 386.754  10
   5   3  11 3014.64 417.653   3
   5   3  11 3580.73 384.856   8
  -5  -3 -11 3980.87 427.651   1
  -5  -3 -11 2941.53 378.460   3
   5   3  11 2897.11 396.317   2
  -5  -3 -12 1262.49 277.387  10
   5   3  12 1122.42 302.159   3
  -5  -3 -12 631.046 239.346   1
  -5  -3 -12 1131.94 259.885   3
   5   3  12 1227.04 243.964   8
  -5  -3 -13 505.727 189.782  10
   5   3  13 602.529 216.725   8
  -5  -3 -13 902.021 255.700   1
  -5  -3 -13 697.915 238.724   3
  -5  -4  12-31.0136 260.786   6
   5   4 -11 230.082 209.151   9
  -5  -4  11 108.775 212.013   6
   5   4 -10-102.911 191.470   9
  -5  -4  10 59.9705 249.930   6
   5   4 -10 153.343 100.143   4
   5   4  -9 717.720 231.373   9
  -5  -4   9 973.875 330.105   6
   5   4  -9 750.722 146.579   4
   5   4  -8 2313.21 319.618   9
  -5  -4   8 1673.41 356.155   6
   5   4  -8 2066.21 212.377   4
   5   4  -7 1164.06 244.478   9
   5   4  -7 1272.78 190.638   3
  -5  -4   7 1344.47 293.816   6
   5   4  -7 1403.46 177.628   4
   5   4  -6 2641.45 278.072   3
   5   4  -6 3011.46 326.739   9
  -5  -4   6 2656.13 246.133   1
  -5  -4   6 2959.70 401.783   6
   5   4  -6 3181.79 223.834   5
   5   4  -5 15756.1 636.469   3
   5   4  -5 15593.9 691.507   9
  -5  -4   5 16220.0 867.212   6
  -5  -4   5 15573.9 598.071   1
   5   4  -5 15841.6 487.235   5
   5   4  -4 6122.37 397.838   3
   5   4  -4 6285.18 417.504   9
  -5  -4   4 6971.80 549.113   6
  -5  -4   4 6782.38 386.531   1
   5   4  -3 15566.1 631.778   3
  -5  -4   3 15566.0 608.839   1
  -5  -4   3 15592.6 799.733   6
   5   4  -2 54262.6 1321.31   3
   5   4  -2 55912.5 1310.55   8
  -5  -4   2 53966.1 1289.58   1
  -5  -4   2 54981.8 1569.61   6
   5   4  -1 65.9603 100.091   8
   5   4  -1 216.193 114.069   3
  -5  -4   1 82.4748 96.5476   1
  -5  -4   1 99.1237 149.051   6
   5   4   0 58448.9 1401.36   3
   5   4   0 57546.8 1379.80   8
  -5  -4   0 57059.1 1382.32   1
  -5  -4   0 58287.4 1555.20   6
   5   4   1 123800. 2332.01   8
  -5  -4  -1 124937. 2369.35   1
   5   4   1 117128. 2342.95   3
   5   4   2 1803.80 244.527   3
   5   4   2 2193.83 259.774   8
  -5  -4  -2 1950.23 254.435   1
  -5  -4  -3 50273.2 1349.82   1
   5   4   3 51854.8 1344.70   8
   5   4   3 50525.0 1365.19   3
   5   4   4 95287.2 2041.67   8
  -5  -4  -4 92143.7 2084.35   1
   5   4   4 97667.9 2094.36   3
   5   4   5 2799.51 330.440   3
  -5  -4  -5 2754.56 317.481   1
   5   4   5 2927.48 325.692   8
   5   4   6 74.8739 166.439   3
  -5  -4  -6 424.522 198.220   1
   5   4   7 59981.0 1611.08   1
  -5  -4  -7 62544.7 1667.62   1
   5   4   7 61239.8 1685.87   3
  -5  -4  -8 80.0458 116.427  10
   5   4   8 60.7701 171.290   3
   5   4   8 207.765 172.721   1
  -5  -4  -8-152.945 198.622   1
   5   4   8 9.96426 84.0184   7
  -5  -4  -9 3400.17 371.833  10
   5   4   9 2790.56 389.256   3
  -5  -4  -9 3542.51 400.011   1
   5   4   9 3679.69 393.050   1
  -5  -4 -10 22416.7 994.745  10
  -5  -4 -10 24270.7 1028.55   3
  -5  -4 -10 23295.4 1041.72   1
   5   4  10 23213.5 981.010   1
   5   4  10 24643.1 1102.06   3
  -5  -4 -11 984.506 239.783  10
  -5  -4 -11 1281.23 268.691   1
  -5  -4 -11 1077.97 255.157   3
   5   4  11 1452.14 321.304   3
   5   4  11 1099.95 254.195   1
  -5  -4 -12 545.748 210.056  10
   5   4  12 720.554 298.483   3
  -5  -4 -12 1100.64 260.969   1
  -5  -4 -12 1101.66 278.783   3
  -5  -4 -13 4304.94 477.843  10
  -5  -4 -13 6012.36 545.790   1
  -5  -4 -13 4401.29 515.130   3
   5   4  13 4813.29 563.343   3
   5   4  14-78.3725 191.980   8
  -5  -4 -14 381.788 201.977   1
  -5  -4 -14 501.399 273.092   3
  -5  -5  11 1047.50 331.892   6
   5   5 -11 546.567 227.068   9
   5   5 -11 870.105 151.815   4
   5   5 -10 702.594 257.675   9
  -5  -5  10 903.318 319.127   6
   5   5 -10 630.348 132.538   4
   5   5  -9 2282.57 339.307   9
  -5  -5   9 2956.08 469.839   6
   5   5  -9 2596.05 222.154   4
   5   5  -8 11510.1 723.869   9
  -5  -5   8 11134.6 851.827   6
   5   5  -8 11505.4 465.058   4
   5   5  -7 217.148 139.126   9
  -5  -5   7-53.7492 216.663   6
   5   5  -7 92.5047 83.9617   4
   5   5  -6 1414.10 250.968   9
   5   5  -6 1172.69 194.308   3
  -5  -5   6 1543.37 332.950   6
   5   5  -6 1295.49 172.190   5
   5   5  -5 26641.0 829.223   3
   5   5  -5 27779.9 996.120   9
  -5  -5   5 28254.6 1199.00   6
  -5  -5   5 27026.6 783.029   1
   5   5  -5 25441.5 749.902   5
   5   5  -4 9340.94 463.843   3
  -5  -5   4 8384.40 425.236   1
  -5  -5   4 9658.56 668.786   6
   5   5  -3 3797.42 301.172   3
  -5  -5   3 3913.49 298.188   1
  -5  -5   3 3477.33 392.940   6
   5   5  -2 76181.1 1640.38   3
  -5  -5   2 75740.0 1596.89   1
  -5  -5   2 78599.0 1971.41   6
   5   5  -2 73335.2 1585.65   8
   5   5  -1 73145.6 1566.36   8
  -5  -5   1 70647.7 1575.38   1
  -5  -5   1 70085.2 1830.66   6
   5   5  -1 68143.1 1572.60   3
   5   5   0 13117.5 588.473   8
  -5  -5   0 12982.2 596.626   1
  -5  -5   0 12954.9 693.518   6
   5   5   0 13122.7 600.231   3
  -5  -5  -1 106301. 2139.24   1
  -5  -5  -1 104012. 2295.64   6
   5   5   1 108265. 2122.88   8
   5   5   1 103165. 2148.58   3
  -5  -5  -2 40096.6 1183.42   1
   5   5   2 39007.7 1132.16   8
   5   5   2 40992.9 1184.33   3
  -5  -5  -3 1113.35 212.115   1
   5   5   3 1029.39 218.339   3
   5   5   4 60123.5 1523.67   1
  -5  -5  -4 61071.4 1594.35   1
   5   5   4 61701.3 1588.19   3
  -5  -5  -5 26776.2 1011.82   1
   5   5   5 27903.0 1038.40   3
   5   5   6 10715.4 599.589   1
  -5  -5  -6 10036.7 639.428   1
   5   5   6 10368.8 536.940   7
  -5  -5  -7 32767.0 1177.12   1
   5   5   7 29327.6 1148.21   3
   5   5   8 10916.6 657.200   1
   5   5   8 9055.40 496.442   7
  -5  -5  -8 10858.0 699.370   1
   5   5   8 9681.67 674.335   3
   5   5   9 368.258 240.002   3
   5   5   9 980.175 221.202   1
  -5  -5  -9 947.256 250.560   1
  -5  -5  -9 585.130 196.585   3
  -5  -5 -10 9471.16 663.916   3
   5   5  10 10155.0 655.421   1
  -5  -5 -10 10059.5 704.324   1
   5   5  10 7906.80 657.593   3
  -5  -5 -11 5530.57 530.163   3
   5   5  11 4465.01 543.416   3
   5   5  11 4354.12 456.630   1
  -5  -5 -11 4674.42 498.088   1
   5   5  12 297.571 259.197   3
  -5  -5 -12 17.2039 189.633   1
  -5  -5 -12 235.465 201.128   3
   5   5  12 123.396 168.592   1
  -5  -5 -13 1226.40 313.011   1
   5   5  13 427.432 224.287   1
  -5  -5 -13 694.635 220.207   3
  -5  -5 -14 1068.74 281.592   1
  -5  -5 -14 1217.75 307.898   3
   5   5  14 852.409 256.093   1
  -5  -6  11 3048.29 516.988   6
   5   6 -11 2414.24 222.319   4
   5   6 -10 2077.76 373.012   9
  -5  -6  10 2035.22 421.482   6
   5   6 -10 2165.52 194.031   4
   5   6  -9 152.650 183.536   7
  -5  -6   9 243.324 244.672   6
   5   6  -9-108.196 179.539   9
   5   6  -9-46.5996 58.7102   4
   5   6  -8 2666.14 363.774   7
  -5  -6   8 2320.67 418.797   6
   5   6  -8 2565.58 383.720   9
   5   6  -8 2415.87 195.223   4
   5   6  -7 11688.1 732.120   9
  -5  -6   7 11841.1 863.340   6
   5   6  -6 149.000 158.388   9
  -5  -6   6 257.139 191.067   6
   5   6  -6 71.3578 88.3337   5
  -5  -6   5 6477.60 588.031   6
   5   6  -5 5503.93 353.106   3
  -5  -6   4 26830.6 784.794   1
  -5  -6   4 28788.7 1207.52   6
   5   6  -4 26461.9 838.211   3
   5   6  -3 1516.57 202.214   3
   5   6  -3 1332.55 181.501   8
  -5  -6   3 1104.79 164.849   1
  -5  -6   3 1166.98 263.702   6
   5   6  -2 39062.4 1046.01   8
  -5  -6   2 39973.1 1067.46   1
  -5  -6   2 37334.3 1339.21   6
   5   6  -2 39462.9 1089.95   3
   5   6  -1 37360.0 1041.42   8
  -5  -6   1 35724.5 1052.85   1
  -5  -6   1 37622.3 1297.03   6
   5   6  -1 37685.8 1087.19   3
   5   6   0 6859.59 423.871   8
  -5  -6   0 7073.01 456.042   1
  -5  -6   0 7190.78 528.260   6
   5   6   0 7702.58 469.399   3
   5   6   1 1148.51 219.347   3
  -5  -6  -1 789.046 208.607   1
   5   6   1 953.851 187.945   8
  -5  -6  -1 1208.46 230.836   6
  -5  -6  -2 39682.3 1196.66   1
  -5  -6  -2 38576.2 1260.22   6
   5   6   2 38854.1 1193.98   3
   5   6   3 1701.96 275.456   3
  -5  -6  -3 1889.86 282.626   1
   5   6   3 1492.32 235.497   1
   5   6   4 524.653 186.561   1
   5   6   4 375.665 183.576   3
  -5  -6  -4 428.580 216.096   1
   5   6   4 86.6862 138.056   7
   5   6   5 38530.5 1231.20   1
  -5  -6  -5 39540.4 1318.52   1
   5   6   5 39314.9 1176.45   7
   5   6   5 39349.6 1303.58   3
   5   6   6-12.3683 168.899   3
  -5  -6  -6-151.944 165.939   1
   5   6   6-124.190 132.490   7
   5   6   6 85.9694 155.395   1
   5   6   7 2142.89 361.639   3
  -5  -6  -7 1977.78 339.477   1
   5   6   7 1753.48 259.078   7
   5   6   7 2128.67 311.262   1
  -5  -6  -8 17586.3 852.338   3
   5   6   8 17134.8 855.580   1
  -5  -6  -8 16142.3 884.171   1
   5   6   8 16225.4 714.060   7
   5   6   8 15165.1 906.671   3
  -5  -6  -9 232.236 199.653   1
   5   6   9 216.870 150.283   1
  -5  -6  -9 1.30158 162.544   3
   5   6   9 248.593 208.930   3
   5   6  10 143.973 208.272   3
  -5  -6 -10 385.698 233.746   1
   5   6  10 330.743 176.459   1
  -5  -6 -10 194.580 181.237   3
   5   6  11 452.743 251.924   3
  -5  -6 -11 11.2828 195.459   1
  -5  -6 -11 380.393 260.179   3
   5   6  11 50.0781 197.754   1
  -5  -6 -12 109.940 196.417   1
  -5  -6 -12 372.349 246.553   3
   5   6  12-49.6136 191.168   1
   5   6  12-1.87764 216.500   3
  -5  -6 -13 427.742 279.383   1
  -5  -6 -13 210.050 175.429   3
   5   6  13 1.57512 180.308   1
   5   6  14 228.452 172.776   1
  -5  -6 -14 49.6626 189.510   1
  -5  -6 -14-122.724 211.786   3
  -5  -7  10 667.887 331.285   6
   5   7 -10 365.666 79.2276   4
   5   7  -9 1024.24 289.024   9
   5   7  -9 1227.19 129.528   4
   5   7  -8 1012.42 283.032   9
   5   7  -8 703.729 239.078   7
  -5  -7   8 694.270 300.823   6
   5   7  -7 1736.00 324.405   9
   5   7  -7 1542.86 305.792   7
  -5  -7   7 2148.70 426.158   6
   5   7  -7 1619.59 240.201   5
   5   7  -6 128.717 147.054   7
  -5  -7   6 109.335 173.330   6
   5   7  -5 465.265 196.115   7
  -5  -7   5 5.16899 182.809   6
   5   7  -4 10754.8 679.017   7
  -5  -7   4 11834.5 791.118   6
   5   7  -4 10925.6 512.571   3
   5   7  -3 103.349 111.248   3
   5   7  -3 210.279 104.466   8
   5   7  -3 61.5719 153.105   7
  -5  -7   3-86.1847 90.7671   1
  -5  -7   3 139.048 179.684   6
   5   7  -2 36278.9 995.358   8
   5   7  -2 35739.7 1238.58   7
  -5  -7   2 34339.5 992.722   1
  -5  -7   2 34477.1 1307.30   6
   5   7  -2 34839.0 1038.49   3
   5   7  -1 13773.2 603.473   8
   5   7  -1 14127.2 752.570   7
  -5  -7   1 13401.5 608.905   1
  -5  -7   1 13712.4 777.179   6
   5   7  -1 12694.2 609.351   3
  -5  -7   0 2563.85 290.045   1
   5   7   0 2255.94 310.264   7
   5   7   0 2662.73 278.814   8
   5   7   0 2715.55 299.348   3
  -5  -7   0 2993.28 356.500   6
   5   7   1 45689.7 1267.90   1
   5   7   1 45109.9 1388.67   7
  -5  -7  -1 48040.7 1461.01   6
   5   7   1 45174.6 1315.86   3
   5   7   2 1374.77 250.994   3
   5   7   2 919.649 212.285   1
  -5  -7  -2 845.568 232.015   1
   5   7   2 1017.58 229.271   7
  -5  -7  -2 1352.83 257.997   6
   5   7   3 2553.70 312.606   3
  -5  -7  -3 2780.41 325.431   1
   5   7   3 2584.42 309.029   7
  -5  -7  -3 3008.86 340.196   6
   5   7   3 2504.54 305.329   1
   5   7   4 7175.15 519.822   7
  -5  -7  -4 7316.48 516.621   6
   5   7   4 6847.47 500.462   1
   5   7   4 7818.96 581.990   3
   5   7   5 404.701 190.743   3
   5   7   5 510.467 180.776   1
  -5  -7  -5 454.329 131.338   2
  -5  -7  -5 428.349 225.479   1
   5   7   5 386.114 170.068   7
   5   7   6 1605.45 286.634   1
   5   7   6 630.418 236.063   3
  -5  -7  -6 1215.82 279.225   1
   5   7   6 942.538 219.348   7
  -5  -7  -6 1055.19 224.589   3
  -5  -7  -7 13916.7 778.354   3
   5   7   7 12607.5 758.089   1
  -5  -7  -7 13524.3 814.192   1
   5   7   7 13383.1 701.232   7
   5   7   7 15259.2 859.283   3
   5   7   8 64.8905 181.429   1
   5   7   8 247.462 187.690   3
  -5  -7  -8-144.153 191.126   1
   5   7   8 87.7579 134.880   7
  -5  -7  -8-54.4994 159.883   3
   5   7   9 1491.57 291.737   1
   5   7   9 1268.99 347.262   3
  -5  -7  -9 1719.47 379.265   1
   5   7   9 1763.67 267.995   7
  -5  -7  -9 2085.98 346.084   3
   5   7  10 6444.08 630.659   3
   5   7  10 5723.56 543.061   1
  -5  -7 -10 5950.35 598.335   1
  -5  -7 -10 6478.01 579.551   3
   5   7  11 988.272 262.133   1
  -5  -7 -11 1061.63 318.187   1
  -5  -7 -11 1074.52 279.977   3
   5   7  11 418.256 308.615   3
   5   7  12 2063.34 376.311   1
  -5  -7 -12 2558.57 435.953   1
  -5  -7 -12 2574.68 404.756   3
   5   7  13 3507.24 463.443   1
  -5  -7 -13 3834.59 534.952   1
  -5  -7 -13 3771.49 490.423   3
  -5  -8   9 138.998 247.238   6
   5   8  -8 3132.94 464.093   9
   5   8  -8 2795.10 409.531   7
  -5  -8   8 3081.75 502.421   6
   5   8  -7-107.930 168.982   9
   5   8  -7-57.7808 129.392   5
   5   8  -6-71.3041 154.681   7
  -5  -8   6 299.603 229.584   6
   5   8  -5 3734.40 453.285   7
  -5  -8   5 4834.45 551.500   6
   5   8  -4 4403.41 464.007   7
  -5  -8   4 6046.48 600.410   6
   5   8  -3 132.395 183.743   7
  -5  -8   3 579.435 258.341   6
   5   8  -2 972.003 200.377   3
   5   8  -2 421.461 121.539   8
  -5  -8   2 331.516 134.476   1
   5   8  -2 678.665 227.217   7
  -5  -8   2 485.112 171.247   6
   5   8  -1 16713.9 682.404   8
   5   8  -1 17447.3 881.276   7
  -5  -8   1 16713.3 887.137   6
   5   8  -1 17863.2 759.007   3
   5   8   0 2136.70 259.674   1
   5   8   0 1861.12 274.065   3
  -5  -8   0 1362.04 252.608   1
   5   8   0 1371.42 298.828   7
  -5  -8   0 1888.35 316.465   6
   5   8   1 14111.6 676.803   1
   5   8   1 14146.8 786.428   7
  -5  -8  -1 15132.4 797.699   6
   5   8   1 14353.9 729.967   3
   5   8   2 5555.14 432.930   1
   5   8   2 5519.72 496.401   7
  -5  -8  -2 5818.11 491.704   6
   5   8   2 6375.09 490.241   3
   5   8   3 37.3151 153.254   3
   5   8   3 2.13044 152.836   1
  -5  -8  -3-243.097 167.990   1
   5   8   3 70.7349 179.358   7
  -5  -8  -3-89.6043 130.041   6
  -5  -8  -4 21026.1 889.996   3
   5   8   4 19306.5 883.955   1
   5   8   4 19093.9 903.288   7
  -5  -8  -4 21819.1 917.316   6
   5   8   4 19452.7 954.541   3
  -5  -8  -5 12346.0 697.083   3
   5   8   5 12172.9 728.207   1
   5   8   5 11190.8 687.211   7
  -5  -8  -5 11902.7 673.948   6
   5   8   5 11706.6 749.144   3
   5   8   6 295.928 225.666   3
  -5  -8  -6 373.402 218.340   1
   5   8   6 152.796 136.821   7
  -5  -8  -6 92.4218 171.416   3
   5   8   6 261.627 197.257   1
  -5  -8  -7 11170.5 708.850   3
   5   8   7 11031.1 722.486   1
   5   8   7 10928.0 689.580   7
  -5  -8  -7 11308.6 597.862   2
   5   8   7 11031.3 796.186   3
  -5  -8  -8 9738.61 685.024   3
   5   8   8 11012.1 665.456   7
   5   8   8 9455.25 699.729   1
   5   8   8 8797.11 707.489   3
   5   8   9 1086.34 318.311   3
  -5  -8  -9 1343.18 322.695   1
   5   8   9 1362.48 261.373   7
  -5  -8  -9 1429.57 314.606   3
   5   8   9 1175.89 301.263   1
  -5  -8 -10 9002.98 696.239   3
   5   8  10 9334.25 710.609   1
  -5  -8 -10 8329.71 725.385   1
   5   8  10 8228.79 754.199   3
  -5  -8 -11 5513.12 568.089   3
   5   8  11 5358.77 588.281   1
  -5  -8 -11 4147.05 548.428   1
  -5  -8 -12 7.85829 247.786   1
  -5  -8 -12 341.716 261.330   3
   5   8  12-210.629 199.003   1
   5   8  13 1206.08 305.567   1
  -5  -8 -13 1157.04 359.143   1
  -5  -8 -13 1059.81 303.532   3
  -5  -9   8 1472.96 398.354   6
   5   9  -7 1954.41 381.114   7
  -5  -9   7 2834.66 487.040   6
   5   9  -7 2619.48 348.491   5
   5   9  -6 505.918 205.045   7
  -5  -9   6 470.784 245.205   6
   5   9  -5 1595.48 321.333   7
  -5  -9   5 1429.64 321.589   6
   5   9  -4 4390.61 487.618   7
  -5  -9   4 4057.25 522.085   6
   5   9  -3 267.922 191.703   7
  -5  -9   3 475.671 191.962   6
   5   9  -2 5493.76 541.694   7
  -5  -9   2 5838.53 566.225   6
   5   9  -1 8685.89 661.373   7
  -5  -9   1 8598.93 654.233   6
   5   9  -1 9916.65 588.588   3
   5   9   0 2413.45 320.016   3
  -5  -9   0 1985.79 315.857   1
   5   9   0 2361.29 363.865   7
  -5  -9   0 2272.26 279.275   3
  -5  -9   0 2306.52 341.544   6
   5   9   0 2227.76 283.014   1
   5   9   1 203.629 151.634   3
  -5  -9  -1 184.610 153.363   1
   5   9   1 208.307 181.757   7
  -5  -9  -1 531.993 163.383   3
  -5  -9  -1-164.193 189.741   6
   5   9   1 133.273 119.715   1
  -5  -9  -2 17763.8 811.635   3
   5   9   2 18396.2 831.957   1
   5   9   2 18692.1 955.942   7
  -5  -9  -2 18883.7 904.571   6
   5   9   2 19704.8 906.642   3
   5   9   3 336.120 192.516   1
   5   9   3 663.362 212.130   3
  -5  -9  -3 221.832 191.237   1
   5   9   3 257.691 198.608   7
  -5  -9  -3 724.810 219.419   3
  -5  -9  -3 509.264 172.801   6
   5   9   4 105.070 184.741   3
  -5  -9  -4 139.160 154.520   1
   5   9   4-68.1208 168.105   7
  -5  -9  -4 41.6536 154.729   3
  -5  -9  -4 40.0239 139.445   6
   5   9   4-23.6438 143.836   1
  -5  -9  -5 5490.78 492.367   3
   5   9   5 6728.17 558.015   1
  -5  -9  -5 5186.23 560.666   1
   5   9   5 5766.27 526.684   7
  -5  -9  -5 6034.23 489.670   6
   5   9   5 6075.76 546.684   3
   5   9   6 1721.95 371.233   3
   5   9   6 2262.90 340.056   7
  -5  -9  -6 2543.79 361.345   3
   5   9   6 2793.34 396.448   1
  -5  -9  -6 2113.77 296.041   6
   5   9   7 3980.68 489.951   3
   5   9   7 3259.57 403.378   7
  -5  -9  -7 4684.05 499.258   3
  -5  -9  -7 5059.97 444.812   6
   5   9   7 3820.37 462.774   1
  -5  -9  -8 8279.06 662.071   3
   5   9   8 8138.26 688.946   1
   5   9   8 7692.96 616.233   7
   5   9   8 8623.05 734.421   3
   5   9   9 206.775 174.032   7
  -5  -9  -9-81.4851 197.149   3
   5   9   9 214.271 206.438   1
  -5  -9 -10 150.459 149.322   2
  -5  -9 -10 450.812 224.430   3
   5   9  10 268.515 180.427   1
  -5  -9 -11 2230.89 344.953   2
  -5  -9 -11 2627.81 446.211   3
   5   9  11 2394.62 440.294   1
  -5  -9 -12 226.374 296.560   1
  -5  -9 -12 58.1174 218.519   3
   5   9  12 206.969 222.570   1
   5  10  -6 1905.56 379.888   7
  -5 -10   6 2039.99 427.872   6
   5  10  -5-63.1578 189.625   7
  -5 -10   5-184.879 239.641   6
   5  10  -4 1715.86 333.041   7
  -5 -10   4 2273.81 377.019   6
   5  10  -3 1347.08 327.888   7
  -5 -10   3 1615.17 351.033   6
   5  10  -2-169.209 220.801   7
  -5 -10   2 384.499 221.800   6
   5  10  -1 774.191 244.904   7
  -5 -10   1 1080.00 244.650   6
   5  10   0 3210.01 338.205   1
   5  10   0 3128.22 355.758   3
   5  10   0 2346.05 390.810   7
  -5 -10   0 2682.70 380.693   6
   5  10   1 132.425 187.906   3
  -5 -10  -1 454.533 209.250   1
   5  10   1 18.0696 174.482   7
   5  10   1 96.5456 143.054   1
  -5 -10  -1 197.122 149.775   3
  -5 -10  -1 105.644 175.372   6
   5  10   2 6596.51 520.743   1
  -5 -10  -2 5310.07 549.762   1
   5  10   2 6836.97 624.935   7
  -5 -10  -2 6110.37 519.430   6
  -5 -10  -2 6688.27 511.054   3
   5  10   2 7702.22 598.327   3
   5  10   3 1201.18 306.219   3
  -5 -10  -3 836.854 267.515   1
   5  10   3 1068.24 286.683   7
  -5 -10  -3 769.462 207.612   3
  -5 -10  -3 1182.12 247.739   6
   5  10   3 1353.51 279.992   1
   5  10   4 415.456 226.428   3
  -5 -10  -4 230.264 237.473   1
   5  10   4 115.748 218.947   7
  -5 -10  -4 693.014 237.189   3
  -5 -10  -4 297.070 151.715   6
   5  10   4 809.721 231.538   1
  -5 -10  -5 5851.39 534.479   3
   5  10   5 5321.01 514.901   1
   5  10   5 5904.73 568.615   7
  -5 -10  -5 5925.37 483.270   6
   5  10   5 5734.60 562.343   3
   5  10   6-186.141 222.753   7
  -5 -10  -6 281.834 215.995   3
   5  10   6-47.9155 212.674   1
  -5 -10  -6 44.8318 106.589   6
   5  10   7 339.108 225.643   7
   5  10   7 269.124 217.662   1
  -5 -10  -7 415.135 173.042   3
   5  10   8 312.981 240.382   7
   5  10   8 447.942 295.474   1
  -5 -10  -8-210.097 235.442   3
   5  10   9 615.842 264.562   7
   5  10   9 817.739 303.138   1
  -5 -10  -9 347.516 217.386   3
  -5 -10 -10 994.514 306.333   3
   5  10  10 925.506 317.008   1
  -5 -10 -11 128.433 230.732   3
   5  10  11-35.5464 213.412   1
   5  11  -4 207.553 238.050   7
  -5 -11   4 263.650 241.943   6
   5  11  -3-336.675 221.835   7
  -5 -11   3 58.9602 198.698   6
   5  11  -2 638.737 270.243   7
  -5 -11   2 673.594 256.625   6
   5  11  -1 169.728 258.718   7
  -5 -11   1 85.2250 179.693   6
   5  11   0 1755.12 387.862   7
  -5 -11   0 2247.34 348.860   6
   5  11   1 231.718 194.148   1
   5  11   1-266.028 239.437   7
  -5 -11  -1 303.050 212.084   6
  -5 -11  -2 778.814 294.033   1
   5  11   2 639.082 257.623   7
  -5 -11  -2 1139.85 247.743   3
  -5 -11  -2 1000.65 238.456   6
   5  11   2 921.151 237.108   1
  -5 -11  -3 302.190 210.220   1
   5  11   3 1374.87 341.248   7
  -5 -11  -3 1037.37 244.322   3
  -5 -11  -3 1236.51 244.362   6
   5  11   3 808.882 243.644   1
   5  11   4 1408.74 357.136   7
  -5 -11  -4 1377.54 271.070   3
   5  11   4 1278.06 294.855   1
   5  11   5 118.851 213.836   7
   5  11   5 363.797 241.714   1
   5  11   6 133.281 253.419   7
   5  11   6 541.733 223.997   1
  -5 -11  -6 741.947 280.539   3
   5  11   7 160.757 202.241   1
   5  11   7 96.6036 212.873   7
  -5 -11  -7-316.643 227.927   3
   5  11   8 237.754 205.715   1
   5  11   8 674.154 254.261   7
  -5 -11  -8 689.311 286.067   3
   5  11   9 181.040 256.880   1
   5  11   9 484.426 245.962   7
  -5 -11  -9 295.232 194.684   3
   5  11  10 628.465 336.079   1
   5  12  -1 192.025 228.072   7
  -5 -12   1 267.826 161.369   6
   5  12   0 449.302 269.189   7
   5  12   1 66.7835 244.144   7
   5  12   2 734.733 304.878   7
   5  12   2 670.515 213.848   1
  -5 -12  -3 264.513 213.125   1
   5  12   3 207.464 218.193   7
   5  12   3 129.825 199.083   1
   5  12   4-224.638 317.818   7
  -5 -12  -4 283.234 182.991   3
   5  12   5 3938.03 546.192   7
  -5 -12  -5 3936.74 489.454   3
   5  12   5 3555.98 485.374   1
   5  12   6-133.490 163.449   1
  -5 -12  -6 179.200 239.459   3
   5  12   7 713.811 300.202   1
   5  12   7 869.701 315.222   7
  -5 -12  -7 843.177 300.964   3
   5  12   8 1206.28 346.446   1
   5  12   8 1412.78 414.335   7
  -5 -12  -8 479.068 264.044   3
   6  -6  -7-275.210 223.770   2
  -6   6   7 234.523 205.827   1
   6  -6  -6 999.928 258.220   2
  -6   6   6 1260.88 317.882   1
   6  -6  -6 1077.49 300.552   3
  -6   6   6 791.767 309.886   7
   6  -6  -5 1722.65 363.181   2
  -6   6   5 1503.03 329.875   1
   6  -6  -5 1862.91 398.436   3
  -6   6   5 1966.49 401.504   7
   6  -6  -4 131.542 183.018   2
  -6   6   4 612.398 258.927   1
   6  -6  -4 261.778 229.653   3
  -6   6   4 165.989 193.181   7
   6  -6  -3 6608.00 623.769   3
  -6   6   3 8514.83 752.330   7
   6  -6  -3 6957.08 647.712   2
  -6   6   3 6980.55 633.220   1
  -6   6   2 6728.15 656.917   7
   6  -6  -2 4609.38 515.960   3
   6  -6  -2 6374.83 617.557   2
  -6   6   2 5511.26 566.565   1
   6  -6  -1-285.429 270.069   2
  -6   6   1 118.598 184.868   1
   6  -6  -1-111.891 172.528   3
  -6   6   1 389.364 190.488   7
  -6   6   0 5773.50 609.993   7
   6  -6   0 5462.83 517.783   3
   6  -6   0 6000.34 591.159   2
  -6   6   0 6001.85 562.293   1
   6  -6   1 8700.60 646.466   3
  -6   6  -1 8061.26 714.763   7
   6  -6   1 8581.79 706.983   2
  -6   6  -1 9107.70 680.071   1
   6  -6   2-200.500 223.016   2
  -6   6  -2-9.11838 180.355   1
  -6   6  -2 17.7208 187.070   7
   6  -6   3 3022.23 436.942   2
  -6   6  -3 2792.77 383.447   1
  -6   6  -3 2963.78 413.567   7
  -6   5   8 6007.06 621.552   1
   6  -5  -8 6219.17 631.546   3
  -6   5   8 4970.09 580.550   7
   6  -5  -8 5400.74 574.696   2
   6  -5  -7 1301.61 304.732   2
  -6   5   7 1723.85 363.713   1
   6  -5  -7 2272.52 395.291   3
  -6   5   7 2399.98 441.045   7
   6  -5  -6 2150.14 358.595   2
   6  -5  -6 1906.90 354.079   3
  -6   5   6 2201.99 394.162   7
  -6   5   6 3063.75 449.578   1
   6  -5  -5 13158.1 876.279   3
  -6   5   5 13485.6 912.450   7
   6  -5  -5 13564.8 849.319   2
  -6   5   5 14050.7 886.855   1
   6  -5  -4 2855.87 411.407   2
  -6   5   4 3436.22 459.668   1
   6  -5  -4 2285.51 399.193   3
  -6   5   4 2824.11 427.106   7
   6  -5  -3 4598.34 497.550   2
   6  -5  -3 4802.54 511.805   3
  -6   5   3 4223.31 498.686   7
  -6   5   3 5134.75 533.596   1
   6  -5  -2 27439.6 1191.55   3
  -6   5   2 25743.3 1226.68   7
   6  -5  -2 24580.5 1143.73   2
  -6   5   2 27447.3 1187.77   1
   6  -5  -1 6975.08 592.793   3
  -6   5   1 7726.11 672.382   7
   6  -5  -1 6563.22 576.114   2
  -6   5   1 6761.57 586.414   1
  -6   5   0 3906.34 452.808   1
   6  -5   0 3662.34 440.866   2
   6  -5   0 3934.38 438.505   3
  -6   5   0 3348.07 447.094   7
   6  -5   1 20384.7 967.968   3
  -6   5  -1 18315.1 998.958   7
   6  -5   1 19578.0 1006.37   2
  -6   5  -1 19265.0 960.654   1
   6  -5   2 6028.27 517.311   3
  -6   5  -2 6030.36 559.165   7
   6  -5   2 6010.50 567.098   2
  -6   5  -2 6685.89 562.438   1
  -6   5  -3 2761.03 378.715   1
   6  -5   3 2135.88 366.104   2
  -6   5  -3 1902.95 332.670   7
  -6   5  -4 13989.7 819.458   7
   6  -5   4 15983.5 949.922   2
  -6   5  -4 14652.4 813.093   1
  -6   5  -4 13257.8 772.033   5
   6  -5   5 4299.75 523.823   2
  -6   5  -5 3244.74 385.366   1
  -6   5  -5 3438.07 418.863   5
   6  -5   6 630.100 256.453   2
  -6   5  -6 318.732 195.321   5
   6  -4 -10 998.832 286.364   2
  -6   4  10 1340.41 366.461   1
  -6   4  10 1384.52 329.604   7
   6  -4  -9 721.085 243.126   2
  -6   4   9 521.014 253.930   1
  -6   4   9 457.307 255.643   7
   6  -4  -8 4318.52 513.914   2
  -6   4   8 4808.26 536.679   1
   6  -4  -8 3900.56 481.143   3
  -6   4   8 4133.10 505.624   7
   6  -4  -7 9874.17 759.815   3
  -6   4   7 9820.78 761.240   7
   6  -4  -7 11063.1 755.724   2
  -6   4   7 10473.7 754.694   1
   6  -4  -6 346.838 180.442   2
  -6   4   6 253.651 205.373   1
   6  -4  -6-101.642 227.585   3
  -6   4   6 350.951 230.833   7
   6  -4  -5 6292.06 581.380   3
  -6   4   5 5506.52 574.010   7
  -6   4   5 6006.15 588.044   1
   6  -4  -5 5985.58 542.998   2
   6  -4  -4 10394.5 722.908   3
  -6   4   4 9540.09 734.824   7
  -6   4   4 10629.7 724.308   1
   6  -4  -4 10689.4 711.391   2
  -6   4   3 198.006 210.728   1
   6  -4  -3 213.836 168.383   2
   6  -4  -3 231.696 188.018   3
  -6   4   3-3.22581 181.960   7
   6  -4  -2 4961.16 498.340   3
  -6   4   2 6112.75 561.654   7
  -6   4   2 5395.25 504.724   1
   6  -4  -2 4905.63 476.084   2
   6  -4  -1 11718.8 746.095   3
  -6   4   1 13210.4 813.942   7
  -6   4   1 12161.9 745.618   1
   6  -4  -1 12291.8 736.606   2
  -6   4   0 29.9672 139.091   1
   6  -4   0-62.7739 161.390   2
   6  -4   0 16.0085 156.238   3
  -6   4   0-274.215 243.059   7
   6  -4   1 4841.19 469.981   3
  -6   4  -1 4533.25 466.832   7
  -6   4  -1 4989.99 474.793   1
   6  -4   1 4745.08 463.931   2
   6  -4   2 12628.0 728.458   3
  -6   4  -2 12112.7 749.721   7
  -6   4  -2 12386.2 743.646   1
   6  -4   2 12830.0 779.491   2
  -6   4  -3 98.8076 179.976   1
   6  -4   3 5.91169 189.916   2
   6  -4   3 61.2060 173.025   3
  -6   4  -3-26.2343 164.896   7
  -6   4  -3-193.384 173.114   5
   6  -4   4 3589.15 439.674   2
   6  -4   4 2923.70 368.486   3
  -6   4  -4 4257.02 426.212   1
  -6   4  -4 4115.02 436.727   7
  -6   4  -4 3104.09 359.719   5
  -6   4  -5 6248.51 513.896   7
   6  -4   5 7033.66 616.159   2
  -6   4  -5 7579.63 563.766   1
  -6   4  -5 7079.44 543.063   5
   6  -4   6 79.7235 182.647   2
  -6   4  -6 20.6046 134.594   5
  -6   4  -6 25.1657 128.484   1
   6  -4   7-14.3545 186.051   2
  -6   4  -7 37.1139 174.269   5
   6  -3 -10 4390.52 517.164   2
  -6   3  10 4425.00 540.802   1
   6  -3 -10 4991.81 581.222   3
  -6   3  10 4762.16 532.130   7
   6  -3  -9 404.453 238.727   2
  -6   3   9-34.0153 192.709   1
   6  -3  -9-180.755 198.094   3
  -6   3   9 70.3311 210.880   7
   6  -3  -8 1147.85 268.965   2
  -6   3   8 1092.46 284.635   1
   6  -3  -8 1059.54 282.714   3
  -6   3   8 1192.57 302.136   7
  -6   3   7 1382.94 300.292   1
   6  -3  -7 1410.07 286.164   2
   6  -3  -7 763.570 249.246   3
  -6   3   7 1711.66 354.438   7
  -6   3   6 951.029 257.688   1
   6  -3  -6 1155.82 261.391   2
  -6   3   6 733.856 234.028   7
   6  -3  -6 418.577 198.026   3
  -6   3   5-64.4020 197.504   1
   6  -3  -5 171.580 152.805   2
   6  -3  -5 162.175 177.592   3
  -6   3   5 381.808 235.240   7
   6  -3  -4 6206.69 545.988   3
  -6   3   4 6382.52 569.774   7
  -6   3   4 5263.71 488.798   1
   6  -3  -4 5932.38 502.674   2
  -6   3   3 337.786 180.358   1
   6  -3  -3 513.766 175.113   2
   6  -3  -3 174.588 198.991   3
  -6   3   3 460.487 236.023   7
   6  -3  -2 7069.95 557.751   3
  -6   3   2 8485.50 637.318   7
  -6   3   2 7815.94 590.480   1
   6  -3  -2 7266.72 548.020   2
   6  -3  -1 9042.73 623.156   3
  -6   3   1 8232.57 614.105   7
  -6   3   1 8306.29 594.375   1
   6  -3  -1 7836.00 557.312   2
   6  -3   0 11255.5 690.396   3
  -6   3   0 12206.1 742.393   7
  -6   3   0 12012.8 708.973   1
   6  -3   0 11327.0 675.184   2
   6  -3   1 9697.23 632.555   3
  -6   3  -1 9364.67 639.921   7
  -6   3  -1 9747.19 629.780   1
   6  -3   1 8232.73 584.962   2
   6  -3   2 796.610 226.226   2
   6  -3   2 549.589 195.854   3
  -6   3  -2 1062.75 246.038   7
  -6   3  -2 579.980 150.843   5
  -6   3  -2 865.705 230.677   1
   6  -3   3 3342.12 383.667   2
   6  -3   3 3112.82 369.476   3
  -6   3  -3 3816.62 393.607   7
  -6   3  -3 2942.90 310.030   5
  -6   3  -3 3353.52 377.301   1
   6  -3   4 7655.59 542.166   3
  -6   3  -4 8930.38 586.802   7
  -6   3  -4 7988.66 566.735   1
   6  -3   4 8698.64 616.152   2
  -6   3  -4 7843.36 529.974   5
   6  -3   5 40.4767 205.271   2
   6  -3   5 385.622 203.184   3
  -6   3  -5 557.889 200.870   7
  -6   3  -5 314.133 150.820   5
  -6   3  -5 306.007 159.621   1
   6  -3   6 3088.46 416.839   2
  -6   3  -6 2514.72 331.276   5
  -6   3  -6 2450.91 324.937   1
   6  -3   7 4632.41 502.364   2
  -6   3  -7 4095.81 436.821   5
  -6   3  -7 4267.45 407.812   1
   6  -3   8 235.707 208.204   2
  -6   3  -8 255.749 198.378   5
  -6   3  -9 1825.03 347.163   5
   6  -3   9 1824.68 387.192   2
   6  -2 -11 651.233 236.694   2
   6  -2 -11 602.250 172.090   3
  -6   2  11 770.320 262.092   1
   6  -2 -10 429.147 210.509   2
  -6   2  10 135.197 180.236   1
   6  -2 -10-41.0570 210.653   3
  -6   2  10-128.287 196.420   7
  -6   2   9 363.020 188.716   1
   6  -2  -9-27.5514 167.727   2
   6  -2  -9-191.902 248.493   3
  -6   2   9 96.6595 159.347   7
  -6   2   8 3785.37 441.809   1
   6  -2  -8 3275.67 411.493   2
   6  -2  -8 3710.08 455.994   3
  -6   2   8 3211.86 420.141   7
  -6   2   7 42.7633 175.674   1
   6  -2  -7 64.3446 158.754   2
   6  -2  -7 32.9038 161.725   3
  -6   2   7 251.677 158.950   7
  -6   2   6 932.676 252.087   1
   6  -2  -6 801.919 217.953   2
   6  -2  -6 353.234 194.544   3
  -6   2   6 577.374 267.703   7
   6  -2  -5 42386.4 1439.80   3
  -6   2   5 41108.4 1444.61   7
  -6   2   5 40560.3 1407.97   1
   6  -2  -5 41344.5 1324.41   2
   6  -2  -4 9782.32 659.868   3
  -6   2   4 8904.79 647.206   7
  -6   2   4 8554.98 529.937   6
  -6   2   4 9997.16 654.197   1
   6  -2  -4 9444.36 587.399   2
  -6   2   3-17.5753 165.039   1
   6  -2  -3 63.9896 133.098   2
   6  -2  -3-2.53332 174.966   3
  -6   2   3 65.5748 156.164   7
  -6   2   3-158.215 120.192   6
   6  -2  -2 38420.3 1324.43   3
  -6   2   2 38890.9 1355.55   7
  -6   2   2 38304.8 1195.91   6
  -6   2   2 40438.6 1331.48   1
   6  -2  -2 38682.7 1230.42   2
  -6   2   1 4360.93 440.214   7
   6  -2  -1 3617.44 391.422   3
   6  -2  -1 3697.21 364.003   2
  -6   2   1 3538.66 392.522   1
   6  -2   0 606.812 170.204   2
   6  -2   0 801.857 226.656   3
  -6   2   0 740.402 201.923   7
  -6   2   0 1312.82 256.331   1
   6  -2   1 34023.9 1186.74   3
  -6   2  -1 34609.4 1209.93   7
  -6   2  -1 34859.7 1197.29   1
   6  -2   1 34693.1 1148.29   2
   6  -2   2 11829.3 669.964   3
  -6   2  -2 12791.5 695.727   7
  -6   2  -2 13705.1 717.688   1
   6  -2   2 11552.0 656.747   2
  -6   2  -2 10854.8 526.261   5
   6  -2   3 3220.40 357.374   2
   6  -2   3 3375.90 375.873   3
  -6   2  -3 2812.18 322.991   7
  -6   2  -3 2614.93 273.662   5
  -6   2  -3 3069.78 355.161   1
   6  -2   4 45723.7 1375.86   3
  -6   2  -4 44355.8 1342.49   7
  -6   2  -4 46226.5 1396.33   1
   6  -2   4 45038.5 1428.26   2
  -6   2  -4 41998.3 1239.11   5
   6  -2   5 9390.91 593.124   3
  -6   2  -5 10958.1 605.336   7
  -6   2  -5 10675.7 637.358   1
   6  -2   5 9423.09 636.434   2
  -6   2  -5 9991.27 581.254   5
   6  -2   6 2942.84 381.593   2
   6  -2   6 2422.12 314.304   3
  -6   2  -6 2969.15 311.484   7
  -6   2  -6 3054.64 352.860   1
  -6   2  -6 3090.01 348.322   5
  -6   2  -7 29648.4 1098.54   1
   6  -2   7 30967.4 1243.35   2
  -6   2  -7 27448.4 1097.98   5
  -6   2  -8 5159.65 447.997   1
   6  -2   8 6214.57 572.616   2
  -6   2  -8 5857.53 525.847   5
  -6   2  -9 948.444 260.308   5
   6  -2   9-3.39605 183.714   2
   6  -2  10 6037.93 618.725   2
  -6   2 -10 8325.79 665.015   5
   6  -1 -11 1544.20 310.588   2
   6  -1 -11 1291.83 319.983   3
  -6   1  11 1543.74 292.409   1
   6  -1 -10 3078.27 411.437   2
  -6   1  10 3387.96 421.953   1
   6  -1 -10 2962.69 411.400   3
  -6   1   9 1009.94 261.161   1
   6  -1  -9 1672.08 291.803   2
   6  -1  -9 1399.90 313.111   3
  -6   1   8 5061.52 496.642   7
   6  -1  -8 5032.94 496.785   3
  -6   1   8 4611.08 472.140   1
   6  -1  -8 4834.03 456.418   2
   6  -1  -7 14498.2 811.519   3
  -6   1   7 14509.1 805.871   7
  -6   1   7 13190.7 724.462   6
  -6   1   7 14750.1 816.100   1
   6  -1  -7 15071.6 769.501   2
  -6   1   6 783.150 218.496   1
   6  -1  -6 1148.80 231.656   2
   6  -1  -6 607.096 229.474   3
  -6   1   6 1001.21 257.416   7
  -6   1   6 446.763 127.855   6
  -6   1   5 1573.05 270.215   1
   6  -1  -5 2123.12 269.041   2
   6  -1  -5 771.606 200.274   3
  -6   1   5 1990.43 313.539   7
  -6   1   5 3097.92 337.116   6
   6  -1  -4 17068.8 844.798   3
  -6   1   4 17977.0 874.573   7
  -6   1   4 18240.2 804.781   6
  -6   1   4 17710.6 854.863   1
   6  -1  -4 17484.5 753.191   2
   6  -1  -3 3436.58 317.254   2
   6  -1  -3 3176.01 370.061   3
  -6   1   3 2674.95 337.167   7
  -6   1   3 3961.88 395.960   1
  -6   1   3 3055.70 321.116   6
   6  -1  -2 34282.0 1198.85   3
  -6   1   2 35189.0 1227.40   7
  -6   1   2 33062.2 1122.66   6
  -6   1   2 35122.3 1196.93   1
   6  -1  -2 35790.2 1083.09   2
   6  -1  -1 72930.8 1850.53   3
  -6   1   1 72323.7 1850.72   7
  -6   1   1 72274.0 1840.79   1
   6  -1  -1 71805.7 1676.57   2
   6  -1   0 7161.07 521.932   3
  -6   1   0 6502.24 490.759   7
  -6   1   0 6757.97 501.619   1
   6  -1   0 5946.45 413.857   2
   6  -1   1 63021.7 1670.52   3
  -6   1  -1 64166.2 1665.07   7
  -6   1  -1 63417.6 1669.12   1
   6  -1   1 63141.0 1544.64   2
  -6   1  -1 59480.1 1279.20   5
   6  -1   2 63543.0 1659.62   3
  -6   1  -2 63484.0 1634.87   7
  -6   1  -2 62279.1 1663.26   1
   6  -1   2 62778.0 1575.40   2
  -6   1  -2 61350.5 1364.15   5
   6  -1   3 151.375 133.403   2
   6  -1   3 56.7455 131.241   3
  -6   1  -3 292.623 139.130   7
  -6   1  -3 524.383 185.834   1
  -6   1  -3 111.832 109.625   5
   6  -1   4 9491.43 587.965   3
  -6   1  -4 9422.18 544.475   7
  -6   1  -4 10053.7 607.453   1
   6  -1   4 9221.59 572.652   2
  -6   1  -4 9976.15 529.221   5
   6  -1   5 60592.7 1616.24   3
  -6   1  -5 58221.1 1480.01   7
  -6   1  -5 59252.2 1607.28   1
   6  -1   5 58929.7 1626.58   2
  -6   1  -5 56360.0 1485.97   5
   6  -1   6 214.344 186.080   2
   6  -1   6-16.6872 150.355   3
  -6   1  -6 645.718 205.769   1
  -6   1  -6 320.742 183.555   5
  -6   1  -7 8577.47 570.066   1
   6  -1   7 9010.19 626.433   2
  -6   1  -7 7856.76 551.424   5
   6  -1   7 8066.17 557.935   3
  -6   1  -8 23207.3 951.654   1
   6  -1   8 22655.6 1060.00   2
  -6   1  -8 22074.9 978.361   5
  -6   1  -9 110.301 139.402   1
  -6   1  -9 142.355 129.915   5
   6  -1   9 245.230 155.849   2
  -6   1 -10 211.411 198.400   5
   6  -1  10 1013.10 294.090   2
  -6   1 -11 4207.70 479.717   5
   6  -1  11 4992.83 566.577   2
   6   0 -12 740.594 227.383   3
   6   0 -11 921.262 246.409   2
   6   0 -11 630.813 253.238   3
  -6   0  11 815.563 271.020   6
   6   0 -10 5191.58 500.879   3
  -6   0  10 4889.31 505.583   6
  -6   0  10 5315.55 496.367   1
   6   0 -10 5049.57 481.086   2
   6   0  -9 5382.66 492.800   3
  -6   0   9 4745.39 490.758   6
  -6   0   9 4882.21 468.333   1
   6   0  -9 4419.26 440.308   2
  -6   0   8 274.949 162.391   1
   6   0  -8 346.819 177.501   2
  -6   0   8 284.372 169.453   6
   6   0  -7 9856.58 642.980   3
  -6   0   7 9379.17 628.437   6
  -6   0   7 10098.7 638.064   1
   6   0  -7 9599.37 578.491   2
   6   0  -6 5164.26 464.204   3
  -6   0   6 4846.63 443.867   6
  -6   0   6 4979.69 450.308   1
   6   0  -6 5626.39 421.039   2
   6   0  -5 9701.83 625.781   3
  -6   0   5 9327.36 620.097   7
  -6   0   5 9642.38 614.744   6
  -6   0   5 8622.81 582.140   1
   6   0  -5 9723.68 531.462   2
   6   0  -4 18592.4 852.983   3
  -6   0   4 17769.5 837.054   7
  -6   0   4 18517.3 836.429   6
  -6   0   4 18365.2 827.829   1
   6   0  -4 18326.6 717.958   2
   6   0  -3 3450.08 376.268   3
   6   0  -3 2623.76 256.765   2
  -6   0   3 2909.76 341.549   7
  -6   0   3 3146.41 345.810   6
  -6   0   3 3169.78 350.173   1
   6   0  -2 187.234 103.154   2
   6   0  -2 189.040 141.213   3
  -6   0   2 410.339 161.801   7
  -6   0   2 437.275 169.604   6
  -6   0   2 717.313 207.823   1
   6   0  -1 38503.1 1246.45   3
  -6   0   1 38375.3 1231.09   7
  -6   0   1 41371.1 1257.19   1
   6   0  -1 38992.9 1056.77   2
   6   0   0 16811.2 774.401   3
  -6   0   0 16099.2 755.777   7
  -6   0   0 16379.2 770.691   1
   6   0   0 17222.8 655.057   2
  -6   0  -1 4172.19 364.875   7
   6   0   1 3739.74 371.094   3
  -6   0  -1 4659.46 404.772   1
   6   0   1 4073.75 317.986   2
  -6   0  -1 3654.21 238.971   5
   6   0   2 47243.3 1370.69   3
  -6   0  -2 47208.9 1331.64   7
  -6   0  -2 48209.2 1387.73   1
   6   0   2 47565.2 1238.18   2
  -6   0  -2 45993.7 1080.33   5
   6   0   3 301.986 134.188   2
  -6   0  -3 247.997 141.939   7
   6   0   3 218.267 155.352   3
  -6   0  -3 365.237 144.614   1
  -6   0  -3 245.963 110.326   5
   6   0   4 645.444 171.895   2
   6   0   4 437.113 148.224   3
  -6   0  -4 681.432 184.675   1
  -6   0  -4 487.929 150.645   5
   6   0   5 14155.3 713.075   3
  -6   0  -5 15034.0 733.487   1
   6   0   5 14282.0 694.179   2
  -6   0  -5 14026.7 640.090   5
  -6   0  -6 4904.90 424.489   1
   6   0   6 4670.31 421.363   2
  -6   0  -6 4432.14 382.612   5
   6   0   6 4038.33 412.117   3
   6   0   7 1237.51 255.370   3
  -6   0  -7 1608.47 255.014   1
  -6   0  -7 1485.64 245.820   5
   6   0   7 1312.77 264.002   2
  -6   0  -8 7453.42 534.936   1
   6   0   8 7651.82 594.557   2
  -6   0  -8 6374.52 502.948   5
   6   0   8 8176.68 572.199   3
  -6   0  -9 316.939 142.711   1
  -6   0  -9 395.525 168.111   5
   6   0   9 348.976 207.480   2
  -6   0 -10 3193.47 368.249   1
  -6   0 -10 2402.02 351.917   5
   6   0  10 3313.70 426.917   2
  -6   0 -11 128.357 151.411   5
   6   0  11 494.861 275.163   2
  -6  -1  12 1032.93 310.224   6
   6   1 -11 199.478 168.335   3
  -6  -1  11 205.824 214.053   6
   6   1 -10-49.0878 166.677   3
  -6  -1  10 90.4479 167.191   6
   6   1  -9 8285.40 585.036   3
  -6  -1   9 7371.47 616.219   6
  -6  -1   9 8131.48 558.204   1
   6   1  -8 6078.43 497.443   3
  -6  -1   8 5933.90 544.147   6
  -6  -1   8 5742.63 476.653   1
   6   1  -8 5583.60 443.811   2
   6   1  -7 8654.10 585.649   3
  -6  -1   7 8256.80 613.827   6
  -6  -1   7 7058.06 516.589   1
   6   1  -7 7258.91 482.679   2
  -6  -1   6 1266.80 236.240   1
   6   1  -6 1429.40 217.554   2
   6   1  -6 1217.98 256.190   3
  -6  -1   6 1446.13 277.432   6
   6   1  -5 174.183 115.679   2
   6   1  -5 138.577 177.904   3
  -6  -1   5 322.019 147.389   6
  -6  -1   5-226.886 184.189   1
   6   1  -4 8617.12 560.364   3
  -6  -1   4 8534.85 582.350   6
  -6  -1   4 8394.72 536.988   1
   6   1  -4 8750.64 440.506   2
   6   1  -3 37098.6 1204.11   3
  -6  -1   3 39926.8 1294.02   6
  -6  -1   3 37977.9 1195.13   1
   6   1  -3 37439.0 971.616   2
   6   1  -2 1116.09 151.266   2
   6   1  -2 1008.75 211.879   3
  -6  -1   2 900.982 210.466   6
  -6  -1   2 1080.94 214.618   1
   6   1  -1 1267.63 164.757   2
  -6  -1   1 1198.36 132.412  10
   6   1  -1 1210.31 220.484   3
  -6  -1   1 1280.30 234.631   6
  -6  -1   1 1435.76 243.432   1
   6   1   0 1825.48 247.847   3
   6   1   0 2252.04 209.939   2
  -6  -1   0 1993.63 266.600   1
   6   1   1 36565.6 1158.60   3
  -6  -1  -1 35300.8 1148.99   1
   6   1   1 35610.8 930.859   2
   6   1   2 766.668 150.287   2
   6   1   2 545.057 182.414   3
  -6  -1  -2 863.508 216.664   1
  -6  -1  -2 535.741 101.267   5
   6   1   3 365.371 121.872   2
   6   1   3-32.7994 189.106   3
  -6  -1  -3 140.847 147.122   1
  -6  -1  -3 235.968 107.593   5
  -6  -1  -4 35662.2 1160.59   1
   6   1   4 35093.6 1022.12   2
  -6  -1  -4 33536.2 970.440   5
   6   1   5 14477.2 738.093   3
   6   1   5 13756.0 716.394   8
  -6  -1  -5 15185.9 746.910   1
   6   1   5 13592.4 644.228   2
  -6  -1  -5 14673.7 644.251   5
   6   1   6 6149.83 484.337   8
  -6  -1  -6 6481.33 494.743   1
   6   1   6 6501.05 461.579   2
  -6  -1  -6 6588.62 451.018   5
   6   1   6 6015.38 476.525   3
   6   1   7 32448.8 1148.63   8
  -6  -1  -7 31275.5 1121.16   1
   6   1   7 31903.9 1121.36   2
  -6  -1  -7 29689.9 1051.56   5
   6   1   7 30712.5 1128.24   3
   6   1   8 8261.17 581.198   8
  -6  -1  -8 8999.34 592.049   1
   6   1   8 9773.38 636.126   2
  -6  -1  -8 9619.44 603.989   5
   6   1   8 9980.63 637.625   3
   6   1   9-33.1473 151.753   3
   6   1   9 144.074 150.538   8
  -6  -1  -9-281.899 162.960   1
  -6  -1  -9-33.6154 158.821   5
   6   1   9-141.517 164.966   2
   6   1  10 4375.36 452.211   3
   6   1  10 5099.14 466.715   8
  -6  -1 -10 5296.28 470.427   1
   6   1  10 5300.33 519.817   2
  -6  -1 -10 4603.60 460.704   5
   6   1  11 4426.66 440.156   8
  -6  -1 -11 4414.43 436.531   1
  -6  -1 -11 4674.80 473.069   5
   6   1  11 4815.03 507.647   2
  -6  -1 -12-466.386 228.957   5
   6   1  12 24.8030 158.261   2
  -6  -2  12 10.7464 205.543   6
  -6  -2  11 207.501 198.760   6
   6   2 -10 23.5761 135.773   3
  -6  -2  10 26.2132 165.712   6
   6   2  -9 134.699 173.375   3
  -6  -2   9 316.792 209.456   6
  -6  -2   8 1024.27 222.555   1
   6   2  -8 663.914 211.192   3
  -6  -2   8 987.396 284.856   6
  -6  -2   7 1561.90 252.092   1
   6   2  -7 1633.97 267.462   3
  -6  -2   7 1559.41 297.864   6
  -6  -2   6 1844.66 261.852   1
   6   2  -6 1049.92 185.941   2
   6   2  -6 1315.64 246.508   3
  -6  -2   6 1232.39 273.787   6
   6   2  -5 4135.34 391.534   3
  -6  -2   5 4216.58 431.592   6
  -6  -2   5 4771.36 389.922   1
   6   2  -5 4669.69 317.069   2
   6   2  -4 43922.8 1280.90   3
  -6  -2   4 43149.6 1412.38   6
  -6  -2   4 43636.5 1255.64   1
   6   2  -4 41324.7 990.161   2
   6   2  -3 143.669 75.6570   2
   6   2  -3 45.0576 131.951   3
  -6  -2   3-26.9710 163.601   6
  -6  -2   3-77.6781 146.201   1
   6   2  -2 16202.0 737.510   3
  -6  -2   2 18444.5 767.187   1
  -6  -2   2 18925.7 869.328   6
   6   2  -2 17393.0 520.337   2
   6   2  -1 49908.2 1388.58   3
  -6  -2   1 51688.5 1394.60   1
  -6  -2   1 50848.6 1496.29   6
   6   2  -1 49447.8 1003.11   2
   6   2   0 488.814 85.6720   2
  -6  -2   0 281.841 157.073   1
   6   2   1 46034.2 1318.32   3
  -6  -2  -1 44438.2 1078.29  10
  -6  -2  -1 48097.2 1324.20   1
   6   2   1 44044.9 972.938   2
   6   2   2 124949. 2530.97   3
  -6  -2  -2 123941. 2298.12  10
   6   2   2 121539. 2519.94   8
  -6  -2  -2 124246. 2499.85   1
   6   2   2 122977. 2121.89   2
   6   2   3 819.523 140.211   2
   6   2   3 1014.33 208.408   8
   6   2   3 612.864 198.272   3
  -6  -2  -3 539.294 200.270   1
   6   2   4 21992.4 895.795   3
   6   2   4 23568.0 922.019   8
  -6  -2  -4 22678.5 900.730   1
   6   2   4 22034.7 739.070   2
   6   2   5 57761.0 1550.21   8
  -6  -2  -5 55370.3 1516.45   1
   6   2   5 54304.4 1344.86   2
   6   2   6 2370.31 339.869   3
   6   2   6 2102.81 303.371   8
  -6  -2  -6 2255.43 312.349   1
  -6  -2  -6 1997.62 257.176   5
   6   2   6 2398.39 269.414   2
   6   2   7 4136.31 409.526   8
  -6  -2  -7 5161.20 438.810   1
   6   2   7 4391.35 388.616   2
  -6  -2  -7 4412.53 382.831   5
   6   2   7 4549.67 429.432   3
   6   2   8 54808.2 1575.92   8
  -6  -2  -8 54372.3 1573.54   1
   6   2   8 53342.7 1540.09   2
  -6  -2  -8 51475.7 1484.28   5
   6   2   8 51081.6 1563.39   3
   6   2   9 4570.06 454.374   3
   6   2   9 4323.25 427.882   8
  -6  -2  -9 5240.77 471.290   1
   6   2   9 5254.47 475.049   2
  -6  -2  -9 4273.34 423.032   5
   6   2  10 11770.6 704.760   8
  -6  -2 -10 10675.9 681.193   1
   6   2  10 10363.9 704.065   2
  -6  -2 -10 11173.7 690.769   5
   6   2  10 10342.3 694.467   3
   6   2  11 15789.0 837.685   8
  -6  -2 -11 15143.7 823.372   1
   6   2  11 15700.3 908.160   2
  -6  -2 -11 13820.2 812.399   5
   6   2  11 15164.3 875.550   3
   6   2  12 1424.87 295.756   8
  -6  -2 -12 1342.42 266.433   1
   6   2  12 808.204 229.620   2
  -6  -3  11 875.745 307.053   6
  -6  -3  10 2492.57 428.667   6
   6   3  -9 7554.38 519.362   3
  -6  -3   9 7633.77 683.347   6
   6   3  -8 68.3725 137.684   3
  -6  -3   8 488.809 234.436   6
   6   3  -7 15883.8 722.470   3
   6   3  -7 14727.0 712.011   9
  -6  -3   7 15047.6 907.007   6
  -6  -3   7 14218.1 680.099   1
   6   3  -6 5952.09 444.815   3
   6   3  -6 5760.62 413.166   9
  -6  -3   6 6240.65 561.453   6
  -6  -3   6 5672.94 413.006   1
   6   3  -5 4075.34 362.500   3
   6   3  -5 3484.26 300.894   9
  -6  -3   5 3894.06 346.591   1
  -6  -3   5 3522.88 420.417   6
   6   3  -4 29235.8 990.997   3
   6   3  -4 27916.2 845.748   9
  -6  -3   4 29782.8 1179.35   6
  -6  -3   4 28085.7 959.227   1
   6   3  -3 29477.9 1009.35   3
   6   3  -3 28694.0 801.384   9
  -6  -3   3 30712.6 993.950   1
  -6  -3   3 30213.5 1170.64   6
   6   3  -2 23590.1 881.363   3
   6   3  -2 22468.5 648.036   9
  -6  -3   2 23945.5 875.886   1
  -6  -3   2 25148.4 1042.31   6
   6   3  -1 131469. 2589.64   3
   6   3  -1 126809. 2080.08   9
  -6  -3   1 135624. 2581.05   1
  -6  -3   1 139274. 2829.47   6
   6   3   0 65033.4 1603.47   3
   6   3   0 62380.1 1101.75   9
   6   3   0 68529.3 1638.30   8
  -6  -3   0 67534.8 1606.13   1
  -6  -3   0 67458.6 1781.28   6
   6   3   0 60776.7 1052.75   2
   6   3   1 3403.31 343.029   8
   6   3   1 2858.97 315.809   3
  -6  -3  -1 3424.59 336.339   1
   6   3   1 3221.87 183.720   2
   6   3   2 105791. 2261.63   3
   6   3   2 107740. 2256.10   8
  -6  -3  -2 109299. 2261.94   1
   6   3   2 103404. 1764.97   2
   6   3   3 24869.3 948.454   3
  -6  -3  -3 24687.6 830.487  10
   6   3   3 24189.8 927.600   8
  -6  -3  -3 25556.3 949.171   1
   6   3   3 24146.7 684.862   2
  -6  -3  -4 334.374 135.888  10
   6   3   4 171.403 125.935   8
   6   3   4 181.162 174.520   3
  -6  -3  -4 104.791 140.739   1
   6   3   4 110.811 87.4106   2
  -6  -3  -5 45590.4 1301.47  10
   6   3   5 46394.8 1370.40   8
  -6  -3  -5 45974.8 1379.83   1
   6   3   5 45545.4 1155.24   2
   6   3   5 45279.2 1381.22   3
  -6  -3  -6 14655.4 724.078  10
  -6  -3  -6 15727.5 789.540   1
   6   3   6 15650.2 671.028   2
   6   3   6 15840.7 797.320   3
   6   3   6 14415.6 739.988   8
  -6  -3  -7 1319.92 250.535  10
   6   3   7 1195.53 256.642   3
   6   3   7 1447.05 250.864   8
  -6  -3  -7 1453.46 277.746   1
   6   3   7 1268.88 215.355   2
  -6  -3  -8 15419.8 793.950  10
   6   3   8 14832.7 781.875   8
  -6  -3  -8 16553.5 836.046   1
   6   3   8 15291.5 747.123   2
   6   3   8 16543.4 859.353   3
  -6  -3  -9 3605.60 394.614  10
   6   3   9 4259.91 425.317   8
   6   3   9 3769.60 438.370   3
  -6  -3  -9 4070.38 431.045   1
   6   3   9 3483.15 380.031   2
  -6  -3 -10 1110.89 244.961  10
   6   3  10 718.573 205.952   8
   6   3  10 1068.87 274.600   3
  -6  -3 -10 1008.29 274.301   1
   6   3  10 976.468 239.083   2
  -6  -3 -11 2308.79 344.280  10
   6   3  11 1286.74 327.259   3
   6   3  11 1705.66 323.238   8
  -6  -3 -11 1787.18 309.626   1
   6   3  11 1888.61 330.169   2
  -6  -3 -12 1822.19 342.630  10
   6   3  12 2078.82 340.484   8
   6   3  12 1378.15 355.553   3
  -6  -3 -12 2160.52 341.800   1
  -6  -3 -12 1255.55 280.455   3
   6   3  12 1478.67 318.370   2
   6   3  13 19.1713 138.797   8
  -6  -3 -13 231.448 199.472   1
  -6  -4  11 285.913 261.743   6
  -6  -4  10-156.532 261.171   6
   6   4  -9 5826.80 514.425   9
  -6  -4   9 6416.11 667.147   6
   6   4  -8 908.265 206.147   9
  -6  -4   8 1534.32 360.635   6
   6   4  -7 11206.8 595.222   3
   6   4  -7 10345.3 623.434   9
  -6  -4   7 11527.9 808.606   6
   6   4  -6 37574.4 1144.82   3
   6   4  -6 37503.1 1174.48   9
  -6  -4   6 38931.6 1483.38   6
  -6  -4   6 37512.8 1097.58   1
   6   4  -5 1004.51 181.324   9
   6   4  -5 864.698 178.241   3
  -6  -4   5 1225.83 285.411   6
  -6  -4   5 1103.27 191.611   1
   6   4  -4 25228.0 891.900   3
   6   4  -4 23795.1 826.799   9
  -6  -4   4 24229.1 1102.16   6
  -6  -4   4 24097.1 853.161   1
   6   4  -3 22708.2 853.903   3
   6   4  -3 21197.2 730.964   9
  -6  -4   3 22614.6 834.701   1
  -6  -4   3 22030.2 1014.41   6
   6   4  -2 610.109 140.083   9
   6   4  -2 999.709 199.005   3
  -6  -4   2 764.384 168.748   1
  -6  -4   2 807.213 241.634   6
   6   4  -1 999.302 193.620   8
   6   4  -1 588.647 163.941   3
  -6  -4   1 731.623 176.192   1
  -6  -4   1 341.505 174.699   6
   6   4   0 43917.5 1264.55   3
   6   4   0 43439.8 1249.58   8
  -6  -4   0 41545.5 1233.36   1
  -6  -4   0 45581.7 1435.45   6
   6   4   1 84.3184 113.953   8
   6   4   1-27.2109 142.268   3
  -6  -4  -1 83.4080 126.212   1
   6   4   2 2125.52 272.012   8
   6   4   2 2404.08 297.600   3
  -6  -4  -2 2331.62 287.090   1
   6   4   3 27593.2 996.858   8
  -6  -4  -3 27736.1 1021.19   1
   6   4   3 26546.2 673.796   2
   6   4   3 28382.1 1023.29   3
   6   4   4 4831.28 409.907   8
  -6  -4  -4 4401.26 400.007   1
   6   4   4 3984.74 274.814   2
   6   4   4 3744.61 383.284   3
   6   4   5 4664.89 418.865   8
  -6  -4  -5 4526.53 425.465   1
   6   4   5 4533.61 319.995   2
   6   4   5 4705.36 432.526   3
   6   4   6 21094.9 920.249   8
  -6  -4  -6 21850.3 944.102   1
   6   4   6 21330.0 768.625   2
   6   4   6 19344.6 906.201   3
  -6  -4  -7 4103.75 396.580  10
   6   4   7 3829.71 403.631   8
   6   4   7 3830.66 411.307   3
  -6  -4  -7 3841.92 403.335   1
   6   4   7 4130.66 361.663   2
  -6  -4  -8 371.369 176.657  10
   6   4   8 447.150 198.301   3
  -6  -4  -8 300.916 188.646   1
   6   4   8 123.493 113.021   2
   6   4   8 569.409 207.926   8
  -6  -4  -9 10808.4 686.408  10
   6   4   9 12603.6 750.357   8
  -6  -4  -9 11926.3 734.909   1
   6   4   9 11042.5 739.867   3
  -6  -4 -10 6648.77 557.714  10
   6   4  10 6980.52 564.342   8
  -6  -4 -10 7298.15 589.695   1
   6   4  10 6400.18 585.194   3
  -6  -4 -11 3178.19 395.089  10
  -6  -4 -11 3841.39 455.806   3
   6   4  11 2821.70 420.243   3
   6   4  11 3732.31 429.312   8
  -6  -4 -11 3859.08 457.563   1
  -6  -4 -12 464.555 231.665  10
   6   4  12 457.323 270.662   3
   6   4  12 776.996 249.881   8
  -6  -4 -12 405.339 204.248   1
  -6  -4 -12 608.114 256.303   3
   6   4  13 1191.69 338.145   3
   6   4  13 1500.73 314.544   8
  -6  -4 -13 1460.60 315.413   1
  -6  -4 -13 1555.25 386.300   3
   6   5 -10-25.6778 192.778   9
  -6  -5  10 98.3586 235.876   6
   6   5  -9 1941.07 323.131   9
  -6  -5   9 2423.50 467.987   6
   6   5  -8 1640.60 300.668   9
  -6  -5   8 1481.80 358.765   6
   6   5  -7 228.300 149.347   9
  -6  -5   7-12.9789 179.800   6
   6   5  -6 1.12507 139.008   9
   6   5  -6 417.323 142.429   3
  -6  -5   6 156.116 191.311   6
   6   5  -5 1362.43 234.673   9
   6   5  -5 1404.46 216.727   3
  -6  -5   5 1297.66 310.097   6
  -6  -5   5 1027.55 188.441   1
   6   5  -4 6012.10 424.067   3
   6   5  -4 5590.61 414.204   9
  -6  -5   4 5079.66 375.688   1
  -6  -5   4 5863.13 560.634   6
   6   5  -3 487.745 175.721   3
  -6  -5   3 434.666 216.104   6
  -6  -5   3 226.832 128.736   1
   6   5  -2 292.730 133.347   8
   6   5  -2 551.253 177.196   3
  -6  -5   2 353.379 139.637   1
  -6  -5   2 406.272 207.320   6
   6   5  -1 17771.6 752.691   3
   6   5  -1 17514.1 735.325   8
  -6  -5   1 16962.9 724.264   1
  -6  -5   1 17063.8 880.544   6
   6   5   0 9711.72 553.307   8
  -6  -5   0 10354.0 570.696   1
  -6  -5   0 9539.01 650.309   6
   6   5   0 10543.7 578.351   3
   6   5   1 2152.82 268.526   8
   6   5   1 2371.20 290.829   3
  -6  -5  -1 2243.02 297.769   1
  -6  -5  -1 2238.23 316.477   6
   6   5   2 23419.1 906.104   8
  -6  -5  -2 24698.1 945.378   1
   6   5   2 24175.6 944.994   3
   6   5   3 2562.84 306.712   8
   6   5   3 2392.47 313.890   3
  -6  -5  -3 2707.46 324.867   1
   6   5   4 5315.22 444.871   8
  -6  -5  -4 5077.19 445.397   1
   6   5   4 4380.97 418.898   3
   6   5   5 53648.7 1529.36   8
  -6  -5  -5 54917.9 1573.01   1
   6   5   5 51115.6 1556.19   3
   6   5   6 350.074 183.123   3
   6   5   6 145.869 166.374   8
  -6  -5  -6 7.38333 165.076   1
   6   5   7 1670.74 278.125   8
   6   5   7 2180.85 331.712   3
  -6  -5  -7 1579.64 290.581   1
   6   5   8 23399.6 1004.80   8
   6   5   8 21217.9 804.256   7
  -6  -5  -8 24119.0 1053.68   1
   6   5   8 22339.6 1060.23   3
   6   5   9 261.974 255.737   3
   6   5   9 48.4827 182.036   8
  -6  -5  -9 241.331 212.051   1
   6   5  10 279.606 247.698   3
   6   5  10 546.870 235.230   8
  -6  -5 -10 67.3657 209.368   1
  -6  -5 -11 6031.13 544.849   3
   6   5  11 6492.40 576.887   8
  -6  -5 -11 6280.43 570.862   1
   6   5  11 5263.16 604.868   3
   6   5  12 571.214 296.887   3
   6   5  12 187.466 205.740   8
  -6  -5 -12 630.614 251.298   1
  -6  -5 -12 534.485 241.776   3
   6   5  13 654.298 289.567   3
   6   5  13 55.1562 174.024   8
  -6  -5 -13 356.907 224.171   1
  -6  -5 -13 296.597 190.166   3
   6   6 -10 203.720 231.266   9
  -6  -6  10 85.3971 249.156   6
   6   6  -9 375.462 232.977   9
  -6  -6   9 808.793 325.025   6
   6   6  -8 141.324 186.427   9
  -6  -6   8 293.227 256.390   6
   6   6  -7 2096.95 322.758   9
  -6  -6   7 2177.39 413.836   6
   6   6  -6 3587.92 384.224   9
  -6  -6   6 4895.92 554.394   6
   6   6  -5 4616.91 359.116   3
   6   6  -5 4634.33 436.316   9
  -6  -6   5 5067.11 544.200   6
  -6  -6   4 21033.4 761.025   1
  -6  -6   4 21128.8 1074.13   6
   6   6  -4 21668.3 813.511   3
  -6  -6   3 7497.92 446.500   1
  -6  -6   3 7155.08 607.489   6
   6   6  -3 7347.92 468.926   3
   6   6  -2 878.704 187.398   8
   6   6  -2 956.077 205.234   3
  -6  -6   2 980.267 186.613   1
  -6  -6   2 905.033 270.965   6
   6   6  -1 14160.7 662.400   8
  -6  -6   1 14811.1 676.935   1
  -6  -6   1 14353.4 830.744   6
   6   6  -1 15209.7 702.121   3
   6   6   0 33517.5 1073.80   8
  -6  -6   0 34212.1 1114.23   1
  -6  -6   0 36566.8 1318.27   6
   6   6   0 32217.3 1091.58   3
   6   6   1 1463.81 235.710   8
   6   6   1 1305.71 239.517   3
  -6  -6  -1 1710.31 271.219   1
  -6  -6  -1 1462.81 270.969   6
   6   6   2 37407.4 1191.06   8
  -6  -6  -2 37022.7 1213.42   1
  -6  -6  -2 38194.7 1333.37   6
   6   6   2 37846.5 1235.79   3
   6   6   3 23759.8 949.183   8
  -6  -6  -3 24660.7 986.963   1
   6   6   3 24012.1 977.506   3
   6   6   4-91.6291 122.778   8
   6   6   4-62.7442 160.693   3
  -6  -6  -4 137.447 171.053   1
  -6  -6  -5 24203.3 1028.95   1
   6   6   5 23242.8 1004.91   3
   6   6   6 8632.95 614.597   1
   6   6   6 8754.96 547.878   7
  -6  -6  -6 10416.2 679.457   1
   6   6   6 8920.54 631.697   3
   6   6   7-74.9122 188.056   3
  -6  -6  -7 48.3372 179.962   1
   6   6   7 1.25742 144.811   1
   6   6   7-5.95211 132.075   7
   6   6   8 16786.5 860.852   1
   6   6   8 15098.3 707.481   7
  -6  -6  -8 15736.5 888.668   1
   6   6   8 16244.6 915.555   3
   6   6   9 12364.3 771.921   1
  -6  -6  -9 12078.0 800.115   1
   6   6   9 12124.7 832.916   3
   6   6  10 96.2709 217.337   3
  -6  -6 -10-73.9589 164.707   1
  -6  -6 -10-26.4132 159.999   3
   6   6  10 166.014 187.075   1
  -6  -6 -11 5709.80 572.838   3
   6   6  11 5592.06 612.740   3
   6   6  11 6016.11 562.977   1
  -6  -6 -11 6230.04 613.547   1
   6   6  12 3272.91 515.280   3
  -6  -6 -12 3567.70 490.179   1
  -6  -6 -12 4361.55 522.128   3
   6   6  12 3393.77 447.509   1
   6   6  13 1163.62 344.913   3
  -6  -6 -13 1308.49 331.352   1
  -6  -6 -13 1142.39 286.384   3
   6   6  13 1796.49 332.931   1
   6   7  -9 795.144 259.136   9
  -6  -7   9 1287.72 372.948   6
   6   7  -8 916.977 273.507   9
   6   7  -8 1616.13 359.674   7
  -6  -7   8 712.716 318.192   6
   6   7  -7 1054.20 265.974   9
   6   7  -7 1260.43 296.660   7
  -6  -7   7 1556.44 364.229   6
   6   7  -6 10398.8 697.974   9
  -6  -7   6 9811.04 801.063   6
  -6  -7   5 2694.33 428.337   6
  -6  -7   4 8183.22 707.739   6
   6   7  -4 9263.48 515.886   3
   6   7  -3 8607.60 481.808   8
  -6  -7   3 7691.66 464.262   1
  -6  -7   3 8952.86 705.478   6
   6   7  -3 9538.78 535.829   3
   6   7  -2 4966.41 377.286   8
  -6  -7   2 4580.59 365.314   1
  -6  -7   2 5070.21 531.846   6
   6   7  -2 4921.79 399.187   3
   6   7  -1 16063.3 708.909   8
  -6  -7   1 16577.8 736.808   1
  -6  -7   1 17576.2 933.936   6
   6   7  -1 16598.4 752.262   3
   6   7   0 5704.86 425.106   8
  -6  -7   0 5593.49 441.213   1
  -6  -7   0 6235.15 539.784   6
   6   7   0 5038.70 423.710   3
   6   7   1 691.967 194.517   3
   6   7   1 949.687 198.388   8
  -6  -7  -1 562.948 176.133   1
  -6  -7  -1 690.947 180.410   6
   6   7   2 23423.8 929.243   8
  -6  -7  -2 22819.5 953.475   1
  -6  -7  -2 25615.5 1082.44   6
   6   7   2 23738.7 977.835   3
   6   7   3 43392.0 1380.01   7
  -6  -7  -3 44677.6 1415.76   1
  -6  -7  -3 44173.7 1464.91   6
   6   7   3 45412.8 1426.50   3
   6   7   4 1014.64 247.927   1
   6   7   4 932.706 255.194   3
  -6  -7  -4 748.187 249.595   1
   6   7   4 706.117 208.779   7
   6   7   5 5982.12 491.385   1
   6   7   5 5695.60 474.647   7
  -6  -7  -5 5179.30 495.331   1
   6   7   5 5736.09 518.858   3
   6   7   6 35780.3 1289.74   1
   6   7   6 35860.5 1207.95   7
  -6  -7  -6 37219.8 1379.99   1
   6   7   6 36227.8 1361.12   3
   6   7   7 358.543 282.297   3
  -6  -7  -7 311.161 265.217   1
   6   7   7-42.6122 158.470   7
   6   7   7 273.286 190.421   1
   6   7   8-41.7346 219.272   3
  -6  -7  -8 86.1627 198.209   1
   6   7   8 138.862 174.836   1
   6   7   8-31.2721 150.280   7
  -6  -7  -8 520.493 237.007   3
  -6  -7  -9 7012.20 609.695   3
   6   7   9 7410.67 608.462   1
  -6  -7  -9 7859.77 674.154   1
   6   7   9 9046.61 723.346   3
   6   7  10-107.064 268.268   3
  -6  -7 -10 164.273 208.069   1
   6   7  10-151.639 199.272   1
  -6  -7 -10-20.0399 171.617   3
   6   7  11 361.294 231.311   3
  -6  -7 -11 929.252 295.700   1
   6   7  11 340.499 190.189   1
  -6  -7 -11 566.121 263.874   3
   6   7  12 2052.41 442.849   3
  -6  -7 -12 2749.00 472.852   1
  -6  -7 -12 2128.85 399.370   3
   6   7  12 2233.21 395.063   1
   6   8  -8 236.977 181.303   9
   6   8  -8 66.0807 179.496   7
   6   8  -7 1150.58 280.068   9
   6   8  -7 1019.91 340.222   7
  -6  -8   7 1046.93 336.856   6
   6   8  -6 2078.10 359.280   9
   6   8  -6 1584.15 320.954   7
  -6  -8   6 2518.74 452.239   6
   6   8  -5 2060.14 346.220   7
  -6  -8   5 3121.32 482.201   6
   6   8  -4 42.7016 176.523   7
  -6  -8   4 419.299 231.486   6
   6   8  -3 2069.92 263.345   3
   6   8  -3 2001.84 354.962   7
  -6  -8   3 1905.31 362.925   6
   6   8  -2 235.508 149.316   3
   6   8  -2 164.129 122.917   8
   6   8  -2 596.298 246.070   7
  -6  -8   2 375.653 148.232   1
  -6  -8   2 482.473 205.465   6
   6   8  -1 536.874 170.039   3
   6   8  -1 895.809 195.209   8
   6   8  -1 1267.71 293.628   7
  -6  -8   1 984.632 228.038   1
  -6  -8   1 875.977 260.285   6
   6   8   0 19789.8 823.696   8
   6   8   0 20094.5 961.672   7
  -6  -8   0 19434.8 847.101   1
  -6  -8   0 21474.6 1034.29   6
   6   8   0 19716.3 863.340   3
   6   8   1 5406.79 441.345   8
   6   8   1 6656.16 564.640   7
  -6  -8  -1 5547.70 472.755   1
  -6  -8  -1 6134.55 545.604   6
   6   8   1 5672.18 486.426   3
   6   8   2 508.985 248.310   3
  -6  -8  -2 624.229 239.446   1
   6   8   2 612.464 210.649   7
  -6  -8  -2 229.533 172.184   6
   6   8   3 10302.5 640.549   1
   6   8   3 9377.99 645.203   7
  -6  -8  -3 10398.4 675.904   1
  -6  -8  -3 10869.8 708.573   6
   6   8   3 10812.2 677.635   3
   6   8   4 941.354 259.337   3
  -6  -8  -4 1304.11 278.527   1
   6   8   4 918.244 272.014   7
  -6  -8  -4 1320.43 267.918   6
   6   8   4 1155.71 259.133   1
   6   8   5 2327.60 370.956   3
   6   8   5 2228.94 333.699   1
  -6  -8  -5 2005.28 360.453   1
   6   8   5 1489.76 286.742   7
  -6  -8  -5 1937.09 327.592   6
   6   8   6 1677.08 317.578   1
   6   8   6 1926.05 365.889   3
  -6  -8  -6 2305.32 381.533   1
   6   8   6 1590.62 314.011   7
   6   8   7 808.541 273.500   3
  -6  -8  -7 243.068 190.303   1
   6   8   7 375.027 191.551   7
  -6  -8  -7 334.624 172.739   3
   6   8   7 303.373 171.562   1
   6   8   8 1067.31 308.176   3
  -6  -8  -8 1534.70 342.418   1
   6   8   8 1499.09 281.812   7
  -6  -8  -8 1878.02 331.381   3
   6   8   8 1491.18 319.517   1
   6   8   9 2042.37 390.855   3
  -6  -8  -9 3030.85 459.317   1
  -6  -8  -9 1858.48 322.421   3
   6   8   9 1774.69 369.266   1
   6   8  10 358.792 262.839   3
  -6  -8 -10 1228.10 334.384   1
  -6  -8 -10 1079.32 329.576   3
   6   8  10 991.145 291.431   1
   6   8  11 175.919 249.896   3
  -6  -8 -11 647.016 307.161   1
  -6  -8 -11 887.206 318.149   3
   6   8  11 790.599 240.654   1
  -6  -8 -12 46.7108 208.110   1
  -6  -8 -12-135.964 170.441   3
   6   8  12 79.5554 199.941   1
   6   9  -7 75.0163 214.155   7
  -6  -9   7-83.7301 219.271   6
   6   9  -6 182.285 202.012   7
  -6  -9   6 221.384 219.545   6
   6   9  -5 317.811 208.572   7
  -6  -9   5 79.5126 199.650   6
   6   9  -4 134.784 220.189   7
  -6  -9   4 379.382 267.814   6
   6   9  -3 81.1076 136.931   7
  -6  -9   3 83.7391 207.235   6
   6   9  -2 193.311 226.617   7
  -6  -9   2 182.952 196.843   6
   6   9  -1 317.982 136.224   3
   6   9  -1 413.741 180.927   8
   6   9  -1 348.921 193.053   7
  -6  -9   1 138.141 125.793   1
  -6  -9   1 239.026 158.205   6
   6   9   0 1258.38 244.293   3
   6   9   0 1118.78 200.707   8
  -6  -9   0 582.970 195.255   1
   6   9   0 1054.94 276.567   7
  -6  -9   0 1403.96 298.013   6
   6   9   1 2173.51 341.234   3
  -6  -9  -1 2248.08 308.342   1
   6   9   1 3085.74 402.894   7
  -6  -9  -1 2209.77 344.617   6
   6   9   2 7750.37 568.245   1
   6   9   2 8095.78 637.494   7
  -6  -9  -2 9137.21 661.051   6
   6   9   2 9119.89 626.913   3
   6   9   3 3727.16 437.963   3
  -6  -9  -3 2783.89 408.991   1
   6   9   3 3097.89 412.310   7
  -6  -9  -3 4451.46 471.514   6
   6   9   3 3824.42 409.071   1
   6   9   4 838.842 264.469   1
   6   9   4 845.326 219.666   3
  -6  -9  -4 1210.66 317.751   1
   6   9   4 929.556 277.834   7
  -6  -9  -4 655.271 204.011   3
  -6  -9  -4 689.035 222.616   6
  -6  -9  -5 11842.3 728.034   3
   6   9   5 11319.3 743.702   1
  -6  -9  -5 11687.0 798.663   1
   6   9   5 12465.5 785.963   7
  -6  -9  -5 11961.1 735.899   6
   6   9   5 12048.6 810.877   3
   6   9   6 4068.28 537.149   3
   6   9   6 4689.63 519.419   1
   6   9   6 5476.31 523.845   7
  -6  -9  -6 4980.47 559.659   1
  -6  -9  -6 4404.33 468.695   3
  -6  -9  -6 4868.81 479.103   6
   6   9   7 1744.30 388.105   3
  -6  -9  -7 2204.88 420.442   1
   6   9   7 2350.13 365.249   1
   6   9   7 1850.32 336.085   7
  -6  -9  -7 2389.40 352.091   3
   6   9   8 1265.17 378.104   3
  -6  -9  -8 1391.32 382.664   1
   6   9   8 1863.71 360.491   1
   6   9   8 1773.41 313.402   7
  -6  -9  -8 1584.51 310.306   3
   6   9   9 2813.24 464.158   3
  -6  -9  -9 2377.23 439.871   1
   6   9   9 2744.45 428.389   1
   6   9   9 2429.49 347.876   7
  -6  -9  -9 2796.58 426.184   3
   6   9  10-84.0967 245.212   3
  -6  -9 -10 312.216 301.962   1
   6   9  10 528.613 243.362   1
  -6  -9 -10 589.152 282.874   3
  -6  -9 -11 330.891 247.016   1
   6   9  11 181.395 230.347   1
  -6  -9 -11 280.883 212.749   3
   6  10  -5 133.140 200.217   7
  -6 -10   5-492.719 311.268   6
   6  10  -4 1087.15 325.437   7
  -6 -10   4 1345.65 356.528   6
   6  10  -3 2262.92 398.458   7
  -6 -10   3 2595.56 426.760   6
   6  10  -2 196.818 212.501   7
  -6 -10   2-20.5554 154.176   6
   6  10  -1 810.094 261.725   7
  -6 -10   1 825.064 265.652   6
   6  10   0 8626.17 552.958   8
   6  10   0 8008.54 680.073   7
  -6 -10   0 8101.96 675.176   6
   6  10   0 7684.62 582.687   3
   6  10   1 137.135 168.710   3
  -6 -10  -1 300.227 196.779   1
   6  10   1 558.077 234.406   7
  -6 -10  -1 103.541 135.510   3
   6  10   1 277.172 160.032   1
  -6 -10  -1 65.8633 166.136   6
   6  10   2 1620.67 326.692   3
  -6 -10  -2 2330.60 373.543   1
   6  10   2 2299.44 387.673   7
  -6 -10  -2 1618.46 278.866   3
  -6 -10  -2 2391.62 369.961   6
   6  10   2 2771.05 351.684   1
  -6 -10  -3 7248.39 567.280   3
   6  10   3 7215.71 581.401   1
   6  10   3 7569.49 648.729   7
  -6 -10  -3 5733.21 579.697   1
  -6 -10  -3 7536.11 606.422   6
   6  10   3 6601.11 599.481   3
   6  10   4 1518.78 318.191   3
  -6 -10  -4 1509.66 355.097   1
   6  10   4 2146.79 367.813   7
  -6 -10  -4 1751.33 309.165   3
  -6 -10  -4 2763.64 380.664   6
   6  10   4 1657.75 327.218   1
   6  10   5 279.253 198.919   3
  -6 -10  -5 610.379 252.660   1
   6  10   5 863.501 295.606   7
   6  10   5 529.912 219.099   1
  -6 -10  -5 335.229 220.151   3
  -6 -10  -5 437.535 183.569   6
   6  10   6 8005.50 654.639   1
   6  10   6 8881.84 702.035   7
  -6 -10  -6 9437.21 664.831   6
   6  10   6 9128.31 766.954   3
   6  10   7 1191.39 345.139   3
   6  10   7 987.546 283.088   1
  -6 -10  -7 817.738 339.920   1
   6  10   7 657.768 246.739   7
  -6 -10  -7 701.481 249.973   3
  -6 -10  -7 1230.25 250.966   6
   6  10   8 13.7878 203.988   1
   6  10   8 423.699 257.580   3
  -6 -10  -8 275.412 267.926   1
   6  10   8 392.992 251.922   7
  -6 -10  -8 151.686 156.707   3
  -6 -10  -8 51.3787 140.420   6
   6  10   9 5745.60 609.838   1
  -6 -10  -9 5453.82 590.707   3
  -6 -10  -9 4113.45 606.166   1
   6  10   9 5615.50 568.904   7
   6  10   9 4423.60 601.240   3
   6  10  10 139.822 220.901   1
  -6 -10 -10 493.832 322.626   1
  -6 -10 -10 514.594 213.047   3
   6  11  -3 1357.93 353.320   7
  -6 -11   3 918.853 296.344   6
   6  11  -2 1263.53 311.970   7
  -6 -11   2 1742.41 380.880   6
   6  11  -1 90.5328 200.375   7
  -6 -11   1-118.048 200.425   6
   6  11   0 1643.23 365.567   7
  -6 -11   0 1925.03 351.196   6
   6  11   1 1570.58 294.010   3
   6  11   1 1643.87 279.637   1
  -6 -11  -1 1464.79 318.688   6
   6  11   2-27.8619 200.438   3
  -6 -11  -2-20.8851 150.479   1
   6  11   2 132.381 151.822   1
   6  11   2 169.165 219.039   7
  -6 -11  -2 273.592 193.213   3
  -6 -11  -2-38.8061 150.685   6
  -6 -11  -3 5011.10 482.742   3
   6  11   3 4246.76 503.222   3
   6  11   3 4944.61 486.668   1
  -6 -11  -3 3958.87 501.875   1
   6  11   3 4474.00 549.481   7
  -6 -11  -3 4266.53 470.922   6
   6  11   4 1499.23 368.528   3
  -6 -11  -4 747.163 284.942   1
   6  11   4 1505.07 359.732   7
  -6 -11  -4 1656.40 324.316   3
   6  11   4 2004.46 344.139   1
  -6 -11  -4 1460.46 292.244   6
   6  11   5-352.060 256.369   3
   6  11   5 341.729 202.670   1
  -6 -11  -5-114.345 199.314   1
   6  11   5-234.825 246.343   7
  -6 -11  -5 7.67023 200.974   3
  -6 -11  -5 92.7394 125.622   6
   6  11   6 820.195 274.799   1
  -6 -11  -6 672.273 257.012   1
   6  11   6 452.630 227.795   7
  -6 -11  -6 685.580 265.589   3
   6  11   6 654.225 244.290   3
   6  11   7 1912.69 360.050   1
  -6 -11  -7 1278.89 352.121   1
   6  11   7 1361.86 328.788   7
  -6 -11  -7 1430.54 331.727   3
   6  11   8 88.8609 203.058   1
   6  11   8 84.5010 242.749   7
  -6 -11  -8-65.8611 194.404   3
  -6 -11  -9 711.214 361.765   1
   6  11   9 724.592 367.187   7
   6  11   9 40.7126 194.991   1
  -6 -12   0 271.507 205.342   6
   6  12   1 868.039 284.181   7
  -6 -12  -1 567.852 210.386   6
   6  12   2-9.99824 150.788   1
   6  12   2-365.795 253.974   7
  -6 -12  -2 36.9533 168.849   6
  -6 -12  -3 83.5789 172.986   1
   6  12   3 316.564 217.605   7
  -6 -12  -3-297.492 216.025   3
   6  12   3-83.6388 182.223   1
  -6 -12  -4 865.665 329.406   1
   6  12   4 377.321 228.195   1
   6  12   4 793.191 304.511   7
  -6 -12  -4 1150.79 301.472   3
   6  12   5 525.680 269.379   1
  -6 -12  -5-40.1816 219.763   1
   6  12   5 403.377 291.029   7
  -6 -12  -5 415.499 206.982   3
   6  12   6 175.395 180.034   1
  -6 -12  -6 197.471 254.463   1
   6  12   6 325.068 274.651   7
  -6 -12  -6 463.634 261.832   3
   7  -5  -5 127.580 195.190   2
  -7   5   5-163.000 227.931   1
   7  -5  -4 627.662 258.580   2
  -7   5   4 581.543 277.492   1
   7  -5  -4 852.143 246.617   3
  -7   5   4 864.840 260.740   7
   7  -5  -3 892.437 268.591   2
  -7   5   3 1253.36 342.958   1
   7  -5  -3 1012.28 278.031   3
  -7   5   3 1244.60 313.541   7
   7  -5  -2 131.544 183.991   2
  -7   5   2 52.4685 199.449   1
   7  -5  -2-294.155 214.768   3
  -7   5   2 163.010 199.455   7
   7  -5  -1 2052.69 359.908   2
  -7   5   1 2248.07 378.105   1
   7  -5  -1 2851.52 441.431   3
  -7   5   1 1986.21 393.613   7
   7  -5   0 317.860 215.579   2
  -7   5   0 644.426 260.822   1
   7  -5   0 395.074 210.107   3
  -7   5   0 590.344 283.096   7
   7  -5   1 779.175 263.055   2
  -7   5  -1 821.298 240.238   1
   7  -5   1 1072.48 276.772   3
  -7   5  -1 657.306 281.499   7
   7  -5   2 1893.88 381.340   2
  -7   5  -2 2170.33 352.085   1
  -7   5  -2 2235.46 415.149   7
   7  -4  -7 2897.16 431.709   2
  -7   4   7 3360.32 478.674   1
  -7   4   7 3237.36 507.215   7
   7  -4  -6 1254.51 269.569   2
  -7   4   6 1532.47 384.943   1
   7  -4  -6 1050.83 325.146   3
  -7   4   6 971.402 330.874   7
   7  -4  -5 33.5639 169.463   2
  -7   4   5 133.633 164.218   1
   7  -4  -5 580.531 291.291   3
  -7   4   5 211.908 210.972   7
   7  -4  -4 6305.09 628.502   3
  -7   4   4 8688.21 740.038   7
   7  -4  -4 8074.30 650.924   2
  -7   4   4 8904.13 725.096   1
  -7   4   3 1929.30 361.026   1
   7  -4  -3 2426.85 367.675   2
   7  -4  -3 1759.43 348.567   3
  -7   4   3 2711.88 416.852   7
  -7   4   2 476.693 212.135   1
   7  -4  -2 402.987 186.129   2
   7  -4  -2 41.3222 164.595   3
  -7   4   2 133.254 208.370   7
   7  -4  -1 13766.2 866.082   3
  -7   4   1 13368.5 880.854   7
   7  -4  -1 13498.2 825.945   2
  -7   4   0 4158.46 482.229   1
   7  -4   0 3177.39 412.761   2
   7  -4   0 3248.68 410.683   3
  -7   4   0 4383.87 519.428   7
  -7   4  -1 1552.01 328.680   1
   7  -4   1 689.890 216.441   2
   7  -4   1 1481.52 337.419   3
  -7   4  -1 1602.83 304.676   7
   7  -4   2 22161.9 1059.53   3
  -7   4  -2 23378.2 1124.14   7
   7  -4   2 24172.3 1133.93   2
  -7   4  -2 22861.7 1089.08   1
   7  -4   3 8433.90 648.435   3
  -7   4  -3 8372.84 653.301   7
   7  -4   3 8034.35 658.822   2
  -7   4  -3 7351.00 609.359   1
   7  -4   4-39.2416 210.242   2
  -7   4  -4-46.1548 134.980   7
   7  -4   5 7553.04 665.645   2
  -7   4  -5 6691.58 577.073   1
   7  -3  -8 1688.30 329.298   2
  -7   3   8 1365.22 322.438   1
   7  -3  -8 1829.02 373.911   3
  -7   3   8 1520.55 363.665   7
  -7   3   7 4162.06 519.968   1
   7  -3  -7 4848.67 494.457   2
   7  -3  -7 4728.94 540.553   3
  -7   3   7 4208.80 528.269   7
   7  -3  -6 8218.27 705.617   3
  -7   3   6 8446.85 725.188   7
  -7   3   6 9074.87 712.168   1
   7  -3  -6 8099.72 634.448   2
  -7   3   5 1753.42 351.776   1
   7  -3  -5 1551.75 305.194   2
   7  -3  -5 2220.49 392.718   3
  -7   3   5 1546.34 337.951   7
   7  -3  -4 9392.39 726.018   3
  -7   3   4 8855.02 724.731   7
  -7   3   4 8598.71 670.572   1
   7  -3  -4 8967.37 647.204   2
   7  -3  -3 18107.3 976.875   3
  -7   3   3 16418.6 957.896   7
  -7   3   3 16669.3 943.161   1
   7  -3  -3 16078.8 858.388   2
  -7   3   2 2890.94 403.456   1
   7  -3  -2 1836.91 294.903   2
   7  -3  -2 2354.83 371.683   3
  -7   3   2 2838.35 411.030   7
   7  -3  -1 19127.9 986.940   3
  -7   3   1 18671.3 997.981   7
  -7   3   1 19822.2 998.373   1
   7  -3  -1 17251.0 894.068   2
   7  -3   0 37300.6 1385.95   3
  -7   3   0 35750.3 1392.90   7
  -7   3   0 36256.7 1364.33   1
   7  -3   0 36083.6 1311.08   2
   7  -3   1 1602.22 279.567   2
   7  -3   1 921.369 263.358   3
  -7   3  -1 1332.27 292.104   7
  -7   3  -1 1533.50 319.498   1
   7  -3   2 6890.14 585.670   3
  -7   3  -2 6468.59 569.262   7
  -7   3  -2 5667.53 527.602   1
   7  -3   2 5898.02 529.462   2
   7  -3   3 22584.0 1029.40   3
  -7   3  -3 22210.8 1037.80   7
  -7   3  -3 20618.9 996.973   1
   7  -3   3 20845.4 1020.21   2
   7  -3   4 1682.57 329.377   2
   7  -3   4 1039.94 248.779   3
  -7   3  -4 1121.77 253.135   7
  -7   3  -4 996.527 250.464   1
   7  -3   5 2473.31 377.384   2
  -7   3  -5 2907.93 379.042   1
  -7   3  -6 9744.40 666.042   1
   7  -3   6 9800.87 732.720   2
   7  -2  -9 2193.71 342.751   2
  -7   2   9 1997.25 368.083   1
  -7   2   9 1842.66 375.572   7
   7  -2  -9 1636.09 342.675   3
  -7   2   8 1002.09 272.656   1
   7  -2  -8 678.497 222.862   2
   7  -2  -8 855.548 321.388   3
  -7   2   8 1240.44 297.616   7
  -7   2   7 1278.04 324.077   1
   7  -2  -7 899.952 222.240   2
   7  -2  -7 2059.56 397.746   3
  -7   2   7 1618.06 355.398   7
   7  -2  -6 6876.61 621.795   3
  -7   2   6 4982.34 526.539   7
  -7   2   6 6294.98 570.648   1
   7  -2  -6 6653.89 536.382   2
  -7   2   5 1783.64 336.293   1
   7  -2  -5 1628.35 265.782   2
   7  -2  -5 2004.07 354.413   3
  -7   2   5 1805.84 303.414   7
  -7   2   4 3881.16 433.195   1
   7  -2  -4 3534.35 443.194   3
  -7   2   4 3606.42 441.323   7
   7  -2  -4 3833.32 399.812   2
   7  -2  -3 17306.5 930.903   3
  -7   2   3 18362.9 968.450   7
  -7   2   3 17013.1 912.649   1
   7  -2  -3 17320.3 833.065   2
  -7   2   2 905.117 231.782   1
   7  -2  -2 570.643 165.373   2
   7  -2  -2 1144.61 291.047   3
  -7   2   2 790.055 235.893   7
  -7   2   2 989.657 221.990   6
   7  -2  -1 10.4924 141.932   2
   7  -2  -1 474.452 228.319   3
  -7   2   1-104.416 211.202   7
  -7   2   1 80.6587 174.911   1
   7  -2   0 18489.8 933.529   3
  -7   2   0 18819.6 946.145   7
  -7   2   0 17286.0 894.177   1
   7  -2   0 16952.3 821.623   2
   7  -2   1 5216.56 486.866   3
  -7   2  -1 5766.26 519.621   7
  -7   2  -1 6587.61 553.954   1
   7  -2   1 6052.26 488.267   2
   7  -2   2 540.144 195.238   2
   7  -2   2 299.986 174.522   3
  -7   2  -2 329.600 172.241   7
  -7   2  -2 377.877 202.114   1
   7  -2   3 10432.9 685.207   3
  -7   2  -3 10735.9 673.139   7
  -7   2  -3 10960.9 698.418   1
   7  -2   3 10924.8 692.341   2
   7  -2   4 508.398 156.572   2
   7  -2   4 674.114 204.770   3
  -7   2  -4 323.259 171.839   7
  -7   2  -4 290.645 189.626   1
   7  -2   5 1897.65 312.825   3
  -7   2  -5 2575.17 331.664   7
  -7   2  -5 1719.43 301.386   1
   7  -2   6 3520.26 434.748   2
   7  -2   6 3217.60 387.256   3
  -7   2  -6 3821.64 418.847   1
   7  -2   7 1738.91 323.753   2
  -7   2  -7 1539.29 300.701   5
  -7   2  -7 2339.38 336.323   1
   7  -2   8 1275.69 319.920   2
  -7   2  -8 708.732 203.698   5
  -7   2  -8 1214.89 255.888   1
  -7   1  10 175.745 165.001   1
   7  -1 -10-89.1104 228.098   3
  -7   1   9 714.666 287.398   1
   7  -1  -9 574.771 277.425   3
  -7   1   8 2090.19 355.345   1
   7  -1  -8 2000.83 318.199   2
   7  -1  -8 2290.56 374.835   3
  -7   1   7 471.843 232.791   1
   7  -1  -7 789.394 235.160   2
  -7   1   7 707.332 229.517   7
   7  -1  -7 959.511 296.377   3
  -7   1   6 3615.83 424.622   1
   7  -1  -6 3262.08 356.803   2
   7  -1  -6 3519.36 457.640   3
  -7   1   6 2950.85 408.797   7
  -7   1   5 1067.95 250.319   1
   7  -1  -5 1336.26 231.139   2
   7  -1  -5 1771.19 347.718   3
  -7   1   5 1622.71 310.643   7
  -7   1   5 1611.65 272.648   6
   7  -1  -4 11015.6 732.584   3
  -7   1   4 11171.3 739.333   7
  -7   1   4 10682.9 665.372   6
  -7   1   4 11962.8 746.142   1
   7  -1  -4 11072.5 625.654   2
   7  -1  -3 187.216 140.384   2
   7  -1  -3 517.870 225.431   3
  -7   1   3-89.8606 194.168   7
  -7   1   3-8.77917 124.462   6
  -7   1   3 344.542 195.375   1
  -7   1   2 4470.91 452.862   7
   7  -1  -2 3996.69 447.789   3
  -7   1   2 4262.95 423.232   6
   7  -1  -2 3953.16 368.681   2
  -7   1   2 4447.85 442.081   1
   7  -1  -1 22846.1 1025.64   3
  -7   1   1 21610.1 997.500   7
  -7   1   1 22913.8 1008.13   1
   7  -1  -1 20950.0 856.954   2
   7  -1   0 5167.59 487.813   3
  -7   1   0 4419.62 444.590   7
  -7   1   0 4256.35 439.393   1
   7  -1   0 4140.27 381.124   2
   7  -1   1 45.5067 118.987   2
   7  -1   1-131.436 239.768   3
  -7   1  -1-92.8183 144.153   7
  -7   1  -1 141.650 174.709   1
   7  -1   2 27630.8 1113.39   3
  -7   1  -2 29223.9 1123.28   7
  -7   1  -2 31037.3 1180.34   1
   7  -1   2 30032.7 1070.26   2
   7  -1   3 6465.08 534.758   3
  -7   1  -3 7409.01 545.758   7
  -7   1  -3 6901.82 557.550   1
   7  -1   3 7313.13 528.581   2
   7  -1   4 836.770 197.463   2
  -7   1  -4 866.991 195.495   7
   7  -1   4 635.402 208.501   3
  -7   1  -4 915.063 229.788   1
   7  -1   5 9532.14 645.665   3
  -7   1  -5 11068.9 689.774   1
   7  -1   5 11142.2 680.170   2
  -7   1  -5 9109.36 560.072   5
   7  -1   6 6947.81 556.396   3
   7  -1   6 8205.29 605.359   2
  -7   1  -6 7124.32 523.677   5
   7  -1   7 90.6125 163.787   2
   7  -1   7 81.7371 186.548   3
  -7   1  -7 256.399 191.054   1
  -7   1  -7 97.5885 153.264   5
  -7   1  -8 3767.41 418.054   1
  -7   1  -8 4187.71 440.631   5
   7  -1   8 3273.60 426.538   2
  -7   1  -9 1843.29 306.892   1
   7  -1   9 1489.79 311.520   2
  -7   0  10-60.8815 171.216   1
   7   0 -10 22.7567 210.578   3
  -7   0   9 806.633 235.405   1
   7   0  -9 425.687 199.803   3
  -7   0   9 875.364 241.891   6
  -7   0   8 156.158 186.881   1
   7   0  -8 82.2248 199.280   3
  -7   0   8-155.328 139.481   6
  -7   0   7 4011.24 443.392   1
   7   0  -7 3054.65 416.772   3
  -7   0   7 3431.45 418.460   6
   7   0  -6 16530.6 890.580   3
  -7   0   6 15379.5 837.373   6
  -7   0   6 15682.9 849.318   1
  -7   0   5 3559.39 415.921   1
   7   0  -5 3402.87 413.676   3
  -7   0   5 3772.34 408.132   6
   7   0  -5 3654.68 344.710   2
   7   0  -4 7148.72 570.119   3
  -7   0   4 7002.03 551.731   6
  -7   0   4 6500.35 530.156   1
   7   0  -4 6665.23 446.957   2
   7   0  -3 56578.9 1711.22   3
  -7   0   3 62250.0 1757.63   6
  -7   0   3 62490.4 1747.54   1
   7   0  -3 58955.7 1467.74   2
   7   0  -2-114.424 140.634   2
  -7   0   2 71.4944 161.115   7
   7   0  -2 233.042 225.721   3
  -7   0   2-124.492 175.743   6
  -7   0   2 69.8691 176.192   1
   7   0  -1 21688.0 971.899   3
  -7   0   1 20558.0 937.487   7
  -7   0   1 20579.3 931.605   1
   7   0  -1 19511.7 752.996   2
   7   0   0 42808.8 1403.68   3
  -7   0   0 42382.8 1380.60   7
  -7   0   0 42248.1 1387.36   1
   7   0   0 40792.4 1160.38   2
   7   0   1 743.469 153.055   2
   7   0   1 1178.94 278.161   3
  -7   0  -1 572.475 204.816   1
   7   0   2 13028.9 737.322   3
  -7   0  -2 13133.3 738.511   1
   7   0   2 12033.1 610.987   2
   7   0   3 82627.0 2066.08   3
  -7   0  -3 80747.2 2059.66   1
   7   0   3 80161.3 1869.90   2
   7   0   4 6610.75 535.288   3
  -7   0  -4 6100.07 522.313   1
   7   0   4 6118.62 461.618   2
   7   0   5 10069.4 650.147   3
  -7   0  -5 9893.60 640.978   1
   7   0   5 10216.3 619.090   2
  -7   0  -5 8802.60 523.668   5
  -7   0  -6 31690.9 1182.38   1
   7   0   6 30095.0 1132.51   2
  -7   0  -6 29329.3 1041.07   5
   7   0   6 27767.5 1133.49   3
   7   0   7 1519.91 302.812   3
  -7   0  -7 2182.33 316.554   1
  -7   0  -7 1615.39 259.011   5
   7   0   7 2250.27 336.930   2
   7   0   8 3993.38 428.246   3
   7   0   8 4574.11 465.430   2
  -7   0  -8 4132.17 430.666   1
  -7   0  -8 3462.93 381.683   5
  -7   0  -9 14443.1 815.488   1
   7   0   9 14374.7 868.486   2
  -7   0  -9 13055.3 771.934   5
  -7   0 -10 1015.50 241.556   1
  -7   0 -10 1284.64 292.281   5
   7   0  10 1119.97 282.133   2
   7   1 -10 1735.01 311.115   3
  -7  -1  10 1367.12 313.117   6
  -7  -1   9 2964.48 374.980   1
   7   1  -9 3826.88 461.020   3
  -7  -1   9 3920.05 480.269   6
  -7  -1   8 529.764 198.582   1
   7   1  -8 635.087 200.058   3
  -7  -1   8 616.814 177.395   6
   7   1  -7 3815.33 436.046   3
  -7  -1   7 4289.69 476.962   6
  -7  -1   7 4003.54 432.609   1
   7   1  -6 12879.4 759.403   3
  -7  -1   6 13485.3 809.342   6
  -7  -1   6 15361.8 807.864   1
   7   1  -5 10247.2 674.272   3
  -7  -1   5 10396.3 694.267   6
  -7  -1   5 10072.7 644.827   1
   7   1  -4 2840.95 379.594   3
  -7  -1   4 3679.17 418.779   6
  -7  -1   4 2910.92 367.345   1
   7   1  -3 52335.8 1571.20   3
  -7  -1   3 51490.2 1614.55   6
  -7  -1   3 50282.9 1526.30   1
   7   1  -2 34343.7 1219.86   3
  -7  -1   2 32644.7 1232.37   6
  -7  -1   2 32589.7 1182.00   1
   7   1  -2 31231.1 901.658   2
   7   1  -1 760.937 124.182   2
   7   1  -1 1027.79 263.191   3
  -7  -1   1 829.506 242.891   6
  -7  -1   1 1429.81 261.411   1
   7   1   0 50404.4 1511.74   3
  -7  -1   0 50649.3 1505.66   1
   7   1   0 48236.1 1186.99   2
   7   1   1 28885.5 1116.79   3
  -7  -1  -1 31131.3 1143.94   1
   7   1   1 29886.1 897.205   2
   7   1   2 168.684 119.628   2
   7   1   2 330.090 189.632   3
  -7  -1  -2 67.8933 159.354   1
   7   1   3 19062.4 883.746   3
  -7  -1  -3 19120.9 879.698   1
   7   1   3 17350.8 705.270   2
   7   1   4 19508.2 914.783   3
  -7  -1  -4 20883.7 933.445   1
   7   1   4 19591.1 779.170   2
  -7  -1  -4 18314.0 714.697   5
   7   1   5 749.248 195.104   2
   7   1   5 429.971 191.810   3
  -7  -1  -5 911.759 197.991   5
  -7  -1  -6 22982.1 998.233   1
   7   1   6 21396.9 904.014   2
  -7  -1  -6 22357.2 877.191   5
   7   1   6 22825.1 1010.28   3
  -7  -1  -7 12019.1 715.580   1
   7   1   7 12693.9 714.421   2
  -7  -1  -7 12040.7 664.325   5
   7   1   7 12021.0 732.007   3
   7   1   8 85.6382 161.869   3
  -7  -1  -8-152.049 151.274   1
  -7  -1  -8 29.3064 123.793   5
   7   1   8 357.160 191.383   2
  -7  -1  -9 5456.16 503.195   1
   7   1   9 5813.27 533.052   2
  -7  -1  -9 5401.23 498.234   5
   7   1   9 6537.80 569.013   3
  -7  -1 -10 3012.67 405.437   1
  -7  -1 -10 2604.52 367.635   5
   7   1  10 3620.30 439.246   2
  -7  -1 -11 163.568 189.111   1
  -7  -1 -11-331.872 208.169   5
   7   1  11 6.93412 156.958   2
   7   2 -10-75.1526 182.986   3
  -7  -2  10 140.491 224.651   6
   7   2  -9 2337.78 345.752   3
  -7  -2   9 2209.50 387.749   6
   7   2  -8 6591.03 550.498   3
  -7  -2   8 7736.34 665.901   6
  -7  -2   8 6035.34 504.163   1
  -7  -2   7 2205.02 322.802   1
   7   2  -7 2393.99 340.824   3
  -7  -2   7 2040.37 350.462   6
   7   2  -6 5315.28 468.800   3
  -7  -2   6 5200.40 520.282   6
  -7  -2   6 4582.71 435.062   1
   7   2  -5 19630.9 893.777   3
  -7  -2   5 19026.5 981.705   6
  -7  -2   5 17868.2 832.960   1
   7   2  -4 996.557 239.166   3
  -7  -2   4 1336.30 289.422   6
  -7  -2   4 613.844 176.705   1
   7   2  -3 737.669 224.743   3
  -7  -2   3 312.510 209.145   6
  -7  -2   3 283.177 172.371   1
   7   2  -2 2691.05 335.003   3
  -7  -2   2 1486.40 286.057   6
   7   2  -1 7168.29 519.674   3
  -7  -2   1 7123.49 516.626   1
  -7  -2   1 7097.52 573.111   6
   7   2   0 70.8032 158.073   3
  -7  -2   0-11.3357 142.250   1
   7   2   1 28536.8 1097.56   3
  -7  -2  -1 30896.6 891.849  10
  -7  -2  -1 30877.9 1107.84   1
   7   2   1 28390.8 791.971   2
   7   2   2-16.0598 77.4060   2
  -7  -2  -2-32.4682 94.3257  10
   7   2   2-265.204 224.056   3
  -7  -2  -2 115.832 147.764   1
   7   2   3 1031.06 159.734   2
  -7  -2  -3 1146.24 199.265  10
   7   2   3 1250.23 263.042   3
  -7  -2  -3 1301.43 266.803   1
   7   2   4 33827.5 1211.23   3
   7   2   4 31180.4 1172.30   8
  -7  -2  -4 33754.2 1190.87   1
   7   2   4 30123.9 942.044   2
   7   2   5 4021.96 421.474   8
   7   2   5 4052.71 417.148   3
  -7  -2  -5 4441.85 428.416   1
   7   2   5 4325.24 353.466   2
   7   2   6 2247.84 336.261   3
   7   2   6 3019.76 373.162   8
  -7  -2  -6 2961.93 379.568   1
   7   2   6 3054.82 327.017   2
   7   2   7 3226.16 401.296   3
   7   2   7 3073.55 382.182   8
  -7  -2  -7 3528.59 411.951   1
   7   2   7 3214.07 349.408   2
   7   2   8 1542.44 284.747   3
   7   2   8 1942.88 315.739   8
  -7  -2  -8 2055.78 331.402   1
   7   2   8 2345.72 329.195   2
   7   2   9 1187.82 299.576   3
   7   2   9 1049.45 243.305   8
  -7  -2  -9 1087.23 287.657   1
   7   2   9 1288.15 266.654   2
   7   2  10 1593.32 338.705   3
   7   2  10 1986.13 336.960   8
  -7  -2 -10 1910.19 341.283   1
   7   2  10 1974.05 339.657   2
   7   2  11 976.478 267.821   8
  -7  -2 -11 1266.20 278.199   1
   7   2  11 843.857 271.026   2
  -7  -3  10 847.352 302.151   6
   7   3  -9 10.0347 149.935   3
  -7  -3   9 567.055 291.481   6
   7   3  -8 2236.15 345.882   3
  -7  -3   8 2434.27 441.027   6
  -7  -3   7 130.698 140.025   1
   7   3  -7 316.357 194.863   3
  -7  -3   7-132.896 191.625   6
   7   3  -6 433.585 200.828   3
  -7  -3   6 338.475 200.906   6
   7   3  -5 499.686 211.351   3
  -7  -3   5 192.607 180.806   6
  -7  -3   5 469.929 186.626   1
   7   3  -4-163.914 159.166   3
  -7  -3   4-149.621 186.801   6
  -7  -3   4 72.7534 164.232   1
   7   3  -3 9247.26 590.722   3
  -7  -3   3 10315.2 707.647   6
  -7  -3   3 9765.26 595.420   1
   7   3  -2 2830.91 328.480   3
  -7  -3   2 3153.80 407.414   6
  -7  -3   2 2398.64 308.177   1
   7   3  -1-93.5980 152.641   3
  -7  -3   1 101.092 154.980   6
  -7  -3   1 56.9065 156.777   1
   7   3   0 47326.2 1424.35   3
  -7  -3   0 46526.6 1397.37   1
  -7  -3   0 46172.0 1540.93   6
   7   3   1 3486.28 379.547   3
  -7  -3  -1 2280.25 306.824   1
   7   3   2 6344.22 503.198   3
   7   3   2 7181.60 528.512   8
  -7  -3  -2 6947.04 514.413   1
   7   3   3 21475.7 943.587   3
   7   3   3 21759.8 941.435   8
  -7  -3  -3 19789.0 911.102   1
  -7  -3  -4 4834.10 395.956  10
   7   3   4 4830.25 468.910   8
  -7  -3  -4 4915.05 469.906   1
   7   3   4 4570.19 320.284   2
   7   3   4 5229.22 474.103   3
  -7  -3  -5 35.2732 139.106  10
   7   3   5 90.9137 161.105   3
   7   3   5 230.705 165.070   8
  -7  -3  -5 214.851 173.546   1
   7   3   5 138.999 122.223   2
  -7  -3  -6 29372.1 1097.78  10
   7   3   6 31910.0 1202.02   8
  -7  -3  -6 31490.1 1197.74   1
   7   3   6 30236.5 1002.16   2
   7   3   6 29623.5 1188.75   3
  -7  -3  -7-90.4008 181.742  10
   7   3   7 135.766 199.049   3
   7   3   7 91.0440 160.702   8
  -7  -3  -7 338.086 181.091   1
   7   3   7 272.487 161.560   2
  -7  -3  -8 465.664 186.687  10
   7   3   8 310.347 230.086   3
   7   3   8 184.421 160.591   8
  -7  -3  -8 246.089 168.977   1
   7   3   8 329.292 162.689   2
  -7  -3  -9 15321.3 859.748  10
   7   3   9 16442.6 881.529   8
  -7  -3  -9 15564.2 857.782   1
   7   3   9 14726.7 788.060   2
   7   3   9 14130.5 855.422   3
  -7  -3 -10 362.117 158.216  10
   7   3  10 937.401 286.925   3
   7   3  10 1164.21 271.540   8
  -7  -3 -10 634.781 240.147   1
   7   3  10 744.131 221.121   2
  -7  -3 -11-245.794 217.924  10
   7   3  11-11.9690 198.858   3
   7   3  11 122.890 162.944   8
  -7  -3 -11 361.902 199.431   1
   7   3  11 18.4916 154.659   2
  -7  -4  10 562.978 295.899   6
  -7  -4   9 4894.95 605.453   6
   7   4  -8 566.641 206.406   3
  -7  -4   8-199.526 232.242   6
   7   4  -7 2682.22 346.018   3
  -7  -4   7 2258.39 401.617   6
   7   4  -6 4347.74 409.953   3
  -7  -4   6 4386.33 390.401   1
  -7  -4   6 4814.59 541.220   6
   7   4  -5 5121.85 423.727   3
  -7  -4   5 5292.95 539.480   6
  -7  -4   5 5234.03 434.916   1
   7   4  -4 2610.16 333.668   3
  -7  -4   4 2640.65 394.139   6
  -7  -4   4 2769.09 313.760   1
   7   4  -3 20725.1 892.073   3
  -7  -4   3 22411.2 894.136   1
  -7  -4   3 22410.9 1087.12   6
   7   4  -2 9515.59 601.181   3
  -7  -4   2 8878.02 557.549   1
  -7  -4   2 9505.07 695.955   6
   7   4  -1 4164.57 400.970   3
  -7  -4   1 4569.30 406.207   1
  -7  -4   1 4305.90 460.370   6
   7   4   0 10837.3 638.784   3
  -7  -4   0 10017.7 607.187   1
  -7  -4   0 10858.8 722.165   6
   7   4   1 12337.5 691.766   3
   7   4   1 11423.0 657.052   8
  -7  -4  -1 11988.3 670.609   1
  -7  -4  -1 12086.0 768.599   6
   7   4   2 166.153 129.702   8
   7   4   2 484.714 181.660   3
  -7  -4  -2-18.2979 154.159   1
   7   4   3 34080.8 1222.28   8
  -7  -4  -3 36581.2 1251.42   1
   7   4   3 33901.6 1228.93   3
   7   4   4 37387.9 1303.56   8
  -7  -4  -4 39071.2 1325.06   1
   7   4   4 40552.7 1358.73   3
   7   4   5 389.069 221.758   3
   7   4   5 71.5692 145.587   8
  -7  -4  -5 153.057 203.885   1
   7   4   6 29563.6 1150.38   8
  -7  -4  -6 29881.8 1170.23   1
   7   4   6 28054.3 920.635   2
   7   4   6 28721.1 1170.10   3
  -7  -4  -7 27125.1 1067.51  10
   7   4   7 31244.3 1199.56   8
  -7  -4  -7 30499.7 1206.88   1
   7   4   7 28900.8 996.123   2
   7   4   7 30390.3 1236.84   3
  -7  -4  -8 34.9477 128.171  10
   7   4   8 155.434 192.538   3
   7   4   8-62.8471 155.562   8
  -7  -4  -8 37.5641 184.185   1
   7   4   8 7.47944 135.134   2
  -7  -4  -9 3135.38 401.452  10
   7   4   9 4712.24 514.775   3
   7   4   9 4496.31 475.494   8
  -7  -4  -9 5195.38 515.303   1
   7   4   9 4185.94 410.949   2
  -7  -4 -10 8692.02 663.598  10
   7   4  10 10208.2 722.805   8
  -7  -4 -10 9062.88 701.076   1
   7   4  10 9190.64 642.243   2
   7   4  10 9903.37 734.737   3
  -7  -4 -11 562.562 236.569  10
   7   4  11 757.911 301.441   3
   7   4  11 305.994 213.382   8
  -7  -4 -11 718.239 257.158   1
   7   4  12 2851.63 473.407   3
   7   4  12 2370.32 377.212   8
  -7  -4 -12 2096.79 347.717   1
  -7  -4 -12 2604.47 445.126   3
  -7  -5   9 805.533 322.621   6
  -7  -5   8 2006.13 408.192   6
  -7  -5   7 260.712 205.776   6
   7   5  -6 3882.99 382.072   3
  -7  -5   6 3400.20 484.814   6
   7   5  -5 15253.7 739.797   3
  -7  -5   5 16064.8 972.854   6
  -7  -5   5 14067.7 686.921   1
   7   5  -4-61.7497 141.777   3
  -7  -5   4 44.5081 171.294   6
  -7  -5   4-77.7691 154.415   1
   7   5  -3 6413.28 478.586   3
  -7  -5   3 5446.07 428.138   1
  -7  -5   3 7144.87 630.451   6
   7   5  -2 42429.8 1314.06   3
  -7  -5   2 42284.5 1279.07   1
  -7  -5   2 42302.7 1536.22   6
   7   5  -1 4221.55 387.841   8
   7   5  -1 3869.02 384.675   3
  -7  -5   1 3923.35 384.362   1
  -7  -5   1 4384.47 489.067   6
   7   5   0 9039.60 589.386   3
   7   5   0 9354.71 583.350   8
  -7  -5   0 9471.00 586.464   1
  -7  -5   0 9369.78 682.729   6
   7   5   1 43501.5 1362.14   8
  -7  -5  -1 44419.0 1367.29   1
  -7  -5  -1 42951.2 1505.71   6
   7   5   1 41243.3 1346.51   3
   7   5   2 300.730 176.751   8
   7   5   2 69.4548 162.457   3
  -7  -5  -2 286.982 164.513   1
   7   5   3 6749.19 516.128   8
  -7  -5  -3 6524.32 515.799   1
   7   5   3 6513.60 522.964   3
   7   5   4 39796.5 1338.28   8
  -7  -5  -4 40258.0 1374.84   1
   7   5   4 39966.9 1375.95   3
   7   5   5 4350.50 450.354   8
   7   5   5 3723.17 428.670   3
  -7  -5  -5 3929.50 445.445   1
   7   5   6-173.921 173.186   3
   7   5   6 54.3362 153.231   8
  -7  -5  -6 419.351 204.179   1
   7   5   7 16051.7 862.592   8
  -7  -5  -7 15567.5 871.167   1
   7   5   7 16318.1 902.322   3
   7   5   8 116.674 183.557   3
   7   5   8-20.1848 169.507   8
  -7  -5  -8-46.0496 169.504   1
   7   5   9 492.230 272.382   3
   7   5   9-54.1419 171.322   8
  -7  -5  -9 690.480 229.589   1
   7   5  10 4141.16 506.518   3
   7   5  10 5051.85 517.267   8
  -7  -5 -10 4605.57 515.255   1
   7   5  11 168.743 285.371   3
   7   5  11 568.259 237.265   8
  -7  -5 -11 888.549 293.721   1
   7   5  12-458.231 298.378   3
   7   5  12 61.2337 176.062   8
  -7  -5 -12 441.813 207.589   1
  -7  -5 -12-426.468 294.359   3
   7   6  -9 119.162 166.250   9
  -7  -6   9-252.423 253.490   6
   7   6  -8 1944.05 332.630   9
  -7  -6   8 2704.35 477.926   6
   7   6  -7 1491.91 276.080   9
  -7  -6   7 2861.59 476.811   6
   7   6  -6 351.499 148.236   9
  -7  -6   6 182.224 219.328   6
   7   6  -5 4521.86 392.148   3
   7   6  -5 3897.27 393.197   9
  -7  -6   5 4225.31 540.192   6
   7   6  -4 4266.50 395.468   3
   7   6  -4 3044.65 336.449   9
  -7  -6   4 3627.26 344.176   1
  -7  -6   4 3908.80 495.641   6
   7   6  -3 71.4193 141.449   3
  -7  -6   3 43.3239 194.484   6
  -7  -6   3 118.665 116.913   1
  -7  -6   2 5639.83 439.042   1
  -7  -6   2 6824.29 631.664   6
   7   6  -2 6076.17 483.555   3
   7   6  -1 3788.24 365.363   8
   7   6  -1 3873.22 389.384   3
  -7  -6   1 3664.09 360.730   1
  -7  -6   1 4103.65 477.169   6
   7   6   0 3506.10 365.661   8
   7   6   0 3218.22 360.352   3
  -7  -6   0 2715.22 323.651   1
  -7  -6   0 3624.88 461.488   6
   7   6   1 43586.1 1370.45   8
  -7  -6  -1 45990.4 1412.38   1
  -7  -6  -1 46787.5 1598.92   6
   7   6   1 45184.1 1424.61   3
   7   6   2 24624.5 993.442   8
  -7  -6  -2 23575.8 992.613   1
  -7  -6  -2 23778.4 1111.46   6
   7   6   2 23938.2 1018.05   3
   7   6   3 4369.30 435.742   8
  -7  -6  -3 4720.65 465.140   1
   7   6   3 5350.11 486.838   3
   7   6   4 4546.00 446.954   8
  -7  -6  -4 5118.71 494.996   1
   7   6   4 4754.71 478.568   3
   7   6   5 2805.34 385.745   3
   7   6   5 3518.54 424.878   8
  -7  -6  -5 3707.09 435.818   1
   7   6   6 4281.60 452.439   8
   7   6   6 3782.20 435.663   3
  -7  -6  -6 3642.49 429.895   1
   7   6   7-110.837 207.996   3
   7   6   7 371.722 214.980   8
  -7  -6  -7 20.7478 174.577   1
   7   6   8 2193.77 389.308   3
   7   6   8 1982.62 341.334   8
  -7  -6  -8 2205.76 381.409   1
   7   6   9 3274.22 488.467   3
   7   6   9 3790.10 463.538   8
  -7  -6  -9 4820.05 526.140   1
   7   6  10-67.7454 199.110   3
   7   6  10 24.3644 185.083   8
  -7  -6 -10-33.9879 224.662   1
   7   6  11-9.70239 251.554   3
   7   6  11 215.326 219.434   8
  -7  -6 -11 42.5374 193.745   1
  -7  -6 -11-128.906 216.114   3
   7   6  12 1189.72 355.801   3
   7   6  12 1398.50 316.983   8
  -7  -6 -12 1250.78 324.749   1
  -7  -6 -12 1408.17 323.391   3
   7   7  -8 174.721 188.596   9
  -7  -7   8-52.1054 254.767   6
   7   7  -7-27.1407 148.065   9
  -7  -7   7-26.8543 248.942   6
   7   7  -6 1174.26 279.053   9
  -7  -7   6 923.593 324.592   6
   7   7  -5 631.298 199.032   9
  -7  -7   5 925.094 310.677   6
   7   7  -4 1995.35 287.284   3
  -7  -7   4 1543.00 350.783   6
   7   7  -3-97.9992 165.911   3
  -7  -7   3-159.193 143.811   1
  -7  -7   3 138.351 190.257   6
   7   7  -2 2488.61 310.806   3
   7   7  -2 2621.28 306.821   8
  -7  -7   2 3336.78 354.966   1
  -7  -7   2 3334.32 470.340   6
   7   7  -1 8977.41 567.896   8
  -7  -7   1 9187.27 568.884   1
  -7  -7   1 9582.78 734.949   6
   7   7  -1 9556.70 618.564   3
   7   7   0 3060.47 359.981   3
   7   7   0 3141.13 342.819   8
  -7  -7   0 3026.70 363.655   1
  -7  -7   0 3003.78 433.677   6
   7   7   1 29726.3 1106.02   8
  -7  -7  -1 30207.6 1151.46   1
  -7  -7  -1 30374.1 1321.37   6
   7   7   1 29808.5 1142.68   3
   7   7   2 724.162 206.136   3
   7   7   2 728.268 226.669   8
  -7  -7  -2 878.177 213.138   1
  -7  -7  -2 772.064 250.285   6
   7   7   3 1525.52 289.254   3
   7   7   3 2300.84 321.255   8
  -7  -7  -3 2411.10 346.667   1
  -7  -7  -3 2251.64 367.277   6
   7   7   4 8718.53 622.881   8
  -7  -7  -4 8431.39 638.651   1
   7   7   4 8929.04 651.158   3
   7   7   5 20.4569 155.966   3
   7   7   5 204.018 167.977   8
  -7  -7  -5 158.855 179.277   1
   7   7   6 5920.82 538.180   8
   7   7   6 5774.77 495.655   7
  -7  -7  -6 6278.87 571.036   1
   7   7   6 6063.84 574.582   3
   7   7   7 8619.05 658.896   8
   7   7   7 8481.55 600.099   7
  -7  -7  -7 8782.30 689.012   1
   7   7   7 10386.8 755.551   3
   7   7   8 266.307 212.145   3
   7   7   8 514.751 228.107   8
  -7  -7  -8 366.468 245.900   1
   7   7   8 229.044 162.522   7
   7   7   9 2688.25 425.471   3
  -7  -7  -9 2789.70 440.829   1
   7   7  10 3761.63 503.840   3
  -7  -7 -10 3812.10 488.234   1
  -7  -7 -10 3812.71 466.359   3
   7   7  11-22.3485 260.112   3
  -7  -7 -11 45.1991 193.982   1
  -7  -7 -11 126.588 212.613   3
   7   8  -7-49.9870 150.259   9
   7   8  -7 181.321 246.023   7
  -7  -8   7 281.550 224.236   6
   7   8  -6 25.0003 168.426   9
   7   8  -6-293.043 180.486   7
  -7  -8   6-20.2026 240.313   6
   7   8  -5 3063.36 391.810   9
   7   8  -5 3494.47 461.462   7
  -7  -8   5 2796.34 475.602   6
  -7  -8   4 1119.17 285.513   6
   7   8  -3 1640.18 268.502   3
  -7  -8   3 1675.38 347.276   6
   7   8  -2 13852.2 689.773   8
  -7  -8   2 13385.4 692.846   1
  -7  -8   2 13466.7 895.997   6
   7   8  -2 13103.8 710.073   3
   7   8  -1 5047.97 430.564   8
  -7  -8   1 5342.46 456.229   1
  -7  -8   1 4900.08 547.808   6
   7   8  -1 5365.64 473.515   3
   7   8   0 2059.60 315.772   3
   7   8   0 2593.56 313.476   8
  -7  -8   0 2684.85 328.917   1
  -7  -8   0 2751.51 435.452   6
   7   8   1 10109.9 628.631   8
  -7  -8  -1 8906.69 617.007   1
  -7  -8  -1 10536.0 763.687   6
   7   8   1 10571.5 675.713   3
   7   8   2 3484.51 398.776   8
   7   8   2 3627.26 406.298   3
  -7  -8  -2 3947.05 440.469   1
   7   8   2 3473.04 428.274   7
  -7  -8  -2 3568.78 454.410   6
   7   8   3 1767.71 301.342   3
   7   8   3 2128.09 324.823   8
  -7  -8  -3 2185.97 348.463   1
   7   8   3 2060.44 353.464   7
  -7  -8  -3 1813.50 335.342   6
   7   8   4 23956.3 1058.98   8
   7   8   4 22943.5 1037.79   7
  -7  -8  -4 23278.5 1078.28   1
  -7  -8  -4 24562.7 1154.11   6
   7   8   4 26075.5 1152.57   3
   7   8   5 4724.75 484.761   8
  -7  -8  -5 4643.69 515.704   1
   7   8   5 3821.12 430.004   7
  -7  -8  -5 5054.00 534.362   6
   7   8   5 4970.72 538.980   3
   7   8   6 101.218 194.644   3
  -7  -8  -6 398.863 221.842   1
   7   8   6 135.815 145.535   7
   7   8   7 8268.25 615.249   7
  -7  -8  -7 9915.37 757.247   1
   7   8   7 10625.0 789.012   3
  -7  -8  -8 5209.79 526.519   3
   7   8   8 4241.29 531.405   3
  -7  -8  -8 4920.84 568.634   1
   7   8   8 4042.72 423.987   7
   7   8   8 4889.47 540.659   1
   7   8   9-195.664 245.953   3
   7   8   9 302.020 194.372   1
  -7  -8  -9-57.1300 228.230   1
  -7  -8  -9 206.307 222.884   3
   7   8  10 3641.71 516.962   3
   7   8  10 3750.01 520.871   1
  -7  -8 -10 3658.68 523.541   1
  -7  -8 -10 3811.86 504.369   3
   7   8  11 486.930 290.864   3
  -7  -8 -11 547.149 238.071   1
  -7  -8 -11 197.769 185.200   3
   7   8  11 516.385 288.326   1
   7   9  -6 728.520 276.385   9
   7   9  -6-232.315 257.661   7
  -7  -9   6 364.214 290.234   6
   7   9  -5 3741.96 512.551   7
  -7  -9   5 5483.85 651.816   6
   7   9  -4 2597.66 418.322   7
  -7  -9   4 2534.51 445.727   6
   7   9  -3 492.414 221.565   7
  -7  -9   3 610.233 255.971   6
   7   9  -2 7626.06 666.440   7
  -7  -9   2 7193.87 683.794   6
   7   9  -1 11167.6 638.634   8
   7   9  -1 11377.2 791.907   7
  -7  -9   1 9780.01 622.172   1
  -7  -9   1 11483.1 840.752   6
   7   9  -1 12066.6 696.195   3
   7   9   0-192.112 180.590   3
   7   9   0-34.1965 153.362   8
   7   9   0-92.6539 209.729   7
  -7  -9   0 520.423 215.542   1
  -7  -9   0-50.3483 197.367   6
   7   9   1 6310.26 510.594   8
   7   9   1 6536.36 588.812   7
  -7  -9  -1 6084.52 517.853   1
  -7  -9  -1 6356.42 610.543   6
   7   9   1 6735.41 554.402   3
   7   9   2 9079.81 623.307   8
   7   9   2 10382.4 737.151   7
  -7  -9  -2 8246.24 628.975   1
  -7  -9  -2 9914.15 735.167   6
   7   9   2 9485.52 681.529   3
   7   9   3 8.98635 219.188   3
   7   9   3 155.753 179.265   8
  -7  -9  -3-53.8833 170.080   1
   7   9   3 169.493 157.803   7
  -7  -9  -3 116.051 187.395   6
   7   9   4 2736.61 400.031   3
  -7  -9  -4 2443.57 397.339   1
   7   9   4 2287.48 375.743   7
  -7  -9  -4 2633.74 406.453   6
   7   9   5 5152.62 546.107   3
   7   9   5 6645.53 608.352   1
   7   9   5 6606.36 584.932   7
  -7  -9  -5 5616.82 555.593   1
  -7  -9  -5 6081.08 586.545   6
   7   9   6 1174.70 290.842   1
   7   9   6 496.140 259.693   3
  -7  -9  -6 25.6515 206.716   1
   7   9   6 1444.58 322.464   7
  -7  -9  -6 966.979 268.218   6
   7   9   7 438.450 257.407   3
  -7  -9  -7 862.333 333.336   1
   7   9   7 304.672 175.928   7
  -7  -9  -7 872.736 259.943   3
   7   9   8 697.800 261.848   3
  -7  -9  -8 541.252 263.907   1
   7   9   8 839.200 236.339   7
   7   9   8 744.599 263.243   1
  -7  -9  -8 654.089 260.171   3
   7   9   9 244.659 263.377   3
   7   9   9 47.9765 217.345   1
  -7  -9  -9 594.189 308.018   1
  -7  -9  -9-223.293 254.614   3
   7   9  10 27.8562 201.620   1
   7   9  10 119.522 256.118   3
  -7  -9 -10 252.559 224.117   1
  -7  -9 -10 594.554 259.149   3
   7  10  -4 565.170 283.594   7
  -7 -10   4 968.173 322.865   6
   7  10  -3 744.194 272.854   7
  -7 -10   3 586.935 273.807   6
   7  10  -2-100.166 193.673   7
  -7 -10   2 114.119 205.337   6
   7  10  -1 1341.89 342.899   7
  -7 -10   1 1709.93 377.662   6
   7  10   0 88.0219 171.637   3
   7  10   0 167.396 149.380   8
   7  10   0-45.7664 191.198   7
   7  10   1 247.341 169.993   3
   7  10   1 220.181 174.568   8
  -7 -10  -1 395.136 218.313   1
   7  10   1 345.928 241.045   7
  -7 -10  -1 181.798 169.003   6
   7  10   2 1243.66 278.595   3
   7  10   2 900.657 239.140   8
  -7 -10  -2 1022.12 253.847   1
   7  10   2 777.426 274.688   7
  -7 -10  -2 1054.69 278.139   6
   7  10   3 182.740 174.493   3
  -7 -10  -3 141.048 205.422   1
   7  10   3-193.844 224.270   7
  -7 -10  -3 143.601 222.066   3
  -7 -10  -3-18.9602 170.490   6
   7  10   4 784.499 273.472   3
  -7 -10  -4 279.134 232.492   1
   7  10   4 414.307 241.449   7
  -7 -10  -4 904.745 257.794   3
   7  10   4 486.138 237.977   1
  -7 -10  -4 759.090 230.882   6
   7  10   5 2434.98 412.674   3
  -7 -10  -5 1154.24 313.379   1
   7  10   5 1862.57 382.531   7
  -7 -10  -5 1908.03 326.372   3
  -7 -10  -5 2099.85 367.045   6
   7  10   5 2274.61 395.527   1
   7  10   6 197.819 217.743   3
   7  10   6 243.550 242.265   1
  -7 -10  -6 137.526 235.859   1
   7  10   6 210.994 187.287   7
  -7 -10  -6-123.002 182.768   3
  -7 -10  -6 388.166 186.457   6
   7  10   7 50.4078 243.172   3
  -7 -10  -7 353.935 323.225   1
   7  10   7 149.132 193.803   7
  -7 -10  -7 317.847 266.498   3
  -7 -10  -7 257.072 185.985   6
   7  10   7 327.332 219.534   1
   7  10   8 1009.21 277.623   3
  -7 -10  -8 699.142 303.088   1
   7  10   8 467.337 243.252   1
   7  10   8 576.707 253.140   7
  -7 -10  -8 897.160 289.870   3
   7  10   9-41.4862 218.156   1
  -7 -10  -9-149.704 266.101   1
  -7 -10  -9 14.5735 198.457   3
  -7 -11   2 1427.06 357.866   6
   7  11  -1 248.865 205.058   7
  -7 -11   1 601.119 224.344   6
   7  11   0 472.822 246.420   7
  -7 -11   0 974.864 293.666   6
   7  11   1 2063.15 383.421   3
   7  11   1 1848.22 305.760   8
   7  11   1 1661.25 383.426   7
  -7 -11  -1 1722.83 356.877   6
   7  11   2-78.5287 215.676   3
   7  11   2-47.5632 173.064   8
  -7 -11  -2 292.608 217.996   1
   7  11   2 300.598 257.368   7
  -7 -11  -2 245.663 176.646   3
  -7 -11  -2-42.0385 230.954   6
   7  11   3-114.802 193.625   3
  -7 -11  -3 77.5535 166.591   1
   7  11   3 232.465 247.293   7
  -7 -11  -3 18.9177 164.954   3
  -7 -11  -3 218.636 191.323   6
   7  11   4 1215.34 319.107   3
  -7 -11  -4 639.854 267.394   1
   7  11   4 1416.59 360.777   7
  -7 -11  -4 714.212 230.072   3
  -7 -11  -4 567.407 237.586   6
   7  11   4 924.982 267.273   1
   7  11   5 268.653 223.978   1
   7  11   5 69.5999 195.251   3
  -7 -11  -5 336.470 207.019   1
   7  11   5 159.095 223.615   7
  -7 -11  -5 276.421 191.396   3
  -7 -11  -5 598.291 240.440   6
   7  11   6 429.798 275.291   3
  -7 -11  -6 23.4375 189.344   1
   7  11   6-197.700 231.073   7
   7  11   6 341.178 195.464   1
  -7 -11  -6 500.595 266.419   3
  -7 -11  -6 110.826 189.590   6
   7  11   7 1687.71 396.665   3
   7  11   7 1579.97 322.025   1
  -7 -11  -7 1368.66 363.491   1
   7  11   7 1623.55 361.252   7
  -7 -11  -7 1761.54 363.779   3
  -7 -11  -7 1137.56 264.337   6
  -8   3   5 282.246 213.755   1
   8  -3  -5 53.3628 159.282   2
  -8   3   4 1156.08 325.237   1
   8  -3  -4 772.621 254.088   2
   8  -3  -4 872.435 312.311   3
  -8   3   4 413.822 233.380   7
  -8   3   3 3952.35 483.923   1
   8  -3  -3 4333.19 463.225   2
   8  -3  -3 4542.69 553.176   3
  -8   3   3 4007.62 507.895   7
  -8   3   2 775.642 264.135   1
   8  -3  -2 887.323 251.585   2
   8  -3  -2 1228.74 348.108   3
  -8   3   2 521.468 265.622   7
   8  -3  -1 528.512 219.158   2
   8  -3  -1 1101.20 298.341   3
  -8   3   1 468.758 258.319   7
  -8   3   0 4686.31 521.755   1
   8  -3   0 3703.23 422.084   2
   8  -3   0 4071.88 487.151   3
  -8   3   0 3093.19 437.341   7
  -8   3  -1 2549.05 398.589   1
   8  -3   1 2387.73 360.013   2
   8  -3   1 2385.20 388.601   3
  -8   3  -1 2472.27 408.980   7
   8  -3   2 97.7927 138.547   2
   8  -3   2 417.164 249.670   3
  -8   3  -2 202.703 219.497   7
  -8   3  -2 384.348 194.267   1
   8  -3   3 4091.23 490.560   2
   8  -3   3 4611.46 497.700   3
  -8   3  -3 4154.73 483.635   7
  -8   3  -3 4404.79 491.739   1
  -8   2   6 1231.39 326.623   1
   8  -2  -6 628.616 253.400   3
  -8   2   6 1355.43 383.418   7
   8  -2  -5 11090.6 814.409   3
  -8   2   5 12918.7 890.810   7
  -8   2   5 11302.9 816.197   1
  -8   2   4 998.464 298.809   1
   8  -2  -4 726.807 211.041   2
   8  -2  -4 672.196 257.655   3
  -8   2   4 906.385 280.860   7
  -8   2   3 426.615 220.646   1
   8  -2  -3 255.705 183.744   2
   8  -2  -3 486.680 246.701   3
  -8   2   3 852.214 281.527   7
   8  -2  -2 24255.3 1180.48   3
  -8   2   2 24098.8 1179.89   7
  -8   2   2 25107.6 1184.90   1
   8  -2  -2 22763.9 1005.03   2
  -8   2   1 4008.01 468.317   1
   8  -2  -1 3685.17 410.165   2
   8  -2  -1 4139.20 508.894   3
  -8   2   1 4169.45 492.840   7
   8  -2   0 3318.11 381.240   2
   8  -2   0 3859.96 459.602   3
  -8   2   0 3812.03 452.295   7
  -8   2   0 3764.63 442.756   1
   8  -2   1 16623.8 936.990   3
  -8   2  -1 17955.5 973.374   7
  -8   2  -1 17778.7 968.424   1
   8  -2   1 16959.4 874.349   2
   8  -2   2 2348.44 336.941   2
   8  -2   2 3066.65 424.175   3
  -8   2  -2 2191.57 335.615   7
  -8   2  -2 3015.81 414.965   1
   8  -2   3 4433.26 459.393   2
   8  -2   3 4314.41 496.449   3
  -8   2  -3 4693.41 494.814   7
  -8   2  -3 5064.95 516.777   1
   8  -2   4 14922.3 887.426   3
  -8   2  -4 15003.9 848.240   7
  -8   2  -4 15987.9 910.038   1
   8  -2   4 14588.4 855.067   2
   8  -2   5 1635.03 326.291   2
   8  -2   5 1134.54 279.571   3
  -8   2  -5 1010.42 270.069   1
  -8   1   7 3705.29 477.273   1
   8  -1  -7 4341.88 518.742   3
  -8   1   6 1671.95 331.096   1
   8  -1  -6 1914.75 405.321   3
   8  -1  -5 8941.22 717.016   3
  -8   1   5 8670.90 688.641   1
   8  -1  -4 17922.0 1004.14   3
  -8   1   4 17101.3 983.097   7
  -8   1   4 17740.7 970.780   1
  -8   1   3 4286.31 478.942   1
  -8   1   3 4300.53 501.552   7
   8  -1  -3 5065.67 541.371   3
  -8   1   3 3937.65 436.165   6
   8  -1  -2 8553.63 673.163   3
  -8   1   2 8584.84 677.053   7
  -8   1   2 8040.59 615.980   6
  -8   1   2 8376.36 661.479   1
   8  -1  -2 8681.97 561.189   2
   8  -1  -1 7221.99 619.968   3
  -8   1   1 8147.94 651.891   7
  -8   1   1 7706.63 608.111   6
  -8   1   1 8466.60 655.653   1
   8  -1  -1 9154.86 578.766   2
   8  -1   0 673.623 172.853   2
  -8   1   0 927.209 249.330   7
   8  -1   0 709.922 203.162   3
  -8   1   0 729.133 244.992   1
   8  -1   1 15393.3 879.759   3
  -8   1  -1 14178.7 832.781   7
  -8   1  -1 15295.4 876.321   1
   8  -1   1 14734.4 754.191   2
   8  -1   2 12788.9 798.979   3
  -8   1  -2 13573.4 817.549   1
   8  -1   2 11776.9 687.607   2
   8  -1   3-100.214 148.163   2
   8  -1   3 196.163 192.612   3
  -8   1  -3 245.712 194.836   1
   8  -1   4 10789.7 738.583   3
  -8   1  -4 10995.2 738.987   1
   8  -1   4 11524.0 716.700   2
   8  -1   5 9629.12 702.500   3
  -8   1  -5 11358.9 746.427   1
   8  -1   5 9961.98 678.974   2
   8  -1   6-305.616 235.681   2
   8  -1   6-97.1679 203.143   3
  -8   1  -6 32.2023 161.156   1
   8  -1   7 2269.97 365.051   2
  -8   1  -7 2167.99 350.182   1
  -8   0   8 635.433 256.300   1
   8   0  -8 591.262 238.769   3
  -8   0   7 4937.61 505.553   1
   8   0  -7 4691.64 529.144   3
  -8   0   6 385.197 265.194   1
   8   0  -6 307.175 187.455   3
  -8   0   6 498.891 207.833   6
  -8   0   5 929.240 274.369   1
   8   0  -5 1419.60 340.125   3
  -8   0   5 1299.82 274.221   6
   8   0  -4 4853.29 522.106   3
  -8   0   4 5693.67 545.776   6
  -8   0   4 5475.57 529.617   1
   8   0  -3-93.3907 179.146   3
  -8   0   3-36.5690 140.893   6
  -8   0   3-159.943 184.612   1
   8   0  -2 2987.26 392.626   3
  -8   0   2 2319.08 349.067   6
  -8   0   2 2330.95 372.048   1
   8   0  -1 9930.67 707.416   3
  -8   0   1 9206.78 681.936   6
  -8   0   1 9609.38 680.259   1
   8   0   0-173.144 180.141   3
  -8   0   0-148.654 192.799   1
   8   0   1 145.947 111.157   2
   8   0   1-172.062 225.876   3
  -8   0  -1-20.1756 173.303   1
   8   0   2 10283.9 708.090   3
  -8   0  -2 9696.25 677.804   1
   8   0   2 10669.2 607.615   2
   8   0   3 139.275 120.815   2
   8   0   3-187.796 216.454   3
  -8   0  -3-23.1774 153.050   1
   8   0   4 229.221 142.369   2
   8   0   4 225.510 166.656   3
  -8   0  -4 152.119 182.244   1
   8   0   5 2112.71 307.507   2
   8   0   5 2576.18 367.829   3
  -8   0  -5 1884.60 303.798   1
   8   0   6 1999.66 318.425   2
   8   0   6 1259.50 272.363   3
  -8   0  -6 1893.17 321.081   1
   8   0   7 719.631 285.550   3
  -8   0  -7 578.079 251.597   1
   8   0   7 568.703 225.148   2
  -8   0  -8 807.937 239.235   1
   8   0   8 764.588 252.810   2
  -8  -1   8 271.928 223.738   1
   8   1  -8 914.899 269.355   3
  -8  -1   8 412.494 199.773   6
  -8  -1   7 115.848 150.930   1
   8   1  -7-12.8690 192.636   3
  -8  -1   7-159.724 202.459   6
  -8  -1   6-102.826 141.149   1
   8   1  -6 137.988 195.724   3
  -8  -1   6 36.8704 152.840   6
   8   1  -5 3523.52 437.017   3
  -8  -1   5 4493.20 498.405   6
  -8  -1   5 3830.30 442.532   1
   8   1  -4 96.1005 179.316   3
  -8  -1   4 25.5145 151.682   6
  -8  -1   4-36.9929 167.841   1
   8   1  -3 75.3589 183.258   3
  -8  -1   3 137.730 194.947   6
  -8  -1   3-264.553 208.856   1
   8   1  -2 12102.3 765.601   3
  -8  -1   2 11654.3 779.311   6
  -8  -1   2 11968.4 747.322   1
   8   1  -1 684.899 249.342   3
  -8  -1   1 358.013 205.344   6
  -8  -1   1 219.137 169.089   1
   8   1   0 248.909 157.619   3
  -8  -1   0 397.307 188.356   1
   8   1   1 16837.1 890.527   3
  -8  -1  -1 19408.9 941.917   1
   8   1   2 140.174 172.702   3
  -8  -1  -2-214.705 216.038   1
   8   1   3 3309.70 399.052   3
  -8  -1  -3 2398.93 324.643   1
   8   1   4 18040.6 941.148   3
  -8  -1  -4 17339.9 913.785   1
   8   1   4 17141.7 767.746   2
   8   1   5 371.553 161.973   2
   8   1   5 277.897 226.879   3
  -8  -1  -5 669.252 271.303   1
   8   1   6 321.342 202.218   3
  -8  -1  -6 370.272 204.696   1
   8   1   6 375.890 161.821   2
  -8  -1  -7 18060.8 946.061   1
   8   1   7 15557.5 826.167   2
   8   1   7 15870.0 909.486   3
   8   1   8 1476.95 296.714   3
  -8  -1  -8 1401.38 281.913   1
   8   1   8 1032.60 250.346   2
   8   1   9 113.952 215.927   3
  -8  -1  -9 26.6164 153.066   1
  -8  -1  -9 4.29526 167.597   5
   8   1   9-168.320 186.151   2
   8   2  -9 492.653 242.077   3
  -8  -2   9 675.396 281.562   6
  -8  -2   8 2683.08 392.218   1
   8   2  -8 3009.20 407.211   3
  -8  -2   8 2339.84 410.372   6
  -8  -2   7 2135.73 325.392   1
   8   2  -7 1993.31 352.012   3
  -8  -2   7 1764.45 333.071   6
  -8  -2   6 365.782 212.339   1
   8   2  -6 493.278 220.719   3
  -8  -2   6 234.138 164.498   6
   8   2  -5 2942.35 392.009   3
  -8  -2   5 3226.17 436.871   6
  -8  -2   5 2527.98 353.055   1
   8   2  -4 10387.3 715.018   3
  -8  -2   4 10868.4 758.587   6
  -8  -2   4 10659.5 696.304   1
   8   2  -3 380.068 197.967   3
  -8  -2   3 207.218 203.527   6
  -8  -2   3 298.070 208.313   1
   8   2  -2 19536.3 956.709   3
  -8  -2   2 18632.7 1008.94   6
  -8  -2   2 18900.3 922.343   1
   8   2  -1 18784.3 926.657   3
  -8  -2   1 19415.3 1014.35   6
  -8  -2   1 19039.3 919.556   1
   8   2   0 2237.02 350.037   3
  -8  -2   0 2767.43 390.474   6
  -8  -2   0 2660.18 349.056   1
   8   2   1 30257.3 1217.31   3
  -8  -2  -1 28952.0 1169.98   1
   8   2   2 32138.2 1255.20   3
  -8  -2  -2 33047.2 1249.57   1
  -8  -2  -3 1036.01 203.047  10
   8   2   3 1227.00 274.003   3
  -8  -2  -3 955.880 264.946   1
   8   2   4 29566.6 1228.23   3
  -8  -2  -4 32189.7 1123.25  10
  -8  -2  -4 33122.5 1267.89   1
  -8  -2  -5 33016.3 1287.24   1
   8   2   5 31500.1 1275.59   3
   8   2   6 651.312 265.083   3
  -8  -2  -6 1115.45 252.901   1
  -8  -2  -7 10082.0 704.389   1
   8   2   7 9645.69 619.510   2
   8   2   7 10734.4 743.586   3
  -8  -2  -8 7498.60 618.479   1
   8   2   8 7685.12 580.942   2
   8   2   8 6653.00 603.522   3
   8   2   9 671.004 232.123   3
   8   2   9 69.7917 145.742   8
  -8  -2  -9 582.310 203.923   1
   8   2   9 386.700 174.276   2
   8   3  -8 1338.86 284.471   3
  -8  -3   8 1101.40 309.767   6
   8   3  -7 5705.81 515.288   3
  -8  -3   7 5772.09 620.863   6
  -8  -3   7 5763.22 511.341   1
   8   3  -6 3800.65 427.637   3
  -8  -3   6 3461.00 472.034   6
  -8  -3   6 3393.95 387.064   1
   8   3  -5 2134.83 335.170   3
  -8  -3   5 1786.34 374.893   6
  -8  -3   5 1692.85 283.696   1
   8   3  -4 24285.3 1061.81   3
  -8  -3   4 25287.8 1216.31   6
  -8  -3   4 24341.8 1029.10   1
   8   3  -3 1590.57 302.788   3
  -8  -3   3 2032.46 356.782   6
  -8  -3   3 1920.88 307.516   1
   8   3  -2 12891.9 761.072   3
  -8  -3   2 12738.6 836.989   6
  -8  -3   2 12199.3 726.790   1
   8   3  -1 35163.6 1289.55   3
  -8  -3   1 36136.1 1290.23   1
  -8  -3   1 37012.7 1463.49   6
   8   3   0 6360.40 536.351   3
  -8  -3   0 6355.12 537.110   1
  -8  -3   0 7073.00 617.023   6
   8   3   1 3106.65 391.218   3
  -8  -3  -1 2775.04 349.722   1
   8   3   2 25482.4 1099.76   3
  -8  -3  -2 26094.2 1093.15   1
   8   3   3 3720.10 422.213   3
  -8  -3  -3 3163.40 376.936   1
  -8  -3  -4 133.731 122.430  10
   8   3   4-67.1709 144.937   8
   8   3   4 540.525 237.228   3
  -8  -3  -4 307.459 186.068   1
  -8  -3  -5 17968.1 840.160  10
   8   3   5 20387.8 1002.21   8
  -8  -3  -5 19188.2 962.432   1
   8   3   5 17745.4 938.089   3
  -8  -3  -6 1955.67 299.452  10
   8   3   6 1834.83 347.645   3
   8   3   6 2262.84 341.550   8
  -8  -3  -6 1661.42 313.533   1
  -8  -3  -7 214.852 133.901  10
   8   3   7 355.034 217.960   3
   8   3   7 452.855 194.138   8
  -8  -3  -7 654.109 234.243   1
  -8  -3  -8 7470.18 603.260  10
   8   3   8 8425.23 668.890   8
  -8  -3  -8 8546.47 662.292   1
   8   3   8 9066.58 714.709   3
  -8  -3  -9-25.5007 165.262  10
   8   3   9 173.332 262.678   3
   8   3   9 14.6097 169.787   8
  -8  -3  -9 187.780 180.368   1
  -8  -3 -10-154.798 211.453  10
   8   3  10 80.1517 242.440   3
   8   3  10 121.752 178.165   8
  -8  -3 -10 326.008 211.479   1
   8   4  -8 706.356 223.921   3
  -8  -4   8 776.098 282.108   6
   8   4  -7 552.523 224.926   3
  -8  -4   7 472.716 283.028   6
   8   4  -6 1539.50 271.753   3
  -8  -4   6 1890.65 387.322   6
  -8  -4   6 1475.51 255.290   1
   8   4  -5 160.553 148.271   3
  -8  -4   5 650.412 269.594   6
  -8  -4   5 618.707 218.449   1
   8   4  -4 2641.94 372.254   3
  -8  -4   4 2754.05 443.245   6
  -8  -4   4 2206.00 317.363   1
   8   4  -3 8684.91 615.272   3
  -8  -4   3 9449.63 754.741   6
  -8  -4   3 9357.92 618.186   1
   8   4  -2 1063.54 248.807   3
  -8  -4   2 1309.12 316.526   6
  -8  -4   2 1179.22 238.344   1
   8   4  -1 2022.63 317.616   3
  -8  -4   1 2335.87 395.157   6
  -8  -4   1 2369.66 349.437   1
   8   4   0 5288.54 509.090   3
  -8  -4   0 4889.31 468.248   1
  -8  -4   0 5391.02 555.815   6
   8   4   1 861.741 264.800   3
  -8  -4  -1 1250.77 260.139   1
  -8  -4  -1 1463.96 340.081   6
   8   4   2 1162.27 269.751   8
   8   4   2 823.925 240.004   3
  -8  -4  -2 1131.40 259.634   1
   8   4   3 3552.84 420.606   8
   8   4   3 2844.85 382.197   3
  -8  -4  -3 3594.12 414.914   1
   8   4   4 11192.0 725.888   8
  -8  -4  -4 11628.7 738.160   1
   8   4   4 10066.9 709.268   3
   8   4   5 400.460 252.176   3
   8   4   5 185.386 160.464   8
  -8  -4  -5 272.516 234.518   1
   8   4   6-21.7489 170.678   3
   8   4   6 52.1982 186.449   8
  -8  -4  -6-35.4877 167.135   1
   8   4   7 9006.24 695.404   8
  -8  -4  -7 9467.69 698.015   1
   8   4   7 10341.3 756.365   3
   8   4   8-158.031 220.739   3
   8   4   8-15.9086 176.222   8
  -8  -4  -8 6.33336 184.979   1
  -8  -4  -9-126.786 193.215  10
   8   4   9 52.4634 225.249   3
   8   4   9 315.804 217.418   8
  -8  -4  -9 368.024 221.366   1
  -8  -4 -10 2444.75 370.432  10
   8   4  10 3030.20 480.597   3
   8   4  10 2919.17 429.454   8
  -8  -4 -10 3096.00 445.025   1
  -8  -5   8 355.696 248.037   6
  -8  -5   7 475.303 268.314   6
   8   5  -6 177.140 149.123   3
  -8  -5   6 505.868 263.608   6
   8   5  -5-274.909 216.690   3
  -8  -5   5 384.048 241.803   6
  -8  -5   5-16.6233 164.047   1
   8   5  -4 397.012 167.825   3
  -8  -5   4 801.163 211.295   1
   8   5  -3-51.7134 177.302   3
  -8  -5   3-76.0225 192.199   6
  -8  -5   3-231.016 202.962   1
   8   5  -2 1196.66 263.995   3
  -8  -5   2 1017.47 282.799   6
  -8  -5   2 779.673 222.433   1
   8   5  -1 13328.1 767.837   3
  -8  -5   1 13849.1 757.251   1
   8   5   0 1863.32 309.528   3
  -8  -5   0 2046.69 308.098   1
  -8  -5   0 1707.75 339.912   6
   8   5   1 27734.3 1133.28   8
  -8  -5  -1 27690.7 1121.70   1
  -8  -5  -1 28218.6 1291.97   6
   8   5   1 26712.7 1122.17   3
   8   5   2 27584.9 1137.79   8
  -8  -5  -2 27770.4 1136.86   1
  -8  -5  -2 28916.2 1319.39   6
   8   5   2 29098.0 1186.94   3
   8   5   3 368.280 240.279   3
   8   5   3 252.426 169.742   8
  -8  -5  -3 430.030 205.117   1
   8   5   4 2997.88 431.372   3
   8   5   4 3033.45 393.754   8
  -8  -5  -4 3091.47 396.578   1
   8   5   5 10490.0 728.920   8
  -8  -5  -5 10234.1 708.807   1
   8   5   5 9866.87 710.064   3
   8   5   6 501.335 253.014   3
   8   5   6 405.599 236.861   8
  -8  -5  -6 260.149 200.073   1
   8   5   7 3916.48 486.085   3
   8   5   7 3547.57 437.350   8
   8   5   8 10191.9 736.879   8
  -8  -5  -8 9689.80 742.758   1
   8   5   8 10496.5 783.695   3
   8   5   9-77.5359 283.228   3
   8   5   9 51.6251 169.541   8
  -8  -5  -9 73.6527 200.011   1
   8   5  10 4180.44 540.008   3
   8   5  10 3502.47 466.697   8
  -8  -5 -10 4096.35 501.939   1
  -8  -6   7 1570.71 389.319   6
  -8  -6   6 1604.79 363.701   6
   8   6  -5 265.250 173.787   3
  -8  -6   5 614.426 292.636   6
   8   6  -4 7226.06 544.297   3
  -8  -6   4 7179.49 699.057   6
  -8  -6   4 7026.77 515.274   1
   8   6  -3 3665.00 406.981   3
  -8  -6   3 4092.09 405.035   1
  -8  -6   3 4241.11 541.623   6
   8   6  -2 2105.53 309.518   3
  -8  -6   2 2467.20 427.906   6
  -8  -6   2 2019.94 301.906   1
  -8  -6   1 17011.4 850.373   1
   8   6  -1 17748.8 882.570   3
   8   6   0 2720.55 368.361   3
   8   6   0 3463.46 391.371   8
  -8  -6   0 2583.47 343.475   1
  -8  -6   0 3151.06 451.018   6
   8   6   1 2437.43 343.533   3
   8   6   1 2016.37 323.849   8
  -8  -6  -1 2288.98 322.550   1
  -8  -6  -1 2404.44 396.750   6
   8   6   2 3820.70 451.545   3
   8   6   2 2934.57 375.188   8
  -8  -6  -2 3277.44 405.974   1
  -8  -6  -2 3745.43 474.164   6
   8   6   3 12447.6 757.851   8
  -8  -6  -3 12950.2 786.189   1
  -8  -6  -3 11919.5 834.681   6
   8   6   3 12554.2 784.893   3
   8   6   4 3972.60 459.436   3
   8   6   4 3410.70 427.855   8
  -8  -6  -4 4346.95 470.276   1
   8   6   5 18279.4 957.403   8
  -8  -6  -5 19021.8 999.767   1
   8   6   5 19079.0 1003.66   3
   8   6   6 1760.47 358.063   3
   8   6   6 2103.44 350.349   8
  -8  -6  -6 2149.57 359.131   1
   8   6   7 1038.83 309.355   3
   8   6   7 683.872 249.677   8
  -8  -6  -7 1150.92 328.003   1
   8   6   8 9104.00 710.458   8
  -8  -6  -8 8976.29 722.768   1
   8   6   8 9420.82 740.670   3
   8   6   9 1195.40 359.637   3
   8   6   9 1080.38 285.593   8
  -8  -6  -9 793.856 292.195   1
   8   6  10 1.97593 203.305   3
   8   6  10 121.199 209.973   8
  -8  -6 -10 250.265 216.759   1
  -8  -7   6 2175.29 432.847   6
  -8  -7   5 605.886 282.008   6
   8   7  -4 1967.17 316.586   3
  -8  -7   4 1323.54 354.399   6
  -8  -7   3 7482.61 536.965   1
  -8  -7   3 8580.19 757.349   6
   8   7  -3 7614.28 566.118   3
   8   7  -2 980.795 232.173   3
  -8  -7   2 986.947 216.180   1
  -8  -7   2 1054.12 310.882   6
   8   7  -1 5737.39 490.354   8
  -8  -7   1 5474.07 476.839   1
  -8  -7   1 4957.40 573.928   6
   8   7  -1 6073.69 518.800   3
   8   7   0 5650.86 492.131   8
  -8  -7   0 5681.34 493.243   1
  -8  -7   0 5630.43 598.533   6
   8   7   0 5273.07 511.016   3
   8   7   1-42.2353 182.632   3
   8   7   1 148.557 162.014   8
  -8  -7  -1-109.797 148.691   1
  -8  -7  -1 39.1596 214.945   6
   8   7   2 4572.29 457.229   8
   8   7   2 3756.23 455.419   3
  -8  -7  -2 4219.60 440.223   1
  -8  -7  -2 4181.57 498.403   6
   8   7   3 115.633 194.904   3
   8   7   3-28.2933 158.091   8
  -8  -7  -3 130.444 185.695   1
  -8  -7  -3 468.442 218.012   6
   8   7   4 3452.35 444.970   3
   8   7   4 4577.62 472.316   8
  -8  -7  -4 3942.06 463.277   1
  -8  -7  -4 3197.55 448.789   6
   8   7   5 2541.18 400.407   3
   8   7   5 2053.01 346.608   8
  -8  -7  -5 2445.01 395.119   1
   8   7   6 7035.83 615.470   8
  -8  -7  -6 6666.81 614.421   1
   8   7   6 6693.14 613.261   3
   8   7   7-186.930 251.853   3
   8   7   7 444.497 227.799   8
   8   7   7 68.1096 162.420   7
  -8  -7  -7 156.643 185.874   1
   8   7   8 1232.17 333.659   3
   8   7   8 1404.25 315.567   8
  -8  -7  -8 1909.28 370.147   1
   8   7   9 1511.99 403.910   3
   8   7   9 2061.33 377.574   8
  -8  -7  -9 2122.64 379.668   1
   8   7  10 6.17323 252.422   3
   8   7  10 557.926 251.255   8
  -8  -7 -10-28.7211 240.717   1
  -8  -8   5-209.719 236.255   6
  -8  -8   4-95.0463 214.712   6
   8   8  -3 646.359 208.663   3
  -8  -8   3 1317.94 360.071   6
   8   8  -2 300.223 183.639   3
  -8  -8   2 482.545 211.350   1
  -8  -8   2 644.602 263.787   6
   8   8  -1 801.096 253.281   3
   8   8  -1 232.680 165.563   8
  -8  -8   1 360.650 176.121   1
  -8  -8   1 410.346 230.397   6
   8   8   0 2239.48 350.364   3
   8   8   0 1944.13 302.441   8
  -8  -8   0 2263.82 329.413   1
  -8  -8   0 2250.06 411.007   6
   8   8   1-213.162 200.347   3
   8   8   1 91.2372 144.734   8
  -8  -8  -1-171.794 153.370   1
  -8  -8  -1 240.703 242.547   6
   8   8   2-8.94355 168.803   3
   8   8   2-78.6481 152.654   8
  -8  -8  -2 107.930 172.453   1
  -8  -8  -2 313.309 254.010   6
   8   8   3 5393.52 513.309   8
  -8  -8  -3 5144.18 507.146   1
  -8  -8  -3 4533.84 549.775   6
   8   8   3 4670.44 499.688   3
   8   8   4 208.480 200.597   3
   8   8   4-78.8512 173.159   8
   8   8   4 334.893 181.556   7
  -8  -8  -4-141.844 225.095   1
  -8  -8  -4 373.105 261.955   6
   8   8   5 1137.34 279.997   3
   8   8   5 909.419 280.536   8
  -8  -8  -5 1773.33 370.248   1
   8   8   5 858.765 221.463   7
  -8  -8  -5 1486.20 343.823   6
   8   8   6 1643.91 355.069   3
   8   8   6 1442.75 310.409   8
  -8  -8  -6 1358.28 334.423   1
   8   8   6 1448.60 288.960   7
   8   8   7 1440.22 340.574   3
   8   8   7 1025.77 286.120   8
  -8  -8  -7 1251.09 314.186   1
   8   8   7 226.237 182.434   7
   8   8   8 1931.00 452.135   3
   8   8   8 1242.04 328.031   8
  -8  -8  -8 867.761 308.714   1
   8   8   9 212.618 249.642   3
   8   8   9 517.573 237.081   8
  -8  -8  -9 214.854 211.715   1
   8   9  -4 5.60226 230.575   7
  -8  -9   4 479.550 272.453   6
   8   9  -3 594.133 239.247   7
  -8  -9   3 554.075 282.731   6
   8   9  -2 190.168 213.918   7
  -8  -9   2 141.378 200.861   6
   8   9  -1 1105.18 268.770   3
   8   9  -1 1616.68 282.360   8
   8   9  -1 974.541 289.715   7
  -8  -9   1 1327.69 278.300   1
  -8  -9   1 1176.58 336.912   6
   8   9   0 184.944 176.488   3
   8   9   0 335.711 179.720   8
   8   9   0 101.705 193.782   7
  -8  -9   0-84.6850 153.499   1
  -8  -9   0 50.4313 230.537   6
   8   9   1 883.082 261.459   3
   8   9   1 207.510 167.572   8
   8   9   1 505.022 267.024   7
  -8  -9  -1 277.001 173.714   1
  -8  -9  -1 336.448 226.943   6
   8   9   2 3159.47 433.560   3
   8   9   2 2652.39 374.826   8
   8   9   2 3042.93 426.011   7
  -8  -9  -2 3385.65 425.299   1
  -8  -9  -2 2906.33 453.309   6
   8   9   3 11.4025 211.326   3
   8   9   3 78.7760 176.185   8
   8   9   3 85.3535 185.229   7
  -8  -9  -3-257.251 168.252   1
  -8  -9  -3-53.9968 165.003   6
   8   9   4 644.139 260.040   3
   8   9   4 578.684 204.398   8
  -8  -9  -4-31.2243 220.672   1
   8   9   4 71.3166 208.423   7
  -8  -9  -4 297.114 221.211   6
   8   9   5 1191.05 282.800   3
   8   9   5 784.716 272.093   8
  -8  -9  -5 636.327 272.848   1
   8   9   5 424.300 226.204   7
  -8  -9  -5 1250.11 305.142   6
   8   9   6 221.648 186.249   3
   8   9   6 558.984 251.488   8
  -8  -9  -6 118.922 216.801   1
   8   9   6 285.648 243.947   7
  -8  -9  -6 160.287 192.949   6
   8   9   7 610.622 289.367   3
   8   9   7 247.410 218.348   8
  -8  -9  -7 435.692 287.135   1
   8   9   7 482.478 213.677   7
  -8  -9  -8 6235.03 632.876   3
   8   9   8 6073.13 660.167   3
   8   9   8 5880.33 608.183   8
  -8  -9  -8 5553.21 646.868   1
   8   9   9 411.310 265.522   8
  -8  -9  -9 630.667 336.801   1
   8  10  -2 36.6060 204.338   7
  -8 -10   2 55.9993 197.654   6
   8  10  -1 575.125 241.985   7
  -8 -10   1-188.142 239.610   6
   8  10   0 1617.02 309.807   3
   8  10   0 1773.14 299.323   8
   8  10   0 1720.45 356.117   7
  -8 -10   0 1597.09 354.156   6
   8  10   1-12.7114 175.836   3
   8  10   1-110.738 144.530   8
   8  10   1-215.866 217.161   7
  -8 -10  -1-212.821 171.944   1
  -8 -10  -1 46.9306 222.106   6
   8  10   2 1331.68 326.108   3
   8  10   2 1642.20 327.361   8
   8  10   2 1634.29 361.212   7
  -8 -10  -2 2150.88 381.415   1
  -8 -10  -2 2203.65 407.541   6
   8  10   3 4537.54 528.420   3
   8  10   3 4434.85 486.007   8
  -8 -10  -3 4261.25 522.364   1
   8  10   3 5390.21 591.631   7
  -8 -10  -3 4332.57 541.856   6
   8  10   4 970.288 283.869   3
   8  10   4 966.057 285.129   8
  -8 -10  -4 800.688 267.066   1
   8  10   4 466.085 252.350   7
  -8 -10  -4 820.957 304.943   6
   8  10   5 2102.10 407.334   3
   8  10   5 2537.94 384.838   8
  -8 -10  -5 1710.98 351.772   1
   8  10   5 2274.93 392.412   7
  -8 -10  -5 2785.85 433.896   6
   8  10   6 2936.73 484.104   3
   8  10   6 3105.22 446.795   8
  -8 -10  -6 3349.96 524.404   1
   8  10   6 2978.25 443.029   7
  -8 -10  -6 3226.47 472.879   3
  -8 -10  -6 2944.86 448.690   6
   8  10   7-310.678 298.722   3
   8  10   7 360.193 256.734   8
  -8 -10  -7 289.509 295.303   1
   8  10   7-335.005 275.279   7
  -8 -10  -7-537.860 301.811   3
  -8 -10  -7 93.5837 203.633   6
   8  11   1 1341.39 292.393   3
   8  11   1 1528.09 288.755   8
  -8 -11  -1 1915.67 384.066   6
   8  11   2-26.3326 190.134   3
   8  11   2 55.2525 153.302   8
  -8 -11  -2 267.225 175.726   1
  -8 -11  -2-242.595 158.047   3
  -8 -11  -2-43.3812 188.879   6
   8  11   3 1726.36 353.222   3
   8  11   3 1988.66 351.729   8
  -8 -11  -3 1624.39 360.772   1
   8  11   3 1418.08 380.692   7
  -8 -11  -3 2197.87 382.321   3
  -8 -11  -3 1715.89 352.935   6
   8  11   4 378.211 267.936   3
   8  11   4 595.803 255.509   8
  -8 -11  -4 221.247 221.827   1
   8  11   4 630.111 298.529   7
  -8 -11  -4 430.975 230.144   3
  -8 -11  -4 204.332 226.340   6
  -9   1   3 396.726 230.860   1
  -9   1   2-1.78472 200.716   1
   9  -1  -2 102.979 220.434   3
   9  -1  -1 8401.78 721.148   3
  -9   1   1 8684.13 711.276   1
   9  -1   0-82.9154 243.064   3
  -9   1   0 259.957 199.617   6
  -9   1   0 146.792 193.614   1
   9  -1   1 628.238 267.557   3
  -9   1  -1 141.159 216.322   1
   9  -1   2 9249.55 732.148   3
  -9   1  -2 10507.9 775.409   1
  -9   0   5 794.650 254.576   1
  -9   0   4 4571.09 517.958   1
   9   0  -4 4742.90 538.486   3
  -9   0   4 4379.98 501.466   6
   9   0  -3 8314.27 705.757   3
  -9   0   3 6559.00 622.693   6
  -9   0   3 6226.35 607.506   1
   9   0  -2 730.360 258.324   3
  -9   0   2 47.2062 168.715   6
  -9   0   2 499.831 244.053   1
   9   0  -1 10271.1 778.702   3
  -9   0   1 10085.6 760.272   6
  -9   0   1 10622.2 765.808   1
   9   0   0 13761.5 895.802   3
  -9   0   0 13344.0 890.957   6
  -9   0   0 15058.5 913.849   1
   9   0   1 683.155 275.553   3
  -9   0  -1 534.953 259.301   1
   9   0   2 10394.4 775.208   3
  -9   0  -2 10039.4 741.637   1
   9   0   3 12051.5 836.091   3
  -9   0  -3 12926.6 850.692   1
   9   0   4-235.786 242.710   3
  -9   0  -4-295.420 242.676   1
  -9  -1   6 4829.95 547.387   6
  -9  -1   6 5699.09 576.032   1
  -9  -1   5 1739.30 370.356   1
   9   1  -5 1573.11 328.592   3
  -9  -1   5 1595.79 346.794   6
   9   1  -4 1879.79 381.910   3
  -9  -1   4 2022.12 367.426   6
  -9  -1   4 1451.90 319.221   1
   9   1  -3 12336.1 844.175   3
  -9  -1   3 12793.9 863.349   6
  -9  -1   3 14358.1 885.792   1
   9   1  -2 2818.68 416.336   3
  -9  -1   2 1960.44 355.996   6
  -9  -1   2 2475.98 386.553   1
   9   1  -1 2205.49 365.374   3
  -9  -1   1 1705.95 355.550   6
  -9  -1   1 2227.00 375.778   1
   9   1   0 14896.3 905.212   3
  -9  -1   0 13826.5 906.518   6
  -9  -1   0 15146.3 899.227   1
   9   1   1 3407.69 452.949   3
  -9  -1  -1 3265.82 428.325   1
   9   1   2 895.839 266.533   3
  -9  -1  -2 1043.35 295.305   1
   9   1   3 11844.7 817.680   3
  -9  -1  -3 11924.3 794.102   1
   9   1   4 1098.81 291.907   3
  -9  -1  -4 1236.15 318.830   1
   9   1   5 39.5846 186.723   3
  -9  -1  -5 49.8802 178.715   1
   9   1   6 5811.37 596.099   3
  -9  -1  -6 5838.81 568.455   1
  -9  -2   6 837.461 286.586   1
   9   2  -6 450.718 269.880   3
  -9  -2   6 373.285 207.271   6
   9   2  -5 2416.90 404.518   3
  -9  -2   5 1850.13 366.700   6
  -9  -2   5 1107.33 280.632   1
   9   2  -4 216.902 206.196   3
  -9  -2   4-100.012 199.961   6
  -9  -2   4 599.242 242.218   1
   9   2  -3 2659.72 392.525   3
  -9  -2   3 2458.32 402.950   6
  -9  -2   3 2261.33 361.063   1
   9   2  -2 3849.76 462.886   3
  -9  -2   2 4654.26 498.389   1
  -9  -2   2 3924.06 501.189   6
   9   2  -1 250.593 175.322   3
  -9  -2   1 318.095 201.371   6
  -9  -2   1 23.3134 184.245   1
   9   2   0 939.626 308.210   3
  -9  -2   0 1348.56 320.406   6
  -9  -2   0 994.538 283.170   1
   9   2   1 1006.76 279.037   3
  -9  -2  -1 840.196 248.991   1
   9   2   2 5788.28 557.793   3
  -9  -2  -2 5386.28 543.283   1
   9   2   3 345.056 228.057   3
  -9  -2  -3 81.1412 159.928   1
   9   2   4 391.991 200.379   3
  -9  -2  -4 699.527 252.126   1
   9   2   5 3947.36 504.367   3
  -9  -2  -5 3919.47 480.404   1
  -9  -2  -6-376.254 188.920  10
   9   2   6 356.245 266.122   3
  -9  -2  -6 213.636 164.182   1
  -9  -2  -7 373.064 177.906  10
   9   2   7 344.496 258.849   3
  -9  -2  -7 437.890 245.287   1
  -9  -3   6 1006.70 321.363   6
  -9  -3   6 848.562 240.988   1
   9   3  -5 157.170 198.053   3
  -9  -3   5-38.3785 177.761   6
  -9  -3   5 34.9947 191.658   1
   9   3  -4 2610.70 392.575   3
  -9  -3   4 2885.31 448.576   6
  -9  -3   4 2967.09 388.323   1
   9   3  -3 1809.57 352.141   3
  -9  -3   3 2594.47 431.779   6
  -9  -3   3 2667.71 385.872   1
   9   3  -2 499.745 255.065   3
  -9  -3   2 583.455 249.793   6
  -9  -3   2 478.662 227.154   1
   9   3  -1 5552.98 557.918   3
  -9  -3   1 5421.43 522.163   1
  -9  -3   1 4302.46 528.828   6
   9   3   0 11484.0 770.791   3
  -9  -3   0 10752.8 747.611   1
  -9  -3   0 10881.4 835.915   6
   9   3   1 183.545 156.842   3
  -9  -3  -1-66.9963 204.773   6
  -9  -3  -1-334.385 217.350   1
   9   3   2 5745.61 546.157   3
  -9  -3  -2 5942.18 549.896   1
   9   3   3 10888.3 770.291   3
  -9  -3  -3 12985.9 827.684   1
   9   3   4 154.632 216.891   3
  -9  -3  -4-3.18638 174.696   1
   9   3   5 3254.10 459.578   3
  -9  -3  -5 3451.18 451.974   1
  -9  -3  -6 5880.98 514.273  10
  -9  -3  -6 7448.28 642.481   1
   9   3   6 7978.03 682.058   3
  -9  -3  -7 227.949 179.202  10
   9   3   7 102.563 205.355   3
  -9  -3  -7-178.018 191.305   1
   9   4  -6 1304.48 299.991   3
  -9  -4   6 1425.71 368.569   6
  -9  -4   6 1296.43 266.185   1
   9   4  -5 1181.71 274.379   3
  -9  -4   5 632.943 288.426   6
  -9  -4   5 1475.24 312.084   1
   9   4  -4 2391.24 360.084   3
  -9  -4   4 1607.38 368.279   6
  -9  -4   4 2026.68 318.619   1
   9   4  -3 12130.3 773.375   3
  -9  -4   3 10846.4 850.549   6
  -9  -4   3 9890.81 696.091   1
   9   4  -2 1696.77 302.501   3
  -9  -4   2 2638.89 456.840   6
  -9  -4   2 2105.95 342.345   1
   9   4  -1 3894.41 458.467   3
  -9  -4   1 3792.71 499.684   6
  -9  -4   1 3453.69 415.197   1
   9   4   0 21036.1 1049.03   3
  -9  -4   0 21773.9 1034.27   1
  -9  -4   0 20992.9 1176.81   6
   9   4   1 5112.04 519.826   3
  -9  -4  -1 5402.91 537.507   1
  -9  -4  -1 4873.02 567.266   6
   9   4   2 1894.08 346.617   3
  -9  -4  -2 2588.03 380.538   1
  -9  -4  -3 16879.1 931.644   1
   9   4   3 15660.5 918.323   3
   9   4   4 4878.84 529.140   3
  -9  -4  -4 4894.75 503.204   1
   9   4   5 816.914 271.213   3
   9   4   5 622.117 212.568   8
  -9  -4  -5 875.062 290.486   1
   9   4   6 15550.8 943.265   8
  -9  -4  -6 16308.8 945.290   1
   9   4   6 15282.2 938.209   3
   9   4   7 2552.19 445.728   3
   9   4   7 2172.25 378.664   8
  -9  -4  -7 2188.55 372.626   1
   9   4   8 192.522 218.761   3
   9   4   8-68.2104 162.969   8
   9   5  -6 1478.74 294.570   3
  -9  -5   6 1899.84 425.439   6
   9   5  -5 4741.48 480.445   3
  -9  -5   5 4595.66 471.146   1
  -9  -5   5 4863.15 609.061   6
   9   5  -4-12.0935 206.346   3
  -9  -5   4 81.5945 216.524   6
  -9  -5   4 115.640 181.303   1
   9   5  -3 3019.08 399.048   3
  -9  -5   3 2801.39 469.315   6
  -9  -5   3 3072.65 398.726   1
   9   5  -2 4737.79 497.207   3
  -9  -5   2 4847.79 602.497   6
  -9  -5   2 4338.52 462.554   1
   9   5  -1 48.7031 189.524   3
  -9  -5   1-73.3905 219.764   6
  -9  -5   1 27.5777 154.056   1
   9   5   0 4274.09 481.705   3
  -9  -5   0 4731.05 571.538   6
  -9  -5   0 4133.07 459.495   1
   9   5   1 8272.14 664.173   3
  -9  -5  -1 7259.63 600.566   1
  -9  -5  -1 8921.30 768.823   6
   9   5   2-30.2726 172.051   3
  -9  -5  -2-147.530 199.162   1
  -9  -5  -2-25.9936 199.905   6
   9   5   3 7264.03 617.002   8
  -9  -5  -3 8118.83 651.734   1
   9   5   3 7364.48 635.809   3
   9   5   4 8580.10 685.641   8
  -9  -5  -4 8518.82 677.011   1
   9   5   4 7692.79 660.516   3
   9   5   5 908.330 300.158   3
   9   5   5 869.466 282.115   8
  -9  -5  -5 688.428 263.402   1
   9   5   6 3310.18 485.782   3
   9   5   6 3187.72 444.721   8
  -9  -5  -6 3087.22 440.569   1
   9   5   7 7463.33 657.116   8
  -9  -5  -7 7510.39 669.715   1
   9   5   7 7193.21 676.930   3
   9   5   8 465.796 303.040   3
   9   5   8-36.1608 197.798   8
  -9  -5  -8 365.762 207.993   1
   9   6  -5 1091.66 269.412   3
  -9  -6   5 1093.34 298.605   6
   9   6  -4 225.687 170.889   3
  -9  -6   4 20.0972 227.578   6
   9   6  -3 163.427 193.703   3
  -9  -6   3 48.0496 227.383   6
  -9  -6   3 242.942 189.216   1
   9   6  -2 2127.95 371.067   3
  -9  -6   2 1782.81 380.009   6
  -9  -6   2 1545.25 298.630   1
   9   6  -1-16.7335 201.330   3
  -9  -6   1 272.803 233.088   6
  -9  -6   1-89.3432 178.412   1
   9   6   0 172.764 164.201   3
  -9  -6   0 266.867 158.431   1
  -9  -6   0 143.927 237.737   6
   9   6   1 3754.45 455.523   3
  -9  -6  -1 4069.95 459.121   1
  -9  -6  -1 4437.53 561.128   6
   9   6   2-415.916 276.010   3
   9   6   2 339.769 199.307   8
  -9  -6  -2-292.300 241.853   1
  -9  -6  -2-321.907 228.498   6
   9   6   3 7382.45 635.781   8
  -9  -6  -3 6937.44 622.996   1
  -9  -6  -3 7728.54 737.232   6
   9   6   3 7028.40 630.281   3
   9   6   4 3867.31 493.137   3
   9   6   4 4464.33 505.474   8
  -9  -6  -4 5057.72 516.229   1
   9   6   5-109.176 195.537   3
   9   6   5 30.2551 186.380   8
  -9  -6  -5-45.2059 190.713   1
   9   6   6 6775.52 634.233   8
  -9  -6  -6 6245.92 607.199   1
   9   6   6 6662.76 655.986   3
   9   6   7 280.995 271.972   3
   9   6   7 600.764 244.553   8
  -9  -6  -7 632.780 274.096   1
   9   6   8 172.170 268.836   3
  -9  -6  -8 479.081 262.676   1
   9   7  -4 70.1589 163.656   3
  -9  -7   4 277.333 207.172   6
   9   7  -3 4387.92 464.919   3
  -9  -7   3 3326.49 513.508   6
  -9  -7   3 3594.06 413.245   1
   9   7  -2 600.338 213.860   3
  -9  -7   2 926.864 344.814   6
  -9  -7   2 280.523 158.561   1
  -9  -7   1-22.9923 148.843   1
  -9  -7   1-176.999 248.443   6
  -9  -7   0 4680.96 484.262   1
  -9  -7   0 5003.77 605.454   6
   9   7   0 5043.31 515.896   3
   9   7   1 3506.01 458.866   3
   9   7   1 3641.17 440.400   8
  -9  -7  -1 4054.91 460.989   1
  -9  -7  -1 3915.31 552.022   6
   9   7   2 39.4445 192.411   3
   9   7   2 399.122 217.191   8
  -9  -7  -2 141.746 204.516   1
  -9  -7  -2 294.664 232.594   6
   9   7   3 6913.25 603.740   8
  -9  -7  -3 7225.83 626.947   1
  -9  -7  -3 7408.62 715.418   6
   9   7   3 5245.18 542.785   3
   9   7   4 5785.93 566.697   8
  -9  -7  -4 5874.23 584.518   1
  -9  -7  -4 6778.11 693.875   6
   9   7   4 6591.58 627.136   3
   9   7   5-199.980 235.897   3
   9   7   5-66.5911 193.765   8
  -9  -7  -5 76.0610 212.377   1
   9   7   6 6228.82 602.327   8
  -9  -7  -6 4940.40 554.892   1
   9   7   6 6170.20 627.187   3
   9   7   7 2665.55 449.260   3
   9   7   7 3052.45 438.756   8
  -9  -7  -7 3059.12 461.080   1
   9   7   8 248.017 217.670   8
  -9  -7  -8 432.497 218.442   1
   9   8  -3 1141.83 293.661   3
  -9  -8   3 1502.50 386.332   6
   9   8  -2 2559.04 361.585   3
  -9  -8   2 2587.86 454.961   6
   9   8  -1 229.143 219.897   3
  -9  -8   1 122.422 155.749   1
  -9  -8   1 100.399 206.833   6
   9   8   0 4792.62 520.903   3
   9   8   0 4160.52 466.213   8
  -9  -8   0 3843.79 445.099   1
  -9  -8   0 5031.53 611.533   6
   9   8   1 5934.50 561.024   8
  -9  -8  -1 5301.45 532.640   1
  -9  -8  -1 5428.33 627.999   6
   9   8   1 5924.53 568.293   3
   9   8   2 2035.34 363.766   3
   9   8   2 2390.71 378.245   8
  -9  -8  -2 1865.57 370.992   1
  -9  -8  -2 2162.46 427.438   6
   9   8   3 4750.46 532.710   8
   9   8   3 5074.30 558.893   3
  -9  -8  -3 5689.45 572.173   1
  -9  -8  -3 4647.77 582.602   6
   9   8   4 14232.1 897.217   8
  -9  -8  -4 13856.8 893.938   1
  -9  -8  -4 15153.3 1018.49   6
   9   8   4 15259.8 967.760   3
   9   8   5 1156.83 310.385   3
   9   8   5 1504.69 343.766   8
  -9  -8  -5 872.213 291.209   1
  -9  -8  -5 1283.43 355.052   6
   9   8   6 1290.78 337.944   3
   9   8   6 1510.97 332.897   8
   9   8   6 984.558 276.731   7
  -9  -8  -6 1087.88 340.209   1
   9   8   7 3947.92 494.833   8
   9   8   7 3185.56 443.951   7
   9   9  -1 912.144 268.436   3
   9   9  -1 1043.30 256.387   8
  -9  -9   1 707.958 339.809   6
   9   9   0 244.970 180.500   3
   9   9   0 403.956 205.674   8
  -9  -9   0 421.732 215.646   1
  -9  -9   0-92.6325 222.921   6
   9   9   1 2128.76 363.642   3
   9   9   1 2150.27 345.079   8
  -9  -9  -1 1674.68 329.660   1
  -9  -9  -1 1707.83 393.989   6
   9   9   2 1848.31 374.720   3
   9   9   2 2123.20 370.537   8
   9   9   2 1688.75 341.591   7
  -9  -9  -2 1401.86 334.645   1
  -9  -9  -2 1379.83 338.339   6
   9   9   3 763.007 310.671   3
   9   9   3 727.981 283.816   8
   9   9   3 617.514 277.215   7
  -9  -9  -3 716.925 265.413   1
  -9  -9  -3 790.320 317.818   6
   9   9   4 280.367 248.539   3
   9   9   4 542.964 214.893   8
   9   9   4 694.069 257.460   7
  -9  -9  -4 94.2673 214.164   1
  -9  -9  -4 384.129 279.697   6
   9   9   5 848.463 335.014   3
   9   9   5 192.511 211.729   8
   9   9   5 359.954 230.657   7
  -9  -9  -5 283.444 225.578   1
  -9  -9  -5 609.875 273.886   6
   9   9   6 71.0540 188.502   8
   9   9   6 169.213 195.183   7
  -9  -9  -6-188.580 212.715   1
  -9  -9  -6 390.446 272.366   6
 -10  -2   0 769.022 274.038   6
 -10  -2   0 298.899 188.479   1
 -10  -3   2 2687.86 474.668   6
 -10  -3   2 2290.99 374.423   1
 -10  -3   1 6639.13 614.410   1
 -10  -3   1 5468.91 642.938   6
 -10  -3   0-23.8674 202.089   6
 -10  -3   0 219.279 198.170   1
 -10  -3  -1 1411.67 345.409   6
 -10  -3  -1 755.124 364.425   1
 -10  -3  -2 6737.89 636.301   1
 -10  -3  -2 7563.30 755.000   6
 -10  -3  -3-282.602 252.343   1
 -10  -4   2 857.911 324.704   6
 -10  -4   2 1387.22 317.491   1
  10   4  -1 467.238 277.391   3
 -10  -4   1 581.253 247.560   6
 -10  -4   1 174.267 199.749   1
  10   4   0 105.954 254.958   3
 -10  -4   0 516.772 267.481   6
 -10  -4   0 382.269 182.830   1
  10   4   1 992.768 290.046   3
 -10  -4  -1 1137.15 319.445   6
 -10  -4  -1 855.130 245.666   1
  10   4   2 210.912 197.790   3
 -10  -4  -2 687.217 313.487   6
 -10  -4  -2 260.401 183.535   1
 -10  -4  -3-326.288 244.266   1
 -10  -4  -4 3547.73 468.309   1
  10   5  -2 1980.02 365.695   3
 -10  -5   2 1848.24 404.394   6
 -10  -5   2 2134.17 378.512   1
  10   5  -1 1784.79 339.244   3
 -10  -5   1 1492.40 408.469   6
 -10  -5   1 1782.72 348.074   1
  10   5   0 601.549 269.197   3
 -10  -5   0-251.913 288.894   6
 -10  -5   0 38.7112 183.876   1
  10   5   1 3508.06 481.471   3
 -10  -5  -1 3759.99 527.047   6
 -10  -5  -1 3484.10 446.129   1
  10   5   2 3193.32 469.635   3
 -10  -5  -2 2311.29 390.949   1
 -10  -5  -2 2560.32 475.794   6
 -10  -5  -3 96.9250 189.790   1
 -10  -5  -3 395.873 270.437   6
 -10  -5  -4 5745.04 587.440   1
 -10  -6   1 8242.25 668.450   1
 -10  -6   1 8263.20 798.387   6
  10   6  -1 8149.86 682.747   3
  10   6   0 1140.71 295.484   3
 -10  -6   0 1533.25 386.599   6
 -10  -6   0 1614.16 340.909   1
  10   6   1 2531.88 392.351   3
 -10  -6  -1 2369.85 380.292   1
 -10  -6  -1 3144.11 522.616   6
 -10  -6  -2 7192.23 658.568   1
 -10  -6  -2 9172.49 831.989   6
  10   6   2 7967.05 686.832   3
 -10  -6  -3 2448.74 422.220   1
 -10  -6  -3 2682.42 483.269   6
  10   6   4 1939.04 373.076   8
 -10  -6  -4 1956.50 393.778   1
  10   7   1 117.731 222.688   3
 -10  -7  -1-162.302 218.889   1
 -10  -7  -1 341.842 301.311   6
  10   7   2 1805.87 352.648   8
 -10  -7  -2 1200.08 307.524   1
 -10  -7  -2 1777.97 431.285   6
  10   7   3 405.918 213.625   8
 -10  -7  -3 858.922 304.158   1
   0   0   0    0.00    0.00   0
;
_shelx_hkl_checksum              54803
loop_
_space_group_symop_operation_xyz
'x, y, z'
'-x, -y, -z'
loop_
_atom_site_label
_atom_site_type_symbol
_atom_site_fract_x
_atom_site_fract_y
_atom_site_fract_z
_atom_site_U_iso_or_equiv
_atom_site_adp_type
_atom_site_occupancy
_atom_site_site_symmetry_order
_atom_site_calc_flag
_atom_site_refinement_flags_posn
_atom_site_refinement_flags_adp
_atom_site_refinement_flags_occupancy
_atom_site_disorder_assembly
_atom_site_disorder_group
I1 I -0.20537(5) 0.82579(4) 0.32763(4) 0.08270(16) Uani 1 1 d . . . . .
I2 I 0.22467(4) 0.87367(3) -0.01024(3) 0.06264(13) Uani 1 1 d . . . . .
F1 F -0.2705(4) 0.9358(3) 0.5456(3) 0.0912(11) Uani 1 1 d . . . . .
F2 F -0.0573(6) 0.9194(3) 0.7038(2) 0.0965(12) Uani 1 1 d . . . . .
F3 F 0.2934(5) 0.7763(4) 0.6942(3) 0.0966(12) Uani 1 1 d . . . . .
F4 F 0.4256(4) 0.6517(3) 0.5267(2) 0.0779(9) Uani 1 1 d . . . . .
F5 F 0.1055(4) 0.4742(3) 0.4138(2) 0.0650(7) Uani 1 1 d . . . . .
F6 F 0.2633(4) 0.3325(3) 0.2573(2) 0.0676(8) Uani 1 1 d . . . . .
F7 F 0.4758(4) 0.4287(3) 0.1174(2) 0.0606(7) Uani 1 1 d . . . . .
F8 F 0.3710(3) 0.8118(2) 0.2909(2) 0.0544(6) Uani 1 1 d . . . . .
F9 F 0.7943(3) 0.5016(3) 0.2262(2) 0.0666(7) Uani 1 1 d . . . . .
F10 F 1.0190(3) 0.5758(4) 0.0866(3) 0.0761(8) Uani 1 1 d . . . . .
F11 F 0.8996(4) 0.7825(3) -0.0911(2) 0.0719(8) Uani 1 1 d . . . . .
F12 F 0.5538(4) 0.9187(3) -0.1291(2) 0.0657(7) Uani 1 1 d . . . . .
C1 C -0.0328(6) 0.7998(4) 0.4501(3) 0.0492(10) Uani 1 1 d . . . . .
C2 C -0.0985(7) 0.8628(5) 0.5383(4) 0.0609(13) Uani 1 1 d . . . . .
C3 C 0.0089(8) 0.8560(5) 0.6205(4) 0.0650(14) Uani 1 1 d . . . . .
C4 C 0.1851(8) 0.7840(5) 0.6159(4) 0.0655(14) Uani 1 1 d . . . . .
C5 C 0.2543(7) 0.7194(5) 0.5294(4) 0.0553(11) Uani 1 1 d . . . . .
C6 C 0.1481(5) 0.7245(4) 0.4455(3) 0.0440(9) Uani 1 1 d . . . . .
C7 C 0.2312(5) 0.6495(4) 0.3557(3) 0.0405(9) Uani 1 1 d . . . . .
C8 C 0.2085(5) 0.5252(4) 0.3444(3) 0.0458(10) Uani 1 1 d . . . . .
C9 C 0.2898(6) 0.4516(4) 0.2655(3) 0.0452(9) Uani 1 1 d . . . . .
C10 C 0.3984(5) 0.5005(4) 0.1952(3) 0.0422(9) Uani 1 1 d . . . . .
C11 C 0.4282(5) 0.6229(4) 0.2012(3) 0.0381(8) Uani 1 1 d . . . . .
C12 C 0.3440(5) 0.6934(4) 0.2825(3) 0.0414(9) Uani 1 1 d . . . . .
C13 C 0.5491(5) 0.6722(4) 0.1235(3) 0.0389(8) Uani 1 1 d . . . . .
C14 C 0.7288(5) 0.6063(5) 0.1406(3) 0.0475(10) Uani 1 1 d . . . . .
C15 C 0.8458(5) 0.6438(5) 0.0691(4) 0.0518(11) Uani 1 1 d . . . . .
C16 C 0.7851(6) 0.7485(5) -0.0211(3) 0.0485(10) Uani 1 1 d . . . . .
C17 C 0.6075(6) 0.8168(4) -0.0396(3) 0.0447(9) Uani 1 1 d . . . . .
C18 C 0.4893(5) 0.7792(4) 0.0313(3) 0.0397(8) Uani 1 1 d . . . . .
loop_
_atom_site_aniso_label
_atom_site_aniso_U_11
_atom_site_aniso_U_22
_atom_site_aniso_U_33
_atom_site_aniso_U_23
_atom_site_aniso_U_13
_atom_site_aniso_U_12
I1 0.0565(2) 0.0806(3) 0.1063(3) -0.0233(2) -0.0159(2) -0.01413(18)
I2 0.03789(17) 0.0629(2) 0.0763(2) -0.00611(16) -0.00609(14) -0.00893(13)
F1 0.069(2) 0.076(2) 0.119(3) -0.0343(19) 0.0441(19) -0.0155(16)
F2 0.153(3) 0.0665(19) 0.0571(18) -0.0272(15) 0.045(2) -0.024(2)
F3 0.142(3) 0.075(2) 0.0579(19) -0.0249(16) -0.0315(19) -0.010(2)
F4 0.0645(18) 0.085(2) 0.0743(19) -0.0327(16) -0.0205(15) -0.0024(16)
F5 0.0832(19) 0.0572(15) 0.0629(16) -0.0123(13) 0.0311(14) -0.0399(14)
F6 0.097(2) 0.0541(15) 0.0709(18) -0.0237(13) 0.0224(15) -0.0475(15)
F7 0.0811(18) 0.0612(16) 0.0528(15) -0.0303(12) 0.0218(13) -0.0342(14)
F8 0.0609(15) 0.0488(13) 0.0659(16) -0.0268(12) 0.0205(12) -0.0290(12)
F9 0.0509(15) 0.0645(17) 0.0686(17) 0.0115(14) -0.0164(13) -0.0134(13)
F10 0.0329(13) 0.101(2) 0.087(2) -0.0156(17) -0.0014(13) -0.0167(14)
F11 0.0597(17) 0.105(2) 0.0646(17) -0.0153(16) 0.0187(13) -0.0495(16)
F12 0.0676(17) 0.0676(17) 0.0552(16) 0.0098(13) -0.0022(13) -0.0282(14)
C1 0.052(2) 0.042(2) 0.050(2) -0.0055(19) 0.0117(19) -0.0170(19)
C2 0.065(3) 0.042(2) 0.067(3) -0.009(2) 0.032(3) -0.016(2)
C3 0.098(4) 0.041(2) 0.044(3) -0.0074(19) 0.024(3) -0.016(3)
C4 0.105(4) 0.044(2) 0.036(2) -0.0043(19) -0.006(2) -0.015(3)
C5 0.070(3) 0.041(2) 0.044(2) -0.0111(19) -0.001(2) -0.007(2)
C6 0.052(2) 0.037(2) 0.040(2) -0.0063(17) 0.0071(18) -0.0155(18)
C7 0.045(2) 0.041(2) 0.033(2) -0.0088(16) 0.0053(16) -0.0134(17)
C8 0.046(2) 0.048(2) 0.042(2) -0.0079(18) 0.0035(18) -0.0168(19)
C9 0.054(2) 0.042(2) 0.046(2) -0.0092(18) 0.0031(18) -0.0240(19)
C10 0.051(2) 0.044(2) 0.034(2) -0.0138(17) 0.0051(17) -0.0170(18)
C11 0.039(2) 0.0378(19) 0.037(2) -0.0087(16) 0.0053(16) -0.0144(16)
C12 0.042(2) 0.037(2) 0.047(2) -0.0105(17) 0.0009(17) -0.0163(17)
C13 0.039(2) 0.041(2) 0.041(2) -0.0154(17) 0.0061(16) -0.0164(16)
C14 0.044(2) 0.053(2) 0.046(2) -0.0092(19) 0.0012(18) -0.0190(19)
C15 0.034(2) 0.067(3) 0.056(3) -0.020(2) -0.0015(18) -0.017(2)
C16 0.045(2) 0.062(3) 0.050(2) -0.018(2) 0.0101(19) -0.031(2)
C17 0.052(2) 0.047(2) 0.040(2) -0.0107(18) 0.0012(18) -0.0209(19)
C18 0.0349(19) 0.042(2) 0.045(2) -0.0139(17) 0.0035(16) -0.0139(16)
loop_
_atom_type_symbol
_atom_type_description
_atom_type_scat_dispersion_real
_atom_type_scat_dispersion_imag
_atom_type_scat_source
C C 0.0033 0.0016 'International Tables Vol C Tables 4.2.6.8 and 6.1.1.4'
F F 0.0171 0.0103 'International Tables Vol C Tables 4.2.6.8 and 6.1.1.4'
I I -0.4742 1.8119 'International Tables Vol C Tables 4.2.6.8 and 6.1.1.4'
loop_
_exptl_crystal_face_index_h
_exptl_crystal_face_index_k
_exptl_crystal_face_index_l
_exptl_crystal_face_perp_dist
0 10 23 0.0905
12 5 13 0.1254
0 10 -18 0.1518
-8 13 2 0.0958
0 -10 18 0.1238
8 -13 -2 0.0962
0 -10 -23 0.0837
8 19 4 0.0916
-8 -19 -4 0.1111
loop_
_geom_angle_atom_site_label_1
_geom_angle_atom_site_label_2
_geom_angle_atom_site_label_3
_geom_angle
_geom_angle_site_symmetry_1
_geom_angle_site_symmetry_3
_geom_angle_publ_flag
C2 C1 C6 118.9(4) . . ?
C2 C1 I1 118.5(4) . . ?
C6 C1 I1 122.6(3) . . ?
F1 C2 C3 117.4(4) . . ?
F1 C2 C1 120.6(5) . . ?
C3 C2 C1 122.0(5) . . ?
F2 C3 C4 119.8(6) . . ?
F2 C3 C2 120.8(5) . . ?
C4 C3 C2 119.4(4) . . ?
F3 C4 C3 120.9(5) . . ?
F3 C4 C5 119.1(5) . . ?
C3 C4 C5 120.0(5) . . ?
F4 C5 C4 118.6(4) . . ?
F4 C5 C6 119.7(4) . . ?
C4 C5 C6 121.7(5) . . ?
C5 C6 C1 118.1(4) . . ?
C5 C6 C7 118.9(4) . . ?
C1 C6 C7 123.0(4) . . ?
C12 C7 C8 115.9(3) . . ?
C12 C7 C6 122.4(4) . . ?
C8 C7 C6 121.6(3) . . ?
F5 C8 C9 118.3(4) . . ?
F5 C8 C7 119.4(3) . . ?
C9 C8 C7 122.4(4) . . ?
F6 C9 C8 120.3(4) . . ?
F6 C9 C10 120.6(4) . . ?
C8 C9 C10 119.2(4) . . ?
F7 C10 C9 118.7(4) . . ?
F7 C10 C11 119.2(3) . . ?
C9 C10 C11 122.0(4) . . ?
C12 C11 C10 116.8(3) . . ?
C12 C11 C13 122.7(3) . . ?
C10 C11 C13 120.5(3) . . ?
F8 C12 C11 118.3(3) . . ?
F8 C12 C7 118.0(3) . . ?
C11 C12 C7 123.7(4) . . ?
C14 C13 C18 117.9(3) . . ?
C14 C13 C11 119.2(4) . . ?
C18 C13 C11 122.8(3) . . ?
F9 C14 C15 117.6(4) . . ?
F9 C14 C13 120.9(4) . . ?
C15 C14 C13 121.5(4) . . ?
F10 C15 C16 120.0(4) . . ?
F10 C15 C14 120.1(4) . . ?
C16 C15 C14 119.9(4) . . ?
F11 C16 C15 119.5(4) . . ?
F11 C16 C17 120.6(4) . . ?
C15 C16 C17 119.9(4) . . ?
F12 C17 C16 118.0(4) . . ?
F12 C17 C18 121.5(4) . . ?
C16 C17 C18 120.6(4) . . ?
C17 C18 C13 120.2(4) . . ?
C17 C18 I2 118.1(3) . . ?
C13 C18 I2 121.5(3) . . ?
loop_
_geom_bond_atom_site_label_1
_geom_bond_atom_site_label_2
_geom_bond_distance
_geom_bond_site_symmetry_2
_geom_bond_publ_flag
I1 C1 2.075(5) . ?
I2 C18 2.078(4) . ?
F1 C2 1.340(6) . ?
F2 C3 1.335(5) . ?
F3 C4 1.343(6) . ?
F4 C5 1.321(6) . ?
F5 C8 1.340(5) . ?
F6 C9 1.347(5) . ?
F7 C10 1.339(4) . ?
F8 C12 1.343(4) . ?
F9 C14 1.335(5) . ?
F10 C15 1.343(5) . ?
F11 C16 1.338(5) . ?
F12 C17 1.342(5) . ?
C1 C2 1.386(6) . ?
C1 C6 1.404(6) . ?
C2 C3 1.379(8) . ?
C3 C4 1.364(8) . ?
C4 C5 1.380(6) . ?
C5 C6 1.396(6) . ?
C6 C7 1.493(5) . ?
C7 C12 1.392(6) . ?
C7 C8 1.394(6) . ?
C8 C9 1.368(6) . ?
C9 C10 1.369(6) . ?
C10 C11 1.386(5) . ?
C11 C12 1.382(5) . ?
C11 C13 1.496(5) . ?
C13 C14 1.388(6) . ?
C13 C18 1.397(5) . ?
C14 C15 1.378(6) . ?
C15 C16 1.369(6) . ?
C16 C17 1.377(6) . ?
C17 C18 1.383(6) . ?
loop_
_exptl_oxdiff_crystal_face_indexfrac_h
_exptl_oxdiff_crystal_face_indexfrac_k
_exptl_oxdiff_crystal_face_indexfrac_l
_exptl_oxdiff_crystal_face_x
_exptl_oxdiff_crystal_face_y
_exptl_oxdiff_crystal_face_z
-0.0894 10.3028 22.7539 -0.9919 0.7715 0.5775
11.9771 5.3267 13.1376 0.3239 1.1422 0.3697
-0.0528 9.5513 -18.4408 -0.1447 -0.2550 -1.3656
-8.1076 12.8021 2.3833 -1.3008 -0.1498 -0.5307
0.0528 -9.5513 18.4408 0.1447 0.2550 1.3656
8.1076 -12.8021 -2.3833 1.3008 0.1498 0.5307
0.0894 -10.3028 -22.7539 0.9919 -0.7715 -0.5775
7.8809 18.9462 3.5130 -0.4970 0.9511 -0.7776
-7.8809 -18.9462 -3.5130 0.4970 -0.9511 0.7776
